
     RDKit          3D

 44 47  0  0  0  0  0  0  0  0999 V2000
    4.8164    1.3676   19.0472 C   0  0  0  0  0  0  0  0  0  0  0  0
    5.4409    1.3095   17.7979 C   0  0  0  0  0  0  0  0  0  0  0  0
    6.5884    0.6400   17.5829 N   0  0  0  0  0  0  0  0  0  0  0  0
    7.1574    0.0376   18.6294 C   0  0  0  0  0  0  0  0  0  0  0  0
    6.6518    0.1224   19.9374 C   0  0  0  0  0  0  0  0  0  0  0  0
    7.3684   -0.5219   20.9788 N   0  0  0  0  0  0  0  0  0  0  0  0
    7.7058   -1.8204   20.8061 N   0  0  0  0  0  0  0  0  0  0  0  0
    8.1691   -2.1710   21.9825 C   0  0  0  0  0  0  0  0  0  0  0  0
    8.5805   -3.5860   22.2120 C   0  0  0  0  0  0  0  0  0  0  0  0
    7.5321   -4.4153   22.9593 C   0  0  0  0  0  0  0  0  0  0  0  0
    7.2449   -4.0236   24.4271 C   0  0  0  0  0  0  0  0  0  0  0  0
    7.6996   -5.4230   24.8908 C   0  0  0  0  0  0  0  0  0  0  0  0
    7.9859   -5.8211   23.4227 C   0  0  0  0  0  0  0  0  0  0  0  0
    9.0326   -6.0560   23.2134 H   0  0  0  0  0  0  0  0  0  0  0  0
    7.3823   -6.6443   23.0229 H   0  0  0  0  0  0  0  0  0  0  0  0
    6.9307   -6.0212   25.3875 H   0  0  0  0  0  0  0  0  0  0  0  0
    8.5901   -5.3916   25.5256 H   0  0  0  0  0  0  0  0  0  0  0  0
    7.8412   -3.1892   24.8156 H   0  0  0  0  0  0  0  0  0  0  0  0
    6.1902   -3.7983   24.6061 H   0  0  0  0  0  0  0  0  0  0  0  0
    6.6116   -4.4693   22.3617 H   0  0  0  0  0  0  0  0  0  0  0  0
    9.5359   -3.5818   22.7481 H   0  0  0  0  0  0  0  0  0  0  0  0
    8.7200   -4.0326   21.2244 H   0  0  0  0  0  0  0  0  0  0  0  0
    8.2066   -1.1676   22.9037 N   0  0  0  0  0  0  0  0  0  0  0  0
    7.7269   -0.1297   22.2376 C   0  0  0  0  0  0  0  0  0  0  0  0
    7.6903    1.3086   22.6667 C   0  0  0  0  0  0  0  0  0  0  0  0
    8.6220    2.2556   21.8609 C   0  0  0  0  0  0  0  0  0  0  0  0
    8.4850    3.6894   22.3062 C   0  0  0  0  0  0  0  0  0  0  0  0
    7.4236    4.4750   21.8585 C   0  0  0  0  0  0  0  0  0  0  0  0
    7.4483    5.8155   22.2222 C   0  0  0  0  0  0  0  0  0  0  0  0
    8.3878    6.3265   23.0251 N   0  0  0  0  0  0  0  0  0  0  0  0
    9.3061    5.4638   23.4655 C   0  0  0  0  0  0  0  0  0  0  0  0
    9.3879    4.1660   23.1698 N   0  0  0  0  0  0  0  0  0  0  0  0
   10.0699    5.8453   24.1417 H   0  0  0  0  0  0  0  0  0  0  0  0
    6.6953    6.5055   21.8358 H   0  0  0  0  0  0  0  0  0  0  0  0
    6.6325    4.0735   21.2358 H   0  0  0  0  0  0  0  0  0  0  0  0
    8.3905    2.1722   20.7895 H   0  0  0  0  0  0  0  0  0  0  0  0
    9.6715    1.9668   21.9918 H   0  0  0  0  0  0  0  0  0  0  0  0
    7.9389    1.3749   23.7290 H   0  0  0  0  0  0  0  0  0  0  0  0
    6.6591    1.6678   22.5710 H   0  0  0  0  0  0  0  0  0  0  0  0
    5.4281    0.7632   20.1503 C   0  0  0  0  0  0  0  0  0  0  0  0
    4.9498    0.7374   21.1316 H   0  0  0  0  0  0  0  0  0  0  0  0
    8.0525   -0.5518   18.4414 H   0  0  0  0  0  0  0  0  0  0  0  0
    5.0005    1.8012   16.9331 H   0  0  0  0  0  0  0  0  0  0  0  0
    3.8597    1.8658   19.1477 H   0  0  0  0  0  0  0  0  0  0  0  0
  1  2  2  0
  2  3  1  0
  3  4  2  0
  4  5  1  0
  5  6  1  0
  6  7  1  0
  7  8  2  0
  8  9  1  0
  9 10  1  0
 10 11  1  0
 11 12  1  0
 12 13  1  0
 13 14  1  0
 13 15  1  0
 12 16  1  0
 12 17  1  0
 11 18  1  0
 11 19  1  0
 10 20  1  0
  9 21  1  0
  9 22  1  0
  8 23  1  0
 23 24  2  0
 24 25  1  0
 25 26  1  0
 26 27  1  0
 27 28  2  0
 28 29  1  0
 29 30  2  0
 30 31  1  0
 31 32  2  0
 31 33  1  0
 29 34  1  0
 28 35  1  0
 26 36  1  0
 26 37  1  0
 25 38  1  0
 25 39  1  0
  5 40  2  0
 40 41  1  0
  4 42  1  0
  2 43  1  0
  1 44  1  0
 40  1  1  0
 24  6  1  0
 32 27  1  0
 13 10  1  0
M  END
>  <cnnaffinity>  (1) 
-5.89711

>  <filename>  (1) 
c1cncc(-n2nc(CC3CCC3)nc2CCc2ccncn2)c1

$$$$
