
     RDKit          3D

 41 44  0  0  0  0  0  0  0  0999 V2000
    4.8141    1.3089   19.1114 C   0  0  0  0  0  0  0  0  0  0  0  0
    5.3988    1.2951   17.8405 C   0  0  0  0  0  0  0  0  0  0  0  0
    6.5579    0.6721   17.5798 N   0  0  0  0  0  0  0  0  0  0  0  0
    7.1688    0.0493   18.5937 C   0  0  0  0  0  0  0  0  0  0  0  0
    6.6621    0.0036   19.9028 C   0  0  0  0  0  0  0  0  0  0  0  0
    7.3748   -0.6680   20.9350 N   0  0  0  0  0  0  0  0  0  0  0  0
    6.7430   -1.5732   21.7244 N   0  0  0  0  0  0  0  0  0  0  0  0
    7.6798   -1.9301   22.5855 C   0  0  0  0  0  0  0  0  0  0  0  0
    7.4089   -2.8239   23.7492 C   0  0  0  0  0  0  0  0  0  0  0  0
    6.4247   -2.2343   24.8174 C   0  0  0  0  0  0  0  0  0  0  0  0
    5.4299   -3.3791   24.5115 C   0  0  0  0  0  0  0  0  0  0  0  0
    6.4156   -3.9935   23.4882 C   0  0  0  0  0  0  0  0  0  0  0  0
    6.0471   -4.0354   22.4563 H   0  0  0  0  0  0  0  0  0  0  0  0
    6.8044   -4.9813   23.7530 H   0  0  0  0  0  0  0  0  0  0  0  0
    5.1895   -4.0196   25.3656 H   0  0  0  0  0  0  0  0  0  0  0  0
    4.4842   -3.0454   24.0726 H   0  0  0  0  0  0  0  0  0  0  0  0
    6.0629   -1.2244   24.5797 H   0  0  0  0  0  0  0  0  0  0  0  0
    6.8179   -2.2162   25.8383 H   0  0  0  0  0  0  0  0  0  0  0  0
    8.3800   -3.1217   24.1549 H   0  0  0  0  0  0  0  0  0  0  0  0
    8.8818   -1.3273   22.4040 N   0  0  0  0  0  0  0  0  0  0  0  0
    8.6510   -0.5115   21.3922 C   0  0  0  0  0  0  0  0  0  0  0  0
    9.5313    0.6119   20.9509 C   0  0  0  0  0  0  0  0  0  0  0  0
    9.0532    2.0111   21.4448 C   0  0  0  0  0  0  0  0  0  0  0  0
    8.9307    2.0805   22.9455 C   0  0  0  0  0  0  0  0  0  0  0  0
    7.7187    1.8147   23.5799 C   0  0  0  0  0  0  0  0  0  0  0  0
    7.7328    1.7973   24.9665 C   0  0  0  0  0  0  0  0  0  0  0  0
    8.8426    2.0129   25.6713 N   0  0  0  0  0  0  0  0  0  0  0  0
    9.9501    2.2159   24.9625 C   0  0  0  0  0  0  0  0  0  0  0  0
   10.0505    2.2831   23.6384 N   0  0  0  0  0  0  0  0  0  0  0  0
   10.8851    2.3075   25.5100 H   0  0  0  0  0  0  0  0  0  0  0  0
    6.8272    1.5964   25.5448 H   0  0  0  0  0  0  0  0  0  0  0  0
    6.8319    1.5869   23.0147 H   0  0  0  0  0  0  0  0  0  0  0  0
    8.0815    2.2472   20.9989 H   0  0  0  0  0  0  0  0  0  0  0  0
    9.7677    2.7740   21.1251 H   0  0  0  0  0  0  0  0  0  0  0  0
   10.5335    0.4011   21.3350 H   0  0  0  0  0  0  0  0  0  0  0  0
    9.5847    0.6154   19.8617 H   0  0  0  0  0  0  0  0  0  0  0  0
    5.4441    0.6410   20.1663 C   0  0  0  0  0  0  0  0  0  0  0  0
    5.0164    0.6082   21.1704 H   0  0  0  0  0  0  0  0  0  0  0  0
    8.1148   -0.4380   18.3650 H   0  0  0  0  0  0  0  0  0  0  0  0
    4.9210    1.7870   16.9963 H   0  0  0  0  0  0  0  0  0  0  0  0
    3.8823    1.8377   19.2624 H   0  0  0  0  0  0  0  0  0  0  0  0
  1  2  2  0
  2  3  1  0
  3  4  2  0
  4  5  1  0
  5  6  1  0
  6  7  1  0
  7  8  2  0
  8  9  1  0
  9 10  1  0
 10 11  1  0
 11 12  1  0
 12 13  1  0
 12 14  1  0
 11 15  1  0
 11 16  1  0
 10 17  1  0
 10 18  1  0
  9 19  1  0
  8 20  1  0
 20 21  2  0
 21 22  1  0
 22 23  1  0
 23 24  1  0
 24 25  2  0
 25 26  1  0
 26 27  2  0
 27 28  1  0
 28 29  2  0
 28 30  1  0
 26 31  1  0
 25 32  1  0
 23 33  1  0
 23 34  1  0
 22 35  1  0
 22 36  1  0
  5 37  2  0
 37 38  1  0
  4 39  1  0
  2 40  1  0
  1 41  1  0
 37  1  1  0
 21  6  1  0
 29 24  1  0
 12  9  1  0
M  END
>  <cnnaffinity>  (1) 
-6.12851

>  <filename>  (1) 
c1cncc(-n2nc(C3CCC3)nc2CCc2ccncn2)c1

$$$$
