
     RDKit          3D

 36 39  0  0  0  0  0  0  0  0999 V2000
    4.8360    1.3201   19.0607 C   0  0  0  0  0  0  0  0  0  0  0  0
    5.4438    1.2891   17.8010 C   0  0  0  0  0  0  0  0  0  0  0  0
    6.5844    0.6220   17.5496 N   0  0  0  0  0  0  0  0  0  0  0  0
    7.1727   -0.0103   18.5703 C   0  0  0  0  0  0  0  0  0  0  0  0
    6.6736    0.0215   19.8842 C   0  0  0  0  0  0  0  0  0  0  0  0
    7.3976   -0.5987   20.9365 N   0  0  0  0  0  0  0  0  0  0  0  0
    7.8035   -1.8965   20.8627 N   0  0  0  0  0  0  0  0  0  0  0  0
    8.2608   -2.1192   22.0809 C   0  0  0  0  0  0  0  0  0  0  0  0
    8.8943   -3.3729   22.5087 C   0  0  0  0  0  0  0  0  0  0  0  0
   10.0354   -3.2543   23.4994 C   0  0  0  0  0  0  0  0  0  0  0  0
    8.7706   -3.9223   23.9130 C   0  0  0  0  0  0  0  0  0  0  0  0
    8.7909   -5.0017   24.0327 H   0  0  0  0  0  0  0  0  0  0  0  0
    8.1061   -3.4128   24.6082 H   0  0  0  0  0  0  0  0  0  0  0  0
   10.9513   -3.8128   23.3320 H   0  0  0  0  0  0  0  0  0  0  0  0
   10.1855   -2.2561   23.9087 H   0  0  0  0  0  0  0  0  0  0  0  0
    8.9083   -4.1059   21.7132 H   0  0  0  0  0  0  0  0  0  0  0  0
    8.1816   -1.0536   22.9265 N   0  0  0  0  0  0  0  0  0  0  0  0
    7.6897   -0.1061   22.1787 C   0  0  0  0  0  0  0  0  0  0  0  0
    7.6476    1.3316   22.5841 C   0  0  0  0  0  0  0  0  0  0  0  0
    8.6094    2.2629   21.7937 C   0  0  0  0  0  0  0  0  0  0  0  0
    8.5057    3.6932   22.2392 C   0  0  0  0  0  0  0  0  0  0  0  0
    7.5007    4.5534   21.9153 C   0  0  0  0  0  0  0  0  0  0  0  0
    7.7159    6.0441   22.7519 S   0  0  0  0  0  0  0  0  0  0  0  0
    9.1541    5.4057   23.4598 C   0  0  0  0  0  0  0  0  0  0  0  0
    9.4391    4.1874   23.1288 N   0  0  0  0  0  0  0  0  0  0  0  0
    9.7661    6.0100   24.1244 H   0  0  0  0  0  0  0  0  0  0  0  0
    6.6626    4.3775   21.2481 H   0  0  0  0  0  0  0  0  0  0  0  0
    9.6476    1.9482   21.9576 H   0  0  0  0  0  0  0  0  0  0  0  0
    8.4024    2.1953   20.7182 H   0  0  0  0  0  0  0  0  0  0  0  0
    6.6199    1.6919   22.4928 H   0  0  0  0  0  0  0  0  0  0  0  0
    7.8941    1.3692   23.6511 H   0  0  0  0  0  0  0  0  0  0  0  0
    5.4608    0.6782   20.1324 C   0  0  0  0  0  0  0  0  0  0  0  0
    5.0077    0.6618   21.1266 H   0  0  0  0  0  0  0  0  0  0  0  0
    8.0786   -0.5691   18.3529 H   0  0  0  0  0  0  0  0  0  0  0  0
    5.0021    1.8206   16.9625 H   0  0  0  0  0  0  0  0  0  0  0  0
    3.8992    1.8496   19.1972 H   0  0  0  0  0  0  0  0  0  0  0  0
  1  2  2  0
  2  3  1  0
  3  4  2  0
  4  5  1  0
  5  6  1  0
  6  7  1  0
  7  8  2  0
  8  9  1  0
  9 10  1  0
 10 11  1  0
 11 12  1  0
 11 13  1  0
 10 14  1  0
 10 15  1  0
  9 16  1  0
  8 17  1  0
 17 18  2  0
 18 19  1  0
 19 20  1  0
 20 21  1  0
 21 22  2  0
 22 23  1  0
 23 24  1  0
 24 25  2  0
 24 26  1  0
 22 27  1  0
 20 28  1  0
 20 29  1  0
 19 30  1  0
 19 31  1  0
  5 32  2  0
 32 33  1  0
  4 34  1  0
  2 35  1  0
  1 36  1  0
 32  1  1  0
 18  6  1  0
 25 21  1  0
 11  9  1  0
M  END
>  <cnnaffinity>  (1) 
-5.49183

>  <filename>  (1) 
c1cncc(-n2nc(C3CC3)nc2CCc2cscn2)c1

$$$$
