
     RDKit          3D

 32 34  0  0  0  0  0  0  0  0999 V2000
    4.9315    1.7955   16.9975 H   0  0  0  0  0  0  0  0  0  0  0  0
    5.4009    1.2899   17.8392 C   0  0  0  0  0  0  0  0  0  0  0  0
    6.5590    0.6663   17.5798 N   0  0  0  0  0  0  0  0  0  0  0  0
    7.1811    0.0469   18.5870 C   0  0  0  0  0  0  0  0  0  0  0  0
    8.1147   -0.4455   18.3243 H   0  0  0  0  0  0  0  0  0  0  0  0
    6.6909    0.0029   19.9063 C   0  0  0  0  0  0  0  0  0  0  0  0
    7.3886   -0.6893   20.9350 N   0  0  0  0  0  0  0  0  0  0  0  0
    8.7339   -0.8964   21.1289 C   0  0  0  0  0  0  0  0  0  0  0  0
    9.4722   -0.4985   20.4419 H   0  0  0  0  0  0  0  0  0  0  0  0
    9.0001   -1.5736   22.2170 N   0  0  0  0  0  0  0  0  0  0  0  0
    7.7817   -1.8109   22.7756 C   0  0  0  0  0  0  0  0  0  0  0  0
    7.7391   -2.4209   23.9919 N   0  0  0  0  0  0  0  0  0  0  0  0
    8.6610   -2.7678   24.1981 H   0  0  0  0  0  0  0  0  0  0  0  0
    6.4902   -2.9026   24.5451 C   0  0  0  0  0  0  0  0  0  0  0  0
    6.6887   -3.2525   25.5661 H   0  0  0  0  0  0  0  0  0  0  0  0
    5.7941   -2.0540   24.6376 H   0  0  0  0  0  0  0  0  0  0  0  0
    5.7719   -4.0024   23.7417 C   0  0  0  0  0  0  0  0  0  0  0  0
    6.3752   -5.2492   23.5159 C   0  0  0  0  0  0  0  0  0  0  0  0
    7.3518   -5.4733   23.9324 H   0  0  0  0  0  0  0  0  0  0  0  0
    5.7127   -6.2169   22.7515 C   0  0  0  0  0  0  0  0  0  0  0  0
    6.1723   -7.1896   22.5721 H   0  0  0  0  0  0  0  0  0  0  0  0
    4.5055   -6.0281   22.2023 N   0  0  0  0  0  0  0  0  0  0  0  0
    3.9030   -4.8589   22.4431 C   0  0  0  0  0  0  0  0  0  0  0  0
    2.9112   -4.7278   22.0084 H   0  0  0  0  0  0  0  0  0  0  0  0
    4.4804   -3.8386   23.2061 C   0  0  0  0  0  0  0  0  0  0  0  0
    3.8983   -2.9498   23.4000 H   0  0  0  0  0  0  0  0  0  0  0  0
    6.7835   -1.3142   22.0116 C   0  0  0  0  0  0  0  0  0  0  0  0
    5.7292   -1.4162   22.1380 H   0  0  0  0  0  0  0  0  0  0  0  0
    5.4681    0.6461   20.1629 C   0  0  0  0  0  0  0  0  0  0  0  0
    5.0346    0.6514   21.1632 H   0  0  0  0  0  0  0  0  0  0  0  0
    4.8211    1.3010   19.1106 C   0  0  0  0  0  0  0  0  0  0  0  0
    3.8862    1.8288   19.2618 H   0  0  0  0  0  0  0  0  0  0  0  0
  1  2  1  0
  2  3  2  0
  3  4  1  0
  4  5  1  0
  4  6  2  0
  6  7  1  0
  7  8  1  0
  8  9  1  0
  8 10  2  0
 10 11  1  0
 11 12  1  0
 12 13  1  0
 12 14  1  0
 14 15  1  0
 14 16  1  0
 14 17  1  0
 17 18  2  0
 18 19  1  0
 18 20  1  0
 20 21  1  0
 20 22  2  0
 22 23  1  0
 23 24  1  0
 23 25  2  0
 25 26  1  0
 11 27  2  0
 27 28  1  0
  6 29  1  0
 29 30  1  0
 29 31  2  0
 31 32  1  0
 31  2  1  0
 27  7  1  0
 25 17  1  0
M  END
>  <cnnaffinity>  (1) 
-5.2455

>  <filename>  (1) 
c1cncc(-n2cnc(NCc3ccncc3)c2)c1

$$$$
