
     RDKit          3D

 37 39  0  0  0  0  0  0  0  0999 V2000
    5.0203    1.7969   16.9498 H   0  0  0  0  0  0  0  0  0  0  0  0
    5.4832    1.2808   17.7885 C   0  0  0  0  0  0  0  0  0  0  0  0
    6.6495    0.6644   17.5368 N   0  0  0  0  0  0  0  0  0  0  0  0
    7.2433    0.0484   18.5652 C   0  0  0  0  0  0  0  0  0  0  0  0
    8.1828   -0.4549   18.3444 H   0  0  0  0  0  0  0  0  0  0  0  0
    6.7215   -0.0116   19.8695 C   0  0  0  0  0  0  0  0  0  0  0  0
    7.4820   -0.7126   20.9316 C   0  0  0  0  0  0  0  0  0  0  0  0
    6.8582   -1.5524   21.8863 C   0  0  0  0  0  0  0  0  0  0  0  0
    5.7863   -1.7386   21.8789 H   0  0  0  0  0  0  0  0  0  0  0  0
    7.5522   -2.2098   22.8092 N   0  0  0  0  0  0  0  0  0  0  0  0
    8.8788   -2.0518   22.9074 N   0  0  0  0  0  0  0  0  0  0  0  0
    9.5282   -1.2279   22.0607 C   0  0  0  0  0  0  0  0  0  0  0  0
   10.8528   -1.1056   22.3397 N   0  0  0  0  0  0  0  0  0  0  0  0
   11.0600   -1.5913   23.1936 H   0  0  0  0  0  0  0  0  0  0  0  0
   11.8136   -0.2174   21.7355 C   0  0  0  0  0  0  0  0  0  0  0  0
   11.8103   -0.4480   20.6636 H   0  0  0  0  0  0  0  0  0  0  0  0
   11.4571    1.2916   21.8748 C   0  0  0  0  0  0  0  0  0  0  0  0
   11.9775    1.8370   21.0760 H   0  0  0  0  0  0  0  0  0  0  0  0
   10.3884    1.4452   21.6938 H   0  0  0  0  0  0  0  0  0  0  0  0
   11.8518    1.9198   23.2206 C   0  0  0  0  0  0  0  0  0  0  0  0
   11.2404    1.4968   24.0323 H   0  0  0  0  0  0  0  0  0  0  0  0
   11.6367    2.9958   23.2184 H   0  0  0  0  0  0  0  0  0  0  0  0
   13.3390    1.6639   23.4843 C   0  0  0  0  0  0  0  0  0  0  0  0
   13.9232    2.1154   22.6675 H   0  0  0  0  0  0  0  0  0  0  0  0
   13.6782    2.1555   24.3925 H   0  0  0  0  0  0  0  0  0  0  0  0
   13.6078    0.1592   23.5974 C   0  0  0  0  0  0  0  0  0  0  0  0
   13.0304   -0.2118   24.4603 H   0  0  0  0  0  0  0  0  0  0  0  0
   14.6695   -0.0242   23.8135 H   0  0  0  0  0  0  0  0  0  0  0  0
   13.2106   -0.5809   22.3038 C   0  0  0  0  0  0  0  0  0  0  0  0
   13.9813   -0.3502   21.5584 H   0  0  0  0  0  0  0  0  0  0  0  0
   13.2317   -1.6722   22.4395 H   0  0  0  0  0  0  0  0  0  0  0  0
    8.8613   -0.5778   21.0116 C   0  0  0  0  0  0  0  0  0  0  0  0
    9.4313    0.0376   20.3229 H   0  0  0  0  0  0  0  0  0  0  0  0
    5.4930    0.6227   20.1062 C   0  0  0  0  0  0  0  0  0  0  0  0
    5.0513    0.6050   21.1051 H   0  0  0  0  0  0  0  0  0  0  0  0
    4.8707    1.2850   19.0481 C   0  0  0  0  0  0  0  0  0  0  0  0
    3.9348    1.8122   19.1906 H   0  0  0  0  0  0  0  0  0  0  0  0
  1  2  1  0
  2  3  2  0
  3  4  1  0
  4  5  1  0
  4  6  2  0
  6  7  1  0
  7  8  2  0
  8  9  1  0
  8 10  1  0
 10 11  2  0
 11 12  1  0
 12 13  1  0
 13 14  1  0
 13 15  1  0
 15 16  1  0
 15 17  1  0
 17 18  1  0
 17 19  1  0
 17 20  1  0
 20 21  1  0
 20 22  1  0
 20 23  1  0
 23 24  1  0
 23 25  1  0
 23 26  1  0
 26 27  1  0
 26 28  1  0
 26 29  1  0
 29 30  1  0
 29 31  1  0
 12 32  2  0
 32 33  1  0
  6 34  1  0
 34 35  1  0
 34 36  2  0
 36 37  1  0
 36  2  1  0
 32  7  1  0
 29 15  1  0
M  END
>  <cnnaffinity>  (1) 
-5.10435

>  <filename>  (1) 
c1cncc(-c2cnnc(NC3CCCCC3)c2)c1

$$$$
