
     RDKit          3D

 37 39  0  0  0  0  0  0  0  0999 V2000
    4.9266    1.8354   16.9611 H   0  0  0  0  0  0  0  0  0  0  0  0
    5.3953    1.3259   17.7995 C   0  0  0  0  0  0  0  0  0  0  0  0
    6.5558    0.7032   17.5394 N   0  0  0  0  0  0  0  0  0  0  0  0
    7.1624    0.0784   18.5617 C   0  0  0  0  0  0  0  0  0  0  0  0
    8.1055   -0.4108   18.3095 H   0  0  0  0  0  0  0  0  0  0  0  0
    6.6537    0.0108   19.8807 C   0  0  0  0  0  0  0  0  0  0  0  0
    7.3383   -0.7186   20.9892 C   0  0  0  0  0  0  0  0  0  0  0  0
    6.8269   -1.6886   21.8949 C   0  0  0  0  0  0  0  0  0  0  0  0
    5.8211   -2.0687   21.9669 H   0  0  0  0  0  0  0  0  0  0  0  0
    7.7519   -2.1513   22.7262 N   0  0  0  0  0  0  0  0  0  0  0  0
    8.8522   -1.4643   22.3820 N   0  0  0  0  0  0  0  0  0  0  0  0
    9.6877   -1.5796   22.9342 H   0  0  0  0  0  0  0  0  0  0  0  0
    8.6687   -0.5748   21.3706 C   0  0  0  0  0  0  0  0  0  0  0  0
    9.7231    0.4127   20.9547 C   0  0  0  0  0  0  0  0  0  0  0  0
   10.7207   -0.0417   21.0462 H   0  0  0  0  0  0  0  0  0  0  0  0
    9.5740    0.6191   19.8898 H   0  0  0  0  0  0  0  0  0  0  0  0
    9.7098    1.7754   21.7076 C   0  0  0  0  0  0  0  0  0  0  0  0
   10.4989    2.3920   21.2444 H   0  0  0  0  0  0  0  0  0  0  0  0
    8.3652    2.4989   21.5265 C   0  0  0  0  0  0  0  0  0  0  0  0
    7.5831    1.8700   21.9653 H   0  0  0  0  0  0  0  0  0  0  0  0
    8.1321    2.5483   20.4578 H   0  0  0  0  0  0  0  0  0  0  0  0
    8.2824    3.8559   22.2483 C   0  0  0  0  0  0  0  0  0  0  0  0
    8.9256    4.6094   21.7934 H   0  0  0  0  0  0  0  0  0  0  0  0
    7.2681    4.2614   22.1362 H   0  0  0  0  0  0  0  0  0  0  0  0
    8.6763    3.7443   23.7324 C   0  0  0  0  0  0  0  0  0  0  0  0
    7.9020    3.2034   24.2893 H   0  0  0  0  0  0  0  0  0  0  0  0
    8.7109    4.7427   24.1863 H   0  0  0  0  0  0  0  0  0  0  0  0
   10.0247    3.0277   23.9047 C   0  0  0  0  0  0  0  0  0  0  0  0
   10.8156    3.6616   23.4818 H   0  0  0  0  0  0  0  0  0  0  0  0
   10.2575    2.9040   24.9676 H   0  0  0  0  0  0  0  0  0  0  0  0
   10.0222    1.6582   23.2095 C   0  0  0  0  0  0  0  0  0  0  0  0
   10.9744    1.1376   23.3569 H   0  0  0  0  0  0  0  0  0  0  0  0
    9.2490    1.0413   23.6896 H   0  0  0  0  0  0  0  0  0  0  0  0
    5.4287    0.6626   20.1090 C   0  0  0  0  0  0  0  0  0  0  0  0
    5.0010    0.6675   21.1113 H   0  0  0  0  0  0  0  0  0  0  0  0
    4.7893    1.3274   19.0583 C   0  0  0  0  0  0  0  0  0  0  0  0
    3.8483    1.8531   19.2017 H   0  0  0  0  0  0  0  0  0  0  0  0
  1  2  1  0
  2  3  2  0
  3  4  1  0
  4  5  1  0
  4  6  2  0
  6  7  1  0
  7  8  1  0
  8  9  1  0
  8 10  2  0
 10 11  1  0
 11 12  1  0
 11 13  1  0
 13 14  1  0
 14 15  1  0
 14 16  1  0
 14 17  1  0
 17 18  1  0
 17 19  1  0
 19 20  1  0
 19 21  1  0
 19 22  1  0
 22 23  1  0
 22 24  1  0
 22 25  1  0
 25 26  1  0
 25 27  1  0
 25 28  1  0
 28 29  1  0
 28 30  1  0
 28 31  1  0
 31 32  1  0
 31 33  1  0
  6 34  1  0
 34 35  1  0
 34 36  2  0
 36 37  1  0
 36  2  1  0
 13  7  2  0
 31 17  1  0
M  END
>  <cnnaffinity>  (1) 
-5.04779

>  <filename>  (1) 
c1cncc(-c2cn[nH]c2CC2CCCCC2)c1

$$$$
