
     RDKit          3D

 35 38  0  0  0  0  0  0  0  0999 V2000
    4.9533    1.7805   16.9933 H   0  0  0  0  0  0  0  0  0  0  0  0
    5.4085    1.2837   17.8464 C   0  0  0  0  0  0  0  0  0  0  0  0
    6.5712    0.6602   17.6039 N   0  0  0  0  0  0  0  0  0  0  0  0
    7.1657    0.0425   18.6270 C   0  0  0  0  0  0  0  0  0  0  0  0
    8.1101   -0.4531   18.4026 H   0  0  0  0  0  0  0  0  0  0  0  0
    6.6419    0.0244   19.9262 C   0  0  0  0  0  0  0  0  0  0  0  0
    7.4041   -0.7026   20.9494 C   0  0  0  0  0  0  0  0  0  0  0  0
    8.1111   -1.7334   20.6864 N   0  0  0  0  0  0  0  0  0  0  0  0
    8.6504   -2.2491   21.9445 C   0  0  0  0  0  0  0  0  0  0  0  0
    8.2841   -3.2735   22.1218 H   0  0  0  0  0  0  0  0  0  0  0  0
    9.7472   -2.3071   21.8798 H   0  0  0  0  0  0  0  0  0  0  0  0
    8.1865   -1.2665   23.0487 C   0  0  0  0  0  0  0  0  0  0  0  0
    7.6128   -1.7589   23.8468 H   0  0  0  0  0  0  0  0  0  0  0  0
    9.0213   -0.7471   23.5387 H   0  0  0  0  0  0  0  0  0  0  0  0
    7.3611   -0.3168   22.2923 N   0  0  0  0  0  0  0  0  0  0  0  0
    7.1777    1.0222   22.7682 C   0  0  0  0  0  0  0  0  0  0  0  0
    7.9101    2.0889   22.2701 C   0  0  0  0  0  0  0  0  0  0  0  0
    8.6451    1.9256   21.4771 H   0  0  0  0  0  0  0  0  0  0  0  0
    7.7977    3.3760   22.7077 N   0  0  0  0  0  0  0  0  0  0  0  0
    6.9165    3.6479   23.6468 C   0  0  0  0  0  0  0  0  0  0  0  0
    6.8494    4.6914   23.9674 H   0  0  0  0  0  0  0  0  0  0  0  0
    6.0770    2.6647   24.2624 C   0  0  0  0  0  0  0  0  0  0  0  0
    5.1267    2.9686   25.2893 C   0  0  0  0  0  0  0  0  0  0  0  0
    5.0454    3.9952   25.6439 H   0  0  0  0  0  0  0  0  0  0  0  0
    4.3424    1.9771   25.8313 C   0  0  0  0  0  0  0  0  0  0  0  0
    3.6242    2.2213   26.6121 H   0  0  0  0  0  0  0  0  0  0  0  0
    4.5006    0.6296   25.4184 C   0  0  0  0  0  0  0  0  0  0  0  0
    3.8519   -0.1430   25.8234 H   0  0  0  0  0  0  0  0  0  0  0  0
    5.4809    0.3016   24.5006 C   0  0  0  0  0  0  0  0  0  0  0  0
    5.7032   -0.7297   24.2488 H   0  0  0  0  0  0  0  0  0  0  0  0
    6.2434    1.3056   23.8398 C   0  0  0  0  0  0  0  0  0  0  0  0
    5.4226    0.6731   20.1713 C   0  0  0  0  0  0  0  0  0  0  0  0
    4.9800    0.6811   21.1712 H   0  0  0  0  0  0  0  0  0  0  0  0
    4.7988    1.3107   19.1048 C   0  0  0  0  0  0  0  0  0  0  0  0
    3.8657    1.8430   19.2341 H   0  0  0  0  0  0  0  0  0  0  0  0
  1  2  1  0
  2  3  2  0
  3  4  1  0
  4  5  1  0
  4  6  2  0
  6  7  1  0
  7  8  2  0
  8  9  1  0
  9 10  1  0
  9 11  1  0
  9 12  1  0
 12 13  1  0
 12 14  1  0
 12 15  1  0
 15 16  1  0
 16 17  2  0
 17 18  1  0
 17 19  1  0
 19 20  2  0
 20 21  1  0
 20 22  1  0
 22 23  2  0
 23 24  1  0
 23 25  1  0
 25 26  1  0
 25 27  2  0
 27 28  1  0
 27 29  1  0
 29 30  1  0
 29 31  2  0
  6 32  1  0
 32 33  1  0
 32 34  2  0
 34 35  1  0
 34  2  1  0
 15  7  1  0
 31 16  1  0
 31 22  1  0
M  END
>  <cnnaffinity>  (1) 
-4.9982

>  <filename>  (1) 
c1cncc(C2=NCCN2c2cncc3ccccc23)c1

$$$$
