
     RDKit          3D

 34 36  0  0  0  0  0  0  0  0999 V2000
    4.9838    1.7527   16.9893 H   0  0  0  0  0  0  0  0  0  0  0  0
    5.4174    1.2782   17.8659 C   0  0  0  0  0  0  0  0  0  0  0  0
    6.5914    0.6605   17.6692 N   0  0  0  0  0  0  0  0  0  0  0  0
    7.1704    0.1003   18.7316 C   0  0  0  0  0  0  0  0  0  0  0  0
    8.1220   -0.3916   18.5266 H   0  0  0  0  0  0  0  0  0  0  0  0
    6.6300    0.1235   20.0262 C   0  0  0  0  0  0  0  0  0  0  0  0
    7.3663   -0.5387   21.1202 C   0  0  0  0  0  0  0  0  0  0  0  0
    7.1977   -0.0540   22.3555 N   0  0  0  0  0  0  0  0  0  0  0  0
    7.8284   -0.6899   23.3343 C   0  0  0  0  0  0  0  0  0  0  0  0
    7.7850   -0.2320   24.5874 O   0  0  0  0  0  0  0  0  0  0  0  0
    6.9774    0.9093   24.8710 C   0  0  0  0  0  0  0  0  0  0  0  0
    7.2354    1.7160   24.1741 H   0  0  0  0  0  0  0  0  0  0  0  0
    7.2240    1.3037   26.3136 C   0  0  0  0  0  0  0  0  0  0  0  0
    8.1535    1.8733   26.4245 H   0  0  0  0  0  0  0  0  0  0  0  0
    7.3257    0.3771   26.8878 H   0  0  0  0  0  0  0  0  0  0  0  0
    5.9574    2.0652   26.7405 C   0  0  0  0  0  0  0  0  0  0  0  0
    6.0736    3.1341   26.5225 H   0  0  0  0  0  0  0  0  0  0  0  0
    5.7572    1.9625   27.8139 H   0  0  0  0  0  0  0  0  0  0  0  0
    4.8077    1.4727   25.8758 C   0  0  0  0  0  0  0  0  0  0  0  0
    4.2159    2.2731   25.4190 H   0  0  0  0  0  0  0  0  0  0  0  0
    4.1200    0.8634   26.4724 H   0  0  0  0  0  0  0  0  0  0  0  0
    5.4820    0.5944   24.7993 C   0  0  0  0  0  0  0  0  0  0  0  0
    5.3396   -0.4694   25.0122 H   0  0  0  0  0  0  0  0  0  0  0  0
    5.1062    0.7673   23.7886 H   0  0  0  0  0  0  0  0  0  0  0  0
    8.5942   -1.8577   23.1782 C   0  0  0  0  0  0  0  0  0  0  0  0
    9.0462   -2.2951   24.0610 H   0  0  0  0  0  0  0  0  0  0  0  0
    8.7527   -2.3559   21.9039 C   0  0  0  0  0  0  0  0  0  0  0  0
    9.3178   -3.2658   21.7163 H   0  0  0  0  0  0  0  0  0  0  0  0
    8.1602   -1.6485   20.8555 C   0  0  0  0  0  0  0  0  0  0  0  0
    8.2997   -1.9253   19.8364 H   0  0  0  0  0  0  0  0  0  0  0  0
    5.3853    0.7466   20.2085 C   0  0  0  0  0  0  0  0  0  0  0  0
    4.9039    0.7567   21.1898 H   0  0  0  0  0  0  0  0  0  0  0  0
    4.7714    1.3333   19.1053 C   0  0  0  0  0  0  0  0  0  0  0  0
    3.8203    1.8457   19.1978 H   0  0  0  0  0  0  0  0  0  0  0  0
  1  2  1  0
  2  3  2  0
  3  4  1  0
  4  5  1  0
  4  6  2  0
  6  7  1  0
  7  8  2  0
  8  9  1  0
  9 10  1  0
 10 11  1  0
 11 12  1  0
 11 13  1  0
 13 14  1  0
 13 15  1  0
 13 16  1  0
 16 17  1  0
 16 18  1  0
 16 19  1  0
 19 20  1  0
 19 21  1  0
 19 22  1  0
 22 23  1  0
 22 24  1  0
  9 25  2  0
 25 26  1  0
 25 27  1  0
 27 28  1  0
 27 29  2  0
 29 30  1  0
  6 31  1  0
 31 32  1  0
 31 33  2  0
 33 34  1  0
 33  2  1  0
 29  7  1  0
 22 11  1  0
M  END
>  <cnnaffinity>  (1) 
-4.99514

>  <filename>  (1) 
c1cncc(-c2cccc(OC3CCCC3)n2)c1

$$$$
