
     RDKit          3D

 44 48  0  0  0  0  0  0  0  0999 V2000
    4.7614    1.2476   18.5575 C   0  0  0  0  0  0  0  0  0  0  0  0
    5.5145    1.2471   17.3838 C   0  0  0  0  0  0  0  0  0  0  0  0
    6.7620    0.7494   17.3194 N   0  0  0  0  0  0  0  0  0  0  0  0
    7.2943    0.2609   18.4438 C   0  0  0  0  0  0  0  0  0  0  0  0
    6.6271    0.2341   19.6936 C   0  0  0  0  0  0  0  0  0  0  0  0
    7.3380   -0.2543   20.7453 O   0  0  0  0  0  0  0  0  0  0  0  0
    6.7154   -0.5706   21.9918 C   0  0  0  0  0  0  0  0  0  0  0  0
    6.5978    0.6939   22.8639 C   0  0  0  0  0  0  0  0  0  0  0  0
    6.3192    0.5024   24.3220 C   0  0  0  0  0  0  0  0  0  0  0  0
    5.3621    1.1012   25.0000 N   0  0  0  0  0  0  0  0  0  0  0  0
    5.5256    0.6212   26.2648 C   0  0  0  0  0  0  0  0  0  0  0  0
    4.6762    1.0881   27.3812 C   0  0  0  0  0  0  0  0  0  0  0  0
    5.1721    0.9834   28.8263 C   0  0  0  0  0  0  0  0  0  0  0  0
    5.1080    2.3112   28.1344 C   0  0  0  0  0  0  0  0  0  0  0  0
    4.5484    3.6603   28.3816 C   0  0  0  0  0  0  0  0  0  0  0  0
    5.9236    3.4752   27.7191 C   0  0  0  0  0  0  0  0  0  0  0  0
    6.0281    3.5999   26.6412 H   0  0  0  0  0  0  0  0  0  0  0  0
    6.8094    3.7054   28.3039 H   0  0  0  0  0  0  0  0  0  0  0  0
    3.6859    3.9729   27.7915 H   0  0  0  0  0  0  0  0  0  0  0  0
    4.5467    4.0055   29.4152 H   0  0  0  0  0  0  0  0  0  0  0  0
    4.4483    0.8115   29.6241 H   0  0  0  0  0  0  0  0  0  0  0  0
    6.1562    0.5402   28.9790 H   0  0  0  0  0  0  0  0  0  0  0  0
    3.6164    1.0066   27.1530 H   0  0  0  0  0  0  0  0  0  0  0  0
    6.4955   -0.2638   26.4011 N   0  0  0  0  0  0  0  0  0  0  0  0
    7.0440   -0.2930   25.1621 N   0  0  0  0  0  0  0  0  0  0  0  0
    8.1909   -1.0808   24.8972 C   0  0  0  0  0  0  0  0  0  0  0  0
    9.2893   -0.5459   24.2130 C   0  0  0  0  0  0  0  0  0  0  0  0
   10.3040   -1.4242   23.8327 C   0  0  0  0  0  0  0  0  0  0  0  0
   10.1964   -2.7758   24.1747 C   0  0  0  0  0  0  0  0  0  0  0  0
    9.1799   -3.2702   24.8989 N   0  0  0  0  0  0  0  0  0  0  0  0
    8.2080   -2.4332   25.2718 C   0  0  0  0  0  0  0  0  0  0  0  0
    7.4071   -2.8471   25.8819 H   0  0  0  0  0  0  0  0  0  0  0  0
   10.9616   -3.4879   23.8751 H   0  0  0  0  0  0  0  0  0  0  0  0
   11.1706   -1.0686   23.2893 H   0  0  0  0  0  0  0  0  0  0  0  0
    9.3533    0.5253   24.0124 H   0  0  0  0  0  0  0  0  0  0  0  0
    5.8043    1.3427   22.4808 H   0  0  0  0  0  0  0  0  0  0  0  0
    7.5324    1.2550   22.7586 H   0  0  0  0  0  0  0  0  0  0  0  0
    5.7528   -1.0722   21.8235 H   0  0  0  0  0  0  0  0  0  0  0  0
    7.3934   -1.3061   22.4294 H   0  0  0  0  0  0  0  0  0  0  0  0
    5.3192    0.7309   19.7377 C   0  0  0  0  0  0  0  0  0  0  0  0
    4.7556    0.7270   20.6672 H   0  0  0  0  0  0  0  0  0  0  0  0
    8.3058   -0.1365   18.3843 H   0  0  0  0  0  0  0  0  0  0  0  0
    5.1056    1.6479   16.4593 H   0  0  0  0  0  0  0  0  0  0  0  0
    3.7551    1.6509   18.5451 H   0  0  0  0  0  0  0  0  0  0  0  0
  1  2  2  0
  2  3  1  0
  3  4  2  0
  4  5  1  0
  5  6  1  0
  6  7  1  0
  7  8  1  0
  8  9  1  0
  9 10  2  0
 10 11  1  0
 11 12  1  0
 12 13  1  0
 13 14  1  0
 14 15  1  0
 15 16  1  0
 16 17  1  0
 16 18  1  0
 15 19  1  0
 15 20  1  0
 13 21  1  0
 13 22  1  0
 12 23  1  0
 11 24  2  0
 24 25  1  0
 25 26  1  0
 26 27  2  0
 27 28  1  0
 28 29  2  0
 29 30  1  0
 30 31  2  0
 31 32  1  0
 29 33  1  0
 28 34  1  0
 27 35  1  0
  8 36  1  0
  8 37  1  0
  7 38  1  0
  7 39  1  0
  5 40  2  0
 40 41  1  0
  4 42  1  0
  2 43  1  0
  1 44  1  0
 40  1  1  0
 25  9  1  0
 31 26  1  0
 14 12  1  0
 16 14  1  0
M  END
>  <cnnaffinity>  (1) 
-5.72438

>  <filename>  (1) 
c1cncc(OCCc2nc(C3CC34CC4)nn2-c2cccnc2)c1

$$$$
