
     RDKit          3D

 44 47  0  0  0  0  0  0  0  0999 V2000
    5.1604    2.1725   16.6137 H   0  0  0  0  0  0  0  0  0  0  0  0
    5.5498    1.6314   17.4745 C   0  0  0  0  0  0  0  0  0  0  0  0
    6.4815    0.6956   17.2246 N   0  0  0  0  0  0  0  0  0  0  0  0
    6.9610   -0.0023   18.2667 C   0  0  0  0  0  0  0  0  0  0  0  0
    7.7261   -0.7452   18.0403 H   0  0  0  0  0  0  0  0  0  0  0  0
    6.5672    0.1877   19.6184 C   0  0  0  0  0  0  0  0  0  0  0  0
    7.1610   -0.5713   20.6746 N   0  0  0  0  0  0  0  0  0  0  0  0
    6.9039   -2.0202   20.7434 C   0  0  0  0  0  0  0  0  0  0  0  0
    7.8336   -2.5811   20.8988 H   0  0  0  0  0  0  0  0  0  0  0  0
    6.5257   -2.3293   19.7637 H   0  0  0  0  0  0  0  0  0  0  0  0
    5.8764   -2.5014   21.7919 C   0  0  0  0  0  0  0  0  0  0  0  0
    4.9806   -1.8994   21.6270 H   0  0  0  0  0  0  0  0  0  0  0  0
    5.5906   -3.5350   21.5682 H   0  0  0  0  0  0  0  0  0  0  0  0
    6.2857   -2.4502   23.1906 N   0  0  0  0  0  0  0  0  0  0  0  0
    6.9126   -3.5754   23.7979 C   0  0  0  0  0  0  0  0  0  0  0  0
    6.1254   -4.5128   24.4356 C   0  0  0  0  0  0  0  0  0  0  0  0
    5.0481   -4.4080   24.3668 H   0  0  0  0  0  0  0  0  0  0  0  0
    6.6959   -5.5620   25.2101 C   0  0  0  0  0  0  0  0  0  0  0  0
    6.0454   -6.2665   25.7182 H   0  0  0  0  0  0  0  0  0  0  0  0
    8.0593   -5.6808   25.3189 C   0  0  0  0  0  0  0  0  0  0  0  0
    8.5197   -6.4756   25.9064 H   0  0  0  0  0  0  0  0  0  0  0  0
    8.9190   -4.7636   24.6435 C   0  0  0  0  0  0  0  0  0  0  0  0
   10.3362   -4.8758   24.7546 C   0  0  0  0  0  0  0  0  0  0  0  0
   10.7500   -5.6992   25.3349 H   0  0  0  0  0  0  0  0  0  0  0  0
   11.1577   -3.9837   24.1222 C   0  0  0  0  0  0  0  0  0  0  0  0
   12.2275   -4.0569   24.2180 H   0  0  0  0  0  0  0  0  0  0  0  0
   10.6272   -2.9469   23.3207 C   0  0  0  0  0  0  0  0  0  0  0  0
   11.3071   -2.2662   22.8167 H   0  0  0  0  0  0  0  0  0  0  0  0
    9.2653   -2.8289   23.1679 C   0  0  0  0  0  0  0  0  0  0  0  0
    8.8711   -2.0530   22.5212 H   0  0  0  0  0  0  0  0  0  0  0  0
    8.3572   -3.7088   23.8457 C   0  0  0  0  0  0  0  0  0  0  0  0
    6.5059   -1.1881   23.8913 C   0  0  0  0  0  0  0  0  0  0  0  0
    5.7477   -1.0787   24.6878 H   0  0  0  0  0  0  0  0  0  0  0  0
    7.4669   -1.2496   24.4226 H   0  0  0  0  0  0  0  0  0  0  0  0
    6.5168    0.0837   23.0470 C   0  0  0  0  0  0  0  0  0  0  0  0
    5.5235    0.2984   22.6455 H   0  0  0  0  0  0  0  0  0  0  0  0
    6.7502    0.8963   23.7429 H   0  0  0  0  0  0  0  0  0  0  0  0
    7.5258    0.1435   21.8999 C   0  0  0  0  0  0  0  0  0  0  0  0
    8.5206   -0.1755   22.2467 H   0  0  0  0  0  0  0  0  0  0  0  0
    7.6543    1.1957   21.6229 H   0  0  0  0  0  0  0  0  0  0  0  0
    5.6150    1.2016   19.8466 C   0  0  0  0  0  0  0  0  0  0  0  0
    5.3036    1.4285   20.8641 H   0  0  0  0  0  0  0  0  0  0  0  0
    5.0885    1.9149   18.7637 C   0  0  0  0  0  0  0  0  0  0  0  0
    4.3464    2.6946   18.9133 H   0  0  0  0  0  0  0  0  0  0  0  0
  1  2  1  0
  2  3  2  0
  3  4  1  0
  4  5  1  0
  4  6  2  0
  6  7  1  0
  7  8  1  0
  8  9  1  0
  8 10  1  0
  8 11  1  0
 11 12  1  0
 11 13  1  0
 11 14  1  0
 14 15  1  0
 15 16  2  0
 16 17  1  0
 16 18  1  0
 18 19  1  0
 18 20  2  0
 20 21  1  0
 20 22  1  0
 22 23  2  0
 23 24  1  0
 23 25  1  0
 25 26  1  0
 25 27  2  0
 27 28  1  0
 27 29  1  0
 29 30  1  0
 29 31  2  0
 14 32  1  0
 32 33  1  0
 32 34  1  0
 32 35  1  0
 35 36  1  0
 35 37  1  0
 35 38  1  0
 38 39  1  0
 38 40  1  0
  6 41  1  0
 41 42  1  0
 41 43  2  0
 43 44  1  0
 43  2  1  0
 38  7  1  0
 31 15  1  0
 31 22  1  0
M  END
>  <cnnaffinity>  (1) 
-5.54747

>  <filename>  (1) 
c1cncc(N2CCCN(c3cccc4ccccc34)CC2)c1

$$$$
