
     RDKit          3D

 30 33  0  0  0  0  0  0  0  0999 V2000
    4.9299    1.7775   16.9958 H   0  0  0  0  0  0  0  0  0  0  0  0
    5.4048    1.2881   17.8415 C   0  0  0  0  0  0  0  0  0  0  0  0
    6.5689    0.6697   17.5913 N   0  0  0  0  0  0  0  0  0  0  0  0
    7.1694    0.0573   18.6151 C   0  0  0  0  0  0  0  0  0  0  0  0
    8.1189   -0.4147   18.3685 H   0  0  0  0  0  0  0  0  0  0  0  0
    6.6540    0.0114   19.9203 C   0  0  0  0  0  0  0  0  0  0  0  0
    7.3740   -0.6912   20.9909 C   0  0  0  0  0  0  0  0  0  0  0  0
    7.0947   -0.4023   22.2988 N   0  0  0  0  0  0  0  0  0  0  0  0
    7.8085   -1.1132   23.1261 C   0  0  0  0  0  0  0  0  0  0  0  0
    7.7896   -1.0263   24.5887 C   0  0  0  0  0  0  0  0  0  0  0  0
    8.7169   -1.5986   25.4072 C   0  0  0  0  0  0  0  0  0  0  0  0
    9.5770   -2.1970   25.1337 H   0  0  0  0  0  0  0  0  0  0  0  0
    8.4598   -1.2939   27.0782 S   0  0  0  0  0  0  0  0  0  0  0  0
    7.0284   -0.3636   26.7347 C   0  0  0  0  0  0  0  0  0  0  0  0
    6.1790    0.2753   27.6599 C   0  0  0  0  0  0  0  0  0  0  0  0
    6.3835    0.2289   28.7269 H   0  0  0  0  0  0  0  0  0  0  0  0
    5.0685    0.9629   27.1794 C   0  0  0  0  0  0  0  0  0  0  0  0
    4.3967    1.4640   27.8766 H   0  0  0  0  0  0  0  0  0  0  0  0
    4.7941    1.0183   25.7943 C   0  0  0  0  0  0  0  0  0  0  0  0
    3.9190    1.5582   25.4328 H   0  0  0  0  0  0  0  0  0  0  0  0
    5.6331    0.3913   24.8848 C   0  0  0  0  0  0  0  0  0  0  0  0
    5.4426    0.4250   23.8153 H   0  0  0  0  0  0  0  0  0  0  0  0
    6.7744   -0.3051   25.3457 C   0  0  0  0  0  0  0  0  0  0  0  0
    8.8662   -2.2550   22.3232 S   0  0  0  0  0  0  0  0  0  0  0  0
    8.3119   -1.6602   20.8208 C   0  0  0  0  0  0  0  0  0  0  0  0
    8.7041   -1.9931   19.8882 H   0  0  0  0  0  0  0  0  0  0  0  0
    5.4312    0.6587   20.1616 C   0  0  0  0  0  0  0  0  0  0  0  0
    5.0022    0.6389   21.1652 H   0  0  0  0  0  0  0  0  0  0  0  0
    4.8039    1.3085   19.1047 C   0  0  0  0  0  0  0  0  0  0  0  0
    3.8738    1.8416   19.2557 H   0  0  0  0  0  0  0  0  0  0  0  0
  1  2  1  0
  2  3  2  0
  3  4  1  0
  4  5  1  0
  4  6  2  0
  6  7  1  0
  7  8  1  0
  8  9  2  0
  9 10  1  0
 10 11  2  0
 11 12  1  0
 11 13  1  0
 13 14  1  0
 14 15  2  0
 15 16  1  0
 15 17  1  0
 17 18  1  0
 17 19  2  0
 19 20  1  0
 19 21  1  0
 21 22  1  0
 21 23  2  0
  9 24  1  0
 24 25  1  0
 25 26  1  0
  6 27  1  0
 27 28  1  0
 27 29  2  0
 29 30  1  0
 29  2  1  0
 25  7  2  0
 23 10  1  0
 23 14  1  0
M  END
>  <cnnaffinity>  (1) 
-5.31851

>  <filename>  (1) 
c1cncc(-c2csc(-c3csc4ccccc34)n2)c1

$$$$
