
     RDKit          3D

 41 44  0  0  0  0  0  0  0  0999 V2000
    5.1187    1.5240   17.0363 H   0  0  0  0  0  0  0  0  0  0  0  0
    5.6172    1.0915   17.9012 C   0  0  0  0  0  0  0  0  0  0  0  0
    6.7369    0.3938   17.6558 N   0  0  0  0  0  0  0  0  0  0  0  0
    7.3786   -0.1431   18.7058 C   0  0  0  0  0  0  0  0  0  0  0  0
    8.2835   -0.7012   18.4688 H   0  0  0  0  0  0  0  0  0  0  0  0
    6.9690   -0.0130   20.0662 C   0  0  0  0  0  0  0  0  0  0  0  0
    7.6934   -0.5485   21.1390 N   0  0  0  0  0  0  0  0  0  0  0  0
    8.4039   -1.8158   20.9769 C   0  0  0  0  0  0  0  0  0  0  0  0
    9.3002   -1.6814   20.3502 H   0  0  0  0  0  0  0  0  0  0  0  0
    7.7466   -2.5208   20.4503 H   0  0  0  0  0  0  0  0  0  0  0  0
    8.8153   -2.4501   22.3166 C   0  0  0  0  0  0  0  0  0  0  0  0
    9.6980   -1.9187   22.6960 H   0  0  0  0  0  0  0  0  0  0  0  0
    9.1428   -3.4734   22.1192 H   0  0  0  0  0  0  0  0  0  0  0  0
    7.7026   -2.3832   23.3825 C   0  0  0  0  0  0  0  0  0  0  0  0
    8.1065   -2.7468   24.3362 H   0  0  0  0  0  0  0  0  0  0  0  0
    6.5033   -3.3112   23.0520 C   0  0  0  0  0  0  0  0  0  0  0  0
    5.5850   -2.8621   22.0639 C   0  0  0  0  0  0  0  0  0  0  0  0
    5.7445   -1.9300   21.5276 H   0  0  0  0  0  0  0  0  0  0  0  0
    4.4386   -3.4958   21.7434 N   0  0  0  0  0  0  0  0  0  0  0  0
    4.0924   -4.5666   22.4382 C   0  0  0  0  0  0  0  0  0  0  0  0
    3.1318   -5.0159   22.1609 H   0  0  0  0  0  0  0  0  0  0  0  0
    4.9123   -5.1067   23.4731 C   0  0  0  0  0  0  0  0  0  0  0  0
    4.5764   -6.2372   24.3939 C   0  0  0  0  0  0  0  0  0  0  0  0
    3.6011   -6.7341   24.3920 H   0  0  0  0  0  0  0  0  0  0  0  0
    5.6155   -6.5138   25.1866 C   0  0  0  0  0  0  0  0  0  0  0  0
    5.6866   -7.4329   25.8130 H   0  0  0  0  0  0  0  0  0  0  0  0
    7.1224   -5.4517   24.9948 C   0  0  0  0  0  0  0  0  0  0  0  0
    7.2833   -4.7583   25.9393 H   0  0  0  0  0  0  0  0  0  0  0  0
    6.9743   -5.5906   24.7405 C   0  0  0  0  0  0  0  0  0  0  0  0
    8.1580   -6.0746   24.6531 H   0  0  0  0  0  0  0  0  0  0  0  0
    6.1690   -4.4906   23.6748 C   0  0  0  0  0  0  0  0  0  0  0  0
    7.2721   -0.8808   23.5712 C   0  0  0  0  0  0  0  0  0  0  0  0
    6.1826   -0.8008   23.6413 H   0  0  0  0  0  0  0  0  0  0  0  0
    7.6547   -0.5016   24.5251 H   0  0  0  0  0  0  0  0  0  0  0  0
    7.7620    0.0721   22.4582 C   0  0  0  0  0  0  0  0  0  0  0  0
    7.1891    1.0030   22.4646 H   0  0  0  0  0  0  0  0  0  0  0  0
    8.8081    0.3504   22.6617 H   0  0  0  0  0  0  0  0  0  0  0  0
    5.7714    0.7056   20.2794 C   0  0  0  0  0  0  0  0  0  0  0  0
    5.3756    0.8062   21.2890 H   0  0  0  0  0  0  0  0  0  0  0  0
    5.0972    1.2629   19.1885 C   0  0  0  0  0  0  0  0  0  0  0  0
    4.1902    1.8429   19.3272 H   0  0  0  0  0  0  0  0  0  0  0  0
  1  2  1  0
  2  3  2  0
  3  4  1  0
  4  5  1  0
  4  6  2  0
  6  7  1  0
  7  8  1  0
  8  9  1  0
  8 10  1  0
  8 11  1  0
 11 12  1  0
 11 13  1  0
 11 14  1  0
 14 15  1  0
 14 16  1  0
 16 17  2  0
 17 18  1  0
 17 19  1  0
 19 20  2  0
 20 21  1  0
 20 22  1  0
 22 23  2  0
 23 24  1  0
 23 25  1  0
 25 26  1  0
 25 27  2  0
 27 28  1  0
 27 29  1  0
 29 30  1  0
 29 31  2  0
 14 32  1  0
 32 33  1  0
 32 34  1  0
 32 35  1  0
 35 36  1  0
 35 37  1  0
  6 38  1  0
 38 39  1  0
 38 40  2  0
 40 41  1  0
 40  2  1  0
 35  7  1  0
 31 16  1  0
 31 22  1  0
M  END
>  <cnnaffinity>  (1) 
-5.81423

>  <filename>  (1) 
c1cncc(N2CCC(c3cncc4ccccc34)CC2)c1

$$$$
