
     RDKit          3D

 39 42  0  0  0  0  0  0  0  0999 V2000
    4.7876    1.4017   18.9996 C   0  0  0  0  0  0  0  0  0  0  0  0
    5.3956    1.3135   17.7433 C   0  0  0  0  0  0  0  0  0  0  0  0
    6.5181    0.6064   17.5247 N   0  0  0  0  0  0  0  0  0  0  0  0
    7.0773   -0.0235   18.5617 C   0  0  0  0  0  0  0  0  0  0  0  0
    6.5828    0.0705   19.8773 C   0  0  0  0  0  0  0  0  0  0  0  0
    7.2877   -0.5655   20.9405 N   0  0  0  0  0  0  0  0  0  0  0  0
    7.6177   -1.8787   20.8298 N   0  0  0  0  0  0  0  0  0  0  0  0
    8.1706   -2.1513   22.0023 C   0  0  0  0  0  0  0  0  0  0  0  0
    8.6676   -3.5204   22.3910 C   0  0  0  0  0  0  0  0  0  0  0  0
    8.6616   -3.8525   23.9125 C   0  0  0  0  0  0  0  0  0  0  0  0
    8.5551   -5.3989   24.0214 C   0  0  0  0  0  0  0  0  0  0  0  0
    8.2211   -5.9176   22.6064 C   0  0  0  0  0  0  0  0  0  0  0  0
    7.8688   -4.6865   21.7631 C   0  0  0  0  0  0  0  0  0  0  0  0
    8.0849   -4.8412   20.6982 H   0  0  0  0  0  0  0  0  0  0  0  0
    6.8006   -4.4394   21.8786 H   0  0  0  0  0  0  0  0  0  0  0  0
    9.0962   -6.4305   22.1924 H   0  0  0  0  0  0  0  0  0  0  0  0
    7.4120   -6.6569   22.6108 H   0  0  0  0  0  0  0  0  0  0  0  0
    9.4848   -5.8574   24.3780 H   0  0  0  0  0  0  0  0  0  0  0  0
    7.7804   -5.7080   24.7364 H   0  0  0  0  0  0  0  0  0  0  0  0
    7.8030   -3.3775   24.4028 H   0  0  0  0  0  0  0  0  0  0  0  0
    9.5640   -3.4733   24.4059 H   0  0  0  0  0  0  0  0  0  0  0  0
    9.7153   -3.4915   22.0733 H   0  0  0  0  0  0  0  0  0  0  0  0
    8.2867   -1.0830   22.8261 N   0  0  0  0  0  0  0  0  0  0  0  0
    7.6996   -0.1090   22.1567 C   0  0  0  0  0  0  0  0  0  0  0  0
    7.5601    1.2699   22.7393 C   0  0  0  0  0  0  0  0  0  0  0  0
    6.7079    1.2885   23.9942 C   0  0  0  0  0  0  0  0  0  0  0  0
    7.0798    0.9831   25.2702 C   0  0  0  0  0  0  0  0  0  0  0  0
    6.0852    0.9524   26.2224 N   0  0  0  0  0  0  0  0  0  0  0  0
    4.9464    1.2299   25.6694 C   0  0  0  0  0  0  0  0  0  0  0  0
    5.0066    1.5506   23.9695 S   0  0  0  0  0  0  0  0  0  0  0  0
    4.0057    1.2632   26.2090 H   0  0  0  0  0  0  0  0  0  0  0  0
    8.0950    0.7338   25.5540 H   0  0  0  0  0  0  0  0  0  0  0  0
    7.1997    1.9756   21.9821 H   0  0  0  0  0  0  0  0  0  0  0  0
    8.5764    1.5752   23.0127 H   0  0  0  0  0  0  0  0  0  0  0  0
    5.3994    0.7861   20.0981 C   0  0  0  0  0  0  0  0  0  0  0  0
    4.9637    0.8564   21.0982 H   0  0  0  0  0  0  0  0  0  0  0  0
    7.9637   -0.6156   18.3440 H   0  0  0  0  0  0  0  0  0  0  0  0
    4.9698    1.8211   16.8795 H   0  0  0  0  0  0  0  0  0  0  0  0
    3.8573    1.9482   19.1026 H   0  0  0  0  0  0  0  0  0  0  0  0
  1  2  2  0
  2  3  1  0
  3  4  2  0
  4  5  1  0
  5  6  1  0
  6  7  1  0
  7  8  2  0
  8  9  1  0
  9 10  1  0
 10 11  1  0
 11 12  1  0
 12 13  1  0
 13 14  1  0
 13 15  1  0
 12 16  1  0
 12 17  1  0
 11 18  1  0
 11 19  1  0
 10 20  1  0
 10 21  1  0
  9 22  1  0
  8 23  1  0
 23 24  2  0
 24 25  1  0
 25 26  1  0
 26 27  2  0
 27 28  1  0
 28 29  2  0
 29 30  1  0
 29 31  1  0
 27 32  1  0
 25 33  1  0
 25 34  1  0
  5 35  2  0
 35 36  1  0
  4 37  1  0
  2 38  1  0
  1 39  1  0
 35  1  1  0
 24  6  1  0
 30 26  1  0
 13  9  1  0
M  END
>  <cnnaffinity>  (1) 
-5.89572

>  <filename>  (1) 
c1cncc(-n2nc(C3CCCC3)nc2Cc2cncs2)c1

$$$$
