
     RDKit          3D

 49 52  0  0  0  0  0  0  0  0999 V2000
    4.8616    1.3048   19.0303 C   0  0  0  0  0  0  0  0  0  0  0  0
    5.4658    1.2827   17.7730 C   0  0  0  0  0  0  0  0  0  0  0  0
    6.6290    0.6467   17.5360 N   0  0  0  0  0  0  0  0  0  0  0  0
    7.2288    0.0320   18.5623 C   0  0  0  0  0  0  0  0  0  0  0  0
    6.7096    0.0070   19.8812 C   0  0  0  0  0  0  0  0  0  0  0  0
    7.4458   -0.6318   20.8353 O   0  0  0  0  0  0  0  0  0  0  0  0
    6.9297   -0.7284   22.1654 C   0  0  0  0  0  0  0  0  0  0  0  0
    7.9688   -1.4642   23.0086 C   0  0  0  0  0  0  0  0  0  0  0  0
    7.5511   -1.6224   24.4396 C   0  0  0  0  0  0  0  0  0  0  0  0
    6.8517   -0.7454   25.1486 N   0  0  0  0  0  0  0  0  0  0  0  0
    6.6341   -1.3873   26.3279 C   0  0  0  0  0  0  0  0  0  0  0  0
    5.8311   -0.8905   27.4993 C   0  0  0  0  0  0  0  0  0  0  0  0
    6.2389    0.5523   27.9025 C   0  0  0  0  0  0  0  0  0  0  0  0
    5.3292    1.5793   27.2232 C   0  0  0  0  0  0  0  0  0  0  0  0
    3.8574    1.4158   27.6750 C   0  0  0  0  0  0  0  0  0  0  0  0
    3.4779   -0.0425   28.0429 C   0  0  0  0  0  0  0  0  0  0  0  0
    4.2961   -1.0595   27.2371 C   0  0  0  0  0  0  0  0  0  0  0  0
    3.9941   -2.0859   27.4852 H   0  0  0  0  0  0  0  0  0  0  0  0
    4.0881   -0.9232   26.1641 H   0  0  0  0  0  0  0  0  0  0  0  0
    3.6493   -0.2151   29.1157 H   0  0  0  0  0  0  0  0  0  0  0  0
    2.4069   -0.2054   27.8798 H   0  0  0  0  0  0  0  0  0  0  0  0
    3.6657    2.0564   28.5443 H   0  0  0  0  0  0  0  0  0  0  0  0
    3.2048    1.7738   26.8693 H   0  0  0  0  0  0  0  0  0  0  0  0
    5.6841    2.5947   27.4266 H   0  0  0  0  0  0  0  0  0  0  0  0
    5.4054    1.4285   26.1381 H   0  0  0  0  0  0  0  0  0  0  0  0
    6.1702    0.6563   28.9958 H   0  0  0  0  0  0  0  0  0  0  0  0
    7.2927    0.7281   27.6528 H   0  0  0  0  0  0  0  0  0  0  0  0
    6.1054   -1.5587   28.3229 H   0  0  0  0  0  0  0  0  0  0  0  0
    7.1572   -2.5859   26.3958 N   0  0  0  0  0  0  0  0  0  0  0  0
    7.7867   -2.7312   25.2059 N   0  0  0  0  0  0  0  0  0  0  0  0
    8.4732   -3.9509   25.0095 C   0  0  0  0  0  0  0  0  0  0  0  0
    9.8350   -4.0082   24.7074 C   0  0  0  0  0  0  0  0  0  0  0  0
   10.4357   -5.2710   24.6788 C   0  0  0  0  0  0  0  0  0  0  0  0
    9.6429   -6.4045   24.9066 C   0  0  0  0  0  0  0  0  0  0  0  0
    8.3369   -6.3431   25.2100 N   0  0  0  0  0  0  0  0  0  0  0  0
    7.7852   -5.1394   25.3176 C   0  0  0  0  0  0  0  0  0  0  0  0
    6.7549   -5.0896   25.6720 H   0  0  0  0  0  0  0  0  0  0  0  0
   10.0723   -7.4004   24.8675 H   0  0  0  0  0  0  0  0  0  0  0  0
   11.4962   -5.3913   24.4755 H   0  0  0  0  0  0  0  0  0  0  0  0
   10.4121   -3.0920   24.5613 H   0  0  0  0  0  0  0  0  0  0  0  0
    8.9151   -0.9140   22.9514 H   0  0  0  0  0  0  0  0  0  0  0  0
    8.1407   -2.4497   22.5653 H   0  0  0  0  0  0  0  0  0  0  0  0
    5.9876   -1.2872   22.1474 H   0  0  0  0  0  0  0  0  0  0  0  0
    6.7281    0.2732   22.5657 H   0  0  0  0  0  0  0  0  0  0  0  0
    5.4857    0.6525   20.1033 C   0  0  0  0  0  0  0  0  0  0  0  0
    5.0390    0.6468   21.0959 H   0  0  0  0  0  0  0  0  0  0  0  0
    8.1696   -0.4739   18.3544 H   0  0  0  0  0  0  0  0  0  0  0  0
    5.0041    1.7851   16.9250 H   0  0  0  0  0  0  0  0  0  0  0  0
    3.9253    1.8361   19.1738 H   0  0  0  0  0  0  0  0  0  0  0  0
  1  2  2  0
  2  3  1  0
  3  4  2  0
  4  5  1  0
  5  6  1  0
  6  7  1  0
  7  8  1  0
  8  9  1  0
  9 10  2  0
 10 11  1  0
 11 12  1  0
 12 13  1  0
 13 14  1  0
 14 15  1  0
 15 16  1  0
 16 17  1  0
 17 18  1  0
 17 19  1  0
 16 20  1  0
 16 21  1  0
 15 22  1  0
 15 23  1  0
 14 24  1  0
 14 25  1  0
 13 26  1  0
 13 27  1  0
 12 28  1  0
 11 29  2  0
 29 30  1  0
 30 31  1  0
 31 32  2  0
 32 33  1  0
 33 34  2  0
 34 35  1  0
 35 36  2  0
 36 37  1  0
 34 38  1  0
 33 39  1  0
 32 40  1  0
  8 41  1  0
  8 42  1  0
  7 43  1  0
  7 44  1  0
  5 45  2  0
 45 46  1  0
  4 47  1  0
  2 48  1  0
  1 49  1  0
 45  1  1  0
 30  9  1  0
 36 31  1  0
 17 12  1  0
M  END
>  <cnnaffinity>  (1) 
-6.08086

>  <filename>  (1) 
c1cncc(OCCc2nc(C3CCCCC3)nn2-c2cccnc2)c1

$$$$
