
     RDKit          3D

 33 36  0  0  0  0  0  0  0  0999 V2000
    8.6562   -1.8724   19.8597 H   0  0  0  0  0  0  0  0  0  0  0  0
    8.3962   -1.5189   20.8464 C   0  0  0  0  0  0  0  0  0  0  0  0
    8.9734   -2.1392   21.8712 N   0  0  0  0  0  0  0  0  0  0  0  0
    8.7498   -1.6709   23.1017 N   0  0  0  0  0  0  0  0  0  0  0  0
    7.9402   -0.6004   23.2899 C   0  0  0  0  0  0  0  0  0  0  0  0
    7.8744   -0.0975   24.7030 C   0  0  0  0  0  0  0  0  0  0  0  0
    9.0077   -0.2384   25.4904 C   0  0  0  0  0  0  0  0  0  0  0  0
    9.8881   -0.7036   25.0489 H   0  0  0  0  0  0  0  0  0  0  0  0
    9.0379    0.1671   26.8463 C   0  0  0  0  0  0  0  0  0  0  0  0
    9.9467   -0.0094   27.4155 H   0  0  0  0  0  0  0  0  0  0  0  0
    7.9195    0.7090   27.4396 C   0  0  0  0  0  0  0  0  0  0  0  0
    7.8696    1.0215   28.4800 H   0  0  0  0  0  0  0  0  0  0  0  0
    6.7094    0.8118   26.6985 C   0  0  0  0  0  0  0  0  0  0  0  0
    5.5919    1.1782   27.4068 N   0  0  0  0  0  0  0  0  0  0  0  0
    4.4454    1.2054   26.7729 C   0  0  0  0  0  0  0  0  0  0  0  0
    3.5564    1.4003   27.3812 H   0  0  0  0  0  0  0  0  0  0  0  0
    4.3029    0.9726   25.3757 C   0  0  0  0  0  0  0  0  0  0  0  0
    3.3154    1.0795   24.9327 H   0  0  0  0  0  0  0  0  0  0  0  0
    5.4139    0.6126   24.6436 C   0  0  0  0  0  0  0  0  0  0  0  0
    5.3684    0.3986   23.5776 H   0  0  0  0  0  0  0  0  0  0  0  0
    6.6784    0.4590   25.3042 C   0  0  0  0  0  0  0  0  0  0  0  0
    7.2667   -0.0002   22.2927 N   0  0  0  0  0  0  0  0  0  0  0  0
    7.4891   -0.4530   21.0535 C   0  0  0  0  0  0  0  0  0  0  0  0
    6.7275    0.1776   19.9527 C   0  0  0  0  0  0  0  0  0  0  0  0
    7.2435    0.1889   18.6472 C   0  0  0  0  0  0  0  0  0  0  0  0
    8.2185   -0.2456   18.4222 H   0  0  0  0  0  0  0  0  0  0  0  0
    6.6141    0.7250   17.6015 N   0  0  0  0  0  0  0  0  0  0  0  0
    5.4215    1.2980   17.8203 C   0  0  0  0  0  0  0  0  0  0  0  0
    4.9383    1.7344   16.9496 H   0  0  0  0  0  0  0  0  0  0  0  0
    4.8141    1.3483   19.0782 C   0  0  0  0  0  0  0  0  0  0  0  0
    3.8563    1.8433   19.1955 H   0  0  0  0  0  0  0  0  0  0  0  0
    5.4778    0.7850   20.1646 C   0  0  0  0  0  0  0  0  0  0  0  0
    5.0414    0.8249   21.1657 H   0  0  0  0  0  0  0  0  0  0  0  0
  1  2  1  0
  2  3  2  0
  3  4  1  0
  4  5  2  0
  5  6  1  0
  6  7  2  0
  7  8  1  0
  7  9  1  0
  9 10  1  0
  9 11  2  0
 11 12  1  0
 11 13  1  0
 13 14  2  0
 14 15  1  0
 15 16  1  0
 15 17  2  0
 17 18  1  0
 17 19  1  0
 19 20  1  0
 19 21  2  0
  5 22  1  0
 22 23  2  0
 23 24  1  0
 24 25  2  0
 25 26  1  0
 25 27  1  0
 27 28  2  0
 28 29  1  0
 28 30  1  0
 30 31  1  0
 30 32  2  0
 32 33  1  0
 23  2  1  0
 32 24  1  0
 21  6  1  0
 21 13  1  0
M  END
>  <cnnaffinity>  (1) 
-5.02946

>  <filename>  (1) 
c1cncc(-c2cnnc(-c3cccc4ncccc34)n2)c1

$$$$
