
     RDKit          3D

 41 44  0  0  0  0  0  0  0  0999 V2000
    5.0643    1.2166   19.2236 C   0  0  0  0  0  0  0  0  0  0  0  0
    5.6428    1.1829   17.9513 C   0  0  0  0  0  0  0  0  0  0  0  0
    6.7881    0.5382   17.6820 N   0  0  0  0  0  0  0  0  0  0  0  0
    7.4038   -0.0795   18.7014 C   0  0  0  0  0  0  0  0  0  0  0  0
    6.9056   -0.1042   20.0194 C   0  0  0  0  0  0  0  0  0  0  0  0
    7.5539   -0.8242   21.0815 N   0  0  0  0  0  0  0  0  0  0  0  0
    6.8722   -1.8218   21.7123 N   0  0  0  0  0  0  0  0  0  0  0  0
    7.7156   -2.2235   22.6453 C   0  0  0  0  0  0  0  0  0  0  0  0
    7.3662   -3.2377   23.6921 C   0  0  0  0  0  0  0  0  0  0  0  0
    6.3047   -2.7612   24.7132 C   0  0  0  0  0  0  0  0  0  0  0  0
    5.8134   -4.0454   25.4053 C   0  0  0  0  0  0  0  0  0  0  0  0
    6.1890   -5.2083   24.4564 C   0  0  0  0  0  0  0  0  0  0  0  0
    6.7623   -4.5569   23.1873 C   0  0  0  0  0  0  0  0  0  0  0  0
    7.5029   -5.1879   22.6845 H   0  0  0  0  0  0  0  0  0  0  0  0
    5.9631   -4.3297   22.4701 H   0  0  0  0  0  0  0  0  0  0  0  0
    6.9519   -5.8366   24.9303 H   0  0  0  0  0  0  0  0  0  0  0  0
    5.3352   -5.8542   24.2298 H   0  0  0  0  0  0  0  0  0  0  0  0
    6.2977   -4.1808   26.3790 H   0  0  0  0  0  0  0  0  0  0  0  0
    4.7355   -3.9960   25.5909 H   0  0  0  0  0  0  0  0  0  0  0  0
    5.4777   -2.2926   24.1685 H   0  0  0  0  0  0  0  0  0  0  0  0
    6.7007   -2.0200   25.4154 H   0  0  0  0  0  0  0  0  0  0  0  0
    8.3018   -3.4406   24.2245 H   0  0  0  0  0  0  0  0  0  0  0  0
    8.8980   -1.5530   22.6672 N   0  0  0  0  0  0  0  0  0  0  0  0
    8.7611   -0.6701   21.7046 C   0  0  0  0  0  0  0  0  0  0  0  0
    9.7515    0.4150   21.4012 C   0  0  0  0  0  0  0  0  0  0  0  0
    9.2819    1.7247   21.9583 C   0  0  0  0  0  0  0  0  0  0  0  0
    8.3841    2.6059   21.4303 C   0  0  0  0  0  0  0  0  0  0  0  0
    8.0504    3.5505   22.4444 C   0  0  0  0  0  0  0  0  0  0  0  0
    8.7712    3.2041   23.5532 C   0  0  0  0  0  0  0  0  0  0  0  0
    9.5349    2.1039   23.2465 N   0  0  0  0  0  0  0  0  0  0  0  0
    9.9790    1.4924   23.9149 H   0  0  0  0  0  0  0  0  0  0  0  0
    8.8081    3.6817   24.5190 H   0  0  0  0  0  0  0  0  0  0  0  0
    7.3869    4.4020   22.3741 H   0  0  0  0  0  0  0  0  0  0  0  0
    8.0106    2.4907   20.4257 H   0  0  0  0  0  0  0  0  0  0  0  0
    9.8640    0.4825   20.3180 H   0  0  0  0  0  0  0  0  0  0  0  0
   10.7171    0.1196   21.8255 H   0  0  0  0  0  0  0  0  0  0  0  0
    5.6947    0.5528   20.2774 C   0  0  0  0  0  0  0  0  0  0  0  0
    5.2553    0.5210   21.2755 H   0  0  0  0  0  0  0  0  0  0  0  0
    8.3235   -0.6084   18.4520 H   0  0  0  0  0  0  0  0  0  0  0  0
    5.1705    1.6992   17.1202 H   0  0  0  0  0  0  0  0  0  0  0  0
    4.1352    1.7536   19.3763 H   0  0  0  0  0  0  0  0  0  0  0  0
  1  2  2  0
  2  3  1  0
  3  4  2  0
  4  5  1  0
  5  6  1  0
  6  7  1  0
  7  8  2  0
  8  9  1  0
  9 10  1  0
 10 11  1  0
 11 12  1  0
 12 13  1  0
 13 14  1  0
 13 15  1  0
 12 16  1  0
 12 17  1  0
 11 18  1  0
 11 19  1  0
 10 20  1  0
 10 21  1  0
  9 22  1  0
  8 23  1  0
 23 24  2  0
 24 25  1  0
 25 26  1  0
 26 27  2  0
 27 28  1  0
 28 29  2  0
 29 30  1  0
 30 31  1  0
 29 32  1  0
 28 33  1  0
 27 34  1  0
 25 35  1  0
 25 36  1  0
  5 37  2  0
 37 38  1  0
  4 39  1  0
  2 40  1  0
  1 41  1  0
 37  1  1  0
 24  6  1  0
 30 26  1  0
 13  9  1  0
M  END
>  <cnnaffinity>  (1) 
-6.1796

>  <filename>  (1) 
c1cncc(-n2nc(C3CCCC3)nc2Cc2ccc[nH]2)c1

$$$$
