
     RDKit          3D

 45 48  0  0  0  0  0  0  0  0999 V2000
    4.7852    1.3195   19.0713 C   0  0  0  0  0  0  0  0  0  0  0  0
    5.3859    1.3148   17.8068 C   0  0  0  0  0  0  0  0  0  0  0  0
    6.5204    0.6502   17.5412 N   0  0  0  0  0  0  0  0  0  0  0  0
    7.1114   -0.0087   18.5454 C   0  0  0  0  0  0  0  0  0  0  0  0
    6.6011   -0.0432   19.8585 C   0  0  0  0  0  0  0  0  0  0  0  0
    7.2830   -0.7250   20.9158 N   0  0  0  0  0  0  0  0  0  0  0  0
    6.6208   -1.6257   21.6989 N   0  0  0  0  0  0  0  0  0  0  0  0
    7.5458   -2.0224   22.5466 C   0  0  0  0  0  0  0  0  0  0  0  0
    7.3533   -3.0473   23.6121 C   0  0  0  0  0  0  0  0  0  0  0  0
    8.2855   -4.2865   23.5348 C   0  0  0  0  0  0  0  0  0  0  0  0
    8.3790   -4.7397   25.0000 C   0  0  0  0  0  0  0  0  0  0  0  0
    8.0217   -3.6211   25.7980 O   0  0  0  0  0  0  0  0  0  0  0  0
    7.7184   -2.4953   24.9999 C   0  0  0  0  0  0  0  0  0  0  0  0
    8.5950   -1.8302   24.9345 H   0  0  0  0  0  0  0  0  0  0  0  0
    6.8932   -1.9513   25.4749 H   0  0  0  0  0  0  0  0  0  0  0  0
    7.6830   -5.5593   25.2261 H   0  0  0  0  0  0  0  0  0  0  0  0
    9.3914   -5.0704   25.2768 H   0  0  0  0  0  0  0  0  0  0  0  0
    7.9170   -5.0721   22.8672 H   0  0  0  0  0  0  0  0  0  0  0  0
    9.2802   -3.9872   23.1819 H   0  0  0  0  0  0  0  0  0  0  0  0
    6.3017   -3.3473   23.5900 H   0  0  0  0  0  0  0  0  0  0  0  0
    8.7511   -1.4190   22.4021 N   0  0  0  0  0  0  0  0  0  0  0  0
    8.5643   -0.6142   21.3793 C   0  0  0  0  0  0  0  0  0  0  0  0
    9.6634    0.2113   20.8198 C   0  0  0  0  0  0  0  0  0  0  0  0
   10.4917    0.8896   21.9093 C   0  0  0  0  0  0  0  0  0  0  0  0
    9.6693    1.8319   22.7918 C   0  0  0  0  0  0  0  0  0  0  0  0
   10.5635    2.5196   23.8302 C   0  0  0  0  0  0  0  0  0  0  0  0
   11.7248    3.2143   23.1076 C   0  0  0  0  0  0  0  0  0  0  0  0
   12.4068    2.2900   22.0887 C   0  0  0  0  0  0  0  0  0  0  0  0
   11.4924    1.6307   21.2260 O   0  0  0  0  0  0  0  0  0  0  0  0
   13.0734    1.5612   22.5859 H   0  0  0  0  0  0  0  0  0  0  0  0
   13.0138    2.9067   21.4322 H   0  0  0  0  0  0  0  0  0  0  0  0
   12.4819    3.5827   23.8092 H   0  0  0  0  0  0  0  0  0  0  0  0
   11.3391    4.0933   22.5712 H   0  0  0  0  0  0  0  0  0  0  0  0
   10.9363    1.7830   24.5580 H   0  0  0  0  0  0  0  0  0  0  0  0
    9.9830    3.2470   24.4082 H   0  0  0  0  0  0  0  0  0  0  0  0
    9.2232    2.5893   22.1328 H   0  0  0  0  0  0  0  0  0  0  0  0
    8.8495    1.2796   23.2622 H   0  0  0  0  0  0  0  0  0  0  0  0
   10.9792    0.1273   22.5429 H   0  0  0  0  0  0  0  0  0  0  0  0
   10.3303   -0.4574   20.2688 H   0  0  0  0  0  0  0  0  0  0  0  0
    9.2832    0.9622   20.1269 H   0  0  0  0  0  0  0  0  0  0  0  0
    5.3947    0.6191   20.1140 C   0  0  0  0  0  0  0  0  0  0  0  0
    4.9747    0.5858   21.1203 H   0  0  0  0  0  0  0  0  0  0  0  0
    8.0428   -0.5207   18.3009 H   0  0  0  0  0  0  0  0  0  0  0  0
    4.9434    1.8647   16.9793 H   0  0  0  0  0  0  0  0  0  0  0  0
    3.8689    1.8770   19.2265 H   0  0  0  0  0  0  0  0  0  0  0  0
  1  2  2  0
  2  3  1  0
  3  4  2  0
  4  5  1  0
  5  6  1  0
  6  7  1  0
  7  8  2  0
  8  9  1  0
  9 10  1  0
 10 11  1  0
 11 12  1  0
 12 13  1  0
 13 14  1  0
 13 15  1  0
 11 16  1  0
 11 17  1  0
 10 18  1  0
 10 19  1  0
  9 20  1  0
  8 21  1  0
 21 22  2  0
 22 23  1  0
 23 24  1  0
 24 25  1  0
 25 26  1  0
 26 27  1  0
 27 28  1  0
 28 29  1  0
 28 30  1  0
 28 31  1  0
 27 32  1  0
 27 33  1  0
 26 34  1  0
 26 35  1  0
 25 36  1  0
 25 37  1  0
 24 38  1  0
 23 39  1  0
 23 40  1  0
  5 41  2  0
 41 42  1  0
  4 43  1  0
  2 44  1  0
  1 45  1  0
 41  1  1  0
 22  6  1  0
 29 24  1  0
 13  9  1  0
M  END
>  <cnnaffinity>  (1) 
-5.84136

>  <filename>  (1) 
c1cncc(-n2nc(C3CCOC3)nc2CC2CCCCO2)c1

$$$$
