
     RDKit          3D

 44 47  0  0  0  0  0  0  0  0999 V2000
    4.8055    1.3097   19.0197 C   0  0  0  0  0  0  0  0  0  0  0  0
    5.4249    1.3233   17.7675 C   0  0  0  0  0  0  0  0  0  0  0  0
    6.5684    0.6731   17.5006 N   0  0  0  0  0  0  0  0  0  0  0  0
    7.1325   -0.0078   18.5069 C   0  0  0  0  0  0  0  0  0  0  0  0
    6.6053   -0.0929   19.8088 C   0  0  0  0  0  0  0  0  0  0  0  0
    7.3493   -0.8187   20.9053 C   0  0  0  0  0  0  0  0  0  0  0  0
    8.4779    0.0220   21.5238 C   0  0  0  0  0  0  0  0  0  0  0  0
    7.9628    1.3039   22.2079 C   0  0  0  0  0  0  0  0  0  0  0  0
    9.0311    2.1046   22.8623 C   0  0  0  0  0  0  0  0  0  0  0  0
    9.9175    2.8046   22.1824 N   0  0  0  0  0  0  0  0  0  0  0  0
   10.6320    3.4348   23.1451 C   0  0  0  0  0  0  0  0  0  0  0  0
   11.7546    4.3520   22.8206 C   0  0  0  0  0  0  0  0  0  0  0  0
   13.1615    3.9247   23.3658 C   0  0  0  0  0  0  0  0  0  0  0  0
   13.0281    5.0185   24.4585 C   0  0  0  0  0  0  0  0  0  0  0  0
   11.8582    5.6459   23.6846 C   0  0  0  0  0  0  0  0  0  0  0  0
   10.9794    5.8867   24.2894 H   0  0  0  0  0  0  0  0  0  0  0  0
   12.1343    6.5135   23.0909 H   0  0  0  0  0  0  0  0  0  0  0  0
   12.6066    4.6534   25.3942 H   0  0  0  0  0  0  0  0  0  0  0  0
   13.9078    5.6289   24.6703 H   0  0  0  0  0  0  0  0  0  0  0  0
   13.2848    2.8799   23.6763 H   0  0  0  0  0  0  0  0  0  0  0  0
   13.9369    4.1454   22.6220 H   0  0  0  0  0  0  0  0  0  0  0  0
   11.7199    4.5052   21.7428 H   0  0  0  0  0  0  0  0  0  0  0  0
   10.2748    3.1379   24.3818 N   0  0  0  0  0  0  0  0  0  0  0  0
    9.2551    2.2592   24.1989 N   0  0  0  0  0  0  0  0  0  0  0  0
    8.6108    1.6663   25.3098 C   0  0  0  0  0  0  0  0  0  0  0  0
    8.2218    0.3314   25.3283 C   0  0  0  0  0  0  0  0  0  0  0  0
    7.5138   -0.1114   26.4553 C   0  0  0  0  0  0  0  0  0  0  0  0
    7.2201    0.6893   27.4864 N   0  0  0  0  0  0  0  0  0  0  0  0
    7.6437    1.9616   27.4765 N   0  0  0  0  0  0  0  0  0  0  0  0
    8.3376    2.4430   26.4479 C   0  0  0  0  0  0  0  0  0  0  0  0
    8.6692    3.4752   26.5241 H   0  0  0  0  0  0  0  0  0  0  0  0
    7.1655   -1.1348   26.5443 H   0  0  0  0  0  0  0  0  0  0  0  0
    8.4790   -0.3589   24.5309 H   0  0  0  0  0  0  0  0  0  0  0  0
    7.5353    1.9611   21.4423 H   0  0  0  0  0  0  0  0  0  0  0  0
    7.1522    1.0777   22.9112 H   0  0  0  0  0  0  0  0  0  0  0  0
    9.0307   -0.5972   22.2455 H   0  0  0  0  0  0  0  0  0  0  0  0
    9.2000    0.3005   20.7435 H   0  0  0  0  0  0  0  0  0  0  0  0
    7.7665   -1.7543   20.5112 H   0  0  0  0  0  0  0  0  0  0  0  0
    6.6401   -1.1036   21.6954 H   0  0  0  0  0  0  0  0  0  0  0  0
    5.4093    0.5970   20.0568 C   0  0  0  0  0  0  0  0  0  0  0  0
    4.9802    0.5882   21.0618 H   0  0  0  0  0  0  0  0  0  0  0  0
    8.0634   -0.5261   18.2701 H   0  0  0  0  0  0  0  0  0  0  0  0
    4.9848    1.8761   16.9393 H   0  0  0  0  0  0  0  0  0  0  0  0
    3.8802    1.8567   19.1728 H   0  0  0  0  0  0  0  0  0  0  0  0
  1  2  2  0
  2  3  1  0
  3  4  2  0
  4  5  1  0
  5  6  1  0
  6  7  1  0
  7  8  1  0
  8  9  1  0
  9 10  2  0
 10 11  1  0
 11 12  1  0
 12 13  1  0
 13 14  1  0
 14 15  1  0
 15 16  1  0
 15 17  1  0
 14 18  1  0
 14 19  1  0
 13 20  1  0
 13 21  1  0
 12 22  1  0
 11 23  2  0
 23 24  1  0
 24 25  1  0
 25 26  2  0
 26 27  1  0
 27 28  2  0
 28 29  1  0
 29 30  2  0
 30 31  1  0
 27 32  1  0
 26 33  1  0
  8 34  1  0
  8 35  1  0
  7 36  1  0
  7 37  1  0
  6 38  1  0
  6 39  1  0
  5 40  2  0
 40 41  1  0
  4 42  1  0
  2 43  1  0
  1 44  1  0
 40  1  1  0
 24  9  1  0
 30 25  1  0
 15 12  1  0
M  END
>  <cnnaffinity>  (1) 
-5.68033

>  <filename>  (1) 
c1cncc(CCCc2nc(C3CCC3)nn2-c2ccnnc2)c1

$$$$
