
     RDKit          3D

 40 43  0  0  0  0  0  0  0  0999 V2000
    4.7820    1.3751   18.9566 C   0  0  0  0  0  0  0  0  0  0  0  0
    5.4364    1.3163   17.7239 C   0  0  0  0  0  0  0  0  0  0  0  0
    6.5709    0.6201   17.5264 N   0  0  0  0  0  0  0  0  0  0  0  0
    7.1054   -0.0202   18.5726 C   0  0  0  0  0  0  0  0  0  0  0  0
    6.5584    0.0465   19.8699 C   0  0  0  0  0  0  0  0  0  0  0  0
    7.2050   -0.5721   20.9740 N   0  0  0  0  0  0  0  0  0  0  0  0
    7.7639   -1.8064   20.8561 N   0  0  0  0  0  0  0  0  0  0  0  0
    8.1312   -2.0870   22.0936 C   0  0  0  0  0  0  0  0  0  0  0  0
    8.9533   -3.2787   22.4449 C   0  0  0  0  0  0  0  0  0  0  0  0
   10.2993   -2.9612   23.1901 C   0  0  0  0  0  0  0  0  0  0  0  0
    9.9270   -3.9787   24.2925 C   0  0  0  0  0  0  0  0  0  0  0  0
    8.5357   -4.1925   23.6432 C   0  0  0  0  0  0  0  0  0  0  0  0
    8.3024   -5.2271   23.3576 H   0  0  0  0  0  0  0  0  0  0  0  0
    7.7001   -3.7871   24.2275 H   0  0  0  0  0  0  0  0  0  0  0  0
   10.5589   -4.8726   24.3126 H   0  0  0  0  0  0  0  0  0  0  0  0
    9.8941   -3.5814   25.3152 H   0  0  0  0  0  0  0  0  0  0  0  0
   11.2355   -3.1178   22.6444 H   0  0  0  0  0  0  0  0  0  0  0  0
   10.3328   -1.9317   23.5642 H   0  0  0  0  0  0  0  0  0  0  0  0
    9.0354   -3.8200   21.5012 H   0  0  0  0  0  0  0  0  0  0  0  0
    7.8447   -1.1255   23.0019 N   0  0  0  0  0  0  0  0  0  0  0  0
    7.3383   -0.1522   22.2723 C   0  0  0  0  0  0  0  0  0  0  0  0
    7.1396    1.2275   22.8123 C   0  0  0  0  0  0  0  0  0  0  0  0
    8.2751    1.6735   23.7807 C   0  0  0  0  0  0  0  0  0  0  0  0
    8.0424    3.0498   24.3093 C   0  0  0  0  0  0  0  0  0  0  0  0
    8.3965    4.2505   23.7614 C   0  0  0  0  0  0  0  0  0  0  0  0
    7.7930    5.2054   24.5519 N   0  0  0  0  0  0  0  0  0  0  0  0
    7.1079    4.5440   25.5218 C   0  0  0  0  0  0  0  0  0  0  0  0
    7.2406    3.2510   25.4086 N   0  0  0  0  0  0  0  0  0  0  0  0
    6.5268    5.0455   26.2847 H   0  0  0  0  0  0  0  0  0  0  0  0
    7.7633    6.1978   24.3893 H   0  0  0  0  0  0  0  0  0  0  0  0
    9.0019    4.4838   22.8946 H   0  0  0  0  0  0  0  0  0  0  0  0
    9.2538    1.6211   23.2854 H   0  0  0  0  0  0  0  0  0  0  0  0
    8.3149    0.9799   24.6292 H   0  0  0  0  0  0  0  0  0  0  0  0
    6.1963    1.2371   23.3737 H   0  0  0  0  0  0  0  0  0  0  0  0
    7.0380    1.9425   21.9865 H   0  0  0  0  0  0  0  0  0  0  0  0
    5.3496    0.7279   20.0552 C   0  0  0  0  0  0  0  0  0  0  0  0
    4.8627    0.7328   21.0304 H   0  0  0  0  0  0  0  0  0  0  0  0
    8.0028   -0.6050   18.3768 H   0  0  0  0  0  0  0  0  0  0  0  0
    5.0248    1.8300   16.8585 H   0  0  0  0  0  0  0  0  0  0  0  0
    3.8497    1.9190   19.0535 H   0  0  0  0  0  0  0  0  0  0  0  0
  1  2  2  0
  2  3  1  0
  3  4  2  0
  4  5  1  0
  5  6  1  0
  6  7  1  0
  7  8  2  0
  8  9  1  0
  9 10  1  0
 10 11  1  0
 11 12  1  0
 12 13  1  0
 12 14  1  0
 11 15  1  0
 11 16  1  0
 10 17  1  0
 10 18  1  0
  9 19  1  0
  8 20  1  0
 20 21  2  0
 21 22  1  0
 22 23  1  0
 23 24  1  0
 24 25  2  0
 25 26  1  0
 26 27  1  0
 27 28  2  0
 27 29  1  0
 26 30  1  0
 25 31  1  0
 23 32  1  0
 23 33  1  0
 22 34  1  0
 22 35  1  0
  5 36  2  0
 36 37  1  0
  4 38  1  0
  2 39  1  0
  1 40  1  0
 36  1  1  0
 21  6  1  0
 28 24  1  0
 12  9  1  0
M  END
>  <cnnaffinity>  (1) 
-6.00711

>  <filename>  (1) 
c1cncc(-n2nc(C3CCC3)nc2CCc2c[nH]cn2)c1

$$$$
