
     RDKit          3D

 29 31  0  0  0  0  0  0  0  0999 V2000
    5.0437    1.8057   16.9666 H   0  0  0  0  0  0  0  0  0  0  0  0
    5.4751    1.3127   17.8321 C   0  0  0  0  0  0  0  0  0  0  0  0
    6.6523    0.6969   17.6267 N   0  0  0  0  0  0  0  0  0  0  0  0
    7.2078    0.0868   18.6811 C   0  0  0  0  0  0  0  0  0  0  0  0
    8.1537   -0.4299   18.5074 H   0  0  0  0  0  0  0  0  0  0  0  0
    6.6288    0.0425   19.9581 C   0  0  0  0  0  0  0  0  0  0  0  0
    7.3229   -0.6584   21.0444 C   0  0  0  0  0  0  0  0  0  0  0  0
    8.6417   -0.6001   21.4338 C   0  0  0  0  0  0  0  0  0  0  0  0
    9.6588    0.4512   21.0451 C   0  0  0  0  0  0  0  0  0  0  0  0
   10.6647    0.1076   21.2983 H   0  0  0  0  0  0  0  0  0  0  0  0
    9.6366    0.6081   19.9586 H   0  0  0  0  0  0  0  0  0  0  0  0
    9.3852    1.7505   21.7414 C   0  0  0  0  0  0  0  0  0  0  0  0
    9.6651    2.1975   23.0125 C   0  0  0  0  0  0  0  0  0  0  0  0
   10.2090    1.6470   23.7678 H   0  0  0  0  0  0  0  0  0  0  0  0
    9.0424    3.4676   23.1686 C   0  0  0  0  0  0  0  0  0  0  0  0
    9.0559    4.0937   24.0482 H   0  0  0  0  0  0  0  0  0  0  0  0
    8.3872    3.7459   21.9997 C   0  0  0  0  0  0  0  0  0  0  0  0
    7.8092    4.6140   21.7149 H   0  0  0  0  0  0  0  0  0  0  0  0
    8.6053    2.6973   21.1412 N   0  0  0  0  0  0  0  0  0  0  0  0
    8.1019    2.5183   20.2868 H   0  0  0  0  0  0  0  0  0  0  0  0
    8.7329   -1.5391   22.4835 C   0  0  0  0  0  0  0  0  0  0  0  0
    9.6104   -1.7834   23.0598 H   0  0  0  0  0  0  0  0  0  0  0  0
    7.5681   -2.1269   22.7411 N   0  0  0  0  0  0  0  0  0  0  0  0
    6.7257   -1.5567   21.8656 N   0  0  0  0  0  0  0  0  0  0  0  0
    5.7432   -1.7973   21.8733 H   0  0  0  0  0  0  0  0  0  0  0  0
    5.3979    0.6859   20.1509 C   0  0  0  0  0  0  0  0  0  0  0  0
    4.9375    0.6739   21.1408 H   0  0  0  0  0  0  0  0  0  0  0  0
    4.8139    1.3374   19.0671 C   0  0  0  0  0  0  0  0  0  0  0  0
    3.8690    1.8618   19.1713 H   0  0  0  0  0  0  0  0  0  0  0  0
  1  2  1  0
  2  3  2  0
  3  4  1  0
  4  5  1  0
  4  6  2  0
  6  7  1  0
  7  8  2  0
  8  9  1  0
  9 10  1  0
  9 11  1  0
  9 12  1  0
 12 13  2  0
 13 14  1  0
 13 15  1  0
 15 16  1  0
 15 17  2  0
 17 18  1  0
 17 19  1  0
 19 20  1  0
  8 21  1  0
 21 22  1  0
 21 23  2  0
 23 24  1  0
 24 25  1  0
  6 26  1  0
 26 27  1  0
 26 28  2  0
 28 29  1  0
 28  2  1  0
 24  7  1  0
 19 12  1  0
M  END
>  <cnnaffinity>  (1) 
-5.21558

>  <filename>  (1) 
c1cncc(-c2[nH]ncc2Cc2ccc[nH]2)c1

$$$$
