
     RDKit          3D

 29 31  0  0  0  0  0  0  0  0999 V2000
    4.9226    1.7834   16.9941 H   0  0  0  0  0  0  0  0  0  0  0  0
    5.4007    1.2952   17.8380 C   0  0  0  0  0  0  0  0  0  0  0  0
    6.5640    0.6809   17.5765 N   0  0  0  0  0  0  0  0  0  0  0  0
    7.1634    0.0547   18.5897 C   0  0  0  0  0  0  0  0  0  0  0  0
    8.1117   -0.4348   18.3748 H   0  0  0  0  0  0  0  0  0  0  0  0
    6.6442    0.0170   19.8905 C   0  0  0  0  0  0  0  0  0  0  0  0
    7.4001   -0.7214   20.8980 C   0  0  0  0  0  0  0  0  0  0  0  0
    7.9362   -1.9138   20.7661 N   0  0  0  0  0  0  0  0  0  0  0  0
    8.5227   -2.1973   21.9442 N   0  0  0  0  0  0  0  0  0  0  0  0
    8.3933   -1.2229   22.7683 N   0  0  0  0  0  0  0  0  0  0  0  0
    7.6708   -0.2687   22.1418 N   0  0  0  0  0  0  0  0  0  0  0  0
    7.3637    0.9903   22.8116 C   0  0  0  0  0  0  0  0  0  0  0  0
    8.2883    1.3596   23.2543 H   0  0  0  0  0  0  0  0  0  0  0  0
    7.0678    1.7106   22.0483 H   0  0  0  0  0  0  0  0  0  0  0  0
    6.2713    0.8877   23.8965 C   0  0  0  0  0  0  0  0  0  0  0  0
    5.3826    0.4366   23.4512 H   0  0  0  0  0  0  0  0  0  0  0  0
    5.9691    1.8979   24.1938 H   0  0  0  0  0  0  0  0  0  0  0  0
    6.6820    0.0842   25.0984 C   0  0  0  0  0  0  0  0  0  0  0  0
    7.7469    0.7274   26.2940 S   0  0  0  0  0  0  0  0  0  0  0  0
    7.7983   -0.7649   27.1364 C   0  0  0  0  0  0  0  0  0  0  0  0
    8.3885   -0.8392   28.0351 H   0  0  0  0  0  0  0  0  0  0  0  0
    7.0384   -1.7226   26.5336 C   0  0  0  0  0  0  0  0  0  0  0  0
    6.9329   -2.7410   26.8971 H   0  0  0  0  0  0  0  0  0  0  0  0
    6.3927   -1.2201   25.3595 C   0  0  0  0  0  0  0  0  0  0  0  0
    5.7988   -1.8272   24.6778 H   0  0  0  0  0  0  0  0  0  0  0  0
    5.4270    0.6614   20.1552 C   0  0  0  0  0  0  0  0  0  0  0  0
    4.9829    0.6400   21.1566 H   0  0  0  0  0  0  0  0  0  0  0  0
    4.7961    1.3141   19.0989 C   0  0  0  0  0  0  0  0  0  0  0  0
    3.8671    1.8466   19.2545 H   0  0  0  0  0  0  0  0  0  0  0  0
  1  2  1  0
  2  3  2  0
  3  4  1  0
  4  5  1  0
  4  6  2  0
  6  7  1  0
  7  8  2  0
  8  9  1  0
  9 10  2  0
 10 11  1  0
 11 12  1  0
 12 13  1  0
 12 14  1  0
 12 15  1  0
 15 16  1  0
 15 17  1  0
 15 18  1  0
 18 19  1  0
 19 20  1  0
 20 21  1  0
 20 22  2  0
 22 23  1  0
 22 24  1  0
 24 25  1  0
  6 26  1  0
 26 27  1  0
 26 28  2  0
 28 29  1  0
 28  2  1  0
 11  7  1  0
 24 18  2  0
M  END
>  <cnnaffinity>  (1) 
-4.88098

>  <filename>  (1) 
c1cncc(-c2nnnn2CCc2cccs2)c1

$$$$
