
     RDKit          3D

 44 47  0  0  0  0  0  0  0  0999 V2000
    4.8152    1.4027   18.9863 C   0  0  0  0  0  0  0  0  0  0  0  0
    5.4465    1.3311   17.7434 C   0  0  0  0  0  0  0  0  0  0  0  0
    6.5826    0.6410   17.5406 N   0  0  0  0  0  0  0  0  0  0  0  0
    7.1355    0.0166   18.5861 C   0  0  0  0  0  0  0  0  0  0  0  0
    6.6172    0.0986   19.8924 C   0  0  0  0  0  0  0  0  0  0  0  0
    7.3091   -0.5231   20.9725 N   0  0  0  0  0  0  0  0  0  0  0  0
    7.6784   -1.8280   20.8713 N   0  0  0  0  0  0  0  0  0  0  0  0
    8.1344   -2.1021   22.0839 C   0  0  0  0  0  0  0  0  0  0  0  0
    8.6338   -3.4685   22.4763 C   0  0  0  0  0  0  0  0  0  0  0  0
    8.7264   -3.7465   23.9998 C   0  0  0  0  0  0  0  0  0  0  0  0
    8.5898   -5.2805   24.1667 C   0  0  0  0  0  0  0  0  0  0  0  0
    8.1445   -5.8426   22.7979 C   0  0  0  0  0  0  0  0  0  0  0  0
    7.7741   -4.6334   21.9302 C   0  0  0  0  0  0  0  0  0  0  0  0
    7.9381   -4.8258   20.8620 H   0  0  0  0  0  0  0  0  0  0  0  0
    6.7136   -4.3774   22.0745 H   0  0  0  0  0  0  0  0  0  0  0  0
    8.9695   -6.4084   22.3532 H   0  0  0  0  0  0  0  0  0  0  0  0
    7.3091   -6.5436   22.9031 H   0  0  0  0  0  0  0  0  0  0  0  0
    7.8622   -5.5264   24.9474 H   0  0  0  0  0  0  0  0  0  0  0  0
    9.5296   -5.7507   24.4824 H   0  0  0  0  0  0  0  0  0  0  0  0
    7.9226   -3.2168   24.5258 H   0  0  0  0  0  0  0  0  0  0  0  0
    9.6652   -3.3526   24.4064 H   0  0  0  0  0  0  0  0  0  0  0  0
    9.6495   -3.4938   22.0697 H   0  0  0  0  0  0  0  0  0  0  0  0
    8.1421   -1.0448   22.9360 N   0  0  0  0  0  0  0  0  0  0  0  0
    7.6438   -0.0637   22.2134 C   0  0  0  0  0  0  0  0  0  0  0  0
    7.5774    1.3534   22.6642 C   0  0  0  0  0  0  0  0  0  0  0  0
    8.5227    2.3072   21.9067 C   0  0  0  0  0  0  0  0  0  0  0  0
    8.4547    3.6665   22.4226 N   0  0  0  0  0  0  0  0  0  0  0  0
    7.4436    4.5477   22.1356 C   0  0  0  0  0  0  0  0  0  0  0  0
    7.7347    5.7506   22.7304 C   0  0  0  0  0  0  0  0  0  0  0  0
    8.9670    5.5943   23.4222 C   0  0  0  0  0  0  0  0  0  0  0  0
    9.3730    4.2965   23.2301 C   0  0  0  0  0  0  0  0  0  0  0  0
   10.2492    3.7739   23.5891 H   0  0  0  0  0  0  0  0  0  0  0  0
    9.5207    6.3573   23.9592 H   0  0  0  0  0  0  0  0  0  0  0  0
    7.1288    6.6437   22.6529 H   0  0  0  0  0  0  0  0  0  0  0  0
    6.6068    4.2517   21.5070 H   0  0  0  0  0  0  0  0  0  0  0  0
    8.2714    2.3239   20.8390 H   0  0  0  0  0  0  0  0  0  0  0  0
    9.5610    1.9662   21.9933 H   0  0  0  0  0  0  0  0  0  0  0  0
    7.8383    1.3487   23.7247 H   0  0  0  0  0  0  0  0  0  0  0  0
    6.5468    1.7121   22.5755 H   0  0  0  0  0  0  0  0  0  0  0  0
    5.4100    0.7826   20.0891 C   0  0  0  0  0  0  0  0  0  0  0  0
    4.9328    0.8026   21.0684 H   0  0  0  0  0  0  0  0  0  0  0  0
    8.0320   -0.5644   18.3786 H   0  0  0  0  0  0  0  0  0  0  0  0
    5.0193    1.8274   16.8744 H   0  0  0  0  0  0  0  0  0  0  0  0
    3.8732    1.9298   19.0823 H   0  0  0  0  0  0  0  0  0  0  0  0
  1  2  2  0
  2  3  1  0
  3  4  2  0
  4  5  1  0
  5  6  1  0
  6  7  1  0
  7  8  2  0
  8  9  1  0
  9 10  1  0
 10 11  1  0
 11 12  1  0
 12 13  1  0
 13 14  1  0
 13 15  1  0
 12 16  1  0
 12 17  1  0
 11 18  1  0
 11 19  1  0
 10 20  1  0
 10 21  1  0
  9 22  1  0
  8 23  1  0
 23 24  2  0
 24 25  1  0
 25 26  1  0
 26 27  1  0
 27 28  1  0
 28 29  2  0
 29 30  1  0
 30 31  2  0
 31 32  1  0
 30 33  1  0
 29 34  1  0
 28 35  1  0
 26 36  1  0
 26 37  1  0
 25 38  1  0
 25 39  1  0
  5 40  2  0
 40 41  1  0
  4 42  1  0
  2 43  1  0
  1 44  1  0
 40  1  1  0
 24  6  1  0
 31 27  1  0
 13  9  1  0
M  END
>  <cnnaffinity>  (1) 
-5.79257

>  <filename>  (1) 
c1cncc(-n2nc(C3CCCC3)nc2CCn2cccc2)c1

$$$$
