
     RDKit          3D

 24 26  0  0  0  0  0  0  0  0999 V2000
    8.0360   -0.8463   27.3294 H   0  0  0  0  0  0  0  0  0  0  0  0
    8.2984   -1.2405   26.3555 C   0  0  0  0  0  0  0  0  0  0  0  0
    9.1767   -2.2670   26.1789 N   0  0  0  0  0  0  0  0  0  0  0  0
    9.2011   -2.4133   24.8784 C   0  0  0  0  0  0  0  0  0  0  0  0
    9.7923   -3.1355   24.3280 H   0  0  0  0  0  0  0  0  0  0  0  0
    8.3720   -1.5220   24.2953 N   0  0  0  0  0  0  0  0  0  0  0  0
    8.1347   -1.3863   22.9166 C   0  0  0  0  0  0  0  0  0  0  0  0
    8.7327   -2.1572   22.0090 N   0  0  0  0  0  0  0  0  0  0  0  0
    8.2490   -1.6926   20.8391 N   0  0  0  0  0  0  0  0  0  0  0  0
    8.5011   -2.1238   19.9627 H   0  0  0  0  0  0  0  0  0  0  0  0
    7.3552   -0.6806   20.9809 C   0  0  0  0  0  0  0  0  0  0  0  0
    6.6536    0.0013   19.8809 C   0  0  0  0  0  0  0  0  0  0  0  0
    7.1671    0.0644   18.5740 C   0  0  0  0  0  0  0  0  0  0  0  0
    8.1218   -0.4106   18.3509 H   0  0  0  0  0  0  0  0  0  0  0  0
    6.5622    0.6873   17.5571 N   0  0  0  0  0  0  0  0  0  0  0  0
    5.3961    1.2979   17.8288 C   0  0  0  0  0  0  0  0  0  0  0  0
    4.9110    1.7857   16.9906 H   0  0  0  0  0  0  0  0  0  0  0  0
    4.7996    1.3153   19.0956 C   0  0  0  0  0  0  0  0  0  0  0  0
    3.8685    1.8474   19.2566 H   0  0  0  0  0  0  0  0  0  0  0  0
    5.4370    0.6559   20.1423 C   0  0  0  0  0  0  0  0  0  0  0  0
    5.0087    0.6257   21.1482 H   0  0  0  0  0  0  0  0  0  0  0  0
    7.2697   -0.4585   22.3276 C   0  0  0  0  0  0  0  0  0  0  0  0
    6.6873    0.2853   22.8402 H   0  0  0  0  0  0  0  0  0  0  0  0
    7.7782   -0.7512   25.2527 N   0  0  0  0  0  0  0  0  0  0  0  0
  1  2  1  0
  2  3  1  0
  3  4  2  0
  4  5  1  0
  4  6  1  0
  6  7  1  0
  7  8  2  0
  8  9  1  0
  9 10  1  0
  9 11  1  0
 11 12  1  0
 12 13  2  0
 13 14  1  0
 13 15  1  0
 15 16  2  0
 16 17  1  0
 16 18  1  0
 18 19  1  0
 18 20  2  0
 20 21  1  0
 11 22  2  0
 22 23  1  0
  6 24  1  0
 24  2  2  0
 22  7  1  0
 20 12  1  0
M  END
>  <cnnaffinity>  (1) 
-4.4641

>  <filename>  (1) 
c1cncc(-c2cc(-n3cncn3)n[nH]2)c1

$$$$
