
     RDKit          3D

 39 42  0  0  0  0  0  0  0  0999 V2000
    4.8113    1.3129   19.1078 C   0  0  0  0  0  0  0  0  0  0  0  0
    5.4007    1.2959   17.8366 C   0  0  0  0  0  0  0  0  0  0  0  0
    6.5593    0.6717   17.5772 N   0  0  0  0  0  0  0  0  0  0  0  0
    7.1649    0.0500   18.5934 C   0  0  0  0  0  0  0  0  0  0  0  0
    6.6454   -0.0005   19.9006 C   0  0  0  0  0  0  0  0  0  0  0  0
    7.3175   -0.6985   20.9354 N   0  0  0  0  0  0  0  0  0  0  0  0
    6.6572   -1.5513   21.7662 N   0  0  0  0  0  0  0  0  0  0  0  0
    7.6126   -1.9998   22.5565 C   0  0  0  0  0  0  0  0  0  0  0  0
    7.3658   -2.9485   23.6910 C   0  0  0  0  0  0  0  0  0  0  0  0
    8.3666   -4.1285   23.7134 C   0  0  0  0  0  0  0  0  0  0  0  0
    9.5328   -3.7037   24.6353 C   0  0  0  0  0  0  0  0  0  0  0  0
    9.0350   -2.4930   25.4565 C   0  0  0  0  0  0  0  0  0  0  0  0
    7.5579   -2.2708   25.0721 C   0  0  0  0  0  0  0  0  0  0  0  0
    6.8917   -2.7445   25.8024 H   0  0  0  0  0  0  0  0  0  0  0  0
    7.2890   -1.2078   25.0531 H   0  0  0  0  0  0  0  0  0  0  0  0
    9.6272   -1.6054   25.2124 H   0  0  0  0  0  0  0  0  0  0  0  0
    9.1387   -2.6522   26.5355 H   0  0  0  0  0  0  0  0  0  0  0  0
    9.8431   -4.5367   25.2759 H   0  0  0  0  0  0  0  0  0  0  0  0
   10.4104   -3.4253   24.0438 H   0  0  0  0  0  0  0  0  0  0  0  0
    7.8651   -5.0168   24.1139 H   0  0  0  0  0  0  0  0  0  0  0  0
    8.7116   -4.3955   22.7084 H   0  0  0  0  0  0  0  0  0  0  0  0
    6.3383   -3.2802   23.5430 H   0  0  0  0  0  0  0  0  0  0  0  0
    8.8425   -1.5002   22.3002 N   0  0  0  0  0  0  0  0  0  0  0  0
    8.6259   -0.6547   21.3171 C   0  0  0  0  0  0  0  0  0  0  0  0
    9.6568    0.1954   20.6516 C   0  0  0  0  0  0  0  0  0  0  0  0
   10.7111    0.6991   21.6030 C   0  0  0  0  0  0  0  0  0  0  0  0
   11.8707    0.0740   21.9313 C   0  0  0  0  0  0  0  0  0  0  0  0
   12.6358    0.8835   23.2229 S   0  0  0  0  0  0  0  0  0  0  0  0
   11.4418    2.0280   23.3787 N   0  0  0  0  0  0  0  0  0  0  0  0
   10.5159    1.8158   22.4852 C   0  0  0  0  0  0  0  0  0  0  0  0
    9.6346    2.4577   22.4729 H   0  0  0  0  0  0  0  0  0  0  0  0
   12.2527   -0.8311   21.4808 H   0  0  0  0  0  0  0  0  0  0  0  0
   10.0802   -0.4467   19.8714 H   0  0  0  0  0  0  0  0  0  0  0  0
    9.1787    1.0516   20.1643 H   0  0  0  0  0  0  0  0  0  0  0  0
    5.4337    0.6466   20.1649 C   0  0  0  0  0  0  0  0  0  0  0  0
    5.0159    0.6097   21.1736 H   0  0  0  0  0  0  0  0  0  0  0  0
    8.1128   -0.4297   18.3627 H   0  0  0  0  0  0  0  0  0  0  0  0
    4.9214    1.7850   16.9924 H   0  0  0  0  0  0  0  0  0  0  0  0
    3.8794    1.8414   19.2594 H   0  0  0  0  0  0  0  0  0  0  0  0
  1  2  2  0
  2  3  1  0
  3  4  2  0
  4  5  1  0
  5  6  1  0
  6  7  1  0
  7  8  2  0
  8  9  1  0
  9 10  1  0
 10 11  1  0
 11 12  1  0
 12 13  1  0
 13 14  1  0
 13 15  1  0
 12 16  1  0
 12 17  1  0
 11 18  1  0
 11 19  1  0
 10 20  1  0
 10 21  1  0
  9 22  1  0
  8 23  1  0
 23 24  2  0
 24 25  1  0
 25 26  1  0
 26 27  2  0
 27 28  1  0
 28 29  1  0
 29 30  2  0
 30 31  1  0
 27 32  1  0
 25 33  1  0
 25 34  1  0
  5 35  2  0
 35 36  1  0
  4 37  1  0
  2 38  1  0
  1 39  1  0
 35  1  1  0
 24  6  1  0
 30 26  1  0
 13  9  1  0
M  END
>  <cnnaffinity>  (1) 
-6.48339

>  <filename>  (1) 
c1cncc(-n2nc(C3CCCC3)nc2Cc2cnsc2)c1

$$$$
