
     RDKit          3D

 32 35  0  0  0  0  0  0  0  0999 V2000
    5.0177    2.1579   16.3099 H   0  0  0  0  0  0  0  0  0  0  0  0
    5.2573    1.6786   17.2552 C   0  0  0  0  0  0  0  0  0  0  0  0
    6.3834    0.9490   17.2697 N   0  0  0  0  0  0  0  0  0  0  0  0
    6.7041    0.3616   18.4231 C   0  0  0  0  0  0  0  0  0  0  0  0
    7.6237   -0.2201   18.4495 H   0  0  0  0  0  0  0  0  0  0  0  0
    5.9351    0.4576   19.5867 C   0  0  0  0  0  0  0  0  0  0  0  0
    6.4430   -0.2790   20.7327 C   0  0  0  0  0  0  0  0  0  0  0  0
    7.5000   -1.0262   20.7455 N   0  0  0  0  0  0  0  0  0  0  0  0
    7.5836   -1.5240   22.0378 C   0  0  0  0  0  0  0  0  0  0  0  0
    8.7961   -2.2522   22.4066 C   0  0  0  0  0  0  0  0  0  0  0  0
    9.9777   -1.7838   21.8553 C   0  0  0  0  0  0  0  0  0  0  0  0
    9.9378   -1.0136   21.0871 H   0  0  0  0  0  0  0  0  0  0  0  0
   11.2093   -2.2101   22.2114 N   0  0  0  0  0  0  0  0  0  0  0  0
   11.2679   -3.1520   23.1252 C   0  0  0  0  0  0  0  0  0  0  0  0
   12.2562   -3.5099   23.3940 H   0  0  0  0  0  0  0  0  0  0  0  0
   10.1477   -3.7380   23.7679 C   0  0  0  0  0  0  0  0  0  0  0  0
   10.3146   -4.7383   24.7702 C   0  0  0  0  0  0  0  0  0  0  0  0
   11.3226   -4.9902   25.0932 H   0  0  0  0  0  0  0  0  0  0  0  0
    9.2173   -5.3460   25.3185 C   0  0  0  0  0  0  0  0  0  0  0  0
    9.3383   -6.1014   26.0910 H   0  0  0  0  0  0  0  0  0  0  0  0
    7.9138   -4.9640   24.9056 C   0  0  0  0  0  0  0  0  0  0  0  0
    7.0638   -5.4514   25.3688 H   0  0  0  0  0  0  0  0  0  0  0  0
    7.7214   -3.9850   23.9483 C   0  0  0  0  0  0  0  0  0  0  0  0
    6.7102   -3.7060   23.6624 H   0  0  0  0  0  0  0  0  0  0  0  0
    8.8457   -3.3222   23.3632 C   0  0  0  0  0  0  0  0  0  0  0  0
    6.5482   -1.0117   22.7479 C   0  0  0  0  0  0  0  0  0  0  0  0
    6.2081   -1.0915   23.7687 H   0  0  0  0  0  0  0  0  0  0  0  0
    5.8263   -0.1929   21.9213 O   0  0  0  0  0  0  0  0  0  0  0  0
    4.7604    1.2266   19.5676 C   0  0  0  0  0  0  0  0  0  0  0  0
    4.1511    1.3499   20.4630 H   0  0  0  0  0  0  0  0  0  0  0  0
    4.4166    1.8367   18.3639 C   0  0  0  0  0  0  0  0  0  0  0  0
    3.5176    2.4363   18.2717 H   0  0  0  0  0  0  0  0  0  0  0  0
  1  2  1  0
  2  3  2  0
  3  4  1  0
  4  5  1  0
  4  6  2  0
  6  7  1  0
  7  8  2  0
  8  9  1  0
  9 10  1  0
 10 11  2  0
 11 12  1  0
 11 13  1  0
 13 14  2  0
 14 15  1  0
 14 16  1  0
 16 17  2  0
 17 18  1  0
 17 19  1  0
 19 20  1  0
 19 21  2  0
 21 22  1  0
 21 23  1  0
 23 24  1  0
 23 25  2  0
  9 26  2  0
 26 27  1  0
 26 28  1  0
  6 29  1  0
 29 30  1  0
 29 31  2  0
 31 32  1  0
 31  2  1  0
 28  7  1  0
 25 10  1  0
 25 16  1  0
M  END
>  <cnnaffinity>  (1) 
-5.62988

>  <filename>  (1) 
c1cncc(-c2nc(-c3cncc4ccccc34)co2)c1

$$$$
