
     RDKit          3D

 37 40  0  0  0  0  0  0  0  0999 V2000
    5.3505    1.6868   16.9259 H   0  0  0  0  0  0  0  0  0  0  0  0
    5.6346    1.0752   17.7762 C   0  0  0  0  0  0  0  0  0  0  0  0
    6.7917    0.4060   17.6587 N   0  0  0  0  0  0  0  0  0  0  0  0
    7.1921   -0.2949   18.7216 C   0  0  0  0  0  0  0  0  0  0  0  0
    8.1398   -0.8177   18.6182 H   0  0  0  0  0  0  0  0  0  0  0  0
    6.4939   -0.3689   19.9420 C   0  0  0  0  0  0  0  0  0  0  0  0
    7.1718   -0.9984   21.0906 C   0  0  0  0  0  0  0  0  0  0  0  0
    6.5125   -1.5921   22.0905 N   0  0  0  0  0  0  0  0  0  0  0  0
    7.4802   -1.9359   22.9441 N   0  0  0  0  0  0  0  0  0  0  0  0
    8.7227   -1.6211   22.5582 C   0  0  0  0  0  0  0  0  0  0  0  0
    8.5933   -0.9764   21.3444 C   0  0  0  0  0  0  0  0  0  0  0  0
    9.6125   -0.2727   20.6509 N   0  0  0  0  0  0  0  0  0  0  0  0
   10.5088   -0.7128   20.8437 H   0  0  0  0  0  0  0  0  0  0  0  0
    9.6460    1.1727   20.9298 C   0  0  0  0  0  0  0  0  0  0  0  0
   10.4624    1.6086   20.3499 H   0  0  0  0  0  0  0  0  0  0  0  0
    8.7093    1.5889   20.5396 H   0  0  0  0  0  0  0  0  0  0  0  0
    9.7925    1.5829   22.3700 C   0  0  0  0  0  0  0  0  0  0  0  0
   11.3092    1.3944   23.1716 S   0  0  0  0  0  0  0  0  0  0  0  0
   10.6218    1.8289   24.6900 C   0  0  0  0  0  0  0  0  0  0  0  0
   11.2242    1.7593   25.5839 H   0  0  0  0  0  0  0  0  0  0  0  0
    9.3038    2.1547   24.5767 C   0  0  0  0  0  0  0  0  0  0  0  0
    8.6838    2.4419   25.4226 H   0  0  0  0  0  0  0  0  0  0  0  0
    8.8302    2.0255   23.2349 C   0  0  0  0  0  0  0  0  0  0  0  0
    7.8205    2.2620   22.9106 H   0  0  0  0  0  0  0  0  0  0  0  0
    9.7130   -1.9678   23.6205 C   0  0  0  0  0  0  0  0  0  0  0  0
   10.2759   -1.0823   23.9171 H   0  0  0  0  0  0  0  0  0  0  0  0
   10.4407   -2.6966   23.2548 H   0  0  0  0  0  0  0  0  0  0  0  0
    8.8218   -2.5305   24.7666 C   0  0  0  0  0  0  0  0  0  0  0  0
    9.0751   -3.5687   24.9722 H   0  0  0  0  0  0  0  0  0  0  0  0
    8.9680   -1.9670   25.6888 H   0  0  0  0  0  0  0  0  0  0  0  0
    7.3399   -2.4376   24.2923 C   0  0  0  0  0  0  0  0  0  0  0  0
    6.7463   -1.7483   24.9045 H   0  0  0  0  0  0  0  0  0  0  0  0
    6.8182   -3.3978   24.2720 H   0  0  0  0  0  0  0  0  0  0  0  0
    5.2412    0.2691   20.0130 C   0  0  0  0  0  0  0  0  0  0  0  0
    4.6435    0.2066   20.9256 H   0  0  0  0  0  0  0  0  0  0  0  0
    4.8188    1.0116   18.9135 C   0  0  0  0  0  0  0  0  0  0  0  0
    3.8828    1.5612   18.9262 H   0  0  0  0  0  0  0  0  0  0  0  0
  1  2  1  0
  2  3  2  0
  3  4  1  0
  4  5  1  0
  4  6  2  0
  6  7  1  0
  7  8  2  0
  8  9  1  0
  9 10  1  0
 10 11  2  0
 11 12  1  0
 12 13  1  0
 12 14  1  0
 14 15  1  0
 14 16  1  0
 14 17  1  0
 17 18  1  0
 18 19  1  0
 19 20  1  0
 19 21  2  0
 21 22  1  0
 21 23  1  0
 23 24  1  0
 10 25  1  0
 25 26  1  0
 25 27  1  0
 25 28  1  0
 28 29  1  0
 28 30  1  0
 28 31  1  0
 31 32  1  0
 31 33  1  0
  6 34  1  0
 34 35  1  0
 34 36  2  0
 36 37  1  0
 36  2  1  0
 11  7  1  0
 23 17  2  0
 31  9  1  0
M  END
>  <cnnaffinity>  (1) 
-5.94343

>  <filename>  (1) 
c1cncc(-c2nn3c(c2NCc2cccs2)CCC3)c1

$$$$
