
     RDKit          3D

 44 47  0  0  0  0  0  0  0  0999 V2000
    4.8177    1.4051   18.9943 C   0  0  0  0  0  0  0  0  0  0  0  0
    5.4441    1.3325   17.7491 C   0  0  0  0  0  0  0  0  0  0  0  0
    6.5753    0.6363   17.5408 N   0  0  0  0  0  0  0  0  0  0  0  0
    7.1322    0.0133   18.5863 C   0  0  0  0  0  0  0  0  0  0  0  0
    6.6253    0.1034   19.8954 C   0  0  0  0  0  0  0  0  0  0  0  0
    7.3230   -0.5209   20.9721 N   0  0  0  0  0  0  0  0  0  0  0  0
    7.6952   -1.8261   20.8691 N   0  0  0  0  0  0  0  0  0  0  0  0
    8.1265   -2.1090   22.0899 C   0  0  0  0  0  0  0  0  0  0  0  0
    8.6608   -3.4682   22.4804 C   0  0  0  0  0  0  0  0  0  0  0  0
    7.8248   -4.6492   21.9341 C   0  0  0  0  0  0  0  0  0  0  0  0
    8.1762   -5.8513   22.8208 C   0  0  0  0  0  0  0  0  0  0  0  0
    8.6215   -5.2764   24.1840 C   0  0  0  0  0  0  0  0  0  0  0  0
    8.7515   -3.7451   24.0033 C   0  0  0  0  0  0  0  0  0  0  0  0
    7.9340   -3.2226   24.5107 H   0  0  0  0  0  0  0  0  0  0  0  0
    9.6837   -3.3490   24.4230 H   0  0  0  0  0  0  0  0  0  0  0  0
    9.5679   -5.7403   24.4866 H   0  0  0  0  0  0  0  0  0  0  0  0
    7.8981   -5.4953   24.9791 H   0  0  0  0  0  0  0  0  0  0  0  0
    8.9937   -6.4346   22.3849 H   0  0  0  0  0  0  0  0  0  0  0  0
    7.3342   -6.5449   22.9206 H   0  0  0  0  0  0  0  0  0  0  0  0
    6.7606   -4.4043   22.0576 H   0  0  0  0  0  0  0  0  0  0  0  0
    8.0018   -4.8446   20.8696 H   0  0  0  0  0  0  0  0  0  0  0  0
    9.6775   -3.4705   22.0736 H   0  0  0  0  0  0  0  0  0  0  0  0
    8.1058   -1.0595   22.9503 N   0  0  0  0  0  0  0  0  0  0  0  0
    7.6311   -0.0694   22.2241 C   0  0  0  0  0  0  0  0  0  0  0  0
    7.6092    1.3587   22.6550 C   0  0  0  0  0  0  0  0  0  0  0  0
    8.5719    2.2604   21.8496 C   0  0  0  0  0  0  0  0  0  0  0  0
    8.5200    3.7060   22.2901 C   0  0  0  0  0  0  0  0  0  0  0  0
    9.4720    4.3440   23.0920 C   0  0  0  0  0  0  0  0  0  0  0  0
    9.3667    5.6045   23.5224 N   0  0  0  0  0  0  0  0  0  0  0  0
    8.3090    6.2880   23.0828 C   0  0  0  0  0  0  0  0  0  0  0  0
    7.3610    5.8226   22.2727 N   0  0  0  0  0  0  0  0  0  0  0  0
    7.4720    4.5457   21.9042 C   0  0  0  0  0  0  0  0  0  0  0  0
    6.6821    4.1704   21.2430 H   0  0  0  0  0  0  0  0  0  0  0  0
    8.2050    7.3194   23.4240 H   0  0  0  0  0  0  0  0  0  0  0  0
   10.3693    3.8101   23.4232 H   0  0  0  0  0  0  0  0  0  0  0  0
    8.2999    2.1933   20.7872 H   0  0  0  0  0  0  0  0  0  0  0  0
    9.5951    1.8699   21.9323 H   0  0  0  0  0  0  0  0  0  0  0  0
    6.5867    1.7417   22.5836 H   0  0  0  0  0  0  0  0  0  0  0  0
    7.8756    1.3630   23.7159 H   0  0  0  0  0  0  0  0  0  0  0  0
    5.4191    0.7886   20.0979 C   0  0  0  0  0  0  0  0  0  0  0  0
    4.9489    0.8119   21.0807 H   0  0  0  0  0  0  0  0  0  0  0  0
    8.0208   -0.5786   18.3777 H   0  0  0  0  0  0  0  0  0  0  0  0
    5.0204    1.8395   16.8830 H   0  0  0  0  0  0  0  0  0  0  0  0
    3.8762    1.9338   19.0939 H   0  0  0  0  0  0  0  0  0  0  0  0
  1  2  2  0
  2  3  1  0
  3  4  2  0
  4  5  1  0
  5  6  1  0
  6  7  1  0
  7  8  2  0
  8  9  1  0
  9 10  1  0
 10 11  1  0
 11 12  1  0
 12 13  1  0
 13 14  1  0
 13 15  1  0
 12 16  1  0
 12 17  1  0
 11 18  1  0
 11 19  1  0
 10 20  1  0
 10 21  1  0
  9 22  1  0
  8 23  1  0
 23 24  2  0
 24 25  1  0
 25 26  1  0
 26 27  1  0
 27 28  2  0
 28 29  1  0
 29 30  2  0
 30 31  1  0
 31 32  2  0
 32 33  1  0
 30 34  1  0
 28 35  1  0
 26 36  1  0
 26 37  1  0
 25 38  1  0
 25 39  1  0
  5 40  2  0
 40 41  1  0
  4 42  1  0
  2 43  1  0
  1 44  1  0
 40  1  1  0
 24  6  1  0
 32 27  1  0
 13  9  1  0
M  END
>  <cnnaffinity>  (1) 
-6.1689

>  <filename>  (1) 
c1cncc(-n2nc(C3CCCC3)nc2CCc2cncnc2)c1

$$$$
