
     RDKit          3D

 31 34  0  0  0  0  0  0  0  0999 V2000
    5.0218    1.7969   17.0003 H   0  0  0  0  0  0  0  0  0  0  0  0
    5.4649    1.2878   17.8557 C   0  0  0  0  0  0  0  0  0  0  0  0
    6.6214    0.6447   17.6246 N   0  0  0  0  0  0  0  0  0  0  0  0
    7.2002    0.0354   18.6645 C   0  0  0  0  0  0  0  0  0  0  0  0
    8.1205   -0.5005   18.4430 H   0  0  0  0  0  0  0  0  0  0  0  0
    6.7051    0.0524   19.9920 C   0  0  0  0  0  0  0  0  0  0  0  0
    7.4476   -0.5873   21.1132 C   0  0  0  0  0  0  0  0  0  0  0  0
    8.3757   -2.0224   20.8907 S   0  0  0  0  0  0  0  0  0  0  0  0
    8.6892   -2.2868   22.4971 N   0  0  0  0  0  0  0  0  0  0  0  0
    8.1627   -1.3185   23.1939 C   0  0  0  0  0  0  0  0  0  0  0  0
    8.2788   -1.3348   24.2800 H   0  0  0  0  0  0  0  0  0  0  0  0
    7.4784   -0.2862   22.4659 C   0  0  0  0  0  0  0  0  0  0  0  0
    6.9542    0.9114   23.1402 C   0  0  0  0  0  0  0  0  0  0  0  0
    6.0926    0.7626   24.2373 C   0  0  0  0  0  0  0  0  0  0  0  0
    5.8026   -0.2414   24.5287 H   0  0  0  0  0  0  0  0  0  0  0  0
    5.5485    1.8688   24.9130 C   0  0  0  0  0  0  0  0  0  0  0  0
    4.8213    1.7116   25.7033 H   0  0  0  0  0  0  0  0  0  0  0  0
    5.8718    3.1665   24.5297 C   0  0  0  0  0  0  0  0  0  0  0  0
    5.4177    4.0388   24.9909 H   0  0  0  0  0  0  0  0  0  0  0  0
    6.7839    3.3139   23.4744 C   0  0  0  0  0  0  0  0  0  0  0  0
    7.3355    2.2264   22.7530 C   0  0  0  0  0  0  0  0  0  0  0  0
    8.1695    2.8158   21.7312 C   0  0  0  0  0  0  0  0  0  0  0  0
    8.7289    2.3124   20.9535 H   0  0  0  0  0  0  0  0  0  0  0  0
    8.0837    4.1716   21.8663 C   0  0  0  0  0  0  0  0  0  0  0  0
    8.5255    4.9564   21.2697 H   0  0  0  0  0  0  0  0  0  0  0  0
    7.2775    4.4732   22.9407 N   0  0  0  0  0  0  0  0  0  0  0  0
    6.8652    5.3708   23.1310 H   0  0  0  0  0  0  0  0  0  0  0  0
    5.4741    0.7036   20.1955 C   0  0  0  0  0  0  0  0  0  0  0  0
    5.0213    0.7200   21.1893 H   0  0  0  0  0  0  0  0  0  0  0  0
    4.8412    1.3162   19.1077 C   0  0  0  0  0  0  0  0  0  0  0  0
    3.8844    1.8197   19.2110 H   0  0  0  0  0  0  0  0  0  0  0  0
  1  2  1  0
  2  3  2  0
  3  4  1  0
  4  5  1  0
  4  6  2  0
  6  7  1  0
  7  8  1  0
  8  9  1  0
  9 10  2  0
 10 11  1  0
 10 12  1  0
 12 13  1  0
 13 14  2  0
 14 15  1  0
 14 16  1  0
 16 17  1  0
 16 18  2  0
 18 19  1  0
 18 20  1  0
 20 21  2  0
 21 22  1  0
 22 23  1  0
 22 24  2  0
 24 25  1  0
 24 26  1  0
 26 27  1  0
  6 28  1  0
 28 29  1  0
 28 30  2  0
 30 31  1  0
 30  2  1  0
 12  7  2  0
 21 13  1  0
 26 20  1  0
M  END
>  <cnnaffinity>  (1) 
-4.73123

>  <filename>  (1) 
c1cncc(-c2sncc2-c2cccc3[nH]ccc23)c1

$$$$
