
     RDKit          3D

 35 37  0  0  0  0  0  0  0  0999 V2000
    4.9410    1.7855   16.9976 H   0  0  0  0  0  0  0  0  0  0  0  0
    5.4017    1.2868   17.8491 C   0  0  0  0  0  0  0  0  0  0  0  0
    6.5613    0.6665   17.5985 N   0  0  0  0  0  0  0  0  0  0  0  0
    7.1653    0.0530   18.6180 C   0  0  0  0  0  0  0  0  0  0  0  0
    8.1104   -0.4206   18.3637 H   0  0  0  0  0  0  0  0  0  0  0  0
    6.6568    0.0024   19.9267 C   0  0  0  0  0  0  0  0  0  0  0  0
    7.3907   -0.7052   20.9777 C   0  0  0  0  0  0  0  0  0  0  0  0
    6.8533   -0.7984   22.2561 N   0  0  0  0  0  0  0  0  0  0  0  0
    7.7302   -1.4787   22.9158 C   0  0  0  0  0  0  0  0  0  0  0  0
    7.6943   -1.8696   24.1979 N   0  0  0  0  0  0  0  0  0  0  0  0
    8.5086   -2.3840   24.4779 H   0  0  0  0  0  0  0  0  0  0  0  0
    6.6032   -1.4849   25.0792 C   0  0  0  0  0  0  0  0  0  0  0  0
    5.6600   -1.6293   24.5235 H   0  0  0  0  0  0  0  0  0  0  0  0
    6.5652   -2.3648   26.3375 C   0  0  0  0  0  0  0  0  0  0  0  0
    6.4728   -3.4164   26.0388 H   0  0  0  0  0  0  0  0  0  0  0  0
    7.5293   -2.2651   26.8634 H   0  0  0  0  0  0  0  0  0  0  0  0
    5.4128   -1.9568   27.2821 C   0  0  0  0  0  0  0  0  0  0  0  0
    5.4235   -2.5761   28.1876 H   0  0  0  0  0  0  0  0  0  0  0  0
    4.4499   -2.1616   26.7867 H   0  0  0  0  0  0  0  0  0  0  0  0
    5.4852   -0.4630   27.6503 C   0  0  0  0  0  0  0  0  0  0  0  0
    6.3857   -0.2853   28.2586 H   0  0  0  0  0  0  0  0  0  0  0  0
    4.6337   -0.1812   28.2840 H   0  0  0  0  0  0  0  0  0  0  0  0
    5.5381    0.4242   26.3924 C   0  0  0  0  0  0  0  0  0  0  0  0
    5.6436    1.4804   26.6708 H   0  0  0  0  0  0  0  0  0  0  0  0
    4.5813    0.3441   25.8507 H   0  0  0  0  0  0  0  0  0  0  0  0
    6.6877    0.0067   25.4565 C   0  0  0  0  0  0  0  0  0  0  0  0
    7.6576    0.1844   25.9474 H   0  0  0  0  0  0  0  0  0  0  0  0
    6.6876    0.5878   24.5251 H   0  0  0  0  0  0  0  0  0  0  0  0
    8.8151   -1.8585   22.2196 O   0  0  0  0  0  0  0  0  0  0  0  0
    8.5818   -1.3442   20.9559 C   0  0  0  0  0  0  0  0  0  0  0  0
    9.3317   -1.5119   20.2020 H   0  0  0  0  0  0  0  0  0  0  0  0
    5.4322    0.6514   20.1741 C   0  0  0  0  0  0  0  0  0  0  0  0
    4.9974    0.6407   21.1749 H   0  0  0  0  0  0  0  0  0  0  0  0
    4.8038    1.3054   19.1143 C   0  0  0  0  0  0  0  0  0  0  0  0
    3.8724    1.8409   19.2474 H   0  0  0  0  0  0  0  0  0  0  0  0
  1  2  1  0
  2  3  2  0
  3  4  1  0
  4  5  1  0
  4  6  2  0
  6  7  1  0
  7  8  1  0
  8  9  2  0
  9 10  1  0
 10 11  1  0
 10 12  1  0
 12 13  1  0
 12 14  1  0
 14 15  1  0
 14 16  1  0
 14 17  1  0
 17 18  1  0
 17 19  1  0
 17 20  1  0
 20 21  1  0
 20 22  1  0
 20 23  1  0
 23 24  1  0
 23 25  1  0
 23 26  1  0
 26 27  1  0
 26 28  1  0
  9 29  1  0
 29 30  1  0
 30 31  1  0
  6 32  1  0
 32 33  1  0
 32 34  2  0
 34 35  1  0
 34  2  1  0
 30  7  2  0
 26 12  1  0
M  END
>  <cnnaffinity>  (1) 
-5.05759

>  <filename>  (1) 
c1cncc(-c2coc(NC3CCCCC3)n2)c1

$$$$
