
     RDKit          3D

 36 38  0  0  0  0  0  0  0  0999 V2000
    4.9648    1.7738   17.0178 H   0  0  0  0  0  0  0  0  0  0  0  0
    5.4179    1.2752   17.8696 C   0  0  0  0  0  0  0  0  0  0  0  0
    6.5767    0.6460   17.6258 N   0  0  0  0  0  0  0  0  0  0  0  0
    7.1738    0.0232   18.6426 C   0  0  0  0  0  0  0  0  0  0  0  0
    8.1151   -0.4605   18.3851 H   0  0  0  0  0  0  0  0  0  0  0  0
    6.6542   -0.0263   19.9491 C   0  0  0  0  0  0  0  0  0  0  0  0
    7.3616   -0.7124   20.9728 N   0  0  0  0  0  0  0  0  0  0  0  0
    6.7414   -1.1350   22.1051 N   0  0  0  0  0  0  0  0  0  0  0  0
    7.7006   -1.6937   22.8229 C   0  0  0  0  0  0  0  0  0  0  0  0
    7.4122   -2.1976   24.0547 N   0  0  0  0  0  0  0  0  0  0  0  0
    6.4318   -2.0925   24.2590 H   0  0  0  0  0  0  0  0  0  0  0  0
    8.3490   -2.9625   24.8467 C   0  0  0  0  0  0  0  0  0  0  0  0
    9.2979   -2.3915   24.8740 H   0  0  0  0  0  0  0  0  0  0  0  0
    8.6689   -4.3674   24.2367 C   0  0  0  0  0  0  0  0  0  0  0  0
    7.7670   -4.7369   23.7314 H   0  0  0  0  0  0  0  0  0  0  0  0
    9.4354   -4.2170   23.4639 H   0  0  0  0  0  0  0  0  0  0  0  0
    9.1462   -5.4317   25.2718 C   0  0  0  0  0  0  0  0  0  0  0  0
    9.7836   -6.1806   24.7796 H   0  0  0  0  0  0  0  0  0  0  0  0
    8.2750   -5.9802   25.6655 H   0  0  0  0  0  0  0  0  0  0  0  0
    9.8834   -4.7733   26.4468 C   0  0  0  0  0  0  0  0  0  0  0  0
   10.2344   -5.5246   27.1667 H   0  0  0  0  0  0  0  0  0  0  0  0
   10.7917   -4.2815   26.0671 H   0  0  0  0  0  0  0  0  0  0  0  0
    8.9954   -3.7192   27.1625 C   0  0  0  0  0  0  0  0  0  0  0  0
    9.6583   -2.8973   27.4522 H   0  0  0  0  0  0  0  0  0  0  0  0
    8.5476   -4.1366   28.0713 H   0  0  0  0  0  0  0  0  0  0  0  0
    7.8708   -3.0995   26.2909 C   0  0  0  0  0  0  0  0  0  0  0  0
    6.9378   -3.6881   26.3015 H   0  0  0  0  0  0  0  0  0  0  0  0
    7.6146   -2.1067   26.6823 H   0  0  0  0  0  0  0  0  0  0  0  0
    8.9599   -1.6454   22.1825 C   0  0  0  0  0  0  0  0  0  0  0  0
    9.8619   -2.0387   22.6241 H   0  0  0  0  0  0  0  0  0  0  0  0
    8.6940   -0.9987   20.9977 C   0  0  0  0  0  0  0  0  0  0  0  0
    9.3221   -0.6741   20.1784 H   0  0  0  0  0  0  0  0  0  0  0  0
    5.4370    0.6348   20.1967 C   0  0  0  0  0  0  0  0  0  0  0  0
    5.0014    0.6232   21.1956 H   0  0  0  0  0  0  0  0  0  0  0  0
    4.8169    1.2963   19.1332 C   0  0  0  0  0  0  0  0  0  0  0  0
    3.8832    1.8349   19.2635 H   0  0  0  0  0  0  0  0  0  0  0  0
  1  2  1  0
  2  3  2  0
  3  4  1  0
  4  5  1  0
  4  6  2  0
  6  7  1  0
  7  8  1  0
  8  9  2  0
  9 10  1  0
 10 11  1  0
 10 12  1  0
 12 13  1  0
 12 14  1  0
 14 15  1  0
 14 16  1  0
 14 17  1  0
 17 18  1  0
 17 19  1  0
 17 20  1  0
 20 21  1  0
 20 22  1  0
 20 23  1  0
 23 24  1  0
 23 25  1  0
 23 26  1  0
 26 27  1  0
 26 28  1  0
  9 29  1  0
 29 30  1  0
 29 31  2  0
 31 32  1  0
  6 33  1  0
 33 34  1  0
 33 35  2  0
 35 36  1  0
 35  2  1  0
 31  7  1  0
 26 12  1  0
M  END
>  <cnnaffinity>  (1) 
-5.04994

>  <filename>  (1) 
c1cncc(-n2ccc(NC3CCCCC3)n2)c1

$$$$
