
     RDKit          3D

 34 37  0  0  0  0  0  0  0  0999 V2000
    4.9162    1.7816   16.9937 H   0  0  0  0  0  0  0  0  0  0  0  0
    5.4004    1.2940   17.8369 C   0  0  0  0  0  0  0  0  0  0  0  0
    6.5648    0.6757   17.5809 N   0  0  0  0  0  0  0  0  0  0  0  0
    7.1780    0.0635   18.5966 C   0  0  0  0  0  0  0  0  0  0  0  0
    8.1165   -0.4332   18.3664 H   0  0  0  0  0  0  0  0  0  0  0  0
    6.6639    0.0083   19.9040 C   0  0  0  0  0  0  0  0  0  0  0  0
    7.3711   -0.6760   20.9221 N   0  0  0  0  0  0  0  0  0  0  0  0
    8.7487   -0.7965   21.0439 C   0  0  0  0  0  0  0  0  0  0  0  0
    9.4070   -0.3190   20.3304 H   0  0  0  0  0  0  0  0  0  0  0  0
    9.0201   -1.4928   22.1882 C   0  0  0  0  0  0  0  0  0  0  0  0
    9.9963   -1.7548   22.5745 H   0  0  0  0  0  0  0  0  0  0  0  0
    7.7772   -1.8423   22.8020 C   0  0  0  0  0  0  0  0  0  0  0  0
    7.6034   -2.5621   24.0713 C   0  0  0  0  0  0  0  0  0  0  0  0
    8.3377   -2.1553   25.1704 C   0  0  0  0  0  0  0  0  0  0  0  0
    9.0459   -1.3351   25.0506 H   0  0  0  0  0  0  0  0  0  0  0  0
    8.1569   -2.7498   26.4382 C   0  0  0  0  0  0  0  0  0  0  0  0
    8.7456   -2.3821   27.2766 H   0  0  0  0  0  0  0  0  0  0  0  0
    7.2433   -3.7705   26.5955 C   0  0  0  0  0  0  0  0  0  0  0  0
    7.0761   -4.2442   27.5546 H   0  0  0  0  0  0  0  0  0  0  0  0
    6.4859   -4.2525   25.4871 C   0  0  0  0  0  0  0  0  0  0  0  0
    5.6010   -5.2825   25.7069 N   0  0  0  0  0  0  0  0  0  0  0  0
    4.9355   -5.7396   24.6722 C   0  0  0  0  0  0  0  0  0  0  0  0
    4.2408   -6.5579   24.8566 H   0  0  0  0  0  0  0  0  0  0  0  0
    5.0686   -5.2470   23.3397 C   0  0  0  0  0  0  0  0  0  0  0  0
    4.4876   -5.6884   22.5344 H   0  0  0  0  0  0  0  0  0  0  0  0
    5.9428   -4.2206   23.0999 C   0  0  0  0  0  0  0  0  0  0  0  0
    6.1016   -3.8190   22.0942 H   0  0  0  0  0  0  0  0  0  0  0  0
    6.6785   -3.6598   24.1967 C   0  0  0  0  0  0  0  0  0  0  0  0
    6.7999   -1.3200   21.9937 C   0  0  0  0  0  0  0  0  0  0  0  0
    5.7283   -1.3806   22.1025 H   0  0  0  0  0  0  0  0  0  0  0  0
    5.4394    0.6468   20.1632 C   0  0  0  0  0  0  0  0  0  0  0  0
    5.0113    0.6422   21.1683 H   0  0  0  0  0  0  0  0  0  0  0  0
    4.8093    1.3092   19.1060 C   0  0  0  0  0  0  0  0  0  0  0  0
    3.8762    1.8410   19.2617 H   0  0  0  0  0  0  0  0  0  0  0  0
  1  2  1  0
  2  3  2  0
  3  4  1  0
  4  5  1  0
  4  6  2  0
  6  7  1  0
  7  8  1  0
  8  9  1  0
  8 10  2  0
 10 11  1  0
 10 12  1  0
 12 13  1  0
 13 14  2  0
 14 15  1  0
 14 16  1  0
 16 17  1  0
 16 18  2  0
 18 19  1  0
 18 20  1  0
 20 21  2  0
 21 22  1  0
 22 23  1  0
 22 24  2  0
 24 25  1  0
 24 26  1  0
 26 27  1  0
 26 28  2  0
 12 29  2  0
 29 30  1  0
  6 31  1  0
 31 32  1  0
 31 33  2  0
 33 34  1  0
 33  2  1  0
 29  7  1  0
 28 13  1  0
 28 20  1  0
M  END
>  <cnnaffinity>  (1) 
-5.3015

>  <filename>  (1) 
c1cncc(-n2ccc(-c3cccc4ncccc34)c2)c1

$$$$
