
     RDKit          3D

 48 51  0  0  0  0  0  0  0  0999 V2000
    4.8115    1.3107   19.1090 C   0  0  0  0  0  0  0  0  0  0  0  0
    5.4018    1.2956   17.8374 C   0  0  0  0  0  0  0  0  0  0  0  0
    6.5623    0.6756   17.5771 N   0  0  0  0  0  0  0  0  0  0  0  0
    7.1721    0.0575   18.5928 C   0  0  0  0  0  0  0  0  0  0  0  0
    6.6614    0.0124   19.9013 C   0  0  0  0  0  0  0  0  0  0  0  0
    7.3633   -0.6617   20.9379 N   0  0  0  0  0  0  0  0  0  0  0  0
    6.7413   -1.6025   21.6957 N   0  0  0  0  0  0  0  0  0  0  0  0
    7.6639   -1.9431   22.5676 C   0  0  0  0  0  0  0  0  0  0  0  0
    7.4461   -2.9299   23.6712 C   0  0  0  0  0  0  0  0  0  0  0  0
    8.5325   -4.0183   23.7651 C   0  0  0  0  0  0  0  0  0  0  0  0
    8.4862   -4.5158   25.2191 C   0  0  0  0  0  0  0  0  0  0  0  0
    7.8204   -3.3969   26.0555 C   0  0  0  0  0  0  0  0  0  0  0  0
    7.4292   -2.2796   25.0728 C   0  0  0  0  0  0  0  0  0  0  0  0
    6.4500   -1.8436   25.3010 H   0  0  0  0  0  0  0  0  0  0  0  0
    8.1606   -1.4634   25.1123 H   0  0  0  0  0  0  0  0  0  0  0  0
    8.4943   -3.0147   26.8293 H   0  0  0  0  0  0  0  0  0  0  0  0
    6.9400   -3.7854   26.5790 H   0  0  0  0  0  0  0  0  0  0  0  0
    9.4906   -4.7524   25.5850 H   0  0  0  0  0  0  0  0  0  0  0  0
    7.9057   -5.4421   25.2957 H   0  0  0  0  0  0  0  0  0  0  0  0
    8.3599   -4.8251   23.0435 H   0  0  0  0  0  0  0  0  0  0  0  0
    9.5135   -3.5849   23.5377 H   0  0  0  0  0  0  0  0  0  0  0  0
    6.4755   -3.3979   23.4825 H   0  0  0  0  0  0  0  0  0  0  0  0
    8.8455   -1.2752   22.4397 N   0  0  0  0  0  0  0  0  0  0  0  0
    8.6249   -0.4687   21.4247 C   0  0  0  0  0  0  0  0  0  0  0  0
    9.5290    0.6126   20.9316 C   0  0  0  0  0  0  0  0  0  0  0  0
    9.0324    2.0151   21.3050 C   0  0  0  0  0  0  0  0  0  0  0  0
    8.9332    2.2179   22.8195 C   0  0  0  0  0  0  0  0  0  0  0  0
    8.4435    3.5894   23.1574 C   0  0  0  0  0  0  0  0  0  0  0  0
    7.0775    3.8746   23.1963 C   0  0  0  0  0  0  0  0  0  0  0  0
    6.6646    5.1816   23.4488 C   0  0  0  0  0  0  0  0  0  0  0  0
    7.5050    6.2036   23.6596 N   0  0  0  0  0  0  0  0  0  0  0  0
    8.8125    5.9235   23.5964 C   0  0  0  0  0  0  0  0  0  0  0  0
    9.3273    4.6513   23.3513 C   0  0  0  0  0  0  0  0  0  0  0  0
   10.3986    4.4985   23.3010 H   0  0  0  0  0  0  0  0  0  0  0  0
    9.4875    6.7558   23.7611 H   0  0  0  0  0  0  0  0  0  0  0  0
    5.6067    5.4145   23.4927 H   0  0  0  0  0  0  0  0  0  0  0  0
    6.3449    3.0957   23.0198 H   0  0  0  0  0  0  0  0  0  0  0  0
    9.9146    2.0519   23.2794 H   0  0  0  0  0  0  0  0  0  0  0  0
    8.2594    1.4703   23.2549 H   0  0  0  0  0  0  0  0  0  0  0  0
    9.7191    2.7605   20.8943 H   0  0  0  0  0  0  0  0  0  0  0  0
    8.0569    2.2065   20.8397 H   0  0  0  0  0  0  0  0  0  0  0  0
    9.6265    0.5425   19.8462 H   0  0  0  0  0  0  0  0  0  0  0  0
   10.5191    0.4364   21.3635 H   0  0  0  0  0  0  0  0  0  0  0  0
    5.4404    0.6461   20.1651 C   0  0  0  0  0  0  0  0  0  0  0  0
    5.0145    0.6101   21.1711 H   0  0  0  0  0  0  0  0  0  0  0  0
    8.1156   -0.4346   18.3728 H   0  0  0  0  0  0  0  0  0  0  0  0
    4.9157    1.7830   16.9945 H   0  0  0  0  0  0  0  0  0  0  0  0
    3.8777    1.8408   19.2618 H   0  0  0  0  0  0  0  0  0  0  0  0
  1  2  2  0
  2  3  1  0
  3  4  2  0
  4  5  1  0
  5  6  1  0
  6  7  1  0
  7  8  2  0
  8  9  1  0
  9 10  1  0
 10 11  1  0
 11 12  1  0
 12 13  1  0
 13 14  1  0
 13 15  1  0
 12 16  1  0
 12 17  1  0
 11 18  1  0
 11 19  1  0
 10 20  1  0
 10 21  1  0
  9 22  1  0
  8 23  1  0
 23 24  2  0
 24 25  1  0
 25 26  1  0
 26 27  1  0
 27 28  1  0
 28 29  2  0
 29 30  1  0
 30 31  2  0
 31 32  1  0
 32 33  2  0
 33 34  1  0
 32 35  1  0
 30 36  1  0
 29 37  1  0
 27 38  1  0
 27 39  1  0
 26 40  1  0
 26 41  1  0
 25 42  1  0
 25 43  1  0
  5 44  2  0
 44 45  1  0
  4 46  1  0
  2 47  1  0
  1 48  1  0
 44  1  1  0
 24  6  1  0
 33 28  1  0
 13  9  1  0
M  END
>  <cnnaffinity>  (1) 
-6.20672

>  <filename>  (1) 
c1cncc(-n2nc(C3CCCC3)nc2CCCc2ccncc2)c1

$$$$
