
     RDKit          3D

 41 44  0  0  0  0  0  0  0  0999 V2000
    4.8138    1.3090   19.1114 C   0  0  0  0  0  0  0  0  0  0  0  0
    5.4005    1.2959   17.8391 C   0  0  0  0  0  0  0  0  0  0  0  0
    6.5599    0.6729   17.5774 N   0  0  0  0  0  0  0  0  0  0  0  0
    7.1690    0.0518   18.5941 C   0  0  0  0  0  0  0  0  0  0  0  0
    6.6614    0.0049   19.9036 C   0  0  0  0  0  0  0  0  0  0  0  0
    7.3731   -0.6691   20.9388 N   0  0  0  0  0  0  0  0  0  0  0  0
    6.7448   -1.5743   21.7278 N   0  0  0  0  0  0  0  0  0  0  0  0
    7.6825   -1.9275   22.5896 C   0  0  0  0  0  0  0  0  0  0  0  0
    7.4090   -2.8177   23.7534 C   0  0  0  0  0  0  0  0  0  0  0  0
    6.4345   -2.2206   24.8241 C   0  0  0  0  0  0  0  0  0  0  0  0
    5.4331   -3.3604   24.5237 C   0  0  0  0  0  0  0  0  0  0  0  0
    6.4100   -3.9816   23.4979 C   0  0  0  0  0  0  0  0  0  0  0  0
    6.0379   -4.0234   22.4687 H   0  0  0  0  0  0  0  0  0  0  0  0
    6.7918   -4.9717   23.7611 H   0  0  0  0  0  0  0  0  0  0  0  0
    5.1912   -3.9977   25.3783 H   0  0  0  0  0  0  0  0  0  0  0  0
    4.4860   -3.0257   24.0912 H   0  0  0  0  0  0  0  0  0  0  0  0
    6.0807   -1.2083   24.5898 H   0  0  0  0  0  0  0  0  0  0  0  0
    6.8298   -2.2019   25.8431 H   0  0  0  0  0  0  0  0  0  0  0  0
    8.3771   -3.1204   24.1559 H   0  0  0  0  0  0  0  0  0  0  0  0
    8.8856   -1.3282   22.4034 N   0  0  0  0  0  0  0  0  0  0  0  0
    8.6489   -0.5077   21.3958 C   0  0  0  0  0  0  0  0  0  0  0  0
    9.5300    0.6040   20.9446 C   0  0  0  0  0  0  0  0  0  0  0  0
    9.0445    1.9896   21.4461 C   0  0  0  0  0  0  0  0  0  0  0  0
    8.8540    2.0549   22.8925 N   0  0  0  0  0  0  0  0  0  0  0  0
    7.6674    1.8162   23.5537 C   0  0  0  0  0  0  0  0  0  0  0  0
    7.9104    1.7534   24.9020 C   0  0  0  0  0  0  0  0  0  0  0  0
    9.3165    1.9432   25.0770 C   0  0  0  0  0  0  0  0  0  0  0  0
    9.8646    2.1010   23.8278 C   0  0  0  0  0  0  0  0  0  0  0  0
   10.8981    2.2208   23.5129 H   0  0  0  0  0  0  0  0  0  0  0  0
    9.8595    1.9694   26.0164 H   0  0  0  0  0  0  0  0  0  0  0  0
    7.1685    1.5997   25.6824 H   0  0  0  0  0  0  0  0  0  0  0  0
    6.7530    1.6659   22.9886 H   0  0  0  0  0  0  0  0  0  0  0  0
    8.0992    2.2541   20.9593 H   0  0  0  0  0  0  0  0  0  0  0  0
    9.7755    2.7552   21.1672 H   0  0  0  0  0  0  0  0  0  0  0  0
   10.5271    0.3937   21.3336 H   0  0  0  0  0  0  0  0  0  0  0  0
    9.5881    0.6110   19.8529 H   0  0  0  0  0  0  0  0  0  0  0  0
    5.4433    0.6417   20.1679 C   0  0  0  0  0  0  0  0  0  0  0  0
    5.0146    0.6086   21.1743 H   0  0  0  0  0  0  0  0  0  0  0  0
    8.1135   -0.4364   18.3674 H   0  0  0  0  0  0  0  0  0  0  0  0
    4.9201    1.7860   16.9945 H   0  0  0  0  0  0  0  0  0  0  0  0
    3.8809    1.8383   19.2627 H   0  0  0  0  0  0  0  0  0  0  0  0
  1  2  2  0
  2  3  1  0
  3  4  2  0
  4  5  1  0
  5  6  1  0
  6  7  1  0
  7  8  2  0
  8  9  1  0
  9 10  1  0
 10 11  1  0
 11 12  1  0
 12 13  1  0
 12 14  1  0
 11 15  1  0
 11 16  1  0
 10 17  1  0
 10 18  1  0
  9 19  1  0
  8 20  1  0
 20 21  2  0
 21 22  1  0
 22 23  1  0
 23 24  1  0
 24 25  1  0
 25 26  2  0
 26 27  1  0
 27 28  2  0
 28 29  1  0
 27 30  1  0
 26 31  1  0
 25 32  1  0
 23 33  1  0
 23 34  1  0
 22 35  1  0
 22 36  1  0
  5 37  2  0
 37 38  1  0
  4 39  1  0
  2 40  1  0
  1 41  1  0
 37  1  1  0
 21  6  1  0
 28 24  1  0
 12  9  1  0
M  END
>  <cnnaffinity>  (1) 
-5.85134

>  <filename>  (1) 
c1cncc(-n2nc(C3CCC3)nc2CCn2cccc2)c1

$$$$
