
     RDKit          3D

 37 40  0  0  0  0  0  0  0  0999 V2000
    4.8129    2.3864   16.4764 H   0  0  0  0  0  0  0  0  0  0  0  0
    5.2396    1.8659   17.3325 C   0  0  0  0  0  0  0  0  0  0  0  0
    6.3763    1.1820   17.1128 N   0  0  0  0  0  0  0  0  0  0  0  0
    6.9184    0.5332   18.1550 C   0  0  0  0  0  0  0  0  0  0  0  0
    7.8592    0.0165   17.9629 H   0  0  0  0  0  0  0  0  0  0  0  0
    6.3579    0.4989   19.4625 C   0  0  0  0  0  0  0  0  0  0  0  0
    6.8137   -0.3363   20.5111 N   0  0  0  0  0  0  0  0  0  0  0  0
    7.3923   -1.6316   20.1788 C   0  0  0  0  0  0  0  0  0  0  0  0
    8.4804   -1.5492   19.9909 H   0  0  0  0  0  0  0  0  0  0  0  0
    6.9019   -2.0070   19.2744 H   0  0  0  0  0  0  0  0  0  0  0  0
    7.1851   -2.6276   21.3263 C   0  0  0  0  0  0  0  0  0  0  0  0
    7.6950   -3.5645   21.0896 H   0  0  0  0  0  0  0  0  0  0  0  0
    6.1113   -2.8545   21.4349 H   0  0  0  0  0  0  0  0  0  0  0  0
    7.7201   -2.0829   22.5769 N   0  0  0  0  0  0  0  0  0  0  0  0
    8.1817   -2.9489   23.5210 C   0  0  0  0  0  0  0  0  0  0  0  0
    8.7500   -4.0993   23.3195 N   0  0  0  0  0  0  0  0  0  0  0  0
    9.1587   -4.4830   24.6024 C   0  0  0  0  0  0  0  0  0  0  0  0
    9.9272   -5.5607   25.0689 C   0  0  0  0  0  0  0  0  0  0  0  0
   10.2641   -6.3612   24.4271 H   0  0  0  0  0  0  0  0  0  0  0  0
   10.2668   -5.5881   26.4191 C   0  0  0  0  0  0  0  0  0  0  0  0
   10.8925   -6.4032   26.7552 H   0  0  0  0  0  0  0  0  0  0  0  0
    9.8111   -4.6055   27.3130 C   0  0  0  0  0  0  0  0  0  0  0  0
   10.0985   -4.6822   28.3561 H   0  0  0  0  0  0  0  0  0  0  0  0
    9.0049   -3.5523   26.8684 C   0  0  0  0  0  0  0  0  0  0  0  0
    8.6313   -2.7748   27.5231 H   0  0  0  0  0  0  0  0  0  0  0  0
    8.7308   -3.5154   25.5171 C   0  0  0  0  0  0  0  0  0  0  0  0
    8.0784   -2.5330   24.8140 O   0  0  0  0  0  0  0  0  0  0  0  0
    7.2389   -0.7233   22.9037 C   0  0  0  0  0  0  0  0  0  0  0  0
    7.7690   -0.3251   23.7736 H   0  0  0  0  0  0  0  0  0  0  0  0
    6.1720   -0.7614   23.1560 H   0  0  0  0  0  0  0  0  0  0  0  0
    7.4535    0.2219   21.7072 C   0  0  0  0  0  0  0  0  0  0  0  0
    7.0427    1.2150   21.9166 H   0  0  0  0  0  0  0  0  0  0  0  0
    8.5426    0.3436   21.5584 H   0  0  0  0  0  0  0  0  0  0  0  0
    5.2091    1.2771   19.6741 C   0  0  0  0  0  0  0  0  0  0  0  0
    4.7965    1.3061   20.6840 H   0  0  0  0  0  0  0  0  0  0  0  0
    4.6248    1.9431   18.5906 C   0  0  0  0  0  0  0  0  0  0  0  0
    3.7160    2.5252   18.7180 H   0  0  0  0  0  0  0  0  0  0  0  0
  1  2  1  0
  2  3  2  0
  3  4  1  0
  4  5  1  0
  4  6  2  0
  6  7  1  0
  7  8  1  0
  8  9  1  0
  8 10  1  0
  8 11  1  0
 11 12  1  0
 11 13  1  0
 11 14  1  0
 14 15  1  0
 15 16  2  0
 16 17  1  0
 17 18  2  0
 18 19  1  0
 18 20  1  0
 20 21  1  0
 20 22  2  0
 22 23  1  0
 22 24  1  0
 24 25  1  0
 24 26  2  0
 26 27  1  0
 14 28  1  0
 28 29  1  0
 28 30  1  0
 28 31  1  0
 31 32  1  0
 31 33  1  0
  6 34  1  0
 34 35  1  0
 34 36  2  0
 36 37  1  0
 36  2  1  0
 31  7  1  0
 27 15  1  0
 26 17  1  0
M  END
>  <cnnaffinity>  (1) 
-4.9127

>  <filename>  (1) 
c1cncc(N2CCN(c3nc4ccccc4o3)CC2)c1

$$$$
