
     RDKit          3D

 49 52  0  0  0  0  0  0  0  0999 V2000
    4.8141    1.3093   19.1042 C   0  0  0  0  0  0  0  0  0  0  0  0
    5.4095    1.2985   17.8346 C   0  0  0  0  0  0  0  0  0  0  0  0
    6.5590    0.6608   17.5651 N   0  0  0  0  0  0  0  0  0  0  0  0
    7.1736    0.0351   18.5757 C   0  0  0  0  0  0  0  0  0  0  0  0
    6.6704    0.0092   19.8913 C   0  0  0  0  0  0  0  0  0  0  0  0
    7.3591   -0.6469   20.9461 N   0  0  0  0  0  0  0  0  0  0  0  0
    6.7170   -1.5696   21.7121 N   0  0  0  0  0  0  0  0  0  0  0  0
    7.6560   -1.9590   22.5521 C   0  0  0  0  0  0  0  0  0  0  0  0
    7.4245   -2.9286   23.6863 C   0  0  0  0  0  0  0  0  0  0  0  0
    6.7399   -2.2009   24.8956 C   0  0  0  0  0  0  0  0  0  0  0  0
    5.9300   -3.1742   25.7505 C   0  0  0  0  0  0  0  0  0  0  0  0
    4.9131   -3.8334   25.0014 O   0  0  0  0  0  0  0  0  0  0  0  0
    5.1266   -4.0085   23.6062 C   0  0  0  0  0  0  0  0  0  0  0  0
    6.6056   -4.1857   23.2622 C   0  0  0  0  0  0  0  0  0  0  0  0
    6.7150   -4.3859   22.1924 H   0  0  0  0  0  0  0  0  0  0  0  0
    6.9848   -5.0718   23.7877 H   0  0  0  0  0  0  0  0  0  0  0  0
    4.7324   -3.1459   23.0459 H   0  0  0  0  0  0  0  0  0  0  0  0
    4.5304   -4.8820   23.3267 H   0  0  0  0  0  0  0  0  0  0  0  0
    6.5939   -3.9222   26.2116 H   0  0  0  0  0  0  0  0  0  0  0  0
    5.4098   -2.6647   26.5691 H   0  0  0  0  0  0  0  0  0  0  0  0
    7.4824   -1.6758   25.5068 H   0  0  0  0  0  0  0  0  0  0  0  0
    6.0438   -1.4350   24.5289 H   0  0  0  0  0  0  0  0  0  0  0  0
    8.4303   -3.2472   23.9760 H   0  0  0  0  0  0  0  0  0  0  0  0
    8.8577   -1.3473   22.3939 N   0  0  0  0  0  0  0  0  0  0  0  0
    8.6338   -0.4990   21.4075 C   0  0  0  0  0  0  0  0  0  0  0  0
    9.5371    0.5731   20.9023 C   0  0  0  0  0  0  0  0  0  0  0  0
    9.0152    1.9956   21.1894 C   0  0  0  0  0  0  0  0  0  0  0  0
    8.7192    2.2635   22.6807 C   0  0  0  0  0  0  0  0  0  0  0  0
    9.9531    2.0900   23.5343 C   0  0  0  0  0  0  0  0  0  0  0  0
   11.0526    2.9374   23.3420 C   0  0  0  0  0  0  0  0  0  0  0  0
   12.2501    2.6612   24.0003 C   0  0  0  0  0  0  0  0  0  0  0  0
   12.4045    1.6519   24.8640 N   0  0  0  0  0  0  0  0  0  0  0  0
   11.3386    0.8743   25.0906 C   0  0  0  0  0  0  0  0  0  0  0  0
   10.1139    1.0387   24.4405 C   0  0  0  0  0  0  0  0  0  0  0  0
    9.3176    0.3209   24.6068 H   0  0  0  0  0  0  0  0  0  0  0  0
   11.4716    0.0889   25.8291 H   0  0  0  0  0  0  0  0  0  0  0  0
   13.1334    3.2742   23.8288 H   0  0  0  0  0  0  0  0  0  0  0  0
   10.9727    3.7885   22.6745 H   0  0  0  0  0  0  0  0  0  0  0  0
    7.9153    1.5983   23.0188 H   0  0  0  0  0  0  0  0  0  0  0  0
    8.3253    3.2805   22.7902 H   0  0  0  0  0  0  0  0  0  0  0  0
    9.7784    2.7053   20.8557 H   0  0  0  0  0  0  0  0  0  0  0  0
    8.1218    2.1894   20.5862 H   0  0  0  0  0  0  0  0  0  0  0  0
   10.5253    0.4289   21.3494 H   0  0  0  0  0  0  0  0  0  0  0  0
    9.6438    0.4303   19.8258 H   0  0  0  0  0  0  0  0  0  0  0  0
    5.4493    0.6408   20.1523 C   0  0  0  0  0  0  0  0  0  0  0  0
    5.0283    0.5944   21.1581 H   0  0  0  0  0  0  0  0  0  0  0  0
    8.1046   -0.4785   18.3345 H   0  0  0  0  0  0  0  0  0  0  0  0
    4.9386    1.8183   17.0054 H   0  0  0  0  0  0  0  0  0  0  0  0
    3.8767    1.8338   19.2598 H   0  0  0  0  0  0  0  0  0  0  0  0
  1  2  2  0
  2  3  1  0
  3  4  2  0
  4  5  1  0
  5  6  1  0
  6  7  1  0
  7  8  2  0
  8  9  1  0
  9 10  1  0
 10 11  1  0
 11 12  1  0
 12 13  1  0
 13 14  1  0
 14 15  1  0
 14 16  1  0
 13 17  1  0
 13 18  1  0
 11 19  1  0
 11 20  1  0
 10 21  1  0
 10 22  1  0
  9 23  1  0
  8 24  1  0
 24 25  2  0
 25 26  1  0
 26 27  1  0
 27 28  1  0
 28 29  1  0
 29 30  2  0
 30 31  1  0
 31 32  2  0
 32 33  1  0
 33 34  2  0
 34 35  1  0
 33 36  1  0
 31 37  1  0
 30 38  1  0
 28 39  1  0
 28 40  1  0
 27 41  1  0
 27 42  1  0
 26 43  1  0
 26 44  1  0
  5 45  2  0
 45 46  1  0
  4 47  1  0
  2 48  1  0
  1 49  1  0
 45  1  1  0
 25  6  1  0
 34 29  1  0
 14  9  1  0
M  END
>  <cnnaffinity>  (1) 
-6.27764

>  <filename>  (1) 
c1cncc(-n2nc(C3CCOCC3)nc2CCCc2ccncc2)c1

$$$$
