
     RDKit          3D

 33 36  0  0  0  0  0  0  0  0999 V2000
    4.9231    1.7813   16.9968 H   0  0  0  0  0  0  0  0  0  0  0  0
    5.4033    1.2903   17.8393 C   0  0  0  0  0  0  0  0  0  0  0  0
    6.5670    0.6748   17.5761 N   0  0  0  0  0  0  0  0  0  0  0  0
    7.1722    0.0529   18.5899 C   0  0  0  0  0  0  0  0  0  0  0  0
    8.1198   -0.4329   18.3678 H   0  0  0  0  0  0  0  0  0  0  0  0
    6.6477    0.0128   19.8949 C   0  0  0  0  0  0  0  0  0  0  0  0
    7.4026   -0.6921   20.9299 C   0  0  0  0  0  0  0  0  0  0  0  0
    8.3238   -1.5998   20.7219 N   0  0  0  0  0  0  0  0  0  0  0  0
    8.8136   -2.0345   21.9349 N   0  0  0  0  0  0  0  0  0  0  0  0
    8.1784   -1.3481   22.8460 C   0  0  0  0  0  0  0  0  0  0  0  0
    8.1887   -1.0978   24.5752 S   0  0  0  0  0  0  0  0  0  0  0  0
    6.9731    0.1489   24.3206 C   0  0  0  0  0  0  0  0  0  0  0  0
    6.5848    0.8053   25.4041 O   0  0  0  0  0  0  0  0  0  0  0  0
    5.5513    1.8182   25.3006 C   0  0  0  0  0  0  0  0  0  0  0  0
    5.8404    2.5433   24.5314 H   0  0  0  0  0  0  0  0  0  0  0  0
    5.3629    2.5259   26.6406 C   0  0  0  0  0  0  0  0  0  0  0  0
    6.0930    3.3268   26.7879 H   0  0  0  0  0  0  0  0  0  0  0  0
    5.4995    1.8085   27.4570 H   0  0  0  0  0  0  0  0  0  0  0  0
    3.9154    3.0601   26.6213 C   0  0  0  0  0  0  0  0  0  0  0  0
    3.4717    3.0731   27.6224 H   0  0  0  0  0  0  0  0  0  0  0  0
    3.8800    4.0970   26.2654 H   0  0  0  0  0  0  0  0  0  0  0  0
    3.1316    2.1373   25.6528 C   0  0  0  0  0  0  0  0  0  0  0  0
    2.3800    1.5436   26.1852 H   0  0  0  0  0  0  0  0  0  0  0  0
    2.5788    2.7327   24.9180 H   0  0  0  0  0  0  0  0  0  0  0  0
    4.1820    1.2223   24.9833 C   0  0  0  0  0  0  0  0  0  0  0  0
    4.0843    1.1519   23.9040 H   0  0  0  0  0  0  0  0  0  0  0  0
    4.1222    0.2058   25.3826 H   0  0  0  0  0  0  0  0  0  0  0  0
    6.5728    0.3570   23.1056 N   0  0  0  0  0  0  0  0  0  0  0  0
    7.2627   -0.5047   22.2875 N   0  0  0  0  0  0  0  0  0  0  0  0
    5.4302    0.6539   20.1610 C   0  0  0  0  0  0  0  0  0  0  0  0
    5.0115    0.6405   21.1688 H   0  0  0  0  0  0  0  0  0  0  0  0
    4.8045    1.3072   19.1045 C   0  0  0  0  0  0  0  0  0  0  0  0
    3.8752    1.8422   19.2557 H   0  0  0  0  0  0  0  0  0  0  0  0
  1  2  1  0
  2  3  2  0
  3  4  1  0
  4  5  1  0
  4  6  2  0
  6  7  1  0
  7  8  2  0
  8  9  1  0
  9 10  2  0
 10 11  1  0
 11 12  1  0
 12 13  1  0
 13 14  1  0
 14 15  1  0
 14 16  1  0
 16 17  1  0
 16 18  1  0
 16 19  1  0
 19 20  1  0
 19 21  1  0
 19 22  1  0
 22 23  1  0
 22 24  1  0
 22 25  1  0
 25 26  1  0
 25 27  1  0
 12 28  2  0
 28 29  1  0
  6 30  1  0
 30 31  1  0
 30 32  2  0
 32 33  1  0
 32  2  1  0
 29  7  1  0
 29 10  1  0
 25 14  1  0
M  END
>  <cnnaffinity>  (1) 
-5.21967

>  <filename>  (1) 
c1cncc(-c2nnc3sc(OC4CCCC4)nn23)c1

$$$$
