
     RDKit          3D

 40 43  0  0  0  0  0  0  0  0999 V2000
    4.8102    1.3134   19.1066 C   0  0  0  0  0  0  0  0  0  0  0  0
    5.3989    1.2969   17.8351 C   0  0  0  0  0  0  0  0  0  0  0  0
    6.5568    0.6724   17.5729 N   0  0  0  0  0  0  0  0  0  0  0  0
    7.1641    0.0516   18.5886 C   0  0  0  0  0  0  0  0  0  0  0  0
    6.6456    0.0074   19.8951 C   0  0  0  0  0  0  0  0  0  0  0  0
    7.3245   -0.6811   20.9300 N   0  0  0  0  0  0  0  0  0  0  0  0
    6.6736   -1.5516   21.7426 N   0  0  0  0  0  0  0  0  0  0  0  0
    7.6359   -2.0000   22.5316 C   0  0  0  0  0  0  0  0  0  0  0  0
    7.3662   -2.9243   23.6922 C   0  0  0  0  0  0  0  0  0  0  0  0
    7.2411   -2.1640   25.0419 C   0  0  0  0  0  0  0  0  0  0  0  0
    8.6262   -2.3557   25.6775 C   0  0  0  0  0  0  0  0  0  0  0  0
    9.0960   -3.6955   25.1026 C   0  0  0  0  0  0  0  0  0  0  0  0
    8.4059   -3.8760   23.8722 O   0  0  0  0  0  0  0  0  0  0  0  0
   10.1759   -3.7216   24.9024 H   0  0  0  0  0  0  0  0  0  0  0  0
    8.8506   -4.5439   25.7564 H   0  0  0  0  0  0  0  0  0  0  0  0
    9.3012   -1.5485   25.3683 H   0  0  0  0  0  0  0  0  0  0  0  0
    8.5895   -2.3777   26.7715 H   0  0  0  0  0  0  0  0  0  0  0  0
    6.9736   -1.1098   24.9037 H   0  0  0  0  0  0  0  0  0  0  0  0
    6.4523   -2.6195   25.6487 H   0  0  0  0  0  0  0  0  0  0  0  0
    6.4514   -3.4594   23.4285 H   0  0  0  0  0  0  0  0  0  0  0  0
    8.8519   -1.4533   22.3098 N   0  0  0  0  0  0  0  0  0  0  0  0
    8.6269   -0.6067   21.3305 C   0  0  0  0  0  0  0  0  0  0  0  0
    9.6564    0.2288   20.6685 C   0  0  0  0  0  0  0  0  0  0  0  0
   10.6690    0.7457   21.6494 C   0  0  0  0  0  0  0  0  0  0  0  0
   11.8589    0.0702   21.8975 C   0  0  0  0  0  0  0  0  0  0  0  0
   12.7021    0.5391   22.9077 C   0  0  0  0  0  0  0  0  0  0  0  0
   12.4314    1.6030   23.6705 N   0  0  0  0  0  0  0  0  0  0  0  0
   11.2754    2.2328   23.4344 C   0  0  0  0  0  0  0  0  0  0  0  0
   10.3651    1.8461   22.4499 C   0  0  0  0  0  0  0  0  0  0  0  0
    9.4310    2.3801   22.3289 H   0  0  0  0  0  0  0  0  0  0  0  0
   11.0676    3.0937   24.0630 H   0  0  0  0  0  0  0  0  0  0  0  0
   13.6429    0.0361   23.1101 H   0  0  0  0  0  0  0  0  0  0  0  0
   12.1178   -0.8185   21.3361 H   0  0  0  0  0  0  0  0  0  0  0  0
    9.1810    1.0704   20.1640 H   0  0  0  0  0  0  0  0  0  0  0  0
   10.1075   -0.4323   19.9230 H   0  0  0  0  0  0  0  0  0  0  0  0
    5.4330    0.6475   20.1624 C   0  0  0  0  0  0  0  0  0  0  0  0
    5.0164    0.6094   21.1729 H   0  0  0  0  0  0  0  0  0  0  0  0
    8.1126   -0.4298   18.3607 H   0  0  0  0  0  0  0  0  0  0  0  0
    4.9219    1.7867   16.9916 H   0  0  0  0  0  0  0  0  0  0  0  0
    3.8792    1.8415   19.2582 H   0  0  0  0  0  0  0  0  0  0  0  0
  1  2  2  0
  2  3  1  0
  3  4  2  0
  4  5  1  0
  5  6  1  0
  6  7  1  0
  7  8  2  0
  8  9  1  0
  9 10  1  0
 10 11  1  0
 11 12  1  0
 12 13  1  0
 12 14  1  0
 12 15  1  0
 11 16  1  0
 11 17  1  0
 10 18  1  0
 10 19  1  0
  9 20  1  0
  8 21  1  0
 21 22  2  0
 22 23  1  0
 23 24  1  0
 24 25  2  0
 25 26  1  0
 26 27  2  0
 27 28  1  0
 28 29  2  0
 29 30  1  0
 28 31  1  0
 26 32  1  0
 25 33  1  0
 23 34  1  0
 23 35  1  0
  5 36  2  0
 36 37  1  0
  4 38  1  0
  2 39  1  0
  1 40  1  0
 36  1  1  0
 22  6  1  0
 29 24  1  0
 13  9  1  0
M  END
>  <cnnaffinity>  (1) 
-6.14615

>  <filename>  (1) 
c1cncc(-n2nc(C3CCCO3)nc2Cc2ccncc2)c1

$$$$
