
     RDKit          3D

 34 37  0  0  0  0  0  0  0  0999 V2000
    4.9987    1.8467   16.8973 H   0  0  0  0  0  0  0  0  0  0  0  0
    5.4315    1.2937   17.7305 C   0  0  0  0  0  0  0  0  0  0  0  0
    6.5760    0.6357   17.4878 N   0  0  0  0  0  0  0  0  0  0  0  0
    7.1515   -0.0015   18.5132 C   0  0  0  0  0  0  0  0  0  0  0  0
    8.0762   -0.5301   18.2913 H   0  0  0  0  0  0  0  0  0  0  0  0
    6.6244   -0.0214   19.8180 C   0  0  0  0  0  0  0  0  0  0  0  0
    7.3714   -0.6497   20.9207 C   0  0  0  0  0  0  0  0  0  0  0  0
    8.5409   -1.2679   20.6893 N   0  0  0  0  0  0  0  0  0  0  0  0
    8.9299   -1.6399   21.9266 N   0  0  0  0  0  0  0  0  0  0  0  0
   10.0552   -2.2404   22.4791 C   0  0  0  0  0  0  0  0  0  0  0  0
   10.8643   -2.5893   21.8589 H   0  0  0  0  0  0  0  0  0  0  0  0
    9.8593   -2.2271   23.8242 C   0  0  0  0  0  0  0  0  0  0  0  0
   10.5070   -2.5667   24.6236 H   0  0  0  0  0  0  0  0  0  0  0  0
    8.6184   -1.6496   24.1134 N   0  0  0  0  0  0  0  0  0  0  0  0
    8.2212   -1.0012   25.3700 C   0  0  0  0  0  0  0  0  0  0  0  0
    8.6909   -1.5440   26.1993 H   0  0  0  0  0  0  0  0  0  0  0  0
    7.1321   -1.0783   25.4712 H   0  0  0  0  0  0  0  0  0  0  0  0
    8.6642    0.4586   25.3804 C   0  0  0  0  0  0  0  0  0  0  0  0
    7.8022    1.5366   25.1378 C   0  0  0  0  0  0  0  0  0  0  0  0
    6.7246    1.4078   25.0919 H   0  0  0  0  0  0  0  0  0  0  0  0
    8.3516    2.8053   24.8936 C   0  0  0  0  0  0  0  0  0  0  0  0
    7.7059    3.6592   24.6971 H   0  0  0  0  0  0  0  0  0  0  0  0
    9.6656    3.0576   24.8731 N   0  0  0  0  0  0  0  0  0  0  0  0
   10.4821    2.0347   25.1585 C   0  0  0  0  0  0  0  0  0  0  0  0
   11.5511    2.2379   25.1331 H   0  0  0  0  0  0  0  0  0  0  0  0
   10.0317    0.7463   25.4498 C   0  0  0  0  0  0  0  0  0  0  0  0
   10.7451   -0.0346   25.6865 H   0  0  0  0  0  0  0  0  0  0  0  0
    8.0726   -1.2750   22.9004 C   0  0  0  0  0  0  0  0  0  0  0  0
    7.0098   -0.6340   22.2895 C   0  0  0  0  0  0  0  0  0  0  0  0
    6.1243   -0.2084   22.7319 H   0  0  0  0  0  0  0  0  0  0  0  0
    5.4008    0.6285   20.0415 C   0  0  0  0  0  0  0  0  0  0  0  0
    4.9305    0.6152   21.0270 H   0  0  0  0  0  0  0  0  0  0  0  0
    4.8014    1.3001   18.9802 C   0  0  0  0  0  0  0  0  0  0  0  0
    3.8805    1.8552   19.1208 H   0  0  0  0  0  0  0  0  0  0  0  0
  1  2  1  0
  2  3  2  0
  3  4  1  0
  4  5  1  0
  4  6  2  0
  6  7  1  0
  7  8  2  0
  8  9  1  0
  9 10  1  0
 10 11  1  0
 10 12  2  0
 12 13  1  0
 12 14  1  0
 14 15  1  0
 15 16  1  0
 15 17  1  0
 15 18  1  0
 18 19  2  0
 19 20  1  0
 19 21  1  0
 21 22  1  0
 21 23  2  0
 23 24  1  0
 24 25  1  0
 24 26  2  0
 26 27  1  0
 14 28  1  0
 28 29  2  0
 29 30  1  0
  6 31  1  0
 31 32  1  0
 31 33  2  0
 33 34  1  0
 33  2  1  0
 29  7  1  0
 28  9  1  0
 26 18  1  0
M  END
>  <cnnaffinity>  (1) 
-5.70999

>  <filename>  (1) 
c1cncc(-c2cc3n(Cc4ccncc4)ccn3n2)c1

$$$$
