
     RDKit          3D

 36 39  0  0  0  0  0  0  0  0999 V2000
    5.1263    1.8005   16.8541 H   0  0  0  0  0  0  0  0  0  0  0  0
    5.5068    1.2929   17.7382 C   0  0  0  0  0  0  0  0  0  0  0  0
    6.6490    0.6059   17.5765 N   0  0  0  0  0  0  0  0  0  0  0  0
    7.1368   -0.0356   18.6433 C   0  0  0  0  0  0  0  0  0  0  0  0
    8.0428   -0.6179   18.4873 H   0  0  0  0  0  0  0  0  0  0  0  0
    6.5542    0.0096   19.9225 C   0  0  0  0  0  0  0  0  0  0  0  0
    7.1990   -0.6931   21.0362 C   0  0  0  0  0  0  0  0  0  0  0  0
    7.6689   -1.9356   20.8931 N   0  0  0  0  0  0  0  0  0  0  0  0
    8.0902   -2.2473   22.1260 N   0  0  0  0  0  0  0  0  0  0  0  0
    7.9778   -1.2582   23.0173 C   0  0  0  0  0  0  0  0  0  0  0  0
    7.4288   -0.1814   22.3537 C   0  0  0  0  0  0  0  0  0  0  0  0
    7.1383    1.1538   22.9978 C   0  0  2  0  0  0  0  0  0  0  0  0
    6.8933    1.8675   22.2026 H   0  0  0  0  0  0  0  0  0  0  0  0
    8.2822    1.7535   23.8595 C   0  0  0  0  0  0  0  0  0  0  0  0
    8.1827    2.8542   23.8737 H   0  0  0  0  0  0  0  0  0  0  0  0
    9.2995    1.5178   23.5346 H   0  0  0  0  0  0  0  0  0  0  0  0
    8.1031    1.2346   25.1601 O   0  0  0  0  0  0  0  0  0  0  0  0
    6.7173    1.3422   25.4128 C   0  0  0  0  0  0  0  0  0  0  0  0
    6.4726    0.6453   26.2231 H   0  0  0  0  0  0  0  0  0  0  0  0
    6.4672    2.3632   25.7486 H   0  0  0  0  0  0  0  0  0  0  0  0
    6.0207    1.0265   24.0749 C   0  0  0  0  0  0  0  0  0  0  0  0
    5.1839    1.7033   23.8823 H   0  0  0  0  0  0  0  0  0  0  0  0
    5.6054    0.0147   24.0981 H   0  0  0  0  0  0  0  0  0  0  0  0
    8.5217   -1.6595   24.3505 C   0  0  0  0  0  0  0  0  0  0  0  0
    9.3836   -1.0244   24.5867 H   0  0  0  0  0  0  0  0  0  0  0  0
    7.7784   -1.5181   25.1421 H   0  0  0  0  0  0  0  0  0  0  0  0
    8.8913   -3.1494   24.1144 C   0  0  0  0  0  0  0  0  0  0  0  0
    9.8522   -3.4158   24.5523 H   0  0  0  0  0  0  0  0  0  0  0  0
    8.1362   -3.7990   24.5681 H   0  0  0  0  0  0  0  0  0  0  0  0
    8.9034   -3.3561   22.5735 C   0  0  0  0  0  0  0  0  0  0  0  0
    8.4722   -4.3108   22.2657 H   0  0  0  0  0  0  0  0  0  0  0  0
    9.9124   -3.2674   22.1527 H   0  0  0  0  0  0  0  0  0  0  0  0
    5.3691    0.7461   20.0755 C   0  0  0  0  0  0  0  0  0  0  0  0
    4.8783    0.8048   21.0507 H   0  0  0  0  0  0  0  0  0  0  0  0
    4.8267    1.3803   18.9598 C   0  0  0  0  0  0  0  0  0  0  0  0
    3.9018    1.9436   19.0191 H   0  0  0  0  0  0  0  0  0  0  0  0
  1  2  1  0
  2  3  2  0
  3  4  1  0
  4  5  1  0
  4  6  2  0
  6  7  1  0
  7  8  2  0
  8  9  1  0
  9 10  1  0
 10 11  2  0
 11 12  1  0
 12 13  1  6
 12 14  1  0
 14 15  1  0
 14 16  1  0
 14 17  1  0
 17 18  1  0
 18 19  1  0
 18 20  1  0
 18 21  1  0
 21 22  1  0
 21 23  1  0
 10 24  1  0
 24 25  1  0
 24 26  1  0
 24 27  1  0
 27 28  1  0
 27 29  1  0
 27 30  1  0
 30 31  1  0
 30 32  1  0
  6 33  1  0
 33 34  1  0
 33 35  2  0
 35 36  1  0
 35  2  1  0
 11  7  1  0
 21 12  1  0
 30  9  1  0
M  END
>  <cnnaffinity>  (1) 
-5.03708

>  <filename>  (1) 
c1cncc(-c2nn3c(c2[C@H]2CCOC2)CCC3)c1

$$$$
