
     RDKit          3D

 37 41  0  0  0  0  0  0  0  0999 V2000
    4.9423    1.8443   16.5627 H   0  0  0  0  0  0  0  0  0  0  0  0
    5.2740    1.3297   17.4601 C   0  0  0  0  0  0  0  0  0  0  0  0
    6.3892    0.5974   17.3228 N   0  0  0  0  0  0  0  0  0  0  0  0
    6.8533   -0.0099   18.4125 C   0  0  0  0  0  0  0  0  0  0  0  0
    7.7669   -0.5901   18.2786 H   0  0  0  0  0  0  0  0  0  0  0  0
    6.2547    0.0683   19.6800 C   0  0  0  0  0  0  0  0  0  0  0  0
    7.0027   -0.5059   20.8111 C   0  0  0  0  0  0  0  0  0  0  0  0
    6.4571   -0.6911   22.0205 N   0  0  0  0  0  0  0  0  0  0  0  0
    7.5061   -1.1217   22.7549 N   0  0  0  0  0  0  0  0  0  0  0  0
    7.7304   -1.3814   24.0995 C   0  0  0  0  0  0  0  0  0  0  0  0
    6.9053   -1.3894   24.7904 H   0  0  0  0  0  0  0  0  0  0  0  0
    9.0676   -1.5662   24.2286 C   0  0  0  0  0  0  0  0  0  0  0  0
    9.6657   -1.7848   25.0997 H   0  0  0  0  0  0  0  0  0  0  0  0
    9.6744   -1.4203   22.9703 N   0  0  0  0  0  0  0  0  0  0  0  0
   11.0119   -1.0094   22.6940 C   0  0  0  0  0  0  0  0  0  0  0  0
   11.9067   -1.9224   22.1953 C   0  0  0  0  0  0  0  0  0  0  0  0
   11.5367   -2.9196   21.9934 H   0  0  0  0  0  0  0  0  0  0  0  0
   13.2656   -1.5649   22.0057 C   0  0  0  0  0  0  0  0  0  0  0  0
   13.9571   -2.3205   21.6358 H   0  0  0  0  0  0  0  0  0  0  0  0
   13.6974   -0.2930   22.3153 C   0  0  0  0  0  0  0  0  0  0  0  0
   14.7351    0.0102   22.2568 H   0  0  0  0  0  0  0  0  0  0  0  0
   12.7694    0.7051   22.7379 C   0  0  0  0  0  0  0  0  0  0  0  0
   13.2409    1.9746   22.9592 N   0  0  0  0  0  0  0  0  0  0  0  0
   12.3576    2.9048   23.2351 C   0  0  0  0  0  0  0  0  0  0  0  0
   12.7478    3.9103   23.3812 H   0  0  0  0  0  0  0  0  0  0  0  0
   10.9511    2.6931   23.3309 C   0  0  0  0  0  0  0  0  0  0  0  0
   10.3098    3.5448   23.5312 H   0  0  0  0  0  0  0  0  0  0  0  0
   10.4622    1.4151   23.1744 C   0  0  0  0  0  0  0  0  0  0  0  0
    9.4045    1.1607   23.2891 H   0  0  0  0  0  0  0  0  0  0  0  0
   11.3889    0.3661   22.8780 C   0  0  0  0  0  0  0  0  0  0  0  0
    8.6585   -1.1729   22.0672 C   0  0  0  0  0  0  0  0  0  0  0  0
    8.3867   -0.8292   20.7626 C   0  0  0  0  0  0  0  0  0  0  0  0
    9.0611   -0.7792   19.9280 H   0  0  0  0  0  0  0  0  0  0  0  0
    5.0484    0.7838   19.7943 C   0  0  0  0  0  0  0  0  0  0  0  0
    4.5299    0.8384   20.7539 H   0  0  0  0  0  0  0  0  0  0  0  0
    4.5634    1.4344   18.6608 C   0  0  0  0  0  0  0  0  0  0  0  0
    3.6680    2.0447   18.6937 H   0  0  0  0  0  0  0  0  0  0  0  0
  1  2  1  0
  2  3  2  0
  3  4  1  0
  4  5  1  0
  4  6  2  0
  6  7  1  0
  7  8  2  0
  8  9  1  0
  9 10  1  0
 10 11  1  0
 10 12  2  0
 12 13  1  0
 12 14  1  0
 14 15  1  0
 15 16  2  0
 16 17  1  0
 16 18  1  0
 18 19  1  0
 18 20  2  0
 20 21  1  0
 20 22  1  0
 22 23  2  0
 23 24  1  0
 24 25  1  0
 24 26  2  0
 26 27  1  0
 26 28  1  0
 28 29  1  0
 28 30  2  0
 14 31  1  0
 31 32  2  0
 32 33  1  0
  6 34  1  0
 34 35  1  0
 34 36  2  0
 36 37  1  0
 36  2  1  0
 32  7  1  0
 31  9  1  0
 30 15  1  0
 30 22  1  0
M  END
>  <cnnaffinity>  (1) 
-6.29629

>  <filename>  (1) 
c1cncc(-c2cc3n(-c4cccc5ncccc45)ccn3n2)c1

$$$$
