
     RDKit          3D

 42 45  0  0  0  0  0  0  0  0999 V2000
    4.9929    1.8584   16.9348 H   0  0  0  0  0  0  0  0  0  0  0  0
    5.4106    1.3147   17.7809 C   0  0  0  0  0  0  0  0  0  0  0  0
    6.5460    0.6397   17.5443 N   0  0  0  0  0  0  0  0  0  0  0  0
    7.1028   -0.0018   18.5762 C   0  0  0  0  0  0  0  0  0  0  0  0
    8.0083   -0.5625   18.3542 H   0  0  0  0  0  0  0  0  0  0  0  0
    6.5885    0.0203   19.8838 C   0  0  0  0  0  0  0  0  0  0  0  0
    7.3540   -0.6077   20.9651 C   0  0  0  0  0  0  0  0  0  0  0  0
    7.8464   -1.8363   20.8199 N   0  0  0  0  0  0  0  0  0  0  0  0
    8.4663   -2.0590   21.9853 N   0  0  0  0  0  0  0  0  0  0  0  0
    8.4614   -1.0292   22.8341 C   0  0  0  0  0  0  0  0  0  0  0  0
    7.7441   -0.0289   22.2070 C   0  0  0  0  0  0  0  0  0  0  0  0
    7.5980    1.3558   22.7637 C   0  0  0  0  0  0  0  0  0  0  0  0
    8.5603    1.8845   22.6738 H   0  0  0  0  0  0  0  0  0  0  0  0
    6.8904    1.9347   22.1414 H   0  0  0  0  0  0  0  0  0  0  0  0
    7.2406    1.2895   24.1921 N   0  0  0  0  0  0  0  0  0  0  0  0
    7.5424    2.4906   24.9833 C   0  0  0  0  0  0  0  0  0  0  0  0
    8.5844    2.7861   24.8108 H   0  0  0  0  0  0  0  0  0  0  0  0
    7.4673    2.1964   26.0418 H   0  0  0  0  0  0  0  0  0  0  0  0
    6.5904    3.6807   24.6970 C   0  0  0  0  0  0  0  0  0  0  0  0
    6.7687    4.0024   23.6591 H   0  0  0  0  0  0  0  0  0  0  0  0
    6.8409    4.5231   25.3538 H   0  0  0  0  0  0  0  0  0  0  0  0
    5.1530    3.3719   24.8346 N   0  0  0  0  0  0  0  0  0  0  0  0
    4.8927    3.3291   25.8155 H   0  0  0  0  0  0  0  0  0  0  0  0
    4.8315    2.1016   24.1598 C   0  0  0  0  0  0  0  0  0  0  0  0
    4.8170    2.2979   23.0767 H   0  0  0  0  0  0  0  0  0  0  0  0
    3.8157    1.7927   24.4332 H   0  0  0  0  0  0  0  0  0  0  0  0
    5.8255    0.9349   24.4259 C   0  0  0  0  0  0  0  0  0  0  0  0
    5.7308    0.5789   25.4659 H   0  0  0  0  0  0  0  0  0  0  0  0
    5.5781    0.0973   23.7726 H   0  0  0  0  0  0  0  0  0  0  0  0
    9.3489   -1.3013   24.0166 C   0  0  0  0  0  0  0  0  0  0  0  0
    8.7689   -1.3716   24.9405 H   0  0  0  0  0  0  0  0  0  0  0  0
   10.0754   -0.4947   24.1531 H   0  0  0  0  0  0  0  0  0  0  0  0
   10.0185   -2.6551   23.6397 C   0  0  0  0  0  0  0  0  0  0  0  0
    9.8091   -3.4260   24.3831 H   0  0  0  0  0  0  0  0  0  0  0  0
   11.0987   -2.5532   23.5715 H   0  0  0  0  0  0  0  0  0  0  0  0
    9.4650   -3.0565   22.2482 C   0  0  0  0  0  0  0  0  0  0  0  0
    9.0156   -4.0492   22.2207 H   0  0  0  0  0  0  0  0  0  0  0  0
   10.2304   -2.9494   21.4749 H   0  0  0  0  0  0  0  0  0  0  0  0
    5.3659    0.6728   20.0974 C   0  0  0  0  0  0  0  0  0  0  0  0
    4.8768    0.6371   21.0744 H   0  0  0  0  0  0  0  0  0  0  0  0
    4.7678    1.3328   19.0231 C   0  0  0  0  0  0  0  0  0  0  0  0
    3.8304    1.8668   19.1348 H   0  0  0  0  0  0  0  0  0  0  0  0
  1  2  1  0
  2  3  2  0
  3  4  1  0
  4  5  1  0
  4  6  2  0
  6  7  1  0
  7  8  2  0
  8  9  1  0
  9 10  1  0
 10 11  2  0
 11 12  1  0
 12 13  1  0
 12 14  1  0
 12 15  1  0
 15 16  1  0
 16 17  1  0
 16 18  1  0
 16 19  1  0
 19 20  1  0
 19 21  1  0
 19 22  1  0
 22 23  1  0
 22 24  1  0
 24 25  1  0
 24 26  1  0
 24 27  1  0
 27 28  1  0
 27 29  1  0
 10 30  1  0
 30 31  1  0
 30 32  1  0
 30 33  1  0
 33 34  1  0
 33 35  1  0
 33 36  1  0
 36 37  1  0
 36 38  1  0
  6 39  1  0
 39 40  1  0
 39 41  2  0
 41 42  1  0
 41  2  1  0
 11  7  1  0
 27 15  1  0
 36  9  1  0
M  END
>  <cnnaffinity>  (1) 
-5.20218

>  <filename>  (1) 
c1cncc(-c2nn3c(c2CN2CCNCC2)CCC3)c1

$$$$
