
     RDKit          3D

 33 36  0  0  0  0  0  0  0  0999 V2000
    4.9351    1.7737   17.0004 H   0  0  0  0  0  0  0  0  0  0  0  0
    5.4100    1.2847   17.8457 C   0  0  0  0  0  0  0  0  0  0  0  0
    6.5735    0.6646   17.5966 N   0  0  0  0  0  0  0  0  0  0  0  0
    7.1766    0.0523   18.6198 C   0  0  0  0  0  0  0  0  0  0  0  0
    8.1240   -0.4313   18.3870 H   0  0  0  0  0  0  0  0  0  0  0  0
    6.6413    0.0178   19.9165 C   0  0  0  0  0  0  0  0  0  0  0  0
    7.3639   -0.6877   20.9705 C   0  0  0  0  0  0  0  0  0  0  0  0
    8.5482   -1.3217   20.7526 N   0  0  0  0  0  0  0  0  0  0  0  0
    8.8072   -1.8174   21.9410 C   0  0  0  0  0  0  0  0  0  0  0  0
   10.0118   -2.8085   22.7191 S   0  0  0  0  0  0  0  0  0  0  0  0
    9.0868   -2.7666   24.1987 C   0  0  0  0  0  0  0  0  0  0  0  0
    9.4448   -3.3042   25.0654 H   0  0  0  0  0  0  0  0  0  0  0  0
    7.9562   -2.0358   24.1095 C   0  0  0  0  0  0  0  0  0  0  0  0
    6.9084   -1.8061   25.1665 C   0  0  0  0  0  0  0  0  0  0  0  0
    6.0868   -2.5079   24.9677 H   0  0  0  0  0  0  0  0  0  0  0  0
    6.3151   -0.3835   25.2322 C   0  0  0  0  0  0  0  0  0  0  0  0
    7.0959    0.3383   24.9832 H   0  0  0  0  0  0  0  0  0  0  0  0
    5.5236   -0.2385   24.4963 H   0  0  0  0  0  0  0  0  0  0  0  0
    5.8353   -0.1811   26.6819 C   0  0  0  0  0  0  0  0  0  0  0  0
    6.1507    0.7971   27.0631 H   0  0  0  0  0  0  0  0  0  0  0  0
    4.7448   -0.1993   26.7581 H   0  0  0  0  0  0  0  0  0  0  0  0
    6.4424   -1.3274   27.5166 C   0  0  0  0  0  0  0  0  0  0  0  0
    6.9286   -0.9162   28.3965 H   0  0  0  0  0  0  0  0  0  0  0  0
    5.6673   -2.0132   27.8765 H   0  0  0  0  0  0  0  0  0  0  0  0
    7.4271   -2.0604   26.5980 C   0  0  0  0  0  0  0  0  0  0  0  0
    7.5066   -3.1302   26.8322 H   0  0  0  0  0  0  0  0  0  0  0  0
    8.4351   -1.6390   26.7016 H   0  0  0  0  0  0  0  0  0  0  0  0
    7.8387   -1.5016   22.8245 N   0  0  0  0  0  0  0  0  0  0  0  0
    6.8874   -0.7588   22.2095 N   0  0  0  0  0  0  0  0  0  0  0  0
    5.4197    0.6612   20.1688 C   0  0  0  0  0  0  0  0  0  0  0  0
    4.9897    0.6411   21.1757 H   0  0  0  0  0  0  0  0  0  0  0  0
    4.8035    1.3105   19.1061 C   0  0  0  0  0  0  0  0  0  0  0  0
    3.8738    1.8434   19.2521 H   0  0  0  0  0  0  0  0  0  0  0  0
  1  2  1  0
  2  3  2  0
  3  4  1  0
  4  5  1  0
  4  6  2  0
  6  7  1  0
  7  8  1  0
  8  9  2  0
  9 10  1  0
 10 11  1  0
 11 12  1  0
 11 13  2  0
 13 14  1  0
 14 15  1  0
 14 16  1  0
 16 17  1  0
 16 18  1  0
 16 19  1  0
 19 20  1  0
 19 21  1  0
 19 22  1  0
 22 23  1  0
 22 24  1  0
 22 25  1  0
 25 26  1  0
 25 27  1  0
 13 28  1  0
 28 29  1  0
  6 30  1  0
 30 31  1  0
 30 32  2  0
 32 33  1  0
 32  2  1  0
 29  7  2  0
 28  9  1  0
 25 14  1  0
M  END
>  <cnnaffinity>  (1) 
-5.56501

>  <filename>  (1) 
c1cncc(-c2nc3scc(C4CCCC4)n3n2)c1

$$$$
