
     RDKit          3D

 27 30  0  0  0  0  0  0  0  0999 V2000
    4.9164    1.7757   17.0021 H   0  0  0  0  0  0  0  0  0  0  0  0
    5.4044    1.2898   17.8428 C   0  0  0  0  0  0  0  0  0  0  0  0
    6.5700    0.6777   17.5776 N   0  0  0  0  0  0  0  0  0  0  0  0
    7.1749    0.0561   18.5907 C   0  0  0  0  0  0  0  0  0  0  0  0
    8.1247   -0.4346   18.3737 H   0  0  0  0  0  0  0  0  0  0  0  0
    6.6476    0.0104   19.8922 C   0  0  0  0  0  0  0  0  0  0  0  0
    7.4016   -0.6983   20.9232 C   0  0  0  0  0  0  0  0  0  0  0  0
    8.3262   -1.6016   20.7013 N   0  0  0  0  0  0  0  0  0  0  0  0
    8.8257   -2.0363   21.9090 N   0  0  0  0  0  0  0  0  0  0  0  0
    8.1914   -1.3530   22.8230 C   0  0  0  0  0  0  0  0  0  0  0  0
    8.2554   -1.1010   24.5510 S   0  0  0  0  0  0  0  0  0  0  0  0
    7.0312    0.1649   24.3350 C   0  0  0  0  0  0  0  0  0  0  0  0
    6.5634    0.9076   25.4296 N   0  0  0  0  0  0  0  0  0  0  0  0
    5.6105    1.9247   25.3601 C   0  0  0  0  0  0  0  0  0  0  0  0
    5.1556    2.2124   24.4171 H   0  0  0  0  0  0  0  0  0  0  0  0
    5.4151    2.4123   26.6152 C   0  0  0  0  0  0  0  0  0  0  0  0
    4.7354    3.2088   26.8911 H   0  0  0  0  0  0  0  0  0  0  0  0
    6.2675    1.6851   27.5027 C   0  0  0  0  0  0  0  0  0  0  0  0
    6.3477    1.8325   28.5729 H   0  0  0  0  0  0  0  0  0  0  0  0
    6.9583    0.7748   26.7645 C   0  0  0  0  0  0  0  0  0  0  0  0
    7.6975    0.0504   27.0984 H   0  0  0  0  0  0  0  0  0  0  0  0
    6.6130    0.3627   23.1218 N   0  0  0  0  0  0  0  0  0  0  0  0
    7.2673   -0.5142   22.2888 N   0  0  0  0  0  0  0  0  0  0  0  0
    5.4325    0.6523   20.1619 C   0  0  0  0  0  0  0  0  0  0  0  0
    5.0098    0.6373   21.1706 H   0  0  0  0  0  0  0  0  0  0  0  0
    4.8048    1.3083   19.1089 C   0  0  0  0  0  0  0  0  0  0  0  0
    3.8741    1.8435   19.2615 H   0  0  0  0  0  0  0  0  0  0  0  0
  1  2  1  0
  2  3  2  0
  3  4  1  0
  4  5  1  0
  4  6  2  0
  6  7  1  0
  7  8  2  0
  8  9  1  0
  9 10  2  0
 10 11  1  0
 11 12  1  0
 12 13  1  0
 13 14  1  0
 14 15  1  0
 14 16  2  0
 16 17  1  0
 16 18  1  0
 18 19  1  0
 18 20  2  0
 20 21  1  0
 12 22  2  0
 22 23  1  0
  6 24  1  0
 24 25  1  0
 24 26  2  0
 26 27  1  0
 26  2  1  0
 23  7  1  0
 23 10  1  0
 20 13  1  0
M  END
>  <cnnaffinity>  (1) 
-4.94726

>  <filename>  (1) 
c1cncc(-c2nnc3sc(-n4cccc4)nn23)c1

$$$$
