
     RDKit          3D

 35 38  0  0  0  0  0  0  0  0999 V2000
    5.5165    1.6178   16.8201 H   0  0  0  0  0  0  0  0  0  0  0  0
    6.0656    1.3191   17.7098 C   0  0  0  0  0  0  0  0  0  0  0  0
    7.2918    0.8125   17.5128 N   0  0  0  0  0  0  0  0  0  0  0  0
    7.9602    0.3655   18.5802 C   0  0  0  0  0  0  0  0  0  0  0  0
    8.9631   -0.0145   18.3933 H   0  0  0  0  0  0  0  0  0  0  0  0
    7.4250    0.3358   19.8765 C   0  0  0  0  0  0  0  0  0  0  0  0
    8.0901   -0.4779   20.9077 C   0  0  0  0  0  0  0  0  0  0  0  0
    9.4141   -0.4703   21.0830 N   0  0  0  0  0  0  0  0  0  0  0  0
    9.5849   -1.3243   22.0944 N   0  0  0  0  0  0  0  0  0  0  0  0
    8.4618   -1.9075   22.5430 C   0  0  0  0  0  0  0  0  0  0  0  0
    7.4376   -1.4244   21.7612 C   0  0  0  0  0  0  0  0  0  0  0  0
    6.0146   -1.9374   21.6228 C   0  0  0  0  0  0  0  0  0  0  0  0
    5.3482   -1.0783   21.4984 H   0  0  0  0  0  0  0  0  0  0  0  0
    5.6992   -2.4637   22.5314 H   0  0  0  0  0  0  0  0  0  0  0  0
    5.7794   -2.8349   20.4400 C   0  0  0  0  0  0  0  0  0  0  0  0
    5.7792   -4.2070   20.5213 N   0  0  0  0  0  0  0  0  0  0  0  0
    5.5939   -4.6396   19.3053 C   0  0  0  0  0  0  0  0  0  0  0  0
    5.5410   -5.6812   19.0063 H   0  0  0  0  0  0  0  0  0  0  0  0
    5.4390   -3.6128   18.4243 N   0  0  0  0  0  0  0  0  0  0  0  0
    5.2876   -3.6900   17.4296 H   0  0  0  0  0  0  0  0  0  0  0  0
    5.5522   -2.4494   19.1478 C   0  0  0  0  0  0  0  0  0  0  0  0
    5.4384   -1.4656   18.7191 H   0  0  0  0  0  0  0  0  0  0  0  0
    8.8083   -2.8565   23.6605 C   0  0  0  0  0  0  0  0  0  0  0  0
    8.8598   -3.8859   23.2760 H   0  0  0  0  0  0  0  0  0  0  0  0
    8.0893   -2.8442   24.4855 H   0  0  0  0  0  0  0  0  0  0  0  0
   10.2104   -2.3382   24.0733 C   0  0  0  0  0  0  0  0  0  0  0  0
   10.1074   -1.5303   24.8072 H   0  0  0  0  0  0  0  0  0  0  0  0
   10.8482   -3.1026   24.5189 H   0  0  0  0  0  0  0  0  0  0  0  0
   10.7933   -1.7685   22.7565 C   0  0  0  0  0  0  0  0  0  0  0  0
   11.4867   -0.9379   22.8826 H   0  0  0  0  0  0  0  0  0  0  0  0
   11.2852   -2.5496   22.1637 H   0  0  0  0  0  0  0  0  0  0  0  0
    6.1923    0.9840   20.0802 C   0  0  0  0  0  0  0  0  0  0  0  0
    5.7879    1.1163   21.0834 H   0  0  0  0  0  0  0  0  0  0  0  0
    5.4905    1.4583   18.9738 C   0  0  0  0  0  0  0  0  0  0  0  0
    4.5091    1.9070   19.0769 H   0  0  0  0  0  0  0  0  0  0  0  0
  1  2  1  0
  2  3  2  0
  3  4  1  0
  4  5  1  0
  4  6  2  0
  6  7  1  0
  7  8  2  0
  8  9  1  0
  9 10  1  0
 10 11  2  0
 11 12  1  0
 12 13  1  0
 12 14  1  0
 12 15  1  0
 15 16  1  0
 16 17  2  0
 17 18  1  0
 17 19  1  0
 19 20  1  0
 19 21  1  0
 21 22  1  0
 10 23  1  0
 23 24  1  0
 23 25  1  0
 23 26  1  0
 26 27  1  0
 26 28  1  0
 26 29  1  0
 29 30  1  0
 29 31  1  0
  6 32  1  0
 32 33  1  0
 32 34  2  0
 34 35  1  0
 34  2  1  0
 11  7  1  0
 21 15  2  0
 29  9  1  0
M  END
>  <cnnaffinity>  (1) 
-5.37998

>  <filename>  (1) 
c1cncc(-c2nn3c(c2Cc2c[nH]cn2)CCC3)c1

$$$$
