
     RDKit          3D

 34 37  0  0  0  0  0  0  0  0999 V2000
    4.9171    1.7812   16.9935 H   0  0  0  0  0  0  0  0  0  0  0  0
    5.4012    1.2933   17.8375 C   0  0  0  0  0  0  0  0  0  0  0  0
    6.5657    0.6740   17.5857 N   0  0  0  0  0  0  0  0  0  0  0  0
    7.1784    0.0614   18.6034 C   0  0  0  0  0  0  0  0  0  0  0  0
    8.1165   -0.4339   18.3678 H   0  0  0  0  0  0  0  0  0  0  0  0
    6.6649    0.0058   19.9126 C   0  0  0  0  0  0  0  0  0  0  0  0
    7.3642   -0.6839   20.9394 N   0  0  0  0  0  0  0  0  0  0  0  0
    8.7430   -0.8016   21.0573 C   0  0  0  0  0  0  0  0  0  0  0  0
    9.3971   -0.3262   20.3388 H   0  0  0  0  0  0  0  0  0  0  0  0
    9.0236   -1.5234   22.1784 C   0  0  0  0  0  0  0  0  0  0  0  0
   10.0022   -1.7846   22.5561 H   0  0  0  0  0  0  0  0  0  0  0  0
    7.7833   -1.8868   22.7967 C   0  0  0  0  0  0  0  0  0  0  0  0
    7.6477   -2.6813   24.0419 C   0  0  0  0  0  0  0  0  0  0  0  0
    8.7539   -3.1090   24.6285 N   0  0  0  0  0  0  0  0  0  0  0  0
    8.6342   -3.8421   25.7735 C   0  0  0  0  0  0  0  0  0  0  0  0
    9.8229   -4.3092   26.4188 C   0  0  0  0  0  0  0  0  0  0  0  0
   10.7702   -4.0602   25.9528 H   0  0  0  0  0  0  0  0  0  0  0  0
    9.7411   -5.0510   27.5747 C   0  0  0  0  0  0  0  0  0  0  0  0
   10.6449   -5.4019   28.0707 H   0  0  0  0  0  0  0  0  0  0  0  0
    8.4724   -5.3805   28.1392 C   0  0  0  0  0  0  0  0  0  0  0  0
    8.4256   -5.9780   29.0469 H   0  0  0  0  0  0  0  0  0  0  0  0
    7.3112   -4.9400   27.5516 C   0  0  0  0  0  0  0  0  0  0  0  0
    6.3353   -5.1731   27.9779 H   0  0  0  0  0  0  0  0  0  0  0  0
    7.3660   -4.1664   26.3584 C   0  0  0  0  0  0  0  0  0  0  0  0
    6.1946   -3.6940   25.7007 C   0  0  0  0  0  0  0  0  0  0  0  0
    5.2123   -3.9251   26.1222 H   0  0  0  0  0  0  0  0  0  0  0  0
    6.3328   -2.9599   24.5548 C   0  0  0  0  0  0  0  0  0  0  0  0
    5.4567   -2.5844   24.0363 H   0  0  0  0  0  0  0  0  0  0  0  0
    6.7920   -1.3529   21.9984 C   0  0  0  0  0  0  0  0  0  0  0  0
    5.7132   -1.4017   22.0565 H   0  0  0  0  0  0  0  0  0  0  0  0
    5.4392    0.6485   20.1633 C   0  0  0  0  0  0  0  0  0  0  0  0
    5.0081    0.6427   21.1664 H   0  0  0  0  0  0  0  0  0  0  0  0
    4.8096    1.3097   19.1055 C   0  0  0  0  0  0  0  0  0  0  0  0
    3.8764    1.8409   19.2610 H   0  0  0  0  0  0  0  0  0  0  0  0
  1  2  1  0
  2  3  2  0
  3  4  1  0
  4  5  1  0
  4  6  2  0
  6  7  1  0
  7  8  1  0
  8  9  1  0
  8 10  2  0
 10 11  1  0
 10 12  1  0
 12 13  1  0
 13 14  2  0
 14 15  1  0
 15 16  2  0
 16 17  1  0
 16 18  1  0
 18 19  1  0
 18 20  2  0
 20 21  1  0
 20 22  1  0
 22 23  1  0
 22 24  2  0
 24 25  1  0
 25 26  1  0
 25 27  2  0
 27 28  1  0
 12 29  2  0
 29 30  1  0
  6 31  1  0
 31 32  1  0
 31 33  2  0
 33 34  1  0
 33  2  1  0
 29  7  1  0
 27 13  1  0
 24 15  1  0
M  END
>  <cnnaffinity>  (1) 
-5.40141

>  <filename>  (1) 
c1cncc(-n2ccc(-c3ccc4ccccc4n3)c2)c1

$$$$
