
     RDKit          3D

 45 49  0  0  0  0  0  0  0  0999 V2000
    4.9912    1.8808   17.0267 H   0  0  0  0  0  0  0  0  0  0  0  0
    5.4729    1.3341   17.8346 C   0  0  0  0  0  0  0  0  0  0  0  0
    6.6425    0.7386   17.5458 N   0  0  0  0  0  0  0  0  0  0  0  0
    7.2502    0.0662   18.5329 C   0  0  0  0  0  0  0  0  0  0  0  0
    8.1928   -0.4130   18.2782 H   0  0  0  0  0  0  0  0  0  0  0  0
    6.7494   -0.0784   19.8557 C   0  0  0  0  0  0  0  0  0  0  0  0
    7.4104   -0.8757   20.8051 N   0  0  0  0  0  0  0  0  0  0  0  0
    6.8408   -1.1413   22.1345 C   0  0  1  0  0  0  0  0  0  0  0  0
    5.8028   -1.4772   22.0348 H   0  0  0  0  0  0  0  0  0  0  0  0
    7.7508   -2.2959   22.6019 C   0  0  0  0  0  0  0  0  0  0  0  0
    7.8156   -2.3507   23.6922 H   0  0  0  0  0  0  0  0  0  0  0  0
    7.3427   -3.2416   22.2373 H   0  0  0  0  0  0  0  0  0  0  0  0
    9.1066   -2.0011   21.9295 C   0  0  0  0  0  0  0  0  0  0  0  0
    9.3841   -2.8259   21.2692 H   0  0  0  0  0  0  0  0  0  0  0  0
    9.9161   -1.8513   22.6493 H   0  0  0  0  0  0  0  0  0  0  0  0
    8.8526   -0.7364   21.0779 C   0  0  2  0  0  0  0  0  0  0  0  0
    9.4272   -0.7826   20.1437 H   0  0  0  0  0  0  0  0  0  0  0  0
    9.1536    0.6004   21.8197 C   0  0  0  0  0  0  0  0  0  0  0  0
    9.9959    0.4507   22.5061 H   0  0  0  0  0  0  0  0  0  0  0  0
    9.5062    1.3341   21.0888 H   0  0  0  0  0  0  0  0  0  0  0  0
    7.9194    1.2038   22.5744 C   0  0  2  0  0  0  0  0  0  0  0  0
    7.3820    1.8020   21.8269 H   0  0  0  0  0  0  0  0  0  0  0  0
    8.3096    2.0802   23.7511 C   0  0  0  0  0  0  0  0  0  0  0  0
    9.0572    1.5032   24.7598 C   0  0  0  0  0  0  0  0  0  0  0  0
    9.4520    0.4915   24.6396 H   0  0  0  0  0  0  0  0  0  0  0  0
    9.3241    2.0633   25.9707 N   0  0  0  0  0  0  0  0  0  0  0  0
    8.9277    3.3011   26.1602 C   0  0  0  0  0  0  0  0  0  0  0  0
    9.0775    3.7349   27.1441 H   0  0  0  0  0  0  0  0  0  0  0  0
    8.3047    4.1048   25.1699 C   0  0  0  0  0  0  0  0  0  0  0  0
    8.0981    5.5066   25.3709 C   0  0  0  0  0  0  0  0  0  0  0  0
    8.5286    5.9975   26.2457 H   0  0  0  0  0  0  0  0  0  0  0  0
    7.3886    6.2293   24.4445 C   0  0  0  0  0  0  0  0  0  0  0  0
    7.2259    7.2956   24.5869 H   0  0  0  0  0  0  0  0  0  0  0  0
    6.8615    5.5711   23.3009 C   0  0  0  0  0  0  0  0  0  0  0  0
    6.2457    6.1424   22.6150 H   0  0  0  0  0  0  0  0  0  0  0  0
    7.1082    4.2363   23.0547 C   0  0  0  0  0  0  0  0  0  0  0  0
    6.7120    3.7894   22.1450 H   0  0  0  0  0  0  0  0  0  0  0  0
    7.8970    3.4547   23.9540 C   0  0  0  0  0  0  0  0  0  0  0  0
    6.9351    0.0962   23.0657 C   0  0  0  0  0  0  0  0  0  0  0  0
    7.2382   -0.2507   24.0616 H   0  0  0  0  0  0  0  0  0  0  0  0
    5.9460    0.5412   23.2160 H   0  0  0  0  0  0  0  0  0  0  0  0
    5.5202    0.5615   20.1235 C   0  0  0  0  0  0  0  0  0  0  0  0
    5.0961    0.5089   21.1257 H   0  0  0  0  0  0  0  0  0  0  0  0
    4.8813    1.2703   19.1014 C   0  0  0  0  0  0  0  0  0  0  0  0
    3.9413    1.7814   19.2872 H   0  0  0  0  0  0  0  0  0  0  0  0
  1  2  1  0
  2  3  2  0
  3  4  1  0
  4  5  1  0
  4  6  2  0
  6  7  1  0
  7  8  1  0
  8  9  1  6
  8 10  1  0
 10 11  1  0
 10 12  1  0
 10 13  1  0
 13 14  1  0
 13 15  1  0
 13 16  1  0
 16 17  1  6
 16 18  1  0
 18 19  1  0
 18 20  1  0
 18 21  1  0
 21 22  1  6
 21 23  1  0
 23 24  2  0
 24 25  1  0
 24 26  1  0
 26 27  2  0
 27 28  1  0
 27 29  1  0
 29 30  2  0
 30 31  1  0
 30 32  1  0
 32 33  1  0
 32 34  2  0
 34 35  1  0
 34 36  1  0
 36 37  1  0
 36 38  2  0
 21 39  1  0
 39 40  1  0
 39 41  1  0
  6 42  1  0
 42 43  1  0
 42 44  2  0
 44 45  1  0
 44  2  1  0
 16  7  1  0
 38 23  1  0
 39  8  1  0
 38 29  1  0
M  END
>  <cnnaffinity>  (1) 
-5.79494

>  <filename>  (1) 
c1cncc(N2[C@@H]3CC[C@H]2C[C@@H](c2cncc4ccccc24)C3)c1

$$$$
