
     RDKit          3D

 46 49  0  0  0  0  0  0  0  0999 V2000
    4.9234    1.3261   18.7764 C   0  0  0  0  0  0  0  0  0  0  0  0
    5.5446    1.3355   17.5279 C   0  0  0  0  0  0  0  0  0  0  0  0
    6.7005    0.6864   17.2935 N   0  0  0  0  0  0  0  0  0  0  0  0
    7.2736    0.0278   18.3059 C   0  0  0  0  0  0  0  0  0  0  0  0
    6.7306   -0.0358   19.6139 C   0  0  0  0  0  0  0  0  0  0  0  0
    7.4498   -0.7081   20.5575 O   0  0  0  0  0  0  0  0  0  0  0  0
    6.9192   -0.8673   21.8709 C   0  0  0  0  0  0  0  0  0  0  0  0
    8.0577   -1.3578   22.7692 C   0  0  0  0  0  0  0  0  0  0  0  0
    7.6489   -1.4682   24.2053 C   0  0  0  0  0  0  0  0  0  0  0  0
    7.5677   -0.4721   25.0686 N   0  0  0  0  0  0  0  0  0  0  0  0
    7.1179   -1.0813   26.2048 C   0  0  0  0  0  0  0  0  0  0  0  0
    6.9162   -0.3947   27.5125 C   0  0  0  0  0  0  0  0  0  0  0  0
    5.8845    0.7464   27.5478 C   0  0  0  0  0  0  0  0  0  0  0  0
    6.1634    1.4349   28.9013 C   0  0  0  0  0  0  0  0  0  0  0  0
    7.6297    1.0810   29.2750 C   0  0  0  0  0  0  0  0  0  0  0  0
    8.1805    0.2633   28.0934 C   0  0  0  0  0  0  0  0  0  0  0  0
    8.9418   -0.4690   28.3933 H   0  0  0  0  0  0  0  0  0  0  0  0
    8.6391    0.9070   27.3290 H   0  0  0  0  0  0  0  0  0  0  0  0
    7.6440    0.4708   30.1876 H   0  0  0  0  0  0  0  0  0  0  0  0
    8.2412    1.9635   29.4869 H   0  0  0  0  0  0  0  0  0  0  0  0
    5.4812    1.0512   29.6700 H   0  0  0  0  0  0  0  0  0  0  0  0
    5.9959    2.5153   28.8477 H   0  0  0  0  0  0  0  0  0  0  0  0
    6.0585    1.4293   26.7046 H   0  0  0  0  0  0  0  0  0  0  0  0
    4.8562    0.3753   27.4631 H   0  0  0  0  0  0  0  0  0  0  0  0
    6.5790   -1.1796   28.2007 H   0  0  0  0  0  0  0  0  0  0  0  0
    6.9185   -2.3759   26.0916 N   0  0  0  0  0  0  0  0  0  0  0  0
    7.2434   -2.6218   24.8079 N   0  0  0  0  0  0  0  0  0  0  0  0
    7.2238   -3.9357   24.2886 C   0  0  0  0  0  0  0  0  0  0  0  0
    8.1450   -4.8896   24.7295 C   0  0  0  0  0  0  0  0  0  0  0  0
    8.2268   -6.0626   23.9885 C   0  0  0  0  0  0  0  0  0  0  0  0
    7.3595   -6.2742   22.9079 C   0  0  0  0  0  0  0  0  0  0  0  0
    6.4097   -5.3943   22.5581 N   0  0  0  0  0  0  0  0  0  0  0  0
    6.3359   -4.2541   23.2512 C   0  0  0  0  0  0  0  0  0  0  0  0
    5.5581   -3.5342   22.9748 H   0  0  0  0  0  0  0  0  0  0  0  0
    7.4362   -7.1851   22.3145 H   0  0  0  0  0  0  0  0  0  0  0  0
    8.9643   -6.8042   24.2480 H   0  0  0  0  0  0  0  0  0  0  0  0
    8.7882   -4.7149   25.5992 H   0  0  0  0  0  0  0  0  0  0  0  0
    8.4283   -2.3174   22.3945 H   0  0  0  0  0  0  0  0  0  0  0  0
    8.8823   -0.6429   22.7068 H   0  0  0  0  0  0  0  0  0  0  0  0
    6.5385    0.0899   22.2521 H   0  0  0  0  0  0  0  0  0  0  0  0
    6.0898   -1.5889   21.8456 H   0  0  0  0  0  0  0  0  0  0  0  0
    5.5131    0.6238   19.8351 C   0  0  0  0  0  0  0  0  0  0  0  0
    5.0408    0.5919   20.8150 H   0  0  0  0  0  0  0  0  0  0  0  0
    8.2130   -0.4811   18.0938 H   0  0  0  0  0  0  0  0  0  0  0  0
    5.1073    1.8725   16.6885 H   0  0  0  0  0  0  0  0  0  0  0  0
    3.9995    1.8768   18.9213 H   0  0  0  0  0  0  0  0  0  0  0  0
  1  2  2  0
  2  3  1  0
  3  4  2  0
  4  5  1  0
  5  6  1  0
  6  7  1  0
  7  8  1  0
  8  9  1  0
  9 10  2  0
 10 11  1  0
 11 12  1  0
 12 13  1  0
 13 14  1  0
 14 15  1  0
 15 16  1  0
 16 17  1  0
 16 18  1  0
 15 19  1  0
 15 20  1  0
 14 21  1  0
 14 22  1  0
 13 23  1  0
 13 24  1  0
 12 25  1  0
 11 26  2  0
 26 27  1  0
 27 28  1  0
 28 29  2  0
 29 30  1  0
 30 31  2  0
 31 32  1  0
 32 33  2  0
 33 34  1  0
 31 35  1  0
 30 36  1  0
 29 37  1  0
  8 38  1  0
  8 39  1  0
  7 40  1  0
  7 41  1  0
  5 42  2  0
 42 43  1  0
  4 44  1  0
  2 45  1  0
  1 46  1  0
 42  1  1  0
 27  9  1  0
 33 28  1  0
 16 12  1  0
M  END
>  <cnnaffinity>  (1) 
-5.80322

>  <filename>  (1) 
c1cncc(OCCc2nc(C3CCCC3)nn2-c2cccnc2)c1

$$$$
