
     RDKit          3D

 35 38  0  0  0  0  0  0  0  0999 V2000
    4.9099    1.7888   16.9888 H   0  0  0  0  0  0  0  0  0  0  0  0
    5.3928    1.3009   17.8282 C   0  0  0  0  0  0  0  0  0  0  0  0
    6.5592    0.6909   17.5548 N   0  0  0  0  0  0  0  0  0  0  0  0
    7.1630    0.0650   18.5697 C   0  0  0  0  0  0  0  0  0  0  0  0
    8.1198   -0.4096   18.3494 H   0  0  0  0  0  0  0  0  0  0  0  0
    6.6502    0.0093   19.8804 C   0  0  0  0  0  0  0  0  0  0  0  0
    7.3599   -0.6726   20.9607 C   0  0  0  0  0  0  0  0  0  0  0  0
    7.5309   -0.3205   22.2912 C   0  0  0  0  0  0  0  0  0  0  0  0
    7.1021    0.8656   22.8992 N   0  0  0  0  0  0  0  0  0  0  0  0
    6.9310    1.6445   22.2750 H   0  0  0  0  0  0  0  0  0  0  0  0
    7.0067    1.0750   24.2863 C   0  0  0  0  0  0  0  0  0  0  0  0
    6.4086    0.1389   25.1183 C   0  0  0  0  0  0  0  0  0  0  0  0
    6.0124   -0.7740   24.6768 H   0  0  0  0  0  0  0  0  0  0  0  0
    6.2604    0.2588   26.4685 N   0  0  0  0  0  0  0  0  0  0  0  0
    6.7268    1.3537   27.0299 C   0  0  0  0  0  0  0  0  0  0  0  0
    6.5977    1.4544   28.1050 H   0  0  0  0  0  0  0  0  0  0  0  0
    7.3773    2.4080   26.3162 C   0  0  0  0  0  0  0  0  0  0  0  0
    7.8665    3.5841   26.9645 C   0  0  0  0  0  0  0  0  0  0  0  0
    7.7305    3.6928   28.0391 H   0  0  0  0  0  0  0  0  0  0  0  0
    8.5041    4.5640   26.2402 C   0  0  0  0  0  0  0  0  0  0  0  0
    8.8767    5.4609   26.7319 H   0  0  0  0  0  0  0  0  0  0  0  0
    8.6872    4.4166   24.8353 C   0  0  0  0  0  0  0  0  0  0  0  0
    9.1953    5.1945   24.2680 H   0  0  0  0  0  0  0  0  0  0  0  0
    8.2221    3.2967   24.1835 C   0  0  0  0  0  0  0  0  0  0  0  0
    8.3798    3.1727   23.1140 H   0  0  0  0  0  0  0  0  0  0  0  0
    7.5382    2.2676   24.9003 C   0  0  0  0  0  0  0  0  0  0  0  0
    8.2843   -1.3849   22.8414 C   0  0  0  0  0  0  0  0  0  0  0  0
    8.6208   -1.4536   23.8625 H   0  0  0  0  0  0  0  0  0  0  0  0
    8.5668   -2.3219   21.9434 N   0  0  0  0  0  0  0  0  0  0  0  0
    8.0098   -1.8573   20.8162 N   0  0  0  0  0  0  0  0  0  0  0  0
    8.0659   -2.4009   19.9707 H   0  0  0  0  0  0  0  0  0  0  0  0
    5.4345    0.6617   20.1459 C   0  0  0  0  0  0  0  0  0  0  0  0
    5.0178    0.6230   21.1576 H   0  0  0  0  0  0  0  0  0  0  0  0
    4.7960    1.3173   19.0947 C   0  0  0  0  0  0  0  0  0  0  0  0
    3.8660    1.8480   19.2544 H   0  0  0  0  0  0  0  0  0  0  0  0
  1  2  1  0
  2  3  2  0
  3  4  1  0
  4  5  1  0
  4  6  2  0
  6  7  1  0
  7  8  2  0
  8  9  1  0
  9 10  1  0
  9 11  1  0
 11 12  2  0
 12 13  1  0
 12 14  1  0
 14 15  2  0
 15 16  1  0
 15 17  1  0
 17 18  2  0
 18 19  1  0
 18 20  1  0
 20 21  1  0
 20 22  2  0
 22 23  1  0
 22 24  1  0
 24 25  1  0
 24 26  2  0
  8 27  1  0
 27 28  1  0
 27 29  2  0
 29 30  1  0
 30 31  1  0
  6 32  1  0
 32 33  1  0
 32 34  2  0
 34 35  1  0
 34  2  1  0
 30  7  1  0
 26 11  1  0
 26 17  1  0
M  END
>  <cnnaffinity>  (1) 
-5.54017

>  <filename>  (1) 
c1cncc(-c2[nH]ncc2Nc2cncc3ccccc23)c1

$$$$
