
     RDKit          3D

 38 41  0  0  0  0  0  0  0  0999 V2000
    4.8218    1.3360   19.0565 C   0  0  0  0  0  0  0  0  0  0  0  0
    5.4354    1.2993   17.8017 C   0  0  0  0  0  0  0  0  0  0  0  0
    6.5790    0.6307   17.5666 N   0  0  0  0  0  0  0  0  0  0  0  0
    7.1570   -0.0010   18.5949 C   0  0  0  0  0  0  0  0  0  0  0  0
    6.6505    0.0349   19.9065 C   0  0  0  0  0  0  0  0  0  0  0  0
    7.3696   -0.6017   20.9620 N   0  0  0  0  0  0  0  0  0  0  0  0
    7.7565   -1.9013   20.8539 N   0  0  0  0  0  0  0  0  0  0  0  0
    8.2916   -2.1414   22.0372 C   0  0  0  0  0  0  0  0  0  0  0  0
    8.9352   -3.4160   22.4176 C   0  0  0  0  0  0  0  0  0  0  0  0
    8.2233   -4.7318   22.2605 C   0  0  0  0  0  0  0  0  0  0  0  0
    8.5258   -4.2036   23.6337 C   0  0  0  0  0  0  0  0  0  0  0  0
    9.3361   -4.6722   24.1876 H   0  0  0  0  0  0  0  0  0  0  0  0
    7.7033   -3.8537   24.2536 H   0  0  0  0  0  0  0  0  0  0  0  0
    7.1901   -4.6721   21.9199 H   0  0  0  0  0  0  0  0  0  0  0  0
    8.7711   -5.5907   21.8788 H   0  0  0  0  0  0  0  0  0  0  0  0
   10.0128   -3.3659   22.2747 H   0  0  0  0  0  0  0  0  0  0  0  0
    8.3149   -1.0855   22.8864 N   0  0  0  0  0  0  0  0  0  0  0  0
    7.7505   -0.1299   22.1866 C   0  0  0  0  0  0  0  0  0  0  0  0
    7.6842    1.2975   22.6107 C   0  0  0  0  0  0  0  0  0  0  0  0
    8.6357    2.2426   21.8325 C   0  0  0  0  0  0  0  0  0  0  0  0
    8.5017    3.6787   22.2629 C   0  0  0  0  0  0  0  0  0  0  0  0
    7.4612    4.4641   21.7806 C   0  0  0  0  0  0  0  0  0  0  0  0
    7.4560    5.7912   22.1717 C   0  0  0  0  0  0  0  0  0  0  0  0
    8.3728    6.3059   22.9997 N   0  0  0  0  0  0  0  0  0  0  0  0
    9.2984    5.4531   23.4428 C   0  0  0  0  0  0  0  0  0  0  0  0
    9.3843    4.1558   23.1485 N   0  0  0  0  0  0  0  0  0  0  0  0
   10.0787    5.8419   24.1071 H   0  0  0  0  0  0  0  0  0  0  0  0
    6.6969    6.4726   21.7788 H   0  0  0  0  0  0  0  0  0  0  0  0
    6.7007    4.0693   21.1163 H   0  0  0  0  0  0  0  0  0  0  0  0
    9.6760    1.9408   21.9857 H   0  0  0  0  0  0  0  0  0  0  0  0
    8.4298    2.1568   20.7585 H   0  0  0  0  0  0  0  0  0  0  0  0
    6.6497    1.6362   22.5140 H   0  0  0  0  0  0  0  0  0  0  0  0
    7.9292    1.3134   23.6755 H   0  0  0  0  0  0  0  0  0  0  0  0
    5.4375    0.6982   20.1388 C   0  0  0  0  0  0  0  0  0  0  0  0
    4.9733    0.6885   21.1261 H   0  0  0  0  0  0  0  0  0  0  0  0
    8.0665   -0.5598   18.3828 H   0  0  0  0  0  0  0  0  0  0  0  0
    4.9964    1.8217   16.9532 H   0  0  0  0  0  0  0  0  0  0  0  0
    3.8816    1.8611   19.1800 H   0  0  0  0  0  0  0  0  0  0  0  0
  1  2  2  0
  2  3  1  0
  3  4  2  0
  4  5  1  0
  5  6  1  0
  6  7  1  0
  7  8  2  0
  8  9  1  0
  9 10  1  0
 10 11  1  0
 11 12  1  0
 11 13  1  0
 10 14  1  0
 10 15  1  0
  9 16  1  0
  8 17  1  0
 17 18  2  0
 18 19  1  0
 19 20  1  0
 20 21  1  0
 21 22  2  0
 22 23  1  0
 23 24  2  0
 24 25  1  0
 25 26  2  0
 25 27  1  0
 23 28  1  0
 22 29  1  0
 20 30  1  0
 20 31  1  0
 19 32  1  0
 19 33  1  0
  5 34  2  0
 34 35  1  0
  4 36  1  0
  2 37  1  0
  1 38  1  0
 34  1  1  0
 18  6  1  0
 26 21  1  0
 11  9  1  0
M  END
>  <cnnaffinity>  (1) 
-5.6258

>  <filename>  (1) 
c1cncc(-n2nc(C3CC3)nc2CCc2ccncn2)c1

$$$$
