
     RDKit          3D

 41 44  0  0  0  0  0  0  0  0999 V2000
    4.8140    1.3087   19.1105 C   0  0  0  0  0  0  0  0  0  0  0  0
    5.3995    1.2956   17.8387 C   0  0  0  0  0  0  0  0  0  0  0  0
    6.5593    0.6726   17.5782 N   0  0  0  0  0  0  0  0  0  0  0  0
    7.1707    0.0527   18.5944 C   0  0  0  0  0  0  0  0  0  0  0  0
    6.6637    0.0088   19.9055 C   0  0  0  0  0  0  0  0  0  0  0  0
    7.3658   -0.6619   20.9468 N   0  0  0  0  0  0  0  0  0  0  0  0
    6.7333   -1.5943   21.7106 N   0  0  0  0  0  0  0  0  0  0  0  0
    7.6665   -1.9572   22.5674 C   0  0  0  0  0  0  0  0  0  0  0  0
    7.4646   -3.0161   23.5885 C   0  0  0  0  0  0  0  0  0  0  0  0
    8.4456   -4.1604   23.6684 C   0  0  0  0  0  0  0  0  0  0  0  0
    7.0550   -4.3960   23.1414 C   0  0  0  0  0  0  0  0  0  0  0  0
    6.9224   -4.5348   22.0672 H   0  0  0  0  0  0  0  0  0  0  0  0
    6.3420   -4.9457   23.7545 H   0  0  0  0  0  0  0  0  0  0  0  0
    9.2781   -4.1473   22.9622 H   0  0  0  0  0  0  0  0  0  0  0  0
    8.7115   -4.5479   24.6516 H   0  0  0  0  0  0  0  0  0  0  0  0
    7.0564   -2.6334   24.5250 H   0  0  0  0  0  0  0  0  0  0  0  0
    8.8467   -1.2916   22.4459 N   0  0  0  0  0  0  0  0  0  0  0  0
    8.6319   -0.4810   21.4293 C   0  0  0  0  0  0  0  0  0  0  0  0
    9.5338    0.5987   20.9418 C   0  0  0  0  0  0  0  0  0  0  0  0
    9.0587    2.0074   21.3429 C   0  0  0  0  0  0  0  0  0  0  0  0
    8.9780    2.2069   22.8689 C   0  0  0  0  0  0  0  0  0  0  0  0
   10.2527    2.0447   23.5503 N   0  0  0  0  0  0  0  0  0  0  0  0
   10.6414    0.9810   24.3305 C   0  0  0  0  0  0  0  0  0  0  0  0
   11.9583    1.1515   24.6855 C   0  0  0  0  0  0  0  0  0  0  0  0
   12.3968    2.3537   24.0562 C   0  0  0  0  0  0  0  0  0  0  0  0
   11.3256    2.8833   23.3972 C   0  0  0  0  0  0  0  0  0  0  0  0
   11.2363    3.7938   22.8136 H   0  0  0  0  0  0  0  0  0  0  0  0
   13.4045    2.7553   23.9907 H   0  0  0  0  0  0  0  0  0  0  0  0
   12.5415    0.4943   25.3255 H   0  0  0  0  0  0  0  0  0  0  0  0
    9.9529    0.1558   24.4862 H   0  0  0  0  0  0  0  0  0  0  0  0
    8.2857    1.4814   23.3081 H   0  0  0  0  0  0  0  0  0  0  0  0
    8.5948    3.2087   23.0914 H   0  0  0  0  0  0  0  0  0  0  0  0
    8.0746    2.2126   20.9003 H   0  0  0  0  0  0  0  0  0  0  0  0
    9.7503    2.7482   20.9287 H   0  0  0  0  0  0  0  0  0  0  0  0
   10.5304    0.4092   21.3505 H   0  0  0  0  0  0  0  0  0  0  0  0
    9.6030    0.5394   19.8541 H   0  0  0  0  0  0  0  0  0  0  0  0
    5.4434    0.6424   20.1651 C   0  0  0  0  0  0  0  0  0  0  0  0
    5.0203    0.6037   21.1708 H   0  0  0  0  0  0  0  0  0  0  0  0
    8.1145   -0.4387   18.3649 H   0  0  0  0  0  0  0  0  0  0  0  0
    4.9226    1.7882   16.9952 H   0  0  0  0  0  0  0  0  0  0  0  0
    3.8821    1.8377   19.2598 H   0  0  0  0  0  0  0  0  0  0  0  0
  1  2  2  0
  2  3  1  0
  3  4  2  0
  4  5  1  0
  5  6  1  0
  6  7  1  0
  7  8  2  0
  8  9  1  0
  9 10  1  0
 10 11  1  0
 11 12  1  0
 11 13  1  0
 10 14  1  0
 10 15  1  0
  9 16  1  0
  8 17  1  0
 17 18  2  0
 18 19  1  0
 19 20  1  0
 20 21  1  0
 21 22  1  0
 22 23  1  0
 23 24  2  0
 24 25  1  0
 25 26  2  0
 26 27  1  0
 25 28  1  0
 24 29  1  0
 23 30  1  0
 21 31  1  0
 21 32  1  0
 20 33  1  0
 20 34  1  0
 19 35  1  0
 19 36  1  0
  5 37  2  0
 37 38  1  0
  4 39  1  0
  2 40  1  0
  1 41  1  0
 37  1  1  0
 18  6  1  0
 26 22  1  0
 11  9  1  0
M  END
>  <cnnaffinity>  (1) 
-5.9077

>  <filename>  (1) 
c1cncc(-n2nc(C3CC3)nc2CCCn2cccc2)c1

$$$$
