
     RDKit          3D

 25 27  0  0  0  0  0  0  0  0999 V2000
    8.8456   -3.2086   22.2056 H   0  0  0  0  0  0  0  0  0  0  0  0
    8.3474   -2.2932   21.9153 C   0  0  0  0  0  0  0  0  0  0  0  0
    7.9405   -1.9553   20.7419 N   0  0  0  0  0  0  0  0  0  0  0  0
    7.3630   -0.7140   20.9366 C   0  0  0  0  0  0  0  0  0  0  0  0
    6.6469   -0.0015   19.8888 C   0  0  0  0  0  0  0  0  0  0  0  0
    7.1685    0.0439   18.5875 C   0  0  0  0  0  0  0  0  0  0  0  0
    8.1203   -0.4356   18.3711 H   0  0  0  0  0  0  0  0  0  0  0  0
    6.5711    0.6759   17.5753 N   0  0  0  0  0  0  0  0  0  0  0  0
    5.4069    1.2930   17.8390 C   0  0  0  0  0  0  0  0  0  0  0  0
    4.9215    1.7803   16.9980 H   0  0  0  0  0  0  0  0  0  0  0  0
    4.8021    1.3102   19.1023 C   0  0  0  0  0  0  0  0  0  0  0  0
    3.8707    1.8453   19.2574 H   0  0  0  0  0  0  0  0  0  0  0  0
    5.4284    0.6460   20.1504 C   0  0  0  0  0  0  0  0  0  0  0  0
    5.0016    0.6329   21.1585 H   0  0  0  0  0  0  0  0  0  0  0  0
    7.5165   -0.3531   22.2506 C   0  0  0  0  0  0  0  0  0  0  0  0
    7.2084    0.8846   22.9539 C   0  0  0  0  0  0  0  0  0  0  0  0
    6.7821    0.8993   24.2989 C   0  0  0  0  0  0  0  0  0  0  0  0
    6.6915   -0.0195   24.8654 H   0  0  0  0  0  0  0  0  0  0  0  0
    6.4519    2.0207   24.9429 N   0  0  0  0  0  0  0  0  0  0  0  0
    6.5251    3.2028   24.3192 N   0  0  0  0  0  0  0  0  0  0  0  0
    6.9256    3.2535   23.0431 C   0  0  0  0  0  0  0  0  0  0  0  0
    6.9627    4.2403   22.6000 H   0  0  0  0  0  0  0  0  0  0  0  0
    7.2823    2.1186   22.3089 C   0  0  0  0  0  0  0  0  0  0  0  0
    7.5971    2.2109   21.2705 H   0  0  0  0  0  0  0  0  0  0  0  0
    8.1276   -1.3899   22.8910 O   0  0  0  0  0  0  0  0  0  0  0  0
  1  2  1  0
  2  3  2  0
  3  4  1  0
  4  5  1  0
  5  6  2  0
  6  7  1  0
  6  8  1  0
  8  9  2  0
  9 10  1  0
  9 11  1  0
 11 12  1  0
 11 13  2  0
 13 14  1  0
  4 15  2  0
 15 16  1  0
 16 17  2  0
 17 18  1  0
 17 19  1  0
 19 20  2  0
 20 21  1  0
 21 22  1  0
 21 23  2  0
 23 24  1  0
 15 25  1  0
 25  2  1  0
 13  5  1  0
 23 16  1  0
M  END
>  <cnnaffinity>  (1) 
-4.7427

>  <filename>  (1) 
c1cncc(-c2ncoc2-c2ccnnc2)c1

$$$$
