
     RDKit          3D

 31 33  0  0  0  0  0  0  0  0999 V2000
    4.9260    1.7815   16.9945 H   0  0  0  0  0  0  0  0  0  0  0  0
    5.4051    1.2893   17.8387 C   0  0  0  0  0  0  0  0  0  0  0  0
    6.5730    0.6721   17.5899 N   0  0  0  0  0  0  0  0  0  0  0  0
    7.1806    0.0515   18.6036 C   0  0  0  0  0  0  0  0  0  0  0  0
    8.1255   -0.4363   18.3761 H   0  0  0  0  0  0  0  0  0  0  0  0
    6.6524    0.0128   19.9080 C   0  0  0  0  0  0  0  0  0  0  0  0
    7.3588   -0.6408   20.9629 N   0  0  0  0  0  0  0  0  0  0  0  0
    8.0964   -1.7584   20.7127 N   0  0  0  0  0  0  0  0  0  0  0  0
    8.6134   -2.1620   21.8199 N   0  0  0  0  0  0  0  0  0  0  0  0
    8.2397   -1.3262   22.8293 C   0  0  0  0  0  0  0  0  0  0  0  0
    8.5548   -1.4622   23.8544 H   0  0  0  0  0  0  0  0  0  0  0  0
    7.4368   -0.3480   22.2945 C   0  0  0  0  0  0  0  0  0  0  0  0
    6.7812    0.7045   22.8026 O   0  0  0  0  0  0  0  0  0  0  0  0
    6.9988    1.0481   24.1938 C   0  0  0  0  0  0  0  0  0  0  0  0
    6.8229    0.1552   24.8050 H   0  0  0  0  0  0  0  0  0  0  0  0
    6.0192    2.1457   24.5887 C   0  0  0  0  0  0  0  0  0  0  0  0
    5.0333    1.7446   24.8451 H   0  0  0  0  0  0  0  0  0  0  0  0
    5.8796    2.8200   23.7362 H   0  0  0  0  0  0  0  0  0  0  0  0
    6.6817    2.8779   25.7666 C   0  0  0  0  0  0  0  0  0  0  0  0
    6.3663    3.9244   25.8284 H   0  0  0  0  0  0  0  0  0  0  0  0
    6.3972    2.4184   26.7208 H   0  0  0  0  0  0  0  0  0  0  0  0
    8.2061    2.7417   25.5380 C   0  0  0  0  0  0  0  0  0  0  0  0
    8.7246    2.5174   26.4757 H   0  0  0  0  0  0  0  0  0  0  0  0
    8.6359    3.6805   25.1726 H   0  0  0  0  0  0  0  0  0  0  0  0
    8.3964    1.6195   24.4865 C   0  0  0  0  0  0  0  0  0  0  0  0
    8.8176    2.0230   23.5623 H   0  0  0  0  0  0  0  0  0  0  0  0
    9.0888    0.8439   24.8322 H   0  0  0  0  0  0  0  0  0  0  0  0
    5.4299    0.6434   20.1635 C   0  0  0  0  0  0  0  0  0  0  0  0
    5.0092    0.6371   21.1688 H   0  0  0  0  0  0  0  0  0  0  0  0
    4.8053    1.2992   19.1021 C   0  0  0  0  0  0  0  0  0  0  0  0
    3.8780    1.8375   19.2573 H   0  0  0  0  0  0  0  0  0  0  0  0
  1  2  1  0
  2  3  2  0
  3  4  1  0
  4  5  1  0
  4  6  2  0
  6  7  1  0
  7  8  1  0
  8  9  2  0
  9 10  1  0
 10 11  1  0
 10 12  2  0
 12 13  1  0
 13 14  1  0
 14 15  1  0
 14 16  1  0
 16 17  1  0
 16 18  1  0
 16 19  1  0
 19 20  1  0
 19 21  1  0
 19 22  1  0
 22 23  1  0
 22 24  1  0
 22 25  1  0
 25 26  1  0
 25 27  1  0
  6 28  1  0
 28 29  1  0
 28 30  2  0
 30 31  1  0
 30  2  1  0
 12  7  1  0
 25 14  1  0
M  END
>  <cnnaffinity>  (1) 
-4.90499

>  <filename>  (1) 
c1cncc(-n2nncc2OC2CCCC2)c1

$$$$
