
     RDKit          3D

 29 31  0  0  0  0  0  0  0  0999 V2000
    4.9240    1.8083   16.9619 H   0  0  0  0  0  0  0  0  0  0  0  0
    5.3868    1.3085   17.8138 C   0  0  0  0  0  0  0  0  0  0  0  0
    6.5474    0.6844   17.5629 N   0  0  0  0  0  0  0  0  0  0  0  0
    7.1426    0.0655   18.5934 C   0  0  0  0  0  0  0  0  0  0  0  0
    8.0868   -0.4253   18.3628 H   0  0  0  0  0  0  0  0  0  0  0  0
    6.6228    0.0036   19.8994 C   0  0  0  0  0  0  0  0  0  0  0  0
    7.3465   -0.7140   20.9618 C   0  0  0  0  0  0  0  0  0  0  0  0
    8.6845   -0.7172   21.2893 C   0  0  0  0  0  0  0  0  0  0  0  0
    9.7938    0.0581   20.6387 C   0  0  0  0  0  0  0  0  0  0  0  0
    9.3959    0.9214   20.0945 H   0  0  0  0  0  0  0  0  0  0  0  0
   10.2620   -0.5959   19.9048 H   0  0  0  0  0  0  0  0  0  0  0  0
   10.8347    0.5183   21.5436 N   0  0  0  0  0  0  0  0  0  0  0  0
   12.0129   -0.1281   21.8226 C   0  0  0  0  0  0  0  0  0  0  0  0
   12.2894   -1.0153   21.2672 H   0  0  0  0  0  0  0  0  0  0  0  0
   12.6535    0.5454   22.8328 C   0  0  0  0  0  0  0  0  0  0  0  0
   13.6203    0.2836   23.2527 H   0  0  0  0  0  0  0  0  0  0  0  0
   11.8223    1.6461   23.1910 C   0  0  0  0  0  0  0  0  0  0  0  0
   12.0015    2.3972   23.9542 H   0  0  0  0  0  0  0  0  0  0  0  0
   10.7166    1.5973   22.3810 C   0  0  0  0  0  0  0  0  0  0  0  0
    9.8241    2.2079   22.3323 H   0  0  0  0  0  0  0  0  0  0  0  0
    8.8003   -1.6009   22.3806 C   0  0  0  0  0  0  0  0  0  0  0  0
    9.6981   -1.8817   22.9225 H   0  0  0  0  0  0  0  0  0  0  0  0
    7.6207   -2.0884   22.7380 N   0  0  0  0  0  0  0  0  0  0  0  0
    6.7534   -1.5209   21.8798 N   0  0  0  0  0  0  0  0  0  0  0  0
    5.7669   -1.7383   21.9506 H   0  0  0  0  0  0  0  0  0  0  0  0
    5.4045    0.6614   20.1375 C   0  0  0  0  0  0  0  0  0  0  0  0
    4.9801    0.6664   21.1429 H   0  0  0  0  0  0  0  0  0  0  0  0
    4.7855    1.3271   19.0781 C   0  0  0  0  0  0  0  0  0  0  0  0
    3.8560    1.8634   19.2217 H   0  0  0  0  0  0  0  0  0  0  0  0
  1  2  1  0
  2  3  2  0
  3  4  1  0
  4  5  1  0
  4  6  2  0
  6  7  1  0
  7  8  2  0
  8  9  1  0
  9 10  1  0
  9 11  1  0
  9 12  1  0
 12 13  1  0
 13 14  1  0
 13 15  2  0
 15 16  1  0
 15 17  1  0
 17 18  1  0
 17 19  2  0
 19 20  1  0
  8 21  1  0
 21 22  1  0
 21 23  2  0
 23 24  1  0
 24 25  1  0
  6 26  1  0
 26 27  1  0
 26 28  2  0
 28 29  1  0
 28  2  1  0
 24  7  1  0
 19 12  1  0
M  END
>  <cnnaffinity>  (1) 
-5.08127

>  <filename>  (1) 
c1cncc(-c2[nH]ncc2Cn2cccc2)c1

$$$$
