
     RDKit          3D

 38 40  0  0  0  0  0  0  0  0999 V2000
    5.0459    1.8103   16.9630 H   0  0  0  0  0  0  0  0  0  0  0  0
    5.4881    1.2821   17.8029 C   0  0  0  0  0  0  0  0  0  0  0  0
    6.6418    0.6385   17.5571 N   0  0  0  0  0  0  0  0  0  0  0  0
    7.2185   -0.0169   18.5649 C   0  0  0  0  0  0  0  0  0  0  0  0
    8.1359   -0.5701   18.3537 H   0  0  0  0  0  0  0  0  0  0  0  0
    6.6842   -0.0276   19.8671 C   0  0  0  0  0  0  0  0  0  0  0  0
    7.3723   -0.7268   20.9062 N   0  0  0  0  0  0  0  0  0  0  0  0
    7.8742   -1.9633   20.6972 N   0  0  0  0  0  0  0  0  0  0  0  0
    8.3419   -2.3715   21.8114 N   0  0  0  0  0  0  0  0  0  0  0  0
    8.1746   -1.4503   22.7837 N   0  0  0  0  0  0  0  0  0  0  0  0
    7.5878   -0.4187   22.2135 C   0  0  0  0  0  0  0  0  0  0  0  0
    7.1420    1.1156   22.9979 S   0  0  0  0  0  0  0  0  0  0  0  0
    8.3522    2.2278   22.5656 N   0  0  0  0  0  0  0  0  0  0  0  0
    8.3490    2.5243   21.5937 H   0  0  0  0  0  0  0  0  0  0  0  0
    9.6562    2.0412   23.2145 C   0  0  0  0  0  0  0  0  0  0  0  0
    9.5053    2.1722   24.2958 H   0  0  0  0  0  0  0  0  0  0  0  0
    9.9799    0.9951   23.0988 H   0  0  0  0  0  0  0  0  0  0  0  0
   10.8130    2.9454   22.7415 C   0  0  0  0  0  0  0  0  0  0  0  0
   11.0220    2.6920   21.6912 H   0  0  0  0  0  0  0  0  0  0  0  0
   11.7031    2.6163   23.3138 H   0  0  0  0  0  0  0  0  0  0  0  0
   10.6045    4.3901   22.8192 N   0  0  0  0  0  0  0  0  0  0  0  0
   10.0614    4.8887   24.0944 C   0  0  0  0  0  0  0  0  0  0  0  0
   10.5203    4.3882   24.9662 H   0  0  0  0  0  0  0  0  0  0  0  0
    8.9818    4.6893   24.1243 H   0  0  0  0  0  0  0  0  0  0  0  0
   10.2938    6.3960   24.2336 C   0  0  0  0  0  0  0  0  0  0  0  0
    9.7899    6.9085   23.4000 H   0  0  0  0  0  0  0  0  0  0  0  0
    9.8730    6.7735   25.1681 H   0  0  0  0  0  0  0  0  0  0  0  0
   11.6790    6.7413   24.2358 O   0  0  0  0  0  0  0  0  0  0  0  0
   12.4851    5.9423   23.3656 C   0  0  0  0  0  0  0  0  0  0  0  0
   13.0132    5.1777   23.9545 H   0  0  0  0  0  0  0  0  0  0  0  0
   13.2371    6.5993   22.9225 H   0  0  0  0  0  0  0  0  0  0  0  0
   11.6862    5.2280   22.2641 C   0  0  0  0  0  0  0  0  0  0  0  0
   11.2464    5.9861   21.5974 H   0  0  0  0  0  0  0  0  0  0  0  0
   12.3771    4.6338   21.6534 H   0  0  0  0  0  0  0  0  0  0  0  0
    5.4628    0.6033   20.1158 C   0  0  0  0  0  0  0  0  0  0  0  0
    4.9892    0.5556   21.0985 H   0  0  0  0  0  0  0  0  0  0  0  0
    4.8555    1.2783   19.0530 C   0  0  0  0  0  0  0  0  0  0  0  0
    3.9130    1.8028   19.1833 H   0  0  0  0  0  0  0  0  0  0  0  0
  1  2  1  0
  2  3  2  0
  3  4  1  0
  4  5  1  0
  4  6  2  0
  6  7  1  0
  7  8  1  0
  8  9  2  0
  9 10  1  0
 10 11  2  0
 11 12  1  0
 12 13  1  0
 13 14  1  0
 13 15  1  0
 15 16  1  0
 15 17  1  0
 15 18  1  0
 18 19  1  0
 18 20  1  0
 18 21  1  0
 21 22  1  0
 22 23  1  0
 22 24  1  0
 22 25  1  0
 25 26  1  0
 25 27  1  0
 25 28  1  0
 28 29  1  0
 29 30  1  0
 29 31  1  0
 29 32  1  0
 32 33  1  0
 32 34  1  0
  6 35  1  0
 35 36  1  0
 35 37  2  0
 37 38  1  0
 37  2  1  0
 11  7  1  0
 32 21  1  0
M  END
>  <cnnaffinity>  (1) 
-4.72036

>  <filename>  (1) 
c1cncc(-n2nnnc2SNCCN2CCOCC2)c1

$$$$
