
     RDKit          3D

 36 38  0  0  0  0  0  0  0  0999 V2000
    4.9245    1.7755   16.9975 H   0  0  0  0  0  0  0  0  0  0  0  0
    5.4060    1.2872   17.8428 C   0  0  0  0  0  0  0  0  0  0  0  0
    6.5731    0.6752   17.5947 N   0  0  0  0  0  0  0  0  0  0  0  0
    7.1841    0.0817   18.6264 C   0  0  0  0  0  0  0  0  0  0  0  0
    8.1216   -0.4201   18.3948 H   0  0  0  0  0  0  0  0  0  0  0  0
    6.6640    0.0214   19.9231 C   0  0  0  0  0  0  0  0  0  0  0  0
    7.4309   -0.7006   20.9828 C   0  0  0  0  0  0  0  0  0  0  0  0
    8.5947   -0.0039   21.4735 N   0  0  0  0  0  0  0  0  0  0  0  0
    9.0347   -0.5908   22.1750 H   0  0  0  0  0  0  0  0  0  0  0  0
    8.3592    1.3114   22.0718 C   0  0  0  0  0  0  0  0  0  0  0  0
    7.7723    1.8826   21.3441 H   0  0  0  0  0  0  0  0  0  0  0  0
    7.5701    1.2508   23.3939 C   0  0  0  0  0  0  0  0  0  0  0  0
    6.6002    0.7683   23.2254 H   0  0  0  0  0  0  0  0  0  0  0  0
    8.1184    0.6077   24.0967 H   0  0  0  0  0  0  0  0  0  0  0  0
    7.3702    2.6389   24.0173 C   0  0  0  0  0  0  0  0  0  0  0  0
    6.7158    3.2318   23.3634 H   0  0  0  0  0  0  0  0  0  0  0  0
    6.8456    2.5521   24.9768 H   0  0  0  0  0  0  0  0  0  0  0  0
    8.7042    3.3754   24.1984 C   0  0  0  0  0  0  0  0  0  0  0  0
    9.3073    2.8404   24.9441 H   0  0  0  0  0  0  0  0  0  0  0  0
    8.5334    4.3814   24.6026 H   0  0  0  0  0  0  0  0  0  0  0  0
    9.4907    3.4476   22.8818 C   0  0  0  0  0  0  0  0  0  0  0  0
    8.9403    4.0823   22.1732 H   0  0  0  0  0  0  0  0  0  0  0  0
   10.4584    3.9401   23.0389 H   0  0  0  0  0  0  0  0  0  0  0  0
    9.6904    2.0525   22.2622 C   0  0  0  0  0  0  0  0  0  0  0  0
   10.2058    2.1273   21.2982 H   0  0  0  0  0  0  0  0  0  0  0  0
   10.3381    1.4547   22.9191 H   0  0  0  0  0  0  0  0  0  0  0  0
    7.5782   -2.1781   20.8140 C   0  0  0  0  0  0  0  0  0  0  0  0
    8.5297   -2.6474   21.0537 H   0  0  0  0  0  0  0  0  0  0  0  0
    7.0352   -2.6074   19.9817 H   0  0  0  0  0  0  0  0  0  0  0  0
    6.7007   -1.6478   21.9000 C   0  0  0  0  0  0  0  0  0  0  0  0
    7.0577   -1.7531   22.9181 H   0  0  0  0  0  0  0  0  0  0  0  0
    5.6284   -1.7600   21.7681 H   0  0  0  0  0  0  0  0  0  0  0  0
    5.4381    0.6580   20.1644 C   0  0  0  0  0  0  0  0  0  0  0  0
    5.0038    0.6266   21.1651 H   0  0  0  0  0  0  0  0  0  0  0  0
    4.8063    1.3081   19.1087 C   0  0  0  0  0  0  0  0  0  0  0  0
    3.8734    1.8413   19.2561 H   0  0  0  0  0  0  0  0  0  0  0  0
  1  2  1  0
  2  3  2  0
  3  4  1  0
  4  5  1  0
  4  6  2  0
  6  7  1  0
  7  8  1  0
  8  9  1  0
  8 10  1  0
 10 11  1  0
 10 12  1  0
 12 13  1  0
 12 14  1  0
 12 15  1  0
 15 16  1  0
 15 17  1  0
 15 18  1  0
 18 19  1  0
 18 20  1  0
 18 21  1  0
 21 22  1  0
 21 23  1  0
 21 24  1  0
 24 25  1  0
 24 26  1  0
  7 27  1  0
 27 28  1  0
 27 29  1  0
 27 30  1  0
 30 31  1  0
 30 32  1  0
  6 33  1  0
 33 34  1  0
 33 35  2  0
 35 36  1  0
 35  2  1  0
 30  7  1  0
 24 10  1  0
M  END
>  <cnnaffinity>  (1) 
-4.12501

>  <filename>  (1) 
c1cncc(C2(NC3CCCCC3)CC2)c1

$$$$
