
     RDKit          3D

 30 33  0  0  0  0  0  0  0  0999 V2000
    4.9289    1.8313   16.9872 H   0  0  0  0  0  0  0  0  0  0  0  0
    5.3974    1.3091   17.8179 C   0  0  0  0  0  0  0  0  0  0  0  0
    6.5456    0.6697   17.5482 N   0  0  0  0  0  0  0  0  0  0  0  0
    7.1597    0.0370   18.5507 C   0  0  0  0  0  0  0  0  0  0  0  0
    8.0882   -0.4705   18.2959 H   0  0  0  0  0  0  0  0  0  0  0  0
    6.6658    0.0022   19.8649 C   0  0  0  0  0  0  0  0  0  0  0  0
    7.3762   -0.6732   20.8965 N   0  0  0  0  0  0  0  0  0  0  0  0
    6.7578   -1.0374   22.0414 N   0  0  0  0  0  0  0  0  0  0  0  0
    7.7304   -1.5940   22.7442 C   0  0  0  0  0  0  0  0  0  0  0  0
    7.5864   -2.1712   24.0789 C   0  0  0  0  0  0  0  0  0  0  0  0
    6.3598   -2.1466   24.7009 O   0  0  0  0  0  0  0  0  0  0  0  0
    6.5150   -2.8428   25.8611 C   0  0  0  0  0  0  0  0  0  0  0  0
    5.5335   -3.0579   26.8327 C   0  0  0  0  0  0  0  0  0  0  0  0
    4.5537   -2.6093   26.7251 H   0  0  0  0  0  0  0  0  0  0  0  0
    5.8792   -3.8680   27.9173 C   0  0  0  0  0  0  0  0  0  0  0  0
    5.1439   -4.0659   28.6998 H   0  0  0  0  0  0  0  0  0  0  0  0
    7.1818   -4.4083   28.0397 C   0  0  0  0  0  0  0  0  0  0  0  0
    7.3981   -5.0776   28.8726 H   0  0  0  0  0  0  0  0  0  0  0  0
    8.1876   -4.0677   27.1380 C   0  0  0  0  0  0  0  0  0  0  0  0
    9.2157   -4.3853   27.3058 H   0  0  0  0  0  0  0  0  0  0  0  0
    7.8399   -3.2984   26.0007 C   0  0  0  0  0  0  0  0  0  0  0  0
    8.5167   -2.8250   24.8250 C   0  0  0  0  0  0  0  0  0  0  0  0
    9.5577   -2.9257   24.5441 H   0  0  0  0  0  0  0  0  0  0  0  0
    8.9425   -1.6171   22.1080 N   0  0  0  0  0  0  0  0  0  0  0  0
    8.6881   -1.0263   20.9713 C   0  0  0  0  0  0  0  0  0  0  0  0
    9.3968   -0.8078   20.1830 H   0  0  0  0  0  0  0  0  0  0  0  0
    5.4536    0.6540   20.1358 C   0  0  0  0  0  0  0  0  0  0  0  0
    5.0468    0.6229   21.1467 H   0  0  0  0  0  0  0  0  0  0  0  0
    4.8097    1.3179   19.0893 C   0  0  0  0  0  0  0  0  0  0  0  0
    3.8737    1.8431   19.2510 H   0  0  0  0  0  0  0  0  0  0  0  0
  1  2  1  0
  2  3  2  0
  3  4  1  0
  4  5  1  0
  4  6  2  0
  6  7  1  0
  7  8  1  0
  8  9  2  0
  9 10  1  0
 10 11  1  0
 11 12  1  0
 12 13  2  0
 13 14  1  0
 13 15  1  0
 15 16  1  0
 15 17  2  0
 17 18  1  0
 17 19  1  0
 19 20  1  0
 19 21  2  0
 21 22  1  0
 22 23  1  0
  9 24  1  0
 24 25  2  0
 25 26  1  0
  6 27  1  0
 27 28  1  0
 27 29  2  0
 29 30  1  0
 29  2  1  0
 25  7  1  0
 22 10  2  0
 21 12  1  0
M  END
>  <cnnaffinity>  (1) 
-4.99677

>  <filename>  (1) 
c1cncc(-n2cnc(-c3cc4ccccc4o3)n2)c1

$$$$
