
     RDKit          3D

 32 33  0  0  0  0  0  0  0  0999 V2000
    5.1267    1.9548   16.7628 H   0  0  0  0  0  0  0  0  0  0  0  0
    5.4136    1.3841   17.6428 C   0  0  0  0  0  0  0  0  0  0  0  0
    6.5149    0.6207   17.5191 N   0  0  0  0  0  0  0  0  0  0  0  0
    6.8977   -0.0796   18.5924 C   0  0  0  0  0  0  0  0  0  0  0  0
    7.7716   -0.7273   18.4825 H   0  0  0  0  0  0  0  0  0  0  0  0
    6.2220   -0.0603   19.8154 C   0  0  0  0  0  0  0  0  0  0  0  0
    6.9418   -0.9509   21.2124 S   0  0  0  0  0  0  0  0  0  0  0  0
    7.8705    0.3278   21.9271 N   0  0  0  0  0  0  0  0  0  0  0  0
    7.2941    1.1757   21.9653 H   0  0  0  0  0  0  0  0  0  0  0  0
    9.2132    0.6684   21.4317 N   0  0  0  0  0  0  0  0  0  0  0  0
    9.3223    0.2421   20.5032 H   0  0  0  0  0  0  0  0  0  0  0  0
   10.2756    0.1084   22.2942 C   0  0  0  0  0  0  0  0  0  0  0  0
    9.9225   -0.8419   22.7377 H   0  0  0  0  0  0  0  0  0  0  0  0
   11.5101   -0.1599   21.4083 C   0  0  0  0  0  0  0  0  0  0  0  0
   11.7342    0.7857   20.8897 H   0  0  0  0  0  0  0  0  0  0  0  0
   11.2544   -0.8987   20.6397 H   0  0  0  0  0  0  0  0  0  0  0  0
   12.7528   -0.6143   22.1946 C   0  0  0  0  0  0  0  0  0  0  0  0
   12.5757   -1.6160   22.6089 H   0  0  0  0  0  0  0  0  0  0  0  0
   13.6209   -0.7212   21.5318 H   0  0  0  0  0  0  0  0  0  0  0  0
   13.0550    0.3818   23.3217 C   0  0  0  0  0  0  0  0  0  0  0  0
   13.9521    0.0988   23.8784 H   0  0  0  0  0  0  0  0  0  0  0  0
   13.2670    1.3578   22.8596 H   0  0  0  0  0  0  0  0  0  0  0  0
   11.8417    0.5525   24.2457 C   0  0  0  0  0  0  0  0  0  0  0  0
   11.5969   -0.4226   24.6941 H   0  0  0  0  0  0  0  0  0  0  0  0
   12.0700    1.2379   25.0684 H   0  0  0  0  0  0  0  0  0  0  0  0
   10.6412    1.0787   23.4372 C   0  0  0  0  0  0  0  0  0  0  0  0
    9.7601    1.2622   24.0657 H   0  0  0  0  0  0  0  0  0  0  0  0
   10.9094    2.0460   22.9821 H   0  0  0  0  0  0  0  0  0  0  0  0
    5.0566    0.7135   19.9307 C   0  0  0  0  0  0  0  0  0  0  0  0
    4.4881    0.7252   20.8615 H   0  0  0  0  0  0  0  0  0  0  0  0
    4.6536    1.4498   18.8154 C   0  0  0  0  0  0  0  0  0  0  0  0
    3.7673    2.0760   18.8407 H   0  0  0  0  0  0  0  0  0  0  0  0
  1  2  1  0
  2  3  2  0
  3  4  1  0
  4  5  1  0
  4  6  2  0
  6  7  1  0
  7  8  1  0
  8  9  1  0
  8 10  1  0
 10 11  1  0
 10 12  1  0
 12 13  1  0
 12 14  1  0
 14 15  1  0
 14 16  1  0
 14 17  1  0
 17 18  1  0
 17 19  1  0
 17 20  1  0
 20 21  1  0
 20 22  1  0
 20 23  1  0
 23 24  1  0
 23 25  1  0
 23 26  1  0
 26 27  1  0
 26 28  1  0
  6 29  1  0
 29 30  1  0
 29 31  2  0
 31 32  1  0
 31  2  1  0
 26 12  1  0
M  END
>  <cnnaffinity>  (1) 
-4.3904

>  <filename>  (1) 
c1cncc(SNNC2CCCCC2)c1

$$$$
