
     RDKit          3D

 45 49  0  0  0  0  0  0  0  0999 V2000
    4.8127    1.3658   19.0390 C   0  0  0  0  0  0  0  0  0  0  0  0
    5.4171    1.3115   17.7814 C   0  0  0  0  0  0  0  0  0  0  0  0
    6.5449    0.6194   17.5409 N   0  0  0  0  0  0  0  0  0  0  0  0
    7.1161   -0.0266   18.5624 C   0  0  0  0  0  0  0  0  0  0  0  0
    6.6244    0.0297   19.8796 C   0  0  0  0  0  0  0  0  0  0  0  0
    7.3427   -0.5941   20.9427 N   0  0  0  0  0  0  0  0  0  0  0  0
    7.6135   -1.9222   20.8967 N   0  0  0  0  0  0  0  0  0  0  0  0
    8.2693   -2.1392   22.0249 C   0  0  0  0  0  0  0  0  0  0  0  0
    8.7964   -3.4884   22.4483 C   0  0  0  0  0  0  0  0  0  0  0  0
    8.7692   -3.7900   23.9650 C   0  0  0  0  0  0  0  0  0  0  0  0
    8.7757   -5.3324   24.0970 C   0  0  0  0  0  0  0  0  0  0  0  0
    8.4100   -5.9043   22.7051 C   0  0  0  0  0  0  0  0  0  0  0  0
    8.0530   -4.6953   21.8276 C   0  0  0  0  0  0  0  0  0  0  0  0
    8.3091   -4.8479   20.7741 H   0  0  0  0  0  0  0  0  0  0  0  0
    6.9700   -4.5189   21.8754 H   0  0  0  0  0  0  0  0  0  0  0  0
    7.5837   -6.6220   22.7589 H   0  0  0  0  0  0  0  0  0  0  0  0
    9.2400   -6.4649   22.2649 H   0  0  0  0  0  0  0  0  0  0  0  0
    8.0417   -5.6350   24.8536 H   0  0  0  0  0  0  0  0  0  0  0  0
    9.7570   -5.7070   24.4218 H   0  0  0  0  0  0  0  0  0  0  0  0
    9.6363   -3.3467   24.4689 H   0  0  0  0  0  0  0  0  0  0  0  0
    7.8603   -3.3657   24.4112 H   0  0  0  0  0  0  0  0  0  0  0  0
    9.8560   -3.4472   22.1667 H   0  0  0  0  0  0  0  0  0  0  0  0
    8.4786   -1.0226   22.7694 N   0  0  0  0  0  0  0  0  0  0  0  0
    7.8773   -0.0709   22.0837 C   0  0  0  0  0  0  0  0  0  0  0  0
    7.7805    1.3523   22.5494 C   0  0  0  0  0  0  0  0  0  0  0  0
    6.5954    1.6036   23.4788 C   0  0  0  0  0  0  0  0  0  0  0  0
    5.5805    2.5382   23.1226 C   0  0  0  0  0  0  0  0  0  0  0  0
    4.4899    2.8060   23.9465 C   0  0  0  0  0  0  0  0  0  0  0  0
    4.4303    2.0957   25.1677 C   0  0  0  0  0  0  0  0  0  0  0  0
    3.5774    2.0393   26.2263 N   0  0  0  0  0  0  0  0  0  0  0  0
    3.9967    1.1422   27.1470 N   0  0  0  0  0  0  0  0  0  0  0  0
    5.0877    0.6101   26.7386 N   0  0  0  0  0  0  0  0  0  0  0  0
    5.4112    1.1638   25.5191 C   0  0  0  0  0  0  0  0  0  0  0  0
    6.5036    0.9028   24.6778 C   0  0  0  0  0  0  0  0  0  0  0  0
    7.2177    0.1431   24.9802 H   0  0  0  0  0  0  0  0  0  0  0  0
    2.7370    2.5623   26.4037 H   0  0  0  0  0  0  0  0  0  0  0  0
    3.7298    3.5208   23.6528 H   0  0  0  0  0  0  0  0  0  0  0  0
    5.6549    3.0541   22.1633 H   0  0  0  0  0  0  0  0  0  0  0  0
    8.7157    1.5636   23.0828 H   0  0  0  0  0  0  0  0  0  0  0  0
    7.7581    2.0321   21.6933 H   0  0  0  0  0  0  0  0  0  0  0  0
    5.4315    0.7220   20.1153 C   0  0  0  0  0  0  0  0  0  0  0  0
    4.9960    0.7499   21.1118 H   0  0  0  0  0  0  0  0  0  0  0  0
    8.0122   -0.5987   18.3318 H   0  0  0  0  0  0  0  0  0  0  0  0
    4.9714    1.8270   16.9320 H   0  0  0  0  0  0  0  0  0  0  0  0
    3.8749    1.8972   19.1622 H   0  0  0  0  0  0  0  0  0  0  0  0
  1  2  2  0
  2  3  1  0
  3  4  2  0
  4  5  1  0
  5  6  1  0
  6  7  1  0
  7  8  2  0
  8  9  1  0
  9 10  1  0
 10 11  1  0
 11 12  1  0
 12 13  1  0
 13 14  1  0
 13 15  1  0
 12 16  1  0
 12 17  1  0
 11 18  1  0
 11 19  1  0
 10 20  1  0
 10 21  1  0
  9 22  1  0
  8 23  1  0
 23 24  2  0
 24 25  1  0
 25 26  1  0
 26 27  2  0
 27 28  1  0
 28 29  2  0
 29 30  1  0
 30 31  1  0
 31 32  2  0
 32 33  1  0
 33 34  2  0
 34 35  1  0
 30 36  1  0
 28 37  1  0
 27 38  1  0
 25 39  1  0
 25 40  1  0
  5 41  2  0
 41 42  1  0
  4 43  1  0
  2 44  1  0
  1 45  1  0
 41  1  1  0
 24  6  1  0
 34 26  1  0
 13  9  1  0
 33 29  1  0
M  END
>  <cnnaffinity>  (1) 
-6.05696

>  <filename>  (1) 
c1cncc(-n2nc(C3CCCC3)nc2Cc2ccc3[nH]nnc3c2)c1

$$$$
