
     RDKit          3D

 35 38  0  0  0  0  0  0  0  0999 V2000
    4.9047    1.9528   16.7162 H   0  0  0  0  0  0  0  0  0  0  0  0
    5.4252    1.4420   17.5236 C   0  0  0  0  0  0  0  0  0  0  0  0
    6.5714    0.8255   17.1940 N   0  0  0  0  0  0  0  0  0  0  0  0
    7.2426    0.2033   18.1718 C   0  0  0  0  0  0  0  0  0  0  0  0
    8.1662   -0.2852   17.8605 H   0  0  0  0  0  0  0  0  0  0  0  0
    6.8084    0.1377   19.5096 C   0  0  0  0  0  0  0  0  0  0  0  0
    7.5067   -0.6434   20.5390 C   0  0  0  0  0  0  0  0  0  0  0  0
    8.8948   -0.9573   20.6396 C   0  0  0  0  0  0  0  0  0  0  0  0
    9.6502   -0.5795   19.9647 H   0  0  0  0  0  0  0  0  0  0  0  0
    9.0583   -1.7826   21.7232 C   0  0  0  0  0  0  0  0  0  0  0  0
    9.9300   -2.2660   22.1434 H   0  0  0  0  0  0  0  0  0  0  0  0
    7.8213   -1.9910   22.2996 N   0  0  0  0  0  0  0  0  0  0  0  0
    7.5071   -2.6990   23.4981 C   0  0  0  0  0  0  0  0  0  0  0  0
    6.5980   -3.7377   23.4546 C   0  0  0  0  0  0  0  0  0  0  0  0
    6.1033   -3.9891   22.5161 H   0  0  0  0  0  0  0  0  0  0  0  0
    6.2744   -4.4596   24.6366 C   0  0  0  0  0  0  0  0  0  0  0  0
    5.5333   -5.2519   24.5901 H   0  0  0  0  0  0  0  0  0  0  0  0
    6.8586   -4.1414   25.8407 C   0  0  0  0  0  0  0  0  0  0  0  0
    6.6129   -4.6897   26.7525 H   0  0  0  0  0  0  0  0  0  0  0  0
    7.7593   -3.0315   25.9236 C   0  0  0  0  0  0  0  0  0  0  0  0
    8.3233   -2.6338   27.1694 C   0  0  0  0  0  0  0  0  0  0  0  0
    8.1441   -3.2827   28.0166 H   0  0  0  0  0  0  0  0  0  0  0  0
    9.0519   -1.4749   27.2826 C   0  0  0  0  0  0  0  0  0  0  0  0
    9.4437   -1.1482   28.2447 H   0  0  0  0  0  0  0  0  0  0  0  0
    9.2832   -0.6652   26.1393 C   0  0  0  0  0  0  0  0  0  0  0  0
    9.8229    0.2684   26.2522 H   0  0  0  0  0  0  0  0  0  0  0  0
    8.8165   -1.0524   24.9030 C   0  0  0  0  0  0  0  0  0  0  0  0
    8.9921   -0.4472   24.0146 H   0  0  0  0  0  0  0  0  0  0  0  0
    8.0563   -2.2583   24.7559 C   0  0  0  0  0  0  0  0  0  0  0  0
    6.8927   -1.2839   21.5857 C   0  0  0  0  0  0  0  0  0  0  0  0
    5.8554   -1.3254   21.8811 H   0  0  0  0  0  0  0  0  0  0  0  0
    5.6150    0.7991   19.8285 C   0  0  0  0  0  0  0  0  0  0  0  0
    5.2646    0.8027   20.8617 H   0  0  0  0  0  0  0  0  0  0  0  0
    4.9099    1.4555   18.8240 C   0  0  0  0  0  0  0  0  0  0  0  0
    3.9863    1.9779   19.0408 H   0  0  0  0  0  0  0  0  0  0  0  0
  1  2  1  0
  2  3  2  0
  3  4  1  0
  4  5  1  0
  4  6  2  0
  6  7  1  0
  7  8  1  0
  8  9  1  0
  8 10  2  0
 10 11  1  0
 10 12  1  0
 12 13  1  0
 13 14  2  0
 14 15  1  0
 14 16  1  0
 16 17  1  0
 16 18  2  0
 18 19  1  0
 18 20  1  0
 20 21  2  0
 21 22  1  0
 21 23  1  0
 23 24  1  0
 23 25  2  0
 25 26  1  0
 25 27  1  0
 27 28  1  0
 27 29  2  0
 12 30  1  0
 30 31  1  0
  6 32  1  0
 32 33  1  0
 32 34  2  0
 34 35  1  0
 34  2  1  0
 30  7  2  0
 29 13  1  0
 29 20  1  0
M  END
>  <cnnaffinity>  (1) 
-5.17478

>  <filename>  (1) 
c1cncc(-c2ccn(-c3cccc4ccccc34)c2)c1

$$$$
