
     RDKit          3D

 38 41  0  0  0  0  0  0  0  0999 V2000
    8.4720    6.1290   23.0553 C   0  0  0  0  0  0  0  0  0  0  0  0
    9.3266    5.2178   23.6630 C   0  0  0  0  0  0  0  0  0  0  0  0
    9.4472    3.9545   23.2698 N   0  0  0  0  0  0  0  0  0  0  0  0
    8.6813    3.5809   22.2398 C   0  0  0  0  0  0  0  0  0  0  0  0
    8.7565    2.1495   21.8015 C   0  0  0  0  0  0  0  0  0  0  0  0
    7.7342    1.2473   22.5509 C   0  0  0  0  0  0  0  0  0  0  0  0
    7.8064   -0.1777   22.1305 C   0  0  0  0  0  0  0  0  0  0  0  0
    8.4431   -1.1271   22.7762 N   0  0  0  0  0  0  0  0  0  0  0  0
    8.3494   -2.1830   21.9307 C   0  0  0  0  0  0  0  0  0  0  0  0
    8.9714   -3.4660   22.2908 C   0  0  0  0  0  0  0  0  0  0  0  0
    8.1394   -4.7263   22.2117 C   0  0  0  0  0  0  0  0  0  0  0  0
    8.5760   -4.1977   23.5481 C   0  0  0  0  0  0  0  0  0  0  0  0
    7.8695   -3.7014   24.2132 H   0  0  0  0  0  0  0  0  0  0  0  0
    9.3634   -4.7449   24.0606 H   0  0  0  0  0  0  0  0  0  0  0  0
    8.5445   -5.6601   21.8302 H   0  0  0  0  0  0  0  0  0  0  0  0
    7.0919   -4.5819   21.9429 H   0  0  0  0  0  0  0  0  0  0  0  0
   10.0421   -3.3576   22.1172 H   0  0  0  0  0  0  0  0  0  0  0  0
    7.7538   -1.9365   20.7807 N   0  0  0  0  0  0  0  0  0  0  0  0
    7.3628   -0.6460   20.9309 N   0  0  0  0  0  0  0  0  0  0  0  0
    6.6479    0.0182   19.9036 C   0  0  0  0  0  0  0  0  0  0  0  0
    5.4347    0.6596   20.1658 C   0  0  0  0  0  0  0  0  0  0  0  0
    4.8061    1.3099   19.1019 C   0  0  0  0  0  0  0  0  0  0  0  0
    5.4040    1.2928   17.8385 C   0  0  0  0  0  0  0  0  0  0  0  0
    6.5687    0.6687   17.5849 N   0  0  0  0  0  0  0  0  0  0  0  0
    7.1695    0.0398   18.5991 C   0  0  0  0  0  0  0  0  0  0  0  0
    8.1185   -0.4476   18.3823 H   0  0  0  0  0  0  0  0  0  0  0  0
    4.9279    1.7848   16.9937 H   0  0  0  0  0  0  0  0  0  0  0  0
    3.8765    1.8404   19.2570 H   0  0  0  0  0  0  0  0  0  0  0  0
    5.0024    0.6299   21.1684 H   0  0  0  0  0  0  0  0  0  0  0  0
    6.7170    1.6161   22.3840 H   0  0  0  0  0  0  0  0  0  0  0  0
    7.9247    1.2661   23.6281 H   0  0  0  0  0  0  0  0  0  0  0  0
    8.5720    2.1016   20.7245 H   0  0  0  0  0  0  0  0  0  0  0  0
    9.7693    1.7865   21.9931 H   0  0  0  0  0  0  0  0  0  0  0  0
    7.7908    4.3560   21.6266 N   0  0  0  0  0  0  0  0  0  0  0  0
    7.7164    5.6229   22.0091 C   0  0  0  0  0  0  0  0  0  0  0  0
    7.0151    6.2459   21.4550 H   0  0  0  0  0  0  0  0  0  0  0  0
    9.9468    5.5104   24.5074 H   0  0  0  0  0  0  0  0  0  0  0  0
    8.3848    7.1527   23.3810 H   0  0  0  0  0  0  0  0  0  0  0  0
  1  2  2  0
  2  3  1  0
  3  4  2  0
  4  5  1  0
  5  6  1  0
  6  7  1  0
  7  8  2  0
  8  9  1  0
  9 10  1  0
 10 11  1  0
 11 12  1  0
 12 13  1  0
 12 14  1  0
 11 15  1  0
 11 16  1  0
 10 17  1  0
  9 18  2  0
 18 19  1  0
 19 20  1  0
 20 21  2  0
 21 22  1  0
 22 23  2  0
 23 24  1  0
 24 25  2  0
 25 26  1  0
 23 27  1  0
 22 28  1  0
 21 29  1  0
  6 30  1  0
  6 31  1  0
  5 32  1  0
  5 33  1  0
  4 34  1  0
 34 35  2  0
 35 36  1  0
  2 37  1  0
  1 38  1  0
 35  1  1  0
 19  7  1  0
 25 20  1  0
 12 10  1  0
M  END
>  <cnnaffinity>  (1) 
-5.66173

>  <filename>  (1) 
c1cnc(CCc2nc(C3CC3)nn2-c2cccnc2)nc1

$$$$
