
     RDKit          3D

 34 37  0  0  0  0  0  0  0  0999 V2000
    4.9101    1.7832   16.9938 H   0  0  0  0  0  0  0  0  0  0  0  0
    5.4016    1.2966   17.8340 C   0  0  0  0  0  0  0  0  0  0  0  0
    6.5666    0.6804   17.5720 N   0  0  0  0  0  0  0  0  0  0  0  0
    7.1720    0.0585   18.5944 C   0  0  0  0  0  0  0  0  0  0  0  0
    8.1209   -0.4277   18.3785 H   0  0  0  0  0  0  0  0  0  0  0  0
    6.6652    0.0032   19.9157 C   0  0  0  0  0  0  0  0  0  0  0  0
    7.3471   -0.6843   20.9536 N   0  0  0  0  0  0  0  0  0  0  0  0
    7.4200   -0.3581   22.3129 C   0  0  0  0  0  0  0  0  0  0  0  0
    7.2041    1.0287   22.8083 C   0  0  0  0  0  0  0  0  0  0  0  0
    7.6386    2.1650   22.1043 C   0  0  0  0  0  0  0  0  0  0  0  0
    8.1245    2.0466   21.1388 H   0  0  0  0  0  0  0  0  0  0  0  0
    7.4430    3.4634   22.6228 C   0  0  0  0  0  0  0  0  0  0  0  0
    7.7811    4.3206   22.0483 H   0  0  0  0  0  0  0  0  0  0  0  0
    6.8205    3.6718   23.8547 C   0  0  0  0  0  0  0  0  0  0  0  0
    6.6597    4.6659   24.2704 H   0  0  0  0  0  0  0  0  0  0  0  0
    6.3974    2.5336   24.5557 C   0  0  0  0  0  0  0  0  0  0  0  0
    6.5733    1.2185   24.0648 C   0  0  0  0  0  0  0  0  0  0  0  0
    5.9957    0.3369   25.0436 C   0  0  0  0  0  0  0  0  0  0  0  0
    5.9775   -0.7388   24.9445 H   0  0  0  0  0  0  0  0  0  0  0  0
    5.5152    1.1066   26.0623 C   0  0  0  0  0  0  0  0  0  0  0  0
    5.0107    0.8048   26.9785 H   0  0  0  0  0  0  0  0  0  0  0  0
    5.7614    2.4341   25.7690 N   0  0  0  0  0  0  0  0  0  0  0  0
    5.5109    3.2299   26.3294 H   0  0  0  0  0  0  0  0  0  0  0  0
    7.7534   -1.3329   23.0793 N   0  0  0  0  0  0  0  0  0  0  0  0
    7.9949   -2.5042   22.2494 C   0  0  0  0  0  0  0  0  0  0  0  0
    7.3077   -3.3088   22.5336 H   0  0  0  0  0  0  0  0  0  0  0  0
    9.0145   -2.8812   22.3995 H   0  0  0  0  0  0  0  0  0  0  0  0
    7.7755   -2.0701   20.7950 C   0  0  0  0  0  0  0  0  0  0  0  0
    8.7017   -2.1160   20.2091 H   0  0  0  0  0  0  0  0  0  0  0  0
    7.0013   -2.6627   20.2865 H   0  0  0  0  0  0  0  0  0  0  0  0
    5.4394    0.6439   20.1607 C   0  0  0  0  0  0  0  0  0  0  0  0
    5.0194    0.6285   21.1693 H   0  0  0  0  0  0  0  0  0  0  0  0
    4.8085    1.3077   19.1042 C   0  0  0  0  0  0  0  0  0  0  0  0
    3.8753    1.8420   19.2623 H   0  0  0  0  0  0  0  0  0  0  0  0
  1  2  1  0
  2  3  2  0
  3  4  1  0
  4  5  1  0
  4  6  2  0
  6  7  1  0
  7  8  1  0
  8  9  1  0
  9 10  2  0
 10 11  1  0
 10 12  1  0
 12 13  1  0
 12 14  2  0
 14 15  1  0
 14 16  1  0
 16 17  2  0
 17 18  1  0
 18 19  1  0
 18 20  2  0
 20 21  1  0
 20 22  1  0
 22 23  1  0
  8 24  2  0
 24 25  1  0
 25 26  1  0
 25 27  1  0
 25 28  1  0
 28 29  1  0
 28 30  1  0
  6 31  1  0
 31 32  1  0
 31 33  2  0
 33 34  1  0
 33  2  1  0
 28  7  1  0
 17  9  1  0
 22 16  1  0
M  END
>  <cnnaffinity>  (1) 
-5.04077

>  <filename>  (1) 
c1cncc(N2CCN=C2c2cccc3[nH]ccc23)c1

$$$$
