
     RDKit          3D

 42 45  0  0  0  0  0  0  0  0999 V2000
    4.7864    1.3133   19.0423 C   0  0  0  0  0  0  0  0  0  0  0  0
    5.3763    1.3131   17.7751 C   0  0  0  0  0  0  0  0  0  0  0  0
    6.5205    0.6702   17.4975 N   0  0  0  0  0  0  0  0  0  0  0  0
    7.1245    0.0315   18.5068 C   0  0  0  0  0  0  0  0  0  0  0  0
    6.6381   -0.0159   19.8244 C   0  0  0  0  0  0  0  0  0  0  0  0
    7.4403   -0.6735   20.9296 C   0  0  0  0  0  0  0  0  0  0  0  0
    8.4008    0.2508   21.6328 C   0  0  0  0  0  0  0  0  0  0  0  0
    9.3243    0.9954   21.0380 N   0  0  0  0  0  0  0  0  0  0  0  0
    9.9997    1.5441   22.0812 C   0  0  0  0  0  0  0  0  0  0  0  0
   11.1327    2.5210   21.9593 C   0  0  0  0  0  0  0  0  0  0  0  0
   12.5042    1.9592   22.4123 C   0  0  0  0  0  0  0  0  0  0  0  0
   13.3572    3.1848   22.8115 C   0  0  0  0  0  0  0  0  0  0  0  0
   12.3960    4.3898   22.8238 C   0  0  0  0  0  0  0  0  0  0  0  0
   10.9950    3.7745   22.8533 C   0  0  0  0  0  0  0  0  0  0  0  0
   10.7541    3.4596   23.8801 H   0  0  0  0  0  0  0  0  0  0  0  0
   10.2061    4.4527   22.5200 H   0  0  0  0  0  0  0  0  0  0  0  0
   12.5769    5.0440   23.6813 H   0  0  0  0  0  0  0  0  0  0  0  0
   12.5228    5.0059   21.9257 H   0  0  0  0  0  0  0  0  0  0  0  0
   14.2096    3.3683   22.1523 H   0  0  0  0  0  0  0  0  0  0  0  0
   13.7797    3.0218   23.8035 H   0  0  0  0  0  0  0  0  0  0  0  0
   12.9657    1.3302   21.6487 H   0  0  0  0  0  0  0  0  0  0  0  0
   12.3431    1.3294   23.2958 H   0  0  0  0  0  0  0  0  0  0  0  0
   11.1760    2.8351   20.9095 H   0  0  0  0  0  0  0  0  0  0  0  0
    9.5892    1.1416   23.2731 N   0  0  0  0  0  0  0  0  0  0  0  0
    8.5397    0.3406   22.9857 N   0  0  0  0  0  0  0  0  0  0  0  0
    7.7948   -0.2120   24.0586 C   0  0  0  0  0  0  0  0  0  0  0  0
    6.4057   -0.0878   24.1397 C   0  0  0  0  0  0  0  0  0  0  0  0
    5.7554   -0.6892   25.2240 C   0  0  0  0  0  0  0  0  0  0  0  0
    6.5123   -1.3744   26.1751 C   0  0  0  0  0  0  0  0  0  0  0  0
    7.8518   -1.4554   26.1168 N   0  0  0  0  0  0  0  0  0  0  0  0
    8.4792   -0.8661   25.0929 C   0  0  0  0  0  0  0  0  0  0  0  0
    9.5667   -0.9222   25.0627 H   0  0  0  0  0  0  0  0  0  0  0  0
    6.0270   -1.8717   27.0176 H   0  0  0  0  0  0  0  0  0  0  0  0
    4.6797   -0.6264   25.3221 H   0  0  0  0  0  0  0  0  0  0  0  0
    5.8506    0.4824   23.3947 H   0  0  0  0  0  0  0  0  0  0  0  0
    8.0347   -1.4974   20.5145 H   0  0  0  0  0  0  0  0  0  0  0  0
    6.7612   -1.1210   21.6607 H   0  0  0  0  0  0  0  0  0  0  0  0
    5.4234    0.6312   20.0810 C   0  0  0  0  0  0  0  0  0  0  0  0
    4.9747    0.6077   21.0785 H   0  0  0  0  0  0  0  0  0  0  0  0
    8.0585   -0.4768   18.2620 H   0  0  0  0  0  0  0  0  0  0  0  0
    4.9108    1.8485   16.9483 H   0  0  0  0  0  0  0  0  0  0  0  0
    3.8636    1.8574   19.2020 H   0  0  0  0  0  0  0  0  0  0  0  0
  1  2  2  0
  2  3  1  0
  3  4  2  0
  4  5  1  0
  5  6  1  0
  6  7  1  0
  7  8  2  0
  8  9  1  0
  9 10  1  0
 10 11  1  0
 11 12  1  0
 12 13  1  0
 13 14  1  0
 14 15  1  0
 14 16  1  0
 13 17  1  0
 13 18  1  0
 12 19  1  0
 12 20  1  0
 11 21  1  0
 11 22  1  0
 10 23  1  0
  9 24  2  0
 24 25  1  0
 25 26  1  0
 26 27  2  0
 27 28  1  0
 28 29  2  0
 29 30  1  0
 30 31  2  0
 31 32  1  0
 29 33  1  0
 28 34  1  0
 27 35  1  0
  6 36  1  0
  6 37  1  0
  5 38  2  0
 38 39  1  0
  4 40  1  0
  2 41  1  0
  1 42  1  0
 38  1  1  0
 25  7  1  0
 31 26  1  0
 14 10  1  0
M  END
>  <cnnaffinity>  (1) 
-5.37499

>  <filename>  (1) 
c1cncc(Cc2nc(C3CCCC3)nn2-c2cccnc2)c1

$$$$
