
     RDKit          3D

 31 34  0  0  0  0  0  0  0  0999 V2000
    4.9023    1.8327   16.9447 H   0  0  0  0  0  0  0  0  0  0  0  0
    5.3727    1.3236   17.7851 C   0  0  0  0  0  0  0  0  0  0  0  0
    6.5321    0.7030   17.5147 N   0  0  0  0  0  0  0  0  0  0  0  0
    7.1599    0.0948   18.5273 C   0  0  0  0  0  0  0  0  0  0  0  0
    8.0909   -0.3990   18.2592 H   0  0  0  0  0  0  0  0  0  0  0  0
    6.6884    0.0468   19.8531 C   0  0  0  0  0  0  0  0  0  0  0  0
    7.3923   -0.6779   20.9315 C   0  0  0  0  0  0  0  0  0  0  0  0
    6.8798   -1.2707   22.0628 C   0  0  0  0  0  0  0  0  0  0  0  0
    5.8480   -1.3815   22.3247 H   0  0  0  0  0  0  0  0  0  0  0  0
    7.9598   -1.8409   22.7698 C   0  0  0  0  0  0  0  0  0  0  0  0
    7.9040   -2.5926   24.0378 C   0  0  0  0  0  0  0  0  0  0  0  0
    8.6608   -3.6945   24.2884 C   0  0  0  0  0  0  0  0  0  0  0  0
    9.4266   -4.1011   23.6371 H   0  0  0  0  0  0  0  0  0  0  0  0
    8.3024   -4.4642   25.7904 S   0  0  0  0  0  0  0  0  0  0  0  0
    7.0894   -3.2718   26.1607 C   0  0  0  0  0  0  0  0  0  0  0  0
    6.2917   -3.2167   27.3185 C   0  0  0  0  0  0  0  0  0  0  0  0
    6.3867   -3.9754   28.0896 H   0  0  0  0  0  0  0  0  0  0  0  0
    5.3892   -2.1717   27.4573 C   0  0  0  0  0  0  0  0  0  0  0  0
    4.7855   -2.1070   28.3592 H   0  0  0  0  0  0  0  0  0  0  0  0
    5.2565   -1.1945   26.4482 C   0  0  0  0  0  0  0  0  0  0  0  0
    4.5380   -0.3864   26.5767 H   0  0  0  0  0  0  0  0  0  0  0  0
    6.0351   -1.2576   25.3015 C   0  0  0  0  0  0  0  0  0  0  0  0
    5.9212   -0.4979   24.5317 H   0  0  0  0  0  0  0  0  0  0  0  0
    6.9742   -2.3090   25.1355 C   0  0  0  0  0  0  0  0  0  0  0  0
    9.0913   -1.6531   22.0831 N   0  0  0  0  0  0  0  0  0  0  0  0
    8.7290   -0.9516   20.9984 N   0  0  0  0  0  0  0  0  0  0  0  0
    9.4510   -0.6537   20.3583 H   0  0  0  0  0  0  0  0  0  0  0  0
    5.4543    0.6798   20.1055 C   0  0  0  0  0  0  0  0  0  0  0  0
    5.0393    0.6563   21.1149 H   0  0  0  0  0  0  0  0  0  0  0  0
    4.7930    1.3315   19.0592 C   0  0  0  0  0  0  0  0  0  0  0  0
    3.8544    1.8535   19.2146 H   0  0  0  0  0  0  0  0  0  0  0  0
  1  2  1  0
  2  3  2  0
  3  4  1  0
  4  5  1  0
  4  6  2  0
  6  7  1  0
  7  8  2  0
  8  9  1  0
  8 10  1  0
 10 11  1  0
 11 12  2  0
 12 13  1  0
 12 14  1  0
 14 15  1  0
 15 16  2  0
 16 17  1  0
 16 18  1  0
 18 19  1  0
 18 20  2  0
 20 21  1  0
 20 22  1  0
 22 23  1  0
 22 24  2  0
 10 25  2  0
 25 26  1  0
 26 27  1  0
  6 28  1  0
 28 29  1  0
 28 30  2  0
 30 31  1  0
 30  2  1  0
 26  7  1  0
 24 11  1  0
 24 15  1  0
M  END
>  <cnnaffinity>  (1) 
-5.31925

>  <filename>  (1) 
c1cncc(-c2cc(-c3csc4ccccc34)n[nH]2)c1

$$$$
