
     RDKit          3D

 44 48  0  0  0  0  0  0  0  0999 V2000
    5.0788    1.7950   16.9406 H   0  0  0  0  0  0  0  0  0  0  0  0
    5.4808    1.2550   17.7925 C   0  0  0  0  0  0  0  0  0  0  0  0
    6.6085    0.5607   17.5703 N   0  0  0  0  0  0  0  0  0  0  0  0
    7.1340   -0.0991   18.6106 C   0  0  0  0  0  0  0  0  0  0  0  0
    8.0437   -0.6682   18.4090 H   0  0  0  0  0  0  0  0  0  0  0  0
    6.5878   -0.0964   19.9031 C   0  0  0  0  0  0  0  0  0  0  0  0
    7.3182   -0.7432   21.0108 C   0  0  0  0  0  0  0  0  0  0  0  0
    6.6891   -1.5536   21.8636 N   0  0  0  0  0  0  0  0  0  0  0  0
    7.6429   -1.8991   22.7311 N   0  0  0  0  0  0  0  0  0  0  0  0
    8.8323   -1.3205   22.5104 C   0  0  0  0  0  0  0  0  0  0  0  0
    8.6929   -0.5609   21.3657 C   0  0  0  0  0  0  0  0  0  0  0  0
    9.6598    0.4818   20.8567 C   0  0  0  0  0  0  0  0  0  0  0  0
   10.6897    0.1317   20.9715 H   0  0  0  0  0  0  0  0  0  0  0  0
    9.5013    0.6366   19.7850 H   0  0  0  0  0  0  0  0  0  0  0  0
    9.4795    1.8123   21.5638 C   0  0  0  0  0  0  0  0  0  0  0  0
    8.3373    2.5829   21.2115 C   0  0  0  0  0  0  0  0  0  0  0  0
    7.6802    2.2100   20.4293 H   0  0  0  0  0  0  0  0  0  0  0  0
    8.0610    3.7670   21.8397 C   0  0  0  0  0  0  0  0  0  0  0  0
    7.1882    4.3540   21.5642 H   0  0  0  0  0  0  0  0  0  0  0  0
    8.9205    4.2592   22.8598 C   0  0  0  0  0  0  0  0  0  0  0  0
    8.6535    5.4984   23.5084 C   0  0  0  0  0  0  0  0  0  0  0  0
    7.7913    6.0674   23.1683 H   0  0  0  0  0  0  0  0  0  0  0  0
    9.4755    5.9503   24.5139 C   0  0  0  0  0  0  0  0  0  0  0  0
    9.2633    6.8948   25.0012 H   0  0  0  0  0  0  0  0  0  0  0  0
   10.6153    5.1913   24.9109 C   0  0  0  0  0  0  0  0  0  0  0  0
   11.2426    5.5546   25.7233 H   0  0  0  0  0  0  0  0  0  0  0  0
   10.9115    4.0023   24.2791 C   0  0  0  0  0  0  0  0  0  0  0  0
   11.7956    3.4360   24.5555 H   0  0  0  0  0  0  0  0  0  0  0  0
   10.0662    3.4914   23.2448 C   0  0  0  0  0  0  0  0  0  0  0  0
   10.3087    2.2501   22.5760 C   0  0  0  0  0  0  0  0  0  0  0  0
   11.1587    1.6482   22.8900 H   0  0  0  0  0  0  0  0  0  0  0  0
    9.7653   -1.5972   23.6477 C   0  0  0  0  0  0  0  0  0  0  0  0
   10.0626   -0.6594   24.1276 H   0  0  0  0  0  0  0  0  0  0  0  0
   10.6798   -2.0835   23.3007 H   0  0  0  0  0  0  0  0  0  0  0  0
    8.9265   -2.5095   24.5875 C   0  0  0  0  0  0  0  0  0  0  0  0
    8.8936   -2.1193   25.6034 H   0  0  0  0  0  0  0  0  0  0  0  0
    9.3640   -3.5056   24.6291 H   0  0  0  0  0  0  0  0  0  0  0  0
    7.4903   -2.5823   23.9958 C   0  0  0  0  0  0  0  0  0  0  0  0
    6.7538   -2.0486   24.6058 H   0  0  0  0  0  0  0  0  0  0  0  0
    7.1422   -3.6063   23.8389 H   0  0  0  0  0  0  0  0  0  0  0  0
    5.3624    0.5699   20.0915 C   0  0  0  0  0  0  0  0  0  0  0  0
    4.8642    0.5278   21.0622 H   0  0  0  0  0  0  0  0  0  0  0  0
    4.8145    1.2766   19.0234 C   0  0  0  0  0  0  0  0  0  0  0  0
    3.8890    1.8369   19.1298 H   0  0  0  0  0  0  0  0  0  0  0  0
  1  2  1  0
  2  3  2  0
  3  4  1  0
  4  5  1  0
  4  6  2  0
  6  7  1  0
  7  8  2  0
  8  9  1  0
  9 10  1  0
 10 11  2  0
 11 12  1  0
 12 13  1  0
 12 14  1  0
 12 15  1  0
 15 16  2  0
 16 17  1  0
 16 18  1  0
 18 19  1  0
 18 20  2  0
 20 21  1  0
 21 22  1  0
 21 23  2  0
 23 24  1  0
 23 25  1  0
 25 26  1  0
 25 27  2  0
 27 28  1  0
 27 29  1  0
 29 30  2  0
 30 31  1  0
 10 32  1  0
 32 33  1  0
 32 34  1  0
 32 35  1  0
 35 36  1  0
 35 37  1  0
 35 38  1  0
 38 39  1  0
 38 40  1  0
  6 41  1  0
 41 42  1  0
 41 43  2  0
 43 44  1  0
 43  2  1  0
 11  7  1  0
 30 15  1  0
 38  9  1  0
 29 20  1  0
M  END
>  <cnnaffinity>  (1) 
-6.0769

>  <filename>  (1) 
c1cncc(-c2nn3c(c2Cc2ccc4ccccc4c2)CCC3)c1

$$$$
