
     RDKit          3D

 39 42  0  0  0  0  0  0  0  0999 V2000
    4.8229    1.2829   19.0961 C   0  0  0  0  0  0  0  0  0  0  0  0
    5.4240    1.3194   17.8307 C   0  0  0  0  0  0  0  0  0  0  0  0
    6.5714    0.6832   17.5525 N   0  0  0  0  0  0  0  0  0  0  0  0
    7.1719    0.0141   18.5444 C   0  0  0  0  0  0  0  0  0  0  0  0
    6.6627   -0.0514   19.8521 C   0  0  0  0  0  0  0  0  0  0  0  0
    7.3572   -0.7133   20.9005 N   0  0  0  0  0  0  0  0  0  0  0  0
    6.6998   -1.6364   21.6502 N   0  0  0  0  0  0  0  0  0  0  0  0
    7.6170   -2.0193   22.5209 C   0  0  0  0  0  0  0  0  0  0  0  0
    7.3718   -2.9887   23.6258 C   0  0  0  0  0  0  0  0  0  0  0  0
    6.2493   -2.6044   24.6464 C   0  0  0  0  0  0  0  0  0  0  0  0
    5.4306   -3.8352   24.1955 C   0  0  0  0  0  0  0  0  0  0  0  0
    6.5768   -4.2752   23.2547 C   0  0  0  0  0  0  0  0  0  0  0  0
    6.3051   -4.3380   22.1942 H   0  0  0  0  0  0  0  0  0  0  0  0
    7.0837   -5.1995   23.5517 H   0  0  0  0  0  0  0  0  0  0  0  0
    4.5139   -3.5679   23.6610 H   0  0  0  0  0  0  0  0  0  0  0  0
    5.1754   -4.5439   24.9906 H   0  0  0  0  0  0  0  0  0  0  0  0
    5.7785   -1.6304   24.4612 H   0  0  0  0  0  0  0  0  0  0  0  0
    6.5782   -2.6343   25.6900 H   0  0  0  0  0  0  0  0  0  0  0  0
    8.3443   -3.1698   24.0952 H   0  0  0  0  0  0  0  0  0  0  0  0
    8.8133   -1.3974   22.3986 N   0  0  0  0  0  0  0  0  0  0  0  0
    8.6155   -0.5404   21.4149 C   0  0  0  0  0  0  0  0  0  0  0  0
    9.5789    0.5520   21.0913 C   0  0  0  0  0  0  0  0  0  0  0  0
    9.6618    1.6656   22.1764 C   0  0  0  0  0  0  0  0  0  0  0  0
    8.3406    2.3376   22.4492 C   0  0  0  0  0  0  0  0  0  0  0  0
    7.4014    1.9959   23.3793 C   0  0  0  0  0  0  0  0  0  0  0  0
    6.0022    2.9783   23.1975 S   0  0  0  0  0  0  0  0  0  0  0  0
    6.7622    3.7786   21.8666 C   0  0  0  0  0  0  0  0  0  0  0  0
    7.9563    3.3435   21.6014 N   0  0  0  0  0  0  0  0  0  0  0  0
    6.2952    4.5926   21.3165 H   0  0  0  0  0  0  0  0  0  0  0  0
    7.4608    1.2177   24.1292 H   0  0  0  0  0  0  0  0  0  0  0  0
   10.0738    1.2432   23.0990 H   0  0  0  0  0  0  0  0  0  0  0  0
   10.3608    2.4292   21.8254 H   0  0  0  0  0  0  0  0  0  0  0  0
   10.5608    0.0807   20.9951 H   0  0  0  0  0  0  0  0  0  0  0  0
    9.3259    0.9878   20.1253 H   0  0  0  0  0  0  0  0  0  0  0  0
    5.4344    0.5567   20.1195 C   0  0  0  0  0  0  0  0  0  0  0  0
    4.9808    0.4381   21.1062 H   0  0  0  0  0  0  0  0  0  0  0  0
    8.0979   -0.4976   18.2866 H   0  0  0  0  0  0  0  0  0  0  0  0
    4.9577    1.8585   17.0081 H   0  0  0  0  0  0  0  0  0  0  0  0
    3.8938    1.8123   19.2691 H   0  0  0  0  0  0  0  0  0  0  0  0
  1  2  2  0
  2  3  1  0
  3  4  2  0
  4  5  1  0
  5  6  1  0
  6  7  1  0
  7  8  2  0
  8  9  1  0
  9 10  1  0
 10 11  1  0
 11 12  1  0
 12 13  1  0
 12 14  1  0
 11 15  1  0
 11 16  1  0
 10 17  1  0
 10 18  1  0
  9 19  1  0
  8 20  1  0
 20 21  2  0
 21 22  1  0
 22 23  1  0
 23 24  1  0
 24 25  2  0
 25 26  1  0
 26 27  1  0
 27 28  2  0
 27 29  1  0
 25 30  1  0
 23 31  1  0
 23 32  1  0
 22 33  1  0
 22 34  1  0
  5 35  2  0
 35 36  1  0
  4 37  1  0
  2 38  1  0
  1 39  1  0
 35  1  1  0
 21  6  1  0
 28 24  1  0
 12  9  1  0
M  END
>  <cnnaffinity>  (1) 
-6.01187

>  <filename>  (1) 
c1cncc(-n2nc(C3CCC3)nc2CCc2cscn2)c1

$$$$
