
     RDKit          3D

 29 31  0  0  0  0  0  0  0  0999 V2000
    5.0716    2.6221   15.8413 H   0  0  0  0  0  0  0  0  0  0  0  0
    5.3998    2.0564   16.7123 C   0  0  0  0  0  0  0  0  0  0  0  0
    6.4947    1.2968   16.5601 N   0  0  0  0  0  0  0  0  0  0  0  0
    6.9129    0.5950   17.6223 C   0  0  0  0  0  0  0  0  0  0  0  0
    7.8083   -0.0090   17.4853 H   0  0  0  0  0  0  0  0  0  0  0  0
    6.2697    0.5888   18.8692 C   0  0  0  0  0  0  0  0  0  0  0  0
    6.7934   -0.1991   19.9975 C   0  0  0  0  0  0  0  0  0  0  0  0
    5.7025   -0.7382   21.2268 S   0  0  0  0  0  0  0  0  0  0  0  0
    6.9849   -1.3271   22.1951 C   0  0  0  0  0  0  0  0  0  0  0  0
    6.8118   -1.7714   23.1643 H   0  0  0  0  0  0  0  0  0  0  0  0
    8.2034   -1.1715   21.5935 C   0  0  0  0  0  0  0  0  0  0  0  0
    9.4710   -1.6766   22.2387 C   0  0  2  0  0  0  0  0  0  0  0  0
   10.3004   -1.6040   21.5231 H   0  0  0  0  0  0  0  0  0  0  0  0
    9.3298   -3.1472   22.7103 C   0  0  0  0  0  0  0  0  0  0  0  0
   10.2931   -3.6655   22.6292 H   0  0  0  0  0  0  0  0  0  0  0  0
    8.5575   -3.7076   22.1729 H   0  0  0  0  0  0  0  0  0  0  0  0
    8.9477   -3.0759   24.0672 O   0  0  0  0  0  0  0  0  0  0  0  0
    9.8147   -2.1018   24.6114 C   0  0  0  0  0  0  0  0  0  0  0  0
    9.4450   -1.8350   25.6043 H   0  0  0  0  0  0  0  0  0  0  0  0
   10.8300   -2.5178   24.7281 H   0  0  0  0  0  0  0  0  0  0  0  0
    9.8099   -0.9591   23.5824 C   0  0  0  0  0  0  0  0  0  0  0  0
    9.0327   -0.2259   23.8363 H   0  0  0  0  0  0  0  0  0  0  0  0
   10.7681   -0.4335   23.5527 H   0  0  0  0  0  0  0  0  0  0  0  0
    8.0799   -0.5352   20.3161 C   0  0  0  0  0  0  0  0  0  0  0  0
    8.9348   -0.3142   19.6857 H   0  0  0  0  0  0  0  0  0  0  0  0
    5.1138    1.3830   18.9963 C   0  0  0  0  0  0  0  0  0  0  0  0
    4.5819    1.4246   19.9445 H   0  0  0  0  0  0  0  0  0  0  0  0
    4.6761    2.1254   17.9064 C   0  0  0  0  0  0  0  0  0  0  0  0
    3.7940    2.7513   17.9663 H   0  0  0  0  0  0  0  0  0  0  0  0
  1  2  1  0
  2  3  2  0
  3  4  1  0
  4  5  1  0
  4  6  2  0
  6  7  1  0
  7  8  1  0
  8  9  1  0
  9 10  1  0
  9 11  2  0
 11 12  1  0
 12 13  1  6
 12 14  1  0
 14 15  1  0
 14 16  1  0
 14 17  1  0
 17 18  1  0
 18 19  1  0
 18 20  1  0
 18 21  1  0
 21 22  1  0
 21 23  1  0
 11 24  1  0
 24 25  1  0
  6 26  1  0
 26 27  1  0
 26 28  2  0
 28 29  1  0
 28  2  1  0
 24  7  2  0
 21 12  1  0
M  END
>  <cnnaffinity>  (1) 
-4.80939

>  <filename>  (1) 
c1cncc(-c2cc([C@H]3CCOC3)cs2)c1

$$$$
