
     RDKit          3D

 42 45  0  0  0  0  0  0  0  0999 V2000
    4.8199    1.3052   19.1039 C   0  0  0  0  0  0  0  0  0  0  0  0
    5.4141    1.3019   17.8358 C   0  0  0  0  0  0  0  0  0  0  0  0
    6.5614    0.6617   17.5628 N   0  0  0  0  0  0  0  0  0  0  0  0
    7.1721    0.0252   18.5701 C   0  0  0  0  0  0  0  0  0  0  0  0
    6.6713   -0.0082   19.8844 C   0  0  0  0  0  0  0  0  0  0  0  0
    7.3690   -0.6785   20.9304 N   0  0  0  0  0  0  0  0  0  0  0  0
    6.7411   -1.6135   21.6882 N   0  0  0  0  0  0  0  0  0  0  0  0
    7.6805   -1.9830   22.5367 C   0  0  0  0  0  0  0  0  0  0  0  0
    7.4487   -2.9685   23.6133 C   0  0  0  0  0  0  0  0  0  0  0  0
    7.7208   -2.6258   25.0550 C   0  0  0  0  0  0  0  0  0  0  0  0
    6.3075   -2.8162   24.5822 C   0  0  0  0  0  0  0  0  0  0  0  0
    5.7644   -3.7118   24.8695 H   0  0  0  0  0  0  0  0  0  0  0  0
    5.6757   -1.9373   24.4767 H   0  0  0  0  0  0  0  0  0  0  0  0
    8.0568   -1.6150   25.2868 H   0  0  0  0  0  0  0  0  0  0  0  0
    8.1816   -3.3920   25.6721 H   0  0  0  0  0  0  0  0  0  0  0  0
    7.7022   -3.9788   23.3080 H   0  0  0  0  0  0  0  0  0  0  0  0
    8.8802   -1.3594   22.3775 N   0  0  0  0  0  0  0  0  0  0  0  0
    8.6403   -0.5069   21.4002 C   0  0  0  0  0  0  0  0  0  0  0  0
    9.5120    0.6005   20.9203 C   0  0  0  0  0  0  0  0  0  0  0  0
    8.9842    2.0044   21.2863 C   0  0  0  0  0  0  0  0  0  0  0  0
    8.8268    2.2312   22.8074 C   0  0  0  0  0  0  0  0  0  0  0  0
   10.1635    2.1088   23.5101 C   0  0  0  0  0  0  0  0  0  0  0  0
   10.5170    0.9847   24.2626 C   0  0  0  0  0  0  0  0  0  0  0  0
   11.8242    0.8576   24.7413 C   0  0  0  0  0  0  0  0  0  0  0  0
   12.7894    1.7528   24.5016 N   0  0  0  0  0  0  0  0  0  0  0  0
   12.4519    2.8388   23.7919 C   0  0  0  0  0  0  0  0  0  0  0  0
   11.1632    3.0722   23.3116 C   0  0  0  0  0  0  0  0  0  0  0  0
   10.9367    3.9835   22.7702 H   0  0  0  0  0  0  0  0  0  0  0  0
   13.2481    3.5626   23.6086 H   0  0  0  0  0  0  0  0  0  0  0  0
   12.1068    0.0037   25.3543 H   0  0  0  0  0  0  0  0  0  0  0  0
    9.7876    0.2064   24.4488 H   0  0  0  0  0  0  0  0  0  0  0  0
    8.3849    3.2201   22.9880 H   0  0  0  0  0  0  0  0  0  0  0  0
    8.1041    1.5123   23.2164 H   0  0  0  0  0  0  0  0  0  0  0  0
    9.7003    2.7422   20.9090 H   0  0  0  0  0  0  0  0  0  0  0  0
    8.0395    2.1946   20.7628 H   0  0  0  0  0  0  0  0  0  0  0  0
   10.5150    0.4545   21.3314 H   0  0  0  0  0  0  0  0  0  0  0  0
    9.5904    0.5125   19.8349 H   0  0  0  0  0  0  0  0  0  0  0  0
    5.4522    0.6268   20.1494 C   0  0  0  0  0  0  0  0  0  0  0  0
    5.0285    0.5723   21.1531 H   0  0  0  0  0  0  0  0  0  0  0  0
    8.1030   -0.4894   18.3283 H   0  0  0  0  0  0  0  0  0  0  0  0
    4.9497    1.8301   17.0073 H   0  0  0  0  0  0  0  0  0  0  0  0
    3.8821    1.8307   19.2580 H   0  0  0  0  0  0  0  0  0  0  0  0
  1  2  2  0
  2  3  1  0
  3  4  2  0
  4  5  1  0
  5  6  1  0
  6  7  1  0
  7  8  2  0
  8  9  1  0
  9 10  1  0
 10 11  1  0
 11 12  1  0
 11 13  1  0
 10 14  1  0
 10 15  1  0
  9 16  1  0
  8 17  1  0
 17 18  2  0
 18 19  1  0
 19 20  1  0
 20 21  1  0
 21 22  1  0
 22 23  2  0
 23 24  1  0
 24 25  2  0
 25 26  1  0
 26 27  2  0
 27 28  1  0
 26 29  1  0
 24 30  1  0
 23 31  1  0
 21 32  1  0
 21 33  1  0
 20 34  1  0
 20 35  1  0
 19 36  1  0
 19 37  1  0
  5 38  2  0
 38 39  1  0
  4 40  1  0
  2 41  1  0
  1 42  1  0
 38  1  1  0
 18  6  1  0
 27 22  1  0
 11  9  1  0
M  END
>  <cnnaffinity>  (1) 
-6.04645

>  <filename>  (1) 
c1cncc(-n2nc(C3CC3)nc2CCCc2ccncc2)c1

$$$$
