
     RDKit          3D

 40 43  0  0  0  0  0  0  0  0999 V2000
    5.0489    1.2262   19.2186 C   0  0  0  0  0  0  0  0  0  0  0  0
    5.6203    1.1942   17.9420 C   0  0  0  0  0  0  0  0  0  0  0  0
    6.7585    0.5409   17.6680 N   0  0  0  0  0  0  0  0  0  0  0  0
    7.3733   -0.0852   18.6815 C   0  0  0  0  0  0  0  0  0  0  0  0
    6.8849   -0.1104   20.0010 C   0  0  0  0  0  0  0  0  0  0  0  0
    7.5481   -0.8423   21.0435 N   0  0  0  0  0  0  0  0  0  0  0  0
    6.8629   -1.8228   21.6945 N   0  0  0  0  0  0  0  0  0  0  0  0
    7.7176   -2.2298   22.6141 C   0  0  0  0  0  0  0  0  0  0  0  0
    7.3745   -3.2434   23.6624 C   0  0  0  0  0  0  0  0  0  0  0  0
    6.7680   -4.5680   23.1680 C   0  0  0  0  0  0  0  0  0  0  0  0
    6.1948   -5.2088   24.4440 C   0  0  0  0  0  0  0  0  0  0  0  0
    5.8217   -4.0375   25.3846 C   0  0  0  0  0  0  0  0  0  0  0  0
    6.3176   -2.7600   24.6835 C   0  0  0  0  0  0  0  0  0  0  0  0
    5.4924   -2.2905   24.1368 H   0  0  0  0  0  0  0  0  0  0  0  0
    6.7183   -2.0146   25.3781 H   0  0  0  0  0  0  0  0  0  0  0  0
    6.3001   -4.1674   26.3624 H   0  0  0  0  0  0  0  0  0  0  0  0
    4.7435   -3.9829   25.5674 H   0  0  0  0  0  0  0  0  0  0  0  0
    6.9548   -5.8377   24.9227 H   0  0  0  0  0  0  0  0  0  0  0  0
    5.3407   -5.8572   24.2245 H   0  0  0  0  0  0  0  0  0  0  0  0
    5.9691   -4.3507   22.4468 H   0  0  0  0  0  0  0  0  0  0  0  0
    7.5046   -5.2071   22.6698 H   0  0  0  0  0  0  0  0  0  0  0  0
    8.3170   -3.4410   24.1837 H   0  0  0  0  0  0  0  0  0  0  0  0
    8.9123   -1.5816   22.6072 N   0  0  0  0  0  0  0  0  0  0  0  0
    8.7764   -0.7091   21.6314 C   0  0  0  0  0  0  0  0  0  0  0  0
    9.7680    0.3744   21.3184 C   0  0  0  0  0  0  0  0  0  0  0  0
    9.3525    1.6898   21.9439 C   0  0  0  0  0  0  0  0  0  0  0  0
    9.6537    2.1925   23.1663 C   0  0  0  0  0  0  0  0  0  0  0  0
    8.9038    3.2900   23.4382 O   0  0  0  0  0  0  0  0  0  0  0  0
    8.1020    3.4929   22.3641 C   0  0  0  0  0  0  0  0  0  0  0  0
    8.3367    2.5502   21.4249 C   0  0  0  0  0  0  0  0  0  0  0  0
    7.8396    2.4237   20.4784 H   0  0  0  0  0  0  0  0  0  0  0  0
    7.4347    4.3374   22.4260 H   0  0  0  0  0  0  0  0  0  0  0  0
   10.3316    1.8685   23.9408 H   0  0  0  0  0  0  0  0  0  0  0  0
   10.7502    0.0390   21.6645 H   0  0  0  0  0  0  0  0  0  0  0  0
    9.8214    0.4635   20.2321 H   0  0  0  0  0  0  0  0  0  0  0  0
    5.6793    0.5526   20.2671 C   0  0  0  0  0  0  0  0  0  0  0  0
    5.2455    0.5280   21.2692 H   0  0  0  0  0  0  0  0  0  0  0  0
    8.2895   -0.6159   18.4279 H   0  0  0  0  0  0  0  0  0  0  0  0
    5.1474    1.7152   17.1129 H   0  0  0  0  0  0  0  0  0  0  0  0
    4.1256    1.7714   19.3756 H   0  0  0  0  0  0  0  0  0  0  0  0
  1  2  2  0
  2  3  1  0
  3  4  2  0
  4  5  1  0
  5  6  1  0
  6  7  1  0
  7  8  2  0
  8  9  1  0
  9 10  1  0
 10 11  1  0
 11 12  1  0
 12 13  1  0
 13 14  1  0
 13 15  1  0
 12 16  1  0
 12 17  1  0
 11 18  1  0
 11 19  1  0
 10 20  1  0
 10 21  1  0
  9 22  1  0
  8 23  1  0
 23 24  2  0
 24 25  1  0
 25 26  1  0
 26 27  2  0
 27 28  1  0
 28 29  1  0
 29 30  2  0
 30 31  1  0
 29 32  1  0
 27 33  1  0
 25 34  1  0
 25 35  1  0
  5 36  2  0
 36 37  1  0
  4 38  1  0
  2 39  1  0
  1 40  1  0
 36  1  1  0
 24  6  1  0
 30 26  1  0
 13  9  1  0
M  END
>  <cnnaffinity>  (1) 
-5.83385

>  <filename>  (1) 
c1cncc(-n2nc(C3CCCC3)nc2Cc2ccoc2)c1

$$$$
