
     RDKit          3D

 40 43  0  0  0  0  0  0  0  0999 V2000
    4.8127    1.3112   19.1092 C   0  0  0  0  0  0  0  0  0  0  0  0
    5.4021    1.2952   17.8376 C   0  0  0  0  0  0  0  0  0  0  0  0
    6.5611    0.6727   17.5790 N   0  0  0  0  0  0  0  0  0  0  0  0
    7.1710    0.0538   18.5942 C   0  0  0  0  0  0  0  0  0  0  0  0
    6.6582    0.0091   19.9035 C   0  0  0  0  0  0  0  0  0  0  0  0
    7.3374   -0.6803   20.9418 N   0  0  0  0  0  0  0  0  0  0  0  0
    6.6658   -1.5333   21.7604 N   0  0  0  0  0  0  0  0  0  0  0  0
    7.6060   -1.9846   22.5625 C   0  0  0  0  0  0  0  0  0  0  0  0
    7.3809   -2.9488   23.6786 C   0  0  0  0  0  0  0  0  0  0  0  0
    7.7321   -2.3775   25.0722 C   0  0  0  0  0  0  0  0  0  0  0  0
    8.0235   -3.6039   25.9571 C   0  0  0  0  0  0  0  0  0  0  0  0
    8.3306   -4.7838   25.0003 C   0  0  0  0  0  0  0  0  0  0  0  0
    8.2314   -4.2318   23.5669 C   0  0  0  0  0  0  0  0  0  0  0  0
    7.7843   -4.9499   22.8707 H   0  0  0  0  0  0  0  0  0  0  0  0
    9.2265   -3.9848   23.1770 H   0  0  0  0  0  0  0  0  0  0  0  0
    9.3199   -5.2130   25.1882 H   0  0  0  0  0  0  0  0  0  0  0  0
    7.6151   -5.5987   25.1592 H   0  0  0  0  0  0  0  0  0  0  0  0
    7.1646   -3.8445   26.5941 H   0  0  0  0  0  0  0  0  0  0  0  0
    8.8559   -3.4061   26.6401 H   0  0  0  0  0  0  0  0  0  0  0  0
    8.6169   -1.7314   24.9960 H   0  0  0  0  0  0  0  0  0  0  0  0
    6.9200   -1.7579   25.4695 H   0  0  0  0  0  0  0  0  0  0  0  0
    6.3186   -3.2004   23.6430 H   0  0  0  0  0  0  0  0  0  0  0  0
    8.8448   -1.4815   22.3260 N   0  0  0  0  0  0  0  0  0  0  0  0
    8.6378   -0.6212   21.3587 C   0  0  0  0  0  0  0  0  0  0  0  0
    9.6716    0.2113   20.6917 C   0  0  0  0  0  0  0  0  0  0  0  0
   10.7431    0.6001   21.5847 N   0  0  0  0  0  0  0  0  0  0  0  0
   11.8910   -0.0734   21.8454 C   0  0  0  0  0  0  0  0  0  0  0  0
   12.5090    0.5715   22.8884 C   0  0  0  0  0  0  0  0  0  0  0  0
   11.6324    1.6361   23.2063 C   0  0  0  0  0  0  0  0  0  0  0  0
   10.5665    1.6363   22.4180 N   0  0  0  0  0  0  0  0  0  0  0  0
   11.7413    2.3971   23.9731 H   0  0  0  0  0  0  0  0  0  0  0  0
   13.4531    0.3240   23.3538 H   0  0  0  0  0  0  0  0  0  0  0  0
   12.1534   -0.9623   21.2808 H   0  0  0  0  0  0  0  0  0  0  0  0
    9.2409    1.1184   20.2670 H   0  0  0  0  0  0  0  0  0  0  0  0
   10.0830   -0.4010   19.8894 H   0  0  0  0  0  0  0  0  0  0  0  0
    5.4391    0.6470   20.1652 C   0  0  0  0  0  0  0  0  0  0  0  0
    5.0171    0.6092   21.1731 H   0  0  0  0  0  0  0  0  0  0  0  0
    8.1142   -0.4324   18.3610 H   0  0  0  0  0  0  0  0  0  0  0  0
    4.9223    1.7841   16.9932 H   0  0  0  0  0  0  0  0  0  0  0  0
    3.8803    1.8401   19.2599 H   0  0  0  0  0  0  0  0  0  0  0  0
  1  2  2  0
  2  3  1  0
  3  4  2  0
  4  5  1  0
  5  6  1  0
  6  7  1  0
  7  8  2  0
  8  9  1  0
  9 10  1  0
 10 11  1  0
 11 12  1  0
 12 13  1  0
 13 14  1  0
 13 15  1  0
 12 16  1  0
 12 17  1  0
 11 18  1  0
 11 19  1  0
 10 20  1  0
 10 21  1  0
  9 22  1  0
  8 23  1  0
 23 24  2  0
 24 25  1  0
 25 26  1  0
 26 27  1  0
 27 28  2  0
 28 29  1  0
 29 30  2  0
 29 31  1  0
 28 32  1  0
 27 33  1  0
 25 34  1  0
 25 35  1  0
  5 36  2  0
 36 37  1  0
  4 38  1  0
  2 39  1  0
  1 40  1  0
 36  1  1  0
 24  6  1  0
 30 26  1  0
 13  9  1  0
M  END
>  <cnnaffinity>  (1) 
-6.19575

>  <filename>  (1) 
c1cncc(-n2nc(C3CCCC3)nc2Cn2cccn2)c1

$$$$
