
     RDKit          3D

 29 31  0  0  0  0  0  0  0  0999 V2000
   11.6462   -1.8951   20.6222 H   0  0  0  0  0  0  0  0  0  0  0  0
   11.0610   -2.1200   21.4975 C   0  0  0  0  0  0  0  0  0  0  0  0
   11.6566   -2.3308   22.6928 N   0  0  0  0  0  0  0  0  0  0  0  0
   10.6431   -2.5928   23.4890 C   0  0  0  0  0  0  0  0  0  0  0  0
   10.7015   -2.8126   24.5500 H   0  0  0  0  0  0  0  0  0  0  0  0
    9.4898   -2.5791   22.7942 N   0  0  0  0  0  0  0  0  0  0  0  0
    8.1255   -2.4586   23.3141 C   0  0  0  0  0  0  0  0  0  0  0  0
    7.4797   -3.0225   22.6397 H   0  0  0  0  0  0  0  0  0  0  0  0
    8.0854   -2.9137   24.3116 H   0  0  0  0  0  0  0  0  0  0  0  0
    7.7106   -1.0231   23.3232 C   0  0  0  0  0  0  0  0  0  0  0  0
    7.3674   -0.2336   22.2477 C   0  0  0  0  0  0  0  0  0  0  0  0
    7.2941   -0.7147   20.9326 N   0  0  0  0  0  0  0  0  0  0  0  0
    8.0583   -1.3476   20.7020 H   0  0  0  0  0  0  0  0  0  0  0  0
    6.6591   -0.0358   19.8917 C   0  0  0  0  0  0  0  0  0  0  0  0
    7.1812    0.0204   18.5765 C   0  0  0  0  0  0  0  0  0  0  0  0
    8.1277   -0.4717   18.3489 H   0  0  0  0  0  0  0  0  0  0  0  0
    6.5892    0.6615   17.5564 N   0  0  0  0  0  0  0  0  0  0  0  0
    5.4286    1.2895   17.8119 C   0  0  0  0  0  0  0  0  0  0  0  0
    4.9697    1.8205   16.9808 H   0  0  0  0  0  0  0  0  0  0  0  0
    4.8176    1.2826   19.0722 C   0  0  0  0  0  0  0  0  0  0  0  0
    3.8894    1.8188   19.2307 H   0  0  0  0  0  0  0  0  0  0  0  0
    5.4369    0.6071   20.1260 C   0  0  0  0  0  0  0  0  0  0  0  0
    5.0253    0.5767   21.1358 H   0  0  0  0  0  0  0  0  0  0  0  0
    7.2559    1.0752   22.7938 C   0  0  0  0  0  0  0  0  0  0  0  0
    6.9996    1.9951   22.2816 H   0  0  0  0  0  0  0  0  0  0  0  0
    7.5560    1.0927   24.0902 N   0  0  0  0  0  0  0  0  0  0  0  0
    7.8389   -0.1878   24.3794 N   0  0  0  0  0  0  0  0  0  0  0  0
    8.1523   -0.4275   25.3104 H   0  0  0  0  0  0  0  0  0  0  0  0
    9.7472   -2.2664   21.4978 N   0  0  0  0  0  0  0  0  0  0  0  0
  1  2  1  0
  2  3  1  0
  3  4  2  0
  4  5  1  0
  4  6  1  0
  6  7  1  0
  7  8  1  0
  7  9  1  0
  7 10  1  0
 10 11  2  0
 11 12  1  0
 12 13  1  0
 12 14  1  0
 14 15  2  0
 15 16  1  0
 15 17  1  0
 17 18  2  0
 18 19  1  0
 18 20  1  0
 20 21  1  0
 20 22  2  0
 22 23  1  0
 11 24  1  0
 24 25  1  0
 24 26  2  0
 26 27  1  0
 27 28  1  0
  6 29  1  0
 29  2  2  0
 27 10  1  0
 22 14  1  0
M  END
>  <cnnaffinity>  (1) 
-5.36207

>  <filename>  (1) 
c1cncc(Nc2cn[nH]c2Cn2cncn2)c1

$$$$
