
     RDKit          3D

 27 29  0  0  0  0  0  0  0  0999 V2000
    4.9191    1.8097   16.9690 H   0  0  0  0  0  0  0  0  0  0  0  0
    5.3848    1.3066   17.8168 C   0  0  0  0  0  0  0  0  0  0  0  0
    6.5431    0.6828   17.5593 N   0  0  0  0  0  0  0  0  0  0  0  0
    7.1516    0.0661   18.5804 C   0  0  0  0  0  0  0  0  0  0  0  0
    8.0962   -0.4206   18.3439 H   0  0  0  0  0  0  0  0  0  0  0  0
    6.6465    0.0055   19.8938 C   0  0  0  0  0  0  0  0  0  0  0  0
    7.3544   -0.7334   20.9821 C   0  0  0  0  0  0  0  0  0  0  0  0
    8.7525   -0.6252   21.1949 C   0  0  0  0  0  0  0  0  0  0  0  0
    9.3702    0.0086   20.5706 H   0  0  0  0  0  0  0  0  0  0  0  0
    9.3837   -1.2654   22.1774 N   0  0  0  0  0  0  0  0  0  0  0  0
    8.7150   -2.0624   23.0155 N   0  0  0  0  0  0  0  0  0  0  0  0
    7.3880   -2.2092   22.8849 C   0  0  0  0  0  0  0  0  0  0  0  0
    6.7485   -3.0635   23.8150 N   0  0  0  0  0  0  0  0  0  0  0  0
    7.3954   -3.8460   24.7668 C   0  0  0  0  0  0  0  0  0  0  0  0
    8.4732   -3.8244   24.8150 H   0  0  0  0  0  0  0  0  0  0  0  0
    6.4530   -4.5204   25.4852 C   0  0  0  0  0  0  0  0  0  0  0  0
    6.6373   -5.2131   26.2936 H   0  0  0  0  0  0  0  0  0  0  0  0
    5.1738   -4.1504   24.9711 C   0  0  0  0  0  0  0  0  0  0  0  0
    4.2024   -4.4804   25.3093 H   0  0  0  0  0  0  0  0  0  0  0  0
    5.3828   -3.2787   23.9488 C   0  0  0  0  0  0  0  0  0  0  0  0
    4.6571   -2.8510   23.2867 H   0  0  0  0  0  0  0  0  0  0  0  0
    6.6674   -1.5537   21.8631 C   0  0  0  0  0  0  0  0  0  0  0  0
    5.5983   -1.6959   21.7498 H   0  0  0  0  0  0  0  0  0  0  0  0
    5.4281    0.6572   20.1364 C   0  0  0  0  0  0  0  0  0  0  0  0
    5.0149    0.6449   21.1462 H   0  0  0  0  0  0  0  0  0  0  0  0
    4.7941    1.3253   19.0844 C   0  0  0  0  0  0  0  0  0  0  0  0
    3.8650    1.8536   19.2333 H   0  0  0  0  0  0  0  0  0  0  0  0
  1  2  1  0
  2  3  2  0
  3  4  1  0
  4  5  1  0
  4  6  2  0
  6  7  1  0
  7  8  2  0
  8  9  1  0
  8 10  1  0
 10 11  2  0
 11 12  1  0
 12 13  1  0
 13 14  1  0
 14 15  1  0
 14 16  2  0
 16 17  1  0
 16 18  1  0
 18 19  1  0
 18 20  2  0
 20 21  1  0
 12 22  2  0
 22 23  1  0
  6 24  1  0
 24 25  1  0
 24 26  2  0
 26 27  1  0
 26  2  1  0
 22  7  1  0
 20 13  1  0
M  END
>  <cnnaffinity>  (1) 
-4.60415

>  <filename>  (1) 
c1cncc(-c2cnnc(-n3cccc3)c2)c1

$$$$
