
     RDKit          3D

 44 47  0  0  0  0  0  0  0  0999 V2000
    8.9385   -3.1231   22.2423 H   0  0  0  0  0  0  0  0  0  0  0  0
    8.4147   -2.2213   21.9493 C   0  0  0  0  0  0  0  0  0  0  0  0
    8.0134   -1.9015   20.7676 N   0  0  0  0  0  0  0  0  0  0  0  0
    7.3694   -0.6837   20.9442 C   0  0  0  0  0  0  0  0  0  0  0  0
    6.6441   -0.0001   19.8843 C   0  0  0  0  0  0  0  0  0  0  0  0
    7.1657    0.0400   18.5803 C   0  0  0  0  0  0  0  0  0  0  0  0
    8.1177   -0.4378   18.3622 H   0  0  0  0  0  0  0  0  0  0  0  0
    6.5633    0.6771   17.5714 N   0  0  0  0  0  0  0  0  0  0  0  0
    5.4023    1.2963   17.8343 C   0  0  0  0  0  0  0  0  0  0  0  0
    4.9286    1.7911   16.9911 H   0  0  0  0  0  0  0  0  0  0  0  0
    4.8004    1.3146   19.0970 C   0  0  0  0  0  0  0  0  0  0  0  0
    3.8718    1.8434   19.2464 H   0  0  0  0  0  0  0  0  0  0  0  0
    5.4292    0.6535   20.1471 C   0  0  0  0  0  0  0  0  0  0  0  0
    5.0097    0.6345   21.1556 H   0  0  0  0  0  0  0  0  0  0  0  0
    7.4686   -0.3182   22.2615 C   0  0  0  0  0  0  0  0  0  0  0  0
    7.1032    0.8124   22.9290 N   0  0  0  0  0  0  0  0  0  0  0  0
    7.3607    2.1212   22.3159 C   0  0  0  0  0  0  0  0  0  0  0  0
    6.4228    2.5986   21.9916 H   0  0  0  0  0  0  0  0  0  0  0  0
    7.9473    1.9487   21.4062 H   0  0  0  0  0  0  0  0  0  0  0  0
    8.1123    3.0576   23.2870 C   0  0  0  0  0  0  0  0  0  0  0  0
    8.7416    3.7572   22.7302 H   0  0  0  0  0  0  0  0  0  0  0  0
    7.3950    3.6772   23.8364 H   0  0  0  0  0  0  0  0  0  0  0  0
    8.9413    2.2699   24.3104 C   0  0  0  0  0  0  0  0  0  0  0  0
    9.4625    2.9912   24.9736 H   0  0  0  0  0  0  0  0  0  0  0  0
    9.9442    1.4223   23.6478 N   0  0  0  0  0  0  0  0  0  0  0  0
   10.8555    2.1727   22.7720 C   0  0  0  0  0  0  0  0  0  0  0  0
   11.1398    3.1469   23.2134 H   0  0  0  0  0  0  0  0  0  0  0  0
   10.3965    2.3789   21.7978 H   0  0  0  0  0  0  0  0  0  0  0  0
   12.0965    1.2973   22.6287 C   0  0  0  0  0  0  0  0  0  0  0  0
   12.0114    0.6303   21.7637 H   0  0  0  0  0  0  0  0  0  0  0  0
   13.0024    1.8919   22.4767 H   0  0  0  0  0  0  0  0  0  0  0  0
   12.1498    0.4845   23.9299 C   0  0  0  0  0  0  0  0  0  0  0  0
   12.9359    0.8161   24.6168 H   0  0  0  0  0  0  0  0  0  0  0  0
   12.3705   -0.5428   23.6676 H   0  0  0  0  0  0  0  0  0  0  0  0
   10.7648    0.6377   24.5880 C   0  0  0  0  0  0  0  0  0  0  0  0
   10.8738    1.1496   25.5612 H   0  0  0  0  0  0  0  0  0  0  0  0
   10.2864   -0.3275   24.8012 H   0  0  0  0  0  0  0  0  0  0  0  0
    7.9596    1.4430   25.1710 C   0  0  0  0  0  0  0  0  0  0  0  0
    7.5300    2.1124   25.9255 H   0  0  0  0  0  0  0  0  0  0  0  0
    8.5048    0.6656   25.7122 H   0  0  0  0  0  0  0  0  0  0  0  0
    6.8078    0.8136   24.3487 C   0  0  0  0  0  0  0  0  0  0  0  0
    6.5911   -0.2118   24.6606 H   0  0  0  0  0  0  0  0  0  0  0  0
    5.8890    1.4011   24.4951 H   0  0  0  0  0  0  0  0  0  0  0  0
    8.1211   -1.3185   22.9226 O   0  0  0  0  0  0  0  0  0  0  0  0
  1  2  1  0
  2  3  2  0
  3  4  1  0
  4  5  1  0
  5  6  2  0
  6  7  1  0
  6  8  1  0
  8  9  2  0
  9 10  1  0
  9 11  1  0
 11 12  1  0
 11 13  2  0
 13 14  1  0
  4 15  2  0
 15 16  1  0
 16 17  1  0
 17 18  1  0
 17 19  1  0
 17 20  1  0
 20 21  1  0
 20 22  1  0
 20 23  1  0
 23 24  1  0
 23 25  1  0
 25 26  1  0
 26 27  1  0
 26 28  1  0
 26 29  1  0
 29 30  1  0
 29 31  1  0
 29 32  1  0
 32 33  1  0
 32 34  1  0
 32 35  1  0
 35 36  1  0
 35 37  1  0
 23 38  1  0
 38 39  1  0
 38 40  1  0
 38 41  1  0
 41 42  1  0
 41 43  1  0
 15 44  1  0
 44  2  1  0
 13  5  1  0
 41 16  1  0
 35 25  1  0
M  END
>  <cnnaffinity>  (1) 
-5.59341

>  <filename>  (1) 
c1cncc(-c2ncoc2N2CCC(N3CCCC3)CC2)c1

$$$$
