
     RDKit          3D

 32 35  0  0  0  0  0  0  0  0999 V2000
    5.0554    2.1574   16.2727 H   0  0  0  0  0  0  0  0  0  0  0  0
    5.2678    1.6772   17.2225 C   0  0  0  0  0  0  0  0  0  0  0  0
    6.3660    0.9091   17.2588 N   0  0  0  0  0  0  0  0  0  0  0  0
    6.6462    0.3131   18.4186 C   0  0  0  0  0  0  0  0  0  0  0  0
    7.5477   -0.2957   18.4557 H   0  0  0  0  0  0  0  0  0  0  0  0
    5.8572    0.4431   19.5676 C   0  0  0  0  0  0  0  0  0  0  0  0
    6.3222   -0.2651   20.7511 C   0  0  0  0  0  0  0  0  0  0  0  0
    7.3360   -1.1645   20.6547 N   0  0  0  0  0  0  0  0  0  0  0  0
    7.5398   -1.5379   21.8995 C   0  0  0  0  0  0  0  0  0  0  0  0
    8.7111   -2.2779   22.3314 C   0  0  0  0  0  0  0  0  0  0  0  0
    9.8994   -1.8585   21.7735 C   0  0  0  0  0  0  0  0  0  0  0  0
    9.8941   -1.1253   20.9686 H   0  0  0  0  0  0  0  0  0  0  0  0
   11.1174   -2.2684   22.1897 N   0  0  0  0  0  0  0  0  0  0  0  0
   11.1549   -3.1682   23.1475 C   0  0  0  0  0  0  0  0  0  0  0  0
   12.1390   -3.5167   23.4631 H   0  0  0  0  0  0  0  0  0  0  0  0
   10.0089   -3.7502   23.7538 C   0  0  0  0  0  0  0  0  0  0  0  0
   10.1257   -4.7659   24.7524 C   0  0  0  0  0  0  0  0  0  0  0  0
   11.1234   -5.0776   25.0605 H   0  0  0  0  0  0  0  0  0  0  0  0
    8.9996   -5.3149   25.3131 C   0  0  0  0  0  0  0  0  0  0  0  0
    9.0840   -6.0658   26.1003 H   0  0  0  0  0  0  0  0  0  0  0  0
    7.7122   -4.8896   24.8795 C   0  0  0  0  0  0  0  0  0  0  0  0
    6.8317   -5.3303   25.3396 H   0  0  0  0  0  0  0  0  0  0  0  0
    7.5683   -3.9142   23.9082 C   0  0  0  0  0  0  0  0  0  0  0  0
    6.5791   -3.6021   23.5834 H   0  0  0  0  0  0  0  0  0  0  0  0
    8.7216   -3.3092   23.3204 C   0  0  0  0  0  0  0  0  0  0  0  0
    6.6655   -0.9025   22.6955 N   0  0  0  0  0  0  0  0  0  0  0  0
    6.5975   -0.9621   23.7009 H   0  0  0  0  0  0  0  0  0  0  0  0
    5.8897   -0.0520   21.9760 N   0  0  0  0  0  0  0  0  0  0  0  0
    4.7155    1.2548   19.5261 C   0  0  0  0  0  0  0  0  0  0  0  0
    4.1054    1.4122   20.4187 H   0  0  0  0  0  0  0  0  0  0  0  0
    4.4112    1.8706   18.3157 C   0  0  0  0  0  0  0  0  0  0  0  0
    3.5386    2.5062   18.2041 H   0  0  0  0  0  0  0  0  0  0  0  0
  1  2  1  0
  2  3  2  0
  3  4  1  0
  4  5  1  0
  4  6  2  0
  6  7  1  0
  7  8  1  0
  8  9  2  0
  9 10  1  0
 10 11  2  0
 11 12  1  0
 11 13  1  0
 13 14  2  0
 14 15  1  0
 14 16  1  0
 16 17  2  0
 17 18  1  0
 17 19  1  0
 19 20  1  0
 19 21  2  0
 21 22  1  0
 21 23  1  0
 23 24  1  0
 23 25  2  0
  9 26  1  0
 26 27  1  0
 26 28  1  0
  6 29  1  0
 29 30  1  0
 29 31  2  0
 31 32  1  0
 31  2  1  0
 28  7  2  0
 25 10  1  0
 25 16  1  0
M  END
>  <cnnaffinity>  (1) 
-5.54579

>  <filename>  (1) 
c1cncc(-c2n[nH]c(-c3cncc4ccccc34)n2)c1

$$$$
