
     RDKit          3D

 26 28  0  0  0  0  0  0  0  0999 V2000
    9.2796   -3.3238   21.3028 H   0  0  0  0  0  0  0  0  0  0  0  0
    8.7237   -2.4367   21.5756 C   0  0  0  0  0  0  0  0  0  0  0  0
    8.7551   -2.1058   22.8614 N   0  0  0  0  0  0  0  0  0  0  0  0
    8.0805   -1.0003   23.2223 C   0  0  0  0  0  0  0  0  0  0  0  0
    8.1307   -0.6288   24.6596 C   0  0  0  0  0  0  0  0  0  0  0  0
    7.4625    0.4802   25.1132 O   0  0  0  0  0  0  0  0  0  0  0  0
    7.6935    0.5662   26.4489 C   0  0  0  0  0  0  0  0  0  0  0  0
    7.2316    1.3953   26.9695 H   0  0  0  0  0  0  0  0  0  0  0  0
    8.4879   -0.4553   26.8582 C   0  0  0  0  0  0  0  0  0  0  0  0
    8.8404   -0.6369   27.8622 H   0  0  0  0  0  0  0  0  0  0  0  0
    8.7731   -1.2322   25.6972 C   0  0  0  0  0  0  0  0  0  0  0  0
    9.3729   -2.1280   25.5996 H   0  0  0  0  0  0  0  0  0  0  0  0
    7.3744   -0.2692   22.2724 C   0  0  0  0  0  0  0  0  0  0  0  0
    6.8448    0.6256   22.5437 H   0  0  0  0  0  0  0  0  0  0  0  0
    7.3994   -0.7223   20.9537 C   0  0  0  0  0  0  0  0  0  0  0  0
    6.6547   -0.0083   19.9040 C   0  0  0  0  0  0  0  0  0  0  0  0
    7.1755    0.0453   18.6050 C   0  0  0  0  0  0  0  0  0  0  0  0
    8.1226   -0.4319   18.3710 H   0  0  0  0  0  0  0  0  0  0  0  0
    6.5745    0.6747   17.5915 N   0  0  0  0  0  0  0  0  0  0  0  0
    5.4087    1.2869   17.8469 C   0  0  0  0  0  0  0  0  0  0  0  0
    4.9274    1.7763   17.0033 H   0  0  0  0  0  0  0  0  0  0  0  0
    4.8093    1.3023   19.1102 C   0  0  0  0  0  0  0  0  0  0  0  0
    3.8803    1.8382   19.2610 H   0  0  0  0  0  0  0  0  0  0  0  0
    5.4415    0.6465   20.1609 C   0  0  0  0  0  0  0  0  0  0  0  0
    4.9939    0.6325   21.1581 H   0  0  0  0  0  0  0  0  0  0  0  0
    8.0996   -1.7942   20.5905 N   0  0  0  0  0  0  0  0  0  0  0  0
  1  2  1  0
  2  3  2  0
  3  4  1  0
  4  5  1  0
  5  6  1  0
  6  7  1  0
  7  8  1  0
  7  9  2  0
  9 10  1  0
  9 11  1  0
 11 12  1  0
  4 13  2  0
 13 14  1  0
 13 15  1  0
 15 16  1  0
 16 17  2  0
 17 18  1  0
 17 19  1  0
 19 20  2  0
 20 21  1  0
 20 22  1  0
 22 23  1  0
 22 24  2  0
 24 25  1  0
 15 26  2  0
 26  2  1  0
 11  5  2  0
 24 16  1  0
M  END
>  <cnnaffinity>  (1) 
-4.67948

>  <filename>  (1) 
c1cncc(-c2cc(-c3ccco3)ncn2)c1

$$$$
