
     RDKit          3D

 38 41  0  0  0  0  0  0  0  0999 V2000
    4.8752    1.3478   19.0205 C   0  0  0  0  0  0  0  0  0  0  0  0
    5.5025    1.2540   17.7753 C   0  0  0  0  0  0  0  0  0  0  0  0
    6.6565    0.6015   17.5780 N   0  0  0  0  0  0  0  0  0  0  0  0
    7.2237    0.0325   18.6501 C   0  0  0  0  0  0  0  0  0  0  0  0
    6.6925    0.0780   19.9484 C   0  0  0  0  0  0  0  0  0  0  0  0
    7.3822   -0.5647   21.1401 C   0  0  0  0  0  0  0  0  0  0  0  0
    7.7100    0.3774   22.2070 N   0  0  0  0  0  0  0  0  0  0  0  0
    6.8903    0.5448   23.2738 N   0  0  0  0  0  0  0  0  0  0  0  0
    7.5031    1.4753   23.9897 C   0  0  0  0  0  0  0  0  0  0  0  0
    7.0660    1.9691   25.3143 C   0  0  0  0  0  0  0  0  0  0  0  0
    7.8024    2.8967   26.0121 C   0  0  0  0  0  0  0  0  0  0  0  0
    7.1292    3.2580   27.5377 S   0  0  0  0  0  0  0  0  0  0  0  0
    5.8312    2.1606   27.2800 C   0  0  0  0  0  0  0  0  0  0  0  0
    5.9140    1.5415   26.0719 C   0  0  0  0  0  0  0  0  0  0  0  0
    5.1971    0.7986   25.7325 H   0  0  0  0  0  0  0  0  0  0  0  0
    5.0880    2.0313   28.0560 H   0  0  0  0  0  0  0  0  0  0  0  0
    8.7249    3.3663   25.6907 H   0  0  0  0  0  0  0  0  0  0  0  0
    8.6559    1.9306   23.4152 N   0  0  0  0  0  0  0  0  0  0  0  0
    8.7608    1.2144   22.3197 C   0  0  0  0  0  0  0  0  0  0  0  0
    9.9088    1.2833   21.3618 C   0  0  0  0  0  0  0  0  0  0  0  0
   11.0613    0.3691   21.6724 C   0  0  0  0  0  0  0  0  0  0  0  0
   12.0302    0.5192   22.6322 C   0  0  0  0  0  0  0  0  0  0  0  0
   12.9447   -0.5635   22.5074 C   0  0  0  0  0  0  0  0  0  0  0  0
   12.4932   -1.3557   21.4833 C   0  0  0  0  0  0  0  0  0  0  0  0
   11.3341   -0.7922   21.0001 N   0  0  0  0  0  0  0  0  0  0  0  0
   10.8288   -1.1218   20.1922 H   0  0  0  0  0  0  0  0  0  0  0  0
   12.9176   -2.2416   21.0343 H   0  0  0  0  0  0  0  0  0  0  0  0
   13.8737   -0.7013   23.0472 H   0  0  0  0  0  0  0  0  0  0  0  0
   12.0926    1.3432   23.3329 H   0  0  0  0  0  0  0  0  0  0  0  0
   10.2608    2.3167   21.4120 H   0  0  0  0  0  0  0  0  0  0  0  0
    9.5415    1.1254   20.3468 H   0  0  0  0  0  0  0  0  0  0  0  0
    8.3061   -1.0651   20.8250 H   0  0  0  0  0  0  0  0  0  0  0  0
    6.7399   -1.3198   21.6057 H   0  0  0  0  0  0  0  0  0  0  0  0
    5.4780    0.7510   20.1288 C   0  0  0  0  0  0  0  0  0  0  0  0
    5.0299    0.8059   21.1238 H   0  0  0  0  0  0  0  0  0  0  0  0
    8.1535   -0.5037   18.4546 H   0  0  0  0  0  0  0  0  0  0  0  0
    5.0621    1.7284   16.9003 H   0  0  0  0  0  0  0  0  0  0  0  0
    3.9453    1.8946   19.1088 H   0  0  0  0  0  0  0  0  0  0  0  0
  1  2  2  0
  2  3  1  0
  3  4  2  0
  4  5  1  0
  5  6  1  0
  6  7  1  0
  7  8  1  0
  8  9  2  0
  9 10  1  0
 10 11  2  0
 11 12  1  0
 12 13  1  0
 13 14  2  0
 14 15  1  0
 13 16  1  0
 11 17  1  0
  9 18  1  0
 18 19  2  0
 19 20  1  0
 20 21  1  0
 21 22  2  0
 22 23  1  0
 23 24  2  0
 24 25  1  0
 25 26  1  0
 24 27  1  0
 23 28  1  0
 22 29  1  0
 20 30  1  0
 20 31  1  0
  6 32  1  0
  6 33  1  0
  5 34  2  0
 34 35  1  0
  4 36  1  0
  2 37  1  0
  1 38  1  0
 34  1  1  0
 19  7  1  0
 25 21  1  0
 14 10  1  0
M  END
>  <cnnaffinity>  (1) 
-5.96035

>  <filename>  (1) 
c1cncc(Cn2nc(-c3ccsc3)nc2Cc2ccc[nH]2)c1

$$$$
