
     RDKit          3D

 29 31  0  0  0  0  0  0  0  0999 V2000
    5.8160   -1.3560   21.8953 H   0  0  0  0  0  0  0  0  0  0  0  0
    6.8725   -1.3989   21.6565 C   0  0  0  0  0  0  0  0  0  0  0  0
    7.7038   -2.1358   22.4519 N   0  0  0  0  0  0  0  0  0  0  0  0
    8.9073   -2.1244   21.9629 C   0  0  0  0  0  0  0  0  0  0  0  0
    9.9255   -2.8113   22.5516 N   0  0  0  0  0  0  0  0  0  0  0  0
   10.8379   -2.4386   22.3376 H   0  0  0  0  0  0  0  0  0  0  0  0
    9.7286   -3.2344   23.9318 C   0  0  0  0  0  0  0  0  0  0  0  0
   10.4662   -4.0165   24.1653 H   0  0  0  0  0  0  0  0  0  0  0  0
    8.7390   -3.7044   24.0089 H   0  0  0  0  0  0  0  0  0  0  0  0
    9.7918   -2.0930   24.9267 C   0  0  0  0  0  0  0  0  0  0  0  0
   10.8083   -0.7108   24.6989 S   0  0  0  0  0  0  0  0  0  0  0  0
   10.3834   -0.0716   26.2307 C   0  0  0  0  0  0  0  0  0  0  0  0
   10.8585    0.8374   26.5672 H   0  0  0  0  0  0  0  0  0  0  0  0
    9.4621   -0.8423   26.8728 C   0  0  0  0  0  0  0  0  0  0  0  0
    9.0879   -0.5805   27.8593 H   0  0  0  0  0  0  0  0  0  0  0  0
    9.1043   -1.9981   26.1046 C   0  0  0  0  0  0  0  0  0  0  0  0
    8.3780   -2.7505   26.3998 H   0  0  0  0  0  0  0  0  0  0  0  0
    9.1021   -1.2301   20.4741 S   0  0  0  0  0  0  0  0  0  0  0  0
    7.4059   -0.8081   20.5522 C   0  0  0  0  0  0  0  0  0  0  0  0
    6.7418    0.0249   19.5390 C   0  0  0  0  0  0  0  0  0  0  0  0
    7.2071    0.1393   18.2076 C   0  0  0  0  0  0  0  0  0  0  0  0
    8.1357   -0.3464   17.9107 H   0  0  0  0  0  0  0  0  0  0  0  0
    6.5644    0.8095   17.2443 N   0  0  0  0  0  0  0  0  0  0  0  0
    5.4254    1.4400   17.5789 C   0  0  0  0  0  0  0  0  0  0  0  0
    4.9194    1.9746   16.7781 H   0  0  0  0  0  0  0  0  0  0  0  0
    4.8975    1.4360   18.8722 C   0  0  0  0  0  0  0  0  0  0  0  0
    3.9877    1.9834   19.0894 H   0  0  0  0  0  0  0  0  0  0  0  0
    5.5677    0.7248   19.8669 C   0  0  0  0  0  0  0  0  0  0  0  0
    5.2043    0.7175   20.8930 H   0  0  0  0  0  0  0  0  0  0  0  0
  1  2  1  0
  2  3  1  0
  3  4  2  0
  4  5  1  0
  5  6  1  0
  5  7  1  0
  7  8  1  0
  7  9  1  0
  7 10  1  0
 10 11  1  0
 11 12  1  0
 12 13  1  0
 12 14  2  0
 14 15  1  0
 14 16  1  0
 16 17  1  0
  4 18  1  0
 18 19  1  0
 19 20  1  0
 20 21  2  0
 21 22  1  0
 21 23  1  0
 23 24  2  0
 24 25  1  0
 24 26  1  0
 26 27  1  0
 26 28  2  0
 28 29  1  0
 19  2  2  0
 28 20  1  0
 16 10  2  0
M  END
>  <cnnaffinity>  (1) 
-5.08853

>  <filename>  (1) 
c1cncc(-c2cnc(NCc3cccs3)s2)c1

$$$$
