
     RDKit          3D

 31 33  0  0  0  0  0  0  0  0999 V2000
    9.4842   -0.8343   20.3443 H   0  0  0  0  0  0  0  0  0  0  0  0
    8.7377   -1.0651   21.0962 C   0  0  0  0  0  0  0  0  0  0  0  0
    9.1334   -1.7360   22.2240 N   0  0  0  0  0  0  0  0  0  0  0  0
    8.0975   -1.9213   22.9903 C   0  0  0  0  0  0  0  0  0  0  0  0
    8.2392   -2.6363   24.1255 N   0  0  0  0  0  0  0  0  0  0  0  0
    9.2300   -2.7783   24.2693 H   0  0  0  0  0  0  0  0  0  0  0  0
    7.2193   -2.7276   25.1582 C   0  0  0  0  0  0  0  0  0  0  0  0
    7.5654   -3.4695   25.8860 H   0  0  0  0  0  0  0  0  0  0  0  0
    6.2952   -3.1198   24.7082 H   0  0  0  0  0  0  0  0  0  0  0  0
    6.8814   -1.4104   25.8749 C   0  0  0  0  0  0  0  0  0  0  0  0
    5.6275   -0.7841   25.7484 C   0  0  0  0  0  0  0  0  0  0  0  0
    4.8416   -1.2172   25.1369 H   0  0  0  0  0  0  0  0  0  0  0  0
    5.3982    0.4381   26.3898 C   0  0  0  0  0  0  0  0  0  0  0  0
    4.4396    0.9516   26.2805 H   0  0  0  0  0  0  0  0  0  0  0  0
    6.3114    1.0538   27.1501 N   0  0  0  0  0  0  0  0  0  0  0  0
    7.4986    0.4531   27.2932 C   0  0  0  0  0  0  0  0  0  0  0  0
    8.2287    0.9716   27.9184 H   0  0  0  0  0  0  0  0  0  0  0  0
    7.8257   -0.7642   26.6875 C   0  0  0  0  0  0  0  0  0  0  0  0
    8.8126   -1.1883   26.8483 H   0  0  0  0  0  0  0  0  0  0  0  0
    6.6016   -1.2549   22.4229 S   0  0  0  0  0  0  0  0  0  0  0  0
    7.4203   -0.7135   20.9787 C   0  0  0  0  0  0  0  0  0  0  0  0
    6.6845   -0.0059   19.9176 C   0  0  0  0  0  0  0  0  0  0  0  0
    7.1737    0.0548   18.5936 C   0  0  0  0  0  0  0  0  0  0  0  0
    8.1125   -0.4287   18.3342 H   0  0  0  0  0  0  0  0  0  0  0  0
    6.5591    0.6728   17.5790 N   0  0  0  0  0  0  0  0  0  0  0  0
    5.3988    1.2921   17.8381 C   0  0  0  0  0  0  0  0  0  0  0  0
    4.9273    1.7952   16.9944 H   0  0  0  0  0  0  0  0  0  0  0  0
    4.8116    1.3039   19.1069 C   0  0  0  0  0  0  0  0  0  0  0  0
    3.8791    1.8350   19.2543 H   0  0  0  0  0  0  0  0  0  0  0  0
    5.4547    0.6456   20.1576 C   0  0  0  0  0  0  0  0  0  0  0  0
    5.0224    0.6331   21.1565 H   0  0  0  0  0  0  0  0  0  0  0  0
  1  2  1  0
  2  3  1  0
  3  4  2  0
  4  5  1  0
  5  6  1  0
  5  7  1  0
  7  8  1  0
  7  9  1  0
  7 10  1  0
 10 11  2  0
 11 12  1  0
 11 13  1  0
 13 14  1  0
 13 15  2  0
 15 16  1  0
 16 17  1  0
 16 18  2  0
 18 19  1  0
  4 20  1  0
 20 21  1  0
 21 22  1  0
 22 23  2  0
 23 24  1  0
 23 25  1  0
 25 26  2  0
 26 27  1  0
 26 28  1  0
 28 29  1  0
 28 30  2  0
 30 31  1  0
 21  2  2  0
 30 22  1  0
 18 10  1  0
M  END
>  <cnnaffinity>  (1) 
-4.92442

>  <filename>  (1) 
c1cncc(-c2cnc(NCc3ccncc3)s2)c1

$$$$
