
     RDKit          3D

 29 32  0  0  0  0  0  0  0  0999 V2000
    4.9331    1.8088   16.9746 H   0  0  0  0  0  0  0  0  0  0  0  0
    5.4022    1.2953   17.8149 C   0  0  0  0  0  0  0  0  0  0  0  0
    6.5627    0.6707   17.5622 N   0  0  0  0  0  0  0  0  0  0  0  0
    7.1658    0.0341   18.5719 C   0  0  0  0  0  0  0  0  0  0  0  0
    8.1174   -0.4328   18.3273 H   0  0  0  0  0  0  0  0  0  0  0  0
    6.6395   -0.0360   19.8739 C   0  0  0  0  0  0  0  0  0  0  0  0
    7.3673   -0.7182   20.9584 C   0  0  0  0  0  0  0  0  0  0  0  0
    8.4604   -1.4571   20.7187 N   0  0  0  0  0  0  0  0  0  0  0  0
    8.8904   -1.7623   21.9613 N   0  0  0  0  0  0  0  0  0  0  0  0
   10.0907   -2.2285   22.4840 C   0  0  0  0  0  0  0  0  0  0  0  0
   10.8370   -2.6104   21.8067 H   0  0  0  0  0  0  0  0  0  0  0  0
   10.0260   -2.0315   23.8262 C   0  0  0  0  0  0  0  0  0  0  0  0
   10.7637   -2.1943   24.6007 H   0  0  0  0  0  0  0  0  0  0  0  0
    8.7804   -1.4601   24.1357 N   0  0  0  0  0  0  0  0  0  0  0  0
    8.3135   -0.9526   25.3546 C   0  0  0  0  0  0  0  0  0  0  0  0
    9.1571   -0.7314   26.3543 N   0  0  0  0  0  0  0  0  0  0  0  0
    8.3954   -0.2000   27.3188 N   0  0  0  0  0  0  0  0  0  0  0  0
    8.8370    0.0763   28.1842 H   0  0  0  0  0  0  0  0  0  0  0  0
    7.0916   -0.0912   26.9708 C   0  0  0  0  0  0  0  0  0  0  0  0
    6.3540    0.2974   27.6599 H   0  0  0  0  0  0  0  0  0  0  0  0
    6.9841   -0.5768   25.6897 C   0  0  0  0  0  0  0  0  0  0  0  0
    6.1154   -0.6718   25.0446 H   0  0  0  0  0  0  0  0  0  0  0  0
    8.1138   -1.2623   22.9412 C   0  0  0  0  0  0  0  0  0  0  0  0
    7.0886   -0.5626   22.3365 C   0  0  0  0  0  0  0  0  0  0  0  0
    6.3370    0.0746   22.7634 H   0  0  0  0  0  0  0  0  0  0  0  0
    5.4312    0.6377   20.1226 C   0  0  0  0  0  0  0  0  0  0  0  0
    4.9914    0.6431   21.1192 H   0  0  0  0  0  0  0  0  0  0  0  0
    4.8018    1.3075   19.0778 C   0  0  0  0  0  0  0  0  0  0  0  0
    3.8719    1.8459   19.2340 H   0  0  0  0  0  0  0  0  0  0  0  0
  1  2  1  0
  2  3  2  0
  3  4  1  0
  4  5  1  0
  4  6  2  0
  6  7  1  0
  7  8  2  0
  8  9  1  0
  9 10  1  0
 10 11  1  0
 10 12  2  0
 12 13  1  0
 12 14  1  0
 14 15  1  0
 15 16  2  0
 16 17  1  0
 17 18  1  0
 17 19  1  0
 19 20  1  0
 19 21  2  0
 21 22  1  0
 14 23  1  0
 23 24  2  0
 24 25  1  0
  6 26  1  0
 26 27  1  0
 26 28  2  0
 28 29  1  0
 28  2  1  0
 24  7  1  0
 23  9  1  0
 21 15  1  0
M  END
>  <cnnaffinity>  (1) 
-5.22637

>  <filename>  (1) 
c1cncc(-c2cc3n(-c4cc[nH]n4)ccn3n2)c1

$$$$
