
     RDKit          3D

 33 36  0  0  0  0  0  0  0  0999 V2000
    4.9275    1.7742   17.0008 H   0  0  0  0  0  0  0  0  0  0  0  0
    5.4077    1.2861   17.8477 C   0  0  0  0  0  0  0  0  0  0  0  0
    6.5717    0.6676   17.5984 N   0  0  0  0  0  0  0  0  0  0  0  0
    7.1770    0.0531   18.6180 C   0  0  0  0  0  0  0  0  0  0  0  0
    8.1220   -0.4271   18.3733 H   0  0  0  0  0  0  0  0  0  0  0  0
    6.6565    0.0032   19.9185 C   0  0  0  0  0  0  0  0  0  0  0  0
    7.3663   -0.7040   20.9900 C   0  0  0  0  0  0  0  0  0  0  0  0
    6.8940   -0.7815   22.1990 N   0  0  0  0  0  0  0  0  0  0  0  0
    7.7179   -1.4935   23.0353 C   0  0  0  0  0  0  0  0  0  0  0  0
    7.3619   -1.7652   24.4495 C   0  0  0  0  0  0  0  0  0  0  0  0
    7.4969   -3.0620   24.9335 C   0  0  0  0  0  0  0  0  0  0  0  0
    7.8699   -3.8533   24.2858 H   0  0  0  0  0  0  0  0  0  0  0  0
    7.1189   -3.4013   26.2535 C   0  0  0  0  0  0  0  0  0  0  0  0
    7.2198   -4.4298   26.5956 H   0  0  0  0  0  0  0  0  0  0  0  0
    6.6096   -2.4352   27.0870 C   0  0  0  0  0  0  0  0  0  0  0  0
    6.2319   -2.6871   28.0689 H   0  0  0  0  0  0  0  0  0  0  0  0
    6.4975   -1.0815   26.6650 C   0  0  0  0  0  0  0  0  0  0  0  0
    5.9944   -0.0780   27.5514 C   0  0  0  0  0  0  0  0  0  0  0  0
    5.6953   -0.3750   28.5574 H   0  0  0  0  0  0  0  0  0  0  0  0
    5.9036    1.2322   27.1489 C   0  0  0  0  0  0  0  0  0  0  0  0
    5.5219    1.9941   27.8263 H   0  0  0  0  0  0  0  0  0  0  0  0
    6.3218    1.6057   25.8415 C   0  0  0  0  0  0  0  0  0  0  0  0
    6.2538    2.6460   25.5308 H   0  0  0  0  0  0  0  0  0  0  0  0
    6.8098    0.6627   24.9646 C   0  0  0  0  0  0  0  0  0  0  0  0
    7.1313    0.9438   23.9637 H   0  0  0  0  0  0  0  0  0  0  0  0
    6.8897   -0.7218   25.3321 C   0  0  0  0  0  0  0  0  0  0  0  0
    8.8537   -1.9565   22.4355 C   0  0  0  0  0  0  0  0  0  0  0  0
    9.6437   -2.5114   22.9115 H   0  0  0  0  0  0  0  0  0  0  0  0
    8.9153   -1.4872   20.7882 S   0  0  0  0  0  0  0  0  0  0  0  0
    5.4334    0.6535   20.1682 C   0  0  0  0  0  0  0  0  0  0  0  0
    5.0062    0.6318   21.1740 H   0  0  0  0  0  0  0  0  0  0  0  0
    4.8062    1.3088   19.1113 C   0  0  0  0  0  0  0  0  0  0  0  0
    3.8737    1.8433   19.2580 H   0  0  0  0  0  0  0  0  0  0  0  0
  1  2  1  0
  2  3  2  0
  3  4  1  0
  4  5  1  0
  4  6  2  0
  6  7  1  0
  7  8  2  0
  8  9  1  0
  9 10  1  0
 10 11  2  0
 11 12  1  0
 11 13  1  0
 13 14  1  0
 13 15  2  0
 15 16  1  0
 15 17  1  0
 17 18  2  0
 18 19  1  0
 18 20  1  0
 20 21  1  0
 20 22  2  0
 22 23  1  0
 22 24  1  0
 24 25  1  0
 24 26  2  0
  9 27  2  0
 27 28  1  0
 27 29  1  0
  6 30  1  0
 30 31  1  0
 30 32  2  0
 32 33  1  0
 32  2  1  0
 29  7  1  0
 26 10  1  0
 26 17  1  0
M  END
>  <cnnaffinity>  (1) 
-5.32769

>  <filename>  (1) 
c1cncc(-c2nc(-c3cccc4ccccc34)cs2)c1

$$$$
