
     RDKit          3D

 32 34  0  0  0  0  0  0  0  0999 V2000
    4.9432    1.8044   16.9809 H   0  0  0  0  0  0  0  0  0  0  0  0
    5.4026    1.2955   17.8250 C   0  0  0  0  0  0  0  0  0  0  0  0
    6.5607    0.6688   17.5644 N   0  0  0  0  0  0  0  0  0  0  0  0
    7.1561    0.0296   18.5747 C   0  0  0  0  0  0  0  0  0  0  0  0
    8.1084   -0.4480   18.3579 H   0  0  0  0  0  0  0  0  0  0  0  0
    6.6386   -0.0173   19.8772 C   0  0  0  0  0  0  0  0  0  0  0  0
    7.3779   -0.7105   20.9230 C   0  0  0  0  0  0  0  0  0  0  0  0
    8.0016   -1.9274   20.7597 N   0  0  0  0  0  0  0  0  0  0  0  0
    8.4799   -2.2277   21.9361 C   0  0  0  0  0  0  0  0  0  0  0  0
    9.0044   -3.1430   22.1826 H   0  0  0  0  0  0  0  0  0  0  0  0
    8.2228   -1.2553   22.8646 N   0  0  0  0  0  0  0  0  0  0  0  0
    8.5565   -1.1798   23.8068 H   0  0  0  0  0  0  0  0  0  0  0  0
    7.5332   -0.2717   22.2293 C   0  0  0  0  0  0  0  0  0  0  0  0
    7.0445    0.8416   22.8846 N   0  0  0  0  0  0  0  0  0  0  0  0
    6.9075    1.6123   22.2446 H   0  0  0  0  0  0  0  0  0  0  0  0
    7.4516    1.2406   24.2224 C   0  0  0  0  0  0  0  0  0  0  0  0
    7.1706    0.4603   24.9386 H   0  0  0  0  0  0  0  0  0  0  0  0
    6.8446    2.1174   24.4655 H   0  0  0  0  0  0  0  0  0  0  0  0
    8.9322    1.5641   24.4277 C   0  0  0  0  0  0  0  0  0  0  0  0
    9.6023    2.5642   23.7007 C   0  0  0  0  0  0  0  0  0  0  0  0
    9.0901    3.1638   22.9528 H   0  0  0  0  0  0  0  0  0  0  0  0
   10.9683    2.7882   23.9238 C   0  0  0  0  0  0  0  0  0  0  0  0
   11.4957    3.5659   23.3679 H   0  0  0  0  0  0  0  0  0  0  0  0
   11.7077    2.0786   24.7880 N   0  0  0  0  0  0  0  0  0  0  0  0
   11.0736    1.1166   25.4716 C   0  0  0  0  0  0  0  0  0  0  0  0
   11.6706    0.4866   26.1282 H   0  0  0  0  0  0  0  0  0  0  0  0
    9.7079    0.8510   25.3576 C   0  0  0  0  0  0  0  0  0  0  0  0
    9.2932    0.0822   26.0020 H   0  0  0  0  0  0  0  0  0  0  0  0
    5.4262    0.6496   20.1381 C   0  0  0  0  0  0  0  0  0  0  0  0
    5.0048    0.6392   21.1468 H   0  0  0  0  0  0  0  0  0  0  0  0
    4.7949    1.3111   19.0875 C   0  0  0  0  0  0  0  0  0  0  0  0
    3.8636    1.8496   19.2319 H   0  0  0  0  0  0  0  0  0  0  0  0
  1  2  1  0
  2  3  2  0
  3  4  1  0
  4  5  1  0
  4  6  2  0
  6  7  1  0
  7  8  1  0
  8  9  2  0
  9 10  1  0
  9 11  1  0
 11 12  1  0
 11 13  1  0
 13 14  1  0
 14 15  1  0
 14 16  1  0
 16 17  1  0
 16 18  1  0
 16 19  1  0
 19 20  2  0
 20 21  1  0
 20 22  1  0
 22 23  1  0
 22 24  2  0
 24 25  1  0
 25 26  1  0
 25 27  2  0
 27 28  1  0
  6 29  1  0
 29 30  1  0
 29 31  2  0
 31 32  1  0
 31  2  1  0
 13  7  2  0
 27 19  1  0
M  END
>  <cnnaffinity>  (1) 
-5.18176

>  <filename>  (1) 
c1cncc(-c2nc[nH]c2NCc2ccncc2)c1

$$$$
