
     RDKit          3D

 42 45  0  0  0  0  0  0  0  0999 V2000
    4.7992    1.3144   19.0952 C   0  0  0  0  0  0  0  0  0  0  0  0
    5.3954    1.3001   17.8291 C   0  0  0  0  0  0  0  0  0  0  0  0
    6.5592    0.6880   17.5640 N   0  0  0  0  0  0  0  0  0  0  0  0
    7.1587    0.0611   18.5854 C   0  0  0  0  0  0  0  0  0  0  0  0
    6.6423   -0.0102   19.8891 C   0  0  0  0  0  0  0  0  0  0  0  0
    7.4054   -0.6750   20.9987 C   0  0  0  0  0  0  0  0  0  0  0  0
    8.3149    0.3248   21.7295 C   0  0  0  0  0  0  0  0  0  0  0  0
    9.0977   -0.3316   22.8797 C   0  0  0  0  0  0  0  0  0  0  0  0
    8.2034   -0.8965   23.9336 C   0  0  0  0  0  0  0  0  0  0  0  0
    7.9710   -2.1769   24.1451 N   0  0  0  0  0  0  0  0  0  0  0  0
    6.9764   -2.1593   25.0738 C   0  0  0  0  0  0  0  0  0  0  0  0
    6.3293   -3.4125   25.5461 C   0  0  0  0  0  0  0  0  0  0  0  0
    5.7321   -4.3736   24.5441 C   0  0  0  0  0  0  0  0  0  0  0  0
    4.8345   -3.5611   25.4309 C   0  0  0  0  0  0  0  0  0  0  0  0
    4.3073   -2.7160   24.9939 H   0  0  0  0  0  0  0  0  0  0  0  0
    4.2920   -4.0541   26.2334 H   0  0  0  0  0  0  0  0  0  0  0  0
    5.8107   -4.0955   23.4951 H   0  0  0  0  0  0  0  0  0  0  0  0
    5.8149   -5.4443   24.7197 H   0  0  0  0  0  0  0  0  0  0  0  0
    6.8201   -3.8508   26.4114 H   0  0  0  0  0  0  0  0  0  0  0  0
    6.5896   -0.9543   25.4541 N   0  0  0  0  0  0  0  0  0  0  0  0
    7.3912   -0.1342   24.7258 N   0  0  0  0  0  0  0  0  0  0  0  0
    7.3031    1.2817   24.8504 C   0  0  0  0  0  0  0  0  0  0  0  0
    8.4404    2.0685   25.0733 C   0  0  0  0  0  0  0  0  0  0  0  0
    8.2785    3.4532   25.1575 C   0  0  0  0  0  0  0  0  0  0  0  0
    7.0008    4.0008   25.0176 C   0  0  0  0  0  0  0  0  0  0  0  0
    5.9067    3.2547   24.8163 N   0  0  0  0  0  0  0  0  0  0  0  0
    6.0582    1.9288   24.7461 C   0  0  0  0  0  0  0  0  0  0  0  0
    5.1483    1.3589   24.5860 H   0  0  0  0  0  0  0  0  0  0  0  0
    6.8460    5.0769   25.0768 H   0  0  0  0  0  0  0  0  0  0  0  0
    9.1302    4.0985   25.3249 H   0  0  0  0  0  0  0  0  0  0  0  0
    9.4190    1.6039   25.2010 H   0  0  0  0  0  0  0  0  0  0  0  0
    9.7020   -1.1591   22.4951 H   0  0  0  0  0  0  0  0  0  0  0  0
    9.7909    0.3909   23.3203 H   0  0  0  0  0  0  0  0  0  0  0  0
    7.7121    1.1596   22.1134 H   0  0  0  0  0  0  0  0  0  0  0  0
    9.0171    0.7637   21.0104 H   0  0  0  0  0  0  0  0  0  0  0  0
    8.0150   -1.4997   20.6036 H   0  0  0  0  0  0  0  0  0  0  0  0
    6.7055   -1.1308   21.7141 H   0  0  0  0  0  0  0  0  0  0  0  0
    5.4326    0.6473   20.1440 C   0  0  0  0  0  0  0  0  0  0  0  0
    5.0108    0.6365   21.1544 H   0  0  0  0  0  0  0  0  0  0  0  0
    8.1099   -0.4186   18.3554 H   0  0  0  0  0  0  0  0  0  0  0  0
    4.9153    1.7910   16.9867 H   0  0  0  0  0  0  0  0  0  0  0  0
    3.8699    1.8476   19.2505 H   0  0  0  0  0  0  0  0  0  0  0  0
  1  2  2  0
  2  3  1  0
  3  4  2  0
  4  5  1  0
  5  6  1  0
  6  7  1  0
  7  8  1  0
  8  9  1  0
  9 10  2  0
 10 11  1  0
 11 12  1  0
 12 13  1  0
 13 14  1  0
 14 15  1  0
 14 16  1  0
 13 17  1  0
 13 18  1  0
 12 19  1  0
 11 20  2  0
 20 21  1  0
 21 22  1  0
 22 23  2  0
 23 24  1  0
 24 25  2  0
 25 26  1  0
 26 27  2  0
 27 28  1  0
 25 29  1  0
 24 30  1  0
 23 31  1  0
  8 32  1  0
  8 33  1  0
  7 34  1  0
  7 35  1  0
  6 36  1  0
  6 37  1  0
  5 38  2  0
 38 39  1  0
  4 40  1  0
  2 41  1  0
  1 42  1  0
 38  1  1  0
 21  9  1  0
 27 22  1  0
 14 12  1  0
M  END
>  <cnnaffinity>  (1) 
-5.68508

>  <filename>  (1) 
c1cncc(CCCc2nc(C3CC3)nn2-c2cccnc2)c1

$$$$
