
     RDKit          3D

 35 38  0  0  0  0  0  0  0  0999 V2000
    4.9342    1.7792   17.0006 H   0  0  0  0  0  0  0  0  0  0  0  0
    5.4104    1.2854   17.8467 C   0  0  0  0  0  0  0  0  0  0  0  0
    6.5770    0.6675   17.5986 N   0  0  0  0  0  0  0  0  0  0  0  0
    7.1679    0.0365   18.6179 C   0  0  0  0  0  0  0  0  0  0  0  0
    8.1155   -0.4434   18.3757 H   0  0  0  0  0  0  0  0  0  0  0  0
    6.6478   -0.0003   19.9175 C   0  0  0  0  0  0  0  0  0  0  0  0
    7.3860   -0.7132   20.9840 C   0  0  0  0  0  0  0  0  0  0  0  0
    7.7576   -1.9625   20.6735 N   0  0  0  0  0  0  0  0  0  0  0  0
    8.3144   -2.7168   21.6206 C   0  0  0  0  0  0  0  0  0  0  0  0
    8.5597   -3.7395   21.3355 H   0  0  0  0  0  0  0  0  0  0  0  0
    8.5907   -2.2585   22.9106 C   0  0  0  0  0  0  0  0  0  0  0  0
    9.0612   -2.9109   23.6355 H   0  0  0  0  0  0  0  0  0  0  0  0
    8.2589   -0.9501   23.2332 C   0  0  0  0  0  0  0  0  0  0  0  0
    8.4581   -0.5308   24.2236 H   0  0  0  0  0  0  0  0  0  0  0  0
    7.6572   -0.1490   22.2520 C   0  0  0  0  0  0  0  0  0  0  0  0
    7.3685    1.2881   22.5668 C   0  0  0  0  0  0  0  0  0  0  0  0
    6.7520    1.5391   23.7036 N   0  0  0  0  0  0  0  0  0  0  0  0
    6.4905    2.8464   24.0291 C   0  0  0  0  0  0  0  0  0  0  0  0
    5.8216    3.1360   25.2659 C   0  0  0  0  0  0  0  0  0  0  0  0
    5.5491    2.2895   25.8860 H   0  0  0  0  0  0  0  0  0  0  0  0
    5.5535    4.4413   25.6289 C   0  0  0  0  0  0  0  0  0  0  0  0
    5.0415    4.6622   26.5659 H   0  0  0  0  0  0  0  0  0  0  0  0
    5.9362    5.5293   24.7871 C   0  0  0  0  0  0  0  0  0  0  0  0
    5.7113    6.5533   25.0887 H   0  0  0  0  0  0  0  0  0  0  0  0
    6.5858    5.2888   23.5984 C   0  0  0  0  0  0  0  0  0  0  0  0
    6.8862    6.1034   22.9382 H   0  0  0  0  0  0  0  0  0  0  0  0
    6.8809    3.9462   23.1989 C   0  0  0  0  0  0  0  0  0  0  0  0
    7.5718    3.6419   21.9921 C   0  0  0  0  0  0  0  0  0  0  0  0
    7.8830    4.4772   21.3573 H   0  0  0  0  0  0  0  0  0  0  0  0
    7.8072    2.3260   21.6745 C   0  0  0  0  0  0  0  0  0  0  0  0
    8.3124    2.0400   20.7581 H   0  0  0  0  0  0  0  0  0  0  0  0
    5.4245    0.6394   20.1658 C   0  0  0  0  0  0  0  0  0  0  0  0
    5.0009    0.6466   21.1758 H   0  0  0  0  0  0  0  0  0  0  0  0
    4.8044    1.2968   19.1067 C   0  0  0  0  0  0  0  0  0  0  0  0
    3.8782    1.8374   19.2509 H   0  0  0  0  0  0  0  0  0  0  0  0
  1  2  1  0
  2  3  2  0
  3  4  1  0
  4  5  1  0
  4  6  2  0
  6  7  1  0
  7  8  2  0
  8  9  1  0
  9 10  1  0
  9 11  2  0
 11 12  1  0
 11 13  1  0
 13 14  1  0
 13 15  2  0
 15 16  1  0
 16 17  2  0
 17 18  1  0
 18 19  2  0
 19 20  1  0
 19 21  1  0
 21 22  1  0
 21 23  2  0
 23 24  1  0
 23 25  1  0
 25 26  1  0
 25 27  2  0
 27 28  1  0
 28 29  1  0
 28 30  2  0
 30 31  1  0
  6 32  1  0
 32 33  1  0
 32 34  2  0
 34 35  1  0
 34  2  1  0
 15  7  1  0
 30 16  1  0
 27 18  1  0
M  END
>  <cnnaffinity>  (1) 
-5.155

>  <filename>  (1) 
c1cncc(-c2ncccc2-c2ccc3ccccc3n2)c1

$$$$
