
     RDKit          3D

 47 50  0  0  0  0  0  0  0  0999 V2000
    4.8074    1.3132   19.1022 C   0  0  0  0  0  0  0  0  0  0  0  0
    5.3941    1.2980   17.8317 C   0  0  0  0  0  0  0  0  0  0  0  0
    6.5464    0.6638   17.5665 N   0  0  0  0  0  0  0  0  0  0  0  0
    7.1590    0.0395   18.5800 C   0  0  0  0  0  0  0  0  0  0  0  0
    6.6554    0.0002   19.8914 C   0  0  0  0  0  0  0  0  0  0  0  0
    7.3505   -0.6835   20.9254 N   0  0  0  0  0  0  0  0  0  0  0  0
    6.7260   -1.6367   21.6674 N   0  0  0  0  0  0  0  0  0  0  0  0
    7.6591   -2.0114   22.5163 C   0  0  0  0  0  0  0  0  0  0  0  0
    7.4281   -3.0319   23.5978 C   0  0  0  0  0  0  0  0  0  0  0  0
    8.5150   -4.1414   23.5891 C   0  0  0  0  0  0  0  0  0  0  0  0
    8.3294   -5.0818   24.7830 C   0  0  0  0  0  0  0  0  0  0  0  0
    8.3242   -4.3748   26.0095 O   0  0  0  0  0  0  0  0  0  0  0  0
    7.2693   -3.4351   26.0987 C   0  0  0  0  0  0  0  0  0  0  0  0
    7.3715   -2.3669   25.0065 C   0  0  0  0  0  0  0  0  0  0  0  0
    8.2819   -1.7696   25.1652 H   0  0  0  0  0  0  0  0  0  0  0  0
    6.5148   -1.6833   25.0800 H   0  0  0  0  0  0  0  0  0  0  0  0
    6.2928   -3.9513   26.0232 H   0  0  0  0  0  0  0  0  0  0  0  0
    7.3451   -3.0007   27.0993 H   0  0  0  0  0  0  0  0  0  0  0  0
    9.1471   -5.8034   24.8620 H   0  0  0  0  0  0  0  0  0  0  0  0
    7.3843   -5.6462   24.6664 H   0  0  0  0  0  0  0  0  0  0  0  0
    8.4748   -4.7174   22.6559 H   0  0  0  0  0  0  0  0  0  0  0  0
    9.5102   -3.6761   23.6411 H   0  0  0  0  0  0  0  0  0  0  0  0
    6.4437   -3.4679   23.3658 H   0  0  0  0  0  0  0  0  0  0  0  0
    8.8440   -1.3559   22.3898 N   0  0  0  0  0  0  0  0  0  0  0  0
    8.6202   -0.5132   21.4035 C   0  0  0  0  0  0  0  0  0  0  0  0
    9.5622    0.5687   20.9919 C   0  0  0  0  0  0  0  0  0  0  0  0
    9.5052    1.7871   21.9343 C   0  0  0  0  0  0  0  0  0  0  0  0
    8.1421    2.4956   21.9108 C   0  0  0  0  0  0  0  0  0  0  0  0
    8.1238    3.7218   22.7924 C   0  0  0  0  0  0  0  0  0  0  0  0
    8.4695    4.9851   22.4072 C   0  0  0  0  0  0  0  0  0  0  0  0
    8.4856    6.0948   23.7184 S   0  0  0  0  0  0  0  0  0  0  0  0
    7.9840    4.8800   24.8179 C   0  0  0  0  0  0  0  0  0  0  0  0
    7.8326    3.6748   24.2004 C   0  0  0  0  0  0  0  0  0  0  0  0
    7.5178    2.7739   24.7204 H   0  0  0  0  0  0  0  0  0  0  0  0
    7.8187    5.1458   25.8556 H   0  0  0  0  0  0  0  0  0  0  0  0
    8.6942    5.3582   21.4164 H   0  0  0  0  0  0  0  0  0  0  0  0
    7.3519    1.8029   22.2343 H   0  0  0  0  0  0  0  0  0  0  0  0
    7.8910    2.7404   20.8740 H   0  0  0  0  0  0  0  0  0  0  0  0
    9.7297    1.4628   22.9601 H   0  0  0  0  0  0  0  0  0  0  0  0
   10.2891    2.5020   21.6537 H   0  0  0  0  0  0  0  0  0  0  0  0
   10.5694    0.1415   20.9810 H   0  0  0  0  0  0  0  0  0  0  0  0
    9.3243    0.8627   19.9679 H   0  0  0  0  0  0  0  0  0  0  0  0
    5.4402    0.6422   20.1551 C   0  0  0  0  0  0  0  0  0  0  0  0
    5.0163    0.5984   21.1601 H   0  0  0  0  0  0  0  0  0  0  0  0
    8.1014   -0.4504   18.3422 H   0  0  0  0  0  0  0  0  0  0  0  0
    4.9288    1.8064   16.9905 H   0  0  0  0  0  0  0  0  0  0  0  0
    3.8741    1.8445   19.2517 H   0  0  0  0  0  0  0  0  0  0  0  0
  1  2  2  0
  2  3  1  0
  3  4  2  0
  4  5  1  0
  5  6  1  0
  6  7  1  0
  7  8  2  0
  8  9  1  0
  9 10  1  0
 10 11  1  0
 11 12  1  0
 12 13  1  0
 13 14  1  0
 14 15  1  0
 14 16  1  0
 13 17  1  0
 13 18  1  0
 11 19  1  0
 11 20  1  0
 10 21  1  0
 10 22  1  0
  9 23  1  0
  8 24  1  0
 24 25  2  0
 25 26  1  0
 26 27  1  0
 27 28  1  0
 28 29  1  0
 29 30  2  0
 30 31  1  0
 31 32  1  0
 32 33  2  0
 33 34  1  0
 32 35  1  0
 30 36  1  0
 28 37  1  0
 28 38  1  0
 27 39  1  0
 27 40  1  0
 26 41  1  0
 26 42  1  0
  5 43  2  0
 43 44  1  0
  4 45  1  0
  2 46  1  0
  1 47  1  0
 43  1  1  0
 25  6  1  0
 33 29  1  0
 14  9  1  0
M  END
>  <cnnaffinity>  (1) 
-5.92826

>  <filename>  (1) 
c1cncc(-n2nc(C3CCOCC3)nc2CCCc2ccsc2)c1

$$$$
