
     RDKit          3D

 28 30  0  0  0  0  0  0  0  0999 V2000
    4.9211    1.7775   17.0006 H   0  0  0  0  0  0  0  0  0  0  0  0
    5.4056    1.2900   17.8439 C   0  0  0  0  0  0  0  0  0  0  0  0
    6.5707    0.6741   17.5869 N   0  0  0  0  0  0  0  0  0  0  0  0
    7.1695    0.0436   18.6012 C   0  0  0  0  0  0  0  0  0  0  0  0
    8.1193   -0.4367   18.3782 H   0  0  0  0  0  0  0  0  0  0  0  0
    6.6537   -0.0036   19.9043 C   0  0  0  0  0  0  0  0  0  0  0  0
    7.3977   -0.7055   20.9450 C   0  0  0  0  0  0  0  0  0  0  0  0
    7.9698   -1.9391   20.7663 N   0  0  0  0  0  0  0  0  0  0  0  0
    8.5141   -2.2497   21.9128 C   0  0  0  0  0  0  0  0  0  0  0  0
    9.0572   -3.1618   22.1263 H   0  0  0  0  0  0  0  0  0  0  0  0
    8.3534   -1.2507   22.8254 N   0  0  0  0  0  0  0  0  0  0  0  0
    8.6773   -1.2558   23.7769 H   0  0  0  0  0  0  0  0  0  0  0  0
    7.6494   -0.2424   22.2174 C   0  0  0  0  0  0  0  0  0  0  0  0
    7.3036    1.0427   22.8948 C   0  0  0  0  0  0  0  0  0  0  0  0
    8.1584    1.3849   23.4959 H   0  0  0  0  0  0  0  0  0  0  0  0
    7.1535    1.8026   22.1198 H   0  0  0  0  0  0  0  0  0  0  0  0
    6.0670    0.9736   23.7610 C   0  0  0  0  0  0  0  0  0  0  0  0
    5.8907   -0.2172   24.9971 S   0  0  0  0  0  0  0  0  0  0  0  0
    4.3639    0.4272   25.4675 C   0  0  0  0  0  0  0  0  0  0  0  0
    3.8147   -0.0165   26.2839 H   0  0  0  0  0  0  0  0  0  0  0  0
    4.0059    1.4968   24.7075 C   0  0  0  0  0  0  0  0  0  0  0  0
    3.0875    2.0626   24.8355 H   0  0  0  0  0  0  0  0  0  0  0  0
    4.9872    1.8033   23.7202 C   0  0  0  0  0  0  0  0  0  0  0  0
    4.9095    2.6237   23.0110 H   0  0  0  0  0  0  0  0  0  0  0  0
    5.4371    0.6531   20.1600 C   0  0  0  0  0  0  0  0  0  0  0  0
    4.9988    0.6328   21.1620 H   0  0  0  0  0  0  0  0  0  0  0  0
    4.8043    1.3095   19.1077 C   0  0  0  0  0  0  0  0  0  0  0  0
    3.8730    1.8426   19.2606 H   0  0  0  0  0  0  0  0  0  0  0  0
  1  2  1  0
  2  3  2  0
  3  4  1  0
  4  5  1  0
  4  6  2  0
  6  7  1  0
  7  8  1  0
  8  9  2  0
  9 10  1  0
  9 11  1  0
 11 12  1  0
 11 13  1  0
 13 14  1  0
 14 15  1  0
 14 16  1  0
 14 17  1  0
 17 18  1  0
 18 19  1  0
 19 20  1  0
 19 21  2  0
 21 22  1  0
 21 23  1  0
 23 24  1  0
  6 25  1  0
 25 26  1  0
 25 27  2  0
 27 28  1  0
 27  2  1  0
 13  7  2  0
 23 17  2  0
M  END
>  <cnnaffinity>  (1) 
-5.01109

>  <filename>  (1) 
c1cncc(-c2nc[nH]c2Cc2cccs2)c1

$$$$
