
     RDKit          3D

 43 46  0  0  0  0  0  0  0  0999 V2000
    4.8687    1.8771   16.6325 H   0  0  0  0  0  0  0  0  0  0  0  0
    5.2985    1.4044   17.5118 C   0  0  0  0  0  0  0  0  0  0  0  0
    6.4979    0.8267   17.3433 N   0  0  0  0  0  0  0  0  0  0  0  0
    7.0939    0.3042   18.4256 C   0  0  0  0  0  0  0  0  0  0  0  0
    8.0606   -0.1631   18.2474 H   0  0  0  0  0  0  0  0  0  0  0  0
    6.5433    0.3235   19.7362 C   0  0  0  0  0  0  0  0  0  0  0  0
    7.2246   -0.0725   20.9153 N   0  0  0  0  0  0  0  0  0  0  0  0
    6.7163   -1.1982   21.6921 C   0  0  0  0  0  0  0  0  0  0  0  0
    6.8495   -0.9990   22.7626 H   0  0  0  0  0  0  0  0  0  0  0  0
    5.6405   -1.2889   21.5094 H   0  0  0  0  0  0  0  0  0  0  0  0
    7.3387   -2.5767   21.3623 C   0  0  0  0  0  0  0  0  0  0  0  0
    6.6602   -3.3501   21.7383 H   0  0  0  0  0  0  0  0  0  0  0  0
    7.3276   -2.6758   20.2729 H   0  0  0  0  0  0  0  0  0  0  0  0
    8.6756   -2.8787   21.8971 N   0  0  0  0  0  0  0  0  0  0  0  0
    8.6964   -3.7135   23.0514 C   0  0  0  0  0  0  0  0  0  0  0  0
    8.7569   -5.0753   22.8600 C   0  0  0  0  0  0  0  0  0  0  0  0
    8.7410   -5.4494   21.8451 H   0  0  0  0  0  0  0  0  0  0  0  0
    8.8448   -5.9795   23.9404 C   0  0  0  0  0  0  0  0  0  0  0  0
    9.0076   -7.0230   23.7119 H   0  0  0  0  0  0  0  0  0  0  0  0
    8.7405   -5.5269   25.2307 C   0  0  0  0  0  0  0  0  0  0  0  0
    8.7583   -6.1668   26.1040 H   0  0  0  0  0  0  0  0  0  0  0  0
    8.5955   -4.1338   25.4813 C   0  0  0  0  0  0  0  0  0  0  0  0
    8.4878   -3.7620   26.7962 N   0  0  0  0  0  0  0  0  0  0  0  0
    8.3798   -2.4830   27.0494 C   0  0  0  0  0  0  0  0  0  0  0  0
    8.3238   -2.2008   28.0895 H   0  0  0  0  0  0  0  0  0  0  0  0
    8.3479   -1.4642   26.0650 C   0  0  0  0  0  0  0  0  0  0  0  0
    8.2514   -0.4361   26.3870 H   0  0  0  0  0  0  0  0  0  0  0  0
    8.4536   -1.8198   24.7457 C   0  0  0  0  0  0  0  0  0  0  0  0
    8.4269   -1.0560   23.9724 H   0  0  0  0  0  0  0  0  0  0  0  0
    8.5908   -3.2001   24.3944 C   0  0  0  0  0  0  0  0  0  0  0  0
    9.7823   -1.9274   21.8080 C   0  0  0  0  0  0  0  0  0  0  0  0
   10.6977   -2.4997   21.5921 H   0  0  0  0  0  0  0  0  0  0  0  0
    9.9819   -1.4833   22.7973 H   0  0  0  0  0  0  0  0  0  0  0  0
    9.6418   -0.8077   20.7785 C   0  0  0  0  0  0  0  0  0  0  0  0
    9.4229   -1.2190   19.7862 H   0  0  0  0  0  0  0  0  0  0  0  0
   10.6269   -0.3331   20.7208 H   0  0  0  0  0  0  0  0  0  0  0  0
    8.6218    0.2882   21.1124 C   0  0  0  0  0  0  0  0  0  0  0  0
    8.8248    1.1767   20.4995 H   0  0  0  0  0  0  0  0  0  0  0  0
    8.7638    0.6119   22.1589 H   0  0  0  0  0  0  0  0  0  0  0  0
    5.2430    0.8422   19.8547 C   0  0  0  0  0  0  0  0  0  0  0  0
    4.7740    0.8199   20.8375 H   0  0  0  0  0  0  0  0  0  0  0  0
    4.6259    1.4125   18.7390 C   0  0  0  0  0  0  0  0  0  0  0  0
    3.6532    1.8827   18.8148 H   0  0  0  0  0  0  0  0  0  0  0  0
  1  2  1  0
  2  3  2  0
  3  4  1  0
  4  5  1  0
  4  6  2  0
  6  7  1  0
  7  8  1  0
  8  9  1  0
  8 10  1  0
  8 11  1  0
 11 12  1  0
 11 13  1  0
 11 14  1  0
 14 15  1  0
 15 16  2  0
 16 17  1  0
 16 18  1  0
 18 19  1  0
 18 20  2  0
 20 21  1  0
 20 22  1  0
 22 23  2  0
 23 24  1  0
 24 25  1  0
 24 26  2  0
 26 27  1  0
 26 28  1  0
 28 29  1  0
 28 30  2  0
 14 31  1  0
 31 32  1  0
 31 33  1  0
 31 34  1  0
 34 35  1  0
 34 36  1  0
 34 37  1  0
 37 38  1  0
 37 39  1  0
  6 40  1  0
 40 41  1  0
 40 42  2  0
 42 43  1  0
 42  2  1  0
 37  7  1  0
 30 15  1  0
 30 22  1  0
M  END
>  <cnnaffinity>  (1) 
-5.85327

>  <filename>  (1) 
c1cncc(N2CCCN(c3cccc4ncccc34)CC2)c1

$$$$
