
     RDKit          3D

 35 38  0  0  0  0  0  0  0  0999 V2000
    5.0690    1.8564   17.0454 H   0  0  0  0  0  0  0  0  0  0  0  0
    5.5685    1.3042   17.8390 C   0  0  0  0  0  0  0  0  0  0  0  0
    6.7104    0.6824   17.5051 N   0  0  0  0  0  0  0  0  0  0  0  0
    7.3510   -0.0028   18.4591 C   0  0  0  0  0  0  0  0  0  0  0  0
    8.2837   -0.4737   18.1568 H   0  0  0  0  0  0  0  0  0  0  0  0
    6.8759   -0.1350   19.7750 C   0  0  0  0  0  0  0  0  0  0  0  0
    7.5752   -0.9204   20.7237 N   0  0  0  0  0  0  0  0  0  0  0  0
    8.9078   -0.8005   21.1092 C   0  0  0  0  0  0  0  0  0  0  0  0
    9.5072   -0.0272   20.6585 H   0  0  0  0  0  0  0  0  0  0  0  0
    9.1846   -1.7218   22.0702 C   0  0  0  0  0  0  0  0  0  0  0  0
   10.0664   -1.9153   22.6576 H   0  0  0  0  0  0  0  0  0  0  0  0
    8.0088   -2.4279   22.2677 N   0  0  0  0  0  0  0  0  0  0  0  0
    7.6047   -3.4331   23.0910 N   0  0  0  0  0  0  0  0  0  0  0  0
    6.2916   -3.5089   22.8204 C   0  0  0  0  0  0  0  0  0  0  0  0
    5.4414   -4.4496   23.3998 N   0  0  0  0  0  0  0  0  0  0  0  0
    5.7238   -5.0223   24.7304 C   0  0  0  0  0  0  0  0  0  0  0  0
    6.7878   -5.2422   24.8341 H   0  0  0  0  0  0  0  0  0  0  0  0
    5.4362   -4.3179   25.5323 H   0  0  0  0  0  0  0  0  0  0  0  0
    4.9024   -6.3061   24.9337 C   0  0  0  0  0  0  0  0  0  0  0  0
    5.0450   -6.7039   25.9440 H   0  0  0  0  0  0  0  0  0  0  0  0
    5.2101   -7.0858   24.2167 H   0  0  0  0  0  0  0  0  0  0  0  0
    3.5089   -6.0438   24.8132 O   0  0  0  0  0  0  0  0  0  0  0  0
    3.1828   -5.5016   23.5440 C   0  0  0  0  0  0  0  0  0  0  0  0
    2.1127   -5.2571   23.5757 H   0  0  0  0  0  0  0  0  0  0  0  0
    3.3411   -6.2588   22.7602 H   0  0  0  0  0  0  0  0  0  0  0  0
    3.9949   -4.2435   23.2101 C   0  0  0  0  0  0  0  0  0  0  0  0
    3.7931   -4.0045   22.1635 H   0  0  0  0  0  0  0  0  0  0  0  0
    3.6328   -3.4050   23.8313 H   0  0  0  0  0  0  0  0  0  0  0  0
    5.8674   -2.5916   21.8248 C   0  0  0  0  0  0  0  0  0  0  0  0
    4.8562   -2.3695   21.5688 H   0  0  0  0  0  0  0  0  0  0  0  0
    7.0259   -1.9298   21.4873 C   0  0  0  0  0  0  0  0  0  0  0  0
    5.6832    0.5191   20.1172 C   0  0  0  0  0  0  0  0  0  0  0  0
    5.3024    0.4506   21.1377 H   0  0  0  0  0  0  0  0  0  0  0  0
    5.0285    1.2589   19.1297 C   0  0  0  0  0  0  0  0  0  0  0  0
    4.1110    1.7945   19.3473 H   0  0  0  0  0  0  0  0  0  0  0  0
  1  2  1  0
  2  3  2  0
  3  4  1  0
  4  5  1  0
  4  6  2  0
  6  7  1  0
  7  8  1  0
  8  9  1  0
  8 10  2  0
 10 11  1  0
 10 12  1  0
 12 13  1  0
 13 14  2  0
 14 15  1  0
 15 16  1  0
 16 17  1  0
 16 18  1  0
 16 19  1  0
 19 20  1  0
 19 21  1  0
 19 22  1  0
 22 23  1  0
 23 24  1  0
 23 25  1  0
 23 26  1  0
 26 27  1  0
 26 28  1  0
 14 29  1  0
 29 30  1  0
 29 31  2  0
  6 32  1  0
 32 33  1  0
 32 34  2  0
 34 35  1  0
 34  2  1  0
 31  7  1  0
 31 12  1  0
 26 15  1  0
M  END
>  <cnnaffinity>  (1) 
-4.94937

>  <filename>  (1) 
c1cncc(-n2ccn3nc(N4CCOCC4)cc23)c1

$$$$
