
     RDKit          3D

 29 31  0  0  0  0  0  0  0  0999 V2000
    4.9194    1.9594   16.6686 H   0  0  0  0  0  0  0  0  0  0  0  0
    5.3503    1.4060   17.5003 C   0  0  0  0  0  0  0  0  0  0  0  0
    6.4655    0.7098   17.2226 N   0  0  0  0  0  0  0  0  0  0  0  0
    7.0499    0.0564   18.2360 C   0  0  0  0  0  0  0  0  0  0  0  0
    7.9467   -0.5108   17.9875 H   0  0  0  0  0  0  0  0  0  0  0  0
    6.5895    0.0613   19.5716 C   0  0  0  0  0  0  0  0  0  0  0  0
    7.3695   -0.5270   20.6863 C   0  0  0  0  0  0  0  0  0  0  0  0
    6.9574   -0.6782   22.0412 C   0  0  0  0  0  0  0  0  0  0  0  0
    5.9792   -0.5093   22.4630 H   0  0  0  0  0  0  0  0  0  0  0  0
    7.9366   -1.1068   22.8172 N   0  0  0  0  0  0  0  0  0  0  0  0
    8.9843   -1.2180   22.0091 N   0  0  0  0  0  0  0  0  0  0  0  0
   10.1213   -1.7480   22.5916 N   0  0  0  0  0  0  0  0  0  0  0  0
    9.8075   -1.7645   23.5549 H   0  0  0  0  0  0  0  0  0  0  0  0
   11.3301   -1.0024   22.4846 C   0  0  0  0  0  0  0  0  0  0  0  0
   12.5146   -1.6802   22.2390 C   0  0  0  0  0  0  0  0  0  0  0  0
   12.5381   -2.7548   22.1863 H   0  0  0  0  0  0  0  0  0  0  0  0
   13.6888   -0.9431   22.1713 C   0  0  0  0  0  0  0  0  0  0  0  0
   14.6305   -1.4513   21.9763 H   0  0  0  0  0  0  0  0  0  0  0  0
   13.7424    0.3806   22.3643 N   0  0  0  0  0  0  0  0  0  0  0  0
   12.5920    1.0167   22.6296 C   0  0  0  0  0  0  0  0  0  0  0  0
   12.6664    2.0826   22.8420 H   0  0  0  0  0  0  0  0  0  0  0  0
   11.3513    0.3758   22.6915 C   0  0  0  0  0  0  0  0  0  0  0  0
   10.4206    0.8952   22.8849 H   0  0  0  0  0  0  0  0  0  0  0  0
    8.7033   -0.9273   20.7199 C   0  0  0  0  0  0  0  0  0  0  0  0
    9.4973   -1.0099   19.9963 H   0  0  0  0  0  0  0  0  0  0  0  0
    5.3771    0.7391   19.8092 C   0  0  0  0  0  0  0  0  0  0  0  0
    4.9309    0.7450   20.8028 H   0  0  0  0  0  0  0  0  0  0  0  0
    4.7594    1.4263   18.7664 C   0  0  0  0  0  0  0  0  0  0  0  0
    3.8480    1.9947   18.9201 H   0  0  0  0  0  0  0  0  0  0  0  0
  1  2  1  0
  2  3  2  0
  3  4  1  0
  4  5  1  0
  4  6  2  0
  6  7  1  0
  7  8  1  0
  8  9  1  0
  8 10  2  0
 10 11  1  0
 11 12  1  0
 12 13  1  0
 12 14  1  0
 14 15  2  0
 15 16  1  0
 15 17  1  0
 17 18  1  0
 17 19  2  0
 19 20  1  0
 20 21  1  0
 20 22  2  0
 22 23  1  0
 11 24  1  0
 24 25  1  0
  6 26  1  0
 26 27  1  0
 26 28  2  0
 28 29  1  0
 28  2  1  0
 24  7  2  0
 22 14  1  0
M  END
>  <cnnaffinity>  (1) 
-4.83045

>  <filename>  (1) 
c1cncc(-c2cnn(Nc3ccncc3)c2)c1

$$$$
