
     RDKit          3D

 27 30  0  0  0  0  0  0  0  0999 V2000
    4.9160    1.7753   17.0024 H   0  0  0  0  0  0  0  0  0  0  0  0
    5.4049    1.2899   17.8430 C   0  0  0  0  0  0  0  0  0  0  0  0
    6.5705    0.6779   17.5769 N   0  0  0  0  0  0  0  0  0  0  0  0
    7.1751    0.0568   18.5903 C   0  0  0  0  0  0  0  0  0  0  0  0
    8.1247   -0.4346   18.3743 H   0  0  0  0  0  0  0  0  0  0  0  0
    6.6475    0.0111   19.8911 C   0  0  0  0  0  0  0  0  0  0  0  0
    7.4031   -0.7012   20.9169 C   0  0  0  0  0  0  0  0  0  0  0  0
    8.3295   -1.6011   20.6982 N   0  0  0  0  0  0  0  0  0  0  0  0
    8.8290   -2.0346   21.9051 N   0  0  0  0  0  0  0  0  0  0  0  0
    8.1940   -1.3524   22.8179 C   0  0  0  0  0  0  0  0  0  0  0  0
    8.2630   -1.0979   24.5315 S   0  0  0  0  0  0  0  0  0  0  0  0
    7.0381    0.1652   24.3122 C   0  0  0  0  0  0  0  0  0  0  0  0
    6.5590    0.9396   25.4724 C   0  0  0  0  0  0  0  0  0  0  0  0
    5.5907    1.9485   25.2953 C   0  0  0  0  0  0  0  0  0  0  0  0
    5.1838    2.1703   24.3152 H   0  0  0  0  0  0  0  0  0  0  0  0
    5.1221    2.6812   26.3121 N   0  0  0  0  0  0  0  0  0  0  0  0
    5.5669    2.4790   27.5574 N   0  0  0  0  0  0  0  0  0  0  0  0
    6.4887    1.5341   27.7886 C   0  0  0  0  0  0  0  0  0  0  0  0
    6.8132    1.4116   28.8150 H   0  0  0  0  0  0  0  0  0  0  0  0
    7.0203    0.7312   26.7724 C   0  0  0  0  0  0  0  0  0  0  0  0
    7.7680   -0.0213   27.0150 H   0  0  0  0  0  0  0  0  0  0  0  0
    6.6164    0.3598   23.1035 N   0  0  0  0  0  0  0  0  0  0  0  0
    7.2665   -0.5176   22.2773 N   0  0  0  0  0  0  0  0  0  0  0  0
    5.4329    0.6524   20.1625 C   0  0  0  0  0  0  0  0  0  0  0  0
    5.0086    0.6356   21.1696 H   0  0  0  0  0  0  0  0  0  0  0  0
    4.8047    1.3084   19.1091 C   0  0  0  0  0  0  0  0  0  0  0  0
    3.8739    1.8437   19.2621 H   0  0  0  0  0  0  0  0  0  0  0  0
  1  2  1  0
  2  3  2  0
  3  4  1  0
  4  5  1  0
  4  6  2  0
  6  7  1  0
  7  8  2  0
  8  9  1  0
  9 10  2  0
 10 11  1  0
 11 12  1  0
 12 13  1  0
 13 14  2  0
 14 15  1  0
 14 16  1  0
 16 17  2  0
 17 18  1  0
 18 19  1  0
 18 20  2  0
 20 21  1  0
 12 22  2  0
 22 23  1  0
  6 24  1  0
 24 25  1  0
 24 26  2  0
 26 27  1  0
 26  2  1  0
 23  7  1  0
 23 10  1  0
 20 13  1  0
M  END
>  <cnnaffinity>  (1) 
-5.12926

>  <filename>  (1) 
c1cncc(-c2nnc3sc(-c4ccnnc4)nn23)c1

$$$$
