
     RDKit          3D

 43 46  0  0  0  0  0  0  0  0999 V2000
    4.8135    1.3082   19.1094 C   0  0  0  0  0  0  0  0  0  0  0  0
    5.4017    1.2959   17.8368 C   0  0  0  0  0  0  0  0  0  0  0  0
    6.5605    0.6724   17.5746 N   0  0  0  0  0  0  0  0  0  0  0  0
    7.1673    0.0527   18.5936 C   0  0  0  0  0  0  0  0  0  0  0  0
    6.6604    0.0029   19.9042 C   0  0  0  0  0  0  0  0  0  0  0  0
    7.3724   -0.6622   20.9451 N   0  0  0  0  0  0  0  0  0  0  0  0
    6.7498   -1.5790   21.7250 N   0  0  0  0  0  0  0  0  0  0  0  0
    7.6876   -1.9248   22.5897 C   0  0  0  0  0  0  0  0  0  0  0  0
    7.4134   -2.8476   23.7380 C   0  0  0  0  0  0  0  0  0  0  0  0
    6.6432   -4.1238   23.3538 C   0  0  0  0  0  0  0  0  0  0  0  0
    5.9557   -4.5885   24.6474 C   0  0  0  0  0  0  0  0  0  0  0  0
    5.8501   -3.3505   25.5722 C   0  0  0  0  0  0  0  0  0  0  0  0
    6.5606   -2.1905   24.8509 C   0  0  0  0  0  0  0  0  0  0  0  0
    5.8288   -1.5115   24.4004 H   0  0  0  0  0  0  0  0  0  0  0  0
    7.1696   -1.5778   25.5258 H   0  0  0  0  0  0  0  0  0  0  0  0
    4.8089   -3.0898   25.7858 H   0  0  0  0  0  0  0  0  0  0  0  0
    6.3137   -3.5562   26.5423 H   0  0  0  0  0  0  0  0  0  0  0  0
    4.9750   -5.0243   24.4346 H   0  0  0  0  0  0  0  0  0  0  0  0
    6.5362   -5.3793   25.1353 H   0  0  0  0  0  0  0  0  0  0  0  0
    5.9046   -3.8770   22.5830 H   0  0  0  0  0  0  0  0  0  0  0  0
    7.3046   -4.8875   22.9278 H   0  0  0  0  0  0  0  0  0  0  0  0
    8.3912   -3.1098   24.1478 H   0  0  0  0  0  0  0  0  0  0  0  0
    8.8816   -1.3043   22.4181 N   0  0  0  0  0  0  0  0  0  0  0  0
    8.6445   -0.4902   21.4066 C   0  0  0  0  0  0  0  0  0  0  0  0
    9.5244    0.6154   20.9263 C   0  0  0  0  0  0  0  0  0  0  0  0
    9.0349    2.0154   21.3726 C   0  0  0  0  0  0  0  0  0  0  0  0
    8.8902    2.1059   22.8662 C   0  0  0  0  0  0  0  0  0  0  0  0
    7.7765    1.8598   23.6075 C   0  0  0  0  0  0  0  0  0  0  0  0
    8.0593    1.8831   24.9307 O   0  0  0  0  0  0  0  0  0  0  0  0
    9.3848    2.1480   25.0511 C   0  0  0  0  0  0  0  0  0  0  0  0
    9.9511    2.2800   23.8256 C   0  0  0  0  0  0  0  0  0  0  0  0
   10.9985    2.4647   23.6168 H   0  0  0  0  0  0  0  0  0  0  0  0
    9.7620    2.2308   26.0633 H   0  0  0  0  0  0  0  0  0  0  0  0
    6.7547    1.6244   23.3388 H   0  0  0  0  0  0  0  0  0  0  0  0
    9.7537    2.7691   21.0406 H   0  0  0  0  0  0  0  0  0  0  0  0
    8.0780    2.2420   20.8845 H   0  0  0  0  0  0  0  0  0  0  0  0
    9.5996    0.5833   19.8389 H   0  0  0  0  0  0  0  0  0  0  0  0
   10.5171    0.4107   21.3322 H   0  0  0  0  0  0  0  0  0  0  0  0
    5.4410    0.6391   20.1674 C   0  0  0  0  0  0  0  0  0  0  0  0
    5.0124    0.6100   21.1731 H   0  0  0  0  0  0  0  0  0  0  0  0
    8.1119   -0.4337   18.3690 H   0  0  0  0  0  0  0  0  0  0  0  0
    4.9198    1.7863   16.9924 H   0  0  0  0  0  0  0  0  0  0  0  0
    3.8800    1.8388   19.2622 H   0  0  0  0  0  0  0  0  0  0  0  0
  1  2  2  0
  2  3  1  0
  3  4  2  0
  4  5  1  0
  5  6  1  0
  6  7  1  0
  7  8  2  0
  8  9  1  0
  9 10  1  0
 10 11  1  0
 11 12  1  0
 12 13  1  0
 13 14  1  0
 13 15  1  0
 12 16  1  0
 12 17  1  0
 11 18  1  0
 11 19  1  0
 10 20  1  0
 10 21  1  0
  9 22  1  0
  8 23  1  0
 23 24  2  0
 24 25  1  0
 25 26  1  0
 26 27  1  0
 27 28  2  0
 28 29  1  0
 29 30  1  0
 30 31  2  0
 31 32  1  0
 30 33  1  0
 28 34  1  0
 26 35  1  0
 26 36  1  0
 25 37  1  0
 25 38  1  0
  5 39  2  0
 39 40  1  0
  4 41  1  0
  2 42  1  0
  1 43  1  0
 39  1  1  0
 24  6  1  0
 31 27  1  0
 13  9  1  0
M  END
>  <cnnaffinity>  (1) 
-5.84154

>  <filename>  (1) 
c1cncc(-n2nc(C3CCCC3)nc2CCc2ccoc2)c1

$$$$
