
     RDKit          3D

 26 28  0  0  0  0  0  0  0  0999 V2000
   13.5946   -2.8074   22.1625 H   0  0  0  0  0  0  0  0  0  0  0  0
   12.6725   -2.2679   21.9696 C   0  0  0  0  0  0  0  0  0  0  0  0
   12.5943   -1.3133   21.0083 N   0  0  0  0  0  0  0  0  0  0  0  0
   11.3254   -1.0044   21.0178 C   0  0  0  0  0  0  0  0  0  0  0  0
   10.7602   -0.3217   20.4047 H   0  0  0  0  0  0  0  0  0  0  0  0
   10.6625   -1.7390   21.9282 N   0  0  0  0  0  0  0  0  0  0  0  0
    9.2524   -1.6835   22.0506 C   0  0  0  0  0  0  0  0  0  0  0  0
    8.6499   -0.9971   21.0791 N   0  0  0  0  0  0  0  0  0  0  0  0
    7.3179   -0.9217   21.0816 C   0  0  0  0  0  0  0  0  0  0  0  0
    6.7257   -0.1199   19.9932 C   0  0  0  0  0  0  0  0  0  0  0  0
    7.3569   -0.0984   18.7378 C   0  0  0  0  0  0  0  0  0  0  0  0
    8.3092   -0.6090   18.5906 H   0  0  0  0  0  0  0  0  0  0  0  0
    6.8503    0.5240   17.6691 N   0  0  0  0  0  0  0  0  0  0  0  0
    5.7051    1.2034   17.8393 C   0  0  0  0  0  0  0  0  0  0  0  0
    5.3113    1.7051   16.9591 H   0  0  0  0  0  0  0  0  0  0  0  0
    5.0300    1.2940   19.0616 C   0  0  0  0  0  0  0  0  0  0  0  0
    4.1311    1.8965   19.1353 H   0  0  0  0  0  0  0  0  0  0  0  0
    5.5430    0.6154   20.1631 C   0  0  0  0  0  0  0  0  0  0  0  0
    5.0457    0.6782   21.1356 H   0  0  0  0  0  0  0  0  0  0  0  0
    6.5421   -1.5955   22.0271 C   0  0  0  0  0  0  0  0  0  0  0  0
    5.4754   -1.6695   21.8839 H   0  0  0  0  0  0  0  0  0  0  0  0
    7.1881   -2.2419   23.0857 C   0  0  0  0  0  0  0  0  0  0  0  0
    6.6253   -2.7166   23.8822 H   0  0  0  0  0  0  0  0  0  0  0  0
    8.5781   -2.2809   23.1141 C   0  0  0  0  0  0  0  0  0  0  0  0
    9.1504   -2.7501   23.9061 H   0  0  0  0  0  0  0  0  0  0  0  0
   11.5356   -2.5691   22.5686 N   0  0  0  0  0  0  0  0  0  0  0  0
  1  2  1  0
  2  3  1  0
  3  4  2  0
  4  5  1  0
  4  6  1  0
  6  7  1  0
  7  8  2  0
  8  9  1  0
  9 10  1  0
 10 11  2  0
 11 12  1  0
 11 13  1  0
 13 14  2  0
 14 15  1  0
 14 16  1  0
 16 17  1  0
 16 18  2  0
 18 19  1  0
  9 20  2  0
 20 21  1  0
 20 22  1  0
 22 23  1  0
 22 24  2  0
 24 25  1  0
  6 26  1  0
 26  2  2  0
 24  7  1  0
 18 10  1  0
M  END
>  <cnnaffinity>  (1) 
-5.13568

>  <filename>  (1) 
c1cncc(-c2cccc(-n3cncn3)n2)c1

$$$$
