
     RDKit          3D

 39 41  0  0  0  0  0  0  0  0999 V2000
    5.1599    1.6995   17.0099 H   0  0  0  0  0  0  0  0  0  0  0  0
    5.5171    1.1467   17.8815 C   0  0  0  0  0  0  0  0  0  0  0  0
    6.6286    0.4205   17.6974 N   0  0  0  0  0  0  0  0  0  0  0  0
    7.0966   -0.2457   18.7608 C   0  0  0  0  0  0  0  0  0  0  0  0
    8.0372   -0.7825   18.6244 H   0  0  0  0  0  0  0  0  0  0  0  0
    6.5013   -0.2421   20.0287 C   0  0  0  0  0  0  0  0  0  0  0  0
    7.2024   -0.9432   21.1494 C   0  0  0  0  0  0  0  0  0  0  0  0
    6.9360   -2.3689   21.3140 N   0  0  0  0  0  0  0  0  0  0  0  0
    6.6403   -2.6961   20.3924 H   0  0  0  0  0  0  0  0  0  0  0  0
    5.7848   -2.5952   22.1228 O   0  0  0  0  0  0  0  0  0  0  0  0
    6.0498   -3.5555   23.1656 C   0  0  0  0  0  0  0  0  0  0  0  0
    6.6634   -3.0742   23.9414 H   0  0  0  0  0  0  0  0  0  0  0  0
    6.6291   -4.3955   22.7526 H   0  0  0  0  0  0  0  0  0  0  0  0
    4.6807   -3.9998   23.7162 C   0  0  0  0  0  0  0  0  0  0  0  0
    4.1351   -3.0668   23.9099 H   0  0  0  0  0  0  0  0  0  0  0  0
    3.8696   -4.7746   22.6469 C   0  0  0  0  0  0  0  0  0  0  0  0
    4.0600   -4.2945   21.6864 H   0  0  0  0  0  0  0  0  0  0  0  0
    2.7958   -4.6672   22.8515 H   0  0  0  0  0  0  0  0  0  0  0  0
    4.1648   -6.2825   22.5825 C   0  0  0  0  0  0  0  0  0  0  0  0
    5.1595   -6.4898   22.1691 H   0  0  0  0  0  0  0  0  0  0  0  0
    3.4646   -6.7650   21.8952 H   0  0  0  0  0  0  0  0  0  0  0  0
    4.0773   -6.9489   23.8811 N   0  0  0  0  0  0  0  0  0  0  0  0
    3.1230   -6.8478   24.2170 H   0  0  0  0  0  0  0  0  0  0  0  0
    4.9690   -6.3127   24.8519 C   0  0  0  0  0  0  0  0  0  0  0  0
    4.8514   -6.8375   25.8070 H   0  0  0  0  0  0  0  0  0  0  0  0
    5.9936   -6.4811   24.5035 H   0  0  0  0  0  0  0  0  0  0  0  0
    4.7597   -4.7967   25.0458 C   0  0  0  0  0  0  0  0  0  0  0  0
    5.5768   -4.4145   25.6768 H   0  0  0  0  0  0  0  0  0  0  0  0
    3.8294   -4.6416   25.6113 H   0  0  0  0  0  0  0  0  0  0  0  0
    7.5815   -0.1825   22.3768 C   0  0  0  0  0  0  0  0  0  0  0  0
    7.5316   -0.7531   23.2963 H   0  0  0  0  0  0  0  0  0  0  0  0
    7.2801    0.8606   22.4406 H   0  0  0  0  0  0  0  0  0  0  0  0
    8.6392   -0.5746   21.3816 C   0  0  0  0  0  0  0  0  0  0  0  0
    9.0771    0.1908   20.7456 H   0  0  0  0  0  0  0  0  0  0  0  0
    9.3007   -1.3882   21.6528 H   0  0  0  0  0  0  0  0  0  0  0  0
    5.3266    0.5071   20.1904 C   0  0  0  0  0  0  0  0  0  0  0  0
    4.8334    0.5338   21.1647 H   0  0  0  0  0  0  0  0  0  0  0  0
    4.8329    1.2199   19.0966 C   0  0  0  0  0  0  0  0  0  0  0  0
    3.9484    1.8453   19.1789 H   0  0  0  0  0  0  0  0  0  0  0  0
  1  2  1  0
  2  3  2  0
  3  4  1  0
  4  5  1  0
  4  6  2  0
  6  7  1  0
  7  8  1  0
  8  9  1  0
  8 10  1  0
 10 11  1  0
 11 12  1  0
 11 13  1  0
 11 14  1  0
 14 15  1  0
 14 16  1  0
 16 17  1  0
 16 18  1  0
 16 19  1  0
 19 20  1  0
 19 21  1  0
 19 22  1  0
 22 23  1  0
 22 24  1  0
 24 25  1  0
 24 26  1  0
 24 27  1  0
 27 28  1  0
 27 29  1  0
  7 30  1  0
 30 31  1  0
 30 32  1  0
 30 33  1  0
 33 34  1  0
 33 35  1  0
  6 36  1  0
 36 37  1  0
 36 38  2  0
 38 39  1  0
 38  2  1  0
 33  7  1  0
 27 14  1  0
M  END
>  <cnnaffinity>  (1) 
-4.46078

>  <filename>  (1) 
c1cncc(C2(NOCC3CCNCC3)CC2)c1

$$$$
