
     RDKit          3D

 45 47  0  0  0  0  0  0  0  0999 V2000
    4.9069    1.7877   16.9905 H   0  0  0  0  0  0  0  0  0  0  0  0
    5.3933    1.2999   17.8312 C   0  0  0  0  0  0  0  0  0  0  0  0
    6.5570    0.6874   17.5604 N   0  0  0  0  0  0  0  0  0  0  0  0
    7.1762    0.0780   18.5803 C   0  0  0  0  0  0  0  0  0  0  0  0
    8.1183   -0.4224   18.3603 H   0  0  0  0  0  0  0  0  0  0  0  0
    6.6764    0.0090   19.9039 C   0  0  0  0  0  0  0  0  0  0  0  0
    7.3764   -0.7051   20.9015 N   0  0  0  0  0  0  0  0  0  0  0  0
    6.6533   -1.5674   21.8386 C   0  0  0  0  0  0  0  0  0  0  0  0
    5.7095   -1.8633   21.3655 H   0  0  0  0  0  0  0  0  0  0  0  0
    6.3932   -1.0451   22.7761 H   0  0  0  0  0  0  0  0  0  0  0  0
    7.4918   -2.8113   22.1411 C   0  0  0  0  0  0  0  0  0  0  0  0
    7.5675   -3.4114   21.2250 H   0  0  0  0  0  0  0  0  0  0  0  0
    6.9759   -3.4254   22.8866 H   0  0  0  0  0  0  0  0  0  0  0  0
    8.8902   -2.4279   22.6295 C   0  0  0  0  0  0  0  0  0  0  0  0
    8.8132   -1.8998   23.5892 H   0  0  0  0  0  0  0  0  0  0  0  0
    9.5045   -3.3200   22.7862 H   0  0  0  0  0  0  0  0  0  0  0  0
    9.5683   -1.5006   21.6183 C   0  0  0  0  0  0  0  0  0  0  0  0
    9.7397   -2.0333   20.6753 H   0  0  0  0  0  0  0  0  0  0  0  0
   10.5471   -1.1645   21.9738 H   0  0  0  0  0  0  0  0  0  0  0  0
    8.7118   -0.2817   21.2980 C   0  0  2  0  0  0  0  0  0  0  0  0
    9.1668    0.2536   20.4531 H   0  0  0  0  0  0  0  0  0  0  0  0
    8.7048    0.5751   22.4199 O   0  0  0  0  0  0  0  0  0  0  0  0
    8.5409    1.9537   22.0941 C   0  0  0  0  0  0  0  0  0  0  0  0
    7.8069    2.0844   21.2814 H   0  0  0  0  0  0  0  0  0  0  0  0
    9.5093    2.3487   21.7456 H   0  0  0  0  0  0  0  0  0  0  0  0
    8.0838    2.7358   23.3202 C   0  0  0  0  0  0  0  0  0  0  0  0
    8.0237    3.7880   22.9957 H   0  0  0  0  0  0  0  0  0  0  0  0
    9.0954    2.6663   24.4807 C   0  0  0  0  0  0  0  0  0  0  0  0
    9.2588    1.6152   24.7508 H   0  0  0  0  0  0  0  0  0  0  0  0
   10.0679    3.0665   24.1651 H   0  0  0  0  0  0  0  0  0  0  0  0
    8.5766    3.4195   25.7100 C   0  0  0  0  0  0  0  0  0  0  0  0
    9.2705    3.3149   26.5486 H   0  0  0  0  0  0  0  0  0  0  0  0
    8.5189    4.4935   25.4883 H   0  0  0  0  0  0  0  0  0  0  0  0
    7.2462    2.9784   26.1422 N   0  0  0  0  0  0  0  0  0  0  0  0
    7.3292    1.9878   26.3705 H   0  0  0  0  0  0  0  0  0  0  0  0
    6.2653    3.0802   25.0560 C   0  0  0  0  0  0  0  0  0  0  0  0
    5.2928    2.7322   25.4214 H   0  0  0  0  0  0  0  0  0  0  0  0
    6.1427    4.1447   24.8157 H   0  0  0  0  0  0  0  0  0  0  0  0
    6.6793    2.3142   23.7962 C   0  0  0  0  0  0  0  0  0  0  0  0
    5.9402    2.4598   22.9953 H   0  0  0  0  0  0  0  0  0  0  0  0
    6.6879    1.2380   24.0220 H   0  0  0  0  0  0  0  0  0  0  0  0
    5.4494    0.6478   20.1582 C   0  0  0  0  0  0  0  0  0  0  0  0
    5.0259    0.6166   21.1640 H   0  0  0  0  0  0  0  0  0  0  0  0
    4.8100    1.3129   19.1033 C   0  0  0  0  0  0  0  0  0  0  0  0
    3.8751    1.8401   19.2579 H   0  0  0  0  0  0  0  0  0  0  0  0
  1  2  1  0
  2  3  2  0
  3  4  1  0
  4  5  1  0
  4  6  2  0
  6  7  1  0
  7  8  1  0
  8  9  1  0
  8 10  1  0
  8 11  1  0
 11 12  1  0
 11 13  1  0
 11 14  1  0
 14 15  1  0
 14 16  1  0
 14 17  1  0
 17 18  1  0
 17 19  1  0
 17 20  1  0
 20 21  1  6
 20 22  1  0
 22 23  1  0
 23 24  1  0
 23 25  1  0
 23 26  1  0
 26 27  1  0
 26 28  1  0
 28 29  1  0
 28 30  1  0
 28 31  1  0
 31 32  1  0
 31 33  1  0
 31 34  1  0
 34 35  1  0
 34 36  1  0
 36 37  1  0
 36 38  1  0
 36 39  1  0
 39 40  1  0
 39 41  1  0
  6 42  1  0
 42 43  1  0
 42 44  2  0
 44 45  1  0
 44  2  1  0
 20  7  1  0
 39 26  1  0
M  END
>  <cnnaffinity>  (1) 
-4.89865

>  <filename>  (1) 
c1cncc(N2CCCC[C@@H]2OCC2CCNCC2)c1

$$$$
