
     RDKit          3D

 47 50  0  0  0  0  0  0  0  0999 V2000
    4.7906    1.3643   19.0224 C   0  0  0  0  0  0  0  0  0  0  0  0
    5.4045    1.3144   17.7683 C   0  0  0  0  0  0  0  0  0  0  0  0
    6.5406    0.6309   17.5373 N   0  0  0  0  0  0  0  0  0  0  0  0
    7.1148    0.0026   18.5693 C   0  0  0  0  0  0  0  0  0  0  0  0
    6.6220    0.0682   19.8861 C   0  0  0  0  0  0  0  0  0  0  0  0
    7.3343   -0.5670   20.9459 N   0  0  0  0  0  0  0  0  0  0  0  0
    7.6557   -1.8833   20.8490 N   0  0  0  0  0  0  0  0  0  0  0  0
    8.1729   -2.1555   22.0368 C   0  0  0  0  0  0  0  0  0  0  0  0
    8.7212   -3.5127   22.3988 C   0  0  0  0  0  0  0  0  0  0  0  0
    8.0018   -4.7061   21.7402 C   0  0  0  0  0  0  0  0  0  0  0  0
    8.3997   -5.9382   22.5595 C   0  0  0  0  0  0  0  0  0  0  0  0
    8.6785   -5.4104   23.9851 C   0  0  0  0  0  0  0  0  0  0  0  0
    8.7292   -3.8700   23.8960 C   0  0  0  0  0  0  0  0  0  0  0  0
    7.8476   -3.4375   24.3720 H   0  0  0  0  0  0  0  0  0  0  0  0
    9.6132   -3.4667   24.3988 H   0  0  0  0  0  0  0  0  0  0  0  0
    9.6024   -5.8118   24.4109 H   0  0  0  0  0  0  0  0  0  0  0  0
    7.8836   -5.7155   24.6706 H   0  0  0  0  0  0  0  0  0  0  0  0
    9.2788   -6.4162   22.1172 H   0  0  0  0  0  0  0  0  0  0  0  0
    7.6153   -6.7040   22.5466 H   0  0  0  0  0  0  0  0  0  0  0  0
    6.9187   -4.5516   21.7961 H   0  0  0  0  0  0  0  0  0  0  0  0
    8.2559   -4.8113   20.6849 H   0  0  0  0  0  0  0  0  0  0  0  0
    9.7658   -3.4507   22.0829 H   0  0  0  0  0  0  0  0  0  0  0  0
    8.2624   -1.0887   22.8676 N   0  0  0  0  0  0  0  0  0  0  0  0
    7.7504   -0.0949   22.1599 C   0  0  0  0  0  0  0  0  0  0  0  0
    7.7454    1.3315   22.6429 C   0  0  0  0  0  0  0  0  0  0  0  0
    7.2243    1.4615   24.0873 C   0  0  0  0  0  0  0  0  0  0  0  0
    5.7882    0.9208   24.1921 C   0  0  0  0  0  0  0  0  0  0  0  0
    5.1945    0.9732   25.5172 N   0  0  0  0  0  0  0  0  0  0  0  0
    5.2074   -0.0743   26.4066 C   0  0  0  0  0  0  0  0  0  0  0  0
    4.6795    0.3559   27.5983 C   0  0  0  0  0  0  0  0  0  0  0  0
    4.3087    1.7140   27.4224 C   0  0  0  0  0  0  0  0  0  0  0  0
    4.6254    2.0612   26.1322 C   0  0  0  0  0  0  0  0  0  0  0  0
    4.4357    2.9860   25.6033 H   0  0  0  0  0  0  0  0  0  0  0  0
    3.8591    2.3618   28.1654 H   0  0  0  0  0  0  0  0  0  0  0  0
    4.5756   -0.2364   28.4998 H   0  0  0  0  0  0  0  0  0  0  0  0
    5.5444   -1.0566   26.1033 H   0  0  0  0  0  0  0  0  0  0  0  0
    5.1375    1.4525   23.4826 H   0  0  0  0  0  0  0  0  0  0  0  0
    5.7927   -0.1320   23.8933 H   0  0  0  0  0  0  0  0  0  0  0  0
    7.2543    2.5168   24.3872 H   0  0  0  0  0  0  0  0  0  0  0  0
    7.8907    0.9004   24.7580 H   0  0  0  0  0  0  0  0  0  0  0  0
    8.7750    1.7099   22.5823 H   0  0  0  0  0  0  0  0  0  0  0  0
    7.1533    1.9678   21.9759 H   0  0  0  0  0  0  0  0  0  0  0  0
    5.4108    0.7385   20.1100 C   0  0  0  0  0  0  0  0  0  0  0  0
    4.9518    0.7413   21.1007 H   0  0  0  0  0  0  0  0  0  0  0  0
    8.0104   -0.5742   18.3488 H   0  0  0  0  0  0  0  0  0  0  0  0
    4.9649    1.8310   16.9159 H   0  0  0  0  0  0  0  0  0  0  0  0
    3.8477    1.8872   19.1382 H   0  0  0  0  0  0  0  0  0  0  0  0
  1  2  2  0
  2  3  1  0
  3  4  2  0
  4  5  1  0
  5  6  1  0
  6  7  1  0
  7  8  2  0
  8  9  1  0
  9 10  1  0
 10 11  1  0
 11 12  1  0
 12 13  1  0
 13 14  1  0
 13 15  1  0
 12 16  1  0
 12 17  1  0
 11 18  1  0
 11 19  1  0
 10 20  1  0
 10 21  1  0
  9 22  1  0
  8 23  1  0
 23 24  2  0
 24 25  1  0
 25 26  1  0
 26 27  1  0
 27 28  1  0
 28 29  1  0
 29 30  2  0
 30 31  1  0
 31 32  2  0
 32 33  1  0
 31 34  1  0
 30 35  1  0
 29 36  1  0
 27 37  1  0
 27 38  1  0
 26 39  1  0
 26 40  1  0
 25 41  1  0
 25 42  1  0
  5 43  2  0
 43 44  1  0
  4 45  1  0
  2 46  1  0
  1 47  1  0
 43  1  1  0
 24  6  1  0
 32 28  1  0
 13  9  1  0
M  END
>  <cnnaffinity>  (1) 
-6.06479

>  <filename>  (1) 
c1cncc(-n2nc(C3CCCC3)nc2CCCn2cccc2)c1

$$$$
