
     RDKit          3D

 30 33  0  0  0  0  0  0  0  0999 V2000
    4.9979    1.8521   16.9007 H   0  0  0  0  0  0  0  0  0  0  0  0
    5.4213    1.2931   17.7330 C   0  0  0  0  0  0  0  0  0  0  0  0
    6.5646    0.6333   17.4851 N   0  0  0  0  0  0  0  0  0  0  0  0
    7.1361   -0.0056   18.5114 C   0  0  0  0  0  0  0  0  0  0  0  0
    8.0635   -0.5329   18.2984 H   0  0  0  0  0  0  0  0  0  0  0  0
    6.6105   -0.0224   19.8202 C   0  0  0  0  0  0  0  0  0  0  0  0
    7.3791   -0.6132   20.9310 C   0  0  0  0  0  0  0  0  0  0  0  0
    8.5100   -1.3012   20.7013 N   0  0  0  0  0  0  0  0  0  0  0  0
    8.9669   -1.5477   21.9453 N   0  0  0  0  0  0  0  0  0  0  0  0
   10.0732   -2.1977   22.4809 C   0  0  0  0  0  0  0  0  0  0  0  0
   10.8037   -2.6584   21.8409 H   0  0  0  0  0  0  0  0  0  0  0  0
    9.9795   -2.0725   23.8279 C   0  0  0  0  0  0  0  0  0  0  0  0
   10.6135   -2.4373   24.6192 H   0  0  0  0  0  0  0  0  0  0  0  0
    8.8343   -1.3239   24.1224 N   0  0  0  0  0  0  0  0  0  0  0  0
    8.4114   -0.8858   25.3663 N   0  0  0  0  0  0  0  0  0  0  0  0
    7.0817   -0.7413   25.7156 C   0  0  0  0  0  0  0  0  0  0  0  0
    6.3155   -1.0771   25.0345 H   0  0  0  0  0  0  0  0  0  0  0  0
    7.0219   -0.1147   26.9250 C   0  0  0  0  0  0  0  0  0  0  0  0
    6.1195    0.2286   27.4082 H   0  0  0  0  0  0  0  0  0  0  0  0
    8.3619    0.1168   27.3490 C   0  0  0  0  0  0  0  0  0  0  0  0
    8.6595    0.6206   28.2559 H   0  0  0  0  0  0  0  0  0  0  0  0
    9.1944   -0.3545   26.3753 C   0  0  0  0  0  0  0  0  0  0  0  0
   10.2713   -0.3374   26.3039 H   0  0  0  0  0  0  0  0  0  0  0  0
    8.2056   -1.0256   22.9252 C   0  0  0  0  0  0  0  0  0  0  0  0
    7.1078   -0.4381   22.3074 C   0  0  0  0  0  0  0  0  0  0  0  0
    6.2292    0.0177   22.7268 H   0  0  0  0  0  0  0  0  0  0  0  0
    5.3786    0.6162   20.0453 C   0  0  0  0  0  0  0  0  0  0  0  0
    4.9019    0.6048   21.0308 H   0  0  0  0  0  0  0  0  0  0  0  0
    4.7872    1.2919   18.9826 C   0  0  0  0  0  0  0  0  0  0  0  0
    3.8749    1.8577   19.1239 H   0  0  0  0  0  0  0  0  0  0  0  0
  1  2  1  0
  2  3  2  0
  3  4  1  0
  4  5  1  0
  4  6  2  0
  6  7  1  0
  7  8  2  0
  8  9  1  0
  9 10  1  0
 10 11  1  0
 10 12  2  0
 12 13  1  0
 12 14  1  0
 14 15  1  0
 15 16  1  0
 16 17  1  0
 16 18  2  0
 18 19  1  0
 18 20  1  0
 20 21  1  0
 20 22  2  0
 22 23  1  0
 14 24  1  0
 24 25  2  0
 25 26  1  0
  6 27  1  0
 27 28  1  0
 27 29  2  0
 29 30  1  0
 29  2  1  0
 25  7  1  0
 24  9  1  0
 22 15  1  0
M  END
>  <cnnaffinity>  (1) 
-5.1996

>  <filename>  (1) 
c1cncc(-c2cc3n(-n4cccc4)ccn3n2)c1

$$$$
