
     RDKit          3D

 36 39  0  0  0  0  0  0  0  0999 V2000
    4.9117    1.8269   16.9639 H   0  0  0  0  0  0  0  0  0  0  0  0
    5.3777    1.3130   17.8041 C   0  0  0  0  0  0  0  0  0  0  0  0
    6.5391    0.6933   17.5395 N   0  0  0  0  0  0  0  0  0  0  0  0
    7.1492    0.0620   18.5482 C   0  0  0  0  0  0  0  0  0  0  0  0
    8.1093   -0.3887   18.3015 H   0  0  0  0  0  0  0  0  0  0  0  0
    6.6470   -0.0091   19.8617 C   0  0  0  0  0  0  0  0  0  0  0  0
    7.3913   -0.6972   20.9345 C   0  0  0  0  0  0  0  0  0  0  0  0
    7.7424   -0.2559   22.1972 C   0  0  0  0  0  0  0  0  0  0  0  0
    7.5338    1.1172   22.7984 C   0  0  0  0  0  0  0  0  0  0  0  0
    6.9045    1.7278   22.1437 H   0  0  0  0  0  0  0  0  0  0  0  0
    8.5015    1.6417   22.8298 H   0  0  0  0  0  0  0  0  0  0  0  0
    6.9508    1.0603   24.1929 C   0  0  0  0  0  0  0  0  0  0  0  0
    5.5409    0.9554   24.4344 C   0  0  0  0  0  0  0  0  0  0  0  0
    4.8522    0.9728   23.5867 H   0  0  0  0  0  0  0  0  0  0  0  0
    4.9740    0.8637   25.6187 N   0  0  0  0  0  0  0  0  0  0  0  0
    5.7994    0.8438   26.7172 C   0  0  0  0  0  0  0  0  0  0  0  0
    5.2299    0.7515   28.0215 C   0  0  0  0  0  0  0  0  0  0  0  0
    4.1452    0.6888   28.0700 H   0  0  0  0  0  0  0  0  0  0  0  0
    6.0463    0.7300   29.1359 C   0  0  0  0  0  0  0  0  0  0  0  0
    5.6199    0.6488   30.1345 H   0  0  0  0  0  0  0  0  0  0  0  0
    7.4668    0.7664   28.9913 C   0  0  0  0  0  0  0  0  0  0  0  0
    8.0997    0.7520   29.8725 H   0  0  0  0  0  0  0  0  0  0  0  0
    8.0348    0.7993   27.7423 C   0  0  0  0  0  0  0  0  0  0  0  0
    9.0950    0.6877   27.5376 H   0  0  0  0  0  0  0  0  0  0  0  0
    7.2179    0.8949   26.5919 C   0  0  0  0  0  0  0  0  0  0  0  0
    7.7727    1.0220   25.2951 C   0  0  0  0  0  0  0  0  0  0  0  0
    8.8566    1.0899   25.2108 H   0  0  0  0  0  0  0  0  0  0  0  0
    8.4219   -1.3568   22.7756 C   0  0  0  0  0  0  0  0  0  0  0  0
    8.8542   -1.4378   23.7677 H   0  0  0  0  0  0  0  0  0  0  0  0
    8.5034   -2.3874   21.9432 N   0  0  0  0  0  0  0  0  0  0  0  0
    7.8826   -1.9585   20.8328 N   0  0  0  0  0  0  0  0  0  0  0  0
    7.7886   -2.5752   20.0364 H   0  0  0  0  0  0  0  0  0  0  0  0
    5.4290    0.6427   20.1112 C   0  0  0  0  0  0  0  0  0  0  0  0
    5.0049    0.6271   21.1152 H   0  0  0  0  0  0  0  0  0  0  0  0
    4.7828    1.3125   19.0700 C   0  0  0  0  0  0  0  0  0  0  0  0
    3.8563    1.8527   19.2298 H   0  0  0  0  0  0  0  0  0  0  0  0
  1  2  1  0
  2  3  2  0
  3  4  1  0
  4  5  1  0
  4  6  2  0
  6  7  1  0
  7  8  2  0
  8  9  1  0
  9 10  1  0
  9 11  1  0
  9 12  1  0
 12 13  2  0
 13 14  1  0
 13 15  1  0
 15 16  2  0
 16 17  1  0
 17 18  1  0
 17 19  2  0
 19 20  1  0
 19 21  1  0
 21 22  1  0
 21 23  2  0
 23 24  1  0
 23 25  1  0
 25 26  2  0
 26 27  1  0
  8 28  1  0
 28 29  1  0
 28 30  2  0
 30 31  1  0
 31 32  1  0
  6 33  1  0
 33 34  1  0
 33 35  2  0
 35 36  1  0
 35  2  1  0
 31  7  1  0
 26 12  1  0
 25 16  1  0
M  END
>  <cnnaffinity>  (1) 
-5.08868

>  <filename>  (1) 
c1cncc(-c2[nH]ncc2Cc2cnc3ccccc3c2)c1

$$$$
