
     RDKit          3D

 45 48  0  0  0  0  0  0  0  0999 V2000
    4.9142    1.7887   16.9877 H   0  0  0  0  0  0  0  0  0  0  0  0
    5.3940    1.2977   17.8290 C   0  0  0  0  0  0  0  0  0  0  0  0
    6.5551    0.6834   17.5661 N   0  0  0  0  0  0  0  0  0  0  0  0
    7.1629    0.0777   18.5962 C   0  0  0  0  0  0  0  0  0  0  0  0
    8.1055   -0.4124   18.3528 H   0  0  0  0  0  0  0  0  0  0  0  0
    6.6663    0.0260   19.9124 C   0  0  0  0  0  0  0  0  0  0  0  0
    7.4833   -0.6362   21.0222 C   0  0  2  0  0  0  0  0  0  0  0  0
    8.7081    0.2352   21.4002 C   0  0  0  0  0  0  0  0  0  0  0  0
    9.1919   -0.2175   22.2752 H   0  0  0  0  0  0  0  0  0  0  0  0
    9.4295    0.1768   20.5731 H   0  0  0  0  0  0  0  0  0  0  0  0
    8.4365    1.7225   21.6768 C   0  0  0  0  0  0  0  0  0  0  0  0
    9.3999    2.2436   21.7291 H   0  0  0  0  0  0  0  0  0  0  0  0
    7.9016    2.1554   20.8233 H   0  0  0  0  0  0  0  0  0  0  0  0
    7.6658    1.9964   22.9544 C   0  0  0  0  0  0  0  0  0  0  0  0
    8.2560    1.6600   24.2124 C   0  0  0  0  0  0  0  0  0  0  0  0
    9.2587    1.2299   24.2224 H   0  0  0  0  0  0  0  0  0  0  0  0
    7.5851    1.8662   25.3928 C   0  0  0  0  0  0  0  0  0  0  0  0
    8.0425    1.6073   26.3439 H   0  0  0  0  0  0  0  0  0  0  0  0
    6.2688    2.4275   25.3898 C   0  0  0  0  0  0  0  0  0  0  0  0
    5.5392    2.6550   26.5975 C   0  0  0  0  0  0  0  0  0  0  0  0
    6.0121    2.3834   27.5407 H   0  0  0  0  0  0  0  0  0  0  0  0
    4.2753    3.2010   26.5595 C   0  0  0  0  0  0  0  0  0  0  0  0
    3.7250    3.3715   27.4836 H   0  0  0  0  0  0  0  0  0  0  0  0
    3.6750    3.5481   25.3116 C   0  0  0  0  0  0  0  0  0  0  0  0
    2.6766    3.9826   25.2998 H   0  0  0  0  0  0  0  0  0  0  0  0
    4.3518    3.3405   24.1304 C   0  0  0  0  0  0  0  0  0  0  0  0
    3.9135    3.6076   23.1690 H   0  0  0  0  0  0  0  0  0  0  0  0
    5.6662    2.7757   24.1369 C   0  0  0  0  0  0  0  0  0  0  0  0
    6.4042    2.5535   22.9332 C   0  0  0  0  0  0  0  0  0  0  0  0
    5.9443    2.8263   21.9850 H   0  0  0  0  0  0  0  0  0  0  0  0
    7.9785   -2.0353   20.5906 C   0  0  0  0  0  0  0  0  0  0  0  0
    8.8972   -1.9555   19.9985 H   0  0  0  0  0  0  0  0  0  0  0  0
    7.1644   -2.4603   19.9882 H   0  0  0  0  0  0  0  0  0  0  0  0
    8.1863   -2.8825   21.7652 N   0  0  0  0  0  0  0  0  0  0  0  0
    9.1624   -2.8544   22.0301 H   0  0  0  0  0  0  0  0  0  0  0  0
    7.3625   -2.3050   22.8427 C   0  0  0  0  0  0  0  0  0  0  0  0
    6.6503   -3.0479   23.2264 H   0  0  0  0  0  0  0  0  0  0  0  0
    7.9931   -1.9853   23.6829 H   0  0  0  0  0  0  0  0  0  0  0  0
    6.6346   -1.0993   22.2283 C   0  0  0  0  0  0  0  0  0  0  0  0
    5.6748   -1.4368   21.8248 H   0  0  0  0  0  0  0  0  0  0  0  0
    6.4481   -0.3119   22.9596 H   0  0  0  0  0  0  0  0  0  0  0  0
    5.4403    0.6640   20.1536 C   0  0  0  0  0  0  0  0  0  0  0  0
    4.9999    0.6376   21.1535 H   0  0  0  0  0  0  0  0  0  0  0  0
    4.8032    1.3168   19.0960 C   0  0  0  0  0  0  0  0  0  0  0  0
    3.8700    1.8415   19.2475 H   0  0  0  0  0  0  0  0  0  0  0  0
  1  2  1  0
  2  3  2  0
  3  4  1  0
  4  5  1  0
  4  6  2  0
  6  7  1  0
  7  8  1  1
  8  9  1  0
  8 10  1  0
  8 11  1  0
 11 12  1  0
 11 13  1  0
 11 14  1  0
 14 15  2  0
 15 16  1  0
 15 17  1  0
 17 18  1  0
 17 19  2  0
 19 20  1  0
 20 21  1  0
 20 22  2  0
 22 23  1  0
 22 24  1  0
 24 25  1  0
 24 26  2  0
 26 27  1  0
 26 28  1  0
 28 29  2  0
 29 30  1  0
  7 31  1  0
 31 32  1  0
 31 33  1  0
 31 34  1  0
 34 35  1  0
 34 36  1  0
 36 37  1  0
 36 38  1  0
 36 39  1  0
 39 40  1  0
 39 41  1  0
  6 42  1  0
 42 43  1  0
 42 44  2  0
 44 45  1  0
 44  2  1  0
 39  7  1  0
 29 14  1  0
 28 19  1  0
M  END
>  <cnnaffinity>  (1) 
-4.80769

>  <filename>  (1) 
c1cncc([C@@]2(CCc3ccc4ccccc4c3)CCNC2)c1

$$$$
