
     RDKit          3D

 40 43  0  0  0  0  0  0  0  0999 V2000
    4.8140    1.3080   19.1111 C   0  0  0  0  0  0  0  0  0  0  0  0
    5.4016    1.2954   17.8385 C   0  0  0  0  0  0  0  0  0  0  0  0
    6.5608    0.6730   17.5762 N   0  0  0  0  0  0  0  0  0  0  0  0
    7.1675    0.0518   18.5932 C   0  0  0  0  0  0  0  0  0  0  0  0
    6.6586    0.0009   19.9022 C   0  0  0  0  0  0  0  0  0  0  0  0
    7.3727   -0.6723   20.9383 N   0  0  0  0  0  0  0  0  0  0  0  0
    6.7497   -1.5891   21.7184 N   0  0  0  0  0  0  0  0  0  0  0  0
    7.6897   -1.9469   22.5755 C   0  0  0  0  0  0  0  0  0  0  0  0
    7.4259   -2.8831   23.7040 C   0  0  0  0  0  0  0  0  0  0  0  0
    6.5397   -4.1152   23.3657 C   0  0  0  0  0  0  0  0  0  0  0  0
    5.4629   -3.6025   24.3487 C   0  0  0  0  0  0  0  0  0  0  0  0
    6.3524   -2.3991   24.7315 C   0  0  0  0  0  0  0  0  0  0  0  0
    5.9335   -1.4136   24.4990 H   0  0  0  0  0  0  0  0  0  0  0  0
    6.6883   -2.3750   25.7711 H   0  0  0  0  0  0  0  0  0  0  0  0
    4.5184   -3.3253   23.8719 H   0  0  0  0  0  0  0  0  0  0  0  0
    5.2290   -4.2805   25.1734 H   0  0  0  0  0  0  0  0  0  0  0  0
    6.9861   -5.0782   23.6262 H   0  0  0  0  0  0  0  0  0  0  0  0
    6.2283   -4.1567   22.3170 H   0  0  0  0  0  0  0  0  0  0  0  0
    8.3912   -3.1213   24.1516 H   0  0  0  0  0  0  0  0  0  0  0  0
    8.8899   -1.3402   22.3944 N   0  0  0  0  0  0  0  0  0  0  0  0
    8.6506   -0.5164   21.3906 C   0  0  0  0  0  0  0  0  0  0  0  0
    9.5340    0.6013   20.9335 C   0  0  0  0  0  0  0  0  0  0  0  0
    9.0622    2.0091   21.4106 C   0  0  0  0  0  0  0  0  0  0  0  0
    8.9121    2.1081   22.9039 C   0  0  0  0  0  0  0  0  0  0  0  0
    7.7947    1.9343   23.5700 N   0  0  0  0  0  0  0  0  0  0  0  0
    8.1509    1.9140   24.8945 C   0  0  0  0  0  0  0  0  0  0  0  0
    9.4962    2.0981   25.0470 C   0  0  0  0  0  0  0  0  0  0  0  0
    9.9694    2.2179   23.7561 N   0  0  0  0  0  0  0  0  0  0  0  0
   10.9202    2.3189   23.4513 H   0  0  0  0  0  0  0  0  0  0  0  0
   10.1212    2.1752   25.9292 H   0  0  0  0  0  0  0  0  0  0  0  0
    7.4059    1.7824   25.6669 H   0  0  0  0  0  0  0  0  0  0  0  0
    9.7720    2.7690   21.0682 H   0  0  0  0  0  0  0  0  0  0  0  0
    8.0863    2.2397   20.9708 H   0  0  0  0  0  0  0  0  0  0  0  0
    9.5951    0.5913   19.8433 H   0  0  0  0  0  0  0  0  0  0  0  0
   10.5304    0.3831   21.3228 H   0  0  0  0  0  0  0  0  0  0  0  0
    5.4408    0.6389   20.1700 C   0  0  0  0  0  0  0  0  0  0  0  0
    5.0194    0.6125   21.1795 H   0  0  0  0  0  0  0  0  0  0  0  0
    8.1122   -0.4342   18.3674 H   0  0  0  0  0  0  0  0  0  0  0  0
    4.9192    1.7853   16.9941 H   0  0  0  0  0  0  0  0  0  0  0  0
    3.8810    1.8395   19.2613 H   0  0  0  0  0  0  0  0  0  0  0  0
  1  2  2  0
  2  3  1  0
  3  4  2  0
  4  5  1  0
  5  6  1  0
  6  7  1  0
  7  8  2  0
  8  9  1  0
  9 10  1  0
 10 11  1  0
 11 12  1  0
 12 13  1  0
 12 14  1  0
 11 15  1  0
 11 16  1  0
 10 17  1  0
 10 18  1  0
  9 19  1  0
  8 20  1  0
 20 21  2  0
 21 22  1  0
 22 23  1  0
 23 24  1  0
 24 25  2  0
 25 26  1  0
 26 27  2  0
 27 28  1  0
 28 29  1  0
 27 30  1  0
 26 31  1  0
 23 32  1  0
 23 33  1  0
 22 34  1  0
 22 35  1  0
  5 36  2  0
 36 37  1  0
  4 38  1  0
  2 39  1  0
  1 40  1  0
 36  1  1  0
 21  6  1  0
 28 24  1  0
 12  9  1  0
M  END
>  <cnnaffinity>  (1) 
-6.00748

>  <filename>  (1) 
c1cncc(-n2nc(C3CCC3)nc2CCc2ncc[nH]2)c1

$$$$
