
     RDKit          3D

 43 46  0  0  0  0  0  0  0  0999 V2000
    4.7052    1.3660   18.7832 C   0  0  0  0  0  0  0  0  0  0  0  0
    5.4719    1.3016   17.6167 C   0  0  0  0  0  0  0  0  0  0  0  0
    6.6067    0.5854   17.5279 N   0  0  0  0  0  0  0  0  0  0  0  0
    7.0320   -0.0573   18.6211 C   0  0  0  0  0  0  0  0  0  0  0  0
    6.3640   -0.0052   19.8631 C   0  0  0  0  0  0  0  0  0  0  0  0
    6.9351   -0.6339   21.0090 N   0  0  0  0  0  0  0  0  0  0  0  0
    7.6770   -1.7695   20.8782 N   0  0  0  0  0  0  0  0  0  0  0  0
    7.9937   -2.0708   22.1237 C   0  0  0  0  0  0  0  0  0  0  0  0
    8.9248   -3.1912   22.4613 C   0  0  0  0  0  0  0  0  0  0  0  0
   10.2950   -2.8293   23.1349 C   0  0  0  0  0  0  0  0  0  0  0  0
   10.0017   -3.8305   24.2722 C   0  0  0  0  0  0  0  0  0  0  0  0
    8.5971   -4.0953   23.6863 C   0  0  0  0  0  0  0  0  0  0  0  0
    8.3858   -5.1414   23.4447 H   0  0  0  0  0  0  0  0  0  0  0  0
    7.7830   -3.7059   24.3041 H   0  0  0  0  0  0  0  0  0  0  0  0
   10.6655   -4.6995   24.2631 H   0  0  0  0  0  0  0  0  0  0  0  0
   10.0240   -3.4155   25.2861 H   0  0  0  0  0  0  0  0  0  0  0  0
   10.3619   -1.7892   23.4710 H   0  0  0  0  0  0  0  0  0  0  0  0
   11.1867   -3.0397   22.5348 H   0  0  0  0  0  0  0  0  0  0  0  0
    9.0363   -3.7431   21.5283 H   0  0  0  0  0  0  0  0  0  0  0  0
    7.5145   -1.2086   23.0554 N   0  0  0  0  0  0  0  0  0  0  0  0
    6.9322   -0.2641   22.3320 C   0  0  0  0  0  0  0  0  0  0  0  0
    6.6464    1.1100   22.8864 C   0  0  0  0  0  0  0  0  0  0  0  0
    7.8953    1.7373   23.5634 C   0  0  0  0  0  0  0  0  0  0  0  0
    9.0660    1.8769   22.5716 C   0  0  0  0  0  0  0  0  0  0  0  0
   10.3420    2.1480   23.2075 N   0  0  0  0  0  0  0  0  0  0  0  0
   11.1950    1.2219   23.7029 C   0  0  0  0  0  0  0  0  0  0  0  0
   12.2867    1.9038   24.1873 C   0  0  0  0  0  0  0  0  0  0  0  0
   11.9785    3.2588   23.9430 C   0  0  0  0  0  0  0  0  0  0  0  0
   10.7987    3.3931   23.3618 N   0  0  0  0  0  0  0  0  0  0  0  0
   12.5639    4.1493   24.1491 H   0  0  0  0  0  0  0  0  0  0  0  0
   13.1719    1.4917   24.6538 H   0  0  0  0  0  0  0  0  0  0  0  0
   10.9317    0.1701   23.6747 H   0  0  0  0  0  0  0  0  0  0  0  0
    9.1914    0.9462   22.0048 H   0  0  0  0  0  0  0  0  0  0  0  0
    8.8803    2.6809   21.8535 H   0  0  0  0  0  0  0  0  0  0  0  0
    8.2099    1.0955   24.3982 H   0  0  0  0  0  0  0  0  0  0  0  0
    7.6480    2.7236   23.9757 H   0  0  0  0  0  0  0  0  0  0  0  0
    6.2996    1.7720   22.0849 H   0  0  0  0  0  0  0  0  0  0  0  0
    5.8285    1.0130   23.6146 H   0  0  0  0  0  0  0  0  0  0  0  0
    5.1427    0.6841   19.9253 C   0  0  0  0  0  0  0  0  0  0  0  0
    4.5409    0.6797   20.8358 H   0  0  0  0  0  0  0  0  0  0  0  0
    7.9458   -0.6383   18.5154 H   0  0  0  0  0  0  0  0  0  0  0  0
    5.1602    1.8305   16.7170 H   0  0  0  0  0  0  0  0  0  0  0  0
    3.7976    1.9614   18.7969 H   0  0  0  0  0  0  0  0  0  0  0  0
  1  2  2  0
  2  3  1  0
  3  4  2  0
  4  5  1  0
  5  6  1  0
  6  7  1  0
  7  8  2  0
  8  9  1  0
  9 10  1  0
 10 11  1  0
 11 12  1  0
 12 13  1  0
 12 14  1  0
 11 15  1  0
 11 16  1  0
 10 17  1  0
 10 18  1  0
  9 19  1  0
  8 20  1  0
 20 21  2  0
 21 22  1  0
 22 23  1  0
 23 24  1  0
 24 25  1  0
 25 26  1  0
 26 27  2  0
 27 28  1  0
 28 29  2  0
 28 30  1  0
 27 31  1  0
 26 32  1  0
 24 33  1  0
 24 34  1  0
 23 35  1  0
 23 36  1  0
 22 37  1  0
 22 38  1  0
  5 39  2  0
 39 40  1  0
  4 41  1  0
  2 42  1  0
  1 43  1  0
 39  1  1  0
 21  6  1  0
 29 25  1  0
 12  9  1  0
M  END
>  <cnnaffinity>  (1) 
-6.20893

>  <filename>  (1) 
c1cncc(-n2nc(C3CCC3)nc2CCCn2cccn2)c1

$$$$
