
     RDKit          3D

 40 43  0  0  0  0  0  0  0  0999 V2000
    4.9755    1.8135   17.0060 H   0  0  0  0  0  0  0  0  0  0  0  0
    5.4360    1.2945   17.8445 C   0  0  0  0  0  0  0  0  0  0  0  0
    6.5900    0.6581   17.5928 N   0  0  0  0  0  0  0  0  0  0  0  0
    7.1850    0.0169   18.6070 C   0  0  0  0  0  0  0  0  0  0  0  0
    8.1239   -0.4798   18.3634 H   0  0  0  0  0  0  0  0  0  0  0  0
    6.6789   -0.0375   19.9395 C   0  0  0  0  0  0  0  0  0  0  0  0
    7.2847   -0.7639   20.9736 N   0  0  0  0  0  0  0  0  0  0  0  0
    7.2651   -0.3650   22.3903 C   0  0  1  0  0  0  0  0  0  0  0  0
    6.2595   -0.0881   22.7216 H   0  0  0  0  0  0  0  0  0  0  0  0
    7.7169   -1.6707   23.0793 C   0  0  0  0  0  0  0  0  0  0  0  0
    8.2416   -1.4786   24.0184 H   0  0  0  0  0  0  0  0  0  0  0  0
    6.8455   -2.2819   23.3292 H   0  0  0  0  0  0  0  0  0  0  0  0
    8.5947   -2.3759   22.0172 C   0  0  0  0  0  0  0  0  0  0  0  0
    9.6036   -2.6155   22.3653 H   0  0  0  0  0  0  0  0  0  0  0  0
    8.1326   -3.3167   21.6994 H   0  0  0  0  0  0  0  0  0  0  0  0
    8.6026   -1.3865   20.8390 C   0  0  2  0  0  0  0  0  0  0  0  0
    8.6792   -1.9036   19.8892 H   0  0  0  0  0  0  0  0  0  0  0  0
    9.7156   -0.3208   20.8768 C   0  0  0  0  0  0  0  0  0  0  0  0
   10.6875   -0.8269   20.8098 H   0  0  0  0  0  0  0  0  0  0  0  0
    9.6009    0.2828   19.9692 H   0  0  0  0  0  0  0  0  0  0  0  0
    9.6748    0.6230   22.1064 C   0  0  2  0  0  0  0  0  0  0  0  0
   10.0347    1.6065   21.7730 H   0  0  0  0  0  0  0  0  0  0  0  0
   10.6206    0.1659   23.2479 C   0  0  0  0  0  0  0  0  0  0  0  0
   10.3256   -0.8368   23.5783 H   0  0  0  0  0  0  0  0  0  0  0  0
   10.4799    0.8334   24.1062 H   0  0  0  0  0  0  0  0  0  0  0  0
   12.0843    0.1344   22.9005 C   0  0  0  0  0  0  0  0  0  0  0  0
   13.0722    1.5553   22.9467 S   0  0  0  0  0  0  0  0  0  0  0  0
   14.4791    0.6683   22.5153 C   0  0  0  0  0  0  0  0  0  0  0  0
   15.4066    1.2193   22.4221 H   0  0  0  0  0  0  0  0  0  0  0  0
   14.2128   -0.6525   22.3309 C   0  0  0  0  0  0  0  0  0  0  0  0
   14.9505   -1.4135   22.0996 H   0  0  0  0  0  0  0  0  0  0  0  0
   12.8311   -0.9439   22.5265 C   0  0  0  0  0  0  0  0  0  0  0  0
   12.3875   -1.9316   22.4276 H   0  0  0  0  0  0  0  0  0  0  0  0
    8.2185    0.8338   22.6210 C   0  0  0  0  0  0  0  0  0  0  0  0
    7.7698    1.6913   22.1038 H   0  0  0  0  0  0  0  0  0  0  0  0
    8.2292    1.0883   23.6903 H   0  0  0  0  0  0  0  0  0  0  0  0
    5.4586    0.6334   20.1655 C   0  0  0  0  0  0  0  0  0  0  0  0
    5.0188    0.6199   21.1565 H   0  0  0  0  0  0  0  0  0  0  0  0
    4.8405    1.3003   19.1059 C   0  0  0  0  0  0  0  0  0  0  0  0
    3.9112    1.8343   19.2612 H   0  0  0  0  0  0  0  0  0  0  0  0
  1  2  1  0
  2  3  2  0
  3  4  1  0
  4  5  1  0
  4  6  2  0
  6  7  1  0
  7  8  1  0
  8  9  1  1
  8 10  1  0
 10 11  1  0
 10 12  1  0
 10 13  1  0
 13 14  1  0
 13 15  1  0
 13 16  1  0
 16 17  1  6
 16 18  1  0
 18 19  1  0
 18 20  1  0
 18 21  1  0
 21 22  1  6
 21 23  1  0
 23 24  1  0
 23 25  1  0
 23 26  1  0
 26 27  1  0
 27 28  1  0
 28 29  1  0
 28 30  2  0
 30 31  1  0
 30 32  1  0
 32 33  1  0
 21 34  1  0
 34 35  1  0
 34 36  1  0
  6 37  1  0
 37 38  1  0
 37 39  2  0
 39 40  1  0
 39  2  1  0
 16  7  1  0
 32 26  2  0
 34  8  1  0
M  END
>  <cnnaffinity>  (1) 
-6.01972

>  <filename>  (1) 
c1cncc(N2[C@@H]3CC[C@H]2C[C@@H](Cc2cccs2)C3)c1

$$$$
