
     RDKit          3D

 45 48  0  0  0  0  0  0  0  0999 V2000
    4.8465    1.3884   18.9754 C   0  0  0  0  0  0  0  0  0  0  0  0
    5.4680    1.3025   17.7276 C   0  0  0  0  0  0  0  0  0  0  0  0
    6.5974    0.5998   17.5186 N   0  0  0  0  0  0  0  0  0  0  0  0
    7.1536   -0.0213   18.5640 C   0  0  0  0  0  0  0  0  0  0  0  0
    6.6349    0.0619   19.8668 C   0  0  0  0  0  0  0  0  0  0  0  0
    7.3107   -0.5718   20.9494 N   0  0  0  0  0  0  0  0  0  0  0  0
    7.6600   -1.8835   20.8670 N   0  0  0  0  0  0  0  0  0  0  0  0
    8.0744   -2.1553   22.0950 C   0  0  0  0  0  0  0  0  0  0  0  0
    8.5884   -3.5128   22.5100 C   0  0  0  0  0  0  0  0  0  0  0  0
    8.6730   -3.7752   24.0344 C   0  0  0  0  0  0  0  0  0  0  0  0
    8.5475   -5.3075   24.2122 C   0  0  0  0  0  0  0  0  0  0  0  0
    8.1443   -5.8975   22.8416 C   0  0  0  0  0  0  0  0  0  0  0  0
    7.7690   -4.7007   21.9593 C   0  0  0  0  0  0  0  0  0  0  0  0
    7.9518   -4.8880   20.8959 H   0  0  0  0  0  0  0  0  0  0  0  0
    6.7033   -4.4687   22.0656 H   0  0  0  0  0  0  0  0  0  0  0  0
    7.3251   -6.6187   22.9386 H   0  0  0  0  0  0  0  0  0  0  0  0
    8.9766   -6.4557   22.4008 H   0  0  0  0  0  0  0  0  0  0  0  0
    9.4930   -5.7496   24.5447 H   0  0  0  0  0  0  0  0  0  0  0  0
    7.8098   -5.5450   24.9861 H   0  0  0  0  0  0  0  0  0  0  0  0
    7.8738   -3.2408   24.5599 H   0  0  0  0  0  0  0  0  0  0  0  0
    9.6103   -3.3873   24.4468 H   0  0  0  0  0  0  0  0  0  0  0  0
    9.6102   -3.5350   22.1194 H   0  0  0  0  0  0  0  0  0  0  0  0
    8.0655   -1.0936   22.9395 N   0  0  0  0  0  0  0  0  0  0  0  0
    7.6030   -0.1088   22.2003 C   0  0  0  0  0  0  0  0  0  0  0  0
    7.4867    1.2967   22.6725 C   0  0  0  0  0  0  0  0  0  0  0  0
    8.2550    2.3603   21.8620 C   0  0  0  0  0  0  0  0  0  0  0  0
    7.9448    3.7716   22.3674 C   0  0  0  0  0  0  0  0  0  0  0  0
    8.2735    4.0824   24.1377 S   0  0  0  0  0  0  0  0  0  0  0  0
    9.9377    3.3772   24.3850 C   0  0  0  0  0  0  0  0  0  0  0  0
   10.7482    3.1473   23.1078 C   0  0  0  0  0  0  0  0  0  0  0  0
   10.0608    2.0146   21.8427 S   0  0  0  0  0  0  0  0  0  0  0  0
   11.7076    2.6823   23.3611 H   0  0  0  0  0  0  0  0  0  0  0  0
   10.9720    4.1188   22.6557 H   0  0  0  0  0  0  0  0  0  0  0  0
    9.8456    2.4695   24.9940 H   0  0  0  0  0  0  0  0  0  0  0  0
   10.4641    4.1316   24.9827 H   0  0  0  0  0  0  0  0  0  0  0  0
    6.8707    3.9682   22.2720 H   0  0  0  0  0  0  0  0  0  0  0  0
    8.4628    4.5079   21.7476 H   0  0  0  0  0  0  0  0  0  0  0  0
    7.9642    2.3053   20.8042 H   0  0  0  0  0  0  0  0  0  0  0  0
    6.4286    1.5773   22.7429 H   0  0  0  0  0  0  0  0  0  0  0  0
    7.8797    1.3071   23.6942 H   0  0  0  0  0  0  0  0  0  0  0  0
    5.4376    0.7586   20.0717 C   0  0  0  0  0  0  0  0  0  0  0  0
    4.9843    0.7914   21.0637 H   0  0  0  0  0  0  0  0  0  0  0  0
    8.0530   -0.6006   18.3581 H   0  0  0  0  0  0  0  0  0  0  0  0
    5.0431    1.7987   16.8583 H   0  0  0  0  0  0  0  0  0  0  0  0
    3.9238    1.9508   19.0885 H   0  0  0  0  0  0  0  0  0  0  0  0
  1  2  2  0
  2  3  1  0
  3  4  2  0
  4  5  1  0
  5  6  1  0
  6  7  1  0
  7  8  2  0
  8  9  1  0
  9 10  1  0
 10 11  1  0
 11 12  1  0
 12 13  1  0
 13 14  1  0
 13 15  1  0
 12 16  1  0
 12 17  1  0
 11 18  1  0
 11 19  1  0
 10 20  1  0
 10 21  1  0
  9 22  1  0
  8 23  1  0
 23 24  2  0
 24 25  1  0
 25 26  1  0
 26 27  1  0
 27 28  1  0
 28 29  1  0
 29 30  1  0
 30 31  1  0
 30 32  1  0
 30 33  1  0
 29 34  1  0
 29 35  1  0
 27 36  1  0
 27 37  1  0
 26 38  1  0
 25 39  1  0
 25 40  1  0
  5 41  2  0
 41 42  1  0
  4 43  1  0
  2 44  1  0
  1 45  1  0
 41  1  1  0
 24  6  1  0
 31 26  1  0
 13  9  1  0
M  END
>  <cnnaffinity>  (1) 
-6.05093

>  <filename>  (1) 
c1cncc(-n2nc(C3CCCC3)nc2CC2CSCCS2)c1

$$$$
