
     RDKit          3D

 44 47  0  0  0  0  0  0  0  0999 V2000
    8.5121    6.2660   23.1474 C   0  0  0  0  0  0  0  0  0  0  0  0
    7.6732    5.7541   22.1705 C   0  0  0  0  0  0  0  0  0  0  0  0
    7.7182    4.4862   21.7795 N   0  0  0  0  0  0  0  0  0  0  0  0
    8.6354    3.7031   22.3537 C   0  0  0  0  0  0  0  0  0  0  0  0
    8.7005    2.2671   21.8923 C   0  0  0  0  0  0  0  0  0  0  0  0
    7.7195    1.3161   22.6567 C   0  0  0  0  0  0  0  0  0  0  0  0
    7.7251   -0.1215   22.2242 C   0  0  0  0  0  0  0  0  0  0  0  0
    8.2057   -1.1406   22.9179 N   0  0  0  0  0  0  0  0  0  0  0  0
    8.1497   -2.1722   22.0342 C   0  0  0  0  0  0  0  0  0  0  0  0
    8.6043   -3.5553   22.3417 C   0  0  0  0  0  0  0  0  0  0  0  0
    7.6161   -4.3470   23.1956 C   0  0  0  0  0  0  0  0  0  0  0  0
    6.3301   -4.7457   22.4294 C   0  0  0  0  0  0  0  0  0  0  0  0
    6.6641   -6.2413   22.6556 C   0  0  0  0  0  0  0  0  0  0  0  0
    7.9602   -5.8413   23.3989 C   0  0  0  0  0  0  0  0  0  0  0  0
    8.0014   -6.1590   24.4476 H   0  0  0  0  0  0  0  0  0  0  0  0
    8.8988   -6.1636   22.9387 H   0  0  0  0  0  0  0  0  0  0  0  0
    6.8045   -6.8128   21.7313 H   0  0  0  0  0  0  0  0  0  0  0  0
    5.9518   -6.7886   23.2779 H   0  0  0  0  0  0  0  0  0  0  0  0
    5.3897   -4.3603   22.8338 H   0  0  0  0  0  0  0  0  0  0  0  0
    6.3539   -4.4496   21.3738 H   0  0  0  0  0  0  0  0  0  0  0  0
    7.4290   -3.8244   24.1414 H   0  0  0  0  0  0  0  0  0  0  0  0
    9.5850   -3.5026   22.8164 H   0  0  0  0  0  0  0  0  0  0  0  0
    8.7099   -4.0674   21.3824 H   0  0  0  0  0  0  0  0  0  0  0  0
    7.6621   -1.8608   20.8537 N   0  0  0  0  0  0  0  0  0  0  0  0
    7.3348   -0.5509   20.9878 N   0  0  0  0  0  0  0  0  0  0  0  0
    6.6373    0.0859   19.9254 C   0  0  0  0  0  0  0  0  0  0  0  0
    5.4309    0.7665   20.1240 C   0  0  0  0  0  0  0  0  0  0  0  0
    4.8365    1.3791   19.0150 C   0  0  0  0  0  0  0  0  0  0  0  0
    5.4746    1.3017   17.7731 C   0  0  0  0  0  0  0  0  0  0  0  0
    6.6070    0.6037   17.5724 N   0  0  0  0  0  0  0  0  0  0  0  0
    7.1537   -0.0162   18.6206 C   0  0  0  0  0  0  0  0  0  0  0  0
    8.0418   -0.6190   18.4310 H   0  0  0  0  0  0  0  0  0  0  0  0
    5.0466    1.7825   16.8963 H   0  0  0  0  0  0  0  0  0  0  0  0
    3.8891    1.9007   19.1044 H   0  0  0  0  0  0  0  0  0  0  0  0
    4.9568    0.7839   21.1078 H   0  0  0  0  0  0  0  0  0  0  0  0
    7.9667    1.3104   23.7237 H   0  0  0  0  0  0  0  0  0  0  0  0
    6.6951    1.6960   22.5476 H   0  0  0  0  0  0  0  0  0  0  0  0
    9.7344    1.9325   22.0179 H   0  0  0  0  0  0  0  0  0  0  0  0
    8.4626    2.2487   20.8259 H   0  0  0  0  0  0  0  0  0  0  0  0
    9.4522    4.0794   23.3463 N   0  0  0  0  0  0  0  0  0  0  0  0
    9.3844    5.3533   23.7234 C   0  0  0  0  0  0  0  0  0  0  0  0
   10.0756    5.6596   24.5108 H   0  0  0  0  0  0  0  0  0  0  0  0
    6.9352    6.3848   21.6693 H   0  0  0  0  0  0  0  0  0  0  0  0
    8.4786    7.3034   23.4475 H   0  0  0  0  0  0  0  0  0  0  0  0
  1  2  2  0
  2  3  1  0
  3  4  2  0
  4  5  1  0
  5  6  1  0
  6  7  1  0
  7  8  2  0
  8  9  1  0
  9 10  1  0
 10 11  1  0
 11 12  1  0
 12 13  1  0
 13 14  1  0
 14 15  1  0
 14 16  1  0
 13 17  1  0
 13 18  1  0
 12 19  1  0
 12 20  1  0
 11 21  1  0
 10 22  1  0
 10 23  1  0
  9 24  2  0
 24 25  1  0
 25 26  1  0
 26 27  2  0
 27 28  1  0
 28 29  2  0
 29 30  1  0
 30 31  2  0
 31 32  1  0
 29 33  1  0
 28 34  1  0
 27 35  1  0
  6 36  1  0
  6 37  1  0
  5 38  1  0
  5 39  1  0
  4 40  1  0
 40 41  2  0
 41 42  1  0
  2 43  1  0
  1 44  1  0
 41  1  1  0
 25  7  1  0
 31 26  1  0
 14 11  1  0
M  END
>  <cnnaffinity>  (1) 
-5.89889

>  <filename>  (1) 
c1cnc(CCc2nc(CC3CCC3)nn2-c2cccnc2)nc1

$$$$
