
     RDKit          3D

 32 34  0  0  0  0  0  0  0  0999 V2000
    4.9854    1.8214   16.9439 H   0  0  0  0  0  0  0  0  0  0  0  0
    5.4455    1.3191   17.7915 C   0  0  0  0  0  0  0  0  0  0  0  0
    6.6093    0.6992   17.5418 N   0  0  0  0  0  0  0  0  0  0  0  0
    7.2022    0.0832   18.5699 C   0  0  0  0  0  0  0  0  0  0  0  0
    8.1447   -0.4229   18.3525 H   0  0  0  0  0  0  0  0  0  0  0  0
    6.6868    0.0421   19.8738 C   0  0  0  0  0  0  0  0  0  0  0  0
    7.4044   -0.7304   20.9507 C   0  0  0  0  0  0  0  0  0  0  0  0
    8.4190   -0.9846   20.6165 H   0  0  0  0  0  0  0  0  0  0  0  0
    7.5211   -0.1071   21.8414 H   0  0  0  0  0  0  0  0  0  0  0  0
    6.6963   -1.9676   21.3038 N   0  0  0  0  0  0  0  0  0  0  0  0
    6.1726   -2.8480   20.3976 C   0  0  0  0  0  0  0  0  0  0  0  0
    6.1804   -2.6354   19.3341 H   0  0  0  0  0  0  0  0  0  0  0  0
    5.6826   -3.9259   20.9565 N   0  0  0  0  0  0  0  0  0  0  0  0
    5.8997   -3.7466   22.2992 C   0  0  0  0  0  0  0  0  0  0  0  0
    5.6218   -4.4962   23.0307 H   0  0  0  0  0  0  0  0  0  0  0  0
    6.5029   -2.5432   22.5505 C   0  0  0  0  0  0  0  0  0  0  0  0
    6.9202   -1.9244   23.8366 C   0  0  2  0  0  0  0  0  0  0  0  0
    6.5126   -2.5554   24.6388 H   0  0  0  0  0  0  0  0  0  0  0  0
    6.4205   -0.4730   24.0711 C   0  0  0  0  0  0  0  0  0  0  0  0
    5.5571   -0.4522   24.7532 H   0  0  0  0  0  0  0  0  0  0  0  0
    6.0981    0.0315   23.1505 H   0  0  0  0  0  0  0  0  0  0  0  0
    7.5050    0.2539   24.6194 O   0  0  0  0  0  0  0  0  0  0  0  0
    8.5430   -0.6315   25.0169 C   0  0  0  0  0  0  0  0  0  0  0  0
    9.4857   -0.0751   24.9593 H   0  0  0  0  0  0  0  0  0  0  0  0
    8.4117   -0.9517   26.0647 H   0  0  0  0  0  0  0  0  0  0  0  0
    8.4511   -1.8142   24.0550 C   0  0  0  0  0  0  0  0  0  0  0  0
    8.9700   -1.5803   23.1160 H   0  0  0  0  0  0  0  0  0  0  0  0
    8.8871   -2.7333   24.4682 H   0  0  0  0  0  0  0  0  0  0  0  0
    5.4602    0.6803   20.1092 C   0  0  0  0  0  0  0  0  0  0  0  0
    5.0003    0.6483   21.1016 H   0  0  0  0  0  0  0  0  0  0  0  0
    4.8301    1.3313   19.0480 C   0  0  0  0  0  0  0  0  0  0  0  0
    3.8841    1.8483   19.1800 H   0  0  0  0  0  0  0  0  0  0  0  0
  1  2  1  0
  2  3  2  0
  3  4  1  0
  4  5  1  0
  4  6  2  0
  6  7  1  0
  7  8  1  0
  7  9  1  0
  7 10  1  0
 10 11  1  0
 11 12  1  0
 11 13  2  0
 13 14  1  0
 14 15  1  0
 14 16  2  0
 16 17  1  0
 17 18  1  1
 17 19  1  0
 19 20  1  0
 19 21  1  0
 19 22  1  0
 22 23  1  0
 23 24  1  0
 23 25  1  0
 23 26  1  0
 26 27  1  0
 26 28  1  0
  6 29  1  0
 29 30  1  0
 29 31  2  0
 31 32  1  0
 31  2  1  0
 16 10  1  0
 26 17  1  0
M  END
>  <cnnaffinity>  (1) 
-4.33822

>  <filename>  (1) 
c1cncc(Cn2cncc2[C@H]2CCOC2)c1

$$$$
