
     RDKit          3D

 32 35  0  0  0  0  0  0  0  0999 V2000
    4.9180    1.7789   16.9994 H   0  0  0  0  0  0  0  0  0  0  0  0
    5.4031    1.2941   17.8410 C   0  0  0  0  0  0  0  0  0  0  0  0
    6.5667    0.6784   17.5796 N   0  0  0  0  0  0  0  0  0  0  0  0
    7.1675    0.0558   18.5933 C   0  0  0  0  0  0  0  0  0  0  0  0
    8.1160   -0.4358   18.3775 H   0  0  0  0  0  0  0  0  0  0  0  0
    6.6481    0.0222   19.8933 C   0  0  0  0  0  0  0  0  0  0  0  0
    7.4043   -0.6987   20.9157 C   0  0  0  0  0  0  0  0  0  0  0  0
    7.8489   -1.9340   20.8431 N   0  0  0  0  0  0  0  0  0  0  0  0
    8.4597   -2.1815   22.0178 N   0  0  0  0  0  0  0  0  0  0  0  0
    8.4274   -1.1468   22.7817 N   0  0  0  0  0  0  0  0  0  0  0  0
    7.7795   -0.1835   22.1052 N   0  0  0  0  0  0  0  0  0  0  0  0
    7.5638    1.1399   22.6756 C   0  0  0  0  0  0  0  0  0  0  0  0
    8.4466    1.3898   23.2727 H   0  0  0  0  0  0  0  0  0  0  0  0
    7.5236    1.8535   21.8520 H   0  0  0  0  0  0  0  0  0  0  0  0
    6.3157    1.2337   23.5238 C   0  0  0  0  0  0  0  0  0  0  0  0
    6.0421    0.3770   24.5323 C   0  0  0  0  0  0  0  0  0  0  0  0
    6.6500   -0.4740   24.8171 H   0  0  0  0  0  0  0  0  0  0  0  0
    4.5668    0.7159   25.3674 S   0  0  0  0  0  0  0  0  0  0  0  0
    4.2756    2.1007   24.3453 C   0  0  0  0  0  0  0  0  0  0  0  0
    3.1865    2.9868   24.3939 C   0  0  0  0  0  0  0  0  0  0  0  0
    2.4019    2.8472   25.1321 H   0  0  0  0  0  0  0  0  0  0  0  0
    3.1412    4.0438   23.4877 C   0  0  0  0  0  0  0  0  0  0  0  0
    2.3077    4.7415   23.5124 H   0  0  0  0  0  0  0  0  0  0  0  0
    4.1700    4.2260   22.5345 C   0  0  0  0  0  0  0  0  0  0  0  0
    4.1229    5.0560   21.8307 H   0  0  0  0  0  0  0  0  0  0  0  0
    5.2457    3.3480   22.4833 C   0  0  0  0  0  0  0  0  0  0  0  0
    6.0352    3.4939   21.7461 H   0  0  0  0  0  0  0  0  0  0  0  0
    5.3113    2.2662   23.3955 C   0  0  0  0  0  0  0  0  0  0  0  0
    5.4308    0.6620   20.1578 C   0  0  0  0  0  0  0  0  0  0  0  0
    4.9966    0.6392   21.1641 H   0  0  0  0  0  0  0  0  0  0  0  0
    4.7998    1.3163   19.1052 C   0  0  0  0  0  0  0  0  0  0  0  0
    3.8664    1.8486   19.2592 H   0  0  0  0  0  0  0  0  0  0  0  0
  1  2  1  0
  2  3  2  0
  3  4  1  0
  4  5  1  0
  4  6  2  0
  6  7  1  0
  7  8  2  0
  8  9  1  0
  9 10  2  0
 10 11  1  0
 11 12  1  0
 12 13  1  0
 12 14  1  0
 12 15  1  0
 15 16  2  0
 16 17  1  0
 16 18  1  0
 18 19  1  0
 19 20  2  0
 20 21  1  0
 20 22  1  0
 22 23  1  0
 22 24  2  0
 24 25  1  0
 24 26  1  0
 26 27  1  0
 26 28  2  0
  6 29  1  0
 29 30  1  0
 29 31  2  0
 31 32  1  0
 31  2  1  0
 11  7  1  0
 28 15  1  0
 28 19  1  0
M  END
>  <cnnaffinity>  (1) 
-4.90896

>  <filename>  (1) 
c1cncc(-c2nnnn2Cc2csc3ccccc23)c1

$$$$
