
     RDKit          3D

 33 36  0  0  0  0  0  0  0  0999 V2000
    4.9651    2.2651   16.3003 H   0  0  0  0  0  0  0  0  0  0  0  0
    5.1663    1.7400   17.2320 C   0  0  0  0  0  0  0  0  0  0  0  0
    6.2479    0.9472   17.2375 N   0  0  0  0  0  0  0  0  0  0  0  0
    6.5283    0.3079   18.3760 C   0  0  0  0  0  0  0  0  0  0  0  0
    7.4038   -0.3371   18.3682 H   0  0  0  0  0  0  0  0  0  0  0  0
    5.7659    0.4312   19.5460 C   0  0  0  0  0  0  0  0  0  0  0  0
    6.2547   -0.2675   20.7313 C   0  0  0  0  0  0  0  0  0  0  0  0
    7.2057   -1.2289   20.6010 N   0  0  0  0  0  0  0  0  0  0  0  0
    7.5040   -1.5543   21.8439 C   0  0  0  0  0  0  0  0  0  0  0  0
    8.7204   -2.2776   22.2594 C   0  0  0  0  0  0  0  0  0  0  0  0
    9.9328   -1.8530   21.7260 C   0  0  0  0  0  0  0  0  0  0  0  0
    9.9258   -1.1112   20.9302 H   0  0  0  0  0  0  0  0  0  0  0  0
   11.1700   -2.3161   22.2286 C   0  0  0  0  0  0  0  0  0  0  0  0
   12.1083   -1.9585   21.8069 H   0  0  0  0  0  0  0  0  0  0  0  0
   11.1684   -3.2235   23.2599 C   0  0  0  0  0  0  0  0  0  0  0  0
   12.0911   -3.5884   23.6973 H   0  0  0  0  0  0  0  0  0  0  0  0
    9.9552   -3.7673   23.7592 C   0  0  0  0  0  0  0  0  0  0  0  0
    9.9899   -4.7604   24.7757 C   0  0  0  0  0  0  0  0  0  0  0  0
   10.9607   -5.0666   25.1629 H   0  0  0  0  0  0  0  0  0  0  0  0
    8.8319   -5.2920   25.2750 C   0  0  0  0  0  0  0  0  0  0  0  0
    8.8844   -6.0208   26.0777 H   0  0  0  0  0  0  0  0  0  0  0  0
    7.5749   -4.8967   24.7441 C   0  0  0  0  0  0  0  0  0  0  0  0
    6.6710   -5.3082   25.1828 H   0  0  0  0  0  0  0  0  0  0  0  0
    7.5008   -3.9645   23.7267 C   0  0  0  0  0  0  0  0  0  0  0  0
    6.5346   -3.7270   23.2838 H   0  0  0  0  0  0  0  0  0  0  0  0
    8.6924   -3.3238   23.2424 C   0  0  0  0  0  0  0  0  0  0  0  0
    6.7122   -0.8455   22.6739 N   0  0  0  0  0  0  0  0  0  0  0  0
    6.7184   -0.8727   23.6817 H   0  0  0  0  0  0  0  0  0  0  0  0
    5.9211    0.0102   21.9770 N   0  0  0  0  0  0  0  0  0  0  0  0
    4.6217    1.2393   19.5244 C   0  0  0  0  0  0  0  0  0  0  0  0
    4.0017    1.3489   20.4162 H   0  0  0  0  0  0  0  0  0  0  0  0
    4.3185    1.8990   18.3367 C   0  0  0  0  0  0  0  0  0  0  0  0
    3.4484    2.5405   18.2545 H   0  0  0  0  0  0  0  0  0  0  0  0
  1  2  1  0
  2  3  2  0
  3  4  1  0
  4  5  1  0
  4  6  2  0
  6  7  1  0
  7  8  1  0
  8  9  2  0
  9 10  1  0
 10 11  2  0
 11 12  1  0
 11 13  1  0
 13 14  1  0
 13 15  2  0
 15 16  1  0
 15 17  1  0
 17 18  2  0
 18 19  1  0
 18 20  1  0
 20 21  1  0
 20 22  2  0
 22 23  1  0
 22 24  1  0
 24 25  1  0
 24 26  2  0
  9 27  1  0
 27 28  1  0
 27 29  1  0
  6 30  1  0
 30 31  1  0
 30 32  2  0
 32 33  1  0
 32  2  1  0
 29  7  2  0
 26 10  1  0
 26 17  1  0
M  END
>  <cnnaffinity>  (1) 
-5.46845

>  <filename>  (1) 
c1cncc(-c2n[nH]c(-c3cccc4ccccc34)n2)c1

$$$$
