
     RDKit          3D

 37 40  0  0  0  0  0  0  0  0999 V2000
    4.9072    1.8165   16.9726 H   0  0  0  0  0  0  0  0  0  0  0  0
    5.4618    1.3458   17.7860 C   0  0  0  0  0  0  0  0  0  0  0  0
    6.6289    0.7592   17.4699 N   0  0  0  0  0  0  0  0  0  0  0  0
    7.2884    0.1191   18.4452 C   0  0  0  0  0  0  0  0  0  0  0  0
    8.2148   -0.3768   18.1617 H   0  0  0  0  0  0  0  0  0  0  0  0
    6.8376    0.0243   19.7741 C   0  0  0  0  0  0  0  0  0  0  0  0
    7.5508   -0.7412   20.7357 N   0  0  0  0  0  0  0  0  0  0  0  0
    8.9237   -0.7888   21.0170 C   0  0  0  0  0  0  0  0  0  0  0  0
    9.6416   -0.1758   20.4930 H   0  0  0  0  0  0  0  0  0  0  0  0
    9.1457   -1.6741   22.0240 C   0  0  0  0  0  0  0  0  0  0  0  0
   10.0379   -1.9918   22.5360 H   0  0  0  0  0  0  0  0  0  0  0  0
    7.9067   -2.1887   22.3715 N   0  0  0  0  0  0  0  0  0  0  0  0
    7.4457   -3.1516   23.2200 N   0  0  0  0  0  0  0  0  0  0  0  0
    6.1354   -3.1841   22.9351 C   0  0  0  0  0  0  0  0  0  0  0  0
    5.1223   -4.1809   23.4727 C   0  0  0  0  0  0  0  0  0  0  0  0
    4.1343   -3.7179   23.3049 H   0  0  0  0  0  0  0  0  0  0  0  0
    5.1855   -4.5194   24.9810 C   0  0  0  0  0  0  0  0  0  0  0  0
    4.9196   -3.6441   25.5887 H   0  0  0  0  0  0  0  0  0  0  0  0
    6.2118   -4.7991   25.2479 H   0  0  0  0  0  0  0  0  0  0  0  0
    4.2395   -5.6817   25.3456 C   0  0  0  0  0  0  0  0  0  0  0  0
    4.3725   -5.9675   26.3974 H   0  0  0  0  0  0  0  0  0  0  0  0
    3.1896   -5.3702   25.2261 H   0  0  0  0  0  0  0  0  0  0  0  0
    4.4323   -6.8775   24.5197 N   0  0  0  0  0  0  0  0  0  0  0  0
    5.4002   -7.1733   24.6482 H   0  0  0  0  0  0  0  0  0  0  0  0
    4.2687   -6.5708   23.0991 C   0  0  0  0  0  0  0  0  0  0  0  0
    3.2161   -6.3141   22.9122 H   0  0  0  0  0  0  0  0  0  0  0  0
    4.4789   -7.4695   22.5292 H   0  0  0  0  0  0  0  0  0  0  0  0
    5.1945   -5.4632   22.6045 C   0  0  0  0  0  0  0  0  0  0  0  0
    6.2282   -5.8360   22.6189 H   0  0  0  0  0  0  0  0  0  0  0  0
    4.9630   -5.2206   21.5603 H   0  0  0  0  0  0  0  0  0  0  0  0
    5.7804   -2.3002   21.9049 C   0  0  0  0  0  0  0  0  0  0  0  0
    4.8010   -2.1940   21.5121 H   0  0  0  0  0  0  0  0  0  0  0  0
    6.9556   -1.6582   21.5812 C   0  0  0  0  0  0  0  0  0  0  0  0
    5.6298    0.6671   20.1023 C   0  0  0  0  0  0  0  0  0  0  0  0
    5.2612    0.6670   21.1306 H   0  0  0  0  0  0  0  0  0  0  0  0
    4.9356    1.3246   19.0828 C   0  0  0  0  0  0  0  0  0  0  0  0
    3.9815    1.8012   19.2783 H   0  0  0  0  0  0  0  0  0  0  0  0
  1  2  1  0
  2  3  2  0
  3  4  1  0
  4  5  1  0
  4  6  2  0
  6  7  1  0
  7  8  1  0
  8  9  1  0
  8 10  2  0
 10 11  1  0
 10 12  1  0
 12 13  1  0
 13 14  2  0
 14 15  1  0
 15 16  1  0
 15 17  1  0
 17 18  1  0
 17 19  1  0
 17 20  1  0
 20 21  1  0
 20 22  1  0
 20 23  1  0
 23 24  1  0
 23 25  1  0
 25 26  1  0
 25 27  1  0
 25 28  1  0
 28 29  1  0
 28 30  1  0
 14 31  1  0
 31 32  1  0
 31 33  2  0
  6 34  1  0
 34 35  1  0
 34 36  2  0
 36 37  1  0
 36  2  1  0
 33  7  1  0
 33 12  1  0
 28 15  1  0
M  END
>  <cnnaffinity>  (1) 
-5.1198

>  <filename>  (1) 
c1cncc(-n2ccn3nc(C4CCNCC4)cc23)c1

$$$$
