
     RDKit          3D

 34 36  0  0  0  0  0  0  0  0999 V2000
    4.9431    1.7919   16.9889 H   0  0  0  0  0  0  0  0  0  0  0  0
    5.4004    1.2851   17.8353 C   0  0  0  0  0  0  0  0  0  0  0  0
    6.5624    0.6587   17.5900 N   0  0  0  0  0  0  0  0  0  0  0  0
    7.1731    0.0552   18.6213 C   0  0  0  0  0  0  0  0  0  0  0  0
    8.1157   -0.4336   18.3804 H   0  0  0  0  0  0  0  0  0  0  0  0
    6.6753    0.0389   19.9515 C   0  0  0  0  0  0  0  0  0  0  0  0
    7.3605   -0.6069   21.0119 N   0  0  0  0  0  0  0  0  0  0  0  0
    7.4116   -0.3228   22.3744 C   0  0  0  0  0  0  0  0  0  0  0  0
    6.8509    0.8240   22.7671 O   0  0  0  0  0  0  0  0  0  0  0  0
    6.9784    1.1868   24.1678 C   0  0  0  0  0  0  0  0  0  0  0  0
    6.6316    0.3411   24.7777 H   0  0  0  0  0  0  0  0  0  0  0  0
    8.4106    1.5887   24.5501 C   0  0  0  0  0  0  0  0  0  0  0  0
    8.9812    0.7059   24.8553 H   0  0  0  0  0  0  0  0  0  0  0  0
    8.9084    1.9899   23.6585 H   0  0  0  0  0  0  0  0  0  0  0  0
    8.2686    2.6794   25.6450 C   0  0  0  0  0  0  0  0  0  0  0  0
    8.9400    3.5202   25.4374 H   0  0  0  0  0  0  0  0  0  0  0  0
    8.5526    2.3077   26.6369 H   0  0  0  0  0  0  0  0  0  0  0  0
    6.7752    3.1242   25.6350 C   0  0  0  0  0  0  0  0  0  0  0  0
    6.2792    2.8034   26.5603 H   0  0  0  0  0  0  0  0  0  0  0  0
    6.6648    4.2145   25.5964 H   0  0  0  0  0  0  0  0  0  0  0  0
    6.1406    2.4388   24.4050 C   0  0  0  0  0  0  0  0  0  0  0  0
    5.0782    2.1960   24.5379 H   0  0  0  0  0  0  0  0  0  0  0  0
    6.2127    3.0781   23.5135 H   0  0  0  0  0  0  0  0  0  0  0  0
    8.0048   -1.1750   23.1182 N   0  0  0  0  0  0  0  0  0  0  0  0
    8.4323   -2.2750   22.2589 C   0  0  0  0  0  0  0  0  0  0  0  0
    9.5162   -2.4416   22.3471 H   0  0  0  0  0  0  0  0  0  0  0  0
    7.9385   -3.2110   22.5618 H   0  0  0  0  0  0  0  0  0  0  0  0
    8.0332   -1.8816   20.8202 C   0  0  0  0  0  0  0  0  0  0  0  0
    8.9013   -1.7707   20.1538 H   0  0  0  0  0  0  0  0  0  0  0  0
    7.3380   -2.6030   20.3725 H   0  0  0  0  0  0  0  0  0  0  0  0
    5.4417    0.6708   20.1714 C   0  0  0  0  0  0  0  0  0  0  0  0
    5.0209    0.6574   21.1722 H   0  0  0  0  0  0  0  0  0  0  0  0
    4.8016    1.3047   19.0993 C   0  0  0  0  0  0  0  0  0  0  0  0
    3.8649    1.8336   19.2412 H   0  0  0  0  0  0  0  0  0  0  0  0
  1  2  1  0
  2  3  2  0
  3  4  1  0
  4  5  1  0
  4  6  2  0
  6  7  1  0
  7  8  1  0
  8  9  1  0
  9 10  1  0
 10 11  1  0
 10 12  1  0
 12 13  1  0
 12 14  1  0
 12 15  1  0
 15 16  1  0
 15 17  1  0
 15 18  1  0
 18 19  1  0
 18 20  1  0
 18 21  1  0
 21 22  1  0
 21 23  1  0
  8 24  2  0
 24 25  1  0
 25 26  1  0
 25 27  1  0
 25 28  1  0
 28 29  1  0
 28 30  1  0
  6 31  1  0
 31 32  1  0
 31 33  2  0
 33 34  1  0
 33  2  1  0
 28  7  1  0
 21 10  1  0
M  END
>  <cnnaffinity>  (1) 
-4.66111

>  <filename>  (1) 
c1cncc(N2CCN=C2OC2CCCC2)c1

$$$$
