
     RDKit          3D

 32 34  0  0  0  0  0  0  0  0999 V2000
    4.9186    1.7770   16.9972 H   0  0  0  0  0  0  0  0  0  0  0  0
    5.4029    1.2921   17.8381 C   0  0  0  0  0  0  0  0  0  0  0  0
    6.5671    0.6765   17.5778 N   0  0  0  0  0  0  0  0  0  0  0  0
    7.1737    0.0661   18.5946 C   0  0  0  0  0  0  0  0  0  0  0  0
    8.1157   -0.4259   18.3558 H   0  0  0  0  0  0  0  0  0  0  0  0
    6.6542    0.0216   19.8918 C   0  0  0  0  0  0  0  0  0  0  0  0
    7.3430   -0.6826   20.9637 C   0  0  0  0  0  0  0  0  0  0  0  0
    6.7992   -0.9926   22.1273 N   0  0  0  0  0  0  0  0  0  0  0  0
    7.7956   -1.6107   22.7977 C   0  0  0  0  0  0  0  0  0  0  0  0
    7.6506   -2.1445   24.1928 C   0  0  0  0  0  0  0  0  0  0  0  0
    6.6154   -1.9476   24.4975 H   0  0  0  0  0  0  0  0  0  0  0  0
    8.5930   -1.4145   25.1800 C   0  0  0  0  0  0  0  0  0  0  0  0
    9.6231   -1.4906   24.8084 H   0  0  0  0  0  0  0  0  0  0  0  0
    8.3455   -0.3460   25.2278 H   0  0  0  0  0  0  0  0  0  0  0  0
    8.5242   -2.0372   26.5765 C   0  0  0  0  0  0  0  0  0  0  0  0
    7.5295   -1.8662   27.0077 H   0  0  0  0  0  0  0  0  0  0  0  0
    9.2393   -1.5491   27.2486 H   0  0  0  0  0  0  0  0  0  0  0  0
    8.7720   -3.4812   26.5776 N   0  0  0  0  0  0  0  0  0  0  0  0
    9.7099   -3.6207   26.2027 H   0  0  0  0  0  0  0  0  0  0  0  0
    7.8522   -4.1906   25.6837 C   0  0  0  0  0  0  0  0  0  0  0  0
    8.0808   -5.2622   25.7094 H   0  0  0  0  0  0  0  0  0  0  0  0
    6.8378   -4.0824   26.0884 H   0  0  0  0  0  0  0  0  0  0  0  0
    7.8889   -3.6723   24.2439 C   0  0  0  0  0  0  0  0  0  0  0  0
    7.1443   -4.1968   23.6311 H   0  0  0  0  0  0  0  0  0  0  0  0
    8.8745   -3.8916   23.8128 H   0  0  0  0  0  0  0  0  0  0  0  0
    8.9342   -1.7096   22.1246 N   0  0  0  0  0  0  0  0  0  0  0  0
    8.6170   -1.1119   20.9508 N   0  0  0  0  0  0  0  0  0  0  0  0
    9.3028   -0.9967   20.2266 H   0  0  0  0  0  0  0  0  0  0  0  0
    5.4300    0.6603   20.1540 C   0  0  0  0  0  0  0  0  0  0  0  0
    5.0060    0.6304   21.1643 H   0  0  0  0  0  0  0  0  0  0  0  0
    4.8019    1.3149   19.1025 C   0  0  0  0  0  0  0  0  0  0  0  0
    3.8695    1.8472   19.2569 H   0  0  0  0  0  0  0  0  0  0  0  0
  1  2  1  0
  2  3  2  0
  3  4  1  0
  4  5  1  0
  4  6  2  0
  6  7  1  0
  7  8  2  0
  8  9  1  0
  9 10  1  0
 10 11  1  0
 10 12  1  0
 12 13  1  0
 12 14  1  0
 12 15  1  0
 15 16  1  0
 15 17  1  0
 15 18  1  0
 18 19  1  0
 18 20  1  0
 20 21  1  0
 20 22  1  0
 20 23  1  0
 23 24  1  0
 23 25  1  0
  9 26  2  0
 26 27  1  0
 27 28  1  0
  6 29  1  0
 29 30  1  0
 29 31  2  0
 31 32  1  0
 31  2  1  0
 27  7  1  0
 23 10  1  0
M  END
>  <cnnaffinity>  (1) 
-4.60587

>  <filename>  (1) 
c1cncc(-c2nc(C3CCNCC3)n[nH]2)c1

$$$$
