
     RDKit          3D

 32 34  0  0  0  0  0  0  0  0999 V2000
    4.9114    1.7849   16.9913 H   0  0  0  0  0  0  0  0  0  0  0  0
    5.3963    1.2973   17.8322 C   0  0  0  0  0  0  0  0  0  0  0  0
    6.5609    0.6846   17.5637 N   0  0  0  0  0  0  0  0  0  0  0  0
    7.1633    0.0630   18.5847 C   0  0  0  0  0  0  0  0  0  0  0  0
    8.1143   -0.4259   18.3719 H   0  0  0  0  0  0  0  0  0  0  0  0
    6.6507    0.0229   19.8908 C   0  0  0  0  0  0  0  0  0  0  0  0
    7.3712   -0.6966   20.9668 C   0  0  0  0  0  0  0  0  0  0  0  0
    7.3740   -2.1000   20.9452 C   0  0  0  0  0  0  0  0  0  0  0  0
    6.8308   -2.6083   20.1514 H   0  0  0  0  0  0  0  0  0  0  0  0
    8.0364   -2.8336   21.9280 C   0  0  0  0  0  0  0  0  0  0  0  0
    8.0233   -3.9210   21.9060 H   0  0  0  0  0  0  0  0  0  0  0  0
    8.7109   -2.1522   22.9441 C   0  0  0  0  0  0  0  0  0  0  0  0
    9.2311   -2.7047   23.7164 H   0  0  0  0  0  0  0  0  0  0  0  0
    8.7304   -0.7572   22.9718 C   0  0  0  0  0  0  0  0  0  0  0  0
    9.2551   -0.2118   23.7503 H   0  0  0  0  0  0  0  0  0  0  0  0
    8.0766   -0.0088   21.9853 C   0  0  0  0  0  0  0  0  0  0  0  0
    8.1555    1.4001   22.0182 N   0  0  0  0  0  0  0  0  0  0  0  0
    7.3178    1.9067   21.7874 H   0  0  0  0  0  0  0  0  0  0  0  0
    9.2590    2.1810   22.2853 C   0  0  0  0  0  0  0  0  0  0  0  0
   10.5485    1.7023   22.0589 C   0  0  0  0  0  0  0  0  0  0  0  0
   10.6943    0.7124   21.6547 H   0  0  0  0  0  0  0  0  0  0  0  0
   11.6211    2.5217   22.3685 C   0  0  0  0  0  0  0  0  0  0  0  0
   12.6292    2.1605   22.2104 H   0  0  0  0  0  0  0  0  0  0  0  0
   11.5089    3.7539   22.8728 N   0  0  0  0  0  0  0  0  0  0  0  0
   10.2632    4.2054   23.0533 C   0  0  0  0  0  0  0  0  0  0  0  0
   10.1896    5.2118   23.4494 H   0  0  0  0  0  0  0  0  0  0  0  0
    9.1099    3.4795   22.7768 C   0  0  0  0  0  0  0  0  0  0  0  0
    8.1364    3.9129   22.9645 H   0  0  0  0  0  0  0  0  0  0  0  0
    5.4359    0.6658   20.1538 C   0  0  0  0  0  0  0  0  0  0  0  0
    5.0162    0.6287   21.1638 H   0  0  0  0  0  0  0  0  0  0  0  0
    4.7964    1.3173   19.0979 C   0  0  0  0  0  0  0  0  0  0  0  0
    3.8659    1.8488   19.2557 H   0  0  0  0  0  0  0  0  0  0  0  0
  1  2  1  0
  2  3  2  0
  3  4  1  0
  4  5  1  0
  4  6  2  0
  6  7  1  0
  7  8  2  0
  8  9  1  0
  8 10  1  0
 10 11  1  0
 10 12  2  0
 12 13  1  0
 12 14  1  0
 14 15  1  0
 14 16  2  0
 16 17  1  0
 17 18  1  0
 17 19  1  0
 19 20  2  0
 20 21  1  0
 20 22  1  0
 22 23  1  0
 22 24  2  0
 24 25  1  0
 25 26  1  0
 25 27  2  0
 27 28  1  0
  6 29  1  0
 29 30  1  0
 29 31  2  0
 31 32  1  0
 31  2  1  0
 16  7  1  0
 27 19  1  0
M  END
>  <cnnaffinity>  (1) 
-5.15979

>  <filename>  (1) 
c1cncc(-c2ccccc2Nc2ccncc2)c1

$$$$
