
     RDKit          3D

 34 37  0  0  0  0  0  0  0  0999 V2000
   10.4728   -1.3302   21.8537 H   0  0  0  0  0  0  0  0  0  0  0  0
    9.3889   -1.3289   21.8843 C   0  0  0  0  0  0  0  0  0  0  0  0
    8.7598   -0.6917   20.8959 N   0  0  0  0  0  0  0  0  0  0  0  0
    7.4294   -0.7015   20.9509 C   0  0  0  0  0  0  0  0  0  0  0  0
    6.6770    0.0163   19.9103 C   0  0  0  0  0  0  0  0  0  0  0  0
    7.1867    0.0633   18.6065 C   0  0  0  0  0  0  0  0  0  0  0  0
    8.1280   -0.4244   18.3703 H   0  0  0  0  0  0  0  0  0  0  0  0
    6.5665    0.6664   17.5894 N   0  0  0  0  0  0  0  0  0  0  0  0
    5.4058    1.2858   17.8485 C   0  0  0  0  0  0  0  0  0  0  0  0
    4.9230    1.7741   17.0047 H   0  0  0  0  0  0  0  0  0  0  0  0
    4.8125    1.3074   19.1143 C   0  0  0  0  0  0  0  0  0  0  0  0
    3.8799    1.8382   19.2621 H   0  0  0  0  0  0  0  0  0  0  0  0
    5.4483    0.6479   20.1626 C   0  0  0  0  0  0  0  0  0  0  0  0
    5.0034    0.6409   21.1612 H   0  0  0  0  0  0  0  0  0  0  0  0
    6.7511   -1.3805   21.9574 C   0  0  0  0  0  0  0  0  0  0  0  0
    5.6813   -1.4416   21.9571 H   0  0  0  0  0  0  0  0  0  0  0  0
    7.5023   -2.0126   22.9426 C   0  0  0  0  0  0  0  0  0  0  0  0
    6.8430   -2.7784   24.0513 C   0  0  0  0  0  0  0  0  0  0  0  0
    7.1361   -4.1187   24.2084 C   0  0  0  0  0  0  0  0  0  0  0  0
    7.8840   -4.5799   23.5626 H   0  0  0  0  0  0  0  0  0  0  0  0
    6.4888   -4.9073   25.1924 C   0  0  0  0  0  0  0  0  0  0  0  0
    6.7652   -5.9561   25.2837 H   0  0  0  0  0  0  0  0  0  0  0  0
    5.5417   -4.3531   26.0256 C   0  0  0  0  0  0  0  0  0  0  0  0
    5.0352   -4.9332   26.7889 H   0  0  0  0  0  0  0  0  0  0  0  0
    5.2035   -2.9699   25.9197 C   0  0  0  0  0  0  0  0  0  0  0  0
    4.2543   -2.4695   26.7805 N   0  0  0  0  0  0  0  0  0  0  0  0
    3.9737   -1.1897   26.6947 C   0  0  0  0  0  0  0  0  0  0  0  0
    3.2241   -0.7991   27.3849 H   0  0  0  0  0  0  0  0  0  0  0  0
    4.5902   -0.2918   25.7776 C   0  0  0  0  0  0  0  0  0  0  0  0
    4.2987    0.7547   25.7610 H   0  0  0  0  0  0  0  0  0  0  0  0
    5.5515   -0.7684   24.9262 C   0  0  0  0  0  0  0  0  0  0  0  0
    6.0287   -0.1126   24.1961 H   0  0  0  0  0  0  0  0  0  0  0  0
    5.8766   -2.1643   24.9363 C   0  0  0  0  0  0  0  0  0  0  0  0
    8.8412   -2.0105   22.8876 N   0  0  0  0  0  0  0  0  0  0  0  0
  1  2  1  0
  2  3  2  0
  3  4  1  0
  4  5  1  0
  5  6  2  0
  6  7  1  0
  6  8  1  0
  8  9  2  0
  9 10  1  0
  9 11  1  0
 11 12  1  0
 11 13  2  0
 13 14  1  0
  4 15  2  0
 15 16  1  0
 15 17  1  0
 17 18  1  0
 18 19  2  0
 19 20  1  0
 19 21  1  0
 21 22  1  0
 21 23  2  0
 23 24  1  0
 23 25  1  0
 25 26  2  0
 26 27  1  0
 27 28  1  0
 27 29  2  0
 29 30  1  0
 29 31  1  0
 31 32  1  0
 31 33  2  0
 17 34  2  0
 34  2  1  0
 13  5  1  0
 33 18  1  0
 33 25  1  0
M  END
>  <cnnaffinity>  (1) 
-5.27903

>  <filename>  (1) 
c1cncc(-c2cc(-c3cccc4ncccc34)ncn2)c1

$$$$
