
     RDKit          3D

 31 34  0  0  0  0  0  0  0  0999 V2000
    4.9440    1.7918   16.9881 H   0  0  0  0  0  0  0  0  0  0  0  0
    5.4027    1.2860   17.8352 C   0  0  0  0  0  0  0  0  0  0  0  0
    6.5685    0.6628   17.5917 N   0  0  0  0  0  0  0  0  0  0  0  0
    7.1766    0.0515   18.6110 C   0  0  0  0  0  0  0  0  0  0  0  0
    8.1185   -0.4418   18.3808 H   0  0  0  0  0  0  0  0  0  0  0  0
    6.6517    0.0336   19.9196 C   0  0  0  0  0  0  0  0  0  0  0  0
    7.3475   -0.6227   20.9831 N   0  0  0  0  0  0  0  0  0  0  0  0
    8.1358   -1.7057   20.7432 N   0  0  0  0  0  0  0  0  0  0  0  0
    8.5981   -2.0893   21.8708 N   0  0  0  0  0  0  0  0  0  0  0  0
    8.1598   -1.3027   22.8851 N   0  0  0  0  0  0  0  0  0  0  0  0
    7.3916   -0.4064   22.3207 C   0  0  0  0  0  0  0  0  0  0  0  0
    6.7032    0.5825   22.8997 O   0  0  0  0  0  0  0  0  0  0  0  0
    7.0545    1.0065   24.1865 C   0  0  0  0  0  0  0  0  0  0  0  0
    6.0018    1.2622   25.0509 C   0  0  0  0  0  0  0  0  0  0  0  0
    4.9950    1.1246   24.6763 H   0  0  0  0  0  0  0  0  0  0  0  0
    6.2506    1.6947   26.3715 C   0  0  0  0  0  0  0  0  0  0  0  0
    5.4061    1.8781   27.0334 H   0  0  0  0  0  0  0  0  0  0  0  0
    7.5504    1.8956   26.8235 C   0  0  0  0  0  0  0  0  0  0  0  0
    7.7391    2.2130   27.8430 H   0  0  0  0  0  0  0  0  0  0  0  0
    8.6008    1.6773   25.9067 C   0  0  0  0  0  0  0  0  0  0  0  0
    8.3902    1.2603   24.5722 C   0  0  0  0  0  0  0  0  0  0  0  0
    9.6918    1.2120   23.9348 C   0  0  0  0  0  0  0  0  0  0  0  0
    9.9026    0.9248   22.9106 H   0  0  0  0  0  0  0  0  0  0  0  0
   10.6017    1.5649   24.8831 C   0  0  0  0  0  0  0  0  0  0  0  0
   11.6790    1.6448   24.8352 H   0  0  0  0  0  0  0  0  0  0  0  0
    9.9497    1.8394   26.0620 N   0  0  0  0  0  0  0  0  0  0  0  0
   10.3826    2.0389   26.9447 H   0  0  0  0  0  0  0  0  0  0  0  0
    5.4285    0.6621   20.1652 C   0  0  0  0  0  0  0  0  0  0  0  0
    5.0004    0.6573   21.1656 H   0  0  0  0  0  0  0  0  0  0  0  0
    4.7974    1.3029   19.0949 C   0  0  0  0  0  0  0  0  0  0  0  0
    3.8649    1.8389   19.2373 H   0  0  0  0  0  0  0  0  0  0  0  0
  1  2  1  0
  2  3  2  0
  3  4  1  0
  4  5  1  0
  4  6  2  0
  6  7  1  0
  7  8  1  0
  8  9  2  0
  9 10  1  0
 10 11  2  0
 11 12  1  0
 12 13  1  0
 13 14  2  0
 14 15  1  0
 14 16  1  0
 16 17  1  0
 16 18  2  0
 18 19  1  0
 18 20  1  0
 20 21  2  0
 21 22  1  0
 22 23  1  0
 22 24  2  0
 24 25  1  0
 24 26  1  0
 26 27  1  0
  6 28  1  0
 28 29  1  0
 28 30  2  0
 30 31  1  0
 30  2  1  0
 11  7  1  0
 21 13  1  0
 26 20  1  0
M  END
>  <cnnaffinity>  (1) 
-5.24772

>  <filename>  (1) 
c1cncc(-n2nnnc2Oc2cccc3[nH]ccc23)c1

$$$$
