
     RDKit          3D

 35 38  0  0  0  0  0  0  0  0999 V2000
    5.7890   -1.2709   21.8532 H   0  0  0  0  0  0  0  0  0  0  0  0
    6.8712   -1.2124   21.8629 C   0  0  0  0  0  0  0  0  0  0  0  0
    7.4904   -1.7766   22.9004 N   0  0  0  0  0  0  0  0  0  0  0  0
    8.8490   -1.7804   22.8802 C   0  0  0  0  0  0  0  0  0  0  0  0
    9.5191   -2.5680   23.9596 C   0  0  0  0  0  0  0  0  0  0  0  0
   10.5594   -3.4730   23.6855 C   0  0  0  0  0  0  0  0  0  0  0  0
   11.0843   -3.4279   22.7404 H   0  0  0  0  0  0  0  0  0  0  0  0
   10.9169   -4.4771   24.6367 C   0  0  0  0  0  0  0  0  0  0  0  0
   11.7008   -5.1807   24.3805 H   0  0  0  0  0  0  0  0  0  0  0  0
   10.2968   -4.6091   25.8535 C   0  0  0  0  0  0  0  0  0  0  0  0
   10.5888   -5.4111   26.5357 H   0  0  0  0  0  0  0  0  0  0  0  0
    9.2584   -3.6059   26.2234 C   0  0  0  0  0  0  0  0  0  0  0  0
    8.4914   -3.4376   27.3453 C   0  0  0  0  0  0  0  0  0  0  0  0
    8.2797   -4.0740   28.1888 H   0  0  0  0  0  0  0  0  0  0  0  0
    8.1154   -1.1207   27.3123 C   0  0  0  0  0  0  0  0  0  0  0  0
    9.1287   -0.6815   27.7729 H   0  0  0  0  0  0  0  0  0  0  0  0
    7.8395   -1.3784   27.0897 C   0  0  0  0  0  0  0  0  0  0  0  0
    7.0187   -0.9732   27.9014 H   0  0  0  0  0  0  0  0  0  0  0  0
    8.0200   -1.4323   25.8039 C   0  0  0  0  0  0  0  0  0  0  0  0
    7.0507   -1.8965   25.8493 H   0  0  0  0  0  0  0  0  0  0  0  0
    8.9986   -2.5176   25.2604 C   0  0  0  0  0  0  0  0  0  0  0  0
    9.5461   -1.1902   21.7914 C   0  0  0  0  0  0  0  0  0  0  0  0
   10.6318   -1.1816   21.7711 H   0  0  0  0  0  0  0  0  0  0  0  0
    8.9194   -0.6073   20.7541 N   0  0  0  0  0  0  0  0  0  0  0  0
    7.5657   -0.5912   20.7905 C   0  0  0  0  0  0  0  0  0  0  0  0
    6.8426    0.0921   19.6927 C   0  0  0  0  0  0  0  0  0  0  0  0
    7.4023    0.1639   18.4028 C   0  0  0  0  0  0  0  0  0  0  0  0
    8.3780   -0.2728   18.2039 H   0  0  0  0  0  0  0  0  0  0  0  0
    6.7946    0.7403   17.3607 N   0  0  0  0  0  0  0  0  0  0  0  0
    5.5983    1.3087   17.5722 C   0  0  0  0  0  0  0  0  0  0  0  0
    5.1308    1.7819   16.7114 H   0  0  0  0  0  0  0  0  0  0  0  0
    4.9587    1.3096   18.8140 C   0  0  0  0  0  0  0  0  0  0  0  0
    3.9983    1.8005   18.9251 H   0  0  0  0  0  0  0  0  0  0  0  0
    5.5857    0.6896   19.8928 C   0  0  0  0  0  0  0  0  0  0  0  0
    5.1114    0.6960   20.8756 H   0  0  0  0  0  0  0  0  0  0  0  0
  1  2  1  0
  2  3  2  0
  3  4  1  0
  4  5  1  0
  5  6  2  0
  6  7  1  0
  6  8  1  0
  8  9  1  0
  8 10  2  0
 10 11  1  0
 10 12  1  0
 12 13  2  0
 13 14  1  0
 13 15  1  0
 15 16  1  0
 15 17  2  0
 17 18  1  0
 17 19  1  0
 19 20  1  0
 19 21  2  0
  4 22  2  0
 22 23  1  0
 22 24  1  0
 24 25  2  0
 25 26  1  0
 26 27  2  0
 27 28  1  0
 27 29  1  0
 29 30  2  0
 30 31  1  0
 30 32  1  0
 32 33  1  0
 32 34  2  0
 34 35  1  0
 25  2  1  0
 34 26  1  0
 21  5  1  0
 21 12  1  0
M  END
>  <cnnaffinity>  (1) 
-5.33444

>  <filename>  (1) 
c1cncc(-c2cnc(-c3cccc4ccccc34)cn2)c1

$$$$
