
     RDKit          3D

 33 34  0  0  0  0  0  0  0  0999 V2000
    4.9882    2.0075   16.8264 H   0  0  0  0  0  0  0  0  0  0  0  0
    5.3431    1.3634   17.6285 C   0  0  0  0  0  0  0  0  0  0  0  0
    6.4319    0.6286   17.3506 N   0  0  0  0  0  0  0  0  0  0  0  0
    6.9000   -0.1691   18.3167 C   0  0  0  0  0  0  0  0  0  0  0  0
    7.8047   -0.7288   18.0807 H   0  0  0  0  0  0  0  0  0  0  0  0
    6.3206   -0.2797   19.5980 C   0  0  0  0  0  0  0  0  0  0  0  0
    7.1353   -1.2289   20.8674 S   0  0  0  0  0  0  0  0  0  0  0  0
    8.2138    0.1518   21.3472 C   0  0  0  0  0  0  0  0  0  0  0  0
    8.6937    0.5262   20.4336 H   0  0  0  0  0  0  0  0  0  0  0  0
    7.5535    0.9572   21.7116 H   0  0  0  0  0  0  0  0  0  0  0  0
    9.2542   -0.2143   22.2733 N   0  0  0  0  0  0  0  0  0  0  0  0
    8.8926   -0.6963   23.0905 H   0  0  0  0  0  0  0  0  0  0  0  0
   10.0951    0.9281   22.6012 C   0  0  0  0  0  0  0  0  0  0  0  0
   10.4114    1.3777   21.6366 H   0  0  0  0  0  0  0  0  0  0  0  0
    9.3693    2.0254   23.4241 C   0  0  0  0  0  0  0  0  0  0  0  0
    9.1540    1.6412   24.4340 H   0  0  0  0  0  0  0  0  0  0  0  0
    8.3980    2.2786   22.9830 H   0  0  0  0  0  0  0  0  0  0  0  0
   10.2488    3.2760   23.5311 C   0  0  0  0  0  0  0  0  0  0  0  0
   10.3813    3.7106   22.5286 H   0  0  0  0  0  0  0  0  0  0  0  0
    9.7669    4.0463   24.1436 H   0  0  0  0  0  0  0  0  0  0  0  0
   11.6201    2.9316   24.1227 C   0  0  0  0  0  0  0  0  0  0  0  0
   11.4705    2.5756   25.1495 H   0  0  0  0  0  0  0  0  0  0  0  0
   12.2574    3.8235   24.1442 H   0  0  0  0  0  0  0  0  0  0  0  0
   12.3224    1.7761   23.3996 C   0  0  0  0  0  0  0  0  0  0  0  0
   12.5729    2.0827   22.3719 H   0  0  0  0  0  0  0  0  0  0  0  0
   13.2610    1.5443   23.9212 H   0  0  0  0  0  0  0  0  0  0  0  0
   11.3998    0.5449   23.3194 C   0  0  0  0  0  0  0  0  0  0  0  0
   11.8874   -0.2948   22.8190 H   0  0  0  0  0  0  0  0  0  0  0  0
   11.1611    0.1839   24.3292 H   0  0  0  0  0  0  0  0  0  0  0  0
    5.1837    0.4973   19.8726 C   0  0  0  0  0  0  0  0  0  0  0  0
    4.7281    0.4779   20.8628 H   0  0  0  0  0  0  0  0  0  0  0  0
    4.6860    1.3277   18.8633 C   0  0  0  0  0  0  0  0  0  0  0  0
    3.8194    1.9584   19.0273 H   0  0  0  0  0  0  0  0  0  0  0  0
  1  2  1  0
  2  3  2  0
  3  4  1  0
  4  5  1  0
  4  6  2  0
  6  7  1  0
  7  8  1  0
  8  9  1  0
  8 10  1  0
  8 11  1  0
 11 12  1  0
 11 13  1  0
 13 14  1  0
 13 15  1  0
 15 16  1  0
 15 17  1  0
 15 18  1  0
 18 19  1  0
 18 20  1  0
 18 21  1  0
 21 22  1  0
 21 23  1  0
 21 24  1  0
 24 25  1  0
 24 26  1  0
 24 27  1  0
 27 28  1  0
 27 29  1  0
  6 30  1  0
 30 31  1  0
 30 32  2  0
 32 33  1  0
 32  2  1  0
 27 13  1  0
M  END
>  <cnnaffinity>  (1) 
-4.78023

>  <filename>  (1) 
c1cncc(SCNC2CCCCC2)c1

$$$$
