
     RDKit          3D

 40 43  0  0  0  0  0  0  0  0999 V2000
    4.7844    1.3405   19.0038 C   0  0  0  0  0  0  0  0  0  0  0  0
    5.4147    1.3142   17.7560 C   0  0  0  0  0  0  0  0  0  0  0  0
    6.5581    0.6424   17.5290 N   0  0  0  0  0  0  0  0  0  0  0  0
    7.1232    0.0000   18.5562 C   0  0  0  0  0  0  0  0  0  0  0  0
    6.5950    0.0227   19.8590 C   0  0  0  0  0  0  0  0  0  0  0  0
    7.2762   -0.6149   20.9266 N   0  0  0  0  0  0  0  0  0  0  0  0
    7.7936   -1.8665   20.7964 N   0  0  0  0  0  0  0  0  0  0  0  0
    8.1997   -2.1356   22.0224 C   0  0  0  0  0  0  0  0  0  0  0  0
    8.9941   -3.3322   22.3726 C   0  0  0  0  0  0  0  0  0  0  0  0
    8.5779   -4.2057   23.5893 C   0  0  0  0  0  0  0  0  0  0  0  0
    9.9623   -3.9938   24.2288 C   0  0  0  0  0  0  0  0  0  0  0  0
   10.3430   -3.0078   23.1063 C   0  0  0  0  0  0  0  0  0  0  0  0
   11.2558   -3.2039   22.5398 H   0  0  0  0  0  0  0  0  0  0  0  0
   10.3645   -1.9672   23.4600 H   0  0  0  0  0  0  0  0  0  0  0  0
    9.9322   -3.5441   25.2221 H   0  0  0  0  0  0  0  0  0  0  0  0
   10.5889   -4.8879   24.2889 H   0  0  0  0  0  0  0  0  0  0  0  0
    7.7518   -3.7744   24.1539 H   0  0  0  0  0  0  0  0  0  0  0  0
    8.3215   -5.2435   23.3725 H   0  0  0  0  0  0  0  0  0  0  0  0
    9.0286   -3.8938   21.4431 H   0  0  0  0  0  0  0  0  0  0  0  0
    7.9866   -1.1578   22.9308 N   0  0  0  0  0  0  0  0  0  0  0  0
    7.4661   -0.1900   22.2126 C   0  0  0  0  0  0  0  0  0  0  0  0
    7.2322    1.1620   22.7809 C   0  0  0  0  0  0  0  0  0  0  0  0
    8.3164    1.5956   23.7927 C   0  0  0  0  0  0  0  0  0  0  0  0
    8.0008    2.9410   24.3588 C   0  0  0  0  0  0  0  0  0  0  0  0
    8.3323    4.1431   23.8202 C   0  0  0  0  0  0  0  0  0  0  0  0
    7.7621    5.1602   24.5184 O   0  0  0  0  0  0  0  0  0  0  0  0
    7.0493    4.5915   25.5223 C   0  0  0  0  0  0  0  0  0  0  0  0
    7.1618    3.2461   25.4866 C   0  0  0  0  0  0  0  0  0  0  0  0
    6.6911    2.5424   26.1631 H   0  0  0  0  0  0  0  0  0  0  0  0
    6.5006    5.2621   26.1695 H   0  0  0  0  0  0  0  0  0  0  0  0
    8.9343    4.4109   22.9632 H   0  0  0  0  0  0  0  0  0  0  0  0
    8.3832    0.8475   24.5938 H   0  0  0  0  0  0  0  0  0  0  0  0
    9.3024    1.6251   23.3065 H   0  0  0  0  0  0  0  0  0  0  0  0
    6.2672    1.1333   23.2975 H   0  0  0  0  0  0  0  0  0  0  0  0
    7.1430    1.9108   21.9901 H   0  0  0  0  0  0  0  0  0  0  0  0
    5.3826    0.6861   20.0827 C   0  0  0  0  0  0  0  0  0  0  0  0
    4.9149    0.6790   21.0687 H   0  0  0  0  0  0  0  0  0  0  0  0
    8.0364   -0.5520   18.3495 H   0  0  0  0  0  0  0  0  0  0  0  0
    4.9890    1.8500   16.9088 H   0  0  0  0  0  0  0  0  0  0  0  0
    3.8523    1.8798   19.1259 H   0  0  0  0  0  0  0  0  0  0  0  0
  1  2  2  0
  2  3  1  0
  3  4  2  0
  4  5  1  0
  5  6  1  0
  6  7  1  0
  7  8  2  0
  8  9  1  0
  9 10  1  0
 10 11  1  0
 11 12  1  0
 12 13  1  0
 12 14  1  0
 11 15  1  0
 11 16  1  0
 10 17  1  0
 10 18  1  0
  9 19  1  0
  8 20  1  0
 20 21  2  0
 21 22  1  0
 22 23  1  0
 23 24  1  0
 24 25  2  0
 25 26  1  0
 26 27  1  0
 27 28  2  0
 28 29  1  0
 27 30  1  0
 25 31  1  0
 23 32  1  0
 23 33  1  0
 22 34  1  0
 22 35  1  0
  5 36  2  0
 36 37  1  0
  4 38  1  0
  2 39  1  0
  1 40  1  0
 36  1  1  0
 21  6  1  0
 28 24  1  0
 12  9  1  0
M  END
>  <cnnaffinity>  (1) 
-5.94608

>  <filename>  (1) 
c1cncc(-n2nc(C3CCC3)nc2CCc2ccoc2)c1

$$$$
