
     RDKit          3D

 42 44  0  0  0  0  0  0  0  0999 V2000
    4.8652    1.3815   19.0024 C   0  0  0  0  0  0  0  0  0  0  0  0
    5.4486    1.3562   17.7328 C   0  0  0  0  0  0  0  0  0  0  0  0
    6.5848    0.7022   17.4531 N   0  0  0  0  0  0  0  0  0  0  0  0
    7.1900    0.0590   18.4631 C   0  0  0  0  0  0  0  0  0  0  0  0
    6.7108    0.0335   19.7912 C   0  0  0  0  0  0  0  0  0  0  0  0
    7.4142   -0.7026   20.8967 C   0  0  0  0  0  0  0  0  0  0  0  0
    6.7009   -1.6029   21.6998 C   0  0  0  0  0  0  0  0  0  0  0  0
    7.3458   -2.2887   22.7371 C   0  0  0  0  0  0  0  0  0  0  0  0
    6.6513   -3.2876   23.6117 C   0  0  0  0  0  0  0  0  0  0  0  0
    6.1504   -2.4846   24.7830 N   0  0  0  0  0  4  0  0  0  0  0  0
    5.2152   -3.1591   25.7165 C   0  0  0  0  0  0  0  0  0  0  0  0
    5.7685   -4.4498   26.3348 C   0  0  0  0  0  0  0  0  0  0  0  0
    4.7901   -5.0736   27.3424 C   0  0  0  0  0  0  0  0  0  0  0  0
    5.6626   -6.0121   28.1829 C   0  0  0  0  0  0  0  0  0  0  0  0
    7.0342   -5.3046   28.2988 C   0  0  0  0  0  0  0  0  0  0  0  0
    7.0535   -4.2397   27.1653 C   0  0  0  0  0  0  0  0  0  0  0  0
    7.9679   -4.2764   26.5573 H   0  0  0  0  0  0  0  0  0  0  0  0
    7.0082   -3.2426   27.6235 H   0  0  0  0  0  0  0  0  0  0  0  0
    7.8550   -6.0328   28.2335 H   0  0  0  0  0  0  0  0  0  0  0  0
    7.1263   -4.8131   29.2729 H   0  0  0  0  0  0  0  0  0  0  0  0
    5.2092   -6.2507   29.1521 H   0  0  0  0  0  0  0  0  0  0  0  0
    5.7798   -6.9671   27.6581 H   0  0  0  0  0  0  0  0  0  0  0  0
    3.9494   -5.5959   26.8622 H   0  0  0  0  0  0  0  0  0  0  0  0
    4.3642   -4.2764   27.9708 H   0  0  0  0  0  0  0  0  0  0  0  0
    5.9550   -5.1823   25.5339 H   0  0  0  0  0  0  0  0  0  0  0  0
    4.2700   -3.3896   25.2125 H   0  0  0  0  0  0  0  0  0  0  0  0
    4.9690   -2.4698   26.5311 H   0  0  0  0  0  0  0  0  0  0  0  0
    5.7242   -1.6333   24.3443 H   0  0  0  0  0  0  0  0  0  0  0  0
    7.0029   -2.1583   25.3029 H   0  0  0  0  0  0  0  0  0  0  0  0
    7.3538   -4.0586   23.9461 H   0  0  0  0  0  0  0  0  0  0  0  0
    5.8219   -3.7855   23.0963 H   0  0  0  0  0  0  0  0  0  0  0  0
    8.6807   -1.9540   23.0007 C   0  0  0  0  0  0  0  0  0  0  0  0
    9.3887   -1.0995   22.2559 N   0  0  0  0  0  0  0  0  0  0  0  0
    8.7737   -0.5058   21.2249 C   0  0  0  0  0  0  0  0  0  0  0  0
    9.3829    0.1904   20.6492 H   0  0  0  0  0  0  0  0  0  0  0  0
    9.2145   -2.3981   23.8412 H   0  0  0  0  0  0  0  0  0  0  0  0
    5.6362   -1.7425   21.5005 H   0  0  0  0  0  0  0  0  0  0  0  0
    5.5068    0.7087   20.0440 C   0  0  0  0  0  0  0  0  0  0  0  0
    5.0864    0.7077   21.0539 H   0  0  0  0  0  0  0  0  0  0  0  0
    8.0900   -0.4938   18.2009 H   0  0  0  0  0  0  0  0  0  0  0  0
    4.9738    1.8732   16.8994 H   0  0  0  0  0  0  0  0  0  0  0  0
    3.9271    1.9074   19.1589 H   0  0  0  0  0  0  0  0  0  0  0  0
  1  2  2  0
  2  3  1  0
  3  4  2  0
  4  5  1  0
  5  6  1  0
  6  7  2  0
  7  8  1  0
  8  9  1  0
  9 10  1  0
 10 11  1  0
 11 12  1  0
 12 13  1  0
 13 14  1  0
 14 15  1  0
 15 16  1  0
 16 17  1  0
 16 18  1  0
 15 19  1  0
 15 20  1  0
 14 21  1  0
 14 22  1  0
 13 23  1  0
 13 24  1  0
 12 25  1  0
 11 26  1  0
 11 27  1  0
 10 28  1  0
 10 29  1  0
  9 30  1  0
  9 31  1  0
  8 32  2  0
 32 33  1  0
 33 34  2  0
 34 35  1  0
 32 36  1  0
  7 37  1  0
  5 38  2  0
 38 39  1  0
  4 40  1  0
  2 41  1  0
  1 42  1  0
 38  1  1  0
 34  6  1  0
 16 12  1  0
M  CHG  1  10   1
M  END
>  <cnnaffinity>  (1) 
-4.91847

>  <filename>  (1) 
c1cncc(-c2cncc(C[NH2+]CC3CCCC3)c2)c1

$$$$
