
     RDKit          3D

 33 35  0  0  0  0  0  0  0  0999 V2000
    4.9527    1.7900   17.0205 H   0  0  0  0  0  0  0  0  0  0  0  0
    5.4196    1.2805   17.8593 C   0  0  0  0  0  0  0  0  0  0  0  0
    6.5795    0.6566   17.6052 N   0  0  0  0  0  0  0  0  0  0  0  0
    7.1792    0.0388   18.6241 C   0  0  0  0  0  0  0  0  0  0  0  0
    8.1249   -0.4479   18.3923 H   0  0  0  0  0  0  0  0  0  0  0  0
    6.6680   -0.0071   19.9299 C   0  0  0  0  0  0  0  0  0  0  0  0
    7.4060   -0.7239   20.9730 C   0  0  0  0  0  0  0  0  0  0  0  0
    6.8979   -0.7786   22.2640 N   0  0  0  0  0  0  0  0  0  0  0  0
    7.7606   -1.4854   22.9081 C   0  0  0  0  0  0  0  0  0  0  0  0
    7.7017   -1.8077   24.1795 O   0  0  0  0  0  0  0  0  0  0  0  0
    8.7375   -2.6273   24.7873 C   0  0  0  0  0  0  0  0  0  0  0  0
    9.7287   -2.2765   24.4755 H   0  0  0  0  0  0  0  0  0  0  0  0
    8.5353   -2.4123   26.2756 C   0  0  0  0  0  0  0  0  0  0  0  0
    8.5956   -1.3459   26.4994 H   0  0  0  0  0  0  0  0  0  0  0  0
    9.3369   -2.9077   26.8317 H   0  0  0  0  0  0  0  0  0  0  0  0
    7.1995   -3.0044   26.7078 C   0  0  0  0  0  0  0  0  0  0  0  0
    6.3659   -2.4380   26.2598 H   0  0  0  0  0  0  0  0  0  0  0  0
    7.0865   -2.8909   27.7753 H   0  0  0  0  0  0  0  0  0  0  0  0
    7.2129   -4.4240   26.3711 N   0  0  0  0  0  0  0  0  0  0  0  0
    6.4666   -4.9285   26.8316 H   0  0  0  0  0  0  0  0  0  0  0  0
    7.2331   -4.6595   24.9288 C   0  0  0  0  0  0  0  0  0  0  0  0
    6.3839   -4.2011   24.3866 H   0  0  0  0  0  0  0  0  0  0  0  0
    7.1925   -5.7404   24.7493 H   0  0  0  0  0  0  0  0  0  0  0  0
    8.5523   -4.0957   24.3989 C   0  0  0  0  0  0  0  0  0  0  0  0
    8.6434   -4.2181   23.3197 H   0  0  0  0  0  0  0  0  0  0  0  0
    9.3711   -4.6620   24.8548 H   0  0  0  0  0  0  0  0  0  0  0  0
    8.8111   -1.9160   22.1835 O   0  0  0  0  0  0  0  0  0  0  0  0
    8.5738   -1.4096   20.9303 C   0  0  0  0  0  0  0  0  0  0  0  0
    9.3293   -1.6347   20.1957 H   0  0  0  0  0  0  0  0  0  0  0  0
    5.4432    0.6451   20.1795 C   0  0  0  0  0  0  0  0  0  0  0  0
    5.0142    0.6396   21.1838 H   0  0  0  0  0  0  0  0  0  0  0  0
    4.8158    1.2967   19.1214 C   0  0  0  0  0  0  0  0  0  0  0  0
    3.8800    1.8260   19.2606 H   0  0  0  0  0  0  0  0  0  0  0  0
  1  2  1  0
  2  3  2  0
  3  4  1  0
  4  5  1  0
  4  6  2  0
  6  7  1  0
  7  8  1  0
  8  9  2  0
  9 10  1  0
 10 11  1  0
 11 12  1  0
 11 13  1  0
 13 14  1  0
 13 15  1  0
 13 16  1  0
 16 17  1  0
 16 18  1  0
 16 19  1  0
 19 20  1  0
 19 21  1  0
 21 22  1  0
 21 23  1  0
 21 24  1  0
 24 25  1  0
 24 26  1  0
  9 27  1  0
 27 28  1  0
 28 29  1  0
  6 30  1  0
 30 31  1  0
 30 32  2  0
 32 33  1  0
 32  2  1  0
 28  7  2  0
 24 11  1  0
M  END
>  <cnnaffinity>  (1) 
-4.74135

>  <filename>  (1) 
c1cncc(-c2coc(OC3CCNCC3)n2)c1

$$$$
