
     RDKit          3D

 27 30  0  0  0  0  0  0  0  0999 V2000
    5.0347    1.7738   17.0051 H   0  0  0  0  0  0  0  0  0  0  0  0
    5.4579    1.2599   17.8662 C   0  0  0  0  0  0  0  0  0  0  0  0
    6.6143    0.6135   17.6606 N   0  0  0  0  0  0  0  0  0  0  0  0
    7.1687    0.0024   18.7126 C   0  0  0  0  0  0  0  0  0  0  0  0
    8.1178   -0.4955   18.5262 H   0  0  0  0  0  0  0  0  0  0  0  0
    6.6052   -0.0111   19.9992 C   0  0  0  0  0  0  0  0  0  0  0  0
    7.3547   -0.7186   21.0476 C   0  0  0  0  0  0  0  0  0  0  0  0
    8.5453   -1.3478   20.7955 N   0  0  0  0  0  0  0  0  0  0  0  0
    8.8656   -1.8188   21.9855 C   0  0  0  0  0  0  0  0  0  0  0  0
   10.1327   -2.7631   22.7377 S   0  0  0  0  0  0  0  0  0  0  0  0
    9.3072   -2.6533   24.2665 C   0  0  0  0  0  0  0  0  0  0  0  0
    9.6933   -3.1673   25.1365 H   0  0  0  0  0  0  0  0  0  0  0  0
    8.1678   -1.9383   24.2050 C   0  0  0  0  0  0  0  0  0  0  0  0
    7.2458   -1.6375   25.3184 C   0  0  0  0  0  0  0  0  0  0  0  0
    7.6714   -1.8983   26.2794 H   0  0  0  0  0  0  0  0  0  0  0  0
    5.7540   -1.8156   25.1255 C   0  0  0  0  0  0  0  0  0  0  0  0
    5.1405   -2.2561   25.9091 H   0  0  0  0  0  0  0  0  0  0  0  0
    5.4646   -2.0911   24.1181 H   0  0  0  0  0  0  0  0  0  0  0  0
    6.3219   -0.4445   25.2994 C   0  0  0  0  0  0  0  0  0  0  0  0
    6.1579    0.0602   26.2454 H   0  0  0  0  0  0  0  0  0  0  0  0
    6.3695    0.1968   24.4256 H   0  0  0  0  0  0  0  0  0  0  0  0
    7.9349   -1.4955   22.8982 N   0  0  0  0  0  0  0  0  0  0  0  0
    6.9371   -0.7848   22.3045 N   0  0  0  0  0  0  0  0  0  0  0  0
    5.3849    0.6624   20.2025 C   0  0  0  0  0  0  0  0  0  0  0  0
    4.9127    0.7075   21.1878 H   0  0  0  0  0  0  0  0  0  0  0  0
    4.8051    1.3002   19.1038 C   0  0  0  0  0  0  0  0  0  0  0  0
    3.8688    1.8430   19.1939 H   0  0  0  0  0  0  0  0  0  0  0  0
  1  2  1  0
  2  3  2  0
  3  4  1  0
  4  5  1  0
  4  6  2  0
  6  7  1  0
  7  8  1  0
  8  9  2  0
  9 10  1  0
 10 11  1  0
 11 12  1  0
 11 13  2  0
 13 14  1  0
 14 15  1  0
 14 16  1  0
 16 17  1  0
 16 18  1  0
 16 19  1  0
 19 20  1  0
 19 21  1  0
 13 22  1  0
 22 23  1  0
  6 24  1  0
 24 25  1  0
 24 26  2  0
 26 27  1  0
 26  2  1  0
 23  7  2  0
 22  9  1  0
 19 14  1  0
M  END
>  <cnnaffinity>  (1) 
-5.15671

>  <filename>  (1) 
c1cncc(-c2nc3scc(C4CC4)n3n2)c1

$$$$
