
     RDKit          3D

 31 34  0  0  0  0  0  0  0  0999 V2000
    4.9692    1.8107   16.9852 H   0  0  0  0  0  0  0  0  0  0  0  0
    5.4160    1.2866   17.8265 C   0  0  0  0  0  0  0  0  0  0  0  0
    6.5733    0.6603   17.5733 N   0  0  0  0  0  0  0  0  0  0  0  0
    7.1678    0.0268   18.5868 C   0  0  0  0  0  0  0  0  0  0  0  0
    8.1175   -0.4526   18.3560 H   0  0  0  0  0  0  0  0  0  0  0  0
    6.6417   -0.0108   19.8875 C   0  0  0  0  0  0  0  0  0  0  0  0
    7.3917   -0.6964   20.9591 C   0  0  0  0  0  0  0  0  0  0  0  0
    8.1055   -1.7784   20.6119 N   0  0  0  0  0  0  0  0  0  0  0  0
    8.7617   -2.4912   21.5333 N   0  0  0  0  0  0  0  0  0  0  0  0
    8.7560   -2.1126   22.8164 C   0  0  0  0  0  0  0  0  0  0  0  0
    9.3291   -2.7480   23.4898 H   0  0  0  0  0  0  0  0  0  0  0  0
    8.0635   -0.9679   23.2510 C   0  0  0  0  0  0  0  0  0  0  0  0
    8.1122   -0.6074   24.6805 C   0  0  0  0  0  0  0  0  0  0  0  0
    8.7633   -1.2003   25.6217 N   0  0  0  0  0  0  0  0  0  0  0  0
    8.5106   -0.4055   26.7420 C   0  0  0  0  0  0  0  0  0  0  0  0
    8.9755   -0.4945   28.0542 C   0  0  0  0  0  0  0  0  0  0  0  0
    9.6644   -1.2906   28.3135 H   0  0  0  0  0  0  0  0  0  0  0  0
    8.4975    0.4360   28.9813 C   0  0  0  0  0  0  0  0  0  0  0  0
    8.8168    0.3512   30.0127 H   0  0  0  0  0  0  0  0  0  0  0  0
    7.6132    1.4607   28.5989 C   0  0  0  0  0  0  0  0  0  0  0  0
    7.2472    2.1335   29.3663 H   0  0  0  0  0  0  0  0  0  0  0  0
    7.1779    1.5911   27.2762 C   0  0  0  0  0  0  0  0  0  0  0  0
    6.5077    2.3852   26.9673 H   0  0  0  0  0  0  0  0  0  0  0  0
    7.6490    0.6354   26.3774 C   0  0  0  0  0  0  0  0  0  0  0  0
    7.4047    0.5052   25.0422 O   0  0  0  0  0  0  0  0  0  0  0  0
    7.3628   -0.2385   22.2862 C   0  0  0  0  0  0  0  0  0  0  0  0
    6.8068    0.6731   22.5067 H   0  0  0  0  0  0  0  0  0  0  0  0
    5.4253    0.6349   20.1385 C   0  0  0  0  0  0  0  0  0  0  0  0
    4.9788    0.6359   21.1352 H   0  0  0  0  0  0  0  0  0  0  0  0
    4.8033    1.2932   19.0832 C   0  0  0  0  0  0  0  0  0  0  0  0
    3.8774    1.8325   19.2276 H   0  0  0  0  0  0  0  0  0  0  0  0
  1  2  1  0
  2  3  2  0
  3  4  1  0
  4  5  1  0
  4  6  2  0
  6  7  1  0
  7  8  2  0
  8  9  1  0
  9 10  2  0
 10 11  1  0
 10 12  1  0
 12 13  1  0
 13 14  2  0
 14 15  1  0
 15 16  2  0
 16 17  1  0
 16 18  1  0
 18 19  1  0
 18 20  2  0
 20 21  1  0
 20 22  1  0
 22 23  1  0
 22 24  2  0
 24 25  1  0
 12 26  2  0
 26 27  1  0
  6 28  1  0
 28 29  1  0
 28 30  2  0
 30 31  1  0
 30  2  1  0
 26  7  1  0
 25 13  1  0
 24 15  1  0
M  END
>  <cnnaffinity>  (1) 
-4.98832

>  <filename>  (1) 
c1cncc(-c2cc(-c3nc4ccccc4o3)cnn2)c1

$$$$
