
     RDKit          3D

 33 36  0  0  0  0  0  0  0  0999 V2000
    4.9172    1.7799   16.9968 H   0  0  0  0  0  0  0  0  0  0  0  0
    5.4025    1.2909   17.8407 C   0  0  0  0  0  0  0  0  0  0  0  0
    6.5699    0.6751   17.5859 N   0  0  0  0  0  0  0  0  0  0  0  0
    7.1813    0.0533   18.5963 C   0  0  0  0  0  0  0  0  0  0  0  0
    8.1276   -0.4362   18.3760 H   0  0  0  0  0  0  0  0  0  0  0  0
    6.6538    0.0175   19.9035 C   0  0  0  0  0  0  0  0  0  0  0  0
    7.3565   -0.6384   20.9661 N   0  0  0  0  0  0  0  0  0  0  0  0
    8.1414   -1.7250   20.7267 N   0  0  0  0  0  0  0  0  0  0  0  0
    8.6276   -2.0924   21.8485 N   0  0  0  0  0  0  0  0  0  0  0  0
    8.2055   -1.2981   22.8633 N   0  0  0  0  0  0  0  0  0  0  0  0
    7.4275   -0.4079   22.3008 C   0  0  0  0  0  0  0  0  0  0  0  0
    6.7957    0.6359   22.8568 O   0  0  0  0  0  0  0  0  0  0  0  0
    6.6699    0.7847   24.2446 C   0  0  0  0  0  0  0  0  0  0  0  0
    6.5012   -0.2946   25.0832 C   0  0  0  0  0  0  0  0  0  0  0  0
    6.5132   -1.3026   24.6783 H   0  0  0  0  0  0  0  0  0  0  0  0
    6.3375   -0.0847   26.4809 C   0  0  0  0  0  0  0  0  0  0  0  0
    6.2428   -0.9529   27.1280 H   0  0  0  0  0  0  0  0  0  0  0  0
    6.3141    1.1794   27.0177 C   0  0  0  0  0  0  0  0  0  0  0  0
    6.1940    1.3324   28.0922 H   0  0  0  0  0  0  0  0  0  0  0  0
    6.4380    2.3198   26.1678 C   0  0  0  0  0  0  0  0  0  0  0  0
    6.3905    3.6431   26.7061 C   0  0  0  0  0  0  0  0  0  0  0  0
    6.2648    3.7640   27.7834 H   0  0  0  0  0  0  0  0  0  0  0  0
    6.4996    4.7393   25.8828 C   0  0  0  0  0  0  0  0  0  0  0  0
    6.4631    5.7470   26.2967 H   0  0  0  0  0  0  0  0  0  0  0  0
    6.6602    4.5636   24.4792 C   0  0  0  0  0  0  0  0  0  0  0  0
    6.7459    5.4387   23.8376 H   0  0  0  0  0  0  0  0  0  0  0  0
    6.7104    3.2992   23.9272 C   0  0  0  0  0  0  0  0  0  0  0  0
    6.8322    3.1624   22.8551 H   0  0  0  0  0  0  0  0  0  0  0  0
    6.6081    2.1352   24.7481 C   0  0  0  0  0  0  0  0  0  0  0  0
    5.4362    0.6501   20.1661 C   0  0  0  0  0  0  0  0  0  0  0  0
    5.0117    0.6377   21.1705 H   0  0  0  0  0  0  0  0  0  0  0  0
    4.8059    1.3043   19.1051 C   0  0  0  0  0  0  0  0  0  0  0  0
    3.8763    1.8403   19.2619 H   0  0  0  0  0  0  0  0  0  0  0  0
  1  2  1  0
  2  3  2  0
  3  4  1  0
  4  5  1  0
  4  6  2  0
  6  7  1  0
  7  8  1  0
  8  9  2  0
  9 10  1  0
 10 11  2  0
 11 12  1  0
 12 13  1  0
 13 14  2  0
 14 15  1  0
 14 16  1  0
 16 17  1  0
 16 18  2  0
 18 19  1  0
 18 20  1  0
 20 21  2  0
 21 22  1  0
 21 23  1  0
 23 24  1  0
 23 25  2  0
 25 26  1  0
 25 27  1  0
 27 28  1  0
 27 29  2  0
  6 30  1  0
 30 31  1  0
 30 32  2  0
 32 33  1  0
 32  2  1  0
 11  7  1  0
 29 13  1  0
 29 20  1  0
M  END
>  <cnnaffinity>  (1) 
-5.20812

>  <filename>  (1) 
c1cncc(-n2nnnc2Oc2cccc3ccccc23)c1

$$$$
