
     RDKit          3D

 43 46  0  0  0  0  0  0  0  0999 V2000
    4.8097    1.3804   18.9970 C   0  0  0  0  0  0  0  0  0  0  0  0
    5.4375    1.3205   17.7514 C   0  0  0  0  0  0  0  0  0  0  0  0
    6.5729    0.6296   17.5412 N   0  0  0  0  0  0  0  0  0  0  0  0
    7.1284    0.0015   18.5832 C   0  0  0  0  0  0  0  0  0  0  0  0
    6.6176    0.0744   19.8907 C   0  0  0  0  0  0  0  0  0  0  0  0
    7.3207   -0.5413   20.9655 N   0  0  0  0  0  0  0  0  0  0  0  0
    7.6967   -1.8433   20.8662 N   0  0  0  0  0  0  0  0  0  0  0  0
    8.1417   -2.1168   22.0813 C   0  0  0  0  0  0  0  0  0  0  0  0
    8.6684   -3.4805   22.4520 C   0  0  0  0  0  0  0  0  0  0  0  0
    8.7783   -3.7668   23.9707 C   0  0  0  0  0  0  0  0  0  0  0  0
    8.6547   -5.3029   24.1404 C   0  0  0  0  0  0  0  0  0  0  0  0
    8.1912   -5.8662   22.7789 C   0  0  0  0  0  0  0  0  0  0  0  0
    7.8201   -4.6562   21.9112 C   0  0  0  0  0  0  0  0  0  0  0  0
    7.9925   -4.8440   20.8454 H   0  0  0  0  0  0  0  0  0  0  0  0
    6.7597   -4.3937   22.0499 H   0  0  0  0  0  0  0  0  0  0  0  0
    7.3426   -6.5531   22.8725 H   0  0  0  0  0  0  0  0  0  0  0  0
    9.0124   -6.4376   22.3337 H   0  0  0  0  0  0  0  0  0  0  0  0
    9.6048   -5.7623   24.4428 H   0  0  0  0  0  0  0  0  0  0  0  0
    7.9443   -5.5581   24.9331 H   0  0  0  0  0  0  0  0  0  0  0  0
    7.9643   -3.2534   24.4972 H   0  0  0  0  0  0  0  0  0  0  0  0
    9.7209   -3.3802   24.3786 H   0  0  0  0  0  0  0  0  0  0  0  0
    9.6795   -3.4679   22.0325 H   0  0  0  0  0  0  0  0  0  0  0  0
    8.1480   -1.0579   22.9324 N   0  0  0  0  0  0  0  0  0  0  0  0
    7.6584   -0.0744   22.2044 C   0  0  0  0  0  0  0  0  0  0  0  0
    7.6253    1.3574   22.6247 C   0  0  0  0  0  0  0  0  0  0  0  0
    8.5648    2.3000   21.8393 C   0  0  0  0  0  0  0  0  0  0  0  0
    8.4928    3.7120   22.3382 C   0  0  0  0  0  0  0  0  0  0  0  0
    7.5493    4.6648   22.0228 C   0  0  0  0  0  0  0  0  0  0  0  0
    7.9013    5.7933   22.6860 N   0  0  0  0  0  0  0  0  0  0  0  0
    9.0166    5.6477   23.4154 N   0  0  0  0  0  0  0  0  0  0  0  0
    9.3799    4.3881   23.2112 C   0  0  0  0  0  0  0  0  0  0  0  0
   10.2791    4.0055   23.6815 H   0  0  0  0  0  0  0  0  0  0  0  0
    7.4831    6.7069   22.5905 H   0  0  0  0  0  0  0  0  0  0  0  0
    6.6697    4.6130   21.3884 H   0  0  0  0  0  0  0  0  0  0  0  0
    9.6027    1.9452   21.9133 H   0  0  0  0  0  0  0  0  0  0  0  0
    8.3027    2.2790   20.7742 H   0  0  0  0  0  0  0  0  0  0  0  0
    6.5991    1.7287   22.5564 H   0  0  0  0  0  0  0  0  0  0  0  0
    7.8928    1.3708   23.6837 H   0  0  0  0  0  0  0  0  0  0  0  0
    5.4089    0.7552   20.0960 C   0  0  0  0  0  0  0  0  0  0  0  0
    4.9298    0.7614   21.0742 H   0  0  0  0  0  0  0  0  0  0  0  0
    8.0191   -0.5872   18.3767 H   0  0  0  0  0  0  0  0  0  0  0  0
    5.0157    1.8347   16.8881 H   0  0  0  0  0  0  0  0  0  0  0  0
    3.8658    1.9061   19.0966 H   0  0  0  0  0  0  0  0  0  0  0  0
  1  2  2  0
  2  3  1  0
  3  4  2  0
  4  5  1  0
  5  6  1  0
  6  7  1  0
  7  8  2  0
  8  9  1  0
  9 10  1  0
 10 11  1  0
 11 12  1  0
 12 13  1  0
 13 14  1  0
 13 15  1  0
 12 16  1  0
 12 17  1  0
 11 18  1  0
 11 19  1  0
 10 20  1  0
 10 21  1  0
  9 22  1  0
  8 23  1  0
 23 24  2  0
 24 25  1  0
 25 26  1  0
 26 27  1  0
 27 28  2  0
 28 29  1  0
 29 30  1  0
 30 31  2  0
 31 32  1  0
 29 33  1  0
 28 34  1  0
 26 35  1  0
 26 36  1  0
 25 37  1  0
 25 38  1  0
  5 39  2  0
 39 40  1  0
  4 41  1  0
  2 42  1  0
  1 43  1  0
 39  1  1  0
 24  6  1  0
 31 27  1  0
 13  9  1  0
M  END
>  <cnnaffinity>  (1) 
-5.84754

>  <filename>  (1) 
c1cncc(-n2nc(C3CCCC3)nc2CCc2cn[nH]c2)c1

$$$$
