
     RDKit          3D

 43 46  0  0  0  0  0  0  0  0999 V2000
    5.1846    2.3443   16.6340 H   0  0  0  0  0  0  0  0  0  0  0  0
    5.5785    1.7594   17.4616 C   0  0  0  0  0  0  0  0  0  0  0  0
    6.4787    0.8099   17.1535 N   0  0  0  0  0  0  0  0  0  0  0  0
    6.9879    0.0839   18.1608 C   0  0  0  0  0  0  0  0  0  0  0  0
    7.7226   -0.6752   17.8846 H   0  0  0  0  0  0  0  0  0  0  0  0
    6.6650    0.2638   19.5332 C   0  0  0  0  0  0  0  0  0  0  0  0
    7.3136   -0.4825   20.5687 N   0  0  0  0  0  0  0  0  0  0  0  0
    7.0174   -1.9223   20.6810 C   0  0  0  0  0  0  0  0  0  0  0  0
    7.9293   -2.4878   20.9028 H   0  0  0  0  0  0  0  0  0  0  0  0
    6.6882   -2.2671   19.6966 H   0  0  0  0  0  0  0  0  0  0  0  0
    5.9362   -2.3373   21.7013 C   0  0  0  0  0  0  0  0  0  0  0  0
    5.5961   -3.3522   21.4774 H   0  0  0  0  0  0  0  0  0  0  0  0
    5.0827   -1.6777   21.5175 H   0  0  0  0  0  0  0  0  0  0  0  0
    6.3206   -2.3209   23.1154 N   0  0  0  0  0  0  0  0  0  0  0  0
    6.8911   -3.4883   23.7084 C   0  0  0  0  0  0  0  0  0  0  0  0
    6.0849   -4.4448   24.3090 C   0  0  0  0  0  0  0  0  0  0  0  0
    5.0052   -4.3390   24.2501 H   0  0  0  0  0  0  0  0  0  0  0  0
    6.5265   -5.5235   25.0218 N   0  0  0  0  0  0  0  0  0  0  0  0
    7.8268   -5.6641   25.1798 C   0  0  0  0  0  0  0  0  0  0  0  0
    8.1777   -6.4917   25.7980 H   0  0  0  0  0  0  0  0  0  0  0  0
    8.7946   -4.7847   24.6017 C   0  0  0  0  0  0  0  0  0  0  0  0
   10.1932   -4.9558   24.8169 C   0  0  0  0  0  0  0  0  0  0  0  0
   10.5540   -5.7820   25.4269 H   0  0  0  0  0  0  0  0  0  0  0  0
   11.0879   -4.0802   24.2577 C   0  0  0  0  0  0  0  0  0  0  0  0
   12.1429   -4.1978   24.4298 H   0  0  0  0  0  0  0  0  0  0  0  0
   10.6557   -3.0266   23.4203 C   0  0  0  0  0  0  0  0  0  0  0  0
   11.3888   -2.3706   22.9592 H   0  0  0  0  0  0  0  0  0  0  0  0
    9.3089   -2.8333   23.2077 C   0  0  0  0  0  0  0  0  0  0  0  0
    8.9696   -2.0149   22.5829 H   0  0  0  0  0  0  0  0  0  0  0  0
    8.3286   -3.6829   23.8143 C   0  0  0  0  0  0  0  0  0  0  0  0
    6.6240   -1.0634   23.8022 C   0  0  0  0  0  0  0  0  0  0  0  0
    5.9024   -0.9217   24.6274 H   0  0  0  0  0  0  0  0  0  0  0  0
    7.6116   -1.1401   24.2859 H   0  0  0  0  0  0  0  0  0  0  0  0
    6.5995    0.1799   22.9218 C   0  0  0  0  0  0  0  0  0  0  0  0
    5.6028    0.2954   22.4918 H   0  0  0  0  0  0  0  0  0  0  0  0
    6.7539    1.0444   23.5734 H   0  0  0  0  0  0  0  0  0  0  0  0
    7.6429    0.2471   21.8001 C   0  0  0  0  0  0  0  0  0  0  0  0
    7.7799    1.2983   21.5144 H   0  0  0  0  0  0  0  0  0  0  0  0
    8.6246   -0.0745   22.1788 H   0  0  0  0  0  0  0  0  0  0  0  0
    5.7265    1.2767   19.8160 C   0  0  0  0  0  0  0  0  0  0  0  0
    5.4554    1.4932   20.8446 H   0  0  0  0  0  0  0  0  0  0  0  0
    5.1697    2.0202   18.7724 C   0  0  0  0  0  0  0  0  0  0  0  0
    4.4517    2.8086   18.9738 H   0  0  0  0  0  0  0  0  0  0  0  0
  1  2  1  0
  2  3  2  0
  3  4  1  0
  4  5  1  0
  4  6  2  0
  6  7  1  0
  7  8  1  0
  8  9  1  0
  8 10  1  0
  8 11  1  0
 11 12  1  0
 11 13  1  0
 11 14  1  0
 14 15  1  0
 15 16  2  0
 16 17  1  0
 16 18  1  0
 18 19  2  0
 19 20  1  0
 19 21  1  0
 21 22  2  0
 22 23  1  0
 22 24  1  0
 24 25  1  0
 24 26  2  0
 26 27  1  0
 26 28  1  0
 28 29  1  0
 28 30  2  0
 14 31  1  0
 31 32  1  0
 31 33  1  0
 31 34  1  0
 34 35  1  0
 34 36  1  0
 34 37  1  0
 37 38  1  0
 37 39  1  0
  6 40  1  0
 40 41  1  0
 40 42  2  0
 42 43  1  0
 42  2  1  0
 37  7  1  0
 30 15  1  0
 30 21  1  0
M  END
>  <cnnaffinity>  (1) 
-5.73403

>  <filename>  (1) 
c1cncc(N2CCCN(c3cncc4ccccc34)CC2)c1

$$$$
