
     RDKit          3D

 40 43  0  0  0  0  0  0  0  0999 V2000
    4.9034    2.0828   16.4602 H   0  0  0  0  0  0  0  0  0  0  0  0
    5.3264    1.5541   17.3121 C   0  0  0  0  0  0  0  0  0  0  0  0
    6.5095    0.9528   17.1110 N   0  0  0  0  0  0  0  0  0  0  0  0
    7.0838    0.3288   18.1537 C   0  0  0  0  0  0  0  0  0  0  0  0
    8.0530   -0.1312   17.9600 H   0  0  0  0  0  0  0  0  0  0  0  0
    6.5094    0.2351   19.4494 C   0  0  0  0  0  0  0  0  0  0  0  0
    7.1031   -0.3962   20.5755 N   0  0  0  0  0  0  0  0  0  0  0  0
    6.4492   -1.5802   21.1548 C   0  0  0  0  0  0  0  0  0  0  0  0
    6.7325   -2.5042   20.6204 H   0  0  0  0  0  0  0  0  0  0  0  0
    5.3642   -1.4793   21.0801 H   0  0  0  0  0  0  0  0  0  0  0  0
    6.8292   -1.7214   22.6320 C   0  0  0  0  0  0  0  0  0  0  0  0
    6.3308   -2.5906   23.0711 H   0  0  0  0  0  0  0  0  0  0  0  0
    6.4557   -0.8277   23.1604 H   0  0  0  0  0  0  0  0  0  0  0  0
    8.2858   -1.8701   22.7684 N   0  0  0  0  0  0  0  0  0  0  0  0
    8.7310   -2.3924   24.0291 C   0  0  0  0  0  0  0  0  0  0  0  0
    9.2113   -3.6890   24.0593 C   0  0  0  0  0  0  0  0  0  0  0  0
    9.1857   -4.2695   23.1433 H   0  0  0  0  0  0  0  0  0  0  0  0
    9.7205   -4.2803   25.2492 C   0  0  0  0  0  0  0  0  0  0  0  0
   10.1141   -5.2959   25.2254 H   0  0  0  0  0  0  0  0  0  0  0  0
    9.6904   -3.5730   26.4224 C   0  0  0  0  0  0  0  0  0  0  0  0
   10.0404   -3.9541   27.3747 H   0  0  0  0  0  0  0  0  0  0  0  0
    9.2113   -2.2337   26.4381 C   0  0  0  0  0  0  0  0  0  0  0  0
    9.3408   -1.5762   27.6285 N   0  0  0  0  0  0  0  0  0  0  0  0
    8.9263   -0.3402   27.7071 C   0  0  0  0  0  0  0  0  0  0  0  0
    9.0783    0.1375   28.6752 H   0  0  0  0  0  0  0  0  0  0  0  0
    8.3096    0.3459   26.6240 C   0  0  0  0  0  0  0  0  0  0  0  0
    7.9785    1.3648   26.7716 H   0  0  0  0  0  0  0  0  0  0  0  0
    8.1456   -0.3056   25.4196 C   0  0  0  0  0  0  0  0  0  0  0  0
    7.6322    0.1883   24.5940 H   0  0  0  0  0  0  0  0  0  0  0  0
    8.6697   -1.6316   25.2585 C   0  0  0  0  0  0  0  0  0  0  0  0
    8.9557   -0.6800   22.2002 C   0  0  0  0  0  0  0  0  0  0  0  0
    8.6858    0.2500   22.7266 H   0  0  0  0  0  0  0  0  0  0  0  0
   10.0424   -0.7895   22.2755 H   0  0  0  0  0  0  0  0  0  0  0  0
    8.5609   -0.4904   20.7200 C   0  0  0  0  0  0  0  0  0  0  0  0
    9.0108    0.4317   20.3378 H   0  0  0  0  0  0  0  0  0  0  0  0
    8.9762   -1.3285   20.1363 H   0  0  0  0  0  0  0  0  0  0  0  0
    5.2516    0.8532   19.6126 C   0  0  0  0  0  0  0  0  0  0  0  0
    4.7934    0.8305   20.5997 H   0  0  0  0  0  0  0  0  0  0  0  0
    4.6579    1.5282   18.5412 C   0  0  0  0  0  0  0  0  0  0  0  0
    3.7058    2.0418   18.6520 H   0  0  0  0  0  0  0  0  0  0  0  0
  1  2  1  0
  2  3  2  0
  3  4  1  0
  4  5  1  0
  4  6  2  0
  6  7  1  0
  7  8  1  0
  8  9  1  0
  8 10  1  0
  8 11  1  0
 11 12  1  0
 11 13  1  0
 11 14  1  0
 14 15  1  0
 15 16  2  0
 16 17  1  0
 16 18  1  0
 18 19  1  0
 18 20  2  0
 20 21  1  0
 20 22  1  0
 22 23  2  0
 23 24  1  0
 24 25  1  0
 24 26  2  0
 26 27  1  0
 26 28  1  0
 28 29  1  0
 28 30  2  0
 14 31  1  0
 31 32  1  0
 31 33  1  0
 31 34  1  0
 34 35  1  0
 34 36  1  0
  6 37  1  0
 37 38  1  0
 37 39  2  0
 39 40  1  0
 39  2  1  0
 34  7  1  0
 30 15  1  0
 30 22  1  0
M  END
>  <cnnaffinity>  (1) 
-5.05433

>  <filename>  (1) 
c1cncc(N2CCN(c3cccc4ncccc34)CC2)c1

$$$$
