
     RDKit          3D

 36 39  0  0  0  0  0  0  0  0999 V2000
    4.9377    2.0264   16.5430 H   0  0  0  0  0  0  0  0  0  0  0  0
    5.4226    1.4722   17.3410 C   0  0  0  0  0  0  0  0  0  0  0  0
    6.5572    0.8349   17.0140 N   0  0  0  0  0  0  0  0  0  0  0  0
    7.1933    0.1557   17.9719 C   0  0  0  0  0  0  0  0  0  0  0  0
    8.1111   -0.3479   17.6641 H   0  0  0  0  0  0  0  0  0  0  0  0
    6.7246    0.0797   19.2878 C   0  0  0  0  0  0  0  0  0  0  0  0
    7.4900   -0.6122   20.3158 C   0  0  0  0  0  0  0  0  0  0  0  0
    8.7419   -1.1158   20.1279 N   0  0  0  0  0  0  0  0  0  0  0  0
    9.0167   -1.5800   21.3323 C   0  0  0  0  0  0  0  0  0  0  0  0
   10.2991   -2.3960   22.1808 S   0  0  0  0  0  0  0  0  0  0  0  0
    9.3234   -2.4173   23.6442 C   0  0  0  0  0  0  0  0  0  0  0  0
    9.6930   -2.9433   24.5082 H   0  0  0  0  0  0  0  0  0  0  0  0
    8.1366   -1.7853   23.5017 C   0  0  0  0  0  0  0  0  0  0  0  0
    7.0397   -1.4858   24.4941 C   0  0  0  0  0  0  0  0  0  0  0  0
    6.3696   -0.7778   23.9827 H   0  0  0  0  0  0  0  0  0  0  0  0
    6.2112   -2.7443   24.8569 C   0  0  0  0  0  0  0  0  0  0  0  0
    5.8369   -3.2220   23.9451 H   0  0  0  0  0  0  0  0  0  0  0  0
    5.3264   -2.3990   25.4140 H   0  0  0  0  0  0  0  0  0  0  0  0
    6.9976   -3.7362   25.7282 C   0  0  0  0  0  0  0  0  0  0  0  0
    6.3682   -4.6065   25.9603 H   0  0  0  0  0  0  0  0  0  0  0  0
    7.8565   -4.1298   25.1705 H   0  0  0  0  0  0  0  0  0  0  0  0
    7.4897   -3.0705   27.0220 C   0  0  0  0  0  0  0  0  0  0  0  0
    8.0911   -3.7820   27.6060 H   0  0  0  0  0  0  0  0  0  0  0  0
    6.5982   -2.7888   27.6046 H   0  0  0  0  0  0  0  0  0  0  0  0
    8.2942   -1.7874   26.7572 C   0  0  0  0  0  0  0  0  0  0  0  0
    9.2751   -2.0382   26.3370 H   0  0  0  0  0  0  0  0  0  0  0  0
    8.5031   -1.2792   27.7121 H   0  0  0  0  0  0  0  0  0  0  0  0
    7.5367   -0.8324   25.8137 C   0  0  0  0  0  0  0  0  0  0  0  0
    8.1343    0.0594   25.5990 H   0  0  0  0  0  0  0  0  0  0  0  0
    6.6340   -0.4871   26.3388 H   0  0  0  0  0  0  0  0  0  0  0  0
    7.9908   -1.3686   22.1805 N   0  0  0  0  0  0  0  0  0  0  0  0
    6.9860   -0.7400   21.5392 N   0  0  0  0  0  0  0  0  0  0  0  0
    5.5207    0.7252   19.6185 C   0  0  0  0  0  0  0  0  0  0  0  0
    5.1367    0.6631   20.6387 H   0  0  0  0  0  0  0  0  0  0  0  0
    4.8647    1.4389   18.6249 C   0  0  0  0  0  0  0  0  0  0  0  0
    3.9481    1.9768   18.8336 H   0  0  0  0  0  0  0  0  0  0  0  0
  1  2  1  0
  2  3  2  0
  3  4  1  0
  4  5  1  0
  4  6  2  0
  6  7  1  0
  7  8  1  0
  8  9  2  0
  9 10  1  0
 10 11  1  0
 11 12  1  0
 11 13  2  0
 13 14  1  0
 14 15  1  0
 14 16  1  0
 16 17  1  0
 16 18  1  0
 16 19  1  0
 19 20  1  0
 19 21  1  0
 19 22  1  0
 22 23  1  0
 22 24  1  0
 22 25  1  0
 25 26  1  0
 25 27  1  0
 25 28  1  0
 28 29  1  0
 28 30  1  0
 13 31  1  0
 31 32  1  0
  6 33  1  0
 33 34  1  0
 33 35  2  0
 35 36  1  0
 35  2  1  0
 32  7  2  0
 31  9  1  0
 28 14  1  0
M  END
>  <cnnaffinity>  (1) 
-5.67252

>  <filename>  (1) 
c1cncc(-c2nc3scc(C4CCCCC4)n3n2)c1

$$$$
