
     RDKit          3D

 35 38  0  0  0  0  0  0  0  0999 V2000
   10.4717   -1.3332   21.8563 H   0  0  0  0  0  0  0  0  0  0  0  0
    9.3890   -1.3303   21.8903 C   0  0  0  0  0  0  0  0  0  0  0  0
    8.7576   -0.6944   20.9009 N   0  0  0  0  0  0  0  0  0  0  0  0
    7.4259   -0.7026   20.9565 C   0  0  0  0  0  0  0  0  0  0  0  0
    6.6762    0.0137   19.9116 C   0  0  0  0  0  0  0  0  0  0  0  0
    7.1864    0.0628   18.6080 C   0  0  0  0  0  0  0  0  0  0  0  0
    8.1281   -0.4267   18.3732 H   0  0  0  0  0  0  0  0  0  0  0  0
    6.5680    0.6683   17.5904 N   0  0  0  0  0  0  0  0  0  0  0  0
    5.4061    1.2863   17.8488 C   0  0  0  0  0  0  0  0  0  0  0  0
    4.9185    1.7729   17.0056 H   0  0  0  0  0  0  0  0  0  0  0  0
    4.8115    1.3080   19.1148 C   0  0  0  0  0  0  0  0  0  0  0  0
    3.8774    1.8402   19.2642 H   0  0  0  0  0  0  0  0  0  0  0  0
    5.4478    0.6468   20.1623 C   0  0  0  0  0  0  0  0  0  0  0  0
    5.0039    0.6383   21.1607 H   0  0  0  0  0  0  0  0  0  0  0  0
    6.7463   -1.3779   21.9641 C   0  0  0  0  0  0  0  0  0  0  0  0
    5.6736   -1.4388   21.9652 H   0  0  0  0  0  0  0  0  0  0  0  0
    7.4962   -2.0081   22.9505 C   0  0  0  0  0  0  0  0  0  0  0  0
    6.8411   -2.7803   24.0486 C   0  0  0  0  0  0  0  0  0  0  0  0
    7.1331   -4.1257   24.1879 C   0  0  0  0  0  0  0  0  0  0  0  0
    7.8716   -4.5842   23.5336 H   0  0  0  0  0  0  0  0  0  0  0  0
    6.4913   -4.9269   25.1653 C   0  0  0  0  0  0  0  0  0  0  0  0
    6.7577   -5.9773   25.2484 H   0  0  0  0  0  0  0  0  0  0  0  0
    5.5531   -4.3800   26.0065 C   0  0  0  0  0  0  0  0  0  0  0  0
    5.0569   -4.9893   26.7626 H   0  0  0  0  0  0  0  0  0  0  0  0
    5.2212   -2.9972   25.9143 C   0  0  0  0  0  0  0  0  0  0  0  0
    4.2573   -2.4167   26.7946 C   0  0  0  0  0  0  0  0  0  0  0  0
    3.7736   -3.0596   27.5305 H   0  0  0  0  0  0  0  0  0  0  0  0
    3.9564   -1.0789   26.7296 C   0  0  0  0  0  0  0  0  0  0  0  0
    3.2247   -0.6426   27.4067 H   0  0  0  0  0  0  0  0  0  0  0  0
    4.6180   -0.2479   25.7864 C   0  0  0  0  0  0  0  0  0  0  0  0
    4.3771    0.8120   25.7439 H   0  0  0  0  0  0  0  0  0  0  0  0
    5.5669   -0.7695   24.9386 C   0  0  0  0  0  0  0  0  0  0  0  0
    6.0572   -0.1233   24.2147 H   0  0  0  0  0  0  0  0  0  0  0  0
    5.8805   -2.1701   24.9400 C   0  0  0  0  0  0  0  0  0  0  0  0
    8.8364   -2.0086   22.8945 N   0  0  0  0  0  0  0  0  0  0  0  0
  1  2  1  0
  2  3  2  0
  3  4  1  0
  4  5  1  0
  5  6  2  0
  6  7  1  0
  6  8  1  0
  8  9  2  0
  9 10  1  0
  9 11  1  0
 11 12  1  0
 11 13  2  0
 13 14  1  0
  4 15  2  0
 15 16  1  0
 15 17  1  0
 17 18  1  0
 18 19  2  0
 19 20  1  0
 19 21  1  0
 21 22  1  0
 21 23  2  0
 23 24  1  0
 23 25  1  0
 25 26  2  0
 26 27  1  0
 26 28  1  0
 28 29  1  0
 28 30  2  0
 30 31  1  0
 30 32  1  0
 32 33  1  0
 32 34  2  0
 17 35  2  0
 35  2  1  0
 13  5  1  0
 34 18  1  0
 34 25  1  0
M  END
>  <cnnaffinity>  (1) 
-5.16694

>  <filename>  (1) 
c1cncc(-c2cc(-c3cccc4ccccc34)ncn2)c1

$$$$
