
     RDKit          3D

 36 38  0  0  0  0  0  0  0  0999 V2000
    4.9169    1.7848   16.9909 H   0  0  0  0  0  0  0  0  0  0  0  0
    5.3996    1.2930   17.8333 C   0  0  0  0  0  0  0  0  0  0  0  0
    6.5638    0.6731   17.5810 N   0  0  0  0  0  0  0  0  0  0  0  0
    7.1719    0.0579   18.6066 C   0  0  0  0  0  0  0  0  0  0  0  0
    8.1182   -0.4273   18.3736 H   0  0  0  0  0  0  0  0  0  0  0  0
    6.6705    0.0226   19.9371 C   0  0  0  0  0  0  0  0  0  0  0  0
    7.3479   -0.6355   20.9982 N   0  0  0  0  0  0  0  0  0  0  0  0
    7.4109   -0.3418   22.3642 C   0  0  0  0  0  0  0  0  0  0  0  0
    6.9112    0.8320   22.7477 O   0  0  0  0  0  0  0  0  0  0  0  0
    6.9222    1.2466   24.1460 C   0  0  0  0  0  0  0  0  0  0  0  0
    6.4399    2.2279   24.0931 H   0  0  0  0  0  0  0  0  0  0  0  0
    6.0689    0.3403   25.0337 C   0  0  0  0  0  0  0  0  0  0  0  0
    6.4605   -0.6790   24.9695 H   0  0  0  0  0  0  0  0  0  0  0  0
    5.0353    0.3314   24.6753 H   0  0  0  0  0  0  0  0  0  0  0  0
    6.1222    0.8097   26.4945 C   0  0  0  0  0  0  0  0  0  0  0  0
    5.5778    0.1186   27.1489 H   0  0  0  0  0  0  0  0  0  0  0  0
    5.6269    1.7845   26.6105 H   0  0  0  0  0  0  0  0  0  0  0  0
    7.4865    0.9520   27.0014 N   0  0  0  0  0  0  0  0  0  0  0  0
    7.9272    0.0358   26.9404 H   0  0  0  0  0  0  0  0  0  0  0  0
    8.2813    1.8600   26.1744 C   0  0  0  0  0  0  0  0  0  0  0  0
    7.8503    2.8657   26.2830 H   0  0  0  0  0  0  0  0  0  0  0  0
    9.2906    1.9223   26.5934 H   0  0  0  0  0  0  0  0  0  0  0  0
    8.3344    1.4409   24.6982 C   0  0  0  0  0  0  0  0  0  0  0  0
    8.8765    0.4947   24.6131 H   0  0  0  0  0  0  0  0  0  0  0  0
    8.8672    2.1932   24.1090 H   0  0  0  0  0  0  0  0  0  0  0  0
    7.9814   -1.2166   23.1079 N   0  0  0  0  0  0  0  0  0  0  0  0
    8.3905   -2.3129   22.2362 C   0  0  0  0  0  0  0  0  0  0  0  0
    7.8910   -3.2444   22.5243 H   0  0  0  0  0  0  0  0  0  0  0  0
    9.4657   -2.4974   22.3173 H   0  0  0  0  0  0  0  0  0  0  0  0
    8.0152   -1.9170   20.7970 C   0  0  0  0  0  0  0  0  0  0  0  0
    8.8944   -1.8305   20.1396 H   0  0  0  0  0  0  0  0  0  0  0  0
    7.3393   -2.6463   20.3315 H   0  0  0  0  0  0  0  0  0  0  0  0
    5.4384    0.6554   20.1658 C   0  0  0  0  0  0  0  0  0  0  0  0
    5.0217    0.6329   21.1687 H   0  0  0  0  0  0  0  0  0  0  0  0
    4.8065    1.3049   19.1006 C   0  0  0  0  0  0  0  0  0  0  0  0
    3.8773    1.8379   19.2582 H   0  0  0  0  0  0  0  0  0  0  0  0
  1  2  1  0
  2  3  2  0
  3  4  1  0
  4  5  1  0
  4  6  2  0
  6  7  1  0
  7  8  1  0
  8  9  1  0
  9 10  1  0
 10 11  1  0
 10 12  1  0
 12 13  1  0
 12 14  1  0
 12 15  1  0
 15 16  1  0
 15 17  1  0
 15 18  1  0
 18 19  1  0
 18 20  1  0
 20 21  1  0
 20 22  1  0
 20 23  1  0
 23 24  1  0
 23 25  1  0
  8 26  2  0
 26 27  1  0
 27 28  1  0
 27 29  1  0
 27 30  1  0
 30 31  1  0
 30 32  1  0
  6 33  1  0
 33 34  1  0
 33 35  2  0
 35 36  1  0
 35  2  1  0
 30  7  1  0
 23 10  1  0
M  END
>  <cnnaffinity>  (1) 
-4.33965

>  <filename>  (1) 
c1cncc(N2CCN=C2OC2CCNCC2)c1

$$$$
