
     RDKit          3D

 29 31  0  0  0  0  0  0  0  0999 V2000
    4.9128    1.7842   16.9904 H   0  0  0  0  0  0  0  0  0  0  0  0
    5.3985    1.2978   17.8293 C   0  0  0  0  0  0  0  0  0  0  0  0
    6.5616    0.6809   17.5584 N   0  0  0  0  0  0  0  0  0  0  0  0
    7.1702    0.0798   18.5849 C   0  0  0  0  0  0  0  0  0  0  0  0
    8.1109   -0.4244   18.3704 H   0  0  0  0  0  0  0  0  0  0  0  0
    6.6529    0.0214   19.8907 C   0  0  0  0  0  0  0  0  0  0  0  0
    7.3843   -0.6869   20.9625 C   0  0  0  0  0  0  0  0  0  0  0  0
    6.7313   -1.5188   21.8985 C   0  0  0  0  0  0  0  0  0  0  0  0
    5.6650   -1.6861   21.8175 H   0  0  0  0  0  0  0  0  0  0  0  0
    7.3722   -2.1747   22.8683 N   0  0  0  0  0  0  0  0  0  0  0  0
    8.7006   -2.0403   22.9879 N   0  0  0  0  0  0  0  0  0  0  0  0
    9.3828   -1.2626   22.1351 C   0  0  0  0  0  0  0  0  0  0  0  0
   10.8655   -1.0951   22.3756 C   0  0  0  0  0  0  0  0  0  0  0  0
   11.2556   -1.9633   22.9089 H   0  0  0  0  0  0  0  0  0  0  0  0
   11.3927   -1.0425   21.4180 H   0  0  0  0  0  0  0  0  0  0  0  0
   11.1743    0.1229   23.1262 N   0  0  0  0  0  0  0  0  0  0  0  0
   11.1384    0.2820   24.4847 C   0  0  0  0  0  0  0  0  0  0  0  0
   10.9586   -0.5564   25.1535 H   0  0  0  0  0  0  0  0  0  0  0  0
   11.3371    1.5220   24.8468 N   0  0  0  0  0  0  0  0  0  0  0  0
   11.4848    2.2201   23.6719 C   0  0  0  0  0  0  0  0  0  0  0  0
   11.6670    3.2876   23.6589 H   0  0  0  0  0  0  0  0  0  0  0  0
   11.3746    1.3846   22.5964 C   0  0  0  0  0  0  0  0  0  0  0  0
   11.4260    1.5839   21.5337 H   0  0  0  0  0  0  0  0  0  0  0  0
    8.7558   -0.5691   21.0879 C   0  0  0  0  0  0  0  0  0  0  0  0
    9.3292    0.0900   20.4371 H   0  0  0  0  0  0  0  0  0  0  0  0
    5.4273    0.6534   20.1469 C   0  0  0  0  0  0  0  0  0  0  0  0
    5.0105    0.6373   21.1598 H   0  0  0  0  0  0  0  0  0  0  0  0
    4.8005    1.3173   19.0966 C   0  0  0  0  0  0  0  0  0  0  0  0
    3.8679    1.8480   19.2554 H   0  0  0  0  0  0  0  0  0  0  0  0
  1  2  1  0
  2  3  2  0
  3  4  1  0
  4  5  1  0
  4  6  2  0
  6  7  1  0
  7  8  2  0
  8  9  1  0
  8 10  1  0
 10 11  2  0
 11 12  1  0
 12 13  1  0
 13 14  1  0
 13 15  1  0
 13 16  1  0
 16 17  1  0
 17 18  1  0
 17 19  2  0
 19 20  1  0
 20 21  1  0
 20 22  2  0
 22 23  1  0
 12 24  2  0
 24 25  1  0
  6 26  1  0
 26 27  1  0
 26 28  2  0
 28 29  1  0
 28  2  1  0
 24  7  1  0
 22 16  1  0
M  END
>  <cnnaffinity>  (1) 
-5.2483

>  <filename>  (1) 
c1cncc(-c2cnnc(Cn3ccnc3)c2)c1

$$$$
