
     RDKit          3D

 40 42  0  0  0  0  0  0  0  0999 V2000
    5.0736    1.7754   16.9414 H   0  0  0  0  0  0  0  0  0  0  0  0
    5.4835    1.2919   17.8250 C   0  0  0  0  0  0  0  0  0  0  0  0
    6.6441    0.6362   17.6580 N   0  0  0  0  0  0  0  0  0  0  0  0
    7.1592    0.0083   18.7216 C   0  0  0  0  0  0  0  0  0  0  0  0
    8.1161   -0.4920   18.5625 H   0  0  0  0  0  0  0  0  0  0  0  0
    6.5639    0.0094   19.9972 C   0  0  0  0  0  0  0  0  0  0  0  0
    7.1927   -0.6984   21.0687 N   0  0  0  0  0  0  0  0  0  0  0  0
    7.5000   -2.0384   21.0104 C   0  0  0  0  0  0  0  0  0  0  0  0
    7.0826   -2.6068   20.1943 H   0  0  0  0  0  0  0  0  0  0  0  0
    8.2247   -2.3834   22.1232 C   0  0  0  0  0  0  0  0  0  0  0  0
    8.6367   -3.3686   22.3357 H   0  0  0  0  0  0  0  0  0  0  0  0
    8.3544   -1.1982   22.9019 C   0  0  0  0  0  0  0  0  0  0  0  0
    8.8940   -1.0981   23.8397 H   0  0  0  0  0  0  0  0  0  0  0  0
    7.7172   -0.1693   22.2393 C   0  0  0  0  0  0  0  0  0  0  0  0
    7.7042    1.3129   22.4779 C   0  0  0  0  0  0  0  0  0  0  0  0
    6.6842    1.7137   22.4511 H   0  0  0  0  0  0  0  0  0  0  0  0
    8.0764    1.5036   23.4912 H   0  0  0  0  0  0  0  0  0  0  0  0
    8.5642    2.0809   21.4435 C   0  0  0  0  0  0  0  0  0  0  0  0
    8.0982    2.0323   20.4563 H   0  0  0  0  0  0  0  0  0  0  0  0
    8.5658    3.1512   21.6798 H   0  0  0  0  0  0  0  0  0  0  0  0
    9.9494    1.6117   21.3249 N   0  0  0  0  0  0  0  0  0  0  0  0
    9.9156    0.6085   21.1322 H   0  0  0  0  0  0  0  0  0  0  0  0
   10.7289    1.7996   22.5487 C   0  0  0  0  0  0  0  0  0  0  0  0
   10.2581    1.3205   23.4302 H   0  0  0  0  0  0  0  0  0  0  0  0
   10.9769    3.2757   22.8594 C   0  0  0  0  0  0  0  0  0  0  0  0
   10.1113    3.7793   23.3013 H   0  0  0  0  0  0  0  0  0  0  0  0
   11.1899    3.7848   21.9168 H   0  0  0  0  0  0  0  0  0  0  0  0
   12.2100    3.3028   23.7741 C   0  0  0  0  0  0  0  0  0  0  0  0
   11.9012    3.4345   24.8123 H   0  0  0  0  0  0  0  0  0  0  0  0
   12.8536    4.1531   23.5340 H   0  0  0  0  0  0  0  0  0  0  0  0
   12.9214    1.9411   23.5617 C   0  0  0  0  0  0  0  0  0  0  0  0
   12.8825    1.3345   24.4739 H   0  0  0  0  0  0  0  0  0  0  0  0
   13.9792    2.0542   23.3161 H   0  0  0  0  0  0  0  0  0  0  0  0
   12.1401    1.2460   22.4307 C   0  0  0  0  0  0  0  0  0  0  0  0
   12.1762    0.1541   22.4894 H   0  0  0  0  0  0  0  0  0  0  0  0
   12.5182    1.5274   21.4428 H   0  0  0  0  0  0  0  0  0  0  0  0
    5.3604    0.7155   20.1621 C   0  0  0  0  0  0  0  0  0  0  0  0
    4.8822    0.7533   21.1410 H   0  0  0  0  0  0  0  0  0  0  0  0
    4.8036    1.3497   19.0457 C   0  0  0  0  0  0  0  0  0  0  0  0
    3.8611    1.8856   19.1193 H   0  0  0  0  0  0  0  0  0  0  0  0
  1  2  1  0
  2  3  2  0
  3  4  1  0
  4  5  1  0
  4  6  2  0
  6  7  1  0
  7  8  1  0
  8  9  1  0
  8 10  2  0
 10 11  1  0
 10 12  1  0
 12 13  1  0
 12 14  2  0
 14 15  1  0
 15 16  1  0
 15 17  1  0
 15 18  1  0
 18 19  1  0
 18 20  1  0
 18 21  1  0
 21 22  1  0
 21 23  1  0
 23 24  1  0
 23 25  1  0
 25 26  1  0
 25 27  1  0
 25 28  1  0
 28 29  1  0
 28 30  1  0
 28 31  1  0
 31 32  1  0
 31 33  1  0
 31 34  1  0
 34 35  1  0
 34 36  1  0
  6 37  1  0
 37 38  1  0
 37 39  2  0
 39 40  1  0
 39  2  1  0
 14  7  1  0
 34 23  1  0
M  END
>  <cnnaffinity>  (1) 
-5.01423

>  <filename>  (1) 
c1cncc(-n2cccc2CCNC2CCCC2)c1

$$$$
