
     RDKit          3D

 35 37  0  0  0  0  0  0  0  0999 V2000
    4.9260    1.7778   16.9951 H   0  0  0  0  0  0  0  0  0  0  0  0
    5.4039    1.2900   17.8418 C   0  0  0  0  0  0  0  0  0  0  0  0
    6.5690    0.6693   17.5937 N   0  0  0  0  0  0  0  0  0  0  0  0
    7.1728    0.0573   18.6173 C   0  0  0  0  0  0  0  0  0  0  0  0
    8.1134   -0.4258   18.3548 H   0  0  0  0  0  0  0  0  0  0  0  0
    6.6566    0.0064   19.9237 C   0  0  0  0  0  0  0  0  0  0  0  0
    7.3322   -0.7057   21.0271 C   0  0  0  0  0  0  0  0  0  0  0  0
    6.8118   -1.0209   22.1988 N   0  0  0  0  0  0  0  0  0  0  0  0
    7.8384   -1.6398   22.8353 C   0  0  0  0  0  0  0  0  0  0  0  0
    7.6902   -2.0958   24.0969 N   0  0  0  0  0  0  0  0  0  0  0  0
    6.7920   -1.8919   24.4777 H   0  0  0  0  0  0  0  0  0  0  0  0
    8.7393   -2.8008   24.8140 C   0  0  0  0  0  0  0  0  0  0  0  0
    9.6633   -2.2306   24.6675 H   0  0  0  0  0  0  0  0  0  0  0  0
    8.4545   -2.8690   26.3250 C   0  0  0  0  0  0  0  0  0  0  0  0
    9.3839   -3.1840   26.8175 H   0  0  0  0  0  0  0  0  0  0  0  0
    8.2423   -1.8675   26.7147 H   0  0  0  0  0  0  0  0  0  0  0  0
    7.3479   -3.8632   26.7168 C   0  0  0  0  0  0  0  0  0  0  0  0
    6.3823   -3.4770   26.3650 H   0  0  0  0  0  0  0  0  0  0  0  0
    7.2687   -3.9375   27.8076 H   0  0  0  0  0  0  0  0  0  0  0  0
    7.5910   -5.2557   26.1137 C   0  0  0  0  0  0  0  0  0  0  0  0
    6.7528   -5.9230   26.3494 H   0  0  0  0  0  0  0  0  0  0  0  0
    8.4814   -5.7016   26.5811 H   0  0  0  0  0  0  0  0  0  0  0  0
    7.8085   -5.1805   24.5958 C   0  0  0  0  0  0  0  0  0  0  0  0
    6.8857   -4.8316   24.1129 H   0  0  0  0  0  0  0  0  0  0  0  0
    8.0169   -6.1753   24.1879 H   0  0  0  0  0  0  0  0  0  0  0  0
    8.9501   -4.2165   24.2395 C   0  0  0  0  0  0  0  0  0  0  0  0
    9.0811   -4.1390   23.1566 H   0  0  0  0  0  0  0  0  0  0  0  0
    9.8898   -4.6074   24.6492 H   0  0  0  0  0  0  0  0  0  0  0  0
    8.9660   -1.7353   22.1509 N   0  0  0  0  0  0  0  0  0  0  0  0
    8.6067   -1.1266   20.9783 N   0  0  0  0  0  0  0  0  0  0  0  0
    9.2817   -0.9873   20.2480 H   0  0  0  0  0  0  0  0  0  0  0  0
    5.4318    0.6562   20.1614 C   0  0  0  0  0  0  0  0  0  0  0  0
    5.0016    0.6321   21.1669 H   0  0  0  0  0  0  0  0  0  0  0  0
    4.8047    1.3128   19.1046 C   0  0  0  0  0  0  0  0  0  0  0  0
    3.8726    1.8452   19.2527 H   0  0  0  0  0  0  0  0  0  0  0  0
  1  2  1  0
  2  3  2  0
  3  4  1  0
  4  5  1  0
  4  6  2  0
  6  7  1  0
  7  8  2  0
  8  9  1  0
  9 10  1  0
 10 11  1  0
 10 12  1  0
 12 13  1  0
 12 14  1  0
 14 15  1  0
 14 16  1  0
 14 17  1  0
 17 18  1  0
 17 19  1  0
 17 20  1  0
 20 21  1  0
 20 22  1  0
 20 23  1  0
 23 24  1  0
 23 25  1  0
 23 26  1  0
 26 27  1  0
 26 28  1  0
  9 29  2  0
 29 30  1  0
 30 31  1  0
  6 32  1  0
 32 33  1  0
 32 34  2  0
 34 35  1  0
 34  2  1  0
 30  7  1  0
 26 12  1  0
M  END
>  <cnnaffinity>  (1) 
-5.01868

>  <filename>  (1) 
c1cncc(-c2nc(NC3CCCCC3)n[nH]2)c1

$$$$
