
     RDKit          3D

 32 34  0  0  0  0  0  0  0  0999 V2000
    4.9184    1.7783   16.9979 H   0  0  0  0  0  0  0  0  0  0  0  0
    5.4049    1.2943   17.8390 C   0  0  0  0  0  0  0  0  0  0  0  0
    6.5707    0.6800   17.5756 N   0  0  0  0  0  0  0  0  0  0  0  0
    7.1682    0.0598   18.5950 C   0  0  0  0  0  0  0  0  0  0  0  0
    8.1153   -0.4325   18.3790 H   0  0  0  0  0  0  0  0  0  0  0  0
    6.6468    0.0250   19.8947 C   0  0  0  0  0  0  0  0  0  0  0  0
    7.3872   -0.7080   20.9201 C   0  0  0  0  0  0  0  0  0  0  0  0
    7.7799   -1.9595   20.8404 N   0  0  0  0  0  0  0  0  0  0  0  0
    8.4204   -2.2220   21.9926 N   0  0  0  0  0  0  0  0  0  0  0  0
    8.4451   -1.1856   22.7506 N   0  0  0  0  0  0  0  0  0  0  0  0
    7.7716   -0.2066   22.1144 N   0  0  0  0  0  0  0  0  0  0  0  0
    7.7526    1.2020   22.5745 C   0  0  0  0  0  0  0  0  0  0  0  0
    6.7884    1.6045   22.2516 H   0  0  0  0  0  0  0  0  0  0  0  0
    8.8572    2.0236   21.8759 C   0  0  0  0  0  0  0  0  0  0  0  0
    8.6272    3.0897   22.0058 H   0  0  0  0  0  0  0  0  0  0  0  0
    8.8253    1.8372   20.7962 H   0  0  0  0  0  0  0  0  0  0  0  0
   10.2470    1.7382   22.4518 C   0  0  0  0  0  0  0  0  0  0  0  0
   10.9915    2.3675   21.9511 H   0  0  0  0  0  0  0  0  0  0  0  0
   10.5118    0.6954   22.2404 H   0  0  0  0  0  0  0  0  0  0  0  0
   10.2760    1.9771   23.9662 C   0  0  0  0  0  0  0  0  0  0  0  0
   11.2751    1.7709   24.3643 H   0  0  0  0  0  0  0  0  0  0  0  0
   10.0797    3.0393   24.1618 H   0  0  0  0  0  0  0  0  0  0  0  0
    9.2318    1.1295   24.6986 C   0  0  0  0  0  0  0  0  0  0  0  0
    9.2165    1.3804   25.7666 H   0  0  0  0  0  0  0  0  0  0  0  0
    9.5073    0.0753   24.6172 H   0  0  0  0  0  0  0  0  0  0  0  0
    7.8261    1.3188   24.1082 C   0  0  0  0  0  0  0  0  0  0  0  0
    7.4715    2.3224   24.3755 H   0  0  0  0  0  0  0  0  0  0  0  0
    7.1166    0.6170   24.5559 H   0  0  0  0  0  0  0  0  0  0  0  0
    5.4296    0.6661   20.1595 C   0  0  0  0  0  0  0  0  0  0  0  0
    4.9933    0.6324   21.1677 H   0  0  0  0  0  0  0  0  0  0  0  0
    4.7959    1.3137   19.1019 C   0  0  0  0  0  0  0  0  0  0  0  0
    3.8660    1.8480   19.2595 H   0  0  0  0  0  0  0  0  0  0  0  0
  1  2  1  0
  2  3  2  0
  3  4  1  0
  4  5  1  0
  4  6  2  0
  6  7  1  0
  7  8  2  0
  8  9  1  0
  9 10  2  0
 10 11  1  0
 11 12  1  0
 12 13  1  0
 12 14  1  0
 14 15  1  0
 14 16  1  0
 14 17  1  0
 17 18  1  0
 17 19  1  0
 17 20  1  0
 20 21  1  0
 20 22  1  0
 20 23  1  0
 23 24  1  0
 23 25  1  0
 23 26  1  0
 26 27  1  0
 26 28  1  0
  6 29  1  0
 29 30  1  0
 29 31  2  0
 31 32  1  0
 31  2  1  0
 11  7  1  0
 26 12  1  0
M  END
>  <cnnaffinity>  (1) 
-5.17841

>  <filename>  (1) 
c1cncc(-c2nnnn2C2CCCCC2)c1

$$$$
