
     RDKit          3D

 36 38  0  0  0  0  0  0  0  0999 V2000
    4.9369    1.8214   16.9846 H   0  0  0  0  0  0  0  0  0  0  0  0
    5.4044    1.3049   17.8208 C   0  0  0  0  0  0  0  0  0  0  0  0
    6.5681    0.6861   17.5730 N   0  0  0  0  0  0  0  0  0  0  0  0
    7.1691    0.0666   18.5989 C   0  0  0  0  0  0  0  0  0  0  0  0
    8.1210   -0.4090   18.3576 H   0  0  0  0  0  0  0  0  0  0  0  0
    6.6473   -0.0014   19.9061 C   0  0  0  0  0  0  0  0  0  0  0  0
    7.4147   -0.7207   21.0144 C   0  0  0  0  0  0  0  0  0  0  0  0
    6.8221   -0.7360   21.9373 H   0  0  0  0  0  0  0  0  0  0  0  0
    7.5703   -1.7684   20.7402 H   0  0  0  0  0  0  0  0  0  0  0  0
    8.7369   -0.1628   21.3207 N   0  0  0  0  0  0  0  0  0  0  0  0
    9.9478   -0.6603   20.9245 C   0  0  0  0  0  0  0  0  0  0  0  0
   10.0397   -1.6395   20.4697 H   0  0  0  0  0  0  0  0  0  0  0  0
   10.9413    0.1408   21.2062 N   0  0  0  0  0  0  0  0  0  0  0  0
   10.3631    1.2187   21.8213 C   0  0  0  0  0  0  0  0  0  0  0  0
   10.9536    2.0944   22.0732 H   0  0  0  0  0  0  0  0  0  0  0  0
    9.0094    1.0319   21.9660 C   0  0  0  0  0  0  0  0  0  0  0  0
    7.9531    1.9414   22.5198 C   0  0  0  0  0  0  0  0  0  0  0  0
    7.0430    1.3548   22.7165 H   0  0  0  0  0  0  0  0  0  0  0  0
    7.6542    2.9941   21.4451 C   0  0  0  0  0  0  0  0  0  0  0  0
    7.2411    2.4842   20.5704 H   0  0  0  0  0  0  0  0  0  0  0  0
    8.6244    3.4155   21.1637 H   0  0  0  0  0  0  0  0  0  0  0  0
    6.7926    4.1774   21.8779 C   0  0  0  0  0  0  0  0  0  0  0  0
    6.8274    4.9696   21.1157 H   0  0  0  0  0  0  0  0  0  0  0  0
    5.7420    3.8774   21.9536 H   0  0  0  0  0  0  0  0  0  0  0  0
    7.2093    4.7589   23.1533 N   0  0  0  0  0  0  0  0  0  0  0  0
    8.1160    5.2079   23.0145 H   0  0  0  0  0  0  0  0  0  0  0  0
    7.3501    3.7396   24.1944 C   0  0  0  0  0  0  0  0  0  0  0  0
    7.6321    4.2342   25.1286 H   0  0  0  0  0  0  0  0  0  0  0  0
    6.3572    3.3010   24.3859 H   0  0  0  0  0  0  0  0  0  0  0  0
    8.3562    2.6380   23.8288 C   0  0  0  0  0  0  0  0  0  0  0  0
    9.3495    3.0878   23.6862 H   0  0  0  0  0  0  0  0  0  0  0  0
    8.4338    1.9157   24.6487 H   0  0  0  0  0  0  0  0  0  0  0  0
    5.4159    0.6304   20.1271 C   0  0  0  0  0  0  0  0  0  0  0  0
    4.9516    0.6294   21.1153 H   0  0  0  0  0  0  0  0  0  0  0  0
    4.7882    1.3064   19.0744 C   0  0  0  0  0  0  0  0  0  0  0  0
    3.8533    1.8395   19.2153 H   0  0  0  0  0  0  0  0  0  0  0  0
  1  2  1  0
  2  3  2  0
  3  4  1  0
  4  5  1  0
  4  6  2  0
  6  7  1  0
  7  8  1  0
  7  9  1  0
  7 10  1  0
 10 11  1  0
 11 12  1  0
 11 13  2  0
 13 14  1  0
 14 15  1  0
 14 16  2  0
 16 17  1  0
 17 18  1  0
 17 19  1  0
 19 20  1  0
 19 21  1  0
 19 22  1  0
 22 23  1  0
 22 24  1  0
 22 25  1  0
 25 26  1  0
 25 27  1  0
 27 28  1  0
 27 29  1  0
 27 30  1  0
 30 31  1  0
 30 32  1  0
  6 33  1  0
 33 34  1  0
 33 35  2  0
 35 36  1  0
 35  2  1  0
 16 10  1  0
 30 17  1  0
M  END
>  <cnnaffinity>  (1) 
-4.41503

>  <filename>  (1) 
c1cncc(Cn2cncc2C2CCNCC2)c1

$$$$
