
     RDKit          3D

 33 36  0  0  0  0  0  0  0  0999 V2000
    4.9893    1.7822   16.9998 H   0  0  0  0  0  0  0  0  0  0  0  0
    5.4435    1.2705   17.8467 C   0  0  0  0  0  0  0  0  0  0  0  0
    6.6040    0.6392   17.6132 N   0  0  0  0  0  0  0  0  0  0  0  0
    7.1951    0.0308   18.6491 C   0  0  0  0  0  0  0  0  0  0  0  0
    8.1388   -0.4676   18.4248 H   0  0  0  0  0  0  0  0  0  0  0  0
    6.6812    0.0027   19.9685 C   0  0  0  0  0  0  0  0  0  0  0  0
    7.3632   -0.6268   21.0195 N   0  0  0  0  0  0  0  0  0  0  0  0
    6.8612   -0.6602   22.2721 N   0  0  0  0  0  0  0  0  0  0  0  0
    7.6946   -1.3060   23.0482 C   0  0  0  0  0  0  0  0  0  0  0  0
    7.5248   -1.5582   24.4818 C   0  0  0  0  0  0  0  0  0  0  0  0
    8.3274   -2.3941   25.2073 C   0  0  0  0  0  0  0  0  0  0  0  0
    9.2152   -2.9174   24.8686 H   0  0  0  0  0  0  0  0  0  0  0  0
    7.8245   -2.6489   26.8363 S   0  0  0  0  0  0  0  0  0  0  0  0
    6.4638   -1.5768   26.6196 C   0  0  0  0  0  0  0  0  0  0  0  0
    5.4327   -1.3088   27.5394 C   0  0  0  0  0  0  0  0  0  0  0  0
    5.4369   -1.7652   28.5264 H   0  0  0  0  0  0  0  0  0  0  0  0
    4.3614   -0.5172   27.1333 C   0  0  0  0  0  0  0  0  0  0  0  0
    3.5115   -0.3799   27.7961 H   0  0  0  0  0  0  0  0  0  0  0  0
    4.3609    0.0886   25.8569 C   0  0  0  0  0  0  0  0  0  0  0  0
    3.5296    0.7218   25.5603 H   0  0  0  0  0  0  0  0  0  0  0  0
    5.4054   -0.1269   24.9728 C   0  0  0  0  0  0  0  0  0  0  0  0
    5.4242    0.3453   23.9945 H   0  0  0  0  0  0  0  0  0  0  0  0
    6.4434   -1.0270   25.3169 C   0  0  0  0  0  0  0  0  0  0  0  0
    8.8932   -1.8240   22.2802 C   0  0  0  0  0  0  0  0  0  0  0  0
    9.8367   -1.4898   22.7216 H   0  0  0  0  0  0  0  0  0  0  0  0
    8.9114   -2.9213   22.2513 H   0  0  0  0  0  0  0  0  0  0  0  0
    8.6663   -1.2435   20.8799 C   0  0  0  0  0  0  0  0  0  0  0  0
    8.6280   -2.0153   20.1101 H   0  0  0  0  0  0  0  0  0  0  0  0
    9.4340   -0.5148   20.5733 H   0  0  0  0  0  0  0  0  0  0  0  0
    5.4470    0.6433   20.1812 C   0  0  0  0  0  0  0  0  0  0  0  0
    5.0040    0.6301   21.1758 H   0  0  0  0  0  0  0  0  0  0  0  0
    4.8320    1.2862   19.1060 C   0  0  0  0  0  0  0  0  0  0  0  0
    3.8948    1.8096   19.2386 H   0  0  0  0  0  0  0  0  0  0  0  0
  1  2  1  0
  2  3  2  0
  3  4  1  0
  4  5  1  0
  4  6  2  0
  6  7  1  0
  7  8  1  0
  8  9  2  0
  9 10  1  0
 10 11  2  0
 11 12  1  0
 11 13  1  0
 13 14  1  0
 14 15  2  0
 15 16  1  0
 15 17  1  0
 17 18  1  0
 17 19  2  0
 19 20  1  0
 19 21  1  0
 21 22  1  0
 21 23  2  0
  9 24  1  0
 24 25  1  0
 24 26  1  0
 24 27  1  0
 27 28  1  0
 27 29  1  0
  6 30  1  0
 30 31  1  0
 30 32  2  0
 32 33  1  0
 32  2  1  0
 27  7  1  0
 23 10  1  0
 23 14  1  0
M  END
>  <cnnaffinity>  (1) 
-5.00507

>  <filename>  (1) 
c1cncc(N2CCC(c3csc4ccccc34)=N2)c1

$$$$
