
     RDKit          3D

 34 37  0  0  0  0  0  0  0  0999 V2000
    4.9103    1.7842   16.9940 H   0  0  0  0  0  0  0  0  0  0  0  0
    5.3956    1.2980   17.8332 C   0  0  0  0  0  0  0  0  0  0  0  0
    6.5616    0.6875   17.5611 N   0  0  0  0  0  0  0  0  0  0  0  0
    7.1647    0.0629   18.5755 C   0  0  0  0  0  0  0  0  0  0  0  0
    8.1202   -0.4152   18.3581 H   0  0  0  0  0  0  0  0  0  0  0  0
    6.6512    0.0042   19.8830 C   0  0  0  0  0  0  0  0  0  0  0  0
    7.3810   -0.6824   20.9467 C   0  0  0  0  0  0  0  0  0  0  0  0
    7.6867   -0.2568   22.2205 C   0  0  0  0  0  0  0  0  0  0  0  0
    7.3652    1.0644   22.8568 C   0  0  0  0  0  0  0  0  0  0  0  0
    7.2356    1.8377   22.0899 H   0  0  0  0  0  0  0  0  0  0  0  0
    8.2117    1.3901   23.4747 H   0  0  0  0  0  0  0  0  0  0  0  0
    6.1317    1.0462   23.7181 C   0  0  0  0  0  0  0  0  0  0  0  0
    5.9747   -0.1247   25.0044 S   0  0  0  0  0  0  0  0  0  0  0  0
    4.4203    0.5260   25.4633 C   0  0  0  0  0  0  0  0  0  0  0  0
    3.5752    0.1036   26.5016 C   0  0  0  0  0  0  0  0  0  0  0  0
    3.8593   -0.7286   27.1415 H   0  0  0  0  0  0  0  0  0  0  0  0
    2.3714    0.7797   26.6900 C   0  0  0  0  0  0  0  0  0  0  0  0
    1.7006    0.4732   27.4898 H   0  0  0  0  0  0  0  0  0  0  0  0
    2.0023    1.8657   25.8584 C   0  0  0  0  0  0  0  0  0  0  0  0
    1.0598    2.3826   26.0222 H   0  0  0  0  0  0  0  0  0  0  0  0
    2.8402    2.2796   24.8344 C   0  0  0  0  0  0  0  0  0  0  0  0
    2.5877    3.1131   24.1795 H   0  0  0  0  0  0  0  0  0  0  0  0
    4.0614    1.6089   24.6321 C   0  0  0  0  0  0  0  0  0  0  0  0
    5.0647    1.8757   23.6463 C   0  0  0  0  0  0  0  0  0  0  0  0
    4.9699    2.6742   22.9174 H   0  0  0  0  0  0  0  0  0  0  0  0
    8.3934   -1.3343   22.7834 C   0  0  0  0  0  0  0  0  0  0  0  0
    8.7931   -1.3703   23.7831 H   0  0  0  0  0  0  0  0  0  0  0  0
    8.5402   -2.3483   21.9414 N   0  0  0  0  0  0  0  0  0  0  0  0
    7.9273   -1.9164   20.8274 N   0  0  0  0  0  0  0  0  0  0  0  0
    7.8730   -2.4966   20.0064 H   0  0  0  0  0  0  0  0  0  0  0  0
    5.4367    0.6553   20.1483 C   0  0  0  0  0  0  0  0  0  0  0  0
    5.0112    0.6256   21.1560 H   0  0  0  0  0  0  0  0  0  0  0  0
    4.7992    1.3149   19.0998 C   0  0  0  0  0  0  0  0  0  0  0  0
    3.8684    1.8467   19.2599 H   0  0  0  0  0  0  0  0  0  0  0  0
  1  2  1  0
  2  3  2  0
  3  4  1  0
  4  5  1  0
  4  6  2  0
  6  7  1  0
  7  8  2  0
  8  9  1  0
  9 10  1  0
  9 11  1  0
  9 12  1  0
 12 13  1  0
 13 14  1  0
 14 15  2  0
 15 16  1  0
 15 17  1  0
 17 18  1  0
 17 19  2  0
 19 20  1  0
 19 21  1  0
 21 22  1  0
 21 23  2  0
 23 24  1  0
 24 25  1  0
  8 26  1  0
 26 27  1  0
 26 28  2  0
 28 29  1  0
 29 30  1  0
  6 31  1  0
 31 32  1  0
 31 33  2  0
 33 34  1  0
 33  2  1  0
 29  7  1  0
 24 12  2  0
 23 14  1  0
M  END
>  <cnnaffinity>  (1) 
-5.27375

>  <filename>  (1) 
c1cncc(-c2[nH]ncc2Cc2cc3ccccc3s2)c1

$$$$
