
     RDKit          3D

 35 38  0  0  0  0  0  0  0  0999 V2000
    5.0804    1.8328   16.8726 H   0  0  0  0  0  0  0  0  0  0  0  0
    5.4775    1.3175   17.7444 C   0  0  0  0  0  0  0  0  0  0  0  0
    6.6248    0.6440   17.5629 N   0  0  0  0  0  0  0  0  0  0  0  0
    7.1278   -0.0289   18.6043 C   0  0  0  0  0  0  0  0  0  0  0  0
    8.0584   -0.5644   18.4175 H   0  0  0  0  0  0  0  0  0  0  0  0
    6.5269   -0.0493   19.8754 C   0  0  0  0  0  0  0  0  0  0  0  0
    7.1375   -0.7668   20.9988 C   0  0  0  0  0  0  0  0  0  0  0  0
    7.7237   -1.9562   20.8510 N   0  0  0  0  0  0  0  0  0  0  0  0
    8.0812   -2.2741   22.0939 N   0  0  0  0  0  0  0  0  0  0  0  0
    7.7690   -1.3654   23.0241 C   0  0  0  0  0  0  0  0  0  0  0  0
    7.1679   -0.3148   22.3498 C   0  0  0  0  0  0  0  0  0  0  0  0
    6.8766    1.0785   22.8779 C   0  0  0  0  0  0  0  0  0  0  0  0
    6.8106    1.7825   22.0382 H   0  0  0  0  0  0  0  0  0  0  0  0
    5.9191    1.1088   23.4234 H   0  0  0  0  0  0  0  0  0  0  0  0
    7.9334    1.5514   23.8318 C   0  0  0  0  0  0  0  0  0  0  0  0
    9.5257    1.9516   23.2949 S   0  0  0  0  0  0  0  0  0  0  0  0
   10.0882    2.1336   24.9117 C   0  0  0  0  0  0  0  0  0  0  0  0
   11.1375    2.3443   25.0731 H   0  0  0  0  0  0  0  0  0  0  0  0
    9.0901    1.9198   25.8174 C   0  0  0  0  0  0  0  0  0  0  0  0
    9.1989    1.9585   26.8918 H   0  0  0  0  0  0  0  0  0  0  0  0
    7.8545    1.5857   25.1910 C   0  0  0  0  0  0  0  0  0  0  0  0
    6.9397    1.3387   25.7247 H   0  0  0  0  0  0  0  0  0  0  0  0
    8.4142   -1.7606   24.3288 C   0  0  0  0  0  0  0  0  0  0  0  0
    9.2502   -1.0843   24.5261 H   0  0  0  0  0  0  0  0  0  0  0  0
    7.7380   -1.7153   25.1835 H   0  0  0  0  0  0  0  0  0  0  0  0
    8.8995   -3.2104   24.0601 C   0  0  0  0  0  0  0  0  0  0  0  0
    9.8764   -3.4210   24.5041 H   0  0  0  0  0  0  0  0  0  0  0  0
    8.1902   -3.9299   24.4757 H   0  0  0  0  0  0  0  0  0  0  0  0
    8.9255   -3.3678   22.5251 C   0  0  0  0  0  0  0  0  0  0  0  0
    9.9283   -3.2299   22.1117 H   0  0  0  0  0  0  0  0  0  0  0  0
    8.5091   -4.3205   22.1929 H   0  0  0  0  0  0  0  0  0  0  0  0
    5.3203    0.6523   20.0409 C   0  0  0  0  0  0  0  0  0  0  0  0
    4.8223    0.6701   21.0102 H   0  0  0  0  0  0  0  0  0  0  0  0
    4.7836    1.3411   18.9576 C   0  0  0  0  0  0  0  0  0  0  0  0
    3.8578    1.8989   19.0488 H   0  0  0  0  0  0  0  0  0  0  0  0
  1  2  1  0
  2  3  2  0
  3  4  1  0
  4  5  1  0
  4  6  2  0
  6  7  1  0
  7  8  2  0
  8  9  1  0
  9 10  1  0
 10 11  2  0
 11 12  1  0
 12 13  1  0
 12 14  1  0
 12 15  1  0
 15 16  1  0
 16 17  1  0
 17 18  1  0
 17 19  2  0
 19 20  1  0
 19 21  1  0
 21 22  1  0
 10 23  1  0
 23 24  1  0
 23 25  1  0
 23 26  1  0
 26 27  1  0
 26 28  1  0
 26 29  1  0
 29 30  1  0
 29 31  1  0
  6 32  1  0
 32 33  1  0
 32 34  2  0
 34 35  1  0
 34  2  1  0
 11  7  1  0
 21 15  2  0
 29  9  1  0
M  END
>  <cnnaffinity>  (1) 
-5.54432

>  <filename>  (1) 
c1cncc(-c2nn3c(c2Cc2cccs2)CCC3)c1

$$$$
