
     RDKit          3D

 36 39  0  0  0  0  0  0  0  0999 V2000
    4.9265    1.8200   16.9580 H   0  0  0  0  0  0  0  0  0  0  0  0
    5.3815    1.3109   17.8074 C   0  0  0  0  0  0  0  0  0  0  0  0
    6.5376    0.6770   17.5595 N   0  0  0  0  0  0  0  0  0  0  0  0
    7.1349    0.0628   18.5914 C   0  0  0  0  0  0  0  0  0  0  0  0
    8.0824   -0.4225   18.3669 H   0  0  0  0  0  0  0  0  0  0  0  0
    6.6201    0.0143   19.9031 C   0  0  0  0  0  0  0  0  0  0  0  0
    7.3488   -0.6926   20.9785 C   0  0  0  0  0  0  0  0  0  0  0  0
    8.6820   -0.6508   21.3337 C   0  0  0  0  0  0  0  0  0  0  0  0
    9.7850    0.1909   20.7548 C   0  0  0  0  0  0  0  0  0  0  0  0
    9.3981    0.8290   19.9546 H   0  0  0  0  0  0  0  0  0  0  0  0
   10.5075   -0.5016   20.3070 H   0  0  0  0  0  0  0  0  0  0  0  0
   10.4839    1.0381   21.7817 C   0  0  0  0  0  0  0  0  0  0  0  0
   11.7180    0.6667   22.2644 C   0  0  0  0  0  0  0  0  0  0  0  0
   12.2423   -0.1983   21.8542 H   0  0  0  0  0  0  0  0  0  0  0  0
   12.3927    1.3093   23.2553 N   0  0  0  0  0  0  0  0  0  0  0  0
   11.8192    2.3676   23.7813 C   0  0  0  0  0  0  0  0  0  0  0  0
   12.3679    2.8685   24.5709 H   0  0  0  0  0  0  0  0  0  0  0  0
   10.5497    2.8864   23.3925 C   0  0  0  0  0  0  0  0  0  0  0  0
    9.9661    4.0348   24.0078 C   0  0  0  0  0  0  0  0  0  0  0  0
   10.5197    4.5521   24.7908 H   0  0  0  0  0  0  0  0  0  0  0  0
    8.7290    4.4763   23.6144 C   0  0  0  0  0  0  0  0  0  0  0  0
    8.2942    5.3533   24.0860 H   0  0  0  0  0  0  0  0  0  0  0  0
    8.0136    3.7974   22.5906 C   0  0  0  0  0  0  0  0  0  0  0  0
    7.0392    4.1761   22.2925 H   0  0  0  0  0  0  0  0  0  0  0  0
    8.5545    2.6837   21.9777 C   0  0  0  0  0  0  0  0  0  0  0  0
    7.9922    2.1577   21.2076 H   0  0  0  0  0  0  0  0  0  0  0  0
    9.8470    2.1935   22.3581 C   0  0  0  0  0  0  0  0  0  0  0  0
    8.7979   -1.5529   22.4185 C   0  0  0  0  0  0  0  0  0  0  0  0
    9.6859   -1.7931   22.9934 H   0  0  0  0  0  0  0  0  0  0  0  0
    7.6339   -2.1116   22.7213 N   0  0  0  0  0  0  0  0  0  0  0  0
    6.7715   -1.5627   21.8473 N   0  0  0  0  0  0  0  0  0  0  0  0
    5.7955   -1.8226   21.8836 H   0  0  0  0  0  0  0  0  0  0  0  0
    5.3986    0.6685   20.1305 C   0  0  0  0  0  0  0  0  0  0  0  0
    4.9697    0.6694   21.1327 H   0  0  0  0  0  0  0  0  0  0  0  0
    4.7762    1.3309   19.0705 C   0  0  0  0  0  0  0  0  0  0  0  0
    3.8462    1.8712   19.2085 H   0  0  0  0  0  0  0  0  0  0  0  0
  1  2  1  0
  2  3  2  0
  3  4  1  0
  4  5  1  0
  4  6  2  0
  6  7  1  0
  7  8  2  0
  8  9  1  0
  9 10  1  0
  9 11  1  0
  9 12  1  0
 12 13  2  0
 13 14  1  0
 13 15  1  0
 15 16  2  0
 16 17  1  0
 16 18  1  0
 18 19  2  0
 19 20  1  0
 19 21  1  0
 21 22  1  0
 21 23  2  0
 23 24  1  0
 23 25  1  0
 25 26  1  0
 25 27  2  0
  8 28  1  0
 28 29  1  0
 28 30  2  0
 30 31  1  0
 31 32  1  0
  6 33  1  0
 33 34  1  0
 33 35  2  0
 35 36  1  0
 35  2  1  0
 31  7  1  0
 27 12  1  0
 27 18  1  0
M  END
>  <cnnaffinity>  (1) 
-5.64529

>  <filename>  (1) 
c1cncc(-c2[nH]ncc2Cc2cncc3ccccc23)c1

$$$$
