
     RDKit          3D

 45 48  0  0  0  0  0  0  0  0999 V2000
    4.8125    1.3075   19.1109 C   0  0  0  0  0  0  0  0  0  0  0  0
    5.3990    1.2962   17.8388 C   0  0  0  0  0  0  0  0  0  0  0  0
    6.5564    0.6707   17.5749 N   0  0  0  0  0  0  0  0  0  0  0  0
    7.1625    0.0453   18.5903 C   0  0  0  0  0  0  0  0  0  0  0  0
    6.6525   -0.0047   19.9000 C   0  0  0  0  0  0  0  0  0  0  0  0
    7.3576   -0.6982   20.9261 N   0  0  0  0  0  0  0  0  0  0  0  0
    6.7415   -1.6760   21.6373 N   0  0  0  0  0  0  0  0  0  0  0  0
    7.6905   -2.0840   22.4629 C   0  0  0  0  0  0  0  0  0  0  0  0
    7.4633   -3.1689   23.4568 C   0  0  0  0  0  0  0  0  0  0  0  0
    6.9614   -4.4999   22.8539 C   0  0  0  0  0  0  0  0  0  0  0  0
    6.1394   -5.1133   23.9912 C   0  0  0  0  0  0  0  0  0  0  0  0
    5.8064   -4.0564   24.8776 O   0  0  0  0  0  0  0  0  0  0  0  0
    6.3687   -2.8228   24.4823 C   0  0  0  0  0  0  0  0  0  0  0  0
    5.5973   -2.1728   24.0458 H   0  0  0  0  0  0  0  0  0  0  0  0
    6.7589   -2.3202   25.3774 H   0  0  0  0  0  0  0  0  0  0  0  0
    5.2156   -5.5863   23.6292 H   0  0  0  0  0  0  0  0  0  0  0  0
    6.7039   -5.8729   24.5507 H   0  0  0  0  0  0  0  0  0  0  0  0
    6.3272   -4.2925   21.9844 H   0  0  0  0  0  0  0  0  0  0  0  0
    7.7772   -5.1523   22.5304 H   0  0  0  0  0  0  0  0  0  0  0  0
    8.4085   -3.3191   23.9806 H   0  0  0  0  0  0  0  0  0  0  0  0
    8.8675   -1.4304   22.3499 N   0  0  0  0  0  0  0  0  0  0  0  0
    8.6277   -0.5398   21.3996 C   0  0  0  0  0  0  0  0  0  0  0  0
    9.5729    0.5292   20.9675 C   0  0  0  0  0  0  0  0  0  0  0  0
    9.6822    1.7342   21.9292 C   0  0  0  0  0  0  0  0  0  0  0  0
   10.1587    1.3313   23.3328 C   0  0  0  0  0  0  0  0  0  0  0  0
   10.3465    2.5759   24.2194 C   0  0  0  0  0  0  0  0  0  0  0  0
    9.3114    3.6705   23.8664 C   0  0  0  0  0  0  0  0  0  0  0  0
    8.1352    3.1111   23.3151 O   0  0  0  0  0  0  0  0  0  0  0  0
    8.3591    2.5499   22.0299 C   0  0  0  0  0  0  0  0  0  0  0  0
    7.4724    1.9381   21.8260 H   0  0  0  0  0  0  0  0  0  0  0  0
    8.3734    3.3566   21.2820 H   0  0  0  0  0  0  0  0  0  0  0  0
    9.7478    4.3861   23.1478 H   0  0  0  0  0  0  0  0  0  0  0  0
    9.0026    4.2344   24.7492 H   0  0  0  0  0  0  0  0  0  0  0  0
   10.2420    2.2855   25.2698 H   0  0  0  0  0  0  0  0  0  0  0  0
   11.3536    2.9908   24.0943 H   0  0  0  0  0  0  0  0  0  0  0  0
   11.0805    0.7441   23.2635 H   0  0  0  0  0  0  0  0  0  0  0  0
    9.4208    0.6603   23.7868 H   0  0  0  0  0  0  0  0  0  0  0  0
   10.4410    2.4097   21.4977 H   0  0  0  0  0  0  0  0  0  0  0  0
   10.5509    0.0488   20.8739 H   0  0  0  0  0  0  0  0  0  0  0  0
    9.2983    0.8814   19.9734 H   0  0  0  0  0  0  0  0  0  0  0  0
    5.4394    0.6360   20.1676 C   0  0  0  0  0  0  0  0  0  0  0  0
    5.0151    0.6121   21.1768 H   0  0  0  0  0  0  0  0  0  0  0  0
    8.1094   -0.4376   18.3622 H   0  0  0  0  0  0  0  0  0  0  0  0
    4.9205    1.7876   16.9947 H   0  0  0  0  0  0  0  0  0  0  0  0
    3.8816    1.8389   19.2622 H   0  0  0  0  0  0  0  0  0  0  0  0
  1  2  2  0
  2  3  1  0
  3  4  2  0
  4  5  1  0
  5  6  1  0
  6  7  1  0
  7  8  2  0
  8  9  1  0
  9 10  1  0
 10 11  1  0
 11 12  1  0
 12 13  1  0
 13 14  1  0
 13 15  1  0
 11 16  1  0
 11 17  1  0
 10 18  1  0
 10 19  1  0
  9 20  1  0
  8 21  1  0
 21 22  2  0
 22 23  1  0
 23 24  1  0
 24 25  1  0
 25 26  1  0
 26 27  1  0
 27 28  1  0
 28 29  1  0
 29 30  1  0
 29 31  1  0
 27 32  1  0
 27 33  1  0
 26 34  1  0
 26 35  1  0
 25 36  1  0
 25 37  1  0
 24 38  1  0
 23 39  1  0
 23 40  1  0
  5 41  2  0
 41 42  1  0
  4 43  1  0
  2 44  1  0
  1 45  1  0
 41  1  1  0
 22  6  1  0
 29 24  1  0
 13  9  1  0
M  END
>  <cnnaffinity>  (1) 
-5.77466

>  <filename>  (1) 
c1cncc(-n2nc(C3CCOC3)nc2CC2CCCOC2)c1

$$$$
