
     RDKit          3D

 47 50  0  0  0  0  0  0  0  0999 V2000
    4.9425    1.8072   16.9760 H   0  0  0  0  0  0  0  0  0  0  0  0
    5.4014    1.2901   17.8160 C   0  0  0  0  0  0  0  0  0  0  0  0
    6.5615    0.6635   17.5615 N   0  0  0  0  0  0  0  0  0  0  0  0
    7.1608    0.0330   18.5754 C   0  0  0  0  0  0  0  0  0  0  0  0
    8.1122   -0.4426   18.3354 H   0  0  0  0  0  0  0  0  0  0  0  0
    6.6374   -0.0078   19.8841 C   0  0  0  0  0  0  0  0  0  0  0  0
    7.3689   -0.6548   20.9784 C   0  0  0  0  0  0  0  0  0  0  0  0
    8.2573   -1.6265   20.7471 N   0  0  0  0  0  0  0  0  0  0  0  0
    8.7237   -1.9180   21.9543 N   0  0  0  0  0  0  0  0  0  0  0  0
    8.2233   -1.2062   22.9671 C   0  0  0  0  0  0  0  0  0  0  0  0
    7.3206   -0.3401   22.3781 C   0  0  0  0  0  0  0  0  0  0  0  0
    6.5940    0.6691   22.9200 O   0  0  0  0  0  0  0  0  0  0  0  0
    6.7217    0.8343   24.3245 C   0  0  0  0  0  0  0  0  0  0  0  0
    6.4201   -0.0936   24.8316 H   0  0  0  0  0  0  0  0  0  0  0  0
    7.7684    1.0496   24.5885 H   0  0  0  0  0  0  0  0  0  0  0  0
    5.8145    1.9929   24.7228 C   0  0  0  0  0  0  0  0  0  0  0  0
    4.7950    1.7603   24.3826 H   0  0  0  0  0  0  0  0  0  0  0  0
    6.1314    2.8863   24.1643 H   0  0  0  0  0  0  0  0  0  0  0  0
    5.7855    2.3006   26.1514 N   0  0  0  0  0  0  0  0  0  0  0  0
    7.0482    2.8103   26.6914 C   0  0  0  0  0  0  0  0  0  0  0  0
    7.8328    2.0235   26.7578 H   0  0  0  0  0  0  0  0  0  0  0  0
    7.4245    3.5823   26.0052 H   0  0  0  0  0  0  0  0  0  0  0  0
    6.8248    3.3997   28.0890 C   0  0  0  0  0  0  0  0  0  0  0  0
    6.1619    4.2726   28.0051 H   0  0  0  0  0  0  0  0  0  0  0  0
    7.7811    3.7590   28.4787 H   0  0  0  0  0  0  0  0  0  0  0  0
    6.2027    2.3566   29.0337 C   0  0  0  0  0  0  0  0  0  0  0  0
    6.9271    1.5471   29.2226 H   0  0  0  0  0  0  0  0  0  0  0  0
    5.9866    2.7989   30.0143 H   0  0  0  0  0  0  0  0  0  0  0  0
    4.9262    1.7735   28.4013 C   0  0  0  0  0  0  0  0  0  0  0  0
    4.5221    0.9547   29.0102 H   0  0  0  0  0  0  0  0  0  0  0  0
    4.1522    2.5521   28.3428 H   0  0  0  0  0  0  0  0  0  0  0  0
    5.2081    1.2458   26.9885 C   0  0  0  0  0  0  0  0  0  0  0  0
    5.8731    0.3574   27.0723 H   0  0  0  0  0  0  0  0  0  0  0  0
    4.2762    0.9093   26.5122 H   0  0  0  0  0  0  0  0  0  0  0  0
    8.9354   -1.5427   24.2496 C   0  0  0  0  0  0  0  0  0  0  0  0
    9.4739   -0.6564   24.6121 H   0  0  0  0  0  0  0  0  0  0  0  0
    8.2514   -1.8512   25.0509 H   0  0  0  0  0  0  0  0  0  0  0  0
    9.9078   -2.6823   23.8248 C   0  0  0  0  0  0  0  0  0  0  0  0
   10.9375   -2.4192   24.0409 H   0  0  0  0  0  0  0  0  0  0  0  0
    9.7014   -3.6171   24.3429 H   0  0  0  0  0  0  0  0  0  0  0  0
    9.7039   -2.9057   22.3037 C   0  0  0  0  0  0  0  0  0  0  0  0
    9.2854   -3.8942   22.1039 H   0  0  0  0  0  0  0  0  0  0  0  0
   10.6027   -2.7502   21.7044 H   0  0  0  0  0  0  0  0  0  0  0  0
    5.4208    0.6504   20.1274 C   0  0  0  0  0  0  0  0  0  0  0  0
    5.0098    0.6619   21.1364 H   0  0  0  0  0  0  0  0  0  0  0  0
    4.7917    1.3041   19.0752 C   0  0  0  0  0  0  0  0  0  0  0  0
    3.8629    1.8463   19.2245 H   0  0  0  0  0  0  0  0  0  0  0  0
  1  2  1  0
  2  3  2  0
  3  4  1  0
  4  5  1  0
  4  6  2  0
  6  7  1  0
  7  8  2  0
  8  9  1  0
  9 10  1  0
 10 11  2  0
 11 12  1  0
 12 13  1  0
 13 14  1  0
 13 15  1  0
 13 16  1  0
 16 17  1  0
 16 18  1  0
 16 19  1  0
 19 20  1  0
 20 21  1  0
 20 22  1  0
 20 23  1  0
 23 24  1  0
 23 25  1  0
 23 26  1  0
 26 27  1  0
 26 28  1  0
 26 29  1  0
 29 30  1  0
 29 31  1  0
 29 32  1  0
 32 33  1  0
 32 34  1  0
 10 35  1  0
 35 36  1  0
 35 37  1  0
 35 38  1  0
 38 39  1  0
 38 40  1  0
 38 41  1  0
 41 42  1  0
 41 43  1  0
  6 44  1  0
 44 45  1  0
 44 46  2  0
 46 47  1  0
 46  2  1  0
 11  7  1  0
 32 19  1  0
 41  9  1  0
M  END
>  <cnnaffinity>  (1) 
-5.4451

>  <filename>  (1) 
c1cncc(-c2nn3c(c2OCCN2CCCCC2)CCC3)c1

$$$$
