
     RDKit          3D

 32 35  0  0  0  0  0  0  0  0999 V2000
    5.0265    1.7266   16.9977 H   0  0  0  0  0  0  0  0  0  0  0  0
    5.4526    1.2899   17.8997 C   0  0  0  0  0  0  0  0  0  0  0  0
    6.6186    0.6437   17.7424 N   0  0  0  0  0  0  0  0  0  0  0  0
    7.1646    0.0858   18.8250 C   0  0  0  0  0  0  0  0  0  0  0  0
    8.1059   -0.4415   18.6683 H   0  0  0  0  0  0  0  0  0  0  0  0
    6.6023    0.1516   20.1206 C   0  0  0  0  0  0  0  0  0  0  0  0
    7.2409   -0.5515   21.1869 N   0  0  0  0  0  0  0  0  0  0  0  0
    7.5014   -0.2138   22.5124 C   0  0  0  0  0  0  0  0  0  0  0  0
    7.0193    1.0076   23.2026 C   0  0  0  0  0  0  0  0  0  0  0  0
    6.1925    0.8574   24.3262 C   0  0  0  0  0  0  0  0  0  0  0  0
    5.9561   -0.1498   24.6712 H   0  0  0  0  0  0  0  0  0  0  0  0
    5.6822    1.9739   25.0139 C   0  0  0  0  0  0  0  0  0  0  0  0
    5.0466    1.8132   25.8831 H   0  0  0  0  0  0  0  0  0  0  0  0
    5.9948    3.2718   24.6238 C   0  0  0  0  0  0  0  0  0  0  0  0
    5.6488    4.1389   25.1846 H   0  0  0  0  0  0  0  0  0  0  0  0
    6.8091    3.4289   23.4920 C   0  0  0  0  0  0  0  0  0  0  0  0
    7.3425    2.3268   22.7714 C   0  0  0  0  0  0  0  0  0  0  0  0
    8.1450    2.8920   21.7180 C   0  0  0  0  0  0  0  0  0  0  0  0
    8.7140    2.3188   20.9994 H   0  0  0  0  0  0  0  0  0  0  0  0
    8.0511    4.2551   21.8130 C   0  0  0  0  0  0  0  0  0  0  0  0
    8.4432    5.0555   21.1978 H   0  0  0  0  0  0  0  0  0  0  0  0
    7.2629    4.5773   22.8932 N   0  0  0  0  0  0  0  0  0  0  0  0
    7.0010    5.5169   23.1469 H   0  0  0  0  0  0  0  0  0  0  0  0
    8.1225   -1.1949   23.1289 N   0  0  0  0  0  0  0  0  0  0  0  0
    8.2691   -2.2014   22.2138 C   0  0  0  0  0  0  0  0  0  0  0  0
    8.7426   -3.1416   22.4710 H   0  0  0  0  0  0  0  0  0  0  0  0
    7.7115   -1.8382   21.0270 C   0  0  0  0  0  0  0  0  0  0  0  0
    7.4867   -2.3701   20.1213 H   0  0  0  0  0  0  0  0  0  0  0  0
    5.3943    0.8425   20.2795 C   0  0  0  0  0  0  0  0  0  0  0  0
    4.9335    0.9165   21.2682 H   0  0  0  0  0  0  0  0  0  0  0  0
    4.8076    1.4074   19.1367 C   0  0  0  0  0  0  0  0  0  0  0  0
    3.8664    1.9421   19.1906 H   0  0  0  0  0  0  0  0  0  0  0  0
  1  2  1  0
  2  3  2  0
  3  4  1  0
  4  5  1  0
  4  6  2  0
  6  7  1  0
  7  8  1  0
  8  9  1  0
  9 10  2  0
 10 11  1  0
 10 12  1  0
 12 13  1  0
 12 14  2  0
 14 15  1  0
 14 16  1  0
 16 17  2  0
 17 18  1  0
 18 19  1  0
 18 20  2  0
 20 21  1  0
 20 22  1  0
 22 23  1  0
  8 24  2  0
 24 25  1  0
 25 26  1  0
 25 27  2  0
 27 28  1  0
  6 29  1  0
 29 30  1  0
 29 31  2  0
 31 32  1  0
 31  2  1  0
 27  7  1  0
 17  9  1  0
 22 16  1  0
M  END
>  <cnnaffinity>  (1) 
-5.22087

>  <filename>  (1) 
c1cncc(-n2ccnc2-c2cccc3[nH]ccc23)c1

$$$$
