
     RDKit          3D

 32 35  0  0  0  0  0  0  0  0999 V2000
    4.9365    1.8198   16.9630 H   0  0  0  0  0  0  0  0  0  0  0  0
    5.4032    1.3102   17.8019 C   0  0  0  0  0  0  0  0  0  0  0  0
    6.5602    0.6809   17.5441 N   0  0  0  0  0  0  0  0  0  0  0  0
    7.1619    0.0609   18.5616 C   0  0  0  0  0  0  0  0  0  0  0  0
    8.0980   -0.4409   18.3170 H   0  0  0  0  0  0  0  0  0  0  0  0
    6.6517    0.0285   19.8673 C   0  0  0  0  0  0  0  0  0  0  0  0
    7.3636   -0.6665   20.9459 C   0  0  0  0  0  0  0  0  0  0  0  0
    6.8553   -0.9311   22.1280 N   0  0  0  0  0  0  0  0  0  0  0  0
    7.8404   -1.6045   22.7821 C   0  0  0  0  0  0  0  0  0  0  0  0
    7.6988   -2.0570   24.1859 C   0  0  0  0  0  0  0  0  0  0  0  0
    6.9197   -1.2775   25.0356 C   0  0  0  0  0  0  0  0  0  0  0  0
    6.3936   -0.4045   24.6505 H   0  0  0  0  0  0  0  0  0  0  0  0
    6.7684   -1.5917   26.4019 C   0  0  0  0  0  0  0  0  0  0  0  0
    6.1577   -0.9660   27.0542 H   0  0  0  0  0  0  0  0  0  0  0  0
    7.3999   -2.6996   26.8944 C   0  0  0  0  0  0  0  0  0  0  0  0
    7.2674   -3.0977   27.8701 H   0  0  0  0  0  0  0  0  0  0  0  0
    8.2104   -3.5260   26.0950 C   0  0  0  0  0  0  0  0  0  0  0  0
    8.7957   -4.5804   26.7492 N   0  0  0  0  0  0  0  0  0  0  0  0
    9.3798   -5.4846   26.0071 C   0  0  0  0  0  0  0  0  0  0  0  0
    9.8222   -6.3276   26.5335 H   0  0  0  0  0  0  0  0  0  0  0  0
    9.4309   -5.4140   24.5878 C   0  0  0  0  0  0  0  0  0  0  0  0
    9.7778   -6.2900   24.0718 H   0  0  0  0  0  0  0  0  0  0  0  0
    8.9857   -4.2874   23.9273 C   0  0  0  0  0  0  0  0  0  0  0  0
    9.1360   -4.1440   22.8576 H   0  0  0  0  0  0  0  0  0  0  0  0
    8.3296   -3.2645   24.6943 C   0  0  0  0  0  0  0  0  0  0  0  0
    8.9449   -1.7547   22.0675 N   0  0  0  0  0  0  0  0  0  0  0  0
    8.6243   -1.1473   20.9004 N   0  0  0  0  0  0  0  0  0  0  0  0
    9.3370   -0.9885   20.2046 H   0  0  0  0  0  0  0  0  0  0  0  0
    5.4255    0.6719   20.1182 C   0  0  0  0  0  0  0  0  0  0  0  0
    4.9928    0.6602   21.1215 H   0  0  0  0  0  0  0  0  0  0  0  0
    4.7965    1.3267   19.0637 C   0  0  0  0  0  0  0  0  0  0  0  0
    3.8611    1.8574   19.2052 H   0  0  0  0  0  0  0  0  0  0  0  0
  1  2  1  0
  2  3  2  0
  3  4  1  0
  4  5  1  0
  4  6  2  0
  6  7  1  0
  7  8  2  0
  8  9  1  0
  9 10  1  0
 10 11  2  0
 11 12  1  0
 11 13  1  0
 13 14  1  0
 13 15  2  0
 15 16  1  0
 15 17  1  0
 17 18  2  0
 18 19  1  0
 19 20  1  0
 19 21  2  0
 21 22  1  0
 21 23  1  0
 23 24  1  0
 23 25  2  0
  9 26  2  0
 26 27  1  0
 27 28  1  0
  6 29  1  0
 29 30  1  0
 29 31  2  0
 31 32  1  0
 31  2  1  0
 27  7  1  0
 25 10  1  0
 25 17  1  0
M  END
>  <cnnaffinity>  (1) 
-5.40028

>  <filename>  (1) 
c1cncc(-c2nc(-c3cccc4ncccc34)n[nH]2)c1

$$$$
