
     RDKit          3D

 37 40  0  0  0  0  0  0  0  0999 V2000
    5.0591    1.8283   16.9150 H   0  0  0  0  0  0  0  0  0  0  0  0
    5.4452    1.2988   17.7854 C   0  0  0  0  0  0  0  0  0  0  0  0
    6.5651    0.5868   17.5877 N   0  0  0  0  0  0  0  0  0  0  0  0
    7.0810   -0.0482   18.6422 C   0  0  0  0  0  0  0  0  0  0  0  0
    7.9660   -0.6513   18.4562 H   0  0  0  0  0  0  0  0  0  0  0  0
    6.5468    0.0152   19.9429 C   0  0  0  0  0  0  0  0  0  0  0  0
    7.2724   -0.6479   21.0388 C   0  0  0  0  0  0  0  0  0  0  0  0
    7.9906   -1.7516   20.8152 N   0  0  0  0  0  0  0  0  0  0  0  0
    8.5184   -2.0259   22.0036 N   0  0  0  0  0  0  0  0  0  0  0  0
    8.2435   -1.1557   22.9814 C   0  0  0  0  0  0  0  0  0  0  0  0
    7.4159   -0.2067   22.4089 C   0  0  0  0  0  0  0  0  0  0  0  0
    6.9484    0.9656   23.0196 N   0  0  0  0  0  0  0  0  0  0  0  0
    7.2154    0.9570   23.9997 H   0  0  0  0  0  0  0  0  0  0  0  0
    7.2869    2.2145   22.3386 C   0  0  0  0  0  0  0  0  0  0  0  0
    7.9872    2.0127   21.5116 H   0  0  0  0  0  0  0  0  0  0  0  0
    6.3841    2.6133   21.8574 H   0  0  0  0  0  0  0  0  0  0  0  0
    7.8771    3.2268   23.2867 C   0  0  0  0  0  0  0  0  0  0  0  0
    7.3147    3.2979   24.2183 H   0  0  0  0  0  0  0  0  0  0  0  0
    8.4562    4.5019   22.7436 C   0  0  0  0  0  0  0  0  0  0  0  0
    8.2621    5.4113   23.3051 H   0  0  0  0  0  0  0  0  0  0  0  0
    8.4878    4.6438   21.6659 H   0  0  0  0  0  0  0  0  0  0  0  0
    9.3659    3.4699   23.3450 C   0  0  0  0  0  0  0  0  0  0  0  0
    9.8253    3.6420   24.3119 H   0  0  0  0  0  0  0  0  0  0  0  0
    9.9844    2.8871   22.6662 H   0  0  0  0  0  0  0  0  0  0  0  0
    9.0997   -1.4531   24.1819 C   0  0  0  0  0  0  0  0  0  0  0  0
    8.5025   -1.5447   25.0906 H   0  0  0  0  0  0  0  0  0  0  0  0
    9.8198   -0.6435   24.3484 H   0  0  0  0  0  0  0  0  0  0  0  0
    9.8055   -2.7905   23.8049 C   0  0  0  0  0  0  0  0  0  0  0  0
    9.4443   -3.6128   24.4223 H   0  0  0  0  0  0  0  0  0  0  0  0
   10.8874   -2.7285   23.9282 H   0  0  0  0  0  0  0  0  0  0  0  0
    9.4534   -3.0707   22.3219 C   0  0  0  0  0  0  0  0  0  0  0  0
   10.3149   -2.9753   21.6638 H   0  0  0  0  0  0  0  0  0  0  0  0
    8.9888   -4.0474   22.1584 H   0  0  0  0  0  0  0  0  0  0  0  0
    5.3504    0.7312   20.1256 C   0  0  0  0  0  0  0  0  0  0  0  0
    4.8777    0.7861   21.1081 H   0  0  0  0  0  0  0  0  0  0  0  0
    4.7918    1.3789   19.0194 C   0  0  0  0  0  0  0  0  0  0  0  0
    3.8813    1.9613   19.1007 H   0  0  0  0  0  0  0  0  0  0  0  0
  1  2  1  0
  2  3  2  0
  3  4  1  0
  4  5  1  0
  4  6  2  0
  6  7  1  0
  7  8  2  0
  8  9  1  0
  9 10  1  0
 10 11  2  0
 11 12  1  0
 12 13  1  0
 12 14  1  0
 14 15  1  0
 14 16  1  0
 14 17  1  0
 17 18  1  0
 17 19  1  0
 19 20  1  0
 19 21  1  0
 19 22  1  0
 22 23  1  0
 22 24  1  0
 10 25  1  0
 25 26  1  0
 25 27  1  0
 25 28  1  0
 28 29  1  0
 28 30  1  0
 28 31  1  0
 31 32  1  0
 31 33  1  0
  6 34  1  0
 34 35  1  0
 34 36  2  0
 36 37  1  0
 36  2  1  0
 11  7  1  0
 22 17  1  0
 31  9  1  0
M  END
>  <cnnaffinity>  (1) 
-5.5872

>  <filename>  (1) 
c1cncc(-c2nn3c(c2NCC2CC2)CCC3)c1

$$$$
