
     RDKit          3D

 33 36  0  0  0  0  0  0  0  0999 V2000
    9.0681   -3.0764   22.1801 H   0  0  0  0  0  0  0  0  0  0  0  0
    8.4929   -2.2072   21.8903 C   0  0  0  0  0  0  0  0  0  0  0  0
    8.0679   -1.8744   20.7220 N   0  0  0  0  0  0  0  0  0  0  0  0
    7.3849   -0.6890   20.9387 C   0  0  0  0  0  0  0  0  0  0  0  0
    6.6471   -0.0008   19.8907 C   0  0  0  0  0  0  0  0  0  0  0  0
    7.1663    0.0413   18.5849 C   0  0  0  0  0  0  0  0  0  0  0  0
    8.1171   -0.4369   18.3659 H   0  0  0  0  0  0  0  0  0  0  0  0
    6.5674    0.6730   17.5730 N   0  0  0  0  0  0  0  0  0  0  0  0
    5.4060    1.2912   17.8362 C   0  0  0  0  0  0  0  0  0  0  0  0
    4.9264    1.7839   16.9943 H   0  0  0  0  0  0  0  0  0  0  0  0
    4.8008    1.3071   19.0997 C   0  0  0  0  0  0  0  0  0  0  0  0
    3.8721    1.8440   19.2512 H   0  0  0  0  0  0  0  0  0  0  0  0
    5.4268    0.6459   20.1521 C   0  0  0  0  0  0  0  0  0  0  0  0
    5.0045    0.6411   21.1630 H   0  0  0  0  0  0  0  0  0  0  0  0
    7.4789   -0.3511   22.2706 C   0  0  0  0  0  0  0  0  0  0  0  0
    7.0698    0.8506   22.9833 C   0  0  0  0  0  0  0  0  0  0  0  0
    7.3529    2.0908   22.4138 C   0  0  0  0  0  0  0  0  0  0  0  0
    7.8781    2.1388   21.4609 H   0  0  0  0  0  0  0  0  0  0  0  0
    6.9468    3.2981   23.0343 C   0  0  0  0  0  0  0  0  0  0  0  0
    7.1964    4.2501   22.5656 H   0  0  0  0  0  0  0  0  0  0  0  0
    6.2459    3.2627   24.2204 C   0  0  0  0  0  0  0  0  0  0  0  0
    5.9428    4.1819   24.7200 H   0  0  0  0  0  0  0  0  0  0  0  0
    5.9067    2.0142   24.8293 C   0  0  0  0  0  0  0  0  0  0  0  0
    5.1789    1.9661   26.0602 C   0  0  0  0  0  0  0  0  0  0  0  0
    4.9059    2.9094   26.5315 H   0  0  0  0  0  0  0  0  0  0  0  0
    4.8340    0.7628   26.6314 C   0  0  0  0  0  0  0  0  0  0  0  0
    4.2823    0.7371   27.5706 H   0  0  0  0  0  0  0  0  0  0  0  0
    5.1907   -0.4602   26.0006 C   0  0  0  0  0  0  0  0  0  0  0  0
    4.9072   -1.4095   26.4528 H   0  0  0  0  0  0  0  0  0  0  0  0
    5.9004   -0.4506   24.8182 C   0  0  0  0  0  0  0  0  0  0  0  0
    6.1572   -1.3801   24.3169 H   0  0  0  0  0  0  0  0  0  0  0  0
    6.3022    0.7826   24.2053 C   0  0  0  0  0  0  0  0  0  0  0  0
    8.1840   -1.3507   22.8817 O   0  0  0  0  0  0  0  0  0  0  0  0
  1  2  1  0
  2  3  2  0
  3  4  1  0
  4  5  1  0
  5  6  2  0
  6  7  1  0
  6  8  1  0
  8  9  2  0
  9 10  1  0
  9 11  1  0
 11 12  1  0
 11 13  2  0
 13 14  1  0
  4 15  2  0
 15 16  1  0
 16 17  2  0
 17 18  1  0
 17 19  1  0
 19 20  1  0
 19 21  2  0
 21 22  1  0
 21 23  1  0
 23 24  2  0
 24 25  1  0
 24 26  1  0
 26 27  1  0
 26 28  2  0
 28 29  1  0
 28 30  1  0
 30 31  1  0
 30 32  2  0
 15 33  1  0
 33  2  1  0
 13  5  1  0
 32 16  1  0
 32 23  1  0
M  END
>  <cnnaffinity>  (1) 
-4.7857

>  <filename>  (1) 
c1cncc(-c2ncoc2-c2cccc3ccccc23)c1

$$$$
