
     RDKit          3D

 30 33  0  0  0  0  0  0  0  0999 V2000
    5.0058    1.8192   16.9000 H   0  0  0  0  0  0  0  0  0  0  0  0
    5.4266    1.2863   17.7457 C   0  0  0  0  0  0  0  0  0  0  0  0
    6.5852    0.6461   17.5144 N   0  0  0  0  0  0  0  0  0  0  0  0
    7.1545   -0.0033   18.5301 C   0  0  0  0  0  0  0  0  0  0  0  0
    8.0977   -0.5167   18.3448 H   0  0  0  0  0  0  0  0  0  0  0  0
    6.5897   -0.0346   19.8173 C   0  0  0  0  0  0  0  0  0  0  0  0
    7.2821   -0.6723   20.8882 N   0  0  0  0  0  0  0  0  0  0  0  0
    8.1305   -1.7278   20.7176 N   0  0  0  0  0  0  0  0  0  0  0  0
    8.6553   -1.9717   21.8556 N   0  0  0  0  0  0  0  0  0  0  0  0
    8.2137   -1.1067   22.8040 N   0  0  0  0  0  0  0  0  0  0  0  0
    7.3776   -0.3153   22.1838 C   0  0  0  0  0  0  0  0  0  0  0  0
    6.7198    0.7589   22.6437 O   0  0  0  0  0  0  0  0  0  0  0  0
    6.8637    1.1752   23.9268 C   0  0  0  0  0  0  0  0  0  0  0  0
    6.0422    2.0046   24.4763 N   0  0  0  0  0  0  0  0  0  0  0  0
    6.5395    2.1301   25.7711 C   0  0  0  0  0  0  0  0  0  0  0  0
    6.0449    2.8417   26.8701 C   0  0  0  0  0  0  0  0  0  0  0  0
    5.1547    3.4494   26.7474 H   0  0  0  0  0  0  0  0  0  0  0  0
    6.6901    2.6875   28.1006 C   0  0  0  0  0  0  0  0  0  0  0  0
    6.2994    3.1824   28.9819 H   0  0  0  0  0  0  0  0  0  0  0  0
    7.8239    1.8583   28.2345 C   0  0  0  0  0  0  0  0  0  0  0  0
    8.3332    1.8116   29.1913 H   0  0  0  0  0  0  0  0  0  0  0  0
    8.3263    1.1366   27.1519 C   0  0  0  0  0  0  0  0  0  0  0  0
    9.1658    0.4452   27.2315 H   0  0  0  0  0  0  0  0  0  0  0  0
    7.6851    1.3221   25.9371 C   0  0  0  0  0  0  0  0  0  0  0  0
    7.8979    0.7591   24.6978 N   0  0  0  0  0  0  0  0  0  0  0  0
    8.4791   -0.0207   24.4278 H   0  0  0  0  0  0  0  0  0  0  0  0
    5.3766    0.6225   20.0584 C   0  0  0  0  0  0  0  0  0  0  0  0
    4.9270    0.6299   21.0502 H   0  0  0  0  0  0  0  0  0  0  0  0
    4.7878    1.2965   18.9892 C   0  0  0  0  0  0  0  0  0  0  0  0
    3.8699    1.8576   19.1262 H   0  0  0  0  0  0  0  0  0  0  0  0
  1  2  1  0
  2  3  2  0
  3  4  1  0
  4  5  1  0
  4  6  2  0
  6  7  1  0
  7  8  1  0
  8  9  2  0
  9 10  1  0
 10 11  2  0
 11 12  1  0
 12 13  1  0
 13 14  2  0
 14 15  1  0
 15 16  2  0
 16 17  1  0
 16 18  1  0
 18 19  1  0
 18 20  2  0
 20 21  1  0
 20 22  1  0
 22 23  1  0
 22 24  2  0
 24 25  1  0
 25 26  1  0
  6 27  1  0
 27 28  1  0
 27 29  2  0
 29 30  1  0
 29  2  1  0
 11  7  1  0
 25 13  1  0
 24 15  1  0
M  END
>  <cnnaffinity>  (1) 
-5.23811

>  <filename>  (1) 
c1cncc(-n2nnnc2Oc2nc3ccccc3[nH]2)c1

$$$$
