
     RDKit          3D

 47 50  0  0  0  0  0  0  0  0999 V2000
    5.0600    1.8533   16.8970 H   0  0  0  0  0  0  0  0  0  0  0  0
    5.4522    1.3413   17.7731 C   0  0  0  0  0  0  0  0  0  0  0  0
    6.5902    0.6510   17.6008 N   0  0  0  0  0  0  0  0  0  0  0  0
    7.1003    0.0082   18.6666 C   0  0  0  0  0  0  0  0  0  0  0  0
    8.0248   -0.5429   18.4904 H   0  0  0  0  0  0  0  0  0  0  0  0
    6.5187    0.0248   19.9627 C   0  0  0  0  0  0  0  0  0  0  0  0
    7.0288   -0.6472   21.1155 N   0  0  0  0  0  0  0  0  0  0  0  0
    7.6666    0.1855   22.1409 C   0  0  0  0  0  0  0  0  0  0  0  0
    7.6498   -0.3594   23.0948 H   0  0  0  0  0  0  0  0  0  0  0  0
    7.0474    1.0747   22.2817 H   0  0  0  0  0  0  0  0  0  0  0  0
    9.1236    0.6237   21.8088 C   0  0  0  0  0  0  0  0  0  0  0  0
    9.3233    1.5995   22.2654 H   0  0  0  0  0  0  0  0  0  0  0  0
    9.1684    0.7917   20.7222 H   0  0  0  0  0  0  0  0  0  0  0  0
   10.2186   -0.2841   22.1999 N   0  0  0  0  0  0  0  0  0  0  0  0
   10.8022    0.0038   23.5190 C   0  0  0  0  0  0  0  0  0  0  0  0
   11.7127   -0.5939   23.6351 H   0  0  0  0  0  0  0  0  0  0  0  0
   11.1448    1.0460   23.5207 H   0  0  0  0  0  0  0  0  0  0  0  0
    9.8656   -0.2168   24.7077 C   0  0  0  0  0  0  0  0  0  0  0  0
    9.6101   -1.5297   25.2180 C   0  0  0  0  0  0  0  0  0  0  0  0
   10.2156   -2.3584   24.8514 H   0  0  0  0  0  0  0  0  0  0  0  0
    8.6215   -1.7692   26.1415 C   0  0  0  0  0  0  0  0  0  0  0  0
    8.4380   -2.7831   26.4848 H   0  0  0  0  0  0  0  0  0  0  0  0
    7.8331   -0.6967   26.6638 C   0  0  0  0  0  0  0  0  0  0  0  0
    6.7761   -0.8809   27.6061 C   0  0  0  0  0  0  0  0  0  0  0  0
    6.5301   -1.8926   27.9123 H   0  0  0  0  0  0  0  0  0  0  0  0
    6.1071    0.1971   28.1402 C   0  0  0  0  0  0  0  0  0  0  0  0
    5.2970    0.0356   28.8488 H   0  0  0  0  0  0  0  0  0  0  0  0
    6.4847    1.5235   27.7822 C   0  0  0  0  0  0  0  0  0  0  0  0
    6.0164    2.3687   28.2826 H   0  0  0  0  0  0  0  0  0  0  0  0
    7.4620    1.7343   26.8371 C   0  0  0  0  0  0  0  0  0  0  0  0
    7.7495    2.7425   26.5391 H   0  0  0  0  0  0  0  0  0  0  0  0
    8.1484    0.6345   26.2417 C   0  0  0  0  0  0  0  0  0  0  0  0
    9.1711    0.8382   25.2652 C   0  0  0  0  0  0  0  0  0  0  0  0
    9.3840    1.8674   24.9817 H   0  0  0  0  0  0  0  0  0  0  0  0
    9.9807   -1.7164   21.9959 C   0  0  0  0  0  0  0  0  0  0  0  0
   10.9624   -2.2067   21.9064 H   0  0  0  0  0  0  0  0  0  0  0  0
    9.5034   -2.1806   22.8758 H   0  0  0  0  0  0  0  0  0  0  0  0
    9.1193   -2.0840   20.7872 C   0  0  0  0  0  0  0  0  0  0  0  0
    9.4068   -1.4751   19.9250 H   0  0  0  0  0  0  0  0  0  0  0  0
    9.3630   -3.1249   20.5555 H   0  0  0  0  0  0  0  0  0  0  0  0
    7.5938   -1.9862   21.0074 C   0  0  0  0  0  0  0  0  0  0  0  0
    7.3376   -2.5256   21.9340 H   0  0  0  0  0  0  0  0  0  0  0  0
    7.0516   -2.5034   20.2097 H   0  0  0  0  0  0  0  0  0  0  0  0
    5.3371    0.7743   20.1076 C   0  0  0  0  0  0  0  0  0  0  0  0
    4.8799    0.8191   21.0952 H   0  0  0  0  0  0  0  0  0  0  0  0
    4.7843    1.4209   18.9994 C   0  0  0  0  0  0  0  0  0  0  0  0
    3.8672    1.9945   19.0818 H   0  0  0  0  0  0  0  0  0  0  0  0
  1  2  1  0
  2  3  2  0
  3  4  1  0
  4  5  1  0
  4  6  2  0
  6  7  1  0
  7  8  1  0
  8  9  1  0
  8 10  1  0
  8 11  1  0
 11 12  1  0
 11 13  1  0
 11 14  1  0
 14 15  1  0
 15 16  1  0
 15 17  1  0
 15 18  1  0
 18 19  2  0
 19 20  1  0
 19 21  1  0
 21 22  1  0
 21 23  2  0
 23 24  1  0
 24 25  1  0
 24 26  2  0
 26 27  1  0
 26 28  1  0
 28 29  1  0
 28 30  2  0
 30 31  1  0
 30 32  1  0
 32 33  2  0
 33 34  1  0
 14 35  1  0
 35 36  1  0
 35 37  1  0
 35 38  1  0
 38 39  1  0
 38 40  1  0
 38 41  1  0
 41 42  1  0
 41 43  1  0
  6 44  1  0
 44 45  1  0
 44 46  2  0
 46 47  1  0
 46  2  1  0
 41  7  1  0
 33 18  1  0
 32 23  1  0
M  END
>  <cnnaffinity>  (1) 
-5.06972

>  <filename>  (1) 
c1cncc(N2CCCN(Cc3ccc4ccccc4c3)CC2)c1

$$$$
