
     RDKit          3D

 35 37  0  0  0  0  0  0  0  0999 V2000
    4.9419    1.7851   16.9877 H   0  0  0  0  0  0  0  0  0  0  0  0
    5.4076    1.2854   17.8357 C   0  0  0  0  0  0  0  0  0  0  0  0
    6.5713    0.6650   17.5875 N   0  0  0  0  0  0  0  0  0  0  0  0
    7.1781    0.0583   18.6113 C   0  0  0  0  0  0  0  0  0  0  0  0
    8.1274   -0.4237   18.3829 H   0  0  0  0  0  0  0  0  0  0  0  0
    6.6602    0.0094   19.9142 C   0  0  0  0  0  0  0  0  0  0  0  0
    7.3939   -0.7246   20.9527 C   0  0  0  0  0  0  0  0  0  0  0  0
    8.7251   -1.0346   20.7783 N   0  0  0  0  0  0  0  0  0  0  0  0
    9.1950   -1.6364   21.8304 C   0  0  0  0  0  0  0  0  0  0  0  0
   10.6512   -1.9685   22.0798 C   0  0  0  0  0  0  0  0  0  0  0  0
   10.7066   -2.8547   22.7197 H   0  0  0  0  0  0  0  0  0  0  0  0
   11.0668   -2.2278   21.1012 H   0  0  0  0  0  0  0  0  0  0  0  0
   11.4805   -0.9071   22.6585 N   0  0  0  0  0  0  0  0  0  0  0  0
   11.5743    0.2564   21.7633 C   0  0  0  0  0  0  0  0  0  0  0  0
   11.7745   -0.1389   20.7610 H   0  0  0  0  0  0  0  0  0  0  0  0
   10.6011    0.7807   21.6867 H   0  0  0  0  0  0  0  0  0  0  0  0
   12.6456    1.2296   22.2585 C   0  0  0  0  0  0  0  0  0  0  0  0
   13.6319    0.7471   22.2019 H   0  0  0  0  0  0  0  0  0  0  0  0
   12.6695    2.1071   21.6013 H   0  0  0  0  0  0  0  0  0  0  0  0
   12.3502    1.6616   23.7081 C   0  0  0  0  0  0  0  0  0  0  0  0
   11.4406    2.2841   23.7277 H   0  0  0  0  0  0  0  0  0  0  0  0
   13.1619    2.2921   24.0902 H   0  0  0  0  0  0  0  0  0  0  0  0
   12.1432    0.4267   24.6044 C   0  0  0  0  0  0  0  0  0  0  0  0
   11.8191    0.7105   25.6095 H   0  0  0  0  0  0  0  0  0  0  0  0
   13.0965   -0.1078   24.7047 H   0  0  0  0  0  0  0  0  0  0  0  0
   11.0770   -0.4992   24.0102 C   0  0  0  0  0  0  0  0  0  0  0  0
   10.1028    0.0266   24.0014 H   0  0  0  0  0  0  0  0  0  0  0  0
   10.9271   -1.3974   24.6268 H   0  0  0  0  0  0  0  0  0  0  0  0
    8.0172   -2.0102   23.0503 S   0  0  0  0  0  0  0  0  0  0  0  0
    6.8518   -1.1811   22.1115 C   0  0  0  0  0  0  0  0  0  0  0  0
    5.8242   -1.1116   22.3813 H   0  0  0  0  0  0  0  0  0  0  0  0
    5.4345    0.6590   20.1557 C   0  0  0  0  0  0  0  0  0  0  0  0
    4.9798    0.6728   21.1496 H   0  0  0  0  0  0  0  0  0  0  0  0
    4.8084    1.3089   19.0981 C   0  0  0  0  0  0  0  0  0  0  0  0
    3.8754    1.8407   19.2408 H   0  0  0  0  0  0  0  0  0  0  0  0
  1  2  1  0
  2  3  2  0
  3  4  1  0
  4  5  1  0
  4  6  2  0
  6  7  1  0
  7  8  1  0
  8  9  2  0
  9 10  1  0
 10 11  1  0
 10 12  1  0
 10 13  1  0
 13 14  1  0
 14 15  1  0
 14 16  1  0
 14 17  1  0
 17 18  1  0
 17 19  1  0
 17 20  1  0
 20 21  1  0
 20 22  1  0
 20 23  1  0
 23 24  1  0
 23 25  1  0
 23 26  1  0
 26 27  1  0
 26 28  1  0
  9 29  1  0
 29 30  1  0
 30 31  1  0
  6 32  1  0
 32 33  1  0
 32 34  2  0
 34 35  1  0
 34  2  1  0
 30  7  2  0
 26 13  1  0
M  END
>  <cnnaffinity>  (1) 
-4.72639

>  <filename>  (1) 
c1cncc(-c2csc(CN3CCCCC3)n2)c1

$$$$
