
     RDKit          3D

 46 49  0  0  0  0  0  0  0  0999 V2000
    4.9374    1.8167   16.9851 H   0  0  0  0  0  0  0  0  0  0  0  0
    5.4033    1.3020   17.8237 C   0  0  0  0  0  0  0  0  0  0  0  0
    6.5630    0.6769   17.5628 N   0  0  0  0  0  0  0  0  0  0  0  0
    7.1552    0.0262   18.5662 C   0  0  0  0  0  0  0  0  0  0  0  0
    8.1054   -0.4600   18.3350 H   0  0  0  0  0  0  0  0  0  0  0  0
    6.6246   -0.0293   19.8629 C   0  0  0  0  0  0  0  0  0  0  0  0
    7.3175   -0.7328   20.9377 C   0  0  0  0  0  0  0  0  0  0  0  0
    7.9726   -1.8783   20.7459 N   0  0  0  0  0  0  0  0  0  0  0  0
    8.4525   -2.1552   21.9633 N   0  0  0  0  0  0  0  0  0  0  0  0
    8.2068   -1.2425   22.9124 C   0  0  0  0  0  0  0  0  0  0  0  0
    7.4374   -0.2762   22.2945 C   0  0  0  0  0  0  0  0  0  0  0  0
    7.0609    0.9626   22.8597 N   0  0  0  0  0  0  0  0  0  0  0  0
    7.3548    0.8832   23.8282 H   0  0  0  0  0  0  0  0  0  0  0  0
    7.6354    2.1655   22.2196 C   0  0  0  0  0  0  0  0  0  0  0  0
    7.6021    2.9713   22.9640 H   0  0  0  0  0  0  0  0  0  0  0  0
    6.9680    2.4660   21.4004 H   0  0  0  0  0  0  0  0  0  0  0  0
    9.0466    2.0977   21.5824 C   0  0  0  0  0  0  0  0  0  0  0  0
    8.9784    1.4442   20.7000 H   0  0  0  0  0  0  0  0  0  0  0  0
    9.2414    3.1093   21.1920 H   0  0  0  0  0  0  0  0  0  0  0  0
   10.1361    1.6337   22.4490 N   0  0  0  0  0  0  0  0  0  0  0  0
   11.2936    1.1228   21.6954 C   0  0  0  0  0  0  0  0  0  0  0  0
   10.9566    0.2796   21.0775 H   0  0  0  0  0  0  0  0  0  0  0  0
   11.7424    1.8859   21.0276 H   0  0  0  0  0  0  0  0  0  0  0  0
   12.3706    0.6087   22.6580 C   0  0  0  0  0  0  0  0  0  0  0  0
   11.9800   -0.2820   23.1807 H   0  0  0  0  0  0  0  0  0  0  0  0
   13.2738    0.3209   22.1077 H   0  0  0  0  0  0  0  0  0  0  0  0
   12.7697    1.6013   23.5966 O   0  0  0  0  0  0  0  0  0  0  0  0
   11.6495    2.0770   24.3338 C   0  0  0  0  0  0  0  0  0  0  0  0
   12.0177    2.8637   24.9923 H   0  0  0  0  0  0  0  0  0  0  0  0
   11.2285    1.2655   24.9524 H   0  0  0  0  0  0  0  0  0  0  0  0
   10.5598    2.6466   23.4240 C   0  0  0  0  0  0  0  0  0  0  0  0
    9.6992    2.9285   24.0422 H   0  0  0  0  0  0  0  0  0  0  0  0
   10.9434    3.5679   22.9380 H   0  0  0  0  0  0  0  0  0  0  0  0
    9.0783   -1.4963   24.1157 C   0  0  0  0  0  0  0  0  0  0  0  0
    8.4835   -1.6508   25.0209 H   0  0  0  0  0  0  0  0  0  0  0  0
    9.7264   -0.6246   24.2785 H   0  0  0  0  0  0  0  0  0  0  0  0
    9.8813   -2.7777   23.7182 C   0  0  0  0  0  0  0  0  0  0  0  0
   10.9585   -2.6094   23.7675 H   0  0  0  0  0  0  0  0  0  0  0  0
    9.6537   -3.6234   24.3697 H   0  0  0  0  0  0  0  0  0  0  0  0
    9.4766   -3.1163   22.2596 C   0  0  0  0  0  0  0  0  0  0  0  0
   10.2968   -2.9442   21.5550 H   0  0  0  0  0  0  0  0  0  0  0  0
    9.0686   -4.1235   22.1430 H   0  0  0  0  0  0  0  0  0  0  0  0
    5.4249    0.6461   20.1280 C   0  0  0  0  0  0  0  0  0  0  0  0
    5.0366    0.6648   21.1481 H   0  0  0  0  0  0  0  0  0  0  0  0
    4.7963    1.3133   19.0837 C   0  0  0  0  0  0  0  0  0  0  0  0
    3.8688    1.8537   19.2367 H   0  0  0  0  0  0  0  0  0  0  0  0
  1  2  1  0
  2  3  2  0
  3  4  1  0
  4  5  1  0
  4  6  2  0
  6  7  1  0
  7  8  2  0
  8  9  1  0
  9 10  1  0
 10 11  2  0
 11 12  1  0
 12 13  1  0
 12 14  1  0
 14 15  1  0
 14 16  1  0
 14 17  1  0
 17 18  1  0
 17 19  1  0
 17 20  1  0
 20 21  1  0
 21 22  1  0
 21 23  1  0
 21 24  1  0
 24 25  1  0
 24 26  1  0
 24 27  1  0
 27 28  1  0
 28 29  1  0
 28 30  1  0
 28 31  1  0
 31 32  1  0
 31 33  1  0
 10 34  1  0
 34 35  1  0
 34 36  1  0
 34 37  1  0
 37 38  1  0
 37 39  1  0
 37 40  1  0
 40 41  1  0
 40 42  1  0
  6 43  1  0
 43 44  1  0
 43 45  2  0
 45 46  1  0
 45  2  1  0
 11  7  1  0
 31 20  1  0
 40  9  1  0
M  END
>  <cnnaffinity>  (1) 
-5.50334

>  <filename>  (1) 
c1cncc(-c2nn3c(c2NCCN2CCOCC2)CCC3)c1

$$$$
