
     RDKit          3D

 47 50  0  0  0  0  0  0  0  0999 V2000
    4.8120    1.3112   19.1083 C   0  0  0  0  0  0  0  0  0  0  0  0
    5.4003    1.2961   17.8363 C   0  0  0  0  0  0  0  0  0  0  0  0
    6.5587    0.6724   17.5755 N   0  0  0  0  0  0  0  0  0  0  0  0
    7.1661    0.0509   18.5911 C   0  0  0  0  0  0  0  0  0  0  0  0
    6.6540    0.0061   19.9019 C   0  0  0  0  0  0  0  0  0  0  0  0
    7.3361   -0.6809   20.9412 N   0  0  0  0  0  0  0  0  0  0  0  0
    6.6669   -1.5403   21.7558 N   0  0  0  0  0  0  0  0  0  0  0  0
    7.6084   -1.9821   22.5618 C   0  0  0  0  0  0  0  0  0  0  0  0
    7.3852   -2.9390   23.6837 C   0  0  0  0  0  0  0  0  0  0  0  0
    8.2572   -4.2088   23.5945 C   0  0  0  0  0  0  0  0  0  0  0  0
    8.3456   -4.7475   25.0334 C   0  0  0  0  0  0  0  0  0  0  0  0
    8.0126   -3.5634   25.9770 C   0  0  0  0  0  0  0  0  0  0  0  0
    7.7053   -2.3509   25.0782 C   0  0  0  0  0  0  0  0  0  0  0  0
    6.8764   -1.7439   25.4597 H   0  0  0  0  0  0  0  0  0  0  0  0
    8.5779   -1.6887   25.0133 H   0  0  0  0  0  0  0  0  0  0  0  0
    8.8380   -3.3438   26.6621 H   0  0  0  0  0  0  0  0  0  0  0  0
    7.1560   -3.8124   26.6134 H   0  0  0  0  0  0  0  0  0  0  0  0
    7.6384   -5.5698   25.1909 H   0  0  0  0  0  0  0  0  0  0  0  0
    9.3374   -5.1640   25.2366 H   0  0  0  0  0  0  0  0  0  0  0  0
    7.8325   -4.9392   22.8970 H   0  0  0  0  0  0  0  0  0  0  0  0
    9.2540   -3.9506   23.2175 H   0  0  0  0  0  0  0  0  0  0  0  0
    6.3274   -3.2078   23.6354 H   0  0  0  0  0  0  0  0  0  0  0  0
    8.8442   -1.4729   22.3269 N   0  0  0  0  0  0  0  0  0  0  0  0
    8.6374   -0.6057   21.3654 C   0  0  0  0  0  0  0  0  0  0  0  0
    9.6430    0.2570   20.7034 C   0  0  0  0  0  0  0  0  0  0  0  0
   10.8152    0.6925   21.5789 C   0  0  0  0  0  0  0  0  0  0  0  0
   11.8542   -0.4133   21.8103 C   0  0  0  0  0  0  0  0  0  0  0  0
   12.9539    0.0761   22.7626 C   0  0  0  0  0  0  0  0  0  0  0  0
   12.3174    0.6506   24.0404 C   0  0  0  0  0  0  0  0  0  0  0  0
   11.2454    1.6852   23.6872 C   0  0  0  0  0  0  0  0  0  0  0  0
   10.2658    1.1561   22.8106 O   0  0  0  0  0  0  0  0  0  0  0  0
   10.7129    2.0301   24.5790 H   0  0  0  0  0  0  0  0  0  0  0  0
   11.7142    2.5645   23.2138 H   0  0  0  0  0  0  0  0  0  0  0  0
   11.8413   -0.1535   24.6153 H   0  0  0  0  0  0  0  0  0  0  0  0
   13.0739    1.1070   24.6900 H   0  0  0  0  0  0  0  0  0  0  0  0
   13.6420   -0.7411   22.9984 H   0  0  0  0  0  0  0  0  0  0  0  0
   13.5594    0.8576   22.2780 H   0  0  0  0  0  0  0  0  0  0  0  0
   11.3448   -1.2902   22.2206 H   0  0  0  0  0  0  0  0  0  0  0  0
   12.2405   -0.7566   20.8466 H   0  0  0  0  0  0  0  0  0  0  0  0
   11.3119    1.5589   21.0968 H   0  0  0  0  0  0  0  0  0  0  0  0
    9.1536    1.1490   20.3085 H   0  0  0  0  0  0  0  0  0  0  0  0
    9.9774   -0.3307   19.8422 H   0  0  0  0  0  0  0  0  0  0  0  0
    5.4369    0.6461   20.1642 C   0  0  0  0  0  0  0  0  0  0  0  0
    5.0171    0.6083   21.1728 H   0  0  0  0  0  0  0  0  0  0  0  0
    8.1122   -0.4326   18.3625 H   0  0  0  0  0  0  0  0  0  0  0  0
    4.9221    1.7859   16.9923 H   0  0  0  0  0  0  0  0  0  0  0  0
    3.8804    1.8399   19.2596 H   0  0  0  0  0  0  0  0  0  0  0  0
  1  2  2  0
  2  3  1  0
  3  4  2  0
  4  5  1  0
  5  6  1  0
  6  7  1  0
  7  8  2  0
  8  9  1  0
  9 10  1  0
 10 11  1  0
 11 12  1  0
 12 13  1  0
 13 14  1  0
 13 15  1  0
 12 16  1  0
 12 17  1  0
 11 18  1  0
 11 19  1  0
 10 20  1  0
 10 21  1  0
  9 22  1  0
  8 23  1  0
 23 24  2  0
 24 25  1  0
 25 26  1  0
 26 27  1  0
 27 28  1  0
 28 29  1  0
 29 30  1  0
 30 31  1  0
 30 32  1  0
 30 33  1  0
 29 34  1  0
 29 35  1  0
 28 36  1  0
 28 37  1  0
 27 38  1  0
 27 39  1  0
 26 40  1  0
 25 41  1  0
 25 42  1  0
  5 43  2  0
 43 44  1  0
  4 45  1  0
  2 46  1  0
  1 47  1  0
 43  1  1  0
 24  6  1  0
 31 26  1  0
 13  9  1  0
M  END
>  <cnnaffinity>  (1) 
-6.33524

>  <filename>  (1) 
c1cncc(-n2nc(C3CCCC3)nc2CC2CCCCO2)c1

$$$$
