
     RDKit          3D

 33 36  0  0  0  0  0  0  0  0999 V2000
    4.9059    1.8190   16.9614 H   0  0  0  0  0  0  0  0  0  0  0  0
    5.3814    1.3145   17.8021 C   0  0  0  0  0  0  0  0  0  0  0  0
    6.5427    0.6956   17.5349 N   0  0  0  0  0  0  0  0  0  0  0  0
    7.1689    0.0832   18.5458 C   0  0  0  0  0  0  0  0  0  0  0  0
    8.1015   -0.4083   18.2797 H   0  0  0  0  0  0  0  0  0  0  0  0
    6.6898    0.0321   19.8678 C   0  0  0  0  0  0  0  0  0  0  0  0
    7.3884   -0.6957   20.9426 C   0  0  0  0  0  0  0  0  0  0  0  0
    6.8625   -1.2747   22.0735 C   0  0  0  0  0  0  0  0  0  0  0  0
    5.8390   -1.3578   22.3651 H   0  0  0  0  0  0  0  0  0  0  0  0
    7.9367   -1.8317   22.7890 C   0  0  0  0  0  0  0  0  0  0  0  0
    7.8670   -2.5703   24.0516 C   0  0  0  0  0  0  0  0  0  0  0  0
    8.4980   -3.7919   24.1135 C   0  0  0  0  0  0  0  0  0  0  0  0
    9.0901   -4.1507   23.2739 H   0  0  0  0  0  0  0  0  0  0  0  0
    8.4129   -4.6380   25.1689 N   0  0  0  0  0  0  0  0  0  0  0  0
    7.6920   -4.2612   26.2028 C   0  0  0  0  0  0  0  0  0  0  0  0
    7.6608   -4.9572   27.0441 H   0  0  0  0  0  0  0  0  0  0  0  0
    6.9830   -3.0236   26.2844 C   0  0  0  0  0  0  0  0  0  0  0  0
    6.1759   -2.6692   27.4072 C   0  0  0  0  0  0  0  0  0  0  0  0
    6.0217   -3.4130   28.1884 H   0  0  0  0  0  0  0  0  0  0  0  0
    5.5837   -1.4323   27.4802 C   0  0  0  0  0  0  0  0  0  0  0  0
    5.0259   -1.1500   28.3689 H   0  0  0  0  0  0  0  0  0  0  0  0
    5.7032   -0.5154   26.3998 C   0  0  0  0  0  0  0  0  0  0  0  0
    5.2024    0.4481   26.4603 H   0  0  0  0  0  0  0  0  0  0  0  0
    6.4289   -0.8567   25.2764 C   0  0  0  0  0  0  0  0  0  0  0  0
    6.5049   -0.1725   24.4371 H   0  0  0  0  0  0  0  0  0  0  0  0
    7.0928   -2.1237   25.1826 C   0  0  0  0  0  0  0  0  0  0  0  0
    9.0721   -1.6747   22.1131 N   0  0  0  0  0  0  0  0  0  0  0  0
    8.7208   -0.9722   21.0195 N   0  0  0  0  0  0  0  0  0  0  0  0
    9.4499   -0.6775   20.3857 H   0  0  0  0  0  0  0  0  0  0  0  0
    5.4594    0.6704   20.1192 C   0  0  0  0  0  0  0  0  0  0  0  0
    5.0408    0.6523   21.1260 H   0  0  0  0  0  0  0  0  0  0  0  0
    4.7998    1.3245   19.0752 C   0  0  0  0  0  0  0  0  0  0  0  0
    3.8622    1.8491   19.2274 H   0  0  0  0  0  0  0  0  0  0  0  0
  1  2  1  0
  2  3  2  0
  3  4  1  0
  4  5  1  0
  4  6  2  0
  6  7  1  0
  7  8  2  0
  8  9  1  0
  8 10  1  0
 10 11  1  0
 11 12  2  0
 12 13  1  0
 12 14  1  0
 14 15  2  0
 15 16  1  0
 15 17  1  0
 17 18  2  0
 18 19  1  0
 18 20  1  0
 20 21  1  0
 20 22  2  0
 22 23  1  0
 22 24  1  0
 24 25  1  0
 24 26  2  0
 10 27  2  0
 27 28  1  0
 28 29  1  0
  6 30  1  0
 30 31  1  0
 30 32  2  0
 32 33  1  0
 32  2  1  0
 28  7  1  0
 26 11  1  0
 26 17  1  0
M  END
>  <cnnaffinity>  (1) 
-5.49582

>  <filename>  (1) 
c1cncc(-c2cc(-c3cncc4ccccc34)n[nH]2)c1

$$$$
