
     RDKit          3D

 36 39  0  0  0  0  0  0  0  0999 V2000
    4.9106    1.7837   16.9932 H   0  0  0  0  0  0  0  0  0  0  0  0
    5.4005    1.2955   17.8335 C   0  0  0  0  0  0  0  0  0  0  0  0
    6.5655    0.6789   17.5713 N   0  0  0  0  0  0  0  0  0  0  0  0
    7.1702    0.0554   18.5926 C   0  0  0  0  0  0  0  0  0  0  0  0
    8.1203   -0.4270   18.3737 H   0  0  0  0  0  0  0  0  0  0  0  0
    6.6647   -0.0009   19.9163 C   0  0  0  0  0  0  0  0  0  0  0  0
    7.3475   -0.6842   20.9551 N   0  0  0  0  0  0  0  0  0  0  0  0
    7.4404   -0.3496   22.3123 C   0  0  0  0  0  0  0  0  0  0  0  0
    7.1639    1.0323   22.7987 C   0  0  0  0  0  0  0  0  0  0  0  0
    7.7595    2.1148   22.1670 C   0  0  0  0  0  0  0  0  0  0  0  0
    8.3818    1.9584   21.2888 H   0  0  0  0  0  0  0  0  0  0  0  0
    7.5738    3.4336   22.6443 C   0  0  0  0  0  0  0  0  0  0  0  0
    8.0519    4.2581   22.1199 H   0  0  0  0  0  0  0  0  0  0  0  0
    6.7958    3.6677   23.7542 C   0  0  0  0  0  0  0  0  0  0  0  0
    6.6520    4.6792   24.1320 H   0  0  0  0  0  0  0  0  0  0  0  0
    6.1575    2.5877   24.4331 C   0  0  0  0  0  0  0  0  0  0  0  0
    5.3426    2.8239   25.5840 C   0  0  0  0  0  0  0  0  0  0  0  0
    5.2315    3.8490   25.9363 H   0  0  0  0  0  0  0  0  0  0  0  0
    4.7054    1.7883   26.2229 C   0  0  0  0  0  0  0  0  0  0  0  0
    4.0844    1.9767   27.0969 H   0  0  0  0  0  0  0  0  0  0  0  0
    4.8491    0.4582   25.7425 C   0  0  0  0  0  0  0  0  0  0  0  0
    4.3348   -0.3543   26.2503 H   0  0  0  0  0  0  0  0  0  0  0  0
    5.6389    0.1912   24.6449 C   0  0  0  0  0  0  0  0  0  0  0  0
    5.7608   -0.8268   24.2835 H   0  0  0  0  0  0  0  0  0  0  0  0
    6.3289    1.2434   23.9534 C   0  0  0  0  0  0  0  0  0  0  0  0
    7.8774   -1.2844   23.0700 N   0  0  0  0  0  0  0  0  0  0  0  0
    8.1763   -2.4410   22.2333 C   0  0  0  0  0  0  0  0  0  0  0  0
    9.2235   -2.7413   22.3526 H   0  0  0  0  0  0  0  0  0  0  0  0
    7.5560   -3.2863   22.5475 H   0  0  0  0  0  0  0  0  0  0  0  0
    7.8758   -2.0325   20.7856 C   0  0  0  0  0  0  0  0  0  0  0  0
    8.7808   -2.0186   20.1631 H   0  0  0  0  0  0  0  0  0  0  0  0
    7.1296   -2.6833   20.3091 H   0  0  0  0  0  0  0  0  0  0  0  0
    5.4415    0.6453   20.1638 C   0  0  0  0  0  0  0  0  0  0  0  0
    5.0255    0.6312   21.1763 H   0  0  0  0  0  0  0  0  0  0  0  0
    4.8092    1.3058   19.1045 C   0  0  0  0  0  0  0  0  0  0  0  0
    3.8768    1.8410   19.2612 H   0  0  0  0  0  0  0  0  0  0  0  0
  1  2  1  0
  2  3  2  0
  3  4  1  0
  4  5  1  0
  4  6  2  0
  6  7  1  0
  7  8  1  0
  8  9  1  0
  9 10  2  0
 10 11  1  0
 10 12  1  0
 12 13  1  0
 12 14  2  0
 14 15  1  0
 14 16  1  0
 16 17  2  0
 17 18  1  0
 17 19  1  0
 19 20  1  0
 19 21  2  0
 21 22  1  0
 21 23  1  0
 23 24  1  0
 23 25  2  0
  8 26  2  0
 26 27  1  0
 27 28  1  0
 27 29  1  0
 27 30  1  0
 30 31  1  0
 30 32  1  0
  6 33  1  0
 33 34  1  0
 33 35  2  0
 35 36  1  0
 35  2  1  0
 30  7  1  0
 25  9  1  0
 25 16  1  0
M  END
>  <cnnaffinity>  (1) 
-4.64238

>  <filename>  (1) 
c1cncc(N2CCN=C2c2cccc3ccccc23)c1

$$$$
