
     RDKit          3D

 47 50  0  0  0  0  0  0  0  0999 V2000
    4.9408    1.8087   16.9902 H   0  0  0  0  0  0  0  0  0  0  0  0
    5.3978    1.2992   17.8340 C   0  0  0  0  0  0  0  0  0  0  0  0
    6.5591    0.6698   17.5814 N   0  0  0  0  0  0  0  0  0  0  0  0
    7.1720    0.0631   18.6079 C   0  0  0  0  0  0  0  0  0  0  0  0
    8.1138   -0.4288   18.3698 H   0  0  0  0  0  0  0  0  0  0  0  0
    6.6780    0.0424   19.9349 C   0  0  0  0  0  0  0  0  0  0  0  0
    7.3780   -0.6088   20.9858 N   0  0  0  0  0  0  0  0  0  0  0  0
    7.3800   -0.3056   22.3545 C   0  0  0  0  0  0  0  0  0  0  0  0
    7.1952    0.9877   22.7577 N   0  0  0  0  0  0  0  0  0  0  0  0
    6.7562    1.1766   24.1412 C   0  0  0  0  0  0  0  0  0  0  0  0
    7.5662    0.9062   24.8378 H   0  0  0  0  0  0  0  0  0  0  0  0
    5.9276    0.4821   24.3308 H   0  0  0  0  0  0  0  0  0  0  0  0
    6.2920    2.6197   24.3311 C   0  0  0  0  0  0  0  0  0  0  0  0
    5.4675    2.7993   23.6275 H   0  0  0  0  0  0  0  0  0  0  0  0
    5.9056    2.7547   25.3455 H   0  0  0  0  0  0  0  0  0  0  0  0
    7.3881    3.6707   24.0212 C   0  0  0  0  0  0  0  0  0  0  0  0
    6.8680    4.5421   23.5661 H   0  0  0  0  0  0  0  0  0  0  0  0
    8.0875    4.1312   25.2289 N   0  0  0  0  0  0  0  0  0  0  0  0
    9.1896    5.0671   24.9724 C   0  0  0  0  0  0  0  0  0  0  0  0
   10.0829    4.5247   24.6372 H   0  0  0  0  0  0  0  0  0  0  0  0
    8.9491    5.7930   24.1700 H   0  0  0  0  0  0  0  0  0  0  0  0
    9.4090    5.8049   26.2961 C   0  0  0  0  0  0  0  0  0  0  0  0
   10.1097    5.2566   26.9323 H   0  0  0  0  0  0  0  0  0  0  0  0
    9.8447    6.7976   26.1277 H   0  0  0  0  0  0  0  0  0  0  0  0
    8.0048    5.8605   26.9303 C   0  0  0  0  0  0  0  0  0  0  0  0
    7.5121    6.8190   26.7344 H   0  0  0  0  0  0  0  0  0  0  0  0
    8.0327    5.7467   28.0195 H   0  0  0  0  0  0  0  0  0  0  0  0
    7.2053    4.7235   26.2502 C   0  0  0  0  0  0  0  0  0  0  0  0
    6.2825    5.1351   25.8043 H   0  0  0  0  0  0  0  0  0  0  0  0
    6.8727    3.9580   26.9642 H   0  0  0  0  0  0  0  0  0  0  0  0
    8.3883    3.1222   22.9740 C   0  0  0  0  0  0  0  0  0  0  0  0
    8.8105    3.9499   22.3921 H   0  0  0  0  0  0  0  0  0  0  0  0
    9.2052    2.6230   23.5144 H   0  0  0  0  0  0  0  0  0  0  0  0
    7.7488    2.1223   22.0083 C   0  0  0  0  0  0  0  0  0  0  0  0
    6.9467    2.6107   21.4321 H   0  0  0  0  0  0  0  0  0  0  0  0
    8.4819    1.7674   21.2755 H   0  0  0  0  0  0  0  0  0  0  0  0
    7.5982   -1.2876   23.1504 N   0  0  0  0  0  0  0  0  0  0  0  0
    7.8146   -2.4817   22.3431 C   0  0  0  0  0  0  0  0  0  0  0  0
    8.8049   -2.9219   22.5403 H   0  0  0  0  0  0  0  0  0  0  0  0
    7.0700   -3.2531   22.5983 H   0  0  0  0  0  0  0  0  0  0  0  0
    7.7068   -2.0258   20.8709 C   0  0  0  0  0  0  0  0  0  0  0  0
    6.9139   -2.5439   20.3185 H   0  0  0  0  0  0  0  0  0  0  0  0
    8.6567   -2.1380   20.3344 H   0  0  0  0  0  0  0  0  0  0  0  0
    5.4443    0.6719   20.1623 C   0  0  0  0  0  0  0  0  0  0  0  0
    5.0216    0.6417   21.1662 H   0  0  0  0  0  0  0  0  0  0  0  0
    4.8012    1.3170   19.0982 C   0  0  0  0  0  0  0  0  0  0  0  0
    3.8622    1.8429   19.2373 H   0  0  0  0  0  0  0  0  0  0  0  0
  1  2  1  0
  2  3  2  0
  3  4  1  0
  4  5  1  0
  4  6  2  0
  6  7  1  0
  7  8  1  0
  8  9  1  0
  9 10  1  0
 10 11  1  0
 10 12  1  0
 10 13  1  0
 13 14  1  0
 13 15  1  0
 13 16  1  0
 16 17  1  0
 16 18  1  0
 18 19  1  0
 19 20  1  0
 19 21  1  0
 19 22  1  0
 22 23  1  0
 22 24  1  0
 22 25  1  0
 25 26  1  0
 25 27  1  0
 25 28  1  0
 28 29  1  0
 28 30  1  0
 16 31  1  0
 31 32  1  0
 31 33  1  0
 31 34  1  0
 34 35  1  0
 34 36  1  0
  8 37  2  0
 37 38  1  0
 38 39  1  0
 38 40  1  0
 38 41  1  0
 41 42  1  0
 41 43  1  0
  6 44  1  0
 44 45  1  0
 44 46  2  0
 46 47  1  0
 46  2  1  0
 41  7  1  0
 34  9  1  0
 28 18  1  0
M  END
>  <cnnaffinity>  (1) 
-5.20752

>  <filename>  (1) 
c1cncc(N2CCN=C2N2CCC(N3CCCC3)CC2)c1

$$$$
