
     RDKit          3D

 26 29  0  0  0  0  0  0  0  0999 V2000
    4.9211    1.7794   16.9985 H   0  0  0  0  0  0  0  0  0  0  0  0
    5.4033    1.2902   17.8406 C   0  0  0  0  0  0  0  0  0  0  0  0
    6.5675    0.6763   17.5763 N   0  0  0  0  0  0  0  0  0  0  0  0
    7.1723    0.0540   18.5901 C   0  0  0  0  0  0  0  0  0  0  0  0
    8.1208   -0.4333   18.3705 H   0  0  0  0  0  0  0  0  0  0  0  0
    6.6470    0.0113   19.8951 C   0  0  0  0  0  0  0  0  0  0  0  0
    7.4038   -0.6960   20.9245 C   0  0  0  0  0  0  0  0  0  0  0  0
    8.3251   -1.6008   20.7043 N   0  0  0  0  0  0  0  0  0  0  0  0
    8.8293   -2.0407   21.9070 N   0  0  0  0  0  0  0  0  0  0  0  0
    8.2055   -1.3600   22.8279 C   0  0  0  0  0  0  0  0  0  0  0  0
    8.2690   -1.1142   24.5523 S   0  0  0  0  0  0  0  0  0  0  0  0
    7.0502    0.1484   24.3394 C   0  0  0  0  0  0  0  0  0  0  0  0
    6.5560    0.9324   25.4760 C   0  0  0  0  0  0  0  0  0  0  0  0
    6.9872    0.7463   26.7253 N   0  0  0  0  0  0  0  0  0  0  0  0
    6.3071    1.6415   27.4410 N   0  0  0  0  0  0  0  0  0  0  0  0
    6.4702    1.6860   28.4331 H   0  0  0  0  0  0  0  0  0  0  0  0
    5.4534    2.3981   26.7044 C   0  0  0  0  0  0  0  0  0  0  0  0
    4.8301    3.1689   27.1419 H   0  0  0  0  0  0  0  0  0  0  0  0
    5.5893    1.9627   25.4145 C   0  0  0  0  0  0  0  0  0  0  0  0
    5.0930    2.3039   24.5238 H   0  0  0  0  0  0  0  0  0  0  0  0
    6.6293    0.3439   23.1231 N   0  0  0  0  0  0  0  0  0  0  0  0
    7.2783   -0.5141   22.2895 N   0  0  0  0  0  0  0  0  0  0  0  0
    5.4296    0.6529   20.1628 C   0  0  0  0  0  0  0  0  0  0  0  0
    5.0100    0.6408   21.1718 H   0  0  0  0  0  0  0  0  0  0  0  0
    4.8048    1.3075   19.1059 C   0  0  0  0  0  0  0  0  0  0  0  0
    3.8751    1.8428   19.2569 H   0  0  0  0  0  0  0  0  0  0  0  0
  1  2  1  0
  2  3  2  0
  3  4  1  0
  4  5  1  0
  4  6  2  0
  6  7  1  0
  7  8  2  0
  8  9  1  0
  9 10  2  0
 10 11  1  0
 11 12  1  0
 12 13  1  0
 13 14  2  0
 14 15  1  0
 15 16  1  0
 15 17  1  0
 17 18  1  0
 17 19  2  0
 19 20  1  0
 12 21  2  0
 21 22  1  0
  6 23  1  0
 23 24  1  0
 23 25  2  0
 25 26  1  0
 25  2  1  0
 22  7  1  0
 22 10  1  0
 19 13  1  0
M  END
>  <cnnaffinity>  (1) 
-4.94454

>  <filename>  (1) 
c1cncc(-c2nnc3sc(-c4cc[nH]n4)nn23)c1

$$$$
