
     RDKit          3D

 42 45  0  0  0  0  0  0  0  0999 V2000
    4.8153    1.3035   19.1144 C   0  0  0  0  0  0  0  0  0  0  0  0
    5.4036    1.2913   17.8442 C   0  0  0  0  0  0  0  0  0  0  0  0
    6.5603    0.6653   17.5815 N   0  0  0  0  0  0  0  0  0  0  0  0
    7.1757    0.0462   18.5949 C   0  0  0  0  0  0  0  0  0  0  0  0
    6.6751    0.0098   19.9066 C   0  0  0  0  0  0  0  0  0  0  0  0
    7.3743   -0.6585   20.9523 N   0  0  0  0  0  0  0  0  0  0  0  0
    6.7359   -1.6037   21.6915 N   0  0  0  0  0  0  0  0  0  0  0  0
    7.6604   -1.9813   22.5499 C   0  0  0  0  0  0  0  0  0  0  0  0
    7.4237   -2.9827   23.6301 C   0  0  0  0  0  0  0  0  0  0  0  0
    6.7821   -4.3104   23.1387 C   0  0  0  0  0  0  0  0  0  0  0  0
    5.2999   -4.0524   24.1709 S   0  0  0  0  0  0  0  0  0  0  0  0
    6.2878   -2.5854   24.6228 C   0  0  0  0  0  0  0  0  0  0  0  0
    5.7849   -1.6369   24.4000 H   0  0  0  0  0  0  0  0  0  0  0  0
    6.5834   -2.5725   25.6763 H   0  0  0  0  0  0  0  0  0  0  0  0
    7.3413   -5.2118   23.4053 H   0  0  0  0  0  0  0  0  0  0  0  0
    6.5570   -4.3442   22.0663 H   0  0  0  0  0  0  0  0  0  0  0  0
    8.3881   -3.1249   24.1271 H   0  0  0  0  0  0  0  0  0  0  0  0
    8.8518   -1.3463   22.4259 N   0  0  0  0  0  0  0  0  0  0  0  0
    8.6429   -0.4991   21.4318 C   0  0  0  0  0  0  0  0  0  0  0  0
    9.5490    0.5831   20.9453 C   0  0  0  0  0  0  0  0  0  0  0  0
    9.0670    1.9984   21.3144 C   0  0  0  0  0  0  0  0  0  0  0  0
    8.9335    2.2202   22.8338 C   0  0  0  0  0  0  0  0  0  0  0  0
   10.1833    2.0384   23.5566 N   0  0  0  0  0  0  0  0  0  0  0  0
   10.5088    0.9878   24.3727 C   0  0  0  0  0  0  0  0  0  0  0  0
   11.8284    1.1047   24.7429 C   0  0  0  0  0  0  0  0  0  0  0  0
   12.3378    2.2579   24.0831 C   0  0  0  0  0  0  0  0  0  0  0  0
   11.2945    2.8145   23.3877 C   0  0  0  0  0  0  0  0  0  0  0  0
   11.2358    3.7122   22.7892 H   0  0  0  0  0  0  0  0  0  0  0  0
   13.3644    2.6092   24.0422 H   0  0  0  0  0  0  0  0  0  0  0  0
   12.3614    0.4494   25.4227 H   0  0  0  0  0  0  0  0  0  0  0  0
    9.7884    0.1950   24.5175 H   0  0  0  0  0  0  0  0  0  0  0  0
    8.5628    3.2334   23.0328 H   0  0  0  0  0  0  0  0  0  0  0  0
    8.2156    1.5062   23.2546 H   0  0  0  0  0  0  0  0  0  0  0  0
    9.7766    2.7254   20.9056 H   0  0  0  0  0  0  0  0  0  0  0  0
    8.1000    2.2054   20.8398 H   0  0  0  0  0  0  0  0  0  0  0  0
    9.6098    0.4924   19.8586 H   0  0  0  0  0  0  0  0  0  0  0  0
   10.5481    0.4020   21.3550 H   0  0  0  0  0  0  0  0  0  0  0  0
    5.4520    0.6376   20.1670 C   0  0  0  0  0  0  0  0  0  0  0  0
    5.0244    0.5965   21.1686 H   0  0  0  0  0  0  0  0  0  0  0  0
    8.1144   -0.4510   18.3569 H   0  0  0  0  0  0  0  0  0  0  0  0
    4.9305    1.7961   17.0042 H   0  0  0  0  0  0  0  0  0  0  0  0
    3.8805    1.8352   19.2634 H   0  0  0  0  0  0  0  0  0  0  0  0
  1  2  2  0
  2  3  1  0
  3  4  2  0
  4  5  1  0
  5  6  1  0
  6  7  1  0
  7  8  2  0
  8  9  1  0
  9 10  1  0
 10 11  1  0
 11 12  1  0
 12 13  1  0
 12 14  1  0
 10 15  1  0
 10 16  1  0
  9 17  1  0
  8 18  1  0
 18 19  2  0
 19 20  1  0
 20 21  1  0
 21 22  1  0
 22 23  1  0
 23 24  1  0
 24 25  2  0
 25 26  1  0
 26 27  2  0
 27 28  1  0
 26 29  1  0
 25 30  1  0
 24 31  1  0
 22 32  1  0
 22 33  1  0
 21 34  1  0
 21 35  1  0
 20 36  1  0
 20 37  1  0
  5 38  2  0
 38 39  1  0
  4 40  1  0
  2 41  1  0
  1 42  1  0
 38  1  1  0
 19  6  1  0
 27 23  1  0
 12  9  1  0
M  END
>  <cnnaffinity>  (1) 
-5.94023

>  <filename>  (1) 
c1cncc(-n2nc(C3CSC3)nc2CCCn2cccc2)c1

$$$$
