
     RDKit          3D

 38 40  0  0  0  0  0  0  0  0999 V2000
    9.2867   -3.2852   21.2683 H   0  0  0  0  0  0  0  0  0  0  0  0
    8.6679   -2.4464   21.5568 C   0  0  0  0  0  0  0  0  0  0  0  0
    8.1422   -1.7296   20.5670 N   0  0  0  0  0  0  0  0  0  0  0  0
    7.3567   -0.7155   20.9265 C   0  0  0  0  0  0  0  0  0  0  0  0
    6.6297   -0.0051   19.8697 C   0  0  0  0  0  0  0  0  0  0  0  0
    7.1590    0.0219   18.5725 C   0  0  0  0  0  0  0  0  0  0  0  0
    8.0877   -0.5024   18.3624 H   0  0  0  0  0  0  0  0  0  0  0  0
    6.5887    0.6647   17.5493 N   0  0  0  0  0  0  0  0  0  0  0  0
    5.4343    1.3031   17.7954 C   0  0  0  0  0  0  0  0  0  0  0  0
    4.9848    1.8249   16.9527 H   0  0  0  0  0  0  0  0  0  0  0  0
    4.8054    1.3130   19.0455 C   0  0  0  0  0  0  0  0  0  0  0  0
    3.8696    1.8435   19.1785 H   0  0  0  0  0  0  0  0  0  0  0  0
    5.4135    0.6525   20.1099 C   0  0  0  0  0  0  0  0  0  0  0  0
    4.9497    0.6371   21.1001 H   0  0  0  0  0  0  0  0  0  0  0  0
    7.2383   -0.3276   22.2565 C   0  0  0  0  0  0  0  0  0  0  0  0
    6.7765    0.6094   22.5291 H   0  0  0  0  0  0  0  0  0  0  0  0
    7.8635   -1.1204   23.2072 C   0  0  0  0  0  0  0  0  0  0  0  0
    7.9391   -0.6776   24.6363 C   0  0  0  0  0  0  0  0  0  0  0  0
    8.0557   -1.5564   25.2786 H   0  0  0  0  0  0  0  0  0  0  0  0
    7.0106   -0.1764   24.9351 H   0  0  0  0  0  0  0  0  0  0  0  0
    9.1220    0.2872   24.8450 C   0  0  0  0  0  0  0  0  0  0  0  0
    9.1157    0.5484   25.9174 H   0  0  0  0  0  0  0  0  0  0  0  0
    9.0209    1.6214   24.0650 C   0  0  0  0  0  0  0  0  0  0  0  0
    8.0377    2.0877   24.2297 H   0  0  0  0  0  0  0  0  0  0  0  0
    9.1410    1.4612   22.9792 H   0  0  0  0  0  0  0  0  0  0  0  0
   10.1458    2.5620   24.5185 C   0  0  0  0  0  0  0  0  0  0  0  0
    9.9792    2.7873   25.5822 H   0  0  0  0  0  0  0  0  0  0  0  0
   10.1040    3.5133   23.9775 H   0  0  0  0  0  0  0  0  0  0  0  0
   11.5226    1.8977   24.3329 C   0  0  0  0  0  0  0  0  0  0  0  0
   12.3284    2.5555   24.6590 H   0  0  0  0  0  0  0  0  0  0  0  0
   11.6961    1.7139   23.2592 H   0  0  0  0  0  0  0  0  0  0  0  0
   11.5872    0.5507   25.0693 C   0  0  0  0  0  0  0  0  0  0  0  0
   11.3982    0.6972   26.1396 H   0  0  0  0  0  0  0  0  0  0  0  0
   12.5773    0.0922   24.9941 H   0  0  0  0  0  0  0  0  0  0  0  0
   10.4870   -0.3676   24.5497 C   0  0  0  0  0  0  0  0  0  0  0  0
   10.6254   -0.5094   23.4685 H   0  0  0  0  0  0  0  0  0  0  0  0
   10.5415   -1.3720   24.9835 H   0  0  0  0  0  0  0  0  0  0  0  0
    8.5293   -2.2305   22.8622 N   0  0  0  0  0  0  0  0  0  0  0  0
  1  2  1  0
  2  3  2  0
  3  4  1  0
  4  5  1  0
  5  6  2  0
  6  7  1  0
  6  8  1  0
  8  9  2  0
  9 10  1  0
  9 11  1  0
 11 12  1  0
 11 13  2  0
 13 14  1  0
  4 15  2  0
 15 16  1  0
 15 17  1  0
 17 18  1  0
 18 19  1  0
 18 20  1  0
 18 21  1  0
 21 22  1  0
 21 23  1  0
 23 24  1  0
 23 25  1  0
 23 26  1  0
 26 27  1  0
 26 28  1  0
 26 29  1  0
 29 30  1  0
 29 31  1  0
 29 32  1  0
 32 33  1  0
 32 34  1  0
 32 35  1  0
 35 36  1  0
 35 37  1  0
 17 38  2  0
 38  2  1  0
 13  5  1  0
 35 21  1  0
M  END
>  <cnnaffinity>  (1) 
-5.44149

>  <filename>  (1) 
c1cncc(-c2cc(CC3CCCCC3)ncn2)c1

$$$$
