
     RDKit          3D

 30 33  0  0  0  0  0  0  0  0999 V2000
    8.9180   -3.1669   22.1940 H   0  0  0  0  0  0  0  0  0  0  0  0
    8.3938   -2.2660   21.9065 C   0  0  0  0  0  0  0  0  0  0  0  0
    7.9743   -1.9341   20.7356 N   0  0  0  0  0  0  0  0  0  0  0  0
    7.3719   -0.7044   20.9342 C   0  0  0  0  0  0  0  0  0  0  0  0
    6.6503    0.0023   19.8903 C   0  0  0  0  0  0  0  0  0  0  0  0
    7.1684    0.0456   18.5867 C   0  0  0  0  0  0  0  0  0  0  0  0
    8.1199   -0.4356   18.3718 H   0  0  0  0  0  0  0  0  0  0  0  0
    6.5714    0.6762   17.5750 N   0  0  0  0  0  0  0  0  0  0  0  0
    5.4068    1.2935   17.8390 C   0  0  0  0  0  0  0  0  0  0  0  0
    4.9204    1.7797   16.9987 H   0  0  0  0  0  0  0  0  0  0  0  0
    4.8020    1.3092   19.1011 C   0  0  0  0  0  0  0  0  0  0  0  0
    3.8705    1.8454   19.2572 H   0  0  0  0  0  0  0  0  0  0  0  0
    5.4270    0.6473   20.1515 C   0  0  0  0  0  0  0  0  0  0  0  0
    4.9935    0.6314   21.1557 H   0  0  0  0  0  0  0  0  0  0  0  0
    7.5209   -0.3389   22.2533 C   0  0  0  0  0  0  0  0  0  0  0  0
    7.1892    0.8886   22.9327 C   0  0  0  0  0  0  0  0  0  0  0  0
    7.2552    2.1190   22.3532 C   0  0  0  0  0  0  0  0  0  0  0  0
    7.5775    2.3451   21.3421 H   0  0  0  0  0  0  0  0  0  0  0  0
    6.7816    3.4172   23.3841 S   0  0  0  0  0  0  0  0  0  0  0  0
    6.4376    2.2950   24.6781 C   0  0  0  0  0  0  0  0  0  0  0  0
    5.9725    2.5897   25.9727 C   0  0  0  0  0  0  0  0  0  0  0  0
    5.7887    3.6191   26.2721 H   0  0  0  0  0  0  0  0  0  0  0  0
    5.7518    1.5371   26.8595 C   0  0  0  0  0  0  0  0  0  0  0  0
    5.3934    1.7431   27.8663 H   0  0  0  0  0  0  0  0  0  0  0  0
    5.9825    0.1962   26.4726 C   0  0  0  0  0  0  0  0  0  0  0  0
    5.8037   -0.6149   27.1758 H   0  0  0  0  0  0  0  0  0  0  0  0
    6.4412   -0.0971   25.1962 C   0  0  0  0  0  0  0  0  0  0  0  0
    6.6214   -1.1235   24.8784 H   0  0  0  0  0  0  0  0  0  0  0  0
    6.6905    0.9597   24.2945 C   0  0  0  0  0  0  0  0  0  0  0  0
    8.1564   -1.3744   22.8830 O   0  0  0  0  0  0  0  0  0  0  0  0
  1  2  1  0
  2  3  2  0
  3  4  1  0
  4  5  1  0
  5  6  2  0
  6  7  1  0
  6  8  1  0
  8  9  2  0
  9 10  1  0
  9 11  1  0
 11 12  1  0
 11 13  2  0
 13 14  1  0
  4 15  2  0
 15 16  1  0
 16 17  2  0
 17 18  1  0
 17 19  1  0
 19 20  1  0
 20 21  2  0
 21 22  1  0
 21 23  1  0
 23 24  1  0
 23 25  2  0
 25 26  1  0
 25 27  1  0
 27 28  1  0
 27 29  2  0
 15 30  1  0
 30  2  1  0
 13  5  1  0
 29 16  1  0
 29 20  1  0
M  END
>  <cnnaffinity>  (1) 
-5.2442

>  <filename>  (1) 
c1cncc(-c2ncoc2-c2csc3ccccc23)c1

$$$$
