
     RDKit          3D

 36 39  0  0  0  0  0  0  0  0999 V2000
    5.0529    1.7157   16.6568 H   0  0  0  0  0  0  0  0  0  0  0  0
    5.4788    1.2176   17.5235 C   0  0  0  0  0  0  0  0  0  0  0  0
    6.6261    0.5546   17.3134 N   0  0  0  0  0  0  0  0  0  0  0  0
    7.1999   -0.0330   18.3678 C   0  0  0  0  0  0  0  0  0  0  0  0
    8.1185   -0.5813   18.1700 H   0  0  0  0  0  0  0  0  0  0  0  0
    6.6846    0.0331   19.6766 C   0  0  0  0  0  0  0  0  0  0  0  0
    7.4592   -0.4812   20.8215 C   0  0  0  0  0  0  0  0  0  0  0  0
    8.6540   -1.0633   20.6338 N   0  0  0  0  0  0  0  0  0  0  0  0
    9.0261   -1.3821   21.8848 N   0  0  0  0  0  0  0  0  0  0  0  0
   10.0987   -2.0816   22.4089 C   0  0  0  0  0  0  0  0  0  0  0  0
   10.8949   -2.4182   21.7666 H   0  0  0  0  0  0  0  0  0  0  0  0
    9.8446   -2.1827   23.7339 C   0  0  0  0  0  0  0  0  0  0  0  0
   10.3338   -2.7152   24.5297 H   0  0  0  0  0  0  0  0  0  0  0  0
    8.6667   -1.5291   24.0316 N   0  0  0  0  0  0  0  0  0  0  0  0
    8.1051   -1.5718   25.3067 N   0  0  0  0  0  0  0  0  0  0  0  0
    7.1255   -1.3036   25.2198 H   0  0  0  0  0  0  0  0  0  0  0  0
    8.7800   -0.6823   26.2842 C   0  0  0  0  0  0  0  0  0  0  0  0
    9.4784   -1.2806   26.8888 H   0  0  0  0  0  0  0  0  0  0  0  0
    9.3855    0.0569   25.7475 H   0  0  0  0  0  0  0  0  0  0  0  0
    7.8265    0.0690   27.2090 C   0  0  0  0  0  0  0  0  0  0  0  0
    8.0261    1.4398   27.4387 C   0  0  0  0  0  0  0  0  0  0  0  0
    8.8298    1.9771   26.9462 H   0  0  0  0  0  0  0  0  0  0  0  0
    7.1922    2.1249   28.3242 C   0  0  0  0  0  0  0  0  0  0  0  0
    7.3388    3.1921   28.5017 H   0  0  0  0  0  0  0  0  0  0  0  0
    6.1670    1.5535   28.9670 N   0  0  0  0  0  0  0  0  0  0  0  0
    5.9710    0.2425   28.7552 C   0  0  0  0  0  0  0  0  0  0  0  0
    5.1243   -0.1978   29.2806 H   0  0  0  0  0  0  0  0  0  0  0  0
    6.7739   -0.5398   27.9143 C   0  0  0  0  0  0  0  0  0  0  0  0
    6.5772   -1.6058   27.8294 H   0  0  0  0  0  0  0  0  0  0  0  0
    8.1327   -1.0439   22.8471 C   0  0  0  0  0  0  0  0  0  0  0  0
    7.0802   -0.4228   22.1821 C   0  0  0  0  0  0  0  0  0  0  0  0
    6.1768    0.0096   22.5748 H   0  0  0  0  0  0  0  0  0  0  0  0
    5.4368    0.6561   19.8552 C   0  0  0  0  0  0  0  0  0  0  0  0
    4.9449    0.6576   20.8292 H   0  0  0  0  0  0  0  0  0  0  0  0
    4.8345    1.2723   18.7630 C   0  0  0  0  0  0  0  0  0  0  0  0
    3.8943    1.8048   18.8614 H   0  0  0  0  0  0  0  0  0  0  0  0
  1  2  1  0
  2  3  2  0
  3  4  1  0
  4  5  1  0
  4  6  2  0
  6  7  1  0
  7  8  2  0
  8  9  1  0
  9 10  1  0
 10 11  1  0
 10 12  2  0
 12 13  1  0
 12 14  1  0
 14 15  1  0
 15 16  1  0
 15 17  1  0
 17 18  1  0
 17 19  1  0
 17 20  1  0
 20 21  2  0
 21 22  1  0
 21 23  1  0
 23 24  1  0
 23 25  2  0
 25 26  1  0
 26 27  1  0
 26 28  2  0
 28 29  1  0
 14 30  1  0
 30 31  2  0
 31 32  1  0
  6 33  1  0
 33 34  1  0
 33 35  2  0
 35 36  1  0
 35  2  1  0
 31  7  1  0
 30  9  1  0
 28 20  1  0
M  END
>  <cnnaffinity>  (1) 
-4.95708

>  <filename>  (1) 
c1cncc(-c2cc3n(NCc4ccncc4)ccn3n2)c1

$$$$
