
     RDKit          3D

 32 35  0  0  0  0  0  0  0  0999 V2000
    4.9495    1.8190   16.9556 H   0  0  0  0  0  0  0  0  0  0  0  0
    5.4226    1.3109   17.7943 C   0  0  0  0  0  0  0  0  0  0  0  0
    6.5830    0.6870   17.5403 N   0  0  0  0  0  0  0  0  0  0  0  0
    7.1817    0.0542   18.5527 C   0  0  0  0  0  0  0  0  0  0  0  0
    8.1225   -0.4470   18.3274 H   0  0  0  0  0  0  0  0  0  0  0  0
    6.6635    0.0071   19.8503 C   0  0  0  0  0  0  0  0  0  0  0  0
    7.3728   -0.7216   20.9046 C   0  0  0  0  0  0  0  0  0  0  0  0
    6.8715   -0.8714   22.0879 N   0  0  0  0  0  0  0  0  0  0  0  0
    7.7235   -1.5574   22.9155 C   0  0  0  0  0  0  0  0  0  0  0  0
    7.3266   -1.7768   24.3206 C   0  0  0  0  0  0  0  0  0  0  0  0
    6.0833   -2.3218   24.5856 C   0  0  0  0  0  0  0  0  0  0  0  0
    5.4216   -2.5566   23.7563 H   0  0  0  0  0  0  0  0  0  0  0  0
    5.6412   -2.5758   25.9050 C   0  0  0  0  0  0  0  0  0  0  0  0
    4.6506   -3.0116   26.0509 H   0  0  0  0  0  0  0  0  0  0  0  0
    6.4621   -2.2626   26.9646 C   0  0  0  0  0  0  0  0  0  0  0  0
    6.1811   -2.4505   27.9923 H   0  0  0  0  0  0  0  0  0  0  0  0
    7.7372   -1.6604   26.7451 C   0  0  0  0  0  0  0  0  0  0  0  0
    8.4694   -1.3337   27.8459 N   0  0  0  0  0  0  0  0  0  0  0  0
    9.5956   -0.6885   27.6851 C   0  0  0  0  0  0  0  0  0  0  0  0
   10.1135   -0.3998   28.5958 H   0  0  0  0  0  0  0  0  0  0  0  0
   10.1271   -0.3446   26.4162 C   0  0  0  0  0  0  0  0  0  0  0  0
   11.0370    0.2348   26.3829 H   0  0  0  0  0  0  0  0  0  0  0  0
    9.4425   -0.7122   25.2806 C   0  0  0  0  0  0  0  0  0  0  0  0
    9.8192   -0.4411   24.2940 H   0  0  0  0  0  0  0  0  0  0  0  0
    8.1905   -1.3993   25.4116 C   0  0  0  0  0  0  0  0  0  0  0  0
    8.8620   -2.0177   22.3270 C   0  0  0  0  0  0  0  0  0  0  0  0
    9.6275   -2.6310   22.7830 H   0  0  0  0  0  0  0  0  0  0  0  0
    8.9306   -1.4886   20.6955 S   0  0  0  0  0  0  0  0  0  0  0  0
    5.4501    0.6645   20.1077 C   0  0  0  0  0  0  0  0  0  0  0  0
    5.0268    0.6597   21.1133 H   0  0  0  0  0  0  0  0  0  0  0  0
    4.8200    1.3216   19.0566 C   0  0  0  0  0  0  0  0  0  0  0  0
    3.8836    1.8428   19.2014 H   0  0  0  0  0  0  0  0  0  0  0  0
  1  2  1  0
  2  3  2  0
  3  4  1  0
  4  5  1  0
  4  6  2  0
  6  7  1  0
  7  8  2  0
  8  9  1  0
  9 10  1  0
 10 11  2  0
 11 12  1  0
 11 13  1  0
 13 14  1  0
 13 15  2  0
 15 16  1  0
 15 17  1  0
 17 18  2  0
 18 19  1  0
 19 20  1  0
 19 21  2  0
 21 22  1  0
 21 23  1  0
 23 24  1  0
 23 25  2  0
  9 26  2  0
 26 27  1  0
 26 28  1  0
  6 29  1  0
 29 30  1  0
 29 31  2  0
 31 32  1  0
 31  2  1  0
 28  7  1  0
 25 10  1  0
 25 17  1  0
M  END
>  <cnnaffinity>  (1) 
-5.4028

>  <filename>  (1) 
c1cncc(-c2nc(-c3cccc4ncccc34)cs2)c1

$$$$
