
     RDKit          3D

 42 45  0  0  0  0  0  0  0  0999 V2000
    5.9494    1.4440   19.9473 C   0  0  0  0  0  0  0  0  0  0  0  0
    6.6508    1.0431   18.8046 C   0  0  0  0  0  0  0  0  0  0  0  0
    7.6650    0.1705   18.8290 N   0  0  0  0  0  0  0  0  0  0  0  0
    7.9904   -0.3609   20.0170 C   0  0  0  0  0  0  0  0  0  0  0  0
    7.3390   -0.0568   21.2232 C   0  0  0  0  0  0  0  0  0  0  0  0
    7.6416   -0.8052   22.5063 C   0  0  0  0  0  0  0  0  0  0  0  0
    6.6746   -1.8604   22.7782 N   0  0  0  0  0  0  0  0  0  0  0  0
    6.4708   -2.3358   24.0084 N   0  0  0  0  0  0  0  0  0  0  0  0
    5.4057   -3.1315   23.8924 C   0  0  0  0  0  0  0  0  0  0  0  0
    4.8894   -3.9550   25.0586 C   0  0  0  0  0  0  0  0  0  0  0  0
    5.4134   -3.8642   26.3651 C   0  0  0  0  0  0  0  0  0  0  0  0
    4.8469   -4.6328   27.3859 C   0  0  0  0  0  0  0  0  0  0  0  0
    3.8207   -5.4755   27.2044 N   0  0  0  0  0  0  0  0  0  0  0  0
    3.3363   -5.5845   25.9629 C   0  0  0  0  0  0  0  0  0  0  0  0
    3.8286   -4.8690   24.8704 C   0  0  0  0  0  0  0  0  0  0  0  0
    3.3945   -5.0101   23.8884 H   0  0  0  0  0  0  0  0  0  0  0  0
    2.5099   -6.2784   25.8310 H   0  0  0  0  0  0  0  0  0  0  0  0
    5.2367   -4.5698   28.3998 H   0  0  0  0  0  0  0  0  0  0  0  0
    6.2512   -3.2143   26.5957 H   0  0  0  0  0  0  0  0  0  0  0  0
    4.8240   -3.2387   22.7159 N   0  0  0  0  0  0  0  0  0  0  0  0
    5.6763   -2.4437   21.8096 C   0  0  0  0  0  0  0  0  0  0  0  0
    6.1809   -3.3243   20.8676 C   0  0  0  0  0  0  0  0  0  0  0  0
    7.1196   -4.4681   21.1872 C   0  0  0  0  0  0  0  0  0  0  0  0
    7.0501   -5.8378   20.7208 C   0  0  0  0  0  0  0  0  0  0  0  0
    6.7667   -5.9348   20.4781 C   0  0  0  0  0  0  0  0  0  0  0  0
    8.4973   -6.9195   22.5880 C   0  0  0  0  0  0  0  0  0  0  0  0
    7.3904   -7.4775   22.4134 N   0  0  0  0  0  0  0  0  0  0  0  0
    6.4169   -6.8885   21.6704 N   0  0  0  0  0  0  0  0  0  0  0  0
    5.8856   -7.5883   21.1929 H   0  0  0  0  0  0  0  0  0  0  0  0
    9.2325   -7.4712   23.2241 H   0  0  0  0  0  0  0  0  0  0  0  0
    5.8992   -5.8646   19.8215 H   0  0  0  0  0  0  0  0  0  0  0  0
    8.0594   -3.9736   20.8488 H   0  0  0  0  0  0  0  0  0  0  0  0
    7.0425   -4.3850   22.2884 H   0  0  0  0  0  0  0  0  0  0  0  0
    5.1166   -1.6079   21.2564 H   0  0  0  0  0  0  0  0  0  0  0  0
    5.9804   -3.1576   19.8274 H   0  0  0  0  0  0  0  0  0  0  0  0
    7.6085   -0.1316   23.3703 H   0  0  0  0  0  0  0  0  0  0  0  0
    8.6513   -1.2385   22.4801 H   0  0  0  0  0  0  0  0  0  0  0  0
    6.3073    0.8920   21.1807 C   0  0  0  0  0  0  0  0  0  0  0  0
    5.7728    1.1714   22.0938 H   0  0  0  0  0  0  0  0  0  0  0  0
    8.8203   -1.0687   20.0128 H   0  0  0  0  0  0  0  0  0  0  0  0
    6.3914    1.4507   17.8274 H   0  0  0  0  0  0  0  0  0  0  0  0
    5.1414    2.1656   19.8627 H   0  0  0  0  0  0  0  0  0  0  0  0
  1  2  2  0
  2  3  1  0
  3  4  2  0
  4  5  1  0
  5  6  1  0
  6  7  1  0
  7  8  1  0
  8  9  2  0
  9 10  1  0
 10 11  2  0
 11 12  1  0
 12 13  2  0
 13 14  1  0
 14 15  2  0
 15 16  1  0
 14 17  1  0
 12 18  1  0
 11 19  1  0
  9 20  1  0
 20 21  2  0
 21 22  1  0
 22 23  1  0
 23 24  1  0
 24 25  2  0
 25 26  1  0
 26 27  2  0
 27 28  1  0
 28 29  1  0
 26 30  1  0
 25 31  1  0
 23 32  1  0
 23 33  1  0
 22 34  1  0
 22 35  1  0
  6 36  1  0
  6 37  1  0
  5 38  2  0
 38 39  1  0
  4 40  1  0
  2 41  1  0
  1 42  1  0
 38  1  1  0
 21  7  1  0
 28 24  1  0
 15 10  1  0
M  END
>  <cnnaffinity>  (1) 
-5.80435

>  <filename>  (1) 
c1cncc(Cn2nc(-c3ccncc3)nc2CCc2ccn[nH]2)c1

$$$$
