
     RDKit          3D

 42 44  0  0  0  0  0  0  0  0999 V2000
    4.9706    1.8054   16.9420 H   0  0  0  0  0  0  0  0  0  0  0  0
    5.4237    1.2959   17.7922 C   0  0  0  0  0  0  0  0  0  0  0  0
    6.5805    0.6575   17.5552 N   0  0  0  0  0  0  0  0  0  0  0  0
    7.1524    0.0232   18.5900 C   0  0  0  0  0  0  0  0  0  0  0  0
    8.0943   -0.4798   18.3669 H   0  0  0  0  0  0  0  0  0  0  0  0
    6.6270   -0.0092   19.8913 C   0  0  0  0  0  0  0  0  0  0  0  0
    7.3495   -0.7484   20.9761 C   0  0  0  0  0  0  0  0  0  0  0  0
    7.1432   -2.1946   21.0107 N   0  0  0  0  0  0  0  0  0  0  0  0
    7.1347   -2.4790   20.0267 H   0  0  0  0  0  0  0  0  0  0  0  0
    5.8484   -2.5584   21.4733 O   0  0  0  0  0  0  0  0  0  0  0  0
    5.9262   -3.4352   22.6179 C   0  0  0  0  0  0  0  0  0  0  0  0
    6.5575   -4.3091   22.3950 H   0  0  0  0  0  0  0  0  0  0  0  0
    6.3788   -2.8918   23.4598 H   0  0  0  0  0  0  0  0  0  0  0  0
    4.4707   -3.8215   22.9140 C   0  0  0  0  0  0  0  0  0  0  0  0
    3.9512   -2.8832   23.0365 H   0  0  0  0  0  0  0  0  0  0  0  0
    4.0598   -4.3042   22.0129 H   0  0  0  0  0  0  0  0  0  0  0  0
    4.2023   -4.6102   24.1327 N   0  0  0  0  0  0  0  0  0  0  0  0
    3.1497   -4.0642   25.0255 C   0  0  0  0  0  0  0  0  0  0  0  0
    3.3046   -4.4990   26.0240 H   0  0  0  0  0  0  0  0  0  0  0  0
    3.3011   -2.9805   25.1390 H   0  0  0  0  0  0  0  0  0  0  0  0
    1.6897   -4.3439   24.5975 C   0  0  0  0  0  0  0  0  0  0  0  0
    1.4224   -3.7188   23.7326 H   0  0  0  0  0  0  0  0  0  0  0  0
    1.0235   -4.0516   25.4205 H   0  0  0  0  0  0  0  0  0  0  0  0
    1.4689   -5.8266   24.2538 C   0  0  0  0  0  0  0  0  0  0  0  0
    1.4582   -6.4264   25.1784 H   0  0  0  0  0  0  0  0  0  0  0  0
    0.4882   -5.9597   23.7804 H   0  0  0  0  0  0  0  0  0  0  0  0
    2.5719   -6.3291   23.3095 C   0  0  0  0  0  0  0  0  0  0  0  0
    2.4454   -7.3970   23.0963 H   0  0  0  0  0  0  0  0  0  0  0  0
    2.4818   -5.7965   22.3508 H   0  0  0  0  0  0  0  0  0  0  0  0
    3.9730   -6.0429   23.8832 C   0  0  0  0  0  0  0  0  0  0  0  0
    4.7529   -6.4168   23.2078 H   0  0  0  0  0  0  0  0  0  0  0  0
    4.0992   -6.5798   24.8360 H   0  0  0  0  0  0  0  0  0  0  0  0
    8.7675   -0.3744   21.2876 C   0  0  0  0  0  0  0  0  0  0  0  0
    9.2087    0.4673   20.7622 H   0  0  0  0  0  0  0  0  0  0  0  0
    9.4276   -1.1996   21.5270 H   0  0  0  0  0  0  0  0  0  0  0  0
    7.6747   -0.0825   22.2796 C   0  0  0  0  0  0  0  0  0  0  0  0
    7.3938    0.9597   22.4171 H   0  0  0  0  0  0  0  0  0  0  0  0
    7.6129   -0.7155   23.1579 H   0  0  0  0  0  0  0  0  0  0  0  0
    5.4209    0.6644   20.1147 C   0  0  0  0  0  0  0  0  0  0  0  0
    4.9800    0.6596   21.1142 H   0  0  0  0  0  0  0  0  0  0  0  0
    4.8060    1.3214   19.0476 C   0  0  0  0  0  0  0  0  0  0  0  0
    3.8674    1.8507   19.1723 H   0  0  0  0  0  0  0  0  0  0  0  0
  1  2  1  0
  2  3  2  0
  3  4  1  0
  4  5  1  0
  4  6  2  0
  6  7  1  0
  7  8  1  0
  8  9  1  0
  8 10  1  0
 10 11  1  0
 11 12  1  0
 11 13  1  0
 11 14  1  0
 14 15  1  0
 14 16  1  0
 14 17  1  0
 17 18  1  0
 18 19  1  0
 18 20  1  0
 18 21  1  0
 21 22  1  0
 21 23  1  0
 21 24  1  0
 24 25  1  0
 24 26  1  0
 24 27  1  0
 27 28  1  0
 27 29  1  0
 27 30  1  0
 30 31  1  0
 30 32  1  0
  7 33  1  0
 33 34  1  0
 33 35  1  0
 33 36  1  0
 36 37  1  0
 36 38  1  0
  6 39  1  0
 39 40  1  0
 39 41  2  0
 41 42  1  0
 41  2  1  0
 36  7  1  0
 30 17  1  0
M  END
>  <cnnaffinity>  (1) 
-4.49511

>  <filename>  (1) 
c1cncc(C2(NOCCN3CCCCC3)CC2)c1

$$$$
