
     RDKit          3D

 35 37  0  0  0  0  0  0  0  0999 V2000
    4.9230    1.7784   16.9980 H   0  0  0  0  0  0  0  0  0  0  0  0
    5.4037    1.2925   17.8417 C   0  0  0  0  0  0  0  0  0  0  0  0
    6.5687    0.6751   17.5833 N   0  0  0  0  0  0  0  0  0  0  0  0
    7.1650    0.0517   18.6006 C   0  0  0  0  0  0  0  0  0  0  0  0
    8.1111   -0.4364   18.3776 H   0  0  0  0  0  0  0  0  0  0  0  0
    6.6492    0.0242   19.9037 C   0  0  0  0  0  0  0  0  0  0  0  0
    7.4003   -0.7081   20.9231 C   0  0  0  0  0  0  0  0  0  0  0  0
    7.8345   -1.9372   20.7713 N   0  0  0  0  0  0  0  0  0  0  0  0
    8.4689   -2.2539   21.9453 C   0  0  0  0  0  0  0  0  0  0  0  0
    8.9377   -3.2164   22.0926 H   0  0  0  0  0  0  0  0  0  0  0  0
    8.4507   -1.1928   22.8051 C   0  0  0  0  0  0  0  0  0  0  0  0
    8.8583   -1.0582   23.7993 H   0  0  0  0  0  0  0  0  0  0  0  0
    7.7757   -0.1847   22.1308 N   0  0  0  0  0  0  0  0  0  0  0  0
    7.4988    1.1557   22.6165 C   0  0  0  0  0  0  0  0  0  0  0  0
    7.5214    1.8684   21.7856 H   0  0  0  0  0  0  0  0  0  0  0  0
    8.3104    1.4124   23.3117 H   0  0  0  0  0  0  0  0  0  0  0  0
    6.2467    1.2464   23.2327 O   0  0  0  0  0  0  0  0  0  0  0  0
    6.2509    0.9110   24.6276 C   0  0  0  0  0  0  0  0  0  0  0  0
    6.9586    0.0939   24.8284 H   0  0  0  0  0  0  0  0  0  0  0  0
    6.5945    2.1126   25.5119 C   0  0  0  0  0  0  0  0  0  0  0  0
    6.2714    3.0213   24.9957 H   0  0  0  0  0  0  0  0  0  0  0  0
    7.6745    2.2045   25.6660 H   0  0  0  0  0  0  0  0  0  0  0  0
    5.8146    1.9148   26.8288 C   0  0  0  0  0  0  0  0  0  0  0  0
    5.2941    2.8357   27.1060 H   0  0  0  0  0  0  0  0  0  0  0  0
    6.4906    1.6716   27.6531 H   0  0  0  0  0  0  0  0  0  0  0  0
    4.8185    0.7575   26.5806 C   0  0  0  0  0  0  0  0  0  0  0  0
    5.1209   -0.1310   27.1472 H   0  0  0  0  0  0  0  0  0  0  0  0
    3.8039    1.0060   26.9030 H   0  0  0  0  0  0  0  0  0  0  0  0
    4.8681    0.4672   25.0735 C   0  0  0  0  0  0  0  0  0  0  0  0
    4.1136    1.0400   24.5228 H   0  0  0  0  0  0  0  0  0  0  0  0
    4.7009   -0.5947   24.8801 H   0  0  0  0  0  0  0  0  0  0  0  0
    5.4292    0.6664   20.1648 C   0  0  0  0  0  0  0  0  0  0  0  0
    5.0104    0.6476   21.1772 H   0  0  0  0  0  0  0  0  0  0  0  0
    4.7991    1.3130   19.1048 C   0  0  0  0  0  0  0  0  0  0  0  0
    3.8667    1.8463   19.2550 H   0  0  0  0  0  0  0  0  0  0  0  0
  1  2  1  0
  2  3  2  0
  3  4  1  0
  4  5  1  0
  4  6  2  0
  6  7  1  0
  7  8  2  0
  8  9  1  0
  9 10  1  0
  9 11  2  0
 11 12  1  0
 11 13  1  0
 13 14  1  0
 14 15  1  0
 14 16  1  0
 14 17  1  0
 17 18  1  0
 18 19  1  0
 18 20  1  0
 20 21  1  0
 20 22  1  0
 20 23  1  0
 23 24  1  0
 23 25  1  0
 23 26  1  0
 26 27  1  0
 26 28  1  0
 26 29  1  0
 29 30  1  0
 29 31  1  0
  6 32  1  0
 32 33  1  0
 32 34  2  0
 34 35  1  0
 34  2  1  0
 13  7  1  0
 29 18  1  0
M  END
>  <cnnaffinity>  (1) 
-4.88686

>  <filename>  (1) 
c1cncc(-c2nccn2COC2CCCC2)c1

$$$$
