
     RDKit          3D

 29 32  0  0  0  0  0  0  0  0999 V2000
    4.9620    1.8335   16.9470 H   0  0  0  0  0  0  0  0  0  0  0  0
    5.4096    1.3009   17.7814 C   0  0  0  0  0  0  0  0  0  0  0  0
    6.5618    0.6637   17.5282 N   0  0  0  0  0  0  0  0  0  0  0  0
    7.1470    0.0090   18.5364 C   0  0  0  0  0  0  0  0  0  0  0  0
    8.0989   -0.4681   18.3065 H   0  0  0  0  0  0  0  0  0  0  0  0
    6.6146   -0.0472   19.8387 C   0  0  0  0  0  0  0  0  0  0  0  0
    7.3649   -0.6793   20.9394 C   0  0  0  0  0  0  0  0  0  0  0  0
    8.4783   -1.3947   20.7155 N   0  0  0  0  0  0  0  0  0  0  0  0
    8.8981   -1.6876   21.9643 N   0  0  0  0  0  0  0  0  0  0  0  0
   10.0705   -2.2191   22.4878 C   0  0  0  0  0  0  0  0  0  0  0  0
   10.8182   -2.6067   21.8228 H   0  0  0  0  0  0  0  0  0  0  0  0
   10.0110   -2.0279   23.8251 C   0  0  0  0  0  0  0  0  0  0  0  0
   10.7240   -2.2490   24.6071 H   0  0  0  0  0  0  0  0  0  0  0  0
    8.7961   -1.4083   24.1361 N   0  0  0  0  0  0  0  0  0  0  0  0
    8.4108   -0.9461   25.3841 C   0  0  0  0  0  0  0  0  0  0  0  0
    9.1951   -0.6736   26.3954 N   0  0  0  0  0  0  0  0  0  0  0  0
    8.3647   -0.1244   27.3412 C   0  0  0  0  0  0  0  0  0  0  0  0
    8.7448    0.2560   28.2788 H   0  0  0  0  0  0  0  0  0  0  0  0
    7.0705   -0.1027   26.9129 C   0  0  0  0  0  0  0  0  0  0  0  0
    6.1591    0.2606   27.3678 H   0  0  0  0  0  0  0  0  0  0  0  0
    7.1115   -0.6561   25.6505 N   0  0  0  0  0  0  0  0  0  0  0  0
    6.3698   -0.8464   25.0017 H   0  0  0  0  0  0  0  0  0  0  0  0
    8.1202   -1.1863   22.9359 C   0  0  0  0  0  0  0  0  0  0  0  0
    7.0714   -0.5269   22.3195 C   0  0  0  0  0  0  0  0  0  0  0  0
    6.2728    0.0482   22.7527 H   0  0  0  0  0  0  0  0  0  0  0  0
    5.3993    0.6191   20.0772 C   0  0  0  0  0  0  0  0  0  0  0  0
    4.9509    0.6398   21.0713 H   0  0  0  0  0  0  0  0  0  0  0  0
    4.7896    1.3036   19.0335 C   0  0  0  0  0  0  0  0  0  0  0  0
    3.8704    1.8571   19.1854 H   0  0  0  0  0  0  0  0  0  0  0  0
  1  2  1  0
  2  3  2  0
  3  4  1  0
  4  5  1  0
  4  6  2  0
  6  7  1  0
  7  8  2  0
  8  9  1  0
  9 10  1  0
 10 11  1  0
 10 12  2  0
 12 13  1  0
 12 14  1  0
 14 15  1  0
 15 16  2  0
 16 17  1  0
 17 18  1  0
 17 19  2  0
 19 20  1  0
 19 21  1  0
 21 22  1  0
 14 23  1  0
 23 24  2  0
 24 25  1  0
  6 26  1  0
 26 27  1  0
 26 28  2  0
 28 29  1  0
 28  2  1  0
 24  7  1  0
 23  9  1  0
 21 15  1  0
M  END
>  <cnnaffinity>  (1) 
-5.24764

>  <filename>  (1) 
c1cncc(-c2cc3n(-c4ncc[nH]4)ccn3n2)c1

$$$$
