
     RDKit          3D

 33 35  0  0  0  0  0  0  0  0999 V2000
    4.9226    1.7927   16.9851 H   0  0  0  0  0  0  0  0  0  0  0  0
    5.3928    1.2987   17.8327 C   0  0  0  0  0  0  0  0  0  0  0  0
    6.5535    0.6797   17.5695 N   0  0  0  0  0  0  0  0  0  0  0  0
    7.1553    0.0614   18.5902 C   0  0  0  0  0  0  0  0  0  0  0  0
    8.1035   -0.4195   18.3632 H   0  0  0  0  0  0  0  0  0  0  0  0
    6.6435    0.0080   19.8967 C   0  0  0  0  0  0  0  0  0  0  0  0
    7.4244   -0.6972   20.9818 C   0  0  0  0  0  0  0  0  0  0  0  0
    7.6465   -1.7363   20.7163 H   0  0  0  0  0  0  0  0  0  0  0  0
    6.8580   -0.6874   21.9155 H   0  0  0  0  0  0  0  0  0  0  0  0
    8.7184   -0.0884   21.2697 N   0  0  0  0  0  0  0  0  0  0  0  0
    9.8353   -0.7237   20.8863 N   0  0  0  0  0  0  0  0  0  0  0  0
   10.8275    0.1065   21.1616 C   0  0  0  0  0  0  0  0  0  0  0  0
   11.8381   -0.1884   20.9248 H   0  0  0  0  0  0  0  0  0  0  0  0
   10.3557    1.3184   21.6873 C   0  0  0  0  0  0  0  0  0  0  0  0
   10.9138    2.1915   22.0068 H   0  0  0  0  0  0  0  0  0  0  0  0
    8.9852    1.1630   21.7441 C   0  0  0  0  0  0  0  0  0  0  0  0
    7.9190    2.1180   22.1818 C   0  0  1  0  0  0  0  0  0  0  0  0
    7.3321    2.4276   21.3034 H   0  0  0  0  0  0  0  0  0  0  0  0
    6.9653    1.5434   23.1486 N   0  0  0  0  0  0  0  0  0  0  0  0
    7.5390    1.0180   23.7984 H   0  0  0  0  0  0  0  0  0  0  0  0
    6.3793    2.6858   23.8847 C   0  0  0  0  0  0  0  0  0  0  0  0
    5.3808    2.9051   23.4876 H   0  0  0  0  0  0  0  0  0  0  0  0
    6.2441    2.4162   24.9387 H   0  0  0  0  0  0  0  0  0  0  0  0
    7.3206    3.9065   23.6996 C   0  0  0  0  0  0  0  0  0  0  0  0
    7.6568    4.3236   24.6536 H   0  0  0  0  0  0  0  0  0  0  0  0
    6.8045    4.7178   23.1751 H   0  0  0  0  0  0  0  0  0  0  0  0
    8.4914    3.3644   22.8711 C   0  0  0  0  0  0  0  0  0  0  0  0
    8.8922    4.0781   22.1477 H   0  0  0  0  0  0  0  0  0  0  0  0
    9.3276    3.0777   23.5213 H   0  0  0  0  0  0  0  0  0  0  0  0
    5.4301    0.6521   20.1547 C   0  0  0  0  0  0  0  0  0  0  0  0
    5.0215    0.6552   21.1728 H   0  0  0  0  0  0  0  0  0  0  0  0
    4.7962    1.3159   19.0978 C   0  0  0  0  0  0  0  0  0  0  0  0
    3.8671    1.8510   19.2416 H   0  0  0  0  0  0  0  0  0  0  0  0
  1  2  1  0
  2  3  2  0
  3  4  1  0
  4  5  1  0
  4  6  2  0
  6  7  1  0
  7  8  1  0
  7  9  1  0
  7 10  1  0
 10 11  1  0
 11 12  2  0
 12 13  1  0
 12 14  1  0
 14 15  1  0
 14 16  2  0
 16 17  1  0
 17 18  1  6
 17 19  1  0
 19 20  1  0
 19 21  1  0
 21 22  1  0
 21 23  1  0
 21 24  1  0
 24 25  1  0
 24 26  1  0
 24 27  1  0
 27 28  1  0
 27 29  1  0
  6 30  1  0
 30 31  1  0
 30 32  2  0
 32 33  1  0
 32  2  1  0
 16 10  1  0
 27 17  1  0
M  END
>  <cnnaffinity>  (1) 
-4.64407

>  <filename>  (1) 
c1cncc(Cn2nccc2[C@@H]2CCCN2)c1

$$$$
