
     RDKit          3D

 29 31  0  0  0  0  0  0  0  0999 V2000
    4.9329    1.8296   16.9853 H   0  0  0  0  0  0  0  0  0  0  0  0
    5.3972    1.3104   17.8209 C   0  0  0  0  0  0  0  0  0  0  0  0
    6.5578    0.6870   17.5572 N   0  0  0  0  0  0  0  0  0  0  0  0
    7.1615    0.0415   18.5666 C   0  0  0  0  0  0  0  0  0  0  0  0
    8.1112   -0.4457   18.3449 H   0  0  0  0  0  0  0  0  0  0  0  0
    6.6403   -0.0365   19.8814 C   0  0  0  0  0  0  0  0  0  0  0  0
    7.2604   -0.7517   20.9111 N   0  0  0  0  0  0  0  0  0  0  0  0
    6.6555   -0.9940   21.6897 H   0  0  0  0  0  0  0  0  0  0  0  0
    8.6546   -0.7670   21.1625 C   0  0  0  0  0  0  0  0  0  0  0  0
    9.6795    0.0980   20.7062 C   0  0  0  0  0  0  0  0  0  0  0  0
    9.5535    0.9882   20.1107 H   0  0  0  0  0  0  0  0  0  0  0  0
   10.8892   -0.2478   21.1317 N   0  0  0  0  0  0  0  0  0  0  0  0
   10.6520   -1.3435   21.8919 N   0  0  0  0  0  0  0  0  0  0  0  0
   11.3978   -1.8614   22.3269 H   0  0  0  0  0  0  0  0  0  0  0  0
    9.3351   -1.6753   21.9590 C   0  0  0  0  0  0  0  0  0  0  0  0
    8.8658   -2.6527   22.7672 N   0  0  0  0  0  0  0  0  0  0  0  0
    9.5418   -3.5860   23.6358 C   0  0  0  0  0  0  0  0  0  0  0  0
   10.4323   -4.0313   23.1800 H   0  0  0  0  0  0  0  0  0  0  0  0
    9.8422   -3.1356   24.5942 H   0  0  0  0  0  0  0  0  0  0  0  0
    8.2290   -4.4100   23.6611 C   0  0  0  0  0  0  0  0  0  0  0  0
    8.3007   -5.3861   23.1764 H   0  0  0  0  0  0  0  0  0  0  0  0
    7.7773   -4.5208   24.6460 H   0  0  0  0  0  0  0  0  0  0  0  0
    7.5658   -3.3049   22.8021 C   0  0  0  0  0  0  0  0  0  0  0  0
    7.2129   -3.6250   21.8130 H   0  0  0  0  0  0  0  0  0  0  0  0
    6.7629   -2.7304   23.3070 H   0  0  0  0  0  0  0  0  0  0  0  0
    5.4241    0.6169   20.1313 C   0  0  0  0  0  0  0  0  0  0  0  0
    5.0053    0.6164   21.1368 H   0  0  0  0  0  0  0  0  0  0  0  0
    4.7978    1.3044   19.0868 C   0  0  0  0  0  0  0  0  0  0  0  0
    3.8658    1.8401   19.2414 H   0  0  0  0  0  0  0  0  0  0  0  0
  1  2  1  0
  2  3  2  0
  3  4  1  0
  4  5  1  0
  4  6  2  0
  6  7  1  0
  7  8  1  0
  7  9  1  0
  9 10  1  0
 10 11  1  0
 10 12  2  0
 12 13  1  0
 13 14  1  0
 13 15  1  0
 15 16  1  0
 16 17  1  0
 17 18  1  0
 17 19  1  0
 17 20  1  0
 20 21  1  0
 20 22  1  0
 20 23  1  0
 23 24  1  0
 23 25  1  0
  6 26  1  0
 26 27  1  0
 26 28  2  0
 28 29  1  0
 28  2  1  0
 15  9  2  0
 23 16  1  0
M  END
>  <cnnaffinity>  (1) 
-5.04026

>  <filename>  (1) 
c1cncc(Nc2cn[nH]c2N2CCC2)c1

$$$$
