
     RDKit          3D

 35 38  0  0  0  0  0  0  0  0999 V2000
    5.1504    1.9174   16.9869 H   0  0  0  0  0  0  0  0  0  0  0  0
    5.6547    1.3618   17.7723 C   0  0  0  0  0  0  0  0  0  0  0  0
    6.7893    0.7318   17.4180 N   0  0  0  0  0  0  0  0  0  0  0  0
    7.4300    0.0264   18.3571 C   0  0  0  0  0  0  0  0  0  0  0  0
    8.3663   -0.4611   18.0771 H   0  0  0  0  0  0  0  0  0  0  0  0
    6.9546   -0.1102   19.6709 C   0  0  0  0  0  0  0  0  0  0  0  0
    7.6437   -0.8836   20.6277 N   0  0  0  0  0  0  0  0  0  0  0  0
    8.9754   -0.7748   21.0286 C   0  0  0  0  0  0  0  0  0  0  0  0
    9.5966   -0.0111   20.5855 H   0  0  0  0  0  0  0  0  0  0  0  0
    9.2081   -1.6552   22.0406 C   0  0  0  0  0  0  0  0  0  0  0  0
   10.0616   -1.8859   22.6539 H   0  0  0  0  0  0  0  0  0  0  0  0
    8.0044   -2.3100   22.2566 N   0  0  0  0  0  0  0  0  0  0  0  0
    7.5614   -3.2655   23.1087 N   0  0  0  0  0  0  0  0  0  0  0  0
    6.2574   -3.3455   22.8112 C   0  0  0  0  0  0  0  0  0  0  0  0
    5.3302   -4.3726   23.4097 C   0  0  0  0  0  0  0  0  0  0  0  0
    4.3127   -3.9734   23.2885 H   0  0  0  0  0  0  0  0  0  0  0  0
    5.3706   -5.7470   22.7025 C   0  0  0  0  0  0  0  0  0  0  0  0
    4.9162   -5.7099   21.7078 H   0  0  0  0  0  0  0  0  0  0  0  0
    6.4134   -6.0647   22.5775 H   0  0  0  0  0  0  0  0  0  0  0  0
    4.6275   -6.7062   23.6525 C   0  0  0  0  0  0  0  0  0  0  0  0
    3.5961   -6.8715   23.3207 H   0  0  0  0  0  0  0  0  0  0  0  0
    5.1069   -7.6916   23.6755 H   0  0  0  0  0  0  0  0  0  0  0  0
    4.6289   -6.0144   25.0383 C   0  0  0  0  0  0  0  0  0  0  0  0
    3.6037   -5.7325   25.3086 H   0  0  0  0  0  0  0  0  0  0  0  0
    4.9865   -6.6780   25.8324 H   0  0  0  0  0  0  0  0  0  0  0  0
    5.4936   -4.7470   24.8913 C   0  0  0  0  0  0  0  0  0  0  0  0
    6.5500   -4.9552   25.1012 H   0  0  0  0  0  0  0  0  0  0  0  0
    5.1729   -3.9474   25.5695 H   0  0  0  0  0  0  0  0  0  0  0  0
    5.8686   -2.4525   21.7876 C   0  0  0  0  0  0  0  0  0  0  0  0
    4.8722   -2.2234   21.4846 H   0  0  0  0  0  0  0  0  0  0  0  0
    7.0516   -1.8258   21.4415 C   0  0  0  0  0  0  0  0  0  0  0  0
    5.7628    0.5379   20.0284 C   0  0  0  0  0  0  0  0  0  0  0  0
    5.3920    0.4386   21.0503 H   0  0  0  0  0  0  0  0  0  0  0  0
    5.1192    1.3110   19.0656 C   0  0  0  0  0  0  0  0  0  0  0  0
    4.2340    1.8918   19.3069 H   0  0  0  0  0  0  0  0  0  0  0  0
  1  2  1  0
  2  3  2  0
  3  4  1  0
  4  5  1  0
  4  6  2  0
  6  7  1  0
  7  8  1  0
  8  9  1  0
  8 10  2  0
 10 11  1  0
 10 12  1  0
 12 13  1  0
 13 14  2  0
 14 15  1  0
 15 16  1  0
 15 17  1  0
 17 18  1  0
 17 19  1  0
 17 20  1  0
 20 21  1  0
 20 22  1  0
 20 23  1  0
 23 24  1  0
 23 25  1  0
 23 26  1  0
 26 27  1  0
 26 28  1  0
 14 29  1  0
 29 30  1  0
 29 31  2  0
  6 32  1  0
 32 33  1  0
 32 34  2  0
 34 35  1  0
 34  2  1  0
 31  7  1  0
 31 12  1  0
 26 15  1  0
M  END
>  <cnnaffinity>  (1) 
-5.5461

>  <filename>  (1) 
c1cncc(-n2ccn3nc(C4CCCC4)cc23)c1

$$$$
