
     RDKit          3D

 29 31  0  0  0  0  0  0  0  0999 V2000
    4.9667    1.8165   16.9703 H   0  0  0  0  0  0  0  0  0  0  0  0
    5.4305    1.2871   17.7999 C   0  0  0  0  0  0  0  0  0  0  0  0
    6.5893    0.6572   17.5349 N   0  0  0  0  0  0  0  0  0  0  0  0
    7.1961    0.0272   18.5450 C   0  0  0  0  0  0  0  0  0  0  0  0
    8.1275   -0.4969   18.3366 H   0  0  0  0  0  0  0  0  0  0  0  0
    6.6845    0.0155   19.8542 C   0  0  0  0  0  0  0  0  0  0  0  0
    7.4114   -0.6482   20.8914 N   0  0  0  0  0  0  0  0  0  0  0  0
    7.9560   -1.8690   20.6941 N   0  0  0  0  0  0  0  0  0  0  0  0
    8.3878   -2.2743   21.8286 N   0  0  0  0  0  0  0  0  0  0  0  0
    8.1529   -1.3641   22.7997 N   0  0  0  0  0  0  0  0  0  0  0  0
    7.5720   -0.3433   22.2060 C   0  0  0  0  0  0  0  0  0  0  0  0
    7.0913    1.1836   22.9743 S   0  0  0  0  0  0  0  0  0  0  0  0
    8.2711    2.2760   22.3940 N   0  0  0  0  0  0  0  0  0  0  0  0
    7.9083    2.9896   21.7696 H   0  0  0  0  0  0  0  0  0  0  0  0
    9.3257    2.7319   23.3127 C   0  0  0  0  0  0  0  0  0  0  0  0
    9.9301    3.4747   22.7704 H   0  0  0  0  0  0  0  0  0  0  0  0
    8.9249    3.2324   24.2090 H   0  0  0  0  0  0  0  0  0  0  0  0
   10.2498    1.6075   23.7001 C   0  0  0  0  0  0  0  0  0  0  0  0
   10.3031    0.9709   25.3071 S   0  0  0  0  0  0  0  0  0  0  0  0
   11.5292   -0.1490   24.8791 C   0  0  0  0  0  0  0  0  0  0  0  0
   11.9679   -0.8016   25.6198 H   0  0  0  0  0  0  0  0  0  0  0  0
   11.8627   -0.0618   23.5604 C   0  0  0  0  0  0  0  0  0  0  0  0
   12.6269   -0.6942   23.1218 H   0  0  0  0  0  0  0  0  0  0  0  0
   11.1134    0.9423   22.8724 C   0  0  0  0  0  0  0  0  0  0  0  0
   11.1544    1.1712   21.8074 H   0  0  0  0  0  0  0  0  0  0  0  0
    5.4586    0.6323   20.1251 C   0  0  0  0  0  0  0  0  0  0  0  0
    5.0197    0.6164   21.1254 H   0  0  0  0  0  0  0  0  0  0  0  0
    4.8261    1.2843   19.0619 C   0  0  0  0  0  0  0  0  0  0  0  0
    3.8873    1.8044   19.2143 H   0  0  0  0  0  0  0  0  0  0  0  0
  1  2  1  0
  2  3  2  0
  3  4  1  0
  4  5  1  0
  4  6  2  0
  6  7  1  0
  7  8  1  0
  8  9  2  0
  9 10  1  0
 10 11  2  0
 11 12  1  0
 12 13  1  0
 13 14  1  0
 13 15  1  0
 15 16  1  0
 15 17  1  0
 15 18  1  0
 18 19  1  0
 19 20  1  0
 20 21  1  0
 20 22  2  0
 22 23  1  0
 22 24  1  0
 24 25  1  0
  6 26  1  0
 26 27  1  0
 26 28  2  0
 28 29  1  0
 28  2  1  0
 11  7  1  0
 24 18  2  0
M  END
>  <cnnaffinity>  (1) 
-5.44344

>  <filename>  (1) 
c1cncc(-n2nnnc2SNCc2cccs2)c1

$$$$
