
     RDKit          3D

 36 39  0  0  0  0  0  0  0  0999 V2000
    4.9101    1.7879   16.9894 H   0  0  0  0  0  0  0  0  0  0  0  0
    5.3936    1.3004   17.8288 C   0  0  0  0  0  0  0  0  0  0  0  0
    6.5598    0.6903   17.5553 N   0  0  0  0  0  0  0  0  0  0  0  0
    7.1636    0.0651   18.5704 C   0  0  0  0  0  0  0  0  0  0  0  0
    8.1200   -0.4102   18.3497 H   0  0  0  0  0  0  0  0  0  0  0  0
    6.6500    0.0105   19.8815 C   0  0  0  0  0  0  0  0  0  0  0  0
    7.3585   -0.6717   20.9632 C   0  0  0  0  0  0  0  0  0  0  0  0
    7.5293   -0.3217   22.2936 C   0  0  0  0  0  0  0  0  0  0  0  0
    7.1009    0.8577   22.9081 N   0  0  0  0  0  0  0  0  0  0  0  0
    6.9248    1.6415   22.2975 H   0  0  0  0  0  0  0  0  0  0  0  0
    7.0160    1.0686   24.2927 C   0  0  0  0  0  0  0  0  0  0  0  0
    6.3961    0.1177   25.0787 C   0  0  0  0  0  0  0  0  0  0  0  0
    6.0070   -0.7738   24.5906 H   0  0  0  0  0  0  0  0  0  0  0  0
    6.2715    0.2875   26.4821 C   0  0  0  0  0  0  0  0  0  0  0  0
    5.7768   -0.4851   27.0644 H   0  0  0  0  0  0  0  0  0  0  0  0
    6.7672    1.4145   27.0920 C   0  0  0  0  0  0  0  0  0  0  0  0
    6.6689    1.5588   28.1665 H   0  0  0  0  0  0  0  0  0  0  0  0
    7.4236    2.4225   26.3199 C   0  0  0  0  0  0  0  0  0  0  0  0
    7.9399    3.6002   26.9397 C   0  0  0  0  0  0  0  0  0  0  0  0
    7.8068    3.7116   28.0136 H   0  0  0  0  0  0  0  0  0  0  0  0
    8.5879    4.5631   26.2041 C   0  0  0  0  0  0  0  0  0  0  0  0
    8.9783    5.4578   26.6864 H   0  0  0  0  0  0  0  0  0  0  0  0
    8.7549    4.3939   24.8009 C   0  0  0  0  0  0  0  0  0  0  0  0
    9.2714    5.1581   24.2230 H   0  0  0  0  0  0  0  0  0  0  0  0
    8.2655    3.2747   24.1673 C   0  0  0  0  0  0  0  0  0  0  0  0
    8.4164    3.1442   23.0968 H   0  0  0  0  0  0  0  0  0  0  0  0
    7.5683    2.2581   24.8986 C   0  0  0  0  0  0  0  0  0  0  0  0
    8.2835   -1.3872   22.8404 C   0  0  0  0  0  0  0  0  0  0  0  0
    8.6188   -1.4536   23.8612 H   0  0  0  0  0  0  0  0  0  0  0  0
    8.5656   -2.3239   21.9428 N   0  0  0  0  0  0  0  0  0  0  0  0
    8.0076   -1.8565   20.8173 N   0  0  0  0  0  0  0  0  0  0  0  0
    8.0624   -2.3994   19.9718 H   0  0  0  0  0  0  0  0  0  0  0  0
    5.4346    0.6622   20.1467 C   0  0  0  0  0  0  0  0  0  0  0  0
    5.0180    0.6223   21.1585 H   0  0  0  0  0  0  0  0  0  0  0  0
    4.7960    1.3171   19.0954 C   0  0  0  0  0  0  0  0  0  0  0  0
    3.8657    1.8486   19.2544 H   0  0  0  0  0  0  0  0  0  0  0  0
  1  2  1  0
  2  3  2  0
  3  4  1  0
  4  5  1  0
  4  6  2  0
  6  7  1  0
  7  8  2  0
  8  9  1  0
  9 10  1  0
  9 11  1  0
 11 12  2  0
 12 13  1  0
 12 14  1  0
 14 15  1  0
 14 16  2  0
 16 17  1  0
 16 18  1  0
 18 19  2  0
 19 20  1  0
 19 21  1  0
 21 22  1  0
 21 23  2  0
 23 24  1  0
 23 25  1  0
 25 26  1  0
 25 27  2  0
  8 28  1  0
 28 29  1  0
 28 30  2  0
 30 31  1  0
 31 32  1  0
  6 33  1  0
 33 34  1  0
 33 35  2  0
 35 36  1  0
 35  2  1  0
 31  7  1  0
 27 11  1  0
 27 18  1  0
M  END
>  <cnnaffinity>  (1) 
-5.41976

>  <filename>  (1) 
c1cncc(-c2[nH]ncc2Nc2cccc3ccccc23)c1

$$$$
