
     RDKit          3D

 38 41  0  0  0  0  0  0  0  0999 V2000
    4.9192    1.9888   16.4677 H   0  0  0  0  0  0  0  0  0  0  0  0
    5.3429    1.3981   17.2759 C   0  0  0  0  0  0  0  0  0  0  0  0
    6.4605    0.7179   16.9860 N   0  0  0  0  0  0  0  0  0  0  0  0
    7.0483    0.0362   17.9756 C   0  0  0  0  0  0  0  0  0  0  0  0
    7.9495   -0.5137   17.7077 H   0  0  0  0  0  0  0  0  0  0  0  0
    6.5609    0.0180   19.2960 C   0  0  0  0  0  0  0  0  0  0  0  0
    7.3537   -0.5672   20.3874 C   0  0  0  0  0  0  0  0  0  0  0  0
    8.5323   -1.1458   20.1207 N   0  0  0  0  0  0  0  0  0  0  0  0
    8.9886   -1.4671   21.3453 N   0  0  0  0  0  0  0  0  0  0  0  0
   10.1374   -2.0537   21.8418 C   0  0  0  0  0  0  0  0  0  0  0  0
   10.9159   -2.3510   21.1616 H   0  0  0  0  0  0  0  0  0  0  0  0
    9.9817   -2.0726   23.1940 C   0  0  0  0  0  0  0  0  0  0  0  0
   10.6117   -2.5086   23.9545 H   0  0  0  0  0  0  0  0  0  0  0  0
    8.7674   -1.4679   23.5288 N   0  0  0  0  0  0  0  0  0  0  0  0
    8.2939   -0.9746   24.8263 C   0  0  0  0  0  0  0  0  0  0  0  0
    7.2064   -0.8320   24.7278 H   0  0  0  0  0  0  0  0  0  0  0  0
    8.4996   -2.0221   25.9220 C   0  0  0  0  0  0  0  0  0  0  0  0
    9.5704   -2.2467   26.0061 H   0  0  0  0  0  0  0  0  0  0  0  0
    8.0003   -2.9532   25.6317 H   0  0  0  0  0  0  0  0  0  0  0  0
    8.0112   -1.5355   27.2934 C   0  0  0  0  0  0  0  0  0  0  0  0
    8.2335   -2.3264   28.0040 H   0  0  0  0  0  0  0  0  0  0  0  0
    6.9167   -1.4053   27.3122 H   0  0  0  0  0  0  0  0  0  0  0  0
    8.6647   -0.1975   27.6832 C   0  0  0  0  0  0  0  0  0  0  0  0
    8.3147    0.1612   28.6606 H   0  0  0  0  0  0  0  0  0  0  0  0
    9.7551   -0.3213   27.7854 H   0  0  0  0  0  0  0  0  0  0  0  0
    8.3588    0.8473   26.5975 C   0  0  0  0  0  0  0  0  0  0  0  0
    8.7513    1.8343   26.8738 H   0  0  0  0  0  0  0  0  0  0  0  0
    7.2630    0.9541   26.5220 H   0  0  0  0  0  0  0  0  0  0  0  0
    8.8878    0.4046   25.2192 C   0  0  0  0  0  0  0  0  0  0  0  0
    8.6023    1.1438   24.4619 H   0  0  0  0  0  0  0  0  0  0  0  0
    9.9897    0.3619   25.2350 H   0  0  0  0  0  0  0  0  0  0  0  0
    8.1615   -1.1129   22.3476 C   0  0  0  0  0  0  0  0  0  0  0  0
    7.0518   -0.5227   21.7734 C   0  0  0  0  0  0  0  0  0  0  0  0
    6.1691   -0.1296   22.2456 H   0  0  0  0  0  0  0  0  0  0  0  0
    5.3451    0.6640   19.5560 C   0  0  0  0  0  0  0  0  0  0  0  0
    4.8977    0.6201   20.5490 H   0  0  0  0  0  0  0  0  0  0  0  0
    4.7303    1.3761   18.5327 C   0  0  0  0  0  0  0  0  0  0  0  0
    3.8162    1.9310   18.7081 H   0  0  0  0  0  0  0  0  0  0  0  0
  1  2  1  0
  2  3  2  0
  3  4  1  0
  4  5  1  0
  4  6  2  0
  6  7  1  0
  7  8  2  0
  8  9  1  0
  9 10  1  0
 10 11  1  0
 10 12  2  0
 12 13  1  0
 12 14  1  0
 14 15  1  0
 15 16  1  0
 15 17  1  0
 17 18  1  0
 17 19  1  0
 17 20  1  0
 20 21  1  0
 20 22  1  0
 20 23  1  0
 23 24  1  0
 23 25  1  0
 23 26  1  0
 26 27  1  0
 26 28  1  0
 26 29  1  0
 29 30  1  0
 29 31  1  0
 14 32  1  0
 32 33  2  0
 33 34  1  0
  6 35  1  0
 35 36  1  0
 35 37  2  0
 37 38  1  0
 37  2  1  0
 33  7  1  0
 32  9  1  0
 29 15  1  0
M  END
>  <cnnaffinity>  (1) 
-5.47035

>  <filename>  (1) 
c1cncc(-c2cc3n(C4CCCCC4)ccn3n2)c1

$$$$
