
     RDKit          3D

 42 45  0  0  0  0  0  0  0  0999 V2000
    4.8128    1.3947   18.9945 C   0  0  0  0  0  0  0  0  0  0  0  0
    5.4395    1.3267   17.7486 C   0  0  0  0  0  0  0  0  0  0  0  0
    6.5772    0.6393   17.5426 N   0  0  0  0  0  0  0  0  0  0  0  0
    7.1356    0.0167   18.5864 C   0  0  0  0  0  0  0  0  0  0  0  0
    6.6242    0.0981   19.8947 C   0  0  0  0  0  0  0  0  0  0  0  0
    7.3246   -0.5130   20.9717 N   0  0  0  0  0  0  0  0  0  0  0  0
    7.6808   -1.8219   20.8825 N   0  0  0  0  0  0  0  0  0  0  0  0
    8.1373   -2.0899   22.0942 C   0  0  0  0  0  0  0  0  0  0  0  0
    8.6409   -3.4612   22.4763 C   0  0  0  0  0  0  0  0  0  0  0  0
    7.7777   -4.6308   21.9428 C   0  0  0  0  0  0  0  0  0  0  0  0
    8.1589   -5.8369   22.8120 C   0  0  0  0  0  0  0  0  0  0  0  0
    8.6136   -5.2700   24.1755 C   0  0  0  0  0  0  0  0  0  0  0  0
    8.7522   -3.7368   23.9977 C   0  0  0  0  0  0  0  0  0  0  0  0
    9.6990   -3.3486   24.3943 H   0  0  0  0  0  0  0  0  0  0  0  0
    7.9459   -3.2096   24.5220 H   0  0  0  0  0  0  0  0  0  0  0  0
    7.8828   -5.5062   24.9584 H   0  0  0  0  0  0  0  0  0  0  0  0
    9.5575   -5.7332   24.4900 H   0  0  0  0  0  0  0  0  0  0  0  0
    8.9814   -6.4049   22.3632 H   0  0  0  0  0  0  0  0  0  0  0  0
    7.3225   -6.5359   22.9141 H   0  0  0  0  0  0  0  0  0  0  0  0
    6.7156   -4.3746   22.0906 H   0  0  0  0  0  0  0  0  0  0  0  0
    7.9321   -4.8256   20.8756 H   0  0  0  0  0  0  0  0  0  0  0  0
    9.6504   -3.4811   22.0495 H   0  0  0  0  0  0  0  0  0  0  0  0
    8.1579   -1.0247   22.9373 N   0  0  0  0  0  0  0  0  0  0  0  0
    7.6742   -0.0414   22.2063 C   0  0  0  0  0  0  0  0  0  0  0  0
    7.6471    1.3943   22.6139 C   0  0  0  0  0  0  0  0  0  0  0  0
    8.5753    2.3227   21.7926 C   0  0  0  0  0  0  0  0  0  0  0  0
    8.4962    3.7372   22.2900 C   0  0  0  0  0  0  0  0  0  0  0  0
    7.4570    4.6101   22.1741 C   0  0  0  0  0  0  0  0  0  0  0  0
    7.6044    5.8346   22.7921 N   0  0  0  0  0  0  0  0  0  0  0  0
    8.7582    5.9042   23.3740 C   0  0  0  0  0  0  0  0  0  0  0  0
    9.7513    4.4943   23.2076 S   0  0  0  0  0  0  0  0  0  0  0  0
    9.1198    6.7831   23.9036 H   0  0  0  0  0  0  0  0  0  0  0  0
    6.5499    4.4152   21.6055 H   0  0  0  0  0  0  0  0  0  0  0  0
    9.6131    1.9654   21.8478 H   0  0  0  0  0  0  0  0  0  0  0  0
    8.2787    2.2980   20.7360 H   0  0  0  0  0  0  0  0  0  0  0  0
    6.6158    1.7593   22.5696 H   0  0  0  0  0  0  0  0  0  0  0  0
    7.9437    1.4252   23.6658 H   0  0  0  0  0  0  0  0  0  0  0  0
    5.4154    0.7785   20.0955 C   0  0  0  0  0  0  0  0  0  0  0  0
    4.9419    0.7942   21.0765 H   0  0  0  0  0  0  0  0  0  0  0  0
    8.0276   -0.5692   18.3788 H   0  0  0  0  0  0  0  0  0  0  0  0
    5.0104    1.8263   16.8816 H   0  0  0  0  0  0  0  0  0  0  0  0
    3.8676    1.9168   19.0923 H   0  0  0  0  0  0  0  0  0  0  0  0
  1  2  2  0
  2  3  1  0
  3  4  2  0
  4  5  1  0
  5  6  1  0
  6  7  1  0
  7  8  2  0
  8  9  1  0
  9 10  1  0
 10 11  1  0
 11 12  1  0
 12 13  1  0
 13 14  1  0
 13 15  1  0
 12 16  1  0
 12 17  1  0
 11 18  1  0
 11 19  1  0
 10 20  1  0
 10 21  1  0
  9 22  1  0
  8 23  1  0
 23 24  2  0
 24 25  1  0
 25 26  1  0
 26 27  1  0
 27 28  2  0
 28 29  1  0
 29 30  2  0
 30 31  1  0
 30 32  1  0
 28 33  1  0
 26 34  1  0
 26 35  1  0
 25 36  1  0
 25 37  1  0
  5 38  2  0
 38 39  1  0
  4 40  1  0
  2 41  1  0
  1 42  1  0
 38  1  1  0
 24  6  1  0
 31 27  1  0
 13  9  1  0
M  END
>  <cnnaffinity>  (1) 
-5.69309

>  <filename>  (1) 
c1cncc(-n2nc(C3CCCC3)nc2CCc2cncs2)c1

$$$$
