
     RDKit          3D

 33 36  0  0  0  0  0  0  0  0999 V2000
    4.9297    1.8481   16.9491 H   0  0  0  0  0  0  0  0  0  0  0  0
    5.3932    1.3183   17.7771 C   0  0  0  0  0  0  0  0  0  0  0  0
    6.5509    0.6941   17.5026 N   0  0  0  0  0  0  0  0  0  0  0  0
    7.1639    0.0643   18.5112 C   0  0  0  0  0  0  0  0  0  0  0  0
    8.1111   -0.4244   18.2816 H   0  0  0  0  0  0  0  0  0  0  0  0
    6.6660    0.0178   19.8299 C   0  0  0  0  0  0  0  0  0  0  0  0
    7.4136   -0.6448   20.9158 C   0  0  0  0  0  0  0  0  0  0  0  0
    8.7333   -1.7395   20.6241 S   0  0  0  0  0  0  0  0  0  0  0  0
    8.9012   -2.0819   22.2918 C   0  0  0  0  0  0  0  0  0  0  0  0
    9.6162   -2.8037   22.6574 H   0  0  0  0  0  0  0  0  0  0  0  0
    8.0570   -1.3323   23.0566 C   0  0  0  0  0  0  0  0  0  0  0  0
    8.0855   -1.2672   24.5250 C   0  0  0  0  0  0  0  0  0  0  0  0
    8.3158   -0.0433   25.1278 C   0  0  0  0  0  0  0  0  0  0  0  0
    8.3823    0.8374   24.4916 H   0  0  0  0  0  0  0  0  0  0  0  0
    8.5671    0.0736   26.5112 C   0  0  0  0  0  0  0  0  0  0  0  0
    8.7421    1.0624   26.9381 H   0  0  0  0  0  0  0  0  0  0  0  0
    8.5753   -1.0697   27.2847 C   0  0  0  0  0  0  0  0  0  0  0  0
    8.8644   -1.1075   28.3231 H   0  0  0  0  0  0  0  0  0  0  0  0
    8.1898   -2.3233   26.7320 C   0  0  0  0  0  0  0  0  0  0  0  0
    8.0725   -3.3758   27.6002 N   0  0  0  0  0  0  0  0  0  0  0  0
    7.6844   -4.5267   27.1125 C   0  0  0  0  0  0  0  0  0  0  0  0
    7.5620   -5.3466   27.8183 H   0  0  0  0  0  0  0  0  0  0  0  0
    7.4199   -4.7617   25.7349 C   0  0  0  0  0  0  0  0  0  0  0  0
    7.1405   -5.7556   25.4123 H   0  0  0  0  0  0  0  0  0  0  0  0
    7.5374   -3.7262   24.8445 C   0  0  0  0  0  0  0  0  0  0  0  0
    7.3264   -3.8626   23.7824 H   0  0  0  0  0  0  0  0  0  0  0  0
    7.9315   -2.4401   25.3323 C   0  0  0  0  0  0  0  0  0  0  0  0
    7.2229   -0.4981   22.2560 C   0  0  0  0  0  0  0  0  0  0  0  0
    6.5223    0.1968   22.7079 H   0  0  0  0  0  0  0  0  0  0  0  0
    5.4348    0.6484   20.0820 C   0  0  0  0  0  0  0  0  0  0  0  0
    4.9965    0.6232   21.0797 H   0  0  0  0  0  0  0  0  0  0  0  0
    4.7899    1.3135   19.0393 C   0  0  0  0  0  0  0  0  0  0  0  0
    3.8582    1.8466   19.1993 H   0  0  0  0  0  0  0  0  0  0  0  0
  1  2  1  0
  2  3  2  0
  3  4  1  0
  4  5  1  0
  4  6  2  0
  6  7  1  0
  7  8  1  0
  8  9  1  0
  9 10  1  0
  9 11  2  0
 11 12  1  0
 12 13  2  0
 13 14  1  0
 13 15  1  0
 15 16  1  0
 15 17  2  0
 17 18  1  0
 17 19  1  0
 19 20  2  0
 20 21  1  0
 21 22  1  0
 21 23  2  0
 23 24  1  0
 23 25  1  0
 25 26  1  0
 25 27  2  0
 11 28  1  0
 28 29  1  0
  6 30  1  0
 30 31  1  0
 30 32  2  0
 32 33  1  0
 32  2  1  0
 28  7  2  0
 27 12  1  0
 27 19  1  0
M  END
>  <cnnaffinity>  (1) 
-5.44821

>  <filename>  (1) 
c1cncc(-c2cc(-c3cccc4ncccc34)cs2)c1

$$$$
