
     RDKit          3D

 32 35  0  0  0  0  0  0  0  0999 V2000
    4.9136    1.8102   16.9652 H   0  0  0  0  0  0  0  0  0  0  0  0
    5.4043    1.3082   17.8053 C   0  0  0  0  0  0  0  0  0  0  0  0
    6.5646    0.6853   17.5492 N   0  0  0  0  0  0  0  0  0  0  0  0
    7.1747    0.0679   18.5713 C   0  0  0  0  0  0  0  0  0  0  0  0
    8.1142   -0.4180   18.3215 H   0  0  0  0  0  0  0  0  0  0  0  0
    6.7003    0.0298   19.9041 C   0  0  0  0  0  0  0  0  0  0  0  0
    7.4587   -0.6434   20.9995 C   0  0  0  0  0  0  0  0  0  0  0  0
    7.4984   -0.2809   22.4017 C   0  0  0  0  0  0  0  0  0  0  0  0
    7.0387    0.9537   23.0662 C   0  0  0  0  0  0  0  0  0  0  0  0
    7.3600    2.1893   22.5248 C   0  0  0  0  0  0  0  0  0  0  0  0
    7.9370    2.2550   21.6061 H   0  0  0  0  0  0  0  0  0  0  0  0
    6.9490    3.3904   23.1515 C   0  0  0  0  0  0  0  0  0  0  0  0
    7.2139    4.3410   22.6935 H   0  0  0  0  0  0  0  0  0  0  0  0
    6.2259    3.3528   24.3228 C   0  0  0  0  0  0  0  0  0  0  0  0
    5.8828    4.2512   24.8261 H   0  0  0  0  0  0  0  0  0  0  0  0
    5.8639    2.1121   24.9160 C   0  0  0  0  0  0  0  0  0  0  0  0
    5.1301    2.1512   26.0789 N   0  0  0  0  0  0  0  0  0  0  0  0
    4.7680    1.0090   26.6097 C   0  0  0  0  0  0  0  0  0  0  0  0
    4.1710    1.0611   27.5219 H   0  0  0  0  0  0  0  0  0  0  0  0
    5.0898   -0.2632   26.0594 C   0  0  0  0  0  0  0  0  0  0  0  0
    4.7320   -1.1593   26.5486 H   0  0  0  0  0  0  0  0  0  0  0  0
    5.8394   -0.3288   24.9109 C   0  0  0  0  0  0  0  0  0  0  0  0
    6.1203   -1.2850   24.4652 H   0  0  0  0  0  0  0  0  0  0  0  0
    6.2669    0.8863   24.2807 C   0  0  0  0  0  0  0  0  0  0  0  0
    8.1582   -1.1694   23.1142 N   0  0  0  0  0  0  0  0  0  0  0  0
    8.6120   -2.0987   22.2351 O   0  0  0  0  0  0  0  0  0  0  0  0
    8.2181   -1.7781   21.0035 C   0  0  0  0  0  0  0  0  0  0  0  0
    8.6287   -2.4747   20.2985 H   0  0  0  0  0  0  0  0  0  0  0  0
    5.4696    0.6707   20.1364 C   0  0  0  0  0  0  0  0  0  0  0  0
    5.0400    0.6885   21.1390 H   0  0  0  0  0  0  0  0  0  0  0  0
    4.8204    1.3126   19.0756 C   0  0  0  0  0  0  0  0  0  0  0  0
    3.8728    1.8163   19.2172 H   0  0  0  0  0  0  0  0  0  0  0  0
  1  2  1  0
  2  3  2  0
  3  4  1  0
  4  5  1  0
  4  6  2  0
  6  7  1  0
  7  8  1  0
  8  9  1  0
  9 10  2  0
 10 11  1  0
 10 12  1  0
 12 13  1  0
 12 14  2  0
 14 15  1  0
 14 16  1  0
 16 17  2  0
 17 18  1  0
 18 19  1  0
 18 20  2  0
 20 21  1  0
 20 22  1  0
 22 23  1  0
 22 24  2  0
  8 25  2  0
 25 26  1  0
 26 27  1  0
 27 28  1  0
  6 29  1  0
 29 30  1  0
 29 31  2  0
 31 32  1  0
 31  2  1  0
 27  7  2  0
 24  9  1  0
 24 16  1  0
M  END
>  <cnnaffinity>  (1) 
-4.6324

>  <filename>  (1) 
c1cncc(-c2conc2-c2cccc3ncccc23)c1

$$$$
