
     RDKit          3D

 50 53  0  0  0  0  0  0  0  0999 V2000
    4.8159    1.3043   19.0983 C   0  0  0  0  0  0  0  0  0  0  0  0
    5.4140    1.3015   17.8335 C   0  0  0  0  0  0  0  0  0  0  0  0
    6.5598    0.6543   17.5681 N   0  0  0  0  0  0  0  0  0  0  0  0
    7.1662    0.0182   18.5781 C   0  0  0  0  0  0  0  0  0  0  0  0
    6.6645   -0.0039   19.8938 C   0  0  0  0  0  0  0  0  0  0  0  0
    7.3603   -0.6478   20.9600 N   0  0  0  0  0  0  0  0  0  0  0  0
    6.7424   -1.5884   21.7267 N   0  0  0  0  0  0  0  0  0  0  0  0
    7.6879   -1.9636   22.5647 C   0  0  0  0  0  0  0  0  0  0  0  0
    7.4228   -2.9460   23.6781 C   0  0  0  0  0  0  0  0  0  0  0  0
    7.0019   -2.1807   24.9802 C   0  0  0  0  0  0  0  0  0  0  0  0
    7.3053   -2.9771   26.2577 C   0  0  0  0  0  0  0  0  0  0  0  0
    8.8198   -3.2711   26.4044 C   0  0  0  0  0  0  0  0  0  0  0  0
    9.5490   -3.3998   25.0427 C   0  0  0  0  0  0  0  0  0  0  0  0
    8.6174   -3.9113   23.9303 C   0  0  0  0  0  0  0  0  0  0  0  0
    9.1782   -4.0693   23.0034 H   0  0  0  0  0  0  0  0  0  0  0  0
    8.2252   -4.8997   24.2142 H   0  0  0  0  0  0  0  0  0  0  0  0
   10.4180   -4.0593   25.1409 H   0  0  0  0  0  0  0  0  0  0  0  0
    9.9401   -2.4159   24.7430 H   0  0  0  0  0  0  0  0  0  0  0  0
    8.9425   -4.1924   26.9882 H   0  0  0  0  0  0  0  0  0  0  0  0
    9.3037   -2.4764   26.9870 H   0  0  0  0  0  0  0  0  0  0  0  0
    6.7490   -3.9235   26.2341 H   0  0  0  0  0  0  0  0  0  0  0  0
    6.9407   -2.4358   27.1385 H   0  0  0  0  0  0  0  0  0  0  0  0
    7.5545   -1.2286   25.0366 H   0  0  0  0  0  0  0  0  0  0  0  0
    5.9403   -1.9159   24.9204 H   0  0  0  0  0  0  0  0  0  0  0  0
    6.5710   -3.5376   23.3277 H   0  0  0  0  0  0  0  0  0  0  0  0
    8.8768   -1.3195   22.4048 N   0  0  0  0  0  0  0  0  0  0  0  0
    8.6309   -0.4699   21.4249 C   0  0  0  0  0  0  0  0  0  0  0  0
    9.5081    0.6309   20.9453 C   0  0  0  0  0  0  0  0  0  0  0  0
    9.0091    2.0308   21.3469 C   0  0  0  0  0  0  0  0  0  0  0  0
    8.8658    2.2008   22.8776 C   0  0  0  0  0  0  0  0  0  0  0  0
   10.1607    1.9208   23.5993 C   0  0  0  0  0  0  0  0  0  0  0  0
   10.3539    0.7885   24.4228 C   0  0  0  0  0  0  0  0  0  0  0  0
   11.5555    0.4392   24.9256 N   0  0  0  0  0  0  0  0  0  0  0  0
   12.5698    1.2667   24.6197 C   0  0  0  0  0  0  0  0  0  0  0  0
   12.3759    2.4354   23.8634 C   0  0  0  0  0  0  0  0  0  0  0  0
   11.1809    2.7676   23.3510 N   0  0  0  0  0  0  0  0  0  0  0  0
   13.1989    3.1114   23.6474 H   0  0  0  0  0  0  0  0  0  0  0  0
   13.5601    0.9949   24.9727 H   0  0  0  0  0  0  0  0  0  0  0  0
    9.4978    0.1564   24.6383 H   0  0  0  0  0  0  0  0  0  0  0  0
    8.0808    1.5321   23.2517 H   0  0  0  0  0  0  0  0  0  0  0  0
    8.5444    3.2211   23.1087 H   0  0  0  0  0  0  0  0  0  0  0  0
    8.0567    2.2519   20.8507 H   0  0  0  0  0  0  0  0  0  0  0  0
    9.7325    2.7642   20.9797 H   0  0  0  0  0  0  0  0  0  0  0  0
   10.5137    0.4693   21.3443 H   0  0  0  0  0  0  0  0  0  0  0  0
    9.5793    0.5526   19.8585 H   0  0  0  0  0  0  0  0  0  0  0  0
    5.4413    0.6257   20.1464 C   0  0  0  0  0  0  0  0  0  0  0  0
    5.0149    0.5726   21.1492 H   0  0  0  0  0  0  0  0  0  0  0  0
    8.0955   -0.4990   18.3318 H   0  0  0  0  0  0  0  0  0  0  0  0
    4.9566    1.8334   17.0034 H   0  0  0  0  0  0  0  0  0  0  0  0
    3.8827    1.8364   19.2492 H   0  0  0  0  0  0  0  0  0  0  0  0
  1  2  2  0
  2  3  1  0
  3  4  2  0
  4  5  1  0
  5  6  1  0
  6  7  1  0
  7  8  2  0
  8  9  1  0
  9 10  1  0
 10 11  1  0
 11 12  1  0
 12 13  1  0
 13 14  1  0
 14 15  1  0
 14 16  1  0
 13 17  1  0
 13 18  1  0
 12 19  1  0
 12 20  1  0
 11 21  1  0
 11 22  1  0
 10 23  1  0
 10 24  1  0
  9 25  1  0
  8 26  1  0
 26 27  2  0
 27 28  1  0
 28 29  1  0
 29 30  1  0
 30 31  1  0
 31 32  2  0
 32 33  1  0
 33 34  2  0
 34 35  1  0
 35 36  2  0
 35 37  1  0
 34 38  1  0
 32 39  1  0
 30 40  1  0
 30 41  1  0
 29 42  1  0
 29 43  1  0
 28 44  1  0
 28 45  1  0
  5 46  2  0
 46 47  1  0
  4 48  1  0
  2 49  1  0
  1 50  1  0
 46  1  1  0
 27  6  1  0
 36 31  1  0
 14  9  1  0
M  END
>  <cnnaffinity>  (1) 
-6.46685

>  <filename>  (1) 
c1cncc(-n2nc(C3CCCCC3)nc2CCCc2cnccn2)c1

$$$$
