
     RDKit          3D

 38 41  0  0  0  0  0  0  0  0999 V2000
    4.7930    1.3651   18.9469 C   0  0  0  0  0  0  0  0  0  0  0  0
    5.4565    1.3003   17.7194 C   0  0  0  0  0  0  0  0  0  0  0  0
    6.5850    0.5906   17.5300 N   0  0  0  0  0  0  0  0  0  0  0  0
    7.1094   -0.0500   18.5808 C   0  0  0  0  0  0  0  0  0  0  0  0
    6.5616    0.0353   19.8766 C   0  0  0  0  0  0  0  0  0  0  0  0
    7.2136   -0.5591   20.9898 N   0  0  0  0  0  0  0  0  0  0  0  0
    7.7744   -1.7941   20.8814 N   0  0  0  0  0  0  0  0  0  0  0  0
    8.1411   -2.0603   22.1160 C   0  0  0  0  0  0  0  0  0  0  0  0
    8.9405   -3.2590   22.4766 C   0  0  0  0  0  0  0  0  0  0  0  0
   10.3025   -2.9189   23.1572 C   0  0  0  0  0  0  0  0  0  0  0  0
   10.0349   -4.1861   24.4377 S   0  0  0  0  0  0  0  0  0  0  0  0
    8.4139   -4.1966   23.6011 C   0  0  0  0  0  0  0  0  0  0  0  0
    7.6320   -3.7707   24.2396 H   0  0  0  0  0  0  0  0  0  0  0  0
    8.1168   -5.2000   23.2743 H   0  0  0  0  0  0  0  0  0  0  0  0
   10.3110   -1.9141   23.5990 H   0  0  0  0  0  0  0  0  0  0  0  0
   11.2099   -3.0494   22.5556 H   0  0  0  0  0  0  0  0  0  0  0  0
    9.0401   -3.8072   21.5445 H   0  0  0  0  0  0  0  0  0  0  0  0
    7.8689   -1.0944   23.0199 N   0  0  0  0  0  0  0  0  0  0  0  0
    7.3555   -0.1261   22.2834 C   0  0  0  0  0  0  0  0  0  0  0  0
    7.1428    1.2565   22.8108 C   0  0  0  0  0  0  0  0  0  0  0  0
    8.2634    1.6938   23.8021 C   0  0  0  0  0  0  0  0  0  0  0  0
    8.0048    3.0290   24.4048 C   0  0  0  0  0  0  0  0  0  0  0  0
    7.3279    3.2642   25.5016 N   0  0  0  0  0  0  0  0  0  0  0  0
    7.1747    4.6250   25.5628 C   0  0  0  0  0  0  0  0  0  0  0  0
    7.7733    5.2293   24.4924 C   0  0  0  0  0  0  0  0  0  0  0  0
    8.3119    4.1904   23.7632 N   0  0  0  0  0  0  0  0  0  0  0  0
    8.8236    4.2243   22.8965 H   0  0  0  0  0  0  0  0  0  0  0  0
    7.8394    6.2642   24.1879 H   0  0  0  0  0  0  0  0  0  0  0  0
    6.6311    5.0795   26.3787 H   0  0  0  0  0  0  0  0  0  0  0  0
    8.3448    0.9576   24.6091 H   0  0  0  0  0  0  0  0  0  0  0  0
    9.2381    1.6953   23.2989 H   0  0  0  0  0  0  0  0  0  0  0  0
    6.1795    1.2634   23.3396 H   0  0  0  0  0  0  0  0  0  0  0  0
    7.0644    1.9657   21.9756 H   0  0  0  0  0  0  0  0  0  0  0  0
    5.3493    0.7143   20.0504 C   0  0  0  0  0  0  0  0  0  0  0  0
    4.8581    0.7160   21.0224 H   0  0  0  0  0  0  0  0  0  0  0  0
    8.0028   -0.6436   18.3884 H   0  0  0  0  0  0  0  0  0  0  0  0
    5.0514    1.8124   16.8485 H   0  0  0  0  0  0  0  0  0  0  0  0
    3.8611    1.9129   19.0396 H   0  0  0  0  0  0  0  0  0  0  0  0
  1  2  2  0
  2  3  1  0
  3  4  2  0
  4  5  1  0
  5  6  1  0
  6  7  1  0
  7  8  2  0
  8  9  1  0
  9 10  1  0
 10 11  1  0
 11 12  1  0
 12 13  1  0
 12 14  1  0
 10 15  1  0
 10 16  1  0
  9 17  1  0
  8 18  1  0
 18 19  2  0
 19 20  1  0
 20 21  1  0
 21 22  1  0
 22 23  2  0
 23 24  1  0
 24 25  2  0
 25 26  1  0
 26 27  1  0
 25 28  1  0
 24 29  1  0
 21 30  1  0
 21 31  1  0
 20 32  1  0
 20 33  1  0
  5 34  2  0
 34 35  1  0
  4 36  1  0
  2 37  1  0
  1 38  1  0
 34  1  1  0
 19  6  1  0
 26 22  1  0
 12  9  1  0
M  END
>  <cnnaffinity>  (1) 
-5.83289

>  <filename>  (1) 
c1cncc(-n2nc(C3CSC3)nc2CCc2ncc[nH]2)c1

$$$$
