
     RDKit          3D

 34 37  0  0  0  0  0  0  0  0999 V2000
    4.9139    1.8140   16.9706 H   0  0  0  0  0  0  0  0  0  0  0  0
    5.3822    1.3080   17.8139 C   0  0  0  0  0  0  0  0  0  0  0  0
    6.5435    0.6913   17.5485 N   0  0  0  0  0  0  0  0  0  0  0  0
    7.1495    0.0612   18.5596 C   0  0  0  0  0  0  0  0  0  0  0  0
    8.1097   -0.3915   18.3188 H   0  0  0  0  0  0  0  0  0  0  0  0
    6.6498   -0.0068   19.8746 C   0  0  0  0  0  0  0  0  0  0  0  0
    7.4108   -0.6923   20.9373 C   0  0  0  0  0  0  0  0  0  0  0  0
    7.7374   -0.2752   22.2153 C   0  0  0  0  0  0  0  0  0  0  0  0
    7.3806    1.0476   22.8780 C   0  0  0  0  0  0  0  0  0  0  0  0
    7.0260    1.7733   22.1404 H   0  0  0  0  0  0  0  0  0  0  0  0
    8.2829    1.4813   23.3298 H   0  0  0  0  0  0  0  0  0  0  0  0
    6.3139    0.9317   23.9330 C   0  0  0  0  0  0  0  0  0  0  0  0
    5.0329    1.1689   23.7862 N   0  0  0  0  0  0  0  0  0  0  0  0
    4.4673    0.8234   25.0064 C   0  0  0  0  0  0  0  0  0  0  0  0
    3.1265    0.8454   25.4222 C   0  0  0  0  0  0  0  0  0  0  0  0
    2.3594    1.1725   24.7295 H   0  0  0  0  0  0  0  0  0  0  0  0
    2.8285    0.4577   26.7260 C   0  0  0  0  0  0  0  0  0  0  0  0
    1.7937    0.4815   27.0526 H   0  0  0  0  0  0  0  0  0  0  0  0
    3.8455    0.0480   27.6228 C   0  0  0  0  0  0  0  0  0  0  0  0
    3.5739   -0.2342   28.6381 H   0  0  0  0  0  0  0  0  0  0  0  0
    5.1812    0.0049   27.2266 C   0  0  0  0  0  0  0  0  0  0  0  0
    5.9680   -0.3062   27.9112 H   0  0  0  0  0  0  0  0  0  0  0  0
    5.4616    0.3907   25.9084 C   0  0  0  0  0  0  0  0  0  0  0  0
    6.6319    0.4765   25.1836 N   0  0  0  0  0  0  0  0  0  0  0  0
    7.5503    0.2501   25.5142 H   0  0  0  0  0  0  0  0  0  0  0  0
    8.4204   -1.3788   22.7803 C   0  0  0  0  0  0  0  0  0  0  0  0
    8.8090   -1.4749   23.7896 H   0  0  0  0  0  0  0  0  0  0  0  0
    8.5342   -2.3906   21.9295 N   0  0  0  0  0  0  0  0  0  0  0  0
    7.9312   -1.9414   20.8158 N   0  0  0  0  0  0  0  0  0  0  0  0
    7.8728   -2.5330   19.9954 H   0  0  0  0  0  0  0  0  0  0  0  0
    5.4326    0.6477   20.1328 C   0  0  0  0  0  0  0  0  0  0  0  0
    5.0111    0.6437   21.1405 H   0  0  0  0  0  0  0  0  0  0  0  0
    4.7921    1.3131   19.0829 C   0  0  0  0  0  0  0  0  0  0  0  0
    3.8645    1.8494   19.2385 H   0  0  0  0  0  0  0  0  0  0  0  0
  1  2  1  0
  2  3  2  0
  3  4  1  0
  4  5  1  0
  4  6  2  0
  6  7  1  0
  7  8  2  0
  8  9  1  0
  9 10  1  0
  9 11  1  0
  9 12  1  0
 12 13  2  0
 13 14  1  0
 14 15  2  0
 15 16  1  0
 15 17  1  0
 17 18  1  0
 17 19  2  0
 19 20  1  0
 19 21  1  0
 21 22  1  0
 21 23  2  0
 23 24  1  0
 24 25  1  0
  8 26  1  0
 26 27  1  0
 26 28  2  0
 28 29  1  0
 29 30  1  0
  6 31  1  0
 31 32  1  0
 31 33  2  0
 33 34  1  0
 33  2  1  0
 29  7  1  0
 24 12  1  0
 23 14  1  0
M  END
>  <cnnaffinity>  (1) 
-5.45523

>  <filename>  (1) 
c1cncc(-c2[nH]ncc2Cc2nc3ccccc3[nH]2)c1

$$$$
