
     RDKit          3D

 28 29  0  0  0  0  0  0  0  0999 V2000
    7.2113   -2.2039   22.4326 H   0  0  0  0  0  0  0  0  0  0  0  0
    6.7296   -1.5972   21.6646 C   0  0  0  0  0  0  0  0  0  0  0  0
    5.6608   -1.7363   21.5113 H   0  0  0  0  0  0  0  0  0  0  0  0
    7.4199   -0.7022   20.9439 C   0  0  0  0  0  0  0  0  0  0  0  0
    8.9189   -0.5271   21.2869 C   0  0  0  0  0  0  0  0  0  0  0  0
    9.5247   -1.4238   21.8453 O   0  0  0  0  0  0  0  0  0  0  0  0
    9.5045    0.6722   20.9537 N   0  0  0  0  0  0  0  0  0  0  0  0
    8.8916    1.3198   20.4916 H   0  0  0  0  0  0  0  0  0  0  0  0
   10.6648    1.2196   21.5259 C   0  0  0  0  0  0  0  0  0  0  0  0
   11.2476    0.6456   22.6595 C   0  0  0  0  0  0  0  0  0  0  0  0
   10.8661   -0.2730   23.0759 H   0  0  0  0  0  0  0  0  0  0  0  0
   12.2835    1.3359   23.2857 C   0  0  0  0  0  0  0  0  0  0  0  0
   12.7053    0.9521   24.2115 H   0  0  0  0  0  0  0  0  0  0  0  0
   12.7922    2.5013   22.8640 N   0  0  0  0  0  0  0  0  0  0  0  0
   12.2701    2.9999   21.7397 C   0  0  0  0  0  0  0  0  0  0  0  0
   12.6703    3.9521   21.3802 H   0  0  0  0  0  0  0  0  0  0  0  0
   11.2327    2.3981   21.0320 C   0  0  0  0  0  0  0  0  0  0  0  0
   10.9144    2.9009   20.1411 H   0  0  0  0  0  0  0  0  0  0  0  0
    6.7188    0.0496   19.8548 C   0  0  0  0  0  0  0  0  0  0  0  0
    7.1932    0.0751   18.5276 C   0  0  0  0  0  0  0  0  0  0  0  0
    8.1184   -0.4468   18.2875 H   0  0  0  0  0  0  0  0  0  0  0  0
    6.5724    0.6869   17.5117 N   0  0  0  0  0  0  0  0  0  0  0  0
    5.4210    1.3188   17.7865 C   0  0  0  0  0  0  0  0  0  0  0  0
    4.9449    1.8291   16.9518 H   0  0  0  0  0  0  0  0  0  0  0  0
    4.8418    1.3415   19.0586 C   0  0  0  0  0  0  0  0  0  0  0  0
    3.9059    1.8652   19.2146 H   0  0  0  0  0  0  0  0  0  0  0  0
    5.4911    0.6878   20.1042 C   0  0  0  0  0  0  0  0  0  0  0  0
    5.0685    0.6692   21.1088 H   0  0  0  0  0  0  0  0  0  0  0  0
  1  2  1  0
  2  3  1  0
  2  4  2  3
  4  5  1  0
  5  6  2  0
  5  7  1  0
  7  8  1  0
  7  9  1  0
  9 10  2  0
 10 11  1  0
 10 12  1  0
 12 13  1  0
 12 14  2  0
 14 15  1  0
 15 16  1  0
 15 17  2  0
 17 18  1  0
  4 19  1  0
 19 20  2  0
 20 21  1  0
 20 22  1  0
 22 23  2  0
 23 24  1  0
 23 25  1  0
 25 26  1  0
 25 27  2  0
 27 28  1  0
 17  9  1  0
 27 19  1  0
M  END
>  <cnnaffinity>  (1) 
-4.70118

>  <filename>  (1) 
C=C(C(=O)Nc1ccncc1)c1cccnc1

$$$$
