
     RDKit          3D

 22 22  0  0  0  0  0  0  0  0999 V2000
    4.3649   -4.1511   23.3843 H   0  0  0  0  0  0  0  0  0  0  0  0
    4.9684   -3.4491   23.1127 O   0  0  0  0  0  0  0  0  0  0  0  0
    5.0542   -3.5880   21.7276 N   0  0  0  0  0  0  0  0  0  0  0  0
    5.8275   -2.7175   21.2028 C   0  0  0  0  0  0  0  0  0  0  0  0
    5.9292   -2.8043   20.1235 H   0  0  0  0  0  0  0  0  0  0  0  0
    6.6147   -1.6356   21.8984 C   0  0  0  0  0  0  0  0  0  0  0  0
    7.2839   -2.1043   22.6263 H   0  0  0  0  0  0  0  0  0  0  0  0
    5.9434   -1.0153   22.4875 H   0  0  0  0  0  0  0  0  0  0  0  0
    7.3955   -0.7279   20.9699 C   0  0  0  0  0  0  0  0  0  0  0  0
    8.7084   -0.5584   21.1232 C   0  0  0  0  0  0  0  0  0  0  0  0
    9.2484   -1.0805   21.9109 H   0  0  0  0  0  0  0  0  0  0  0  0
    9.2704    0.1156   20.4800 H   0  0  0  0  0  0  0  0  0  0  0  0
    6.6527   -0.0066   19.9074 C   0  0  0  0  0  0  0  0  0  0  0  0
    7.1703    0.0656   18.6013 C   0  0  0  0  0  0  0  0  0  0  0  0
    8.1138   -0.4308   18.3735 H   0  0  0  0  0  0  0  0  0  0  0  0
    6.5652    0.6786   17.5768 N   0  0  0  0  0  0  0  0  0  0  0  0
    5.3996    1.2932   17.8399 C   0  0  0  0  0  0  0  0  0  0  0  0
    4.9144    1.7799   16.9973 H   0  0  0  0  0  0  0  0  0  0  0  0
    4.8043    1.3117   19.1057 C   0  0  0  0  0  0  0  0  0  0  0  0
    3.8736    1.8447   19.2594 H   0  0  0  0  0  0  0  0  0  0  0  0
    5.4331    0.6426   20.1550 C   0  0  0  0  0  0  0  0  0  0  0  0
    5.0095    0.6324   21.1626 H   0  0  0  0  0  0  0  0  0  0  0  0
  1  2  1  0
  2  3  1  0
  3  4  2  3
  4  5  1  0
  4  6  1  0
  6  7  1  0
  6  8  1  0
  6  9  1  0
  9 10  2  3
 10 11  1  0
 10 12  1  0
  9 13  1  0
 13 14  2  0
 14 15  1  0
 14 16  1  0
 16 17  2  0
 17 18  1  0
 17 19  1  0
 19 20  1  0
 19 21  2  0
 21 22  1  0
 21 13  1  0
M  END
>  <cnnaffinity>  (1) 
-4.09951

>  <filename>  (1) 
C=C(CC=NO)c1cccnc1

$$$$
