
     RDKit          3D

 47 49  0  0  0  0  0  0  0  0999 V2000
    7.7295    1.9757   23.4324 C   0  0  0  0  0  0  0  0  0  0  0  0
    8.9709    1.9734   22.9286 C   0  0  0  0  0  0  0  0  0  0  0  0
   10.1810    2.0176   23.8379 C   0  0  0  0  0  0  0  0  0  0  0  0
   11.0989    2.0726   23.2465 H   0  0  0  0  0  0  0  0  0  0  0  0
   10.2366    1.1261   24.4779 H   0  0  0  0  0  0  0  0  0  0  0  0
   10.1510    2.8977   24.4948 H   0  0  0  0  0  0  0  0  0  0  0  0
    9.1951    1.8487   21.4194 C   0  0  1  0  0  0  0  0  0  0  0  0
   10.2929    2.6035   20.9502 O   0  0  0  0  0  0  0  0  0  0  0  0
   10.0574    3.5485   20.9650 H   0  0  0  0  0  0  0  0  0  0  0  0
    9.5472    0.4254   20.9582 C   0  0  0  0  0  0  0  0  0  0  0  0
    8.5885   -0.6230   21.3937 C   0  0  0  0  0  0  0  0  0  0  0  0
    8.7809   -1.4325   22.4127 N   0  0  0  0  0  0  0  0  0  0  0  0
    7.5690   -2.0256   22.5680 C   0  0  0  0  0  0  0  0  0  0  0  0
    7.3029   -2.9573   23.7120 C   0  0  0  0  0  0  0  0  0  0  0  0
    6.6033   -2.1995   24.8864 C   0  0  0  0  0  0  0  0  0  0  0  0
    5.7951   -3.1271   25.8174 C   0  0  0  0  0  0  0  0  0  0  0  0
    6.3637   -4.5370   25.8462 C   0  0  0  0  0  0  0  0  0  0  0  0
    7.6328   -4.4774   26.3765 F   0  0  0  0  0  0  0  0  0  0  0  0
    5.6371   -5.3075   26.7128 F   0  0  0  0  0  0  0  0  0  0  0  0
    6.4261   -5.2216   24.4729 C   0  0  0  0  0  0  0  0  0  0  0  0
    6.5492   -4.2358   23.2888 C   0  0  0  0  0  0  0  0  0  0  0  0
    7.0795   -4.7252   22.4649 H   0  0  0  0  0  0  0  0  0  0  0  0
    5.5579   -3.9671   22.8978 H   0  0  0  0  0  0  0  0  0  0  0  0
    5.5289   -5.8386   24.3583 H   0  0  0  0  0  0  0  0  0  0  0  0
    7.2855   -5.9014   24.5057 H   0  0  0  0  0  0  0  0  0  0  0  0
    5.7763   -2.7402   26.8415 H   0  0  0  0  0  0  0  0  0  0  0  0
    4.7565   -3.2078   25.4791 H   0  0  0  0  0  0  0  0  0  0  0  0
    7.3844   -1.6902   25.4616 H   0  0  0  0  0  0  0  0  0  0  0  0
    5.9369   -1.4124   24.5086 H   0  0  0  0  0  0  0  0  0  0  0  0
    8.2979   -3.2545   24.0611 H   0  0  0  0  0  0  0  0  0  0  0  0
    6.6449   -1.6459   21.7058 N   0  0  0  0  0  0  0  0  0  0  0  0
    7.3153   -0.7576   20.9211 N   0  0  0  0  0  0  0  0  0  0  0  0
    6.6372   -0.0565   19.8824 C   0  0  0  0  0  0  0  0  0  0  0  0
    5.4385    0.6142   20.1463 C   0  0  0  0  0  0  0  0  0  0  0  0
    4.8302    1.3157   19.1037 C   0  0  0  0  0  0  0  0  0  0  0  0
    5.4285    1.3134   17.8377 C   0  0  0  0  0  0  0  0  0  0  0  0
    6.5639    0.6496   17.5687 N   0  0  0  0  0  0  0  0  0  0  0  0
    7.1470   -0.0168   18.5711 C   0  0  0  0  0  0  0  0  0  0  0  0
    8.0557   -0.5661   18.3233 H   0  0  0  0  0  0  0  0  0  0  0  0
    4.9857    1.8592   17.0090 H   0  0  0  0  0  0  0  0  0  0  0  0
    3.9082    1.8654   19.2598 H   0  0  0  0  0  0  0  0  0  0  0  0
    5.0028    0.5573   21.1456 H   0  0  0  0  0  0  0  0  0  0  0  0
   10.5230    0.1681   21.3682 H   0  0  0  0  0  0  0  0  0  0  0  0
    9.6176    0.4566   19.8683 H   0  0  0  0  0  0  0  0  0  0  0  0
    8.2620    2.1434   20.9164 H   0  0  0  0  0  0  0  0  0  0  0  0
    6.8417    1.9716   22.8015 H   0  0  0  0  0  0  0  0  0  0  0  0
    7.5530    1.9879   24.5072 H   0  0  0  0  0  0  0  0  0  0  0  0
  1  2  2  3
  2  3  1  0
  3  4  1  0
  3  5  1  0
  3  6  1  0
  2  7  1  0
  7  8  1  0
  8  9  1  0
  7 10  1  0
 10 11  1  0
 11 12  2  0
 12 13  1  0
 13 14  1  0
 14 15  1  0
 15 16  1  0
 16 17  1  0
 17 18  1  0
 17 19  1  0
 17 20  1  0
 20 21  1  0
 21 22  1  0
 21 23  1  0
 20 24  1  0
 20 25  1  0
 16 26  1  0
 16 27  1  0
 15 28  1  0
 15 29  1  0
 14 30  1  0
 13 31  2  0
 31 32  1  0
 32 33  1  0
 33 34  2  0
 34 35  1  0
 35 36  2  0
 36 37  1  0
 37 38  2  0
 38 39  1  0
 36 40  1  0
 35 41  1  0
 34 42  1  0
 10 43  1  0
 10 44  1  0
  7 45  1  6
  1 46  1  0
  1 47  1  0
 32 11  1  0
 38 33  1  0
 21 14  1  0
M  END
>  <cnnaffinity>  (1) 
-5.93243

>  <filename>  (1) 
C=C(C)[C@@H](O)Cc1nc(C2CCC(F)(F)CC2)nn1-c1cccnc1

$$$$
