
     RDKit          3D

 28 29  0  0  0  0  0  0  0  0999 V2000
    8.0603   -2.5635   21.7240 H   0  0  0  0  0  0  0  0  0  0  0  0
    7.4870   -2.0388   20.9639 C   0  0  0  0  0  0  0  0  0  0  0  0
    7.1288   -2.6196   20.1196 H   0  0  0  0  0  0  0  0  0  0  0  0
    7.1952   -0.7408   21.0857 C   0  0  0  0  0  0  0  0  0  0  0  0
    6.5227   -0.0036   19.9756 C   0  0  0  0  0  0  0  0  0  0  0  0
    7.1090    0.0215   18.6960 C   0  0  0  0  0  0  0  0  0  0  0  0
    8.0616   -0.4854   18.5325 H   0  0  0  0  0  0  0  0  0  0  0  0
    6.5919    0.6597   17.6382 N   0  0  0  0  0  0  0  0  0  0  0  0
    5.4310    1.3051   17.8261 C   0  0  0  0  0  0  0  0  0  0  0  0
    5.0186    1.8059   16.9530 H   0  0  0  0  0  0  0  0  0  0  0  0
    4.7561    1.3505   19.0520 C   0  0  0  0  0  0  0  0  0  0  0  0
    3.8220    1.8952   19.1289 H   0  0  0  0  0  0  0  0  0  0  0  0
    5.3186    0.6953   20.1507 C   0  0  0  0  0  0  0  0  0  0  0  0
    4.8271    0.7072   21.1263 H   0  0  0  0  0  0  0  0  0  0  0  0
    7.4825    0.0020   22.3864 C   0  0  0  0  0  0  0  0  0  0  0  0
    8.1418   -0.6317   22.9888 H   0  0  0  0  0  0  0  0  0  0  0  0
    6.5398    0.0925   22.9454 H   0  0  0  0  0  0  0  0  0  0  0  0
    8.1123    1.3843   22.2805 C   0  0  0  0  0  0  0  0  0  0  0  0
    7.3346    2.5348   22.4817 C   0  0  0  0  0  0  0  0  0  0  0  0
    6.2571    2.4283   22.5652 H   0  0  0  0  0  0  0  0  0  0  0  0
    7.9083    3.8020   22.5944 C   0  0  0  0  0  0  0  0  0  0  0  0
    7.2904    4.6717   22.8059 H   0  0  0  0  0  0  0  0  0  0  0  0
    9.2897    3.9384   22.4856 C   0  0  0  0  0  0  0  0  0  0  0  0
    9.7647    4.9116   22.5735 H   0  0  0  0  0  0  0  0  0  0  0  0
   10.0885    2.8243   22.2182 C   0  0  0  0  0  0  0  0  0  0  0  0
   11.8065    3.0353   22.0938 Cl  0  0  0  0  0  0  0  0  0  0  0  0
    9.4964    1.5559   22.0784 C   0  0  0  0  0  0  0  0  0  0  0  0
   10.4797    0.1920   21.6524 Cl  0  0  0  0  0  0  0  0  0  0  0  0
  1  2  1  0
  2  3  1  0
  2  4  2  3
  4  5  1  0
  5  6  2  0
  6  7  1  0
  6  8  1  0
  8  9  2  0
  9 10  1  0
  9 11  1  0
 11 12  1  0
 11 13  2  0
 13 14  1  0
  4 15  1  0
 15 16  1  0
 15 17  1  0
 15 18  1  0
 18 19  2  0
 19 20  1  0
 19 21  1  0
 21 22  1  0
 21 23  2  0
 23 24  1  0
 23 25  1  0
 25 26  1  0
 25 27  2  0
 27 28  1  0
 13  5  1  0
 27 18  1  0
M  END
>  <cnnaffinity>  (1) 
-5.13392

>  <filename>  (1) 
C=C(Cc1cccc(Cl)c1Cl)c1cccnc1

$$$$
