
     RDKit          3D

 48 51  0  0  0  0  0  0  0  0999 V2000
    8.0125    2.8099   25.8000 C   0  0  0  0  0  0  0  0  0  0  0  0
    6.9626    3.2874   25.1199 C   0  0  0  0  0  0  0  0  0  0  0  0
    6.4465    4.6536   25.0091 C   0  0  0  0  0  0  0  0  0  0  0  0
    6.8618    5.8482   25.6124 C   0  0  0  0  0  0  0  0  0  0  0  0
    6.1706    7.0140   25.3092 C   0  0  0  0  0  0  0  0  0  0  0  0
    5.0743    7.0036   24.4173 C   0  0  0  0  0  0  0  0  0  0  0  0
    4.6569    5.8152   23.8160 C   0  0  0  0  0  0  0  0  0  0  0  0
    5.3529    4.6484   24.1217 C   0  0  0  0  0  0  0  0  0  0  0  0
    5.1586    3.2615   23.6456 C   0  0  0  0  0  0  0  0  0  0  0  0
    4.3629    2.7957   22.8470 O   0  0  0  0  0  0  0  0  0  0  0  0
    6.1175    2.5055   24.3166 N   0  0  0  0  0  0  0  0  0  0  0  0
    6.4177    1.1695   23.8752 C   0  0  0  0  0  0  0  0  0  0  0  0
    7.4549    1.2029   22.7550 C   0  0  0  0  0  0  0  0  0  0  0  0
    7.7036   -0.1427   22.1860 C   0  0  0  0  0  0  0  0  0  0  0  0
    8.2769   -1.1259   22.8560 N   0  0  0  0  0  0  0  0  0  0  0  0
    8.2851   -2.1401   21.9568 C   0  0  0  0  0  0  0  0  0  0  0  0
    8.8160   -3.5063   22.1986 C   0  0  0  0  0  0  0  0  0  0  0  0
    7.8513   -4.4880   22.8896 C   0  0  0  0  0  0  0  0  0  0  0  0
    8.4919   -5.8458   23.1610 C   0  0  0  0  0  0  0  0  0  0  0  0
    7.7574   -6.5485   23.5604 H   0  0  0  0  0  0  0  0  0  0  0  0
    8.9119   -6.2927   22.2525 H   0  0  0  0  0  0  0  0  0  0  0  0
    9.2958   -5.7622   23.8991 H   0  0  0  0  0  0  0  0  0  0  0  0
    6.9675   -4.6344   22.2555 H   0  0  0  0  0  0  0  0  0  0  0  0
    7.4918   -4.0608   23.8324 H   0  0  0  0  0  0  0  0  0  0  0  0
    8.9981   -3.8779   21.1920 H   0  0  0  0  0  0  0  0  0  0  0  0
    9.7703   -3.4239   22.7346 H   0  0  0  0  0  0  0  0  0  0  0  0
    7.7716   -1.8448   20.7814 N   0  0  0  0  0  0  0  0  0  0  0  0
    7.3523   -0.5717   20.9416 N   0  0  0  0  0  0  0  0  0  0  0  0
    6.6398    0.0802   19.9105 C   0  0  0  0  0  0  0  0  0  0  0  0
    5.4246    0.7284   20.1540 C   0  0  0  0  0  0  0  0  0  0  0  0
    4.7835    1.3370   19.0706 C   0  0  0  0  0  0  0  0  0  0  0  0
    5.3956    1.2908   17.8136 C   0  0  0  0  0  0  0  0  0  0  0  0
    6.5446    0.6313   17.5722 N   0  0  0  0  0  0  0  0  0  0  0  0
    7.1438    0.0280   18.6003 C   0  0  0  0  0  0  0  0  0  0  0  0
    8.0662   -0.5160   18.3960 H   0  0  0  0  0  0  0  0  0  0  0  0
    4.9563    1.8138   16.9683 H   0  0  0  0  0  0  0  0  0  0  0  0
    3.8509    1.8735   19.2134 H   0  0  0  0  0  0  0  0  0  0  0  0
    4.9962    0.7521   21.1579 H   0  0  0  0  0  0  0  0  0  0  0  0
    7.1453    1.9107   21.9882 H   0  0  0  0  0  0  0  0  0  0  0  0
    8.3813    1.6101   23.1672 H   0  0  0  0  0  0  0  0  0  0  0  0
    5.4729    0.7334   23.5493 H   0  0  0  0  0  0  0  0  0  0  0  0
    6.7805    0.5795   24.7191 H   0  0  0  0  0  0  0  0  0  0  0  0
    3.8153    5.8076   23.1237 H   0  0  0  0  0  0  0  0  0  0  0  0
    4.5582    7.9335   24.1999 H   0  0  0  0  0  0  0  0  0  0  0  0
    6.4849    7.9484   25.7624 H   0  0  0  0  0  0  0  0  0  0  0  0
    7.7070    5.8445   26.2942 H   0  0  0  0  0  0  0  0  0  0  0  0
    8.6322    3.4529   26.4182 H   0  0  0  0  0  0  0  0  0  0  0  0
    8.2876    1.7577   25.7488 H   0  0  0  0  0  0  0  0  0  0  0  0
  1  2  2  3
  2  3  1  0
  3  4  2  0
  4  5  1  0
  5  6  2  0
  6  7  1  0
  7  8  2  0
  8  9  1  0
  9 10  2  0
  9 11  1  0
 11 12  1  0
 12 13  1  0
 13 14  1  0
 14 15  2  0
 15 16  1  0
 16 17  1  0
 17 18  1  0
 18 19  1  0
 19 20  1  0
 19 21  1  0
 19 22  1  0
 18 23  1  0
 18 24  1  0
 17 25  1  0
 17 26  1  0
 16 27  2  0
 27 28  1  0
 28 29  1  0
 29 30  2  0
 30 31  1  0
 31 32  2  0
 32 33  1  0
 33 34  2  0
 34 35  1  0
 32 36  1  0
 31 37  1  0
 30 38  1  0
 13 39  1  0
 13 40  1  0
 12 41  1  0
 12 42  1  0
  7 43  1  0
  6 44  1  0
  5 45  1  0
  4 46  1  0
  1 47  1  0
  1 48  1  0
 11  2  1  0
 28 14  1  0
 34 29  1  0
  8  3  1  0
M  END
>  <cnnaffinity>  (1) 
-5.51856

>  <filename>  (1) 
C=C1c2ccccc2C(=O)N1CCc1nc(CCC)nn1-c1cccnc1

$$$$
