
     RDKit          3D

 22 23  0  0  0  0  0  0  0  0999 V2000
   11.4614    1.4782   20.9381 H   0  0  0  0  0  0  0  0  0  0  0  0
   10.8163    0.6883   21.3196 C   0  0  0  0  0  0  0  0  0  0  0  0
   11.2213   -0.0080   22.0569 H   0  0  0  0  0  0  0  0  0  0  0  0
    9.5558    0.5511   20.9080 C   0  0  0  0  0  0  0  0  0  0  0  0
    9.0938    1.2126   20.1860 H   0  0  0  0  0  0  0  0  0  0  0  0
    8.6568   -0.4854   21.4099 C   0  0  0  0  0  0  0  0  0  0  0  0
    8.9627   -1.3327   22.3491 N   0  0  0  0  0  0  0  0  0  0  0  0
    7.8415   -2.0710   22.4955 N   0  0  0  0  0  0  0  0  0  0  0  0
    7.7681   -2.8180   23.1627 H   0  0  0  0  0  0  0  0  0  0  0  0
    6.8325   -1.7536   21.6646 C   0  0  0  0  0  0  0  0  0  0  0  0
    5.3970   -2.5748   21.5438 S   0  0  0  0  0  0  0  0  0  0  0  0
    7.3578   -0.6837   20.9538 N   0  0  0  0  0  0  0  0  0  0  0  0
    6.6721    0.0155   19.9074 C   0  0  0  0  0  0  0  0  0  0  0  0
    7.1787    0.0555   18.5946 C   0  0  0  0  0  0  0  0  0  0  0  0
    8.1224   -0.4357   18.3681 H   0  0  0  0  0  0  0  0  0  0  0  0
    6.5607    0.6707   17.5798 N   0  0  0  0  0  0  0  0  0  0  0  0
    5.4009    1.2928   17.8397 C   0  0  0  0  0  0  0  0  0  0  0  0
    4.9177    1.7839   16.9958 H   0  0  0  0  0  0  0  0  0  0  0  0
    4.8175    1.3071   19.1111 C   0  0  0  0  0  0  0  0  0  0  0  0
    3.8850    1.8353   19.2610 H   0  0  0  0  0  0  0  0  0  0  0  0
    5.4517    0.6441   20.1695 C   0  0  0  0  0  0  0  0  0  0  0  0
    5.0208    0.6082   21.1721 H   0  0  0  0  0  0  0  0  0  0  0  0
  1  2  1  0
  2  3  1  0
  2  4  2  3
  4  5  1  0
  4  6  1  0
  6  7  2  0
  7  8  1  0
  8  9  1  0
  8 10  1  0
 10 11  2  0
 10 12  1  0
 12 13  1  0
 13 14  2  0
 14 15  1  0
 14 16  1  0
 16 17  2  0
 17 18  1  0
 17 19  1  0
 19 20  1  0
 19 21  2  0
 21 22  1  0
 12  6  1  0
 21 13  1  0
M  END
>  <cnnaffinity>  (1) 
-4.06632

>  <filename>  (1) 
C=Cc1n[nH]c(=S)n1-c1cccnc1

$$$$
