
     RDKit          3D

 29 29  0  0  0  0  0  0  0  0999 V2000
    7.7172    2.2058   20.2416 H   0  0  0  0  0  0  0  0  0  0  0  0
    8.7322    2.1453   21.4561 C   0  0  0  0  0  0  0  0  0  0  0  0
    7.2809    3.2939   21.5893 H   0  0  0  0  0  0  0  0  0  0  0  0
    8.3845    2.2580   21.3326 C   0  0  0  0  0  0  0  0  0  0  0  0
    8.2703    2.0795   22.5230 H   0  0  0  0  0  0  0  0  0  0  0  0
    9.2774    0.9596   21.0078 C   0  0  0  0  0  0  0  0  0  0  0  0
    9.3875    0.8389   19.9018 H   0  0  0  0  0  0  0  0  0  0  0  0
   10.4023    0.8336   21.2598 H   0  0  0  0  0  0  0  0  0  0  0  0
    8.7227   -0.4139   21.4969 C   0  0  0  0  0  0  0  0  0  0  0  0
    7.2355   -0.6723   21.0602 C   0  0  0  0  0  0  0  0  0  0  0  0
    6.6005   -1.5309   21.6403 O   0  0  0  0  0  0  0  0  0  0  0  0
    6.5576    0.0412   19.9193 C   0  0  0  0  0  0  0  0  0  0  0  0
    7.1353    0.0507   18.6464 C   0  0  0  0  0  0  0  0  0  0  0  0
    8.0860   -0.4513   18.4668 H   0  0  0  0  0  0  0  0  0  0  0  0
    6.5873    0.6368   17.5735 N   0  0  0  0  0  0  0  0  0  0  0  0
    5.4105    1.2515   17.7493 C   0  0  0  0  0  0  0  0  0  0  0  0
    4.9977    1.7511   16.8786 H   0  0  0  0  0  0  0  0  0  0  0  0
    4.7265    1.2809   18.9710 C   0  0  0  0  0  0  0  0  0  0  0  0
    3.7666    1.7837   19.0425 H   0  0  0  0  0  0  0  0  0  0  0  0
    5.2966    0.6486   20.0747 C   0  0  0  0  0  0  0  0  0  0  0  0
    4.7957    0.6450   21.0465 H   0  0  0  0  0  0  0  0  0  0  0  0
    8.8355   -0.5388   23.0356 C   0  0  0  0  0  0  0  0  0  0  0  0
    9.8906   -0.4978   23.3589 H   0  0  0  0  0  0  0  0  0  0  0  0
    8.2732    0.2172   23.5987 H   0  0  0  0  0  0  0  0  0  0  0  0
    8.4394   -1.5137   23.3445 H   0  0  0  0  0  0  0  0  0  0  0  0
    9.5851   -1.5327   20.8794 C   0  0  0  0  0  0  0  0  0  0  0  0
    9.4674   -1.5891   19.7915 H   0  0  0  0  0  0  0  0  0  0  0  0
    9.3498   -2.5291   21.2802 H   0  0  0  0  0  0  0  0  0  0  0  0
   10.6505   -1.3500   21.0833 H   0  0  0  0  0  0  0  0  0  0  0  0
  1  2  1  0
  2  3  1  0
  2  4  2  3
  4  5  1  0
  4  6  1  0
  6  7  1  0
  6  8  1  0
  6  9  1  0
  9 10  1  0
 10 11  2  0
 10 12  1  0
 12 13  2  0
 13 14  1  0
 13 15  1  0
 15 16  2  0
 16 17  1  0
 16 18  1  0
 18 19  1  0
 18 20  2  0
 20 21  1  0
  9 22  1  0
 22 23  1  0
 22 24  1  0
 22 25  1  0
  9 26  1  0
 26 27  1  0
 26 28  1  0
 26 29  1  0
 20 12  1  0
M  END
>  <cnnaffinity>  (1) 
-4.05804

>  <filename>  (1) 
C=CCC(C)(C)C(=O)c1cccnc1

$$$$
