
     RDKit          3D

 25 26  0  0  0  0  0  0  0  0999 V2000
   10.7297    1.4902   21.8444 H   0  0  0  0  0  0  0  0  0  0  0  0
   11.2674    0.7219   22.3960 C   0  0  0  0  0  0  0  0  0  0  0  0
   12.2733    0.9475   22.7282 H   0  0  0  0  0  0  0  0  0  0  0  0
   10.7109   -0.4546   22.6745 C   0  0  0  0  0  0  0  0  0  0  0  0
   11.2694   -1.1775   23.2664 H   0  0  0  0  0  0  0  0  0  0  0  0
    9.3600   -0.8792   22.2775 C   0  0  0  0  0  0  0  0  0  0  0  0
    8.7460   -1.9833   22.9537 C   0  0  0  0  0  0  0  0  0  0  0  0
    9.2946   -2.4902   23.7488 H   0  0  0  0  0  0  0  0  0  0  0  0
    7.4923   -2.4004   22.6305 C   0  0  0  0  0  0  0  0  0  0  0  0
    6.9912   -3.2264   23.1054 H   0  0  0  0  0  0  0  0  0  0  0  0
    6.7032   -1.7663   21.5887 C   0  0  0  0  0  0  0  0  0  0  0  0
    5.5947   -2.1465   21.2549 O   0  0  0  0  0  0  0  0  0  0  0  0
    7.3664   -0.6649   20.9427 N   0  0  0  0  0  0  0  0  0  0  0  0
    6.6747    0.0346   19.8940 C   0  0  0  0  0  0  0  0  0  0  0  0
    7.1847    0.0786   18.5834 C   0  0  0  0  0  0  0  0  0  0  0  0
    8.1230   -0.4339   18.3753 H   0  0  0  0  0  0  0  0  0  0  0  0
    6.5642    0.6837   17.5628 N   0  0  0  0  0  0  0  0  0  0  0  0
    5.3989    1.2959   17.8357 C   0  0  0  0  0  0  0  0  0  0  0  0
    4.9079    1.7794   16.9967 H   0  0  0  0  0  0  0  0  0  0  0  0
    4.8088    1.3133   19.1069 C   0  0  0  0  0  0  0  0  0  0  0  0
    3.8727    1.8434   19.2640 H   0  0  0  0  0  0  0  0  0  0  0  0
    5.4485    0.6533   20.1600 C   0  0  0  0  0  0  0  0  0  0  0  0
    5.0177    0.6144   21.1627 H   0  0  0  0  0  0  0  0  0  0  0  0
    8.6438   -0.2626   21.2881 C   0  0  0  0  0  0  0  0  0  0  0  0
    9.0415    0.5661   20.7042 H   0  0  0  0  0  0  0  0  0  0  0  0
  1  2  1  0
  2  3  1  0
  2  4  2  3
  4  5  1  0
  4  6  1  0
  6  7  1  0
  7  8  1  0
  7  9  2  0
  9 10  1  0
  9 11  1  0
 11 12  2  0
 11 13  1  0
 13 14  1  0
 14 15  2  0
 15 16  1  0
 15 17  1  0
 17 18  2  0
 18 19  1  0
 18 20  1  0
 20 21  1  0
 20 22  2  0
 22 23  1  0
 13 24  1  0
 24 25  1  0
 24  6  2  0
 22 14  1  0
M  END
>  <cnnaffinity>  (1) 
-4.83027

>  <filename>  (1) 
C=Cc1ccc(=O)n(-c2cccnc2)c1

$$$$
