
     RDKit          3D

 28 29  0  0  0  0  0  0  0  0999 V2000
    5.7640    4.0100   25.7552 H   0  0  0  0  0  0  0  0  0  0  0  0
    6.2286    3.0417   25.5868 C   0  0  0  0  0  0  0  0  0  0  0  0
    6.6233    2.5589   26.4821 H   0  0  0  0  0  0  0  0  0  0  0  0
    6.3133    2.4839   24.3804 C   0  0  0  0  0  0  0  0  0  0  0  0
    5.9115    2.9978   23.4988 H   0  0  0  0  0  0  0  0  0  0  0  0
    6.9589    1.1381   24.1508 C   0  0  0  0  0  0  0  0  0  0  0  0
    6.4585    0.3410   24.7180 H   0  0  0  0  0  0  0  0  0  0  0  0
    8.0148    1.1342   24.4571 H   0  0  0  0  0  0  0  0  0  0  0  0
    6.8695    0.8374   22.7466 O   0  0  0  0  0  0  0  0  0  0  0  0
    7.4012   -0.3268   22.3599 C   0  0  0  0  0  0  0  0  0  0  0  0
    7.9791   -1.1858   23.1132 N   0  0  0  0  0  0  0  0  0  0  0  0
    8.4194   -2.2854   22.2545 C   0  0  0  0  0  0  0  0  0  0  0  0
    7.9265   -3.2256   22.5485 H   0  0  0  0  0  0  0  0  0  0  0  0
    9.5045   -2.4503   22.3436 H   0  0  0  0  0  0  0  0  0  0  0  0
    8.0311   -1.8902   20.8135 C   0  0  0  0  0  0  0  0  0  0  0  0
    7.3410   -2.6113   20.3604 H   0  0  0  0  0  0  0  0  0  0  0  0
    8.9011   -1.7815   20.1512 H   0  0  0  0  0  0  0  0  0  0  0  0
    7.3569   -0.6132   21.0023 N   0  0  0  0  0  0  0  0  0  0  0  0
    6.6724    0.0359   19.9455 C   0  0  0  0  0  0  0  0  0  0  0  0
    7.1719    0.0579   18.6154 C   0  0  0  0  0  0  0  0  0  0  0  0
    8.1137   -0.4291   18.3749 H   0  0  0  0  0  0  0  0  0  0  0  0
    6.5597    0.6634   17.5884 N   0  0  0  0  0  0  0  0  0  0  0  0
    5.3988    1.2876   17.8326 C   0  0  0  0  0  0  0  0  0  0  0  0
    4.9362    1.7935   16.9856 H   0  0  0  0  0  0  0  0  0  0  0  0
    4.8027    1.3055   19.0988 C   0  0  0  0  0  0  0  0  0  0  0  0
    3.8692    1.8349   19.2436 H   0  0  0  0  0  0  0  0  0  0  0  0
    5.4410    0.6663   20.1682 C   0  0  0  0  0  0  0  0  0  0  0  0
    5.0174    0.6446   21.1663 H   0  0  0  0  0  0  0  0  0  0  0  0
  1  2  1  0
  2  3  1  0
  2  4  2  3
  4  5  1  0
  4  6  1  0
  6  7  1  0
  6  8  1  0
  6  9  1  0
  9 10  1  0
 10 11  2  0
 11 12  1  0
 12 13  1  0
 12 14  1  0
 12 15  1  0
 15 16  1  0
 15 17  1  0
 15 18  1  0
 18 19  1  0
 19 20  2  0
 20 21  1  0
 20 22  1  0
 22 23  2  0
 23 24  1  0
 23 25  1  0
 25 26  1  0
 25 27  2  0
 27 28  1  0
 18 10  1  0
 27 19  1  0
M  END
>  <cnnaffinity>  (1) 
-4.15255

>  <filename>  (1) 
C=CCOC1=NCCN1c1cccnc1

$$$$
