
     RDKit          3D

 42 44  0  0  0  0  0  0  0  0999 V2000
    9.5784   -7.2933   26.2885 H   0  0  0  0  0  0  0  0  0  0  0  0
    9.1372   -6.3090   26.4565 C   0  0  0  0  0  0  0  0  0  0  0  0
    9.1989   -5.4838   25.4182 N   0  0  0  0  0  0  0  0  0  0  0  0
    8.7118   -4.2502   25.5861 C   0  0  0  0  0  0  0  0  0  0  0  0
    8.7584   -3.4146   24.4880 N   0  0  0  0  0  0  0  0  0  0  0  0
    9.3638   -2.0746   24.5798 C   0  0  0  0  0  0  0  0  0  0  0  0
   10.4593   -2.1412   24.4400 H   0  0  0  0  0  0  0  0  0  0  0  0
    9.1997   -1.6214   25.5631 H   0  0  0  0  0  0  0  0  0  0  0  0
    8.7679   -1.1708   23.4802 C   0  0  0  0  0  0  0  0  0  0  0  0
    9.2419   -0.1868   23.5342 H   0  0  0  0  0  0  0  0  0  0  0  0
    7.6953   -1.0114   23.7109 H   0  0  0  0  0  0  0  0  0  0  0  0
    8.9905   -1.7760   22.1590 N   0  0  0  0  0  0  0  0  0  0  0  0
    8.7562   -0.9785   20.9803 C   0  0  1  0  0  0  0  0  0  0  0  0
    9.0663   -1.5832   20.1134 H   0  0  0  0  0  0  0  0  0  0  0  0
    7.3337   -0.7518   20.8810 N   0  0  0  0  0  0  0  0  0  0  0  0
    6.9067   -0.7760   21.7936 H   0  0  0  0  0  0  0  0  0  0  0  0
    6.6914   -0.0440   19.8721 C   0  0  0  0  0  0  0  0  0  0  0  0
    7.1746    0.0380   18.5350 C   0  0  0  0  0  0  0  0  0  0  0  0
    8.1155   -0.4510   18.2913 H   0  0  0  0  0  0  0  0  0  0  0  0
    6.5569    0.6815   17.5321 N   0  0  0  0  0  0  0  0  0  0  0  0
    5.4019    1.2990   17.8261 C   0  0  0  0  0  0  0  0  0  0  0  0
    4.9222    1.8303   17.0087 H   0  0  0  0  0  0  0  0  0  0  0  0
    4.8265    1.2788   19.1048 C   0  0  0  0  0  0  0  0  0  0  0  0
    3.8941    1.8036   19.2774 H   0  0  0  0  0  0  0  0  0  0  0  0
    5.4702    0.5969   20.1423 C   0  0  0  0  0  0  0  0  0  0  0  0
    5.0579    0.5711   21.1532 H   0  0  0  0  0  0  0  0  0  0  0  0
    9.5980    0.2916   20.9851 C   0  0  0  0  0  0  0  0  0  0  0  0
    9.5364    0.7772   20.0110 H   0  0  0  0  0  0  0  0  0  0  0  0
   10.6406    0.0343   21.1944 H   0  0  0  0  0  0  0  0  0  0  0  0
    9.2349    0.9918   21.7444 H   0  0  0  0  0  0  0  0  0  0  0  0
    8.4452   -3.1297   22.0794 C   0  0  0  0  0  0  0  0  0  0  0  0
    7.3432   -3.1519   22.1810 H   0  0  0  0  0  0  0  0  0  0  0  0
    8.6780   -3.5667   21.1016 H   0  0  0  0  0  0  0  0  0  0  0  0
    9.0660   -3.9954   23.1715 C   0  0  0  0  0  0  0  0  0  0  0  0
   10.1581   -3.9964   23.0385 H   0  0  0  0  0  0  0  0  0  0  0  0
    8.7080   -5.0280   23.1098 H   0  0  0  0  0  0  0  0  0  0  0  0
    8.1107   -3.8098   26.7845 C   0  0  0  0  0  0  0  0  0  0  0  0
    7.7336   -2.8002   26.8204 H   0  0  0  0  0  0  0  0  0  0  0  0
    7.9984   -4.7074   27.8374 C   0  0  0  0  0  0  0  0  0  0  0  0
    7.5068   -4.4303   28.7690 H   0  0  0  0  0  0  0  0  0  0  0  0
    8.5395   -5.9863   27.6722 C   0  0  0  0  0  0  0  0  0  0  0  0
    8.4874   -6.7225   28.4592 H   0  0  0  0  0  0  0  0  0  0  0  0
  1  2  1  0
  2  3  2  0
  3  4  1  0
  4  5  1  0
  5  6  1  0
  6  7  1  0
  6  8  1  0
  6  9  1  0
  9 10  1  0
  9 11  1  0
  9 12  1  0
 12 13  1  0
 13 14  1  6
 13 15  1  0
 15 16  1  0
 15 17  1  0
 17 18  2  0
 18 19  1  0
 18 20  1  0
 20 21  2  0
 21 22  1  0
 21 23  1  0
 23 24  1  0
 23 25  2  0
 25 26  1  0
 13 27  1  0
 27 28  1  0
 27 29  1  0
 27 30  1  0
 12 31  1  0
 31 32  1  0
 31 33  1  0
 31 34  1  0
 34 35  1  0
 34 36  1  0
  4 37  2  0
 37 38  1  0
 37 39  1  0
 39 40  1  0
 39 41  2  0
 41 42  1  0
 41  2  1  0
 34  5  1  0
 25 17  1  0
M  END
>  <cnnaffinity>  (1) 
-4.96031

>  <filename>  (1) 
C[C@H](Nc1cccnc1)N1CCN(c2ccccn2)CC1

$$$$
