
     RDKit          3D

 35 36  0  0  0  0  0  0  0  0999 V2000
    5.1029    1.7523   16.9739 H   0  0  0  0  0  0  0  0  0  0  0  0
    5.5347    1.2567   17.8419 C   0  0  0  0  0  0  0  0  0  0  0  0
    6.7015    0.6256   17.6550 N   0  0  0  0  0  0  0  0  0  0  0  0
    7.2570    0.0050   18.7127 C   0  0  0  0  0  0  0  0  0  0  0  0
    8.2169   -0.4682   18.5166 H   0  0  0  0  0  0  0  0  0  0  0  0
    6.6898   -0.0450   20.0199 C   0  0  0  0  0  0  0  0  0  0  0  0
    7.1950   -0.7146   21.1516 N   0  0  0  0  0  0  0  0  0  0  0  0
    6.6294   -0.4763   21.9570 H   0  0  0  0  0  0  0  0  0  0  0  0
    8.6146   -0.8953   21.5228 C   0  0  1  0  0  0  0  0  0  0  0  0
    8.5813   -1.1985   22.5816 H   0  0  0  0  0  0  0  0  0  0  0  0
    9.2437   -2.0608   20.7550 C   0  0  0  0  0  0  0  0  0  0  0  0
   10.2622   -2.2667   21.1109 H   0  0  0  0  0  0  0  0  0  0  0  0
    9.2990   -1.8278   19.6865 H   0  0  0  0  0  0  0  0  0  0  0  0
    8.6568   -2.9722   20.8937 H   0  0  0  0  0  0  0  0  0  0  0  0
    9.4518    0.4039   21.3983 C   0  0  0  0  0  0  0  0  0  0  0  0
    9.3617    0.7263   20.3467 H   0  0  0  0  0  0  0  0  0  0  0  0
    8.8956    1.5561   22.2683 C   0  0  0  0  0  0  0  0  0  0  0  0
    7.8242    1.7192   22.0885 H   0  0  0  0  0  0  0  0  0  0  0  0
    8.9886    1.2992   23.3340 H   0  0  0  0  0  0  0  0  0  0  0  0
    9.6810    2.8302   21.9515 C   0  0  0  0  0  0  0  0  0  0  0  0
    9.5807    2.9651   20.8679 H   0  0  0  0  0  0  0  0  0  0  0  0
    9.2571    3.7296   22.4155 H   0  0  0  0  0  0  0  0  0  0  0  0
   11.1610    2.6548   22.3243 C   0  0  0  0  0  0  0  0  0  0  0  0
   11.2179    2.4716   23.4076 H   0  0  0  0  0  0  0  0  0  0  0  0
   11.7451    3.5616   22.1273 H   0  0  0  0  0  0  0  0  0  0  0  0
   11.7883    1.4782   21.5627 C   0  0  0  0  0  0  0  0  0  0  0  0
   12.8154    1.2959   21.9085 H   0  0  0  0  0  0  0  0  0  0  0  0
   11.8770    1.7458   20.5008 H   0  0  0  0  0  0  0  0  0  0  0  0
   10.9624    0.1882   21.6759 C   0  0  0  0  0  0  0  0  0  0  0  0
   11.0800   -0.2472   22.6798 H   0  0  0  0  0  0  0  0  0  0  0  0
   11.3737   -0.5481   20.9719 H   0  0  0  0  0  0  0  0  0  0  0  0
    5.4487    0.6059   20.1675 C   0  0  0  0  0  0  0  0  0  0  0  0
    4.9562    0.5921   21.1407 H   0  0  0  0  0  0  0  0  0  0  0  0
    4.8744    1.2686   19.0779 C   0  0  0  0  0  0  0  0  0  0  0  0
    3.9332    1.7937   19.1709 H   0  0  0  0  0  0  0  0  0  0  0  0
  1  2  1  0
  2  3  2  0
  3  4  1  0
  4  5  1  0
  4  6  2  0
  6  7  1  0
  7  8  1  0
  7  9  1  0
  9 10  1  1
  9 11  1  0
 11 12  1  0
 11 13  1  0
 11 14  1  0
  9 15  1  0
 15 16  1  0
 15 17  1  0
 17 18  1  0
 17 19  1  0
 17 20  1  0
 20 21  1  0
 20 22  1  0
 20 23  1  0
 23 24  1  0
 23 25  1  0
 23 26  1  0
 26 27  1  0
 26 28  1  0
 26 29  1  0
 29 30  1  0
 29 31  1  0
  6 32  1  0
 32 33  1  0
 32 34  2  0
 34 35  1  0
 34  2  1  0
 29 15  1  0
M  END
>  <cnnaffinity>  (1) 
-4.90912

>  <filename>  (1) 
C[C@H](Nc1cccnc1)C1CCCCC1

$$$$
