
     RDKit          3D

 32 33  0  0  0  0  0  0  0  0999 V2000
    4.9331    1.8603   16.9765 H   0  0  0  0  0  0  0  0  0  0  0  0
    5.3915    1.3167   17.8006 C   0  0  0  0  0  0  0  0  0  0  0  0
    6.5321    0.6603   17.5247 N   0  0  0  0  0  0  0  0  0  0  0  0
    7.1346    0.0184   18.5387 C   0  0  0  0  0  0  0  0  0  0  0  0
    8.0542   -0.5134   18.2876 H   0  0  0  0  0  0  0  0  0  0  0  0
    6.6544   -0.0006   19.8673 C   0  0  0  0  0  0  0  0  0  0  0  0
    7.5429   -0.8384   21.1682 S   0  0  0  0  0  0  0  0  0  0  0  0
    8.7607    0.4734   21.6721 C   0  0  1  0  0  0  0  0  0  0  0  0
    9.2300    0.8278   20.7404 H   0  0  0  0  0  0  0  0  0  0  0  0
    8.1163    1.5610   22.3568 N   0  0  0  0  0  0  0  0  0  0  0  0
    7.2954    1.2070   22.8408 H   0  0  0  0  0  0  0  0  0  0  0  0
    7.8347    2.7510   21.5617 C   0  0  0  0  0  0  0  0  0  0  0  0
    8.8091    3.1347   21.2297 H   0  0  0  0  0  0  0  0  0  0  0  0
    7.2516    2.5236   20.6550 H   0  0  0  0  0  0  0  0  0  0  0  0
    7.1181    3.8573   22.3205 C   0  0  0  0  0  0  0  0  0  0  0  0
    7.7705    4.6705   23.2604 C   0  0  0  0  0  0  0  0  0  0  0  0
    8.8307    4.5680   23.4530 H   0  0  0  0  0  0  0  0  0  0  0  0
    7.0455    5.6422   23.9571 C   0  0  0  0  0  0  0  0  0  0  0  0
    7.5471    6.2554   24.7038 H   0  0  0  0  0  0  0  0  0  0  0  0
    5.7416    5.8802   23.7758 N   0  0  0  0  0  0  0  0  0  0  0  0
    5.1303    5.1485   22.8357 C   0  0  0  0  0  0  0  0  0  0  0  0
    4.0736    5.3507   22.6779 H   0  0  0  0  0  0  0  0  0  0  0  0
    5.7692    4.1569   22.0859 C   0  0  0  0  0  0  0  0  0  0  0  0
    5.2131    3.6413   21.3122 H   0  0  0  0  0  0  0  0  0  0  0  0
    9.8510   -0.1075   22.5660 C   0  0  0  0  0  0  0  0  0  0  0  0
   10.4016   -0.9137   22.0756 H   0  0  0  0  0  0  0  0  0  0  0  0
    9.4269   -0.4816   23.5012 H   0  0  0  0  0  0  0  0  0  0  0  0
   10.5638    0.6899   22.8054 H   0  0  0  0  0  0  0  0  0  0  0  0
    5.4363    0.6521   20.1200 C   0  0  0  0  0  0  0  0  0  0  0  0
    5.0105    0.6468   21.1241 H   0  0  0  0  0  0  0  0  0  0  0  0
    4.8042    1.3282   19.0702 C   0  0  0  0  0  0  0  0  0  0  0  0
    3.8779    1.8704   19.2256 H   0  0  0  0  0  0  0  0  0  0  0  0
  1  2  1  0
  2  3  2  0
  3  4  1  0
  4  5  1  0
  4  6  2  0
  6  7  1  0
  7  8  1  0
  8  9  1  6
  8 10  1  0
 10 11  1  0
 10 12  1  0
 12 13  1  0
 12 14  1  0
 12 15  1  0
 15 16  2  0
 16 17  1  0
 16 18  1  0
 18 19  1  0
 18 20  2  0
 20 21  1  0
 21 22  1  0
 21 23  2  0
 23 24  1  0
  8 25  1  0
 25 26  1  0
 25 27  1  0
 25 28  1  0
  6 29  1  0
 29 30  1  0
 29 31  2  0
 31 32  1  0
 31  2  1  0
 23 15  1  0
M  END
>  <cnnaffinity>  (1) 
-4.51581

>  <filename>  (1) 
C[C@H](NCc1ccncc1)Sc1cccnc1

$$$$
