
     RDKit          3D

 41 44  0  0  0  0  0  0  0  0999 V2000
    5.7590   -4.9883   24.3484 C   0  0  0  0  0  0  0  0  0  0  0  0
    6.7534   -4.4031   23.3709 C   0  0  2  0  0  0  0  0  0  0  0  0
    8.2156   -4.2687   23.6863 C   0  0  0  0  0  0  0  0  0  0  0  0
    7.3354   -3.0383   23.6380 C   0  0  1  0  0  0  0  0  0  0  0  0
    7.5074   -2.0152   22.5754 C   0  0  0  0  0  0  0  0  0  0  0  0
    6.5798   -1.6411   21.7118 N   0  0  0  0  0  0  0  0  0  0  0  0
    7.2378   -0.7614   20.9136 N   0  0  0  0  0  0  0  0  0  0  0  0
    6.5585   -0.0749   19.8631 C   0  0  0  0  0  0  0  0  0  0  0  0
    5.3626    0.6114   20.1131 C   0  0  0  0  0  0  0  0  0  0  0  0
    4.7839    1.3258   19.0588 C   0  0  0  0  0  0  0  0  0  0  0  0
    5.3996    1.3150   17.8015 C   0  0  0  0  0  0  0  0  0  0  0  0
    6.5196    0.6241   17.5440 N   0  0  0  0  0  0  0  0  0  0  0  0
    7.0737   -0.0562   18.5529 C   0  0  0  0  0  0  0  0  0  0  0  0
    7.9798   -0.6098   18.3163 H   0  0  0  0  0  0  0  0  0  0  0  0
    4.9757    1.8695   16.9671 H   0  0  0  0  0  0  0  0  0  0  0  0
    3.8667    1.8879   19.1975 H   0  0  0  0  0  0  0  0  0  0  0  0
    4.9151    0.5775   21.1078 H   0  0  0  0  0  0  0  0  0  0  0  0
    8.5154   -0.6241   21.3813 C   0  0  0  0  0  0  0  0  0  0  0  0
    9.5761    0.1501   20.6615 C   0  0  0  0  0  0  0  0  0  0  0  0
   10.5693    0.7522   21.4747 O   0  0  0  0  0  0  0  0  0  0  0  0
   10.2404    1.7088   22.3883 C   0  0  0  0  0  0  0  0  0  0  0  0
    8.9568    2.2407   22.6051 C   0  0  0  0  0  0  0  0  0  0  0  0
    8.7247    3.1997   23.6064 C   0  0  0  0  0  0  0  0  0  0  0  0
    9.7921    3.6566   24.3629 C   0  0  0  0  0  0  0  0  0  0  0  0
    9.5724    4.5668   25.3240 F   0  0  0  0  0  0  0  0  0  0  0  0
   11.0856    3.1804   24.1664 C   0  0  0  0  0  0  0  0  0  0  0  0
   11.2852    2.1872   23.2127 C   0  0  0  0  0  0  0  0  0  0  0  0
   12.5102    1.6548   23.1059 F   0  0  0  0  0  0  0  0  0  0  0  0
   11.9109    3.5703   24.7448 H   0  0  0  0  0  0  0  0  0  0  0  0
    7.7237    3.5625   23.8171 H   0  0  0  0  0  0  0  0  0  0  0  0
    8.1286    1.9151   21.9831 H   0  0  0  0  0  0  0  0  0  0  0  0
   10.1376   -0.5749   20.0758 H   0  0  0  0  0  0  0  0  0  0  0  0
    9.1510    0.8874   19.9773 H   0  0  0  0  0  0  0  0  0  0  0  0
    8.7132   -1.4116   22.4124 N   0  0  0  0  0  0  0  0  0  0  0  0
    7.1350   -2.5897   24.6124 H   0  0  0  0  0  0  0  0  0  0  0  0
    8.9345   -4.4043   22.8799 H   0  0  0  0  0  0  0  0  0  0  0  0
    8.5828   -4.5824   24.6627 H   0  0  0  0  0  0  0  0  0  0  0  0
    6.5350   -4.6335   22.3269 H   0  0  0  0  0  0  0  0  0  0  0  0
    6.0257   -4.7832   25.3920 H   0  0  0  0  0  0  0  0  0  0  0  0
    4.7662   -4.5597   24.1734 H   0  0  0  0  0  0  0  0  0  0  0  0
    5.6783   -6.0751   24.2408 H   0  0  0  0  0  0  0  0  0  0  0  0
  1  2  1  0
  2  3  1  0
  3  4  1  0
  4  5  1  0
  5  6  2  0
  6  7  1  0
  7  8  1  0
  8  9  2  0
  9 10  1  0
 10 11  2  0
 11 12  1  0
 12 13  2  0
 13 14  1  0
 11 15  1  0
 10 16  1  0
  9 17  1  0
  7 18  1  0
 18 19  1  0
 19 20  1  0
 20 21  1  0
 21 22  2  0
 22 23  1  0
 23 24  2  0
 24 25  1  0
 24 26  1  0
 26 27  2  0
 27 28  1  0
 26 29  1  0
 23 30  1  0
 22 31  1  0
 19 32  1  0
 19 33  1  0
 18 34  2  0
  4 35  1  1
  3 36  1  0
  3 37  1  0
  2 38  1  6
  1 39  1  0
  1 40  1  0
  1 41  1  0
  4  2  1  0
 34  5  1  0
 13  8  1  0
 27 21  1  0
M  END
>  <cnnaffinity>  (1) 
-6.20801

>  <filename>  (1) 
C[C@@H]1C[C@H]1c1nc(COc2ccc(F)cc2F)n(-c2cccnc2)n1

$$$$
