
     RDKit          3D

 32 33  0  0  0  0  0  0  0  0999 V2000
    4.9209    1.7799   16.9959 H   0  0  0  0  0  0  0  0  0  0  0  0
    5.4042    1.2900   17.8377 C   0  0  0  0  0  0  0  0  0  0  0  0
    6.5640    0.6726   17.5855 N   0  0  0  0  0  0  0  0  0  0  0  0
    7.1693    0.0582   18.6112 C   0  0  0  0  0  0  0  0  0  0  0  0
    8.1132   -0.4197   18.3641 H   0  0  0  0  0  0  0  0  0  0  0  0
    6.6659    0.0015   19.9133 C   0  0  0  0  0  0  0  0  0  0  0  0
    7.3701   -0.7435   21.0470 C   0  0  1  0  0  0  0  0  0  0  0  0
    8.6915   -1.2499   20.6845 N   0  0  0  0  0  0  0  0  0  0  0  0
    9.2479   -0.4789   20.3290 H   0  0  0  0  0  0  0  0  0  0  0  0
    8.5952   -1.9113   19.9179 H   0  0  0  0  0  0  0  0  0  0  0  0
    7.5700    0.2137   22.2336 C   0  0  0  0  0  0  0  0  0  0  0  0
    6.6282    0.4409   22.7439 H   0  0  0  0  0  0  0  0  0  0  0  0
    8.2586   -0.2195   22.9643 H   0  0  0  0  0  0  0  0  0  0  0  0
    7.9882    1.1670   21.8930 H   0  0  0  0  0  0  0  0  0  0  0  0
    6.5023   -1.9533   21.4437 C   0  0  0  0  0  0  0  0  0  0  0  0
    6.3003   -2.5483   20.5479 H   0  0  0  0  0  0  0  0  0  0  0  0
    5.5226   -1.5819   21.7423 H   0  0  0  0  0  0  0  0  0  0  0  0
    7.0760   -2.8489   22.5510 C   0  0  0  0  0  0  0  0  0  0  0  0
    8.0729   -3.1820   22.2513 H   0  0  0  0  0  0  0  0  0  0  0  0
    7.2063   -2.2587   23.4690 H   0  0  0  0  0  0  0  0  0  0  0  0
    6.1700   -4.0096   22.8483 C   0  0  0  0  0  0  0  0  0  0  0  0
    6.2933   -5.5202   22.0120 S   0  0  0  0  0  0  0  0  0  0  0  0
    4.9233   -6.1525   22.8327 C   0  0  0  0  0  0  0  0  0  0  0  0
    4.5927   -7.1607   22.6312 H   0  0  0  0  0  0  0  0  0  0  0  0
    4.3885   -5.2513   23.7014 C   0  0  0  0  0  0  0  0  0  0  0  0
    3.5213   -5.4458   24.3253 H   0  0  0  0  0  0  0  0  0  0  0  0
    5.1088   -4.0181   23.7005 C   0  0  0  0  0  0  0  0  0  0  0  0
    4.8322   -3.1611   24.3126 H   0  0  0  0  0  0  0  0  0  0  0  0
    5.4395    0.6513   20.1529 C   0  0  0  0  0  0  0  0  0  0  0  0
    4.9928    0.6457   21.1510 H   0  0  0  0  0  0  0  0  0  0  0  0
    4.8081    1.3104   19.1026 C   0  0  0  0  0  0  0  0  0  0  0  0
    3.8765    1.8417   19.2566 H   0  0  0  0  0  0  0  0  0  0  0  0
  1  2  1  0
  2  3  2  0
  3  4  1  0
  4  5  1  0
  4  6  2  0
  6  7  1  0
  7  8  1  6
  8  9  1  0
  8 10  1  0
  7 11  1  0
 11 12  1  0
 11 13  1  0
 11 14  1  0
  7 15  1  0
 15 16  1  0
 15 17  1  0
 15 18  1  0
 18 19  1  0
 18 20  1  0
 18 21  1  0
 21 22  1  0
 22 23  1  0
 23 24  1  0
 23 25  2  0
 25 26  1  0
 25 27  1  0
 27 28  1  0
  6 29  1  0
 29 30  1  0
 29 31  2  0
 31 32  1  0
 31  2  1  0
 27 21  2  0
M  END
>  <cnnaffinity>  (1) 
-4.83812

>  <filename>  (1) 
C[C@@](N)(CCc1cccs1)c1cccnc1

$$$$
