
     RDKit          3D

 39 42  0  0  0  0  0  0  0  0999 V2000
    5.9029   -5.0989   24.0905 C   0  0  0  0  0  0  0  0  0  0  0  0
    6.8673   -4.4005   23.1605 C   0  0  2  0  0  0  0  0  0  0  0  0
    8.3201   -4.2846   23.5442 C   0  0  0  0  0  0  0  0  0  0  0  0
    7.4301   -3.0596   23.5533 C   0  0  1  0  0  0  0  0  0  0  0  0
    7.6131   -2.0151   22.5257 C   0  0  0  0  0  0  0  0  0  0  0  0
    6.6552   -1.5893   21.7193 N   0  0  0  0  0  0  0  0  0  0  0  0
    7.3058   -0.6883   20.9397 N   0  0  0  0  0  0  0  0  0  0  0  0
    6.6347   -0.0083   19.8908 C   0  0  0  0  0  0  0  0  0  0  0  0
    5.4271    0.6386   20.1553 C   0  0  0  0  0  0  0  0  0  0  0  0
    4.8054    1.3154   19.1036 C   0  0  0  0  0  0  0  0  0  0  0  0
    5.3948    1.2975   17.8337 C   0  0  0  0  0  0  0  0  0  0  0  0
    6.5480    0.6629   17.5696 N   0  0  0  0  0  0  0  0  0  0  0  0
    7.1528    0.0354   18.5842 C   0  0  0  0  0  0  0  0  0  0  0  0
    8.1037   -0.4423   18.3517 H   0  0  0  0  0  0  0  0  0  0  0  0
    4.9278    1.8018   16.9913 H   0  0  0  0  0  0  0  0  0  0  0  0
    3.8743    1.8498   19.2547 H   0  0  0  0  0  0  0  0  0  0  0  0
    5.0105    0.5963   21.1631 H   0  0  0  0  0  0  0  0  0  0  0  0
    8.5883   -0.5697   21.3738 C   0  0  0  0  0  0  0  0  0  0  0  0
    9.6318    0.3259   20.8046 C   0  0  0  0  0  0  0  0  0  0  0  0
   10.3230    1.1530   21.8670 C   0  0  0  0  0  0  0  0  0  0  0  0
   11.5780    0.7917   22.3786 C   0  0  0  0  0  0  0  0  0  0  0  0
   12.1891    1.4059   23.3952 N   0  0  0  0  0  0  0  0  0  0  0  0
   11.5564    2.4317   23.9681 C   0  0  0  0  0  0  0  0  0  0  0  0
   10.3022    2.8914   23.5637 C   0  0  0  0  0  0  0  0  0  0  0  0
    9.6889    2.2298   22.4996 C   0  0  0  0  0  0  0  0  0  0  0  0
    8.0983    2.7300   22.0071 Cl  0  0  0  0  0  0  0  0  0  0  0  0
    9.8192    3.7198   24.0640 H   0  0  0  0  0  0  0  0  0  0  0  0
   12.0787    2.9137   24.7925 H   0  0  0  0  0  0  0  0  0  0  0  0
   12.1049   -0.0599   21.9425 H   0  0  0  0  0  0  0  0  0  0  0  0
    9.1753    0.9863   20.0669 H   0  0  0  0  0  0  0  0  0  0  0  0
   10.3379   -0.3460   20.3099 H   0  0  0  0  0  0  0  0  0  0  0  0
    8.8181   -1.4171   22.3531 N   0  0  0  0  0  0  0  0  0  0  0  0
    7.1476   -2.6276   24.5176 H   0  0  0  0  0  0  0  0  0  0  0  0
    9.0949   -4.3373   22.7788 H   0  0  0  0  0  0  0  0  0  0  0  0
    8.6301   -4.7028   24.5026 H   0  0  0  0  0  0  0  0  0  0  0  0
    6.6421   -4.5028   22.0945 H   0  0  0  0  0  0  0  0  0  0  0  0
    5.9372   -6.1824   23.9326 H   0  0  0  0  0  0  0  0  0  0  0  0
    6.1653   -4.9044   25.1385 H   0  0  0  0  0  0  0  0  0  0  0  0
    4.8710   -4.7615   23.9335 H   0  0  0  0  0  0  0  0  0  0  0  0
  1  2  1  0
  2  3  1  0
  3  4  1  0
  4  5  1  0
  5  6  2  0
  6  7  1  0
  7  8  1  0
  8  9  2  0
  9 10  1  0
 10 11  2  0
 11 12  1  0
 12 13  2  0
 13 14  1  0
 11 15  1  0
 10 16  1  0
  9 17  1  0
  7 18  1  0
 18 19  1  0
 19 20  1  0
 20 21  2  0
 21 22  1  0
 22 23  2  0
 23 24  1  0
 24 25  2  0
 25 26  1  0
 24 27  1  0
 23 28  1  0
 21 29  1  0
 19 30  1  0
 19 31  1  0
 18 32  2  0
  4 33  1  1
  3 34  1  0
  3 35  1  0
  2 36  1  6
  1 37  1  0
  1 38  1  0
  1 39  1  0
  4  2  1  0
 32  5  1  0
 13  8  1  0
 25 20  1  0
M  END
>  <cnnaffinity>  (1) 
-6.17255

>  <filename>  (1) 
C[C@@H]1C[C@H]1c1nc(Cc2cnccc2Cl)n(-c2cccnc2)n1

$$$$
