
     RDKit          3D

 32 34  0  0  0  0  0  0  0  0999 V2000
    4.9159    1.7858   16.9920 H   0  0  0  0  0  0  0  0  0  0  0  0
    5.3993    1.2952   17.8326 C   0  0  0  0  0  0  0  0  0  0  0  0
    6.5626    0.6781   17.5685 N   0  0  0  0  0  0  0  0  0  0  0  0
    7.1638    0.0487   18.5889 C   0  0  0  0  0  0  0  0  0  0  0  0
    8.1171   -0.4308   18.3706 H   0  0  0  0  0  0  0  0  0  0  0  0
    6.6426   -0.0158   19.8950 C   0  0  0  0  0  0  0  0  0  0  0  0
    7.5040   -0.8503   21.1994 S   0  0  0  0  0  0  0  0  0  0  0  0
    8.4193    0.5974   21.8780 C   0  0  1  0  0  0  0  0  0  0  0  0
    7.7313    1.4426   21.8170 H   0  0  0  0  0  0  0  0  0  0  0  0
    8.7555    0.3408   23.3107 C   0  0  0  0  0  0  0  0  0  0  0  0
    9.5485   -0.7441   23.6587 C   0  0  0  0  0  0  0  0  0  0  0  0
    9.9078   -1.4411   22.9009 H   0  0  0  0  0  0  0  0  0  0  0  0
    9.8971   -0.9756   24.9999 C   0  0  0  0  0  0  0  0  0  0  0  0
   10.4756   -1.8716   25.1406 H   0  0  0  0  0  0  0  0  0  0  0  0
    9.4925   -0.1328   26.0337 C   0  0  0  0  0  0  0  0  0  0  0  0
    9.7599   -0.3004   27.0803 H   0  0  0  0  0  0  0  0  0  0  0  0
    8.6971    0.9678   25.6644 C   0  0  0  0  0  0  0  0  0  0  0  0
    8.3199    1.2236   24.3226 C   0  0  0  0  0  0  0  0  0  0  0  0
    7.5255    2.4193   24.3415 C   0  0  0  0  0  0  0  0  0  0  0  0
    7.0813    2.8913   23.4755 H   0  0  0  0  0  0  0  0  0  0  0  0
    7.4389    2.8363   25.6410 C   0  0  0  0  0  0  0  0  0  0  0  0
    6.9239    3.6924   26.0640 H   0  0  0  0  0  0  0  0  0  0  0  0
    8.1465    1.9588   26.4358 N   0  0  0  0  0  0  0  0  0  0  0  0
    8.2668    1.9980   27.4322 H   0  0  0  0  0  0  0  0  0  0  0  0
    9.6491    0.9087   21.0380 C   0  0  0  0  0  0  0  0  0  0  0  0
   10.3172    0.0446   20.9733 H   0  0  0  0  0  0  0  0  0  0  0  0
    9.3103    1.1151   20.0272 H   0  0  0  0  0  0  0  0  0  0  0  0
   10.1982    1.7591   21.4635 H   0  0  0  0  0  0  0  0  0  0  0  0
    5.4299    0.6426   20.1552 C   0  0  0  0  0  0  0  0  0  0  0  0
    5.0063    0.6328   21.1633 H   0  0  0  0  0  0  0  0  0  0  0  0
    4.8033    1.3098   19.0998 C   0  0  0  0  0  0  0  0  0  0  0  0
    3.8749    1.8441   19.2588 H   0  0  0  0  0  0  0  0  0  0  0  0
  1  2  1  0
  2  3  2  0
  3  4  1  0
  4  5  1  0
  4  6  2  0
  6  7  1  0
  7  8  1  0
  8  9  1  1
  8 10  1  0
 10 11  2  0
 11 12  1  0
 11 13  1  0
 13 14  1  0
 13 15  2  0
 15 16  1  0
 15 17  1  0
 17 18  2  0
 18 19  1  0
 19 20  1  0
 19 21  2  0
 21 22  1  0
 21 23  1  0
 23 24  1  0
  8 25  1  0
 25 26  1  0
 25 27  1  0
 25 28  1  0
  6 29  1  0
 29 30  1  0
 29 31  2  0
 31 32  1  0
 31  2  1  0
 18 10  1  0
 23 17  1  0
M  END
>  <cnnaffinity>  (1) 
-4.93051

>  <filename>  (1) 
C[C@@H](Sc1cccnc1)c1cccc2[nH]ccc12

$$$$
