
     RDKit          3D

 42 45  0  0  0  0  0  0  0  0999 V2000
    6.9219   -5.3314   24.1571 C   0  0  0  0  0  0  0  0  0  0  0  0
    7.0303   -4.4259   22.9400 C   0  0  2  0  0  0  0  0  0  0  0  0
    8.1065   -4.7563   21.9132 C   0  0  0  0  0  0  0  0  0  0  0  0
    8.2532   -3.5093   22.8072 C   0  0  1  0  0  0  0  0  0  0  0  0
    8.0540   -2.1618   22.1746 C   0  0  0  0  0  0  0  0  0  0  0  0
    7.2817   -1.9858   21.1273 N   0  0  0  0  0  0  0  0  0  0  0  0
    7.3526   -0.6587   20.9176 N   0  0  0  0  0  0  0  0  0  0  0  0
    6.6605    0.0035   19.9046 C   0  0  0  0  0  0  0  0  0  0  0  0
    5.4563    0.6525   20.1662 C   0  0  0  0  0  0  0  0  0  0  0  0
    4.8295    1.3035   19.1062 C   0  0  0  0  0  0  0  0  0  0  0  0
    5.4047    1.2920   17.8290 C   0  0  0  0  0  0  0  0  0  0  0  0
    6.5644    0.6627   17.5778 N   0  0  0  0  0  0  0  0  0  0  0  0
    7.1777    0.0301   18.5985 C   0  0  0  0  0  0  0  0  0  0  0  0
    8.1289   -0.4567   18.4048 H   0  0  0  0  0  0  0  0  0  0  0  0
    4.8941    1.8058   17.0200 H   0  0  0  0  0  0  0  0  0  0  0  0
    3.8961    1.8222   19.2520 H   0  0  0  0  0  0  0  0  0  0  0  0
    5.0195    0.6411   21.1666 H   0  0  0  0  0  0  0  0  0  0  0  0
    8.2026   -0.0993   21.8586 C   0  0  0  0  0  0  0  0  0  0  0  0
    8.5544    1.3550   21.9479 C   0  0  0  0  0  0  0  0  0  0  0  0
    7.6077    2.0545   22.9246 C   0  0  0  0  0  0  0  0  0  0  0  0
    7.8877    3.5363   22.9266 C   0  0  0  0  0  0  0  0  0  0  0  0
    7.1757    4.3724   22.0739 C   0  0  0  0  0  0  0  0  0  0  0  0
    7.4781    5.7298   22.1000 C   0  0  0  0  0  0  0  0  0  0  0  0
    8.4623    6.2153   22.9652 C   0  0  0  0  0  0  0  0  0  0  0  0
    9.1511    5.4129   23.7903 N   0  0  0  0  0  0  0  0  0  0  0  0
    8.8728    4.0944   23.7608 C   0  0  0  0  0  0  0  0  0  0  0  0
    9.8491    2.9160   24.8921 Br  0  0  0  0  0  0  0  0  0  0  0  0
    8.6771    7.2798   22.9661 H   0  0  0  0  0  0  0  0  0  0  0  0
    6.9519    6.4128   21.4490 H   0  0  0  0  0  0  0  0  0  0  0  0
    6.4123    3.9685   21.4078 H   0  0  0  0  0  0  0  0  0  0  0  0
    7.7362    1.6373   23.9308 H   0  0  0  0  0  0  0  0  0  0  0  0
    6.5686    1.8855   22.6257 H   0  0  0  0  0  0  0  0  0  0  0  0
    9.5904    1.4645   22.2830 H   0  0  0  0  0  0  0  0  0  0  0  0
    8.4590    1.8076   20.9568 H   0  0  0  0  0  0  0  0  0  0  0  0
    8.6661   -1.0169   22.6579 N   0  0  0  0  0  0  0  0  0  0  0  0
    8.9956   -3.5163   23.6102 H   0  0  0  0  0  0  0  0  0  0  0  0
    7.8724   -4.5931   20.8549 H   0  0  0  0  0  0  0  0  0  0  0  0
    8.7413   -5.6254   22.1178 H   0  0  0  0  0  0  0  0  0  0  0  0
    6.0663   -4.0469   22.5769 H   0  0  0  0  0  0  0  0  0  0  0  0
    6.3188   -6.2111   23.9051 H   0  0  0  0  0  0  0  0  0  0  0  0
    6.4446   -4.7991   24.9886 H   0  0  0  0  0  0  0  0  0  0  0  0
    7.9205   -5.6586   24.4688 H   0  0  0  0  0  0  0  0  0  0  0  0
  1  2  1  0
  2  3  1  0
  3  4  1  0
  4  5  1  0
  5  6  2  0
  6  7  1  0
  7  8  1  0
  8  9  2  0
  9 10  1  0
 10 11  2  0
 11 12  1  0
 12 13  2  0
 13 14  1  0
 11 15  1  0
 10 16  1  0
  9 17  1  0
  7 18  1  0
 18 19  1  0
 19 20  1  0
 20 21  1  0
 21 22  2  0
 22 23  1  0
 23 24  2  0
 24 25  1  0
 25 26  2  0
 26 27  1  0
 24 28  1  0
 23 29  1  0
 22 30  1  0
 20 31  1  0
 20 32  1  0
 19 33  1  0
 19 34  1  0
 18 35  2  0
  4 36  1  1
  3 37  1  0
  3 38  1  0
  2 39  1  6
  1 40  1  0
  1 41  1  0
  1 42  1  0
  4  2  1  0
 35  5  1  0
 13  8  1  0
 26 21  1  0
M  END
>  <cnnaffinity>  (1) 
-6.14446

>  <filename>  (1) 
C[C@@H]1C[C@H]1c1nc(CCc2cccnc2Br)n(-c2cccnc2)n1

$$$$
