
     RDKit          3D

 39 40  0  0  0  0  0  0  0  0999 V2000
    6.2489    1.8722   24.3092 C   0  0  0  0  0  0  0  0  0  0  0  0
    7.5769    2.0927   23.5679 C   0  0  1  0  0  0  0  0  0  0  0  0
    7.5599    1.3578   22.3114 N   0  0  0  0  0  0  0  0  0  0  0  0
    7.6537    0.0038   22.2624 C   0  0  0  0  0  0  0  0  0  0  0  0
    7.9336   -0.6839   23.2346 O   0  0  0  0  0  0  0  0  0  0  0  0
    7.4267   -0.5511   20.9916 N   0  0  0  0  0  0  0  0  0  0  0  0
    7.7941   -1.9525   20.7974 C   0  0  0  0  0  0  0  0  0  0  0  0
    7.5782   -2.5450   21.6911 H   0  0  0  0  0  0  0  0  0  0  0  0
    7.1962   -2.3311   19.9656 H   0  0  0  0  0  0  0  0  0  0  0  0
    8.8635   -2.0579   20.5702 H   0  0  0  0  0  0  0  0  0  0  0  0
    6.7010    0.0889   19.9289 C   0  0  0  0  0  0  0  0  0  0  0  0
    5.4523    0.6869   20.1509 C   0  0  0  0  0  0  0  0  0  0  0  0
    4.7965    1.3152   19.0861 C   0  0  0  0  0  0  0  0  0  0  0  0
    5.3880    1.2977   17.8194 C   0  0  0  0  0  0  0  0  0  0  0  0
    6.5510    0.6712   17.5713 N   0  0  0  0  0  0  0  0  0  0  0  0
    7.1733    0.0803   18.5975 C   0  0  0  0  0  0  0  0  0  0  0  0
    8.1086   -0.4263   18.3588 H   0  0  0  0  0  0  0  0  0  0  0  0
    4.9238    1.8025   16.9733 H   0  0  0  0  0  0  0  0  0  0  0  0
    3.8562    1.8414   19.2302 H   0  0  0  0  0  0  0  0  0  0  0  0
    5.0141    0.6449   21.1477 H   0  0  0  0  0  0  0  0  0  0  0  0
    7.5329    1.8360   21.4251 H   0  0  0  0  0  0  0  0  0  0  0  0
    7.8666    3.5672   23.3398 C   0  0  0  0  0  0  0  0  0  0  0  0
    7.0212    4.3588   22.5430 C   0  0  0  0  0  0  0  0  0  0  0  0
    7.2662    5.7267   22.3944 C   0  0  0  0  0  0  0  0  0  0  0  0
    8.3490    6.3249   23.0435 C   0  0  0  0  0  0  0  0  0  0  0  0
    9.1909    5.5533   23.8584 C   0  0  0  0  0  0  0  0  0  0  0  0
   10.3843    6.1809   24.5384 C   0  0  0  0  0  0  0  0  0  0  0  0
   11.4820    6.1283   23.7594 F   0  0  0  0  0  0  0  0  0  0  0  0
   10.1713    7.4763   24.8337 F   0  0  0  0  0  0  0  0  0  0  0  0
   10.7045    5.5736   25.6970 F   0  0  0  0  0  0  0  0  0  0  0  0
    8.9472    4.1802   23.9959 C   0  0  0  0  0  0  0  0  0  0  0  0
    9.5843    3.5793   24.6413 H   0  0  0  0  0  0  0  0  0  0  0  0
    8.5298    7.3868   22.9138 H   0  0  0  0  0  0  0  0  0  0  0  0
    6.6047    6.3249   21.7734 H   0  0  0  0  0  0  0  0  0  0  0  0
    6.1509    3.9151   22.0555 H   0  0  0  0  0  0  0  0  0  0  0  0
    8.3838    1.6692   24.1853 H   0  0  0  0  0  0  0  0  0  0  0  0
    6.1201    0.8062   24.5228 H   0  0  0  0  0  0  0  0  0  0  0  0
    5.4085    2.2045   23.6861 H   0  0  0  0  0  0  0  0  0  0  0  0
    6.2408    2.4381   25.2453 H   0  0  0  0  0  0  0  0  0  0  0  0
  1  2  1  0
  2  3  1  0
  3  4  1  0
  4  5  2  0
  4  6  1  0
  6  7  1  0
  7  8  1  0
  7  9  1  0
  7 10  1  0
  6 11  1  0
 11 12  2  0
 12 13  1  0
 13 14  2  0
 14 15  1  0
 15 16  2  0
 16 17  1  0
 14 18  1  0
 13 19  1  0
 12 20  1  0
  3 21  1  0
  2 22  1  0
 22 23  2  0
 23 24  1  0
 24 25  2  0
 25 26  1  0
 26 27  1  0
 27 28  1  0
 27 29  1  0
 27 30  1  0
 26 31  2  0
 31 32  1  0
 25 33  1  0
 24 34  1  0
 23 35  1  0
  2 36  1  1
  1 37  1  0
  1 38  1  0
  1 39  1  0
 16 11  1  0
 31 22  1  0
M  END
>  <cnnaffinity>  (1) 
-4.83626

>  <filename>  (1) 
C[C@@H](NC(=O)N(C)c1cccnc1)c1cccc(C(F)(F)F)c1

$$$$
