
     RDKit          3D

 40 43  0  0  0  0  0  0  0  0999 V2000
    8.2225   -3.4507   26.1108 C   0  0  0  0  0  0  0  0  0  0  0  0
    7.6893   -2.4500   25.1104 C   0  0  2  0  0  0  0  0  0  0  0  0
    6.2693   -2.5784   24.6354 C   0  0  0  0  0  0  0  0  0  0  0  0
    7.4109   -2.8768   23.6889 C   0  0  1  0  0  0  0  0  0  0  0  0
    7.6803   -1.9432   22.5654 C   0  0  0  0  0  0  0  0  0  0  0  0
    6.7436   -1.6028   21.6976 N   0  0  0  0  0  0  0  0  0  0  0  0
    7.3643   -0.6676   20.9360 N   0  0  0  0  0  0  0  0  0  0  0  0
    6.6603    0.0048   19.8993 C   0  0  0  0  0  0  0  0  0  0  0  0
    5.4420    0.6397   20.1596 C   0  0  0  0  0  0  0  0  0  0  0  0
    4.8114    1.3092   19.1074 C   0  0  0  0  0  0  0  0  0  0  0  0
    5.3995    1.2954   17.8368 C   0  0  0  0  0  0  0  0  0  0  0  0
    6.5568    0.6698   17.5763 N   0  0  0  0  0  0  0  0  0  0  0  0
    7.1686    0.0487   18.5899 C   0  0  0  0  0  0  0  0  0  0  0  0
    8.1133   -0.4407   18.3599 H   0  0  0  0  0  0  0  0  0  0  0  0
    4.9260    1.7930   16.9937 H   0  0  0  0  0  0  0  0  0  0  0  0
    3.8788    1.8395   19.2587 H   0  0  0  0  0  0  0  0  0  0  0  0
    5.0120    0.5989   21.1614 H   0  0  0  0  0  0  0  0  0  0  0  0
    8.6390   -0.4954   21.3922 C   0  0  0  0  0  0  0  0  0  0  0  0
    9.5189    0.6212   20.9359 C   0  0  0  0  0  0  0  0  0  0  0  0
    9.0373    2.0130   21.4187 C   0  0  0  0  0  0  0  0  0  0  0  0
    8.9167    2.0741   22.9202 C   0  0  0  0  0  0  0  0  0  0  0  0
    7.8106    1.8279   23.6761 C   0  0  0  0  0  0  0  0  0  0  0  0
    8.1109    1.8187   24.9951 O   0  0  0  0  0  0  0  0  0  0  0  0
    9.4408    2.0525   25.0993 C   0  0  0  0  0  0  0  0  0  0  0  0
    9.9923    2.2112   23.8713 C   0  0  0  0  0  0  0  0  0  0  0  0
   11.0405    2.3888   23.6542 H   0  0  0  0  0  0  0  0  0  0  0  0
    9.8238    2.0900   26.1082 H   0  0  0  0  0  0  0  0  0  0  0  0
    6.7820    1.6072   23.4363 H   0  0  0  0  0  0  0  0  0  0  0  0
    8.0754    2.2527   20.9456 H   0  0  0  0  0  0  0  0  0  0  0  0
    9.7483    2.7735   21.0817 H   0  0  0  0  0  0  0  0  0  0  0  0
   10.5190    0.4085   21.3205 H   0  0  0  0  0  0  0  0  0  0  0  0
    9.5753    0.6054   19.8478 H   0  0  0  0  0  0  0  0  0  0  0  0
    8.8803   -1.3241   22.3875 N   0  0  0  0  0  0  0  0  0  0  0  0
    7.6255   -3.9148   23.4281 H   0  0  0  0  0  0  0  0  0  0  0  0
    5.6732   -3.4105   25.0109 H   0  0  0  0  0  0  0  0  0  0  0  0
    5.6974   -1.6703   24.4462 H   0  0  0  0  0  0  0  0  0  0  0  0
    8.0815   -1.4367   25.2203 H   0  0  0  0  0  0  0  0  0  0  0  0
    7.8132   -4.4485   25.9089 H   0  0  0  0  0  0  0  0  0  0  0  0
    7.9209   -3.1698   27.1278 H   0  0  0  0  0  0  0  0  0  0  0  0
    9.3169   -3.5180   26.0807 H   0  0  0  0  0  0  0  0  0  0  0  0
  1  2  1  0
  2  3  1  0
  3  4  1  0
  4  5  1  0
  5  6  2  0
  6  7  1  0
  7  8  1  0
  8  9  2  0
  9 10  1  0
 10 11  2  0
 11 12  1  0
 12 13  2  0
 13 14  1  0
 11 15  1  0
 10 16  1  0
  9 17  1  0
  7 18  1  0
 18 19  1  0
 19 20  1  0
 20 21  1  0
 21 22  2  0
 22 23  1  0
 23 24  1  0
 24 25  2  0
 25 26  1  0
 24 27  1  0
 22 28  1  0
 20 29  1  0
 20 30  1  0
 19 31  1  0
 19 32  1  0
 18 33  2  0
  4 34  1  6
  3 35  1  0
  3 36  1  0
  2 37  1  6
  1 38  1  0
  1 39  1  0
  1 40  1  0
  4  2  1  0
 33  5  1  0
 13  8  1  0
 25 21  1  0
M  END
>  <cnnaffinity>  (1) 
-5.77097

>  <filename>  (1) 
C[C@@H]1C[C@H]1c1nc(CCc2ccoc2)n(-c2cccnc2)n1

$$$$
