
     RDKit          3D

 39 42  0  0  0  0  0  0  0  0999 V2000
    5.9092   -5.1044   24.0899 C   0  0  0  0  0  0  0  0  0  0  0  0
    6.8750   -4.4068   23.1620 C   0  0  2  0  0  0  0  0  0  0  0  0
    8.3249   -4.2829   23.5451 C   0  0  0  0  0  0  0  0  0  0  0  0
    7.4295   -3.0621   23.5526 C   0  0  1  0  0  0  0  0  0  0  0  0
    7.6017   -2.0101   22.5287 C   0  0  0  0  0  0  0  0  0  0  0  0
    6.6486   -1.5950   21.7137 N   0  0  0  0  0  0  0  0  0  0  0  0
    7.2970   -0.6855   20.9402 N   0  0  0  0  0  0  0  0  0  0  0  0
    6.6315   -0.0107   19.8876 C   0  0  0  0  0  0  0  0  0  0  0  0
    5.4231    0.6384   20.1502 C   0  0  0  0  0  0  0  0  0  0  0  0
    4.8000    1.3173   19.1006 C   0  0  0  0  0  0  0  0  0  0  0  0
    5.3937    1.2986   17.8311 C   0  0  0  0  0  0  0  0  0  0  0  0
    6.5445    0.6606   17.5683 N   0  0  0  0  0  0  0  0  0  0  0  0
    7.1493    0.0317   18.5797 C   0  0  0  0  0  0  0  0  0  0  0  0
    8.0994   -0.4478   18.3461 H   0  0  0  0  0  0  0  0  0  0  0  0
    4.9287    1.8081   16.9908 H   0  0  0  0  0  0  0  0  0  0  0  0
    3.8697    1.8550   19.2527 H   0  0  0  0  0  0  0  0  0  0  0  0
    5.0098    0.5939   21.1590 H   0  0  0  0  0  0  0  0  0  0  0  0
    8.5811   -0.5643   21.3788 C   0  0  0  0  0  0  0  0  0  0  0  0
    9.6317    0.3186   20.8034 C   0  0  0  0  0  0  0  0  0  0  0  0
   10.3119    1.1467   21.8676 C   0  0  0  0  0  0  0  0  0  0  0  0
    9.6908    2.2542   22.4696 C   0  0  0  0  0  0  0  0  0  0  0  0
    8.1234    2.7787   21.9327 Cl  0  0  0  0  0  0  0  0  0  0  0  0
   10.3052    2.9234   23.5383 C   0  0  0  0  0  0  0  0  0  0  0  0
   11.4897    2.5373   24.0384 N   0  0  0  0  0  0  0  0  0  0  0  0
   12.1016    1.4829   23.4813 C   0  0  0  0  0  0  0  0  0  0  0  0
   11.5458    0.7789   22.4114 C   0  0  0  0  0  0  0  0  0  0  0  0
   12.2082   -0.2787   21.9119 F   0  0  0  0  0  0  0  0  0  0  0  0
   13.0591    1.1614   23.8875 H   0  0  0  0  0  0  0  0  0  0  0  0
    9.8164    3.7771   24.0063 H   0  0  0  0  0  0  0  0  0  0  0  0
    9.1845    0.9688   20.0528 H   0  0  0  0  0  0  0  0  0  0  0  0
   10.3446   -0.3568   20.3254 H   0  0  0  0  0  0  0  0  0  0  0  0
    8.8008   -1.4006   22.3666 N   0  0  0  0  0  0  0  0  0  0  0  0
    7.1493   -2.6285   24.5146 H   0  0  0  0  0  0  0  0  0  0  0  0
    9.1007   -4.3360   22.7822 H   0  0  0  0  0  0  0  0  0  0  0  0
    8.6385   -4.6952   24.5036 H   0  0  0  0  0  0  0  0  0  0  0  0
    6.6507   -4.5103   22.0971 H   0  0  0  0  0  0  0  0  0  0  0  0
    6.1630   -4.9124   25.1396 H   0  0  0  0  0  0  0  0  0  0  0  0
    4.8793   -4.7666   23.9287 H   0  0  0  0  0  0  0  0  0  0  0  0
    5.9382   -6.1871   23.9318 H   0  0  0  0  0  0  0  0  0  0  0  0
  1  2  1  0
  2  3  1  0
  3  4  1  0
  4  5  1  0
  5  6  2  0
  6  7  1  0
  7  8  1  0
  8  9  2  0
  9 10  1  0
 10 11  2  0
 11 12  1  0
 12 13  2  0
 13 14  1  0
 11 15  1  0
 10 16  1  0
  9 17  1  0
  7 18  1  0
 18 19  1  0
 19 20  1  0
 20 21  2  0
 21 22  1  0
 21 23  1  0
 23 24  2  0
 24 25  1  0
 25 26  2  0
 26 27  1  0
 25 28  1  0
 23 29  1  0
 19 30  1  0
 19 31  1  0
 18 32  2  0
  4 33  1  1
  3 34  1  0
  3 35  1  0
  2 36  1  6
  1 37  1  0
  1 38  1  0
  1 39  1  0
  4  2  1  0
 32  5  1  0
 13  8  1  0
 26 20  1  0
M  END
>  <cnnaffinity>  (1) 
-6.63256

>  <filename>  (1) 
C[C@@H]1C[C@H]1c1nc(Cc2c(F)cncc2Cl)n(-c2cccnc2)n1

$$$$
