
     RDKit          3D

 41 43  0  0  0  0  0  0  0  0999 V2000
    5.0314    1.9069   16.6100 H   0  0  0  0  0  0  0  0  0  0  0  0
    5.4892    1.4253   17.4720 C   0  0  0  0  0  0  0  0  0  0  0  0
    6.6538    0.7942   17.2689 N   0  0  0  0  0  0  0  0  0  0  0  0
    7.2372    0.2113   18.3260 C   0  0  0  0  0  0  0  0  0  0  0  0
    8.1813   -0.2861   18.1197 H   0  0  0  0  0  0  0  0  0  0  0  0
    6.7030    0.1989   19.6295 C   0  0  0  0  0  0  0  0  0  0  0  0
    7.4452   -0.4946   20.7731 C   0  0  1  0  0  0  0  0  0  0  0  0
    8.2764   -1.5457   20.1732 N   0  0  0  0  0  0  0  0  0  0  0  0
    8.6566   -2.1131   20.9273 H   0  0  0  0  0  0  0  0  0  0  0  0
    7.6716   -2.1649   19.6329 H   0  0  0  0  0  0  0  0  0  0  0  0
    8.4274    0.4494   21.4845 C   0  0  0  0  0  0  0  0  0  0  0  0
    7.9259    1.3139   21.9300 H   0  0  0  0  0  0  0  0  0  0  0  0
    8.9374   -0.0945   22.2861 H   0  0  0  0  0  0  0  0  0  0  0  0
    9.1967    0.8083   20.7980 H   0  0  0  0  0  0  0  0  0  0  0  0
    6.3931   -1.0334   21.8299 C   0  0  0  0  0  0  0  0  0  0  0  0
    5.8409   -0.1638   22.2226 H   0  0  0  0  0  0  0  0  0  0  0  0
    5.6737   -1.6424   21.2635 H   0  0  0  0  0  0  0  0  0  0  0  0
    6.9470   -1.8283   22.9163 N   0  0  0  0  0  0  0  0  0  0  0  0
    7.2066   -1.1221   24.1616 C   0  0  0  0  0  0  0  0  0  0  0  0
    7.7081   -0.1663   23.9671 H   0  0  0  0  0  0  0  0  0  0  0  0
    6.2563   -0.8526   24.6758 H   0  0  0  0  0  0  0  0  0  0  0  0
    8.0622   -1.9491   25.0988 C   0  0  0  0  0  0  0  0  0  0  0  0
    8.7093   -1.3275   26.1700 C   0  0  0  0  0  0  0  0  0  0  0  0
    8.7230   -0.2431   26.2342 H   0  0  0  0  0  0  0  0  0  0  0  0
    9.3532   -2.0883   27.1427 C   0  0  0  0  0  0  0  0  0  0  0  0
    9.8698   -1.5859   27.9534 H   0  0  0  0  0  0  0  0  0  0  0  0
    9.3656   -3.4831   27.0373 C   0  0  0  0  0  0  0  0  0  0  0  0
    9.8445   -4.0897   27.7991 H   0  0  0  0  0  0  0  0  0  0  0  0
    8.7749   -4.1043   25.9389 C   0  0  0  0  0  0  0  0  0  0  0  0
    8.8457   -5.1823   25.8294 H   0  0  0  0  0  0  0  0  0  0  0  0
    8.1304   -3.3499   24.9524 C   0  0  0  0  0  0  0  0  0  0  0  0
    7.5144   -4.0060   23.7291 C   0  0  0  0  0  0  0  0  0  0  0  0
    7.1733   -5.0220   23.9557 H   0  0  0  0  0  0  0  0  0  0  0  0
    8.2774   -4.0857   22.9401 H   0  0  0  0  0  0  0  0  0  0  0  0
    6.3764   -3.1460   23.1811 C   0  0  0  0  0  0  0  0  0  0  0  0
    5.5432   -3.0868   23.9105 H   0  0  0  0  0  0  0  0  0  0  0  0
    5.9672   -3.5841   22.2624 H   0  0  0  0  0  0  0  0  0  0  0  0
    5.4873    0.8772   19.8087 C   0  0  0  0  0  0  0  0  0  0  0  0
    5.0071    0.9115   20.7848 H   0  0  0  0  0  0  0  0  0  0  0  0
    4.8718    1.4940   18.7229 C   0  0  0  0  0  0  0  0  0  0  0  0
    3.9304    2.0199   18.8400 H   0  0  0  0  0  0  0  0  0  0  0  0
  1  2  1  0
  2  3  2  0
  3  4  1  0
  4  5  1  0
  4  6  2  0
  6  7  1  0
  7  8  1  6
  8  9  1  0
  8 10  1  0
  7 11  1  0
 11 12  1  0
 11 13  1  0
 11 14  1  0
  7 15  1  0
 15 16  1  0
 15 17  1  0
 15 18  1  0
 18 19  1  0
 19 20  1  0
 19 21  1  0
 19 22  1  0
 22 23  2  0
 23 24  1  0
 23 25  1  0
 25 26  1  0
 25 27  2  0
 27 28  1  0
 27 29  1  0
 29 30  1  0
 29 31  2  0
 31 32  1  0
 32 33  1  0
 32 34  1  0
 32 35  1  0
 35 36  1  0
 35 37  1  0
  6 38  1  0
 38 39  1  0
 38 40  2  0
 40 41  1  0
 40  2  1  0
 35 18  1  0
 31 22  1  0
M  END
>  <cnnaffinity>  (1) 
-4.93548

>  <filename>  (1) 
C[C@@](N)(CN1CCc2ccccc2C1)c1cccnc1

$$$$
