
     RDKit          3D

 43 46  0  0  0  0  0  0  0  0999 V2000
    8.2299   -3.6036   26.0169 C   0  0  0  0  0  0  0  0  0  0  0  0
    7.6741   -2.5964   25.0443 C   0  0  2  0  0  0  0  0  0  0  0  0
    6.2770   -2.7758   24.5315 C   0  0  0  0  0  0  0  0  0  0  0  0
    7.4461   -2.9765   23.6056 C   0  0  1  0  0  0  0  0  0  0  0  0
    7.6903   -1.9946   22.5247 C   0  0  0  0  0  0  0  0  0  0  0  0
    6.7563   -1.6308   21.6672 N   0  0  0  0  0  0  0  0  0  0  0  0
    7.3681   -0.6610   20.9412 N   0  0  0  0  0  0  0  0  0  0  0  0
    6.6625    0.0119   19.9040 C   0  0  0  0  0  0  0  0  0  0  0  0
    5.4408    0.6430   20.1671 C   0  0  0  0  0  0  0  0  0  0  0  0
    4.8131    1.3092   19.1102 C   0  0  0  0  0  0  0  0  0  0  0  0
    5.4006    1.2957   17.8382 C   0  0  0  0  0  0  0  0  0  0  0  0
    6.5602    0.6735   17.5771 N   0  0  0  0  0  0  0  0  0  0  0  0
    7.1703    0.0551   18.5938 C   0  0  0  0  0  0  0  0  0  0  0  0
    8.1139   -0.4357   18.3688 H   0  0  0  0  0  0  0  0  0  0  0  0
    4.9190    1.7850   16.9945 H   0  0  0  0  0  0  0  0  0  0  0  0
    3.8807    1.8392   19.2607 H   0  0  0  0  0  0  0  0  0  0  0  0
    5.0159    0.6085   21.1731 H   0  0  0  0  0  0  0  0  0  0  0  0
    8.6375   -0.4880   21.4160 C   0  0  0  0  0  0  0  0  0  0  0  0
    9.5335    0.6010   20.9412 C   0  0  0  0  0  0  0  0  0  0  0  0
    9.0699    2.0057   21.3635 C   0  0  0  0  0  0  0  0  0  0  0  0
    8.9958    2.1833   22.8882 C   0  0  0  0  0  0  0  0  0  0  0  0
   10.2601    1.9585   23.5776 N   0  0  0  0  0  0  0  0  0  0  0  0
   10.6010    0.9197   24.3786 C   0  0  0  0  0  0  0  0  0  0  0  0
   11.9208    1.0922   24.7301 C   0  0  0  0  0  0  0  0  0  0  0  0
   12.2949    2.2797   24.0641 C   0  0  0  0  0  0  0  0  0  0  0  0
   11.2837    2.7952   23.3824 N   0  0  0  0  0  0  0  0  0  0  0  0
   13.2605    2.7741   24.0234 H   0  0  0  0  0  0  0  0  0  0  0  0
   12.5343    0.4708   25.3736 H   0  0  0  0  0  0  0  0  0  0  0  0
    9.8776    0.1367   24.5744 H   0  0  0  0  0  0  0  0  0  0  0  0
    8.6412    3.1865   23.1317 H   0  0  0  0  0  0  0  0  0  0  0  0
    8.2937    1.4629   23.3119 H   0  0  0  0  0  0  0  0  0  0  0  0
    9.7667    2.7521   20.9728 H   0  0  0  0  0  0  0  0  0  0  0  0
    8.0839    2.2213   20.9274 H   0  0  0  0  0  0  0  0  0  0  0  0
   10.5311    0.3921   21.3349 H   0  0  0  0  0  0  0  0  0  0  0  0
    9.6006    0.5578   19.8517 H   0  0  0  0  0  0  0  0  0  0  0  0
    8.8743   -1.3366   22.3968 N   0  0  0  0  0  0  0  0  0  0  0  0
    7.7117   -3.9932   23.3278 H   0  0  0  0  0  0  0  0  0  0  0  0
    5.6635   -1.8975   24.3544 H   0  0  0  0  0  0  0  0  0  0  0  0
    5.7269   -3.6515   24.8650 H   0  0  0  0  0  0  0  0  0  0  0  0
    7.9959   -1.5676   25.2183 H   0  0  0  0  0  0  0  0  0  0  0  0
    7.8849   -3.3915   27.0351 H   0  0  0  0  0  0  0  0  0  0  0  0
    9.3242   -3.6266   26.0097 H   0  0  0  0  0  0  0  0  0  0  0  0
    7.8717   -4.6041   25.7569 H   0  0  0  0  0  0  0  0  0  0  0  0
  1  2  1  0
  2  3  1  0
  3  4  1  0
  4  5  1  0
  5  6  2  0
  6  7  1  0
  7  8  1  0
  8  9  2  0
  9 10  1  0
 10 11  2  0
 11 12  1  0
 12 13  2  0
 13 14  1  0
 11 15  1  0
 10 16  1  0
  9 17  1  0
  7 18  1  0
 18 19  1  0
 19 20  1  0
 20 21  1  0
 21 22  1  0
 22 23  1  0
 23 24  2  0
 24 25  1  0
 25 26  2  0
 25 27  1  0
 24 28  1  0
 23 29  1  0
 21 30  1  0
 21 31  1  0
 20 32  1  0
 20 33  1  0
 19 34  1  0
 19 35  1  0
 18 36  2  0
  4 37  1  6
  3 38  1  0
  3 39  1  0
  2 40  1  6
  1 41  1  0
  1 42  1  0
  1 43  1  0
  4  2  1  0
 36  5  1  0
 13  8  1  0
 26 22  1  0
M  END
>  <cnnaffinity>  (1) 
-6.01998

>  <filename>  (1) 
C[C@@H]1C[C@H]1c1nc(CCCn2cccn2)n(-c2cccnc2)n1

$$$$
