
     RDKit          3D

 34 35  0  0  0  0  0  0  0  0999 V2000
    4.9908    1.7816   16.9877 H   0  0  0  0  0  0  0  0  0  0  0  0
    5.4406    1.2711   17.8375 C   0  0  0  0  0  0  0  0  0  0  0  0
    6.5823    0.6067   17.5976 N   0  0  0  0  0  0  0  0  0  0  0  0
    7.1547   -0.0291   18.6287 C   0  0  0  0  0  0  0  0  0  0  0  0
    8.0620   -0.5878   18.4056 H   0  0  0  0  0  0  0  0  0  0  0  0
    6.6434   -0.0267   19.9381 C   0  0  0  0  0  0  0  0  0  0  0  0
    7.5121   -0.8181   21.2751 S   0  0  0  0  0  0  0  0  0  0  0  0
    8.4058    0.6700   21.9481 C   0  0  1  0  0  0  0  0  0  0  0  0
    7.7559    1.5344   21.7523 H   0  0  0  0  0  0  0  0  0  0  0  0
    8.6120    0.5717   23.3787 N   0  0  0  0  0  0  0  0  0  0  0  0
    9.3100   -0.1036   23.6502 H   0  0  0  0  0  0  0  0  0  0  0  0
    7.5047    0.4939   24.2017 C   0  0  0  0  0  0  0  0  0  0  0  0
    6.3711    0.7303   23.8488 O   0  0  0  0  0  0  0  0  0  0  0  0
    7.8924    0.1328   25.4758 N   0  0  0  0  0  0  0  0  0  0  0  0
    8.8060    0.4704   25.7143 H   0  0  0  0  0  0  0  0  0  0  0  0
    6.9878   -0.0090   26.5393 C   0  0  0  0  0  0  0  0  0  0  0  0
    5.7725   -0.6718   26.3318 C   0  0  0  0  0  0  0  0  0  0  0  0
    5.5162   -1.0020   25.3303 H   0  0  0  0  0  0  0  0  0  0  0  0
    4.8974   -0.8600   27.3996 C   0  0  0  0  0  0  0  0  0  0  0  0
    3.9591   -1.3846   27.2492 H   0  0  0  0  0  0  0  0  0  0  0  0
    5.2284   -0.3515   28.6615 C   0  0  0  0  0  0  0  0  0  0  0  0
    4.1173   -0.5649   29.9857 Cl  0  0  0  0  0  0  0  0  0  0  0  0
    6.4311    0.3339   28.8695 C   0  0  0  0  0  0  0  0  0  0  0  0
    6.6704    0.7314   29.8529 H   0  0  0  0  0  0  0  0  0  0  0  0
    7.3218    0.4909   27.8021 C   0  0  0  0  0  0  0  0  0  0  0  0
    8.2679    1.0112   27.9373 H   0  0  0  0  0  0  0  0  0  0  0  0
    9.7558    0.8400   21.2777 C   0  0  0  0  0  0  0  0  0  0  0  0
   10.2401    1.7438   21.6691 H   0  0  0  0  0  0  0  0  0  0  0  0
   10.3795   -0.0472   21.4609 H   0  0  0  0  0  0  0  0  0  0  0  0
    9.6248    0.9306   20.1980 H   0  0  0  0  0  0  0  0  0  0  0  0
    5.4404    0.6546   20.1670 C   0  0  0  0  0  0  0  0  0  0  0  0
    5.0124    0.6624   21.1706 H   0  0  0  0  0  0  0  0  0  0  0  0
    4.8267    1.3077   19.0944 C   0  0  0  0  0  0  0  0  0  0  0  0
    3.8935    1.8413   19.2232 H   0  0  0  0  0  0  0  0  0  0  0  0
  1  2  1  0
  2  3  2  0
  3  4  1  0
  4  5  1  0
  4  6  2  0
  6  7  1  0
  7  8  1  0
  8  9  1  1
  8 10  1  0
 10 11  1  0
 10 12  1  0
 12 13  2  0
 12 14  1  0
 14 15  1  0
 14 16  1  0
 16 17  2  0
 17 18  1  0
 17 19  1  0
 19 20  1  0
 19 21  2  0
 21 22  1  0
 21 23  1  0
 23 24  1  0
 23 25  2  0
 25 26  1  0
  8 27  1  0
 27 28  1  0
 27 29  1  0
 27 30  1  0
  6 31  1  0
 31 32  1  0
 31 33  2  0
 33 34  1  0
 33  2  1  0
 25 16  1  0
M  END
>  <cnnaffinity>  (1) 
-5.02673

>  <filename>  (1) 
C[C@H](NC(=O)Nc1ccc(Cl)cc1)Sc1cccnc1

$$$$
