
     RDKit          3D

 39 42  0  0  0  0  0  0  0  0999 V2000
    5.9033   -5.1052   24.0845 C   0  0  0  0  0  0  0  0  0  0  0  0
    6.8686   -4.4070   23.1552 C   0  0  2  0  0  0  0  0  0  0  0  0
    8.3205   -4.2902   23.5381 C   0  0  0  0  0  0  0  0  0  0  0  0
    7.4301   -3.0659   23.5496 C   0  0  1  0  0  0  0  0  0  0  0  0
    7.6112   -2.0182   22.5238 C   0  0  0  0  0  0  0  0  0  0  0  0
    6.6556   -1.5955   21.7144 N   0  0  0  0  0  0  0  0  0  0  0  0
    7.3042   -0.6872   20.9407 N   0  0  0  0  0  0  0  0  0  0  0  0
    6.6356   -0.0095   19.8897 C   0  0  0  0  0  0  0  0  0  0  0  0
    5.4280    0.6383   20.1530 C   0  0  0  0  0  0  0  0  0  0  0  0
    4.8041    1.3154   19.1035 C   0  0  0  0  0  0  0  0  0  0  0  0
    5.3949    1.2971   17.8330 C   0  0  0  0  0  0  0  0  0  0  0  0
    6.5469    0.6606   17.5690 N   0  0  0  0  0  0  0  0  0  0  0  0
    7.1524    0.0322   18.5821 C   0  0  0  0  0  0  0  0  0  0  0  0
    8.1016   -0.4461   18.3490 H   0  0  0  0  0  0  0  0  0  0  0  0
    4.9285    1.8043   16.9919 H   0  0  0  0  0  0  0  0  0  0  0  0
    3.8734    1.8515   19.2548 H   0  0  0  0  0  0  0  0  0  0  0  0
    5.0129    0.5977   21.1621 H   0  0  0  0  0  0  0  0  0  0  0  0
    8.5883   -0.5704   21.3759 C   0  0  0  0  0  0  0  0  0  0  0  0
    9.6274    0.3331   20.8091 C   0  0  0  0  0  0  0  0  0  0  0  0
   10.3328    1.1488   21.8723 C   0  0  0  0  0  0  0  0  0  0  0  0
   11.5815    0.7464   22.3548 C   0  0  0  0  0  0  0  0  0  0  0  0
   12.1715    1.4333   23.4243 C   0  0  0  0  0  0  0  0  0  0  0  0
   11.4708    2.5024   23.9821 C   0  0  0  0  0  0  0  0  0  0  0  0
   10.2693    2.9006   23.5460 N   0  0  0  0  0  0  0  0  0  0  0  0
    9.7309    2.2429   22.5331 C   0  0  0  0  0  0  0  0  0  0  0  0
    8.1394    2.7702   22.0558 Cl  0  0  0  0  0  0  0  0  0  0  0  0
   11.8763    3.0802   24.8134 H   0  0  0  0  0  0  0  0  0  0  0  0
   13.1371    1.1462   23.8261 H   0  0  0  0  0  0  0  0  0  0  0  0
   12.0666   -0.1185   21.8959 H   0  0  0  0  0  0  0  0  0  0  0  0
   10.3405   -0.3347   20.3196 H   0  0  0  0  0  0  0  0  0  0  0  0
    9.1729    0.9865   20.0638 H   0  0  0  0  0  0  0  0  0  0  0  0
    8.8154   -1.4165   22.3557 N   0  0  0  0  0  0  0  0  0  0  0  0
    7.1489   -2.6330   24.5148 H   0  0  0  0  0  0  0  0  0  0  0  0
    9.0946   -4.3411   22.7726 H   0  0  0  0  0  0  0  0  0  0  0  0
    8.6329   -4.7073   24.4957 H   0  0  0  0  0  0  0  0  0  0  0  0
    6.6415   -4.5067   22.0888 H   0  0  0  0  0  0  0  0  0  0  0  0
    4.8727   -4.7651   23.9282 H   0  0  0  0  0  0  0  0  0  0  0  0
    6.1642   -4.9154   25.1340 H   0  0  0  0  0  0  0  0  0  0  0  0
    5.9325   -6.1878   23.9228 H   0  0  0  0  0  0  0  0  0  0  0  0
  1  2  1  0
  2  3  1  0
  3  4  1  0
  4  5  1  0
  5  6  2  0
  6  7  1  0
  7  8  1  0
  8  9  2  0
  9 10  1  0
 10 11  2  0
 11 12  1  0
 12 13  2  0
 13 14  1  0
 11 15  1  0
 10 16  1  0
  9 17  1  0
  7 18  1  0
 18 19  1  0
 19 20  1  0
 20 21  2  0
 21 22  1  0
 22 23  2  0
 23 24  1  0
 24 25  2  0
 25 26  1  0
 23 27  1  0
 22 28  1  0
 21 29  1  0
 19 30  1  0
 19 31  1  0
 18 32  2  0
  4 33  1  1
  3 34  1  0
  3 35  1  0
  2 36  1  6
  1 37  1  0
  1 38  1  0
  1 39  1  0
  4  2  1  0
 32  5  1  0
 13  8  1  0
 25 20  1  0
M  END
>  <cnnaffinity>  (1) 
-6.22825

>  <filename>  (1) 
C[C@@H]1C[C@H]1c1nc(Cc2cccnc2Cl)n(-c2cccnc2)n1

$$$$
