
     RDKit          3D

 23 23  0  0  0  0  0  0  0  0999 V2000
    4.9713    1.7953   16.9287 H   0  0  0  0  0  0  0  0  0  0  0  0
    5.4371    1.3163   17.7908 C   0  0  0  0  0  0  0  0  0  0  0  0
    6.6045    0.6987   17.5666 N   0  0  0  0  0  0  0  0  0  0  0  0
    7.1920    0.1011   18.6044 C   0  0  0  0  0  0  0  0  0  0  0  0
    8.1454   -0.3837   18.4053 H   0  0  0  0  0  0  0  0  0  0  0  0
    6.6605    0.0657   19.9027 C   0  0  0  0  0  0  0  0  0  0  0  0
    7.5016   -0.6716   20.9024 C   0  0  0  0  0  0  0  0  0  0  0  0
    8.7069   -0.7305   20.7731 O   0  0  0  0  0  0  0  0  0  0  0  0
    6.8143   -1.3995   22.0891 C   0  0  1  0  0  0  0  0  0  0  0  0
    6.1127   -0.6560   22.4825 H   0  0  0  0  0  0  0  0  0  0  0  0
    5.6269   -2.7254   21.5699 S   0  0  0  0  0  0  0  0  0  0  0  0
    6.5077   -4.3383   21.4796 C   0  0  0  0  0  0  0  0  0  0  0  0
    7.7112   -4.2268   20.9254 F   0  0  0  0  0  0  0  0  0  0  0  0
    6.6591   -4.9227   22.6660 F   0  0  0  0  0  0  0  0  0  0  0  0
    5.7395   -5.1128   20.7106 F   0  0  0  0  0  0  0  0  0  0  0  0
    7.7595   -1.8571   23.2107 C   0  0  0  0  0  0  0  0  0  0  0  0
    8.3751   -2.7099   22.8991 H   0  0  0  0  0  0  0  0  0  0  0  0
    8.4286   -1.0406   23.5045 H   0  0  0  0  0  0  0  0  0  0  0  0
    7.1612   -2.1626   24.0791 H   0  0  0  0  0  0  0  0  0  0  0  0
    5.4311    0.7104   20.1278 C   0  0  0  0  0  0  0  0  0  0  0  0
    4.9518    0.7471   21.1136 H   0  0  0  0  0  0  0  0  0  0  0  0
    4.8170    1.3458   19.0449 C   0  0  0  0  0  0  0  0  0  0  0  0
    3.8623    1.8422   19.1534 H   0  0  0  0  0  0  0  0  0  0  0  0
  1  2  1  0
  2  3  2  0
  3  4  1  0
  4  5  1  0
  4  6  2  0
  6  7  1  0
  7  8  2  0
  7  9  1  0
  9 10  1  1
  9 11  1  0
 11 12  1  0
 12 13  1  0
 12 14  1  0
 12 15  1  0
  9 16  1  0
 16 17  1  0
 16 18  1  0
 16 19  1  0
  6 20  1  0
 20 21  1  0
 20 22  2  0
 22 23  1  0
 22  2  1  0
M  END
>  <cnnaffinity>  (1) 
-4.26111

>  <filename>  (1) 
C[C@H](SC(F)(F)F)C(=O)c1cccnc1

$$$$
