
     RDKit          3D

 31 32  0  0  0  0  0  0  0  0999 V2000
    4.9945    1.7643   17.0160 H   0  0  0  0  0  0  0  0  0  0  0  0
    5.4541    1.2857   17.8769 C   0  0  0  0  0  0  0  0  0  0  0  0
    6.6178    0.6532   17.6627 N   0  0  0  0  0  0  0  0  0  0  0  0
    7.1755    0.0394   18.7090 C   0  0  0  0  0  0  0  0  0  0  0  0
    8.1167   -0.4804   18.5320 H   0  0  0  0  0  0  0  0  0  0  0  0
    6.6292    0.0430   19.9941 C   0  0  0  0  0  0  0  0  0  0  0  0
    7.4094   -0.7223   21.0028 C   0  0  0  0  0  0  0  0  0  0  0  0
    8.1938   -1.6061   20.6833 O   0  0  0  0  0  0  0  0  0  0  0  0
    7.1909   -0.3598   22.2889 N   0  0  0  0  0  0  0  0  0  0  0  0
    6.6993    0.4971   22.4396 H   0  0  0  0  0  0  0  0  0  0  0  0
    7.6434   -1.1271   23.4345 C   0  0  1  0  0  0  0  0  0  0  0  0
    8.7032   -1.3600   23.2693 H   0  0  0  0  0  0  0  0  0  0  0  0
    7.5880   -0.3250   24.7351 C   0  0  0  0  0  0  0  0  0  0  0  0
    8.7604   -0.3326   25.5141 C   0  0  0  0  0  0  0  0  0  0  0  0
    9.6685   -0.7613   25.0939 H   0  0  0  0  0  0  0  0  0  0  0  0
    8.8202    0.2170   26.7907 C   0  0  0  0  0  0  0  0  0  0  0  0
    9.7306    0.1619   27.3681 H   0  0  0  0  0  0  0  0  0  0  0  0
    7.6838    0.8205   27.3258 C   0  0  0  0  0  0  0  0  0  0  0  0
    7.7447    1.5841   28.8850 Cl  0  0  0  0  0  0  0  0  0  0  0  0
    6.4938    0.8505   26.6047 C   0  0  0  0  0  0  0  0  0  0  0  0
    5.5998    1.2706   27.0490 H   0  0  0  0  0  0  0  0  0  0  0  0
    6.4744    0.3319   25.3018 C   0  0  0  0  0  0  0  0  0  0  0  0
    5.0217    0.6417   24.3939 Cl  0  0  0  0  0  0  0  0  0  0  0  0
    6.9237   -2.4841   23.5071 C   0  0  0  0  0  0  0  0  0  0  0  0
    7.1520   -3.0437   22.5955 H   0  0  0  0  0  0  0  0  0  0  0  0
    7.2657   -3.0696   24.3653 H   0  0  0  0  0  0  0  0  0  0  0  0
    5.8408   -2.3568   23.5761 H   0  0  0  0  0  0  0  0  0  0  0  0
    5.4037    0.6957   20.2100 C   0  0  0  0  0  0  0  0  0  0  0  0
    4.9162    0.7090   21.1934 H   0  0  0  0  0  0  0  0  0  0  0  0
    4.8071    1.3238   19.1189 C   0  0  0  0  0  0  0  0  0  0  0  0
    3.8645    1.8477   19.2290 H   0  0  0  0  0  0  0  0  0  0  0  0
  1  2  1  0
  2  3  2  0
  3  4  1  0
  4  5  1  0
  4  6  2  0
  6  7  1  0
  7  8  2  0
  7  9  1  0
  9 10  1  0
  9 11  1  0
 11 12  1  6
 11 13  1  0
 13 14  2  0
 14 15  1  0
 14 16  1  0
 16 17  1  0
 16 18  2  0
 18 19  1  0
 18 20  1  0
 20 21  1  0
 20 22  2  0
 22 23  1  0
 11 24  1  0
 24 25  1  0
 24 26  1  0
 24 27  1  0
  6 28  1  0
 28 29  1  0
 28 30  2  0
 30 31  1  0
 30  2  1  0
 22 13  1  0
M  END
>  <cnnaffinity>  (1) 
-4.89214

>  <filename>  (1) 
C[C@@H](NC(=O)c1cccnc1)c1ccc(Cl)cc1Cl

$$$$
