
     RDKit          3D

 43 44  0  0  0  0  0  0  0  0999 V2000
    4.9458    1.8251   16.9603 H   0  0  0  0  0  0  0  0  0  0  0  0
    5.4031    1.3068   17.8006 C   0  0  0  0  0  0  0  0  0  0  0  0
    6.5536    0.6680   17.5473 N   0  0  0  0  0  0  0  0  0  0  0  0
    7.1466    0.0565   18.5800 C   0  0  0  0  0  0  0  0  0  0  0  0
    8.0866   -0.4551   18.3622 H   0  0  0  0  0  0  0  0  0  0  0  0
    6.6498    0.0383   19.8878 C   0  0  0  0  0  0  0  0  0  0  0  0
    7.4423   -0.6901   20.9615 C   0  0  2  0  0  0  0  0  0  0  0  0
    8.3618   -1.0666   20.4710 H   0  0  0  0  0  0  0  0  0  0  0  0
    6.6804   -1.8119   21.5405 N   0  0  0  0  0  0  0  0  0  0  0  0
    5.9948   -2.6536   20.5652 C   0  0  0  0  0  0  0  0  0  0  0  0
    5.3358   -3.3673   21.0669 H   0  0  0  0  0  0  0  0  0  0  0  0
    6.6759   -3.2294   19.9186 H   0  0  0  0  0  0  0  0  0  0  0  0
    5.3501   -2.0510   19.9219 H   0  0  0  0  0  0  0  0  0  0  0  0
    7.3693   -2.6084   22.5729 C   0  0  0  0  0  0  0  0  0  0  0  0
    7.8045   -3.5369   22.1608 H   0  0  0  0  0  0  0  0  0  0  0  0
    8.2229   -2.0632   22.9844 H   0  0  0  0  0  0  0  0  0  0  0  0
    6.4564   -2.9608   23.7662 C   0  0  0  0  0  0  0  0  0  0  0  0
    5.5456   -3.4720   23.3998 H   0  0  0  0  0  0  0  0  0  0  0  0
    6.1084   -2.0107   24.1903 H   0  0  0  0  0  0  0  0  0  0  0  0
    7.1597   -3.7299   24.8035 N   0  0  0  0  0  0  0  0  0  0  0  0
    7.2757   -5.1634   24.5063 C   0  0  0  0  0  0  0  0  0  0  0  0
    6.2900   -5.6754   24.5262 H   0  0  0  0  0  0  0  0  0  0  0  0
    7.6695   -5.2895   23.4906 H   0  0  0  0  0  0  0  0  0  0  0  0
    8.2151   -5.8366   25.5101 C   0  0  0  0  0  0  0  0  0  0  0  0
    8.3415   -6.8941   25.2847 H   0  0  0  0  0  0  0  0  0  0  0  0
    9.2071   -5.3838   25.4146 H   0  0  0  0  0  0  0  0  0  0  0  0
    7.7023   -5.6549   26.9381 C   0  0  0  0  0  0  0  0  0  0  0  0
    6.7379   -6.1733   27.0508 H   0  0  0  0  0  0  0  0  0  0  0  0
    8.3889   -6.1030   27.6659 H   0  0  0  0  0  0  0  0  0  0  0  0
    7.5149   -4.1640   27.2192 C   0  0  0  0  0  0  0  0  0  0  0  0
    7.0479   -4.0396   28.1957 H   0  0  0  0  0  0  0  0  0  0  0  0
    8.4906   -3.6635   27.2538 H   0  0  0  0  0  0  0  0  0  0  0  0
    6.6459   -3.4892   26.1550 C   0  0  0  0  0  0  0  0  0  0  0  0
    6.6463   -2.4058   26.3327 H   0  0  0  0  0  0  0  0  0  0  0  0
    5.5971   -3.8325   26.2724 H   0  0  0  0  0  0  0  0  0  0  0  0
    7.8623    0.3094   22.0468 C   0  0  0  0  0  0  0  0  0  0  0  0
    8.6462   -0.0880   22.6979 H   0  0  0  0  0  0  0  0  0  0  0  0
    8.2581    1.2232   21.5935 H   0  0  0  0  0  0  0  0  0  0  0  0
    6.9996    0.5628   22.6716 H   0  0  0  0  0  0  0  0  0  0  0  0
    5.4248    0.6874   20.1263 C   0  0  0  0  0  0  0  0  0  0  0  0
    4.9660    0.6738   21.1160 H   0  0  0  0  0  0  0  0  0  0  0  0
    4.7921    1.3339   19.0595 C   0  0  0  0  0  0  0  0  0  0  0  0
    3.8538    1.8643   19.1917 H   0  0  0  0  0  0  0  0  0  0  0  0
  1  2  1  0
  2  3  2  0
  3  4  1  0
  4  5  1  0
  4  6  2  0
  6  7  1  0
  7  8  1  6
  7  9  1  0
  9 10  1  0
 10 11  1  0
 10 12  1  0
 10 13  1  0
  9 14  1  0
 14 15  1  0
 14 16  1  0
 14 17  1  0
 17 18  1  0
 17 19  1  0
 17 20  1  0
 20 21  1  0
 21 22  1  0
 21 23  1  0
 21 24  1  0
 24 25  1  0
 24 26  1  0
 24 27  1  0
 27 28  1  0
 27 29  1  0
 27 30  1  0
 30 31  1  0
 30 32  1  0
 30 33  1  0
 33 34  1  0
 33 35  1  0
  7 36  1  0
 36 37  1  0
 36 38  1  0
 36 39  1  0
  6 40  1  0
 40 41  1  0
 40 42  2  0
 42 43  1  0
 42  2  1  0
 33 20  1  0
M  END
>  <cnnaffinity>  (1) 
-4.44339

>  <filename>  (1) 
C[C@H](c1cccnc1)N(C)CCN1CCCCC1

$$$$
