
     RDKit          3D

 44 47  0  0  0  0  0  0  0  0999 V2000
    8.2410   -3.6304   26.0285 C   0  0  0  0  0  0  0  0  0  0  0  0
    7.6517   -2.6240   25.0682 C   0  0  2  0  0  0  0  0  0  0  0  0
    6.2565   -2.7916   24.5467 C   0  0  0  0  0  0  0  0  0  0  0  0
    7.4293   -2.9656   23.6148 C   0  0  1  0  0  0  0  0  0  0  0  0
    7.6816   -1.9756   22.5390 C   0  0  0  0  0  0  0  0  0  0  0  0
    6.7494   -1.6104   21.6773 N   0  0  0  0  0  0  0  0  0  0  0  0
    7.3732   -0.6630   20.9319 N   0  0  0  0  0  0  0  0  0  0  0  0
    6.6750    0.0052   19.8887 C   0  0  0  0  0  0  0  0  0  0  0  0
    5.4533    0.6366   20.1503 C   0  0  0  0  0  0  0  0  0  0  0  0
    4.8161    1.3084   19.1037 C   0  0  0  0  0  0  0  0  0  0  0  0
    5.4088    1.3000   17.8327 C   0  0  0  0  0  0  0  0  0  0  0  0
    6.5588    0.6652   17.5633 N   0  0  0  0  0  0  0  0  0  0  0  0
    7.1748    0.0375   18.5718 C   0  0  0  0  0  0  0  0  0  0  0  0
    8.1060   -0.4743   18.3344 H   0  0  0  0  0  0  0  0  0  0  0  0
    4.9377    1.8188   17.0022 H   0  0  0  0  0  0  0  0  0  0  0  0
    3.8794    1.8347   19.2577 H   0  0  0  0  0  0  0  0  0  0  0  0
    5.0276    0.5835   21.1532 H   0  0  0  0  0  0  0  0  0  0  0  0
    8.6411   -0.4850   21.4115 C   0  0  0  0  0  0  0  0  0  0  0  0
    9.5224    0.6177   20.9359 C   0  0  0  0  0  0  0  0  0  0  0  0
    9.0083    2.0201   21.3169 C   0  0  0  0  0  0  0  0  0  0  0  0
    8.8612    2.2317   22.8421 C   0  0  0  0  0  0  0  0  0  0  0  0
   10.1834    2.0743   23.5498 C   0  0  0  0  0  0  0  0  0  0  0  0
   10.5051    0.9238   24.3026 C   0  0  0  0  0  0  0  0  0  0  0  0
   11.7527    0.6626   24.7495 N   0  0  0  0  0  0  0  0  0  0  0  0
   12.6712    1.5980   24.4490 C   0  0  0  0  0  0  0  0  0  0  0  0
   12.3407    2.8010   23.7862 C   0  0  0  0  0  0  0  0  0  0  0  0
   11.0982    3.0456   23.3373 N   0  0  0  0  0  0  0  0  0  0  0  0
   13.0814    3.5780   23.6020 H   0  0  0  0  0  0  0  0  0  0  0  0
   13.6983    1.3803   24.7222 H   0  0  0  0  0  0  0  0  0  0  0  0
    9.7143    0.2026   24.5027 H   0  0  0  0  0  0  0  0  0  0  0  0
    8.1342    1.5158   23.2448 H   0  0  0  0  0  0  0  0  0  0  0  0
    8.4714    3.2344   23.0427 H   0  0  0  0  0  0  0  0  0  0  0  0
    9.7179    2.7575   20.9311 H   0  0  0  0  0  0  0  0  0  0  0  0
    8.0534    2.2143   20.8115 H   0  0  0  0  0  0  0  0  0  0  0  0
    9.5998    0.5387   19.8490 H   0  0  0  0  0  0  0  0  0  0  0  0
   10.5265    0.4492   21.3372 H   0  0  0  0  0  0  0  0  0  0  0  0
    8.8736   -1.3325   22.3957 N   0  0  0  0  0  0  0  0  0  0  0  0
    7.7005   -3.9756   23.3141 H   0  0  0  0  0  0  0  0  0  0  0  0
    5.6382   -1.9081   24.4118 H   0  0  0  0  0  0  0  0  0  0  0  0
    5.6998   -3.6744   24.8496 H   0  0  0  0  0  0  0  0  0  0  0  0
    7.9686   -1.5966   25.2611 H   0  0  0  0  0  0  0  0  0  0  0  0
    7.9377   -3.4128   27.0585 H   0  0  0  0  0  0  0  0  0  0  0  0
    9.3339   -3.6151   25.9961 H   0  0  0  0  0  0  0  0  0  0  0  0
    7.9215   -4.6542   25.8059 H   0  0  0  0  0  0  0  0  0  0  0  0
  1  2  1  0
  2  3  1  0
  3  4  1  0
  4  5  1  0
  5  6  2  0
  6  7  1  0
  7  8  1  0
  8  9  2  0
  9 10  1  0
 10 11  2  0
 11 12  1  0
 12 13  2  0
 13 14  1  0
 11 15  1  0
 10 16  1  0
  9 17  1  0
  7 18  1  0
 18 19  1  0
 19 20  1  0
 20 21  1  0
 21 22  1  0
 22 23  2  0
 23 24  1  0
 24 25  2  0
 25 26  1  0
 26 27  2  0
 26 28  1  0
 25 29  1  0
 23 30  1  0
 21 31  1  0
 21 32  1  0
 20 33  1  0
 20 34  1  0
 19 35  1  0
 19 36  1  0
 18 37  2  0
  4 38  1  6
  3 39  1  0
  3 40  1  0
  2 41  1  6
  1 42  1  0
  1 43  1  0
  1 44  1  0
  4  2  1  0
 37  5  1  0
 13  8  1  0
 27 22  1  0
M  END
>  <cnnaffinity>  (1) 
-6.21744

>  <filename>  (1) 
C[C@@H]1C[C@H]1c1nc(CCCc2cnccn2)n(-c2cccnc2)n1

$$$$
