
     RDKit          3D

 27 28  0  0  0  0  0  0  0  0999 V2000
    6.6979    1.1351   22.9580 H   0  0  0  0  0  0  0  0  0  0  0  0
    7.6467    1.5001   22.5667 C   0  0  0  0  0  0  0  0  0  0  0  0
    8.0279    2.7581   22.8428 C   0  0  0  0  0  0  0  0  0  0  0  0
    9.6117    3.4906   22.5226 S   0  0  0  0  0  0  0  0  0  0  0  0
    9.0259    5.1357   22.7638 C   0  0  0  0  0  0  0  0  0  0  0  0
    9.8747    6.5120   22.5344 S   0  0  0  0  0  0  0  0  0  0  0  0
    7.7413    5.0594   23.2021 N   0  0  0  0  0  0  0  0  0  0  0  0
    7.2443    5.8716   23.5177 H   0  0  0  0  0  0  0  0  0  0  0  0
    7.1105    3.8352   23.3378 C   0  0  0  0  0  0  0  0  0  0  0  0
    5.9998    3.7332   23.7970 O   0  0  0  0  0  0  0  0  0  0  0  0
    8.5037    0.5432   21.7709 C   0  0  2  0  0  0  0  0  0  0  0  0
    8.8863    1.0804   20.8930 H   0  0  0  0  0  0  0  0  0  0  0  0
    7.5467   -0.8875   21.1227 S   0  0  0  0  0  0  0  0  0  0  0  0
    6.6368   -0.0559   19.8435 C   0  0  0  0  0  0  0  0  0  0  0  0
    7.1427    0.0098   18.5284 C   0  0  0  0  0  0  0  0  0  0  0  0
    8.0887   -0.4788   18.2904 H   0  0  0  0  0  0  0  0  0  0  0  0
    6.5414    0.6638   17.5257 N   0  0  0  0  0  0  0  0  0  0  0  0
    5.3907    1.2999   17.8024 C   0  0  0  0  0  0  0  0  0  0  0  0
    4.9300    1.8438   16.9802 H   0  0  0  0  0  0  0  0  0  0  0  0
    4.7969    1.2941   19.0687 C   0  0  0  0  0  0  0  0  0  0  0  0
    3.8754    1.8399   19.2367 H   0  0  0  0  0  0  0  0  0  0  0  0
    5.4279    0.6075   20.1096 C   0  0  0  0  0  0  0  0  0  0  0  0
    5.0043    0.6013   21.1153 H   0  0  0  0  0  0  0  0  0  0  0  0
    9.6973    0.0334   22.5806 C   0  0  0  0  0  0  0  0  0  0  0  0
   10.3252    0.8871   22.8569 H   0  0  0  0  0  0  0  0  0  0  0  0
    9.3708   -0.4613   23.5015 H   0  0  0  0  0  0  0  0  0  0  0  0
   10.2965   -0.6648   21.9885 H   0  0  0  0  0  0  0  0  0  0  0  0
  1  2  1  0
  2  3  2  3
  3  4  1  0
  4  5  1  0
  5  6  2  0
  5  7  1  0
  7  8  1  0
  7  9  1  0
  9 10  2  0
  2 11  1  0
 11 12  1  6
 11 13  1  0
 13 14  1  0
 14 15  2  0
 15 16  1  0
 15 17  1  0
 17 18  2  0
 18 19  1  0
 18 20  1  0
 20 21  1  0
 20 22  2  0
 22 23  1  0
 11 24  1  0
 24 25  1  0
 24 26  1  0
 24 27  1  0
  9  3  1  0
 22 14  1  0
M  END
>  <cnnaffinity>  (1) 
-4.83608

>  <filename>  (1) 
C[C@H](C=C1SC(=S)NC1=O)Sc1cccnc1

$$$$
