
     RDKit          3D

 32 33  0  0  0  0  0  0  0  0999 V2000
    4.9150    1.7923   16.9872 H   0  0  0  0  0  0  0  0  0  0  0  0
    5.3963    1.2983   17.8293 C   0  0  0  0  0  0  0  0  0  0  0  0
    6.5566    0.6789   17.5646 N   0  0  0  0  0  0  0  0  0  0  0  0
    7.1665    0.0603   18.5876 C   0  0  0  0  0  0  0  0  0  0  0  0
    8.1138   -0.4277   18.3669 H   0  0  0  0  0  0  0  0  0  0  0  0
    6.6735    0.0050   19.9135 C   0  0  0  0  0  0  0  0  0  0  0  0
    7.3578   -0.6942   20.9427 N   0  0  0  0  0  0  0  0  0  0  0  0
    7.0201   -2.0911   21.1086 C   0  0  0  0  0  0  0  0  0  0  0  0
    5.9512   -2.2432   21.3219 H   0  0  0  0  0  0  0  0  0  0  0  0
    7.2186   -2.6486   20.1897 H   0  0  0  0  0  0  0  0  0  0  0  0
    7.6071   -2.5573   21.9100 H   0  0  0  0  0  0  0  0  0  0  0  0
    8.3197   -0.0079   21.8029 C   0  0  2  0  0  0  0  0  0  0  0  0
    8.6961   -0.7613   22.5052 H   0  0  0  0  0  0  0  0  0  0  0  0
    7.6489    1.1118   22.5988 C   0  0  0  0  0  0  0  0  0  0  0  0
    8.3305    1.5204   23.3508 H   0  0  0  0  0  0  0  0  0  0  0  0
    6.7605    0.7272   23.1071 H   0  0  0  0  0  0  0  0  0  0  0  0
    7.3296    1.9293   21.9400 H   0  0  0  0  0  0  0  0  0  0  0  0
    9.5229    0.4972   20.9739 C   0  0  0  0  0  0  0  0  0  0  0  0
    9.8534   -0.3149   20.3169 H   0  0  0  0  0  0  0  0  0  0  0  0
    9.1457    1.2922   20.3265 H   0  0  0  0  0  0  0  0  0  0  0  0
   10.6608    1.0116   21.8061 C   0  0  0  0  0  0  0  0  0  0  0  0
   11.7771   -0.0643   22.5741 S   0  0  0  0  0  0  0  0  0  0  0  0
   12.5786    1.2411   23.3562 C   0  0  0  0  0  0  0  0  0  0  0  0
   13.4306    1.0362   23.9876 H   0  0  0  0  0  0  0  0  0  0  0  0
   12.0204    2.4432   23.0537 C   0  0  0  0  0  0  0  0  0  0  0  0
   12.3778    3.3959   23.4332 H   0  0  0  0  0  0  0  0  0  0  0  0
   10.9116    2.3031   22.1621 C   0  0  0  0  0  0  0  0  0  0  0  0
   10.3038    3.1300   21.8121 H   0  0  0  0  0  0  0  0  0  0  0  0
    5.4463    0.6434   20.1555 C   0  0  0  0  0  0  0  0  0  0  0  0
    5.0352    0.6153   21.1661 H   0  0  0  0  0  0  0  0  0  0  0  0
    4.8078    1.3075   19.0996 C   0  0  0  0  0  0  0  0  0  0  0  0
    3.8787    1.8384   19.2561 H   0  0  0  0  0  0  0  0  0  0  0  0
  1  2  1  0
  2  3  2  0
  3  4  1  0
  4  5  1  0
  4  6  2  0
  6  7  1  0
  7  8  1  0
  8  9  1  0
  8 10  1  0
  8 11  1  0
  7 12  1  0
 12 13  1  1
 12 14  1  0
 14 15  1  0
 14 16  1  0
 14 17  1  0
 12 18  1  0
 18 19  1  0
 18 20  1  0
 18 21  1  0
 21 22  1  0
 22 23  1  0
 23 24  1  0
 23 25  2  0
 25 26  1  0
 25 27  1  0
 27 28  1  0
  6 29  1  0
 29 30  1  0
 29 31  2  0
 31 32  1  0
 31  2  1  0
 27 21  2  0
M  END
>  <cnnaffinity>  (1) 
-5.09681

>  <filename>  (1) 
C[C@H](Cc1cccs1)N(C)c1cccnc1

$$$$
