
     RDKit          3D

 28 29  0  0  0  0  0  0  0  0999 V2000
    5.0058    1.8195   16.9128 H   0  0  0  0  0  0  0  0  0  0  0  0
    5.4221    1.2956   17.7756 C   0  0  0  0  0  0  0  0  0  0  0  0
    6.5612    0.6179   17.5662 N   0  0  0  0  0  0  0  0  0  0  0  0
    7.1095    0.0046   18.6249 C   0  0  0  0  0  0  0  0  0  0  0  0
    8.0097   -0.5701   18.4227 H   0  0  0  0  0  0  0  0  0  0  0  0
    6.5918    0.0467   19.9321 C   0  0  0  0  0  0  0  0  0  0  0  0
    7.3566   -0.6284   21.0600 C   0  0  1  0  0  0  0  0  0  0  0  0
    6.7338   -0.6218   21.9724 H   0  0  0  0  0  0  0  0  0  0  0  0
    7.6445   -1.9769   20.6826 O   0  0  0  0  0  0  0  0  0  0  0  0
    6.5791   -2.8928   20.8884 C   0  0  0  0  0  0  0  0  0  0  0  0
    6.6551   -3.6473   20.0945 H   0  0  0  0  0  0  0  0  0  0  0  0
    5.5937   -2.4159   20.7509 H   0  0  0  0  0  0  0  0  0  0  0  0
    6.6461   -3.5348   22.2591 C   0  0  0  0  0  0  0  0  0  0  0  0
    8.0933   -4.3512   22.7483 S   0  0  0  0  0  0  0  0  0  0  0  0
    7.4209   -4.7367   24.2820 C   0  0  0  0  0  0  0  0  0  0  0  0
    7.9651   -5.3542   24.9838 H   0  0  0  0  0  0  0  0  0  0  0  0
    6.1617   -4.2474   24.4281 C   0  0  0  0  0  0  0  0  0  0  0  0
    5.5854   -4.3254   25.3474 H   0  0  0  0  0  0  0  0  0  0  0  0
    5.7108   -3.5746   23.2543 C   0  0  0  0  0  0  0  0  0  0  0  0
    4.7215   -3.1329   23.1911 H   0  0  0  0  0  0  0  0  0  0  0  0
    8.6832    0.0395   21.3963 C   0  0  0  0  0  0  0  0  0  0  0  0
    8.5106    1.0428   21.8040 H   0  0  0  0  0  0  0  0  0  0  0  0
    9.3307    0.1315   20.5185 H   0  0  0  0  0  0  0  0  0  0  0  0
    9.2058   -0.5637   22.1445 H   0  0  0  0  0  0  0  0  0  0  0  0
    5.3752    0.7151   20.1180 C   0  0  0  0  0  0  0  0  0  0  0  0
    4.8999    0.7500   21.1023 H   0  0  0  0  0  0  0  0  0  0  0  0
    4.7820    1.3463   19.0190 C   0  0  0  0  0  0  0  0  0  0  0  0
    3.8472    1.8861   19.1125 H   0  0  0  0  0  0  0  0  0  0  0  0
  1  2  1  0
  2  3  2  0
  3  4  1  0
  4  5  1  0
  4  6  2  0
  6  7  1  0
  7  8  1  1
  7  9  1  0
  9 10  1  0
 10 11  1  0
 10 12  1  0
 10 13  1  0
 13 14  1  0
 14 15  1  0
 15 16  1  0
 15 17  2  0
 17 18  1  0
 17 19  1  0
 19 20  1  0
  7 21  1  0
 21 22  1  0
 21 23  1  0
 21 24  1  0
  6 25  1  0
 25 26  1  0
 25 27  2  0
 27 28  1  0
 27  2  1  0
 19 13  2  0
M  END
>  <cnnaffinity>  (1) 
-4.22625

>  <filename>  (1) 
C[C@H](OCc1cccs1)c1cccnc1

$$$$
