
     RDKit          3D

 32 33  0  0  0  0  0  0  0  0999 V2000
    4.9250    1.7947   16.9964 H   0  0  0  0  0  0  0  0  0  0  0  0
    5.4008    1.2919   17.8366 C   0  0  0  0  0  0  0  0  0  0  0  0
    6.5589    0.6752   17.5689 N   0  0  0  0  0  0  0  0  0  0  0  0
    7.1736    0.0516   18.5874 C   0  0  0  0  0  0  0  0  0  0  0  0
    8.1227   -0.4162   18.3396 H   0  0  0  0  0  0  0  0  0  0  0  0
    6.6743   -0.0301   19.9233 C   0  0  0  0  0  0  0  0  0  0  0  0
    7.3049   -0.7377   20.9425 N   0  0  0  0  0  0  0  0  0  0  0  0
    6.8016   -0.7875   21.8158 H   0  0  0  0  0  0  0  0  0  0  0  0
    8.7060   -1.1017   20.9498 C   0  0  1  0  0  0  0  0  0  0  0  0
    8.8916   -1.6594   20.0221 H   0  0  0  0  0  0  0  0  0  0  0  0
    9.6320    0.1192   20.9193 C   0  0  0  0  0  0  0  0  0  0  0  0
   10.6715   -0.2028   20.8441 H   0  0  0  0  0  0  0  0  0  0  0  0
    9.5230    0.7218   21.8262 H   0  0  0  0  0  0  0  0  0  0  0  0
    9.4090    0.7566   20.0616 H   0  0  0  0  0  0  0  0  0  0  0  0
    8.9981   -2.0827   22.1103 C   0  0  0  0  0  0  0  0  0  0  0  0
    8.2833   -2.9134   22.0288 H   0  0  0  0  0  0  0  0  0  0  0  0
    9.9912   -2.5109   21.9391 H   0  0  0  0  0  0  0  0  0  0  0  0
    8.9490   -1.4848   23.5030 C   0  0  0  0  0  0  0  0  0  0  0  0
    7.7447   -1.4888   24.2315 C   0  0  0  0  0  0  0  0  0  0  0  0
    6.8639   -1.9469   23.7809 H   0  0  0  0  0  0  0  0  0  0  0  0
    7.6539   -0.9100   25.5029 C   0  0  0  0  0  0  0  0  0  0  0  0
    6.6961   -0.9009   26.0155 H   0  0  0  0  0  0  0  0  0  0  0  0
    8.7900   -0.3471   26.0951 C   0  0  0  0  0  0  0  0  0  0  0  0
    8.7262    0.1134   27.0790 H   0  0  0  0  0  0  0  0  0  0  0  0
   10.0034   -0.3397   25.4052 C   0  0  0  0  0  0  0  0  0  0  0  0
   10.9047    0.0779   25.8447 H   0  0  0  0  0  0  0  0  0  0  0  0
   10.0588   -0.8585   24.1083 C   0  0  0  0  0  0  0  0  0  0  0  0
   11.5631   -0.6353   23.2451 Cl  0  0  0  0  0  0  0  0  0  0  0  0
    5.4533    0.6231   20.1680 C   0  0  0  0  0  0  0  0  0  0  0  0
    5.0221    0.6205   21.1712 H   0  0  0  0  0  0  0  0  0  0  0  0
    4.8241    1.2923   19.1129 C   0  0  0  0  0  0  0  0  0  0  0  0
    3.8957    1.8243   19.2649 H   0  0  0  0  0  0  0  0  0  0  0  0
  1  2  1  0
  2  3  2  0
  3  4  1  0
  4  5  1  0
  4  6  2  0
  6  7  1  0
  7  8  1  0
  7  9  1  0
  9 10  1  6
  9 11  1  0
 11 12  1  0
 11 13  1  0
 11 14  1  0
  9 15  1  0
 15 16  1  0
 15 17  1  0
 15 18  1  0
 18 19  2  0
 19 20  1  0
 19 21  1  0
 21 22  1  0
 21 23  2  0
 23 24  1  0
 23 25  1  0
 25 26  1  0
 25 27  2  0
 27 28  1  0
  6 29  1  0
 29 30  1  0
 29 31  2  0
 31 32  1  0
 31  2  1  0
 27 18  1  0
M  END
>  <cnnaffinity>  (1) 
-4.98917

>  <filename>  (1) 
C[C@@H](Cc1ccccc1Cl)Nc1cccnc1

$$$$
