
     RDKit          3D

 34 35  0  0  0  0  0  0  0  0999 V2000
    9.3904   -0.4831   21.6223 H   0  0  0  0  0  0  0  0  0  0  0  0
    8.8903    0.1199   21.0610 O   0  0  0  0  0  0  0  0  0  0  0  0
    7.5124   -0.1764   21.2927 C   0  0  2  0  0  0  0  0  0  0  0  0
    6.7539    0.4962   20.1521 C   0  0  0  0  0  0  0  0  0  0  0  0
    7.3026    0.4086   18.8594 C   0  0  0  0  0  0  0  0  0  0  0  0
    8.2925   -0.0237   18.7272 H   0  0  0  0  0  0  0  0  0  0  0  0
    6.6885    0.8142   17.7391 N   0  0  0  0  0  0  0  0  0  0  0  0
    5.4711    1.3582   17.8750 C   0  0  0  0  0  0  0  0  0  0  0  0
    4.9854    1.6803   16.9557 H   0  0  0  0  0  0  0  0  0  0  0  0
    4.8320    1.5086   19.1081 C   0  0  0  0  0  0  0  0  0  0  0  0
    3.8474    1.9589   19.1486 H   0  0  0  0  0  0  0  0  0  0  0  0
    5.4851    1.0797   20.2670 C   0  0  0  0  0  0  0  0  0  0  0  0
    4.9990    1.1897   21.2381 H   0  0  0  0  0  0  0  0  0  0  0  0
    7.1521    0.3578   22.6832 C   0  0  0  0  0  0  0  0  0  0  0  0
    7.2964    1.4413   22.7366 H   0  0  0  0  0  0  0  0  0  0  0  0
    7.8131   -0.0976   23.4319 H   0  0  0  0  0  0  0  0  0  0  0  0
    6.1214    0.1217   22.9596 H   0  0  0  0  0  0  0  0  0  0  0  0
    7.3528   -1.7214   21.2189 C   0  0  0  0  0  0  0  0  0  0  0  0
    7.8087   -2.1619   22.1137 H   0  0  0  0  0  0  0  0  0  0  0  0
    7.9648   -2.0571   20.3773 H   0  0  0  0  0  0  0  0  0  0  0  0
    5.9193   -2.2396   21.0587 C   0  0  0  0  0  0  0  0  0  0  0  0
    5.4513   -1.7479   20.1975 H   0  0  0  0  0  0  0  0  0  0  0  0
    5.3575   -1.9487   21.9445 H   0  0  0  0  0  0  0  0  0  0  0  0
    5.7912   -3.7340   20.9242 C   0  0  0  0  0  0  0  0  0  0  0  0
    5.6877   -4.3490   19.6701 C   0  0  0  0  0  0  0  0  0  0  0  0
    5.7312   -3.7364   18.7743 H   0  0  0  0  0  0  0  0  0  0  0  0
    5.5065   -5.7308   19.5749 C   0  0  0  0  0  0  0  0  0  0  0  0
    5.4104   -6.2082   18.6030 H   0  0  0  0  0  0  0  0  0  0  0  0
    5.3837   -6.5013   20.7281 C   0  0  0  0  0  0  0  0  0  0  0  0
    5.1683   -7.5574   20.6285 H   0  0  0  0  0  0  0  0  0  0  0  0
    5.5029   -5.8979   21.9790 C   0  0  0  0  0  0  0  0  0  0  0  0
    5.2907   -6.8402   23.4264 Cl  0  0  0  0  0  0  0  0  0  0  0  0
    5.7381   -4.5275   22.0802 C   0  0  0  0  0  0  0  0  0  0  0  0
    5.8916   -4.0834   23.0594 H   0  0  0  0  0  0  0  0  0  0  0  0
  1  2  1  0
  3  2  1  6
  3  4  1  0
  4  5  2  0
  5  6  1  0
  5  7  1  0
  7  8  2  0
  8  9  1  0
  8 10  1  0
 10 11  1  0
 10 12  2  0
 12 13  1  0
  3 14  1  0
 14 15  1  0
 14 16  1  0
 14 17  1  0
  3 18  1  0
 18 19  1  0
 18 20  1  0
 18 21  1  0
 21 22  1  0
 21 23  1  0
 21 24  1  0
 24 25  2  0
 25 26  1  0
 25 27  1  0
 27 28  1  0
 27 29  2  0
 29 30  1  0
 29 31  1  0
 31 32  1  0
 31 33  2  0
 33 34  1  0
 12  4  1  0
 33 24  1  0
M  END
>  <cnnaffinity>  (1) 
-4.94525

>  <filename>  (1) 
C[C@@](O)(CCc1cccc(Cl)c1)c1cccnc1

$$$$
