
     RDKit          3D

 45 48  0  0  0  0  0  0  0  0999 V2000
    6.0655   -5.1938   24.0641 C   0  0  0  0  0  0  0  0  0  0  0  0
    7.0513   -4.4522   23.1878 C   0  0  2  0  0  0  0  0  0  0  0  0
    8.4554   -4.1810   23.6575 C   0  0  0  0  0  0  0  0  0  0  0  0
    7.4684   -3.0464   23.5427 C   0  0  1  0  0  0  0  0  0  0  0  0
    7.6614   -2.0198   22.4909 C   0  0  0  0  0  0  0  0  0  0  0  0
    6.6915   -1.5727   21.7118 N   0  0  0  0  0  0  0  0  0  0  0  0
    7.3273   -0.6396   20.9529 N   0  0  0  0  0  0  0  0  0  0  0  0
    6.6430    0.0158   19.8926 C   0  0  0  0  0  0  0  0  0  0  0  0
    5.4232    0.6484   20.1415 C   0  0  0  0  0  0  0  0  0  0  0  0
    4.8061    1.3216   19.0851 C   0  0  0  0  0  0  0  0  0  0  0  0
    5.4068    1.3153   17.8211 C   0  0  0  0  0  0  0  0  0  0  0  0
    6.5571    0.6736   17.5650 N   0  0  0  0  0  0  0  0  0  0  0  0
    7.1538    0.0398   18.5816 C   0  0  0  0  0  0  0  0  0  0  0  0
    8.0802   -0.4810   18.3455 H   0  0  0  0  0  0  0  0  0  0  0  0
    4.9459    1.8310   16.9810 H   0  0  0  0  0  0  0  0  0  0  0  0
    3.8712    1.8488   19.2304 H   0  0  0  0  0  0  0  0  0  0  0  0
    4.9903    0.6017   21.1419 H   0  0  0  0  0  0  0  0  0  0  0  0
    8.6141   -0.5144   21.3856 C   0  0  0  0  0  0  0  0  0  0  0  0
    9.4988    0.6048   20.9418 C   0  0  0  0  0  0  0  0  0  0  0  0
    8.9663    2.0040   21.3182 C   0  0  0  0  0  0  0  0  0  0  0  0
    8.7619    2.1974   22.8422 C   0  0  0  0  0  0  0  0  0  0  0  0
   10.0651    2.0246   23.5929 C   0  0  0  0  0  0  0  0  0  0  0  0
   11.1072    2.9551   23.4182 C   0  0  0  0  0  0  0  0  0  0  0  0
   12.3844    2.6413   23.8785 C   0  0  0  0  0  0  0  0  0  0  0  0
   12.5588    1.4357   24.5553 C   0  0  0  0  0  0  0  0  0  0  0  0
   11.4459    0.6263   24.7884 C   0  0  0  0  0  0  0  0  0  0  0  0
   10.2217    0.9130   24.3268 N   0  0  0  0  0  0  0  0  0  0  0  0
   11.5402   -0.3049   25.3447 H   0  0  0  0  0  0  0  0  0  0  0  0
   13.5436    1.1262   24.8748 H   0  0  0  0  0  0  0  0  0  0  0  0
   13.2313    3.3061   23.6973 H   0  0  0  0  0  0  0  0  0  0  0  0
   10.9039    3.8744   22.8825 H   0  0  0  0  0  0  0  0  0  0  0  0
    8.3453    3.1944   23.0335 H   0  0  0  0  0  0  0  0  0  0  0  0
    8.0383    1.4704   23.2312 H   0  0  0  0  0  0  0  0  0  0  0  0
    8.0309    2.2013   20.7817 H   0  0  0  0  0  0  0  0  0  0  0  0
    9.6919    2.7465   20.9642 H   0  0  0  0  0  0  0  0  0  0  0  0
   10.4852    0.4291   21.3786 H   0  0  0  0  0  0  0  0  0  0  0  0
    9.6019    0.5370   19.8571 H   0  0  0  0  0  0  0  0  0  0  0  0
    8.8689   -1.4216   22.2997 N   0  0  0  0  0  0  0  0  0  0  0  0
    7.0854   -2.6283   24.4785 H   0  0  0  0  0  0  0  0  0  0  0  0
    9.2653   -4.1940   22.9277 H   0  0  0  0  0  0  0  0  0  0  0  0
    8.7288   -4.5085   24.6599 H   0  0  0  0  0  0  0  0  0  0  0  0
    6.9347   -4.6386   22.1179 H   0  0  0  0  0  0  0  0  0  0  0  0
    6.1633   -6.2765   23.9215 H   0  0  0  0  0  0  0  0  0  0  0  0
    6.2273   -4.9874   25.1312 H   0  0  0  0  0  0  0  0  0  0  0  0
    5.0370   -4.9021   23.8166 H   0  0  0  0  0  0  0  0  0  0  0  0
  1  2  1  0
  2  3  1  0
  3  4  1  0
  4  5  1  0
  5  6  2  0
  6  7  1  0
  7  8  1  0
  8  9  2  0
  9 10  1  0
 10 11  2  0
 11 12  1  0
 12 13  2  0
 13 14  1  0
 11 15  1  0
 10 16  1  0
  9 17  1  0
  7 18  1  0
 18 19  1  0
 19 20  1  0
 20 21  1  0
 21 22  1  0
 22 23  2  0
 23 24  1  0
 24 25  2  0
 25 26  1  0
 26 27  2  0
 26 28  1  0
 25 29  1  0
 24 30  1  0
 23 31  1  0
 21 32  1  0
 21 33  1  0
 20 34  1  0
 20 35  1  0
 19 36  1  0
 19 37  1  0
 18 38  2  0
  4 39  1  1
  3 40  1  0
  3 41  1  0
  2 42  1  6
  1 43  1  0
  1 44  1  0
  1 45  1  0
  4  2  1  0
 38  5  1  0
 13  8  1  0
 27 22  1  0
M  END
>  <cnnaffinity>  (1) 
-6.176

>  <filename>  (1) 
C[C@@H]1C[C@H]1c1nc(CCCc2ccccn2)n(-c2cccnc2)n1

$$$$
