
     RDKit          3D

 22 22  0  0  0  0  0  0  0  0999 V2000
    4.9189    1.7858   16.9934 H   0  0  0  0  0  0  0  0  0  0  0  0
    5.4001    1.2945   17.8365 C   0  0  0  0  0  0  0  0  0  0  0  0
    6.5630    0.6793   17.5687 N   0  0  0  0  0  0  0  0  0  0  0  0
    7.1624    0.0496   18.5840 C   0  0  0  0  0  0  0  0  0  0  0  0
    8.1183   -0.4283   18.3651 H   0  0  0  0  0  0  0  0  0  0  0  0
    6.6419   -0.0262   19.8872 C   0  0  0  0  0  0  0  0  0  0  0  0
    7.5747   -0.8682   21.1376 S   0  0  0  0  0  0  0  0  0  0  0  0
    8.6004    0.5509   21.6838 C   0  0  1  0  0  0  0  0  0  0  0  0
    8.9513    1.0278   20.7646 H   0  0  0  0  0  0  0  0  0  0  0  0
    7.6644    1.8815   22.5072 S   0  0  0  0  0  0  0  0  0  0  0  0
    7.2941    1.1075   24.1344 C   0  0  0  0  0  0  0  0  0  0  0  0
    6.8807   -0.1518   24.0242 F   0  0  0  0  0  0  0  0  0  0  0  0
    8.3905    1.0959   24.9034 F   0  0  0  0  0  0  0  0  0  0  0  0
    6.3443    1.8168   24.7471 F   0  0  0  0  0  0  0  0  0  0  0  0
    9.7878    0.0317   22.4799 C   0  0  0  0  0  0  0  0  0  0  0  0
   10.3741    0.8758   22.8558 H   0  0  0  0  0  0  0  0  0  0  0  0
    9.4515   -0.5648   23.3324 H   0  0  0  0  0  0  0  0  0  0  0  0
   10.4288   -0.5830   21.8408 H   0  0  0  0  0  0  0  0  0  0  0  0
    5.4320    0.6337   20.1638 C   0  0  0  0  0  0  0  0  0  0  0  0
    5.0165    0.6378   21.1735 H   0  0  0  0  0  0  0  0  0  0  0  0
    4.8078    1.3068   19.1050 C   0  0  0  0  0  0  0  0  0  0  0  0
    3.8782    1.8432   19.2578 H   0  0  0  0  0  0  0  0  0  0  0  0
  1  2  1  0
  2  3  2  0
  3  4  1  0
  4  5  1  0
  4  6  2  0
  6  7  1  0
  7  8  1  0
  8  9  1  6
  8 10  1  0
 10 11  1  0
 11 12  1  0
 11 13  1  0
 11 14  1  0
  8 15  1  0
 15 16  1  0
 15 17  1  0
 15 18  1  0
  6 19  1  0
 19 20  1  0
 19 21  2  0
 21 22  1  0
 21  2  1  0
M  END
>  <cnnaffinity>  (1) 
-4.46855

>  <filename>  (1) 
C[C@@H](Sc1cccnc1)SC(F)(F)F

$$$$
