
     RDKit          3D

 42 45  0  0  0  0  0  0  0  0999 V2000
    8.2925   -3.4578   26.1137 C   0  0  0  0  0  0  0  0  0  0  0  0
    7.7436   -2.4364   25.1363 C   0  0  2  0  0  0  0  0  0  0  0  0
    6.2954   -2.4308   24.7303 C   0  0  0  0  0  0  0  0  0  0  0  0
    7.3623   -2.8052   23.7240 C   0  0  1  0  0  0  0  0  0  0  0  0
    7.6651   -1.9100   22.5726 C   0  0  0  0  0  0  0  0  0  0  0  0
    6.7300   -1.5561   21.7087 N   0  0  0  0  0  0  0  0  0  0  0  0
    7.3786   -0.6906   20.8886 N   0  0  0  0  0  0  0  0  0  0  0  0
    6.6712   -0.0280   19.8488 C   0  0  0  0  0  0  0  0  0  0  0  0
    5.4574    0.6101   20.1255 C   0  0  0  0  0  0  0  0  0  0  0  0
    4.8270    1.3029   19.0891 C   0  0  0  0  0  0  0  0  0  0  0  0
    5.4104    1.3101   17.8175 C   0  0  0  0  0  0  0  0  0  0  0  0
    6.5466    0.6557   17.5323 N   0  0  0  0  0  0  0  0  0  0  0  0
    7.1561    0.0015   18.5287 C   0  0  0  0  0  0  0  0  0  0  0  0
    8.0785   -0.5224   18.2772 H   0  0  0  0  0  0  0  0  0  0  0  0
    4.9489    1.8565   16.9979 H   0  0  0  0  0  0  0  0  0  0  0  0
    3.8979    1.8342   19.2573 H   0  0  0  0  0  0  0  0  0  0  0  0
    5.0290    0.5457   21.1263 H   0  0  0  0  0  0  0  0  0  0  0  0
    8.6644   -0.5469   21.3281 C   0  0  0  0  0  0  0  0  0  0  0  0
    9.5495    0.5820   20.8889 C   0  0  0  0  0  0  0  0  0  0  0  0
    9.1274    1.9825   21.4472 C   0  0  0  0  0  0  0  0  0  0  0  0
    8.9241    2.0252   22.9507 C   0  0  0  0  0  0  0  0  0  0  0  0
    9.9640    2.2166   23.7116 N   0  0  0  0  0  0  0  0  0  0  0  0
    9.7672    2.1398   25.0607 N   0  0  0  0  0  0  0  0  0  0  0  0
    8.5855    1.8939   25.7480 C   0  0  0  0  0  0  0  0  0  0  0  0
    8.5689    1.9129   26.9656 O   0  0  0  0  0  0  0  0  0  0  0  0
    7.4573    1.6435   24.8640 C   0  0  0  0  0  0  0  0  0  0  0  0
    7.6122    1.7595   23.5116 C   0  0  0  0  0  0  0  0  0  0  0  0
    6.7885    1.6443   22.8195 H   0  0  0  0  0  0  0  0  0  0  0  0
    6.5438    1.3697   25.3744 H   0  0  0  0  0  0  0  0  0  0  0  0
   10.5670    2.1799   25.6768 H   0  0  0  0  0  0  0  0  0  0  0  0
    9.8869    2.7211   21.1763 H   0  0  0  0  0  0  0  0  0  0  0  0
    8.1911    2.2923   20.9672 H   0  0  0  0  0  0  0  0  0  0  0  0
    9.5609    0.6230   19.7976 H   0  0  0  0  0  0  0  0  0  0  0  0
   10.5656    0.3384   21.2099 H   0  0  0  0  0  0  0  0  0  0  0  0
    8.8904   -1.3585   22.3443 N   0  0  0  0  0  0  0  0  0  0  0  0
    7.4586   -3.8569   23.4593 H   0  0  0  0  0  0  0  0  0  0  0  0
    5.6398   -3.2153   25.1069 H   0  0  0  0  0  0  0  0  0  0  0  0
    5.8166   -1.4538   24.6367 H   0  0  0  0  0  0  0  0  0  0  0  0
    8.1902   -1.4428   25.2281 H   0  0  0  0  0  0  0  0  0  0  0  0
    9.3767   -3.5597   25.9913 H   0  0  0  0  0  0  0  0  0  0  0  0
    8.0968   -3.1523   27.1505 H   0  0  0  0  0  0  0  0  0  0  0  0
    7.8476   -4.4519   25.9835 H   0  0  0  0  0  0  0  0  0  0  0  0
  1  2  1  0
  2  3  1  0
  3  4  1  0
  4  5  1  0
  5  6  2  0
  6  7  1  0
  7  8  1  0
  8  9  2  0
  9 10  1  0
 10 11  2  0
 11 12  1  0
 12 13  2  0
 13 14  1  0
 11 15  1  0
 10 16  1  0
  9 17  1  0
  7 18  1  0
 18 19  1  0
 19 20  1  0
 20 21  1  0
 21 22  2  0
 22 23  1  0
 23 24  1  0
 24 25  2  0
 24 26  1  0
 26 27  2  0
 27 28  1  0
 26 29  1  0
 23 30  1  0
 20 31  1  0
 20 32  1  0
 19 33  1  0
 19 34  1  0
 18 35  2  0
  4 36  1  6
  3 37  1  0
  3 38  1  0
  2 39  1  6
  1 40  1  0
  1 41  1  0
  1 42  1  0
  4  2  1  0
 35  5  1  0
 13  8  1  0
 27 21  1  0
M  END
>  <cnnaffinity>  (1) 
-5.93554

>  <filename>  (1) 
C[C@@H]1C[C@H]1c1nc(CCc2ccc(=O)[nH]n2)n(-c2cccnc2)n1

$$$$
