
     RDKit          3D

 40 41  0  0  0  0  0  0  0  0999 V2000
    8.8591    3.1652   27.2837 H   0  0  0  0  0  0  0  0  0  0  0  0
    9.0464    3.4900   26.3906 O   0  0  0  0  0  0  0  0  0  0  0  0
    9.6492    2.4264   25.6714 C   0  0  0  0  0  0  0  0  0  0  0  0
    9.9285    2.8221   24.6809 H   0  0  0  0  0  0  0  0  0  0  0  0
   10.5871    2.0797   26.1338 H   0  0  0  0  0  0  0  0  0  0  0  0
    8.7693    1.1858   25.5236 C   0  0  0  0  0  0  0  0  0  0  0  0
    8.3667    0.9468   26.5257 H   0  0  0  0  0  0  0  0  0  0  0  0
    7.5982    1.3943   24.5507 C   0  0  0  0  0  0  0  0  0  0  0  0
    7.9796    1.7987   23.5991 H   0  0  0  0  0  0  0  0  0  0  0  0
    6.8935    2.1302   24.9544 H   0  0  0  0  0  0  0  0  0  0  0  0
    6.8634    0.0837   24.2699 C   0  0  0  0  0  0  0  0  0  0  0  0
    6.0526    0.2996   23.5656 H   0  0  0  0  0  0  0  0  0  0  0  0
    6.3730   -0.2808   25.1943 H   0  0  0  0  0  0  0  0  0  0  0  0
    7.7989   -0.9039   23.7261 N   0  0  0  0  0  0  0  0  0  0  0  0
    7.2241   -2.0637   23.0643 C   0  0  2  0  0  0  0  0  0  0  0  0
    8.0512   -2.7068   22.7277 H   0  0  0  0  0  0  0  0  0  0  0  0
    6.5415   -1.5746   21.8859 N   0  0  0  0  0  0  0  0  0  0  0  0
    5.7708   -0.9956   22.1781 H   0  0  0  0  0  0  0  0  0  0  0  0
    7.3245   -0.9144   20.9680 C   0  0  0  0  0  0  0  0  0  0  0  0
    8.5218   -1.1096   20.8496 O   0  0  0  0  0  0  0  0  0  0  0  0
    6.5911   -0.0516   20.0002 C   0  0  0  0  0  0  0  0  0  0  0  0
    7.1929    0.0132   18.7360 C   0  0  0  0  0  0  0  0  0  0  0  0
    8.1498   -0.4760   18.5683 H   0  0  0  0  0  0  0  0  0  0  0  0
    6.6542    0.6347   17.6851 N   0  0  0  0  0  0  0  0  0  0  0  0
    5.4862    1.2615   17.8711 C   0  0  0  0  0  0  0  0  0  0  0  0
    5.0561    1.7421   16.9938 H   0  0  0  0  0  0  0  0  0  0  0  0
    4.8235    1.2996   19.1031 C   0  0  0  0  0  0  0  0  0  0  0  0
    3.8936    1.8462   19.1884 H   0  0  0  0  0  0  0  0  0  0  0  0
    5.3867    0.6433   20.1974 C   0  0  0  0  0  0  0  0  0  0  0  0
    4.8861    0.7163   21.1686 H   0  0  0  0  0  0  0  0  0  0  0  0
    6.2684   -2.8632   23.9456 C   0  0  0  0  0  0  0  0  0  0  0  0
    5.8335   -3.7042   23.4059 H   0  0  0  0  0  0  0  0  0  0  0  0
    6.7804   -3.2614   24.8274 H   0  0  0  0  0  0  0  0  0  0  0  0
    5.4519   -2.2253   24.2965 H   0  0  0  0  0  0  0  0  0  0  0  0
    8.8481   -1.2367   24.6841 C   0  0  0  0  0  0  0  0  0  0  0  0
    9.5308   -1.9659   24.2274 H   0  0  0  0  0  0  0  0  0  0  0  0
    8.4473   -1.6997   25.6100 H   0  0  0  0  0  0  0  0  0  0  0  0
    9.6469    0.0124   25.0460 C   0  0  0  0  0  0  0  0  0  0  0  0
   10.3874   -0.2404   25.8181 H   0  0  0  0  0  0  0  0  0  0  0  0
   10.2034    0.3378   24.1543 H   0  0  0  0  0  0  0  0  0  0  0  0
  1  2  1  0
  2  3  1  0
  3  4  1  0
  3  5  1  0
  3  6  1  0
  6  7  1  0
  6  8  1  0
  8  9  1  0
  8 10  1  0
  8 11  1  0
 11 12  1  0
 11 13  1  0
 11 14  1  0
 14 15  1  0
 15 16  1  6
 15 17  1  0
 17 18  1  0
 17 19  1  0
 19 20  2  0
 19 21  1  0
 21 22  2  0
 22 23  1  0
 22 24  1  0
 24 25  2  0
 25 26  1  0
 25 27  1  0
 27 28  1  0
 27 29  2  0
 29 30  1  0
 15 31  1  0
 31 32  1  0
 31 33  1  0
 31 34  1  0
 14 35  1  0
 35 36  1  0
 35 37  1  0
 35 38  1  0
 38 39  1  0
 38 40  1  0
 38  6  1  0
 29 21  1  0
M  END
>  <cnnaffinity>  (1) 
-4.73827

>  <filename>  (1) 
C[C@@H](NC(=O)c1cccnc1)N1CCC(CO)CC1

$$$$
