
     RDKit          3D

 45 48  0  0  0  0  0  0  0  0999 V2000
    8.2447   -3.5708   26.0344 C   0  0  0  0  0  0  0  0  0  0  0  0
    7.6996   -2.5574   25.0630 C   0  0  2  0  0  0  0  0  0  0  0  0
    6.2973   -2.7220   24.5650 C   0  0  0  0  0  0  0  0  0  0  0  0
    7.4551   -2.9438   23.6300 C   0  0  1  0  0  0  0  0  0  0  0  0
    7.6980   -1.9667   22.5431 C   0  0  0  0  0  0  0  0  0  0  0  0
    6.7627   -1.6218   21.6784 N   0  0  0  0  0  0  0  0  0  0  0  0
    7.3685   -0.6615   20.9397 N   0  0  0  0  0  0  0  0  0  0  0  0
    6.6623    0.0114   19.9031 C   0  0  0  0  0  0  0  0  0  0  0  0
    5.4404    0.6435   20.1669 C   0  0  0  0  0  0  0  0  0  0  0  0
    4.8122    1.3094   19.1099 C   0  0  0  0  0  0  0  0  0  0  0  0
    5.4015    1.2954   17.8385 C   0  0  0  0  0  0  0  0  0  0  0  0
    6.5621    0.6750   17.5785 N   0  0  0  0  0  0  0  0  0  0  0  0
    7.1716    0.0570   18.5943 C   0  0  0  0  0  0  0  0  0  0  0  0
    8.1152   -0.4349   18.3726 H   0  0  0  0  0  0  0  0  0  0  0  0
    4.9163    1.7833   16.9951 H   0  0  0  0  0  0  0  0  0  0  0  0
    3.8792    1.8397   19.2619 H   0  0  0  0  0  0  0  0  0  0  0  0
    5.0139    0.6098   21.1721 H   0  0  0  0  0  0  0  0  0  0  0  0
    8.6323   -0.4703   21.4210 C   0  0  0  0  0  0  0  0  0  0  0  0
    9.5325    0.6096   20.9300 C   0  0  0  0  0  0  0  0  0  0  0  0
    9.0351    2.0130   21.2983 C   0  0  0  0  0  0  0  0  0  0  0  0
    8.9290    2.2184   22.8125 C   0  0  0  0  0  0  0  0  0  0  0  0
    8.4344    3.5893   23.1454 C   0  0  0  0  0  0  0  0  0  0  0  0
    9.3149    4.6539   23.3403 C   0  0  0  0  0  0  0  0  0  0  0  0
    8.7964    5.9251   23.5800 C   0  0  0  0  0  0  0  0  0  0  0  0
    7.4879    6.2015   23.6369 N   0  0  0  0  0  0  0  0  0  0  0  0
    6.6503    5.1775   23.4255 C   0  0  0  0  0  0  0  0  0  0  0  0
    7.0676    3.8713   23.1783 C   0  0  0  0  0  0  0  0  0  0  0  0
    6.3379    3.0901   23.0001 H   0  0  0  0  0  0  0  0  0  0  0  0
    5.5921    5.4088   23.4645 H   0  0  0  0  0  0  0  0  0  0  0  0
    9.4678    6.7599   23.7452 H   0  0  0  0  0  0  0  0  0  0  0  0
   10.3866    4.5033   23.2943 H   0  0  0  0  0  0  0  0  0  0  0  0
    8.2557    1.4697   23.2472 H   0  0  0  0  0  0  0  0  0  0  0  0
    9.9089    2.0551   23.2767 H   0  0  0  0  0  0  0  0  0  0  0  0
    9.7250    2.7561   20.8892 H   0  0  0  0  0  0  0  0  0  0  0  0
    8.0615    2.2025   20.8280 H   0  0  0  0  0  0  0  0  0  0  0  0
    9.6308    0.5338   19.8455 H   0  0  0  0  0  0  0  0  0  0  0  0
   10.5188    0.4287   21.3678 H   0  0  0  0  0  0  0  0  0  0  0  0
    8.8736   -1.2948   22.4175 N   0  0  0  0  0  0  0  0  0  0  0  0
    7.6971   -3.9665   23.3579 H   0  0  0  0  0  0  0  0  0  0  0  0
    5.6988   -1.8347   24.3887 H   0  0  0  0  0  0  0  0  0  0  0  0
    5.7406   -3.5888   24.9066 H   0  0  0  0  0  0  0  0  0  0  0  0
    8.0307   -1.5331   25.2154 H   0  0  0  0  0  0  0  0  0  0  0  0
    9.3374   -3.6120   26.0185 H   0  0  0  0  0  0  0  0  0  0  0  0
    7.9120   -3.3509   27.0545 H   0  0  0  0  0  0  0  0  0  0  0  0
    7.8689   -4.5664   25.7821 H   0  0  0  0  0  0  0  0  0  0  0  0
  1  2  1  0
  2  3  1  0
  3  4  1  0
  4  5  1  0
  5  6  2  0
  6  7  1  0
  7  8  1  0
  8  9  2  0
  9 10  1  0
 10 11  2  0
 11 12  1  0
 12 13  2  0
 13 14  1  0
 11 15  1  0
 10 16  1  0
  9 17  1  0
  7 18  1  0
 18 19  1  0
 19 20  1  0
 20 21  1  0
 21 22  1  0
 22 23  2  0
 23 24  1  0
 24 25  2  0
 25 26  1  0
 26 27  2  0
 27 28  1  0
 26 29  1  0
 24 30  1  0
 23 31  1  0
 21 32  1  0
 21 33  1  0
 20 34  1  0
 20 35  1  0
 19 36  1  0
 19 37  1  0
 18 38  2  0
  4 39  1  6
  3 40  1  0
  3 41  1  0
  2 42  1  6
  1 43  1  0
  1 44  1  0
  1 45  1  0
  4  2  1  0
 38  5  1  0
 13  8  1  0
 27 22  1  0
M  END
>  <cnnaffinity>  (1) 
-5.99337

>  <filename>  (1) 
C[C@@H]1C[C@H]1c1nc(CCCc2ccncc2)n(-c2cccnc2)n1

$$$$
