
     RDKit          3D

 35 36  0  0  0  0  0  0  0  0999 V2000
    4.9283    1.7844   16.9933 H   0  0  0  0  0  0  0  0  0  0  0  0
    5.4048    1.2911   17.8382 C   0  0  0  0  0  0  0  0  0  0  0  0
    6.5641    0.6697   17.5860 N   0  0  0  0  0  0  0  0  0  0  0  0
    7.1603    0.0459   18.6134 C   0  0  0  0  0  0  0  0  0  0  0  0
    8.1102   -0.4281   18.3839 H   0  0  0  0  0  0  0  0  0  0  0  0
    6.6442   -0.0126   19.9235 C   0  0  0  0  0  0  0  0  0  0  0  0
    7.4803   -0.6717   21.0107 C   0  0  1  0  0  0  0  0  0  0  0  0
    8.1482   -1.8154   20.4063 N   0  0  0  0  0  0  0  0  0  0  0  0
    8.7500   -2.2438   21.1007 H   0  0  0  0  0  0  0  0  0  0  0  0
    7.4402   -2.5186   20.2075 H   0  0  0  0  0  0  0  0  0  0  0  0
    8.5763    0.2966   21.4540 C   0  0  0  0  0  0  0  0  0  0  0  0
    9.2559   -0.1619   22.1802 H   0  0  0  0  0  0  0  0  0  0  0  0
    8.1333    1.1910   21.9010 H   0  0  0  0  0  0  0  0  0  0  0  0
    9.1663    0.6082   20.5879 H   0  0  0  0  0  0  0  0  0  0  0  0
    6.5939   -1.1007   22.2232 C   0  0  0  0  0  0  0  0  0  0  0  0
    5.7237   -1.6253   21.8108 H   0  0  0  0  0  0  0  0  0  0  0  0
    6.2310   -0.1931   22.7196 H   0  0  0  0  0  0  0  0  0  0  0  0
    7.2655   -1.9802   23.2496 C   0  0  0  0  0  0  0  0  0  0  0  0
    8.0056   -1.4213   24.3021 C   0  0  0  0  0  0  0  0  0  0  0  0
    8.0543   -0.3377   24.3889 H   0  0  0  0  0  0  0  0  0  0  0  0
    8.6786   -2.2361   25.2171 C   0  0  0  0  0  0  0  0  0  0  0  0
    9.2414   -1.7910   26.0306 H   0  0  0  0  0  0  0  0  0  0  0  0
    8.6189   -3.6248   25.0892 C   0  0  0  0  0  0  0  0  0  0  0  0
    9.1387   -4.2603   25.8060 H   0  0  0  0  0  0  0  0  0  0  0  0
    7.8791   -4.1989   24.0416 C   0  0  0  0  0  0  0  0  0  0  0  0
    7.8369   -5.7005   23.8749 C   0  0  0  0  0  0  0  0  0  0  0  0
    6.6744   -6.1322   23.3419 F   0  0  0  0  0  0  0  0  0  0  0  0
    8.8031   -6.1450   23.0496 F   0  0  0  0  0  0  0  0  0  0  0  0
    8.0086   -6.3181   25.0589 F   0  0  0  0  0  0  0  0  0  0  0  0
    7.2150   -3.3753   23.1207 C   0  0  0  0  0  0  0  0  0  0  0  0
    6.6636   -3.8146   22.2883 H   0  0  0  0  0  0  0  0  0  0  0  0
    5.4323    0.6468   20.1573 C   0  0  0  0  0  0  0  0  0  0  0  0
    4.9859    0.6434   21.1512 H   0  0  0  0  0  0  0  0  0  0  0  0
    4.8082    1.3106   19.1010 C   0  0  0  0  0  0  0  0  0  0  0  0
    3.8795    1.8400   19.2544 H   0  0  0  0  0  0  0  0  0  0  0  0
  1  2  1  0
  2  3  2  0
  3  4  1  0
  4  5  1  0
  4  6  2  0
  6  7  1  0
  7  8  1  6
  8  9  1  0
  8 10  1  0
  7 11  1  0
 11 12  1  0
 11 13  1  0
 11 14  1  0
  7 15  1  0
 15 16  1  0
 15 17  1  0
 15 18  1  0
 18 19  2  0
 19 20  1  0
 19 21  1  0
 21 22  1  0
 21 23  2  0
 23 24  1  0
 23 25  1  0
 25 26  1  0
 26 27  1  0
 26 28  1  0
 26 29  1  0
 25 30  2  0
 30 31  1  0
  6 32  1  0
 32 33  1  0
 32 34  2  0
 34 35  1  0
 34  2  1  0
 30 18  1  0
M  END
>  <cnnaffinity>  (1) 
-4.88987

>  <filename>  (1) 
C[C@@](N)(Cc1cccc(C(F)(F)F)c1)c1cccnc1

$$$$
