
     RDKit          3D

 29 31  0  0  0  0  0  0  0  0999 V2000
   13.1729    0.8243   23.7299 H   0  0  0  0  0  0  0  0  0  0  0  0
   13.1296   -0.0588   23.3289 O   0  0  0  0  0  0  0  0  0  0  0  0
   12.2814    0.1962   22.3289 C   0  0  0  0  0  0  0  0  0  0  0  0
   11.7886    1.2906   22.2212 O   0  0  0  0  0  0  0  0  0  0  0  0
   12.0402   -0.9657   21.3912 C   0  0  2  0  0  0  0  0  0  0  0  0
   11.8851   -0.5022   20.4166 H   0  0  0  0  0  0  0  0  0  0  0  0
   10.6505   -1.4540   21.7105 C   0  0  0  0  0  0  0  0  0  0  0  0
    9.6965   -0.9713   20.9863 N   0  0  0  0  0  0  0  0  0  0  0  0
    8.5051   -1.3931   21.4413 N   0  0  0  0  0  0  0  0  0  0  0  0
    7.1956   -1.1193   21.0927 C   0  0  0  0  0  0  0  0  0  0  0  0
    6.7944   -0.2083   20.0153 C   0  0  0  0  0  0  0  0  0  0  0  0
    7.5225   -0.1194   18.8058 C   0  0  0  0  0  0  0  0  0  0  0  0
    8.4831   -0.6246   18.7333 H   0  0  0  0  0  0  0  0  0  0  0  0
    7.0953    0.5322   17.7201 N   0  0  0  0  0  0  0  0  0  0  0  0
    5.9241    1.1824   17.8181 C   0  0  0  0  0  0  0  0  0  0  0  0
    5.5776    1.6655   16.9082 H   0  0  0  0  0  0  0  0  0  0  0  0
    5.1677    1.2447   18.9933 C   0  0  0  0  0  0  0  0  0  0  0  0
    4.2538    1.8294   19.0137 H   0  0  0  0  0  0  0  0  0  0  0  0
    5.6062    0.5424   20.1147 C   0  0  0  0  0  0  0  0  0  0  0  0
    5.0551    0.5882   21.0567 H   0  0  0  0  0  0  0  0  0  0  0  0
    6.4739   -1.9422   21.9246 C   0  0  0  0  0  0  0  0  0  0  0  0
    5.3971   -2.0620   21.9161 H   0  0  0  0  0  0  0  0  0  0  0  0
    7.2682   -2.6686   22.7815 N   0  0  0  0  0  0  0  0  0  0  0  0
    8.4826   -2.2763   22.4784 C   0  0  0  0  0  0  0  0  0  0  0  0
   10.1315   -2.5151   23.0330 S   0  0  0  0  0  0  0  0  0  0  0  0
   13.2010   -1.9644   21.2587 C   0  0  0  0  0  0  0  0  0  0  0  0
   13.0732   -2.5511   20.3429 H   0  0  0  0  0  0  0  0  0  0  0  0
   14.1400   -1.4125   21.1545 H   0  0  0  0  0  0  0  0  0  0  0  0
   13.2927   -2.6165   22.1330 H   0  0  0  0  0  0  0  0  0  0  0  0
  1  2  1  0
  2  3  1  0
  3  4  2  0
  3  5  1  0
  5  6  1  6
  5  7  1  0
  7  8  2  0
  8  9  1  0
  9 10  1  0
 10 11  1  0
 11 12  2  0
 12 13  1  0
 12 14  1  0
 14 15  2  0
 15 16  1  0
 15 17  1  0
 17 18  1  0
 17 19  2  0
 19 20  1  0
 10 21  2  0
 21 22  1  0
 21 23  1  0
 23 24  2  0
 24 25  1  0
  5 26  1  0
 26 27  1  0
 26 28  1  0
 26 29  1  0
 25  7  1  0
 24  9  1  0
 19 11  1  0
M  END
>  <cnnaffinity>  (1) 
-5.25669

>  <filename>  (1) 
C[C@H](C(=O)O)c1nn2c(-c3cccnc3)cnc2s1

$$$$
