
     RDKit          3D

 43 46  0  0  0  0  0  0  0  0999 V2000
   12.3337    0.1976   23.1531 C   0  0  0  0  0  0  0  0  0  0  0  0
   10.8399   -0.0013   23.2778 C   0  0  2  0  0  0  0  0  0  0  0  0
   10.2197   -1.0268   24.1894 C   0  0  0  0  0  0  0  0  0  0  0  0
   10.2186   -1.2349   22.6894 C   0  0  1  0  0  0  0  0  0  0  0  0
    8.9828   -1.1324   21.8881 C   0  0  0  0  0  0  0  0  0  0  0  0
    8.7827   -0.2728   20.9030 N   0  0  0  0  0  0  0  0  0  0  0  0
    7.4811   -0.4885   20.5803 N   0  0  0  0  0  0  0  0  0  0  0  0
    6.8329    0.2866   19.5724 C   0  0  0  0  0  0  0  0  0  0  0  0
    5.6467    0.9944   19.8172 C   0  0  0  0  0  0  0  0  0  0  0  0
    4.9928    1.5880   18.7322 C   0  0  0  0  0  0  0  0  0  0  0  0
    5.5647    1.4860   17.4631 C   0  0  0  0  0  0  0  0  0  0  0  0
    6.7477    0.8866   17.2419 N   0  0  0  0  0  0  0  0  0  0  0  0
    7.3792    0.3317   18.2798 C   0  0  0  0  0  0  0  0  0  0  0  0
    8.3452   -0.1217   18.0724 H   0  0  0  0  0  0  0  0  0  0  0  0
    5.0715    1.9159   16.5946 H   0  0  0  0  0  0  0  0  0  0  0  0
    4.0591    2.1231   18.8672 H   0  0  0  0  0  0  0  0  0  0  0  0
    5.2645    1.0948   20.8330 H   0  0  0  0  0  0  0  0  0  0  0  0
    6.9977   -1.5069   21.3467 C   0  0  0  0  0  0  0  0  0  0  0  0
    5.6307   -2.0643   21.2343 C   0  0  0  0  0  0  0  0  0  0  0  0
    5.3894   -3.1373   19.7782 S   0  0  0  0  0  0  0  0  0  0  0  0
    6.3553   -4.6025   20.2509 C   0  0  0  0  0  0  0  0  0  0  0  0
    5.9248   -5.2914   21.5165 C   0  0  0  0  0  0  0  0  0  0  0  0
    6.7550   -5.2254   22.6424 C   0  0  0  0  0  0  0  0  0  0  0  0
    6.3368   -5.7955   23.8445 C   0  0  0  0  0  0  0  0  0  0  0  0
    5.1027   -6.4453   23.8621 C   0  0  0  0  0  0  0  0  0  0  0  0
    4.3629   -6.4937   22.6762 C   0  0  0  0  0  0  0  0  0  0  0  0
    4.7572   -5.9424   21.5182 N   0  0  0  0  0  0  0  0  0  0  0  0
    3.3976   -6.9902   22.6539 H   0  0  0  0  0  0  0  0  0  0  0  0
    4.7313   -6.9145   24.7709 H   0  0  0  0  0  0  0  0  0  0  0  0
    6.9538   -5.7351   24.7424 H   0  0  0  0  0  0  0  0  0  0  0  0
    7.6807   -4.6728   22.5578 H   0  0  0  0  0  0  0  0  0  0  0  0
    6.2656   -5.2880   19.4047 H   0  0  0  0  0  0  0  0  0  0  0  0
    7.3985   -4.2991   20.3646 H   0  0  0  0  0  0  0  0  0  0  0  0
    5.3883   -2.5901   22.1627 H   0  0  0  0  0  0  0  0  0  0  0  0
    4.9321   -1.2338   21.1321 H   0  0  0  0  0  0  0  0  0  0  0  0
    7.9270   -1.9401   22.1673 N   0  0  0  0  0  0  0  0  0  0  0  0
   10.8769   -2.0271   22.3276 H   0  0  0  0  0  0  0  0  0  0  0  0
    9.2780   -0.8010   24.6943 H   0  0  0  0  0  0  0  0  0  0  0  0
   10.8642   -1.6744   24.7759 H   0  0  0  0  0  0  0  0  0  0  0  0
   10.2467    0.9066   23.1564 H   0  0  0  0  0  0  0  0  0  0  0  0
   12.7709    0.5250   24.1027 H   0  0  0  0  0  0  0  0  0  0  0  0
   12.8259   -0.7350   22.8491 H   0  0  0  0  0  0  0  0  0  0  0  0
   12.5581    0.9598   22.3977 H   0  0  0  0  0  0  0  0  0  0  0  0
  1  2  1  0
  2  3  1  0
  3  4  1  0
  4  5  1  0
  5  6  2  0
  6  7  1  0
  7  8  1  0
  8  9  2  0
  9 10  1  0
 10 11  2  0
 11 12  1  0
 12 13  2  0
 13 14  1  0
 11 15  1  0
 10 16  1  0
  9 17  1  0
  7 18  1  0
 18 19  1  0
 19 20  1  0
 20 21  1  0
 21 22  1  0
 22 23  2  0
 23 24  1  0
 24 25  2  0
 25 26  1  0
 26 27  2  0
 26 28  1  0
 25 29  1  0
 24 30  1  0
 23 31  1  0
 21 32  1  0
 21 33  1  0
 19 34  1  0
 19 35  1  0
 18 36  2  0
  4 37  1  1
  3 38  1  0
  3 39  1  0
  2 40  1  6
  1 41  1  0
  1 42  1  0
  1 43  1  0
  4  2  1  0
 36  5  1  0
 13  8  1  0
 27 22  1  0
M  END
>  <cnnaffinity>  (1) 
-5.05882

>  <filename>  (1) 
C[C@@H]1C[C@H]1c1nc(CSCc2ccccn2)n(-c2cccnc2)n1

$$$$
