
     RDKit          3D

 43 46  0  0  0  0  0  0  0  0999 V2000
    8.2310   -3.9703   26.0613 C   0  0  0  0  0  0  0  0  0  0  0  0
    7.4626   -3.0516   25.1462 C   0  0  2  0  0  0  0  0  0  0  0  0
    6.0668   -3.2775   24.6403 C   0  0  0  0  0  0  0  0  0  0  0  0
    7.2437   -3.3976   23.6933 C   0  0  1  0  0  0  0  0  0  0  0  0
    7.6117   -2.3535   22.7097 C   0  0  0  0  0  0  0  0  0  0  0  0
    6.8704   -1.9951   21.6824 N   0  0  0  0  0  0  0  0  0  0  0  0
    7.5281   -0.9092   21.1887 N   0  0  0  0  0  0  0  0  0  0  0  0
    6.9235   -0.2092   20.0942 C   0  0  0  0  0  0  0  0  0  0  0  0
    5.7040    0.4488   20.2902 C   0  0  0  0  0  0  0  0  0  0  0  0
    5.0821    1.0279   19.1781 C   0  0  0  0  0  0  0  0  0  0  0  0
    5.6855    0.9029   17.9232 C   0  0  0  0  0  0  0  0  0  0  0  0
    6.8498    0.2674   17.7318 N   0  0  0  0  0  0  0  0  0  0  0  0
    7.4572   -0.2702   18.7986 C   0  0  0  0  0  0  0  0  0  0  0  0
    8.4031   -0.7791   18.6103 H   0  0  0  0  0  0  0  0  0  0  0  0
    5.2110    1.3137   17.0334 H   0  0  0  0  0  0  0  0  0  0  0  0
    4.1474    1.5696   19.2737 H   0  0  0  0  0  0  0  0  0  0  0  0
    5.2704    0.5082   21.2908 H   0  0  0  0  0  0  0  0  0  0  0  0
    8.6411   -0.6938   21.9484 C   0  0  0  0  0  0  0  0  0  0  0  0
    9.6296    0.4308   21.8613 C   0  0  0  0  0  0  0  0  0  0  0  0
    9.1321    1.6963   22.4242 N   0  0  0  0  0  0  0  0  0  0  0  0
    9.1039    1.8636   23.7784 C   0  0  0  0  0  0  0  0  0  0  0  0
    8.5238    2.9646   24.3435 C   0  0  0  0  0  0  0  0  0  0  0  0
    8.4626    3.0566   25.8416 C   0  0  0  0  0  0  0  0  0  0  0  0
    8.7290    4.2972   26.2854 F   0  0  0  0  0  0  0  0  0  0  0  0
    9.3521    2.2320   26.4222 F   0  0  0  0  0  0  0  0  0  0  0  0
    7.2506    2.7248   26.3248 F   0  0  0  0  0  0  0  0  0  0  0  0
    7.9378    3.9613   23.5132 C   0  0  0  0  0  0  0  0  0  0  0  0
    7.9387    3.7938   22.1637 C   0  0  0  0  0  0  0  0  0  0  0  0
    8.4657    2.5919   21.5454 C   0  0  0  0  0  0  0  0  0  0  0  0
    8.3789    2.2891   20.3689 O   0  0  0  0  0  0  0  0  0  0  0  0
    7.5429    4.5120   21.4653 H   0  0  0  0  0  0  0  0  0  0  0  0
    7.5033    4.8643   23.9559 H   0  0  0  0  0  0  0  0  0  0  0  0
    9.5676    1.0689   24.3635 H   0  0  0  0  0  0  0  0  0  0  0  0
    9.9358    0.6012   20.8306 H   0  0  0  0  0  0  0  0  0  0  0  0
   10.4988    0.0966   22.4362 H   0  0  0  0  0  0  0  0  0  0  0  0
    8.7335   -1.6054   22.8881 N   0  0  0  0  0  0  0  0  0  0  0  0
    7.4773   -4.4059   23.3528 H   0  0  0  0  0  0  0  0  0  0  0  0
    5.5467   -4.1912   24.9233 H   0  0  0  0  0  0  0  0  0  0  0  0
    5.4061   -2.4180   24.5425 H   0  0  0  0  0  0  0  0  0  0  0  0
    7.6988   -1.9949   25.2992 H   0  0  0  0  0  0  0  0  0  0  0  0
    7.9879   -5.0259   25.8995 H   0  0  0  0  0  0  0  0  0  0  0  0
    8.0355   -3.7286   27.1125 H   0  0  0  0  0  0  0  0  0  0  0  0
    9.3084   -3.8492   25.8904 H   0  0  0  0  0  0  0  0  0  0  0  0
  1  2  1  0
  2  3  1  0
  3  4  1  0
  4  5  1  0
  5  6  2  0
  6  7  1  0
  7  8  1  0
  8  9  2  0
  9 10  1  0
 10 11  2  0
 11 12  1  0
 12 13  2  0
 13 14  1  0
 11 15  1  0
 10 16  1  0
  9 17  1  0
  7 18  1  0
 18 19  1  0
 19 20  1  0
 20 21  1  0
 21 22  2  0
 22 23  1  0
 23 24  1  0
 23 25  1  0
 23 26  1  0
 22 27  1  0
 27 28  2  0
 28 29  1  0
 29 30  2  0
 28 31  1  0
 27 32  1  0
 21 33  1  0
 19 34  1  0
 19 35  1  0
 18 36  2  0
  4 37  1  6
  3 38  1  0
  3 39  1  0
  2 40  1  6
  1 41  1  0
  1 42  1  0
  1 43  1  0
  4  2  1  0
 36  5  1  0
 13  8  1  0
 29 20  1  0
M  END
>  <cnnaffinity>  (1) 
-6.24213

>  <filename>  (1) 
C[C@@H]1C[C@H]1c1nc(Cn2cc(C(F)(F)F)ccc2=O)n(-c2cccnc2)n1

$$$$
