
     RDKit          3D

 35 37  0  0  0  0  0  0  0  0999 V2000
    5.0123    1.8481   16.9033 H   0  0  0  0  0  0  0  0  0  0  0  0
    5.4375    1.3363   17.7669 C   0  0  0  0  0  0  0  0  0  0  0  0
    6.5987    0.6971   17.5602 N   0  0  0  0  0  0  0  0  0  0  0  0
    7.1252    0.0284   18.5933 C   0  0  0  0  0  0  0  0  0  0  0  0
    8.0741   -0.4778   18.4020 H   0  0  0  0  0  0  0  0  0  0  0  0
    6.5463   -0.0351   19.8826 C   0  0  0  0  0  0  0  0  0  0  0  0
    7.1920   -0.7368   21.0199 C   0  0  0  0  0  0  0  0  0  0  0  0
    7.8490   -0.1657   22.0545 C   0  0  0  0  0  0  0  0  0  0  0  0
    7.8858    1.2714   22.5362 C   0  0  1  0  0  0  0  0  0  0  0  0
    7.2409    1.8628   21.8714 H   0  0  0  0  0  0  0  0  0  0  0  0
    7.2976    1.4003   23.9537 C   0  0  0  0  0  0  0  0  0  0  0  0
    8.0265    1.0948   25.1172 C   0  0  0  0  0  0  0  0  0  0  0  0
    9.0600    0.7531   25.0519 H   0  0  0  0  0  0  0  0  0  0  0  0
    7.4346    1.1955   26.3828 C   0  0  0  0  0  0  0  0  0  0  0  0
    8.0099    0.9445   27.2711 H   0  0  0  0  0  0  0  0  0  0  0  0
    6.1029    1.6060   26.5048 C   0  0  0  0  0  0  0  0  0  0  0  0
    5.6432    1.6920   27.4856 H   0  0  0  0  0  0  0  0  0  0  0  0
    5.3672    1.9170   25.3566 C   0  0  0  0  0  0  0  0  0  0  0  0
    4.3345    2.2458   25.4360 H   0  0  0  0  0  0  0  0  0  0  0  0
    5.9641    1.8106   24.0985 C   0  0  0  0  0  0  0  0  0  0  0  0
    5.3874    2.0509   23.2060 H   0  0  0  0  0  0  0  0  0  0  0  0
    9.2785    1.9128   22.4425 C   0  0  0  0  0  0  0  0  0  0  0  0
    9.6290    1.9243   21.4077 H   0  0  0  0  0  0  0  0  0  0  0  0
   10.0283    1.4048   23.0524 H   0  0  0  0  0  0  0  0  0  0  0  0
    9.2250    2.9483   22.7870 H   0  0  0  0  0  0  0  0  0  0  0  0
    8.5127   -1.2569   22.8411 C   0  0  0  0  0  0  0  0  0  0  0  0
    8.2162   -1.2515   23.8993 H   0  0  0  0  0  0  0  0  0  0  0  0
    9.6097   -1.1902   22.8083 H   0  0  0  0  0  0  0  0  0  0  0  0
    8.0955   -2.4710   22.2408 O   0  0  0  0  0  0  0  0  0  0  0  0
    7.2318   -2.2203   21.2138 C   0  0  0  0  0  0  0  0  0  0  0  0
    6.6340   -3.0999   20.6517 O   0  0  0  0  0  0  0  0  0  0  0  0
    5.3371    0.6484   20.0661 C   0  0  0  0  0  0  0  0  0  0  0  0
    4.8497    0.6303   21.0430 H   0  0  0  0  0  0  0  0  0  0  0  0
    4.7708    1.3409   18.9948 C   0  0  0  0  0  0  0  0  0  0  0  0
    3.8300    1.8696   19.0903 H   0  0  0  0  0  0  0  0  0  0  0  0
  1  2  1  0
  2  3  2  0
  3  4  1  0
  4  5  1  0
  4  6  2  0
  6  7  1  0
  7  8  2  0
  8  9  1  0
  9 10  1  6
  9 11  1  0
 11 12  2  0
 12 13  1  0
 12 14  1  0
 14 15  1  0
 14 16  2  0
 16 17  1  0
 16 18  1  0
 18 19  1  0
 18 20  2  0
 20 21  1  0
  9 22  1  0
 22 23  1  0
 22 24  1  0
 22 25  1  0
  8 26  1  0
 26 27  1  0
 26 28  1  0
 26 29  1  0
 29 30  1  0
 30 31  2  0
  6 32  1  0
 32 33  1  0
 32 34  2  0
 34 35  1  0
 34  2  1  0
 30  7  1  0
 20 11  1  0
M  END
>  <cnnaffinity>  (1) 
-4.89717

>  <filename>  (1) 
C[C@@H](C1=C(c2cccnc2)C(=O)OC1)c1ccccc1

$$$$
