
     RDKit          3D

 41 43  0  0  0  0  0  0  0  0999 V2000
    6.8208    0.5146   22.6342 H   0  0  0  0  0  0  0  0  0  0  0  0
    7.6546    0.5210   22.1442 O   0  0  0  0  0  0  0  0  0  0  0  0
    7.4255   -0.5562   21.2767 C   0  0  2  0  0  0  0  0  0  0  0  0
    6.6285   -0.0139   20.0907 C   0  0  0  0  0  0  0  0  0  0  0  0
    7.1853   -0.0181   18.8121 C   0  0  0  0  0  0  0  0  0  0  0  0
    8.1365   -0.5123   18.6304 H   0  0  0  0  0  0  0  0  0  0  0  0
    6.6468    0.5748   17.7363 N   0  0  0  0  0  0  0  0  0  0  0  0
    5.4939    1.2293   17.9040 C   0  0  0  0  0  0  0  0  0  0  0  0
    5.0950    1.7290   17.0197 H   0  0  0  0  0  0  0  0  0  0  0  0
    4.8103    1.2525   19.1252 C   0  0  0  0  0  0  0  0  0  0  0  0
    3.8817    1.8069   19.1918 H   0  0  0  0  0  0  0  0  0  0  0  0
    5.3730    0.6107   20.2311 C   0  0  0  0  0  0  0  0  0  0  0  0
    4.8386    0.6258   21.1828 H   0  0  0  0  0  0  0  0  0  0  0  0
    6.6075   -1.5048   22.0577 N   0  0  0  0  0  0  0  0  0  0  0  0
    7.1806   -1.9352   23.3591 C   0  0  0  0  0  0  0  0  0  0  0  0
    8.0880   -2.5422   23.2051 H   0  0  0  0  0  0  0  0  0  0  0  0
    7.4970   -1.0602   23.9343 H   0  0  0  0  0  0  0  0  0  0  0  0
    6.1731   -2.7310   24.2124 C   0  0  0  0  0  0  0  0  0  0  0  0
    5.4096   -2.0190   24.5651 H   0  0  0  0  0  0  0  0  0  0  0  0
    6.7211   -3.0998   25.0874 H   0  0  0  0  0  0  0  0  0  0  0  0
    5.5648   -3.8814   23.5016 N   0  0  0  0  0  0  0  0  0  0  0  0
    4.6333   -4.6409   24.2357 C   0  0  0  0  0  0  0  0  0  0  0  0
    3.3820   -4.6860   23.7598 N   0  0  0  0  0  0  0  0  0  0  0  0
    2.4820   -5.4122   24.4250 C   0  0  0  0  0  0  0  0  0  0  0  0
    1.4657   -5.3756   24.0315 H   0  0  0  0  0  0  0  0  0  0  0  0
    2.7740   -6.1740   25.5522 C   0  0  0  0  0  0  0  0  0  0  0  0
    1.9985   -6.7730   26.0171 H   0  0  0  0  0  0  0  0  0  0  0  0
    4.0772   -6.1203   26.0657 C   0  0  0  0  0  0  0  0  0  0  0  0
    4.3455   -6.6884   26.9612 H   0  0  0  0  0  0  0  0  0  0  0  0
    5.0166   -5.3204   25.4131 C   0  0  0  0  0  0  0  0  0  0  0  0
    6.0377   -5.2130   25.7576 H   0  0  0  0  0  0  0  0  0  0  0  0
    5.1802   -3.5543   22.1094 C   0  0  0  0  0  0  0  0  0  0  0  0
    4.2255   -3.0184   22.0998 H   0  0  0  0  0  0  0  0  0  0  0  0
    5.0446   -4.5009   21.5701 H   0  0  0  0  0  0  0  0  0  0  0  0
    6.2398   -2.7447   21.3518 C   0  0  0  0  0  0  0  0  0  0  0  0
    7.1199   -3.4011   21.2327 H   0  0  0  0  0  0  0  0  0  0  0  0
    5.8585   -2.5144   20.3483 H   0  0  0  0  0  0  0  0  0  0  0  0
    8.8024   -1.1125   20.9149 C   0  0  0  0  0  0  0  0  0  0  0  0
    8.7539   -1.9923   20.2699 H   0  0  0  0  0  0  0  0  0  0  0  0
    9.3872   -0.3361   20.4210 H   0  0  0  0  0  0  0  0  0  0  0  0
    9.3223   -1.3786   21.8362 H   0  0  0  0  0  0  0  0  0  0  0  0
  1  2  1  0
  3  2  1  1
  3  4  1  0
  4  5  2  0
  5  6  1  0
  5  7  1  0
  7  8  2  0
  8  9  1  0
  8 10  1  0
 10 11  1  0
 10 12  2  0
 12 13  1  0
  3 14  1  0
 14 15  1  0
 15 16  1  0
 15 17  1  0
 15 18  1  0
 18 19  1  0
 18 20  1  0
 18 21  1  0
 21 22  1  0
 22 23  2  0
 23 24  1  0
 24 25  1  0
 24 26  2  0
 26 27  1  0
 26 28  1  0
 28 29  1  0
 28 30  2  0
 30 31  1  0
 21 32  1  0
 32 33  1  0
 32 34  1  0
 32 35  1  0
 35 36  1  0
 35 37  1  0
  3 38  1  0
 38 39  1  0
 38 40  1  0
 38 41  1  0
 12  4  1  0
 35 14  1  0
 30 22  1  0
M  END
>  <cnnaffinity>  (1) 
-4.44752

>  <filename>  (1) 
C[C@@](O)(c1cccnc1)N1CCN(c2ccccn2)CC1

$$$$
