
     RDKit          3D

 36 37  0  0  0  0  0  0  0  0999 V2000
    4.9708    1.8089   16.9444 H   0  0  0  0  0  0  0  0  0  0  0  0
    5.4073    1.2859   17.7925 C   0  0  0  0  0  0  0  0  0  0  0  0
    6.5606    0.6448   17.5639 N   0  0  0  0  0  0  0  0  0  0  0  0
    7.1451    0.0371   18.6102 C   0  0  0  0  0  0  0  0  0  0  0  0
    8.0855   -0.4655   18.3758 H   0  0  0  0  0  0  0  0  0  0  0  0
    6.6239    0.0238   19.9165 C   0  0  0  0  0  0  0  0  0  0  0  0
    7.3518   -0.6059   21.0962 C   0  0  2  0  0  0  0  0  0  0  0  0
    6.5876   -0.8482   21.8467 H   0  0  0  0  0  0  0  0  0  0  0  0
    8.1931    0.4071   21.7978 N   0  0  0  0  0  0  0  0  0  0  0  0
    8.5835   -0.0999   23.0578 O   0  0  0  0  0  0  0  0  0  0  0  0
    7.9836    0.6579   24.1166 C   0  0  0  0  0  0  0  0  0  0  0  0
    8.1075    1.7313   23.9123 H   0  0  0  0  0  0  0  0  0  0  0  0
    8.6421    0.2629   25.4266 C   0  0  0  0  0  0  0  0  0  0  0  0
    8.7929   -0.8230   25.4172 H   0  0  0  0  0  0  0  0  0  0  0  0
    9.6228    0.7334   25.5532 H   0  0  0  0  0  0  0  0  0  0  0  0
    7.6322    0.6566   26.5245 C   0  0  0  0  0  0  0  0  0  0  0  0
    7.6509   -0.0525   27.3595 H   0  0  0  0  0  0  0  0  0  0  0  0
    7.8770    1.6418   26.9385 H   0  0  0  0  0  0  0  0  0  0  0  0
    6.2453    0.7057   25.8235 C   0  0  0  0  0  0  0  0  0  0  0  0
    5.5216    0.0235   26.2843 H   0  0  0  0  0  0  0  0  0  0  0  0
    5.8261    1.7150   25.8985 H   0  0  0  0  0  0  0  0  0  0  0  0
    6.5040    0.3339   24.3484 C   0  0  0  0  0  0  0  0  0  0  0  0
    5.8479    0.8546   23.6381 H   0  0  0  0  0  0  0  0  0  0  0  0
    6.3591   -0.7440   24.2041 H   0  0  0  0  0  0  0  0  0  0  0  0
    9.4297    0.8169   21.1435 C   0  0  0  0  0  0  0  0  0  0  0  0
    9.1896    1.1503   20.1344 H   0  0  0  0  0  0  0  0  0  0  0  0
   10.1994    0.0311   21.1045 H   0  0  0  0  0  0  0  0  0  0  0  0
    9.8377    1.6678   21.6971 H   0  0  0  0  0  0  0  0  0  0  0  0
    8.0939   -1.9108   20.7699 C   0  0  0  0  0  0  0  0  0  0  0  0
    8.8556   -1.7483   19.9964 H   0  0  0  0  0  0  0  0  0  0  0  0
    7.3822   -2.6742   20.4352 H   0  0  0  0  0  0  0  0  0  0  0  0
    8.5953   -2.2774   21.6727 H   0  0  0  0  0  0  0  0  0  0  0  0
    5.3951    0.6773   20.1170 C   0  0  0  0  0  0  0  0  0  0  0  0
    4.9354    0.6959   21.1072 H   0  0  0  0  0  0  0  0  0  0  0  0
    4.7821    1.3204   19.0423 C   0  0  0  0  0  0  0  0  0  0  0  0
    3.8486    1.8562   19.1642 H   0  0  0  0  0  0  0  0  0  0  0  0
  1  2  1  0
  2  3  2  0
  3  4  1  0
  4  5  1  0
  4  6  2  0
  6  7  1  0
  7  8  1  1
  7  9  1  0
  9 10  1  0
 10 11  1  0
 11 12  1  0
 11 13  1  0
 13 14  1  0
 13 15  1  0
 13 16  1  0
 16 17  1  0
 16 18  1  0
 16 19  1  0
 19 20  1  0
 19 21  1  0
 19 22  1  0
 22 23  1  0
 22 24  1  0
  9 25  1  0
 25 26  1  0
 25 27  1  0
 25 28  1  0
  7 29  1  0
 29 30  1  0
 29 31  1  0
 29 32  1  0
  6 33  1  0
 33 34  1  0
 33 35  2  0
 35 36  1  0
 35  2  1  0
 22 11  1  0
M  END
>  <cnnaffinity>  (1) 
-4.44968

>  <filename>  (1) 
C[C@H](c1cccnc1)N(C)OC1CCCC1

$$$$
