
     RDKit          3D

 43 46  0  0  0  0  0  0  0  0999 V2000
    8.2337   -3.5977   26.0202 C   0  0  0  0  0  0  0  0  0  0  0  0
    7.6844   -2.5859   25.0493 C   0  0  2  0  0  0  0  0  0  0  0  0
    6.2810   -2.7485   24.5488 C   0  0  0  0  0  0  0  0  0  0  0  0
    7.4397   -2.9682   23.6142 C   0  0  1  0  0  0  0  0  0  0  0  0
    7.6862   -1.9917   22.5290 C   0  0  0  0  0  0  0  0  0  0  0  0
    6.7515   -1.6248   21.6733 N   0  0  0  0  0  0  0  0  0  0  0  0
    7.3678   -0.6617   20.9411 N   0  0  0  0  0  0  0  0  0  0  0  0
    6.6635    0.0118   19.9035 C   0  0  0  0  0  0  0  0  0  0  0  0
    5.4413    0.6430   20.1667 C   0  0  0  0  0  0  0  0  0  0  0  0
    4.8126    1.3096   19.1103 C   0  0  0  0  0  0  0  0  0  0  0  0
    5.4007    1.2955   17.8390 C   0  0  0  0  0  0  0  0  0  0  0  0
    6.5609    0.6745   17.5792 N   0  0  0  0  0  0  0  0  0  0  0  0
    7.1720    0.0558   18.5949 C   0  0  0  0  0  0  0  0  0  0  0  0
    8.1149   -0.4352   18.3689 H   0  0  0  0  0  0  0  0  0  0  0  0
    4.9185    1.7841   16.9947 H   0  0  0  0  0  0  0  0  0  0  0  0
    3.8802    1.8393   19.2610 H   0  0  0  0  0  0  0  0  0  0  0  0
    5.0172    0.6084   21.1729 H   0  0  0  0  0  0  0  0  0  0  0  0
    8.6387   -0.4941   21.4135 C   0  0  0  0  0  0  0  0  0  0  0  0
    9.5389    0.5923   20.9374 C   0  0  0  0  0  0  0  0  0  0  0  0
    9.0732    2.0010   21.3544 C   0  0  0  0  0  0  0  0  0  0  0  0
    8.9917    2.1857   22.8759 C   0  0  0  0  0  0  0  0  0  0  0  0
   10.2649    1.9855   23.5490 N   0  0  0  0  0  0  0  0  0  0  0  0
   10.6420    0.9149   24.3379 C   0  0  0  0  0  0  0  0  0  0  0  0
   11.9431    1.1452   24.6813 C   0  0  0  0  0  0  0  0  0  0  0  0
   12.3836    2.3182   24.1223 N   0  0  0  0  0  0  0  0  0  0  0  0
   11.3639    2.7877   23.4493 C   0  0  0  0  0  0  0  0  0  0  0  0
   11.3559    3.7090   22.8764 H   0  0  0  0  0  0  0  0  0  0  0  0
   12.5889    0.5376   25.3086 H   0  0  0  0  0  0  0  0  0  0  0  0
    9.9659    0.0948   24.5319 H   0  0  0  0  0  0  0  0  0  0  0  0
    8.2856    1.4679   23.3058 H   0  0  0  0  0  0  0  0  0  0  0  0
    8.6135    3.1853   23.1131 H   0  0  0  0  0  0  0  0  0  0  0  0
    9.7728    2.7401   20.9516 H   0  0  0  0  0  0  0  0  0  0  0  0
    8.0917    2.2152   20.9099 H   0  0  0  0  0  0  0  0  0  0  0  0
    9.6089    0.5471   19.8479 H   0  0  0  0  0  0  0  0  0  0  0  0
   10.5343    0.3928   21.3452 H   0  0  0  0  0  0  0  0  0  0  0  0
    8.8726   -1.3401   22.3964 N   0  0  0  0  0  0  0  0  0  0  0  0
    7.6875   -3.9896   23.3386 H   0  0  0  0  0  0  0  0  0  0  0  0
    5.6787   -1.8622   24.3736 H   0  0  0  0  0  0  0  0  0  0  0  0
    5.7236   -3.6166   24.8895 H   0  0  0  0  0  0  0  0  0  0  0  0
    8.0203   -1.5606   25.2163 H   0  0  0  0  0  0  0  0  0  0  0  0
    9.3272   -3.6365   26.0031 H   0  0  0  0  0  0  0  0  0  0  0  0
    7.8592   -4.5941   25.7666 H   0  0  0  0  0  0  0  0  0  0  0  0
    7.9008   -3.3780   27.0407 H   0  0  0  0  0  0  0  0  0  0  0  0
  1  2  1  0
  2  3  1  0
  3  4  1  0
  4  5  1  0
  5  6  2  0
  6  7  1  0
  7  8  1  0
  8  9  2  0
  9 10  1  0
 10 11  2  0
 11 12  1  0
 12 13  2  0
 13 14  1  0
 11 15  1  0
 10 16  1  0
  9 17  1  0
  7 18  1  0
 18 19  1  0
 19 20  1  0
 20 21  1  0
 21 22  1  0
 22 23  1  0
 23 24  2  0
 24 25  1  0
 25 26  2  0
 26 27  1  0
 24 28  1  0
 23 29  1  0
 21 30  1  0
 21 31  1  0
 20 32  1  0
 20 33  1  0
 19 34  1  0
 19 35  1  0
 18 36  2  0
  4 37  1  6
  3 38  1  0
  3 39  1  0
  2 40  1  6
  1 41  1  0
  1 42  1  0
  1 43  1  0
  4  2  1  0
 36  5  1  0
 13  8  1  0
 26 22  1  0
M  END
>  <cnnaffinity>  (1) 
-6.03293

>  <filename>  (1) 
C[C@@H]1C[C@H]1c1nc(CCCn2ccnc2)n(-c2cccnc2)n1

$$$$
