
     RDKit          3D

 44 47  0  0  0  0  0  0  0  0999 V2000
    6.0891   -5.1042   24.1077 C   0  0  0  0  0  0  0  0  0  0  0  0
    7.0350   -4.3412   23.2181 C   0  0  2  0  0  0  0  0  0  0  0  0
    8.4465   -4.1205   23.6754 C   0  0  0  0  0  0  0  0  0  0  0  0
    7.4802   -2.9643   23.6156 C   0  0  1  0  0  0  0  0  0  0  0  0
    7.6667   -1.9217   22.5822 C   0  0  0  0  0  0  0  0  0  0  0  0
    6.7374   -1.5840   21.7099 N   0  0  0  0  0  0  0  0  0  0  0  0
    7.3663   -0.6600   20.9389 N   0  0  0  0  0  0  0  0  0  0  0  0
    6.6621    0.0113   19.9021 C   0  0  0  0  0  0  0  0  0  0  0  0
    5.4421    0.6453   20.1663 C   0  0  0  0  0  0  0  0  0  0  0  0
    4.8129    1.3100   19.1100 C   0  0  0  0  0  0  0  0  0  0  0  0
    5.4004    1.2959   17.8383 C   0  0  0  0  0  0  0  0  0  0  0  0
    6.5610    0.6748   17.5771 N   0  0  0  0  0  0  0  0  0  0  0  0
    7.1715    0.0559   18.5937 C   0  0  0  0  0  0  0  0  0  0  0  0
    8.1149   -0.4360   18.3702 H   0  0  0  0  0  0  0  0  0  0  0  0
    4.9181    1.7845   16.9950 H   0  0  0  0  0  0  0  0  0  0  0  0
    3.8804    1.8392   19.2611 H   0  0  0  0  0  0  0  0  0  0  0  0
    5.0168    0.6074   21.1724 H   0  0  0  0  0  0  0  0  0  0  0  0
    8.6281   -0.4663   21.4269 C   0  0  0  0  0  0  0  0  0  0  0  0
    9.5330    0.6081   20.9327 C   0  0  0  0  0  0  0  0  0  0  0  0
    9.0393    2.0245   21.2787 C   0  0  0  0  0  0  0  0  0  0  0  0
    8.9333    2.2637   22.7897 C   0  0  0  0  0  0  0  0  0  0  0  0
    8.4776    3.6012   23.1158 N   0  0  0  0  0  0  0  0  0  0  0  0
    9.2813    4.7063   23.2686 C   0  0  0  0  0  0  0  0  0  0  0  0
    8.4802    5.8078   23.4281 C   0  0  0  0  0  0  0  0  0  0  0  0
    7.1311    5.3607   23.3516 C   0  0  0  0  0  0  0  0  0  0  0  0
    7.1642    4.0050   23.1477 C   0  0  0  0  0  0  0  0  0  0  0  0
    6.3579    3.2929   23.0020 H   0  0  0  0  0  0  0  0  0  0  0  0
    6.2355    5.9689   23.4317 H   0  0  0  0  0  0  0  0  0  0  0  0
    8.8221    6.8264   23.5792 H   0  0  0  0  0  0  0  0  0  0  0  0
   10.3625    4.6213   23.2290 H   0  0  0  0  0  0  0  0  0  0  0  0
    9.9058    2.1005   23.2673 H   0  0  0  0  0  0  0  0  0  0  0  0
    8.2512    1.5375   23.2445 H   0  0  0  0  0  0  0  0  0  0  0  0
    8.0625    2.1981   20.8082 H   0  0  0  0  0  0  0  0  0  0  0  0
    9.7376    2.7518   20.8567 H   0  0  0  0  0  0  0  0  0  0  0  0
    9.6307    0.5207   19.8477 H   0  0  0  0  0  0  0  0  0  0  0  0
   10.5218    0.4270   21.3669 H   0  0  0  0  0  0  0  0  0  0  0  0
    8.8474   -1.2578   22.4544 N   0  0  0  0  0  0  0  0  0  0  0  0
    7.1130   -2.5723   24.5622 H   0  0  0  0  0  0  0  0  0  0  0  0
    8.7216   -4.5119   24.6526 H   0  0  0  0  0  0  0  0  0  0  0  0
    9.2522   -4.1274   22.9446 H   0  0  0  0  0  0  0  0  0  0  0  0
    6.8961   -4.4803   22.1482 H   0  0  0  0  0  0  0  0  0  0  0  0
    6.2264   -6.1828   23.9826 H   0  0  0  0  0  0  0  0  0  0  0  0
    6.2930   -4.8687   25.1578 H   0  0  0  0  0  0  0  0  0  0  0  0
    5.0435   -4.8528   23.9047 H   0  0  0  0  0  0  0  0  0  0  0  0
  1  2  1  0
  2  3  1  0
  3  4  1  0
  4  5  1  0
  5  6  2  0
  6  7  1  0
  7  8  1  0
  8  9  2  0
  9 10  1  0
 10 11  2  0
 11 12  1  0
 12 13  2  0
 13 14  1  0
 11 15  1  0
 10 16  1  0
  9 17  1  0
  7 18  1  0
 18 19  1  0
 19 20  1  0
 20 21  1  0
 21 22  1  0
 22 23  1  0
 23 24  2  0
 24 25  1  0
 25 26  2  0
 26 27  1  0
 25 28  1  0
 24 29  1  0
 23 30  1  0
 21 31  1  0
 21 32  1  0
 20 33  1  0
 20 34  1  0
 19 35  1  0
 19 36  1  0
 18 37  2  0
  4 38  1  1
  3 39  1  0
  3 40  1  0
  2 41  1  6
  1 42  1  0
  1 43  1  0
  1 44  1  0
  4  2  1  0
 37  5  1  0
 13  8  1  0
 26 22  1  0
M  END
>  <cnnaffinity>  (1) 
-5.975

>  <filename>  (1) 
C[C@@H]1C[C@H]1c1nc(CCCn2cccc2)n(-c2cccnc2)n1

$$$$
