
     RDKit          3D

 42 45  0  0  0  0  0  0  0  0999 V2000
    8.2596   -3.6120   26.0237 C   0  0  0  0  0  0  0  0  0  0  0  0
    7.6926   -2.5931   25.0598 C   0  0  2  0  0  0  0  0  0  0  0  0
    6.2657   -2.6740   24.6017 C   0  0  0  0  0  0  0  0  0  0  0  0
    7.3888   -2.9498   23.6268 C   0  0  1  0  0  0  0  0  0  0  0  0
    7.6697   -1.9866   22.5259 C   0  0  0  0  0  0  0  0  0  0  0  0
    6.7391   -1.6351   21.6564 N   0  0  0  0  0  0  0  0  0  0  0  0
    7.3642   -0.6991   20.8979 N   0  0  0  0  0  0  0  0  0  0  0  0
    6.6602   -0.0302   19.8573 C   0  0  0  0  0  0  0  0  0  0  0  0
    5.4566    0.6214   20.1418 C   0  0  0  0  0  0  0  0  0  0  0  0
    4.8249    1.3061   19.1012 C   0  0  0  0  0  0  0  0  0  0  0  0
    5.4004    1.3030   17.8245 C   0  0  0  0  0  0  0  0  0  0  0  0
    6.5365    0.6479   17.5375 N   0  0  0  0  0  0  0  0  0  0  0  0
    7.1430   -0.0030   18.5359 C   0  0  0  0  0  0  0  0  0  0  0  0
    8.0665   -0.5264   18.2871 H   0  0  0  0  0  0  0  0  0  0  0  0
    4.9318    1.8395   17.0019 H   0  0  0  0  0  0  0  0  0  0  0  0
    3.8987    1.8404   19.2682 H   0  0  0  0  0  0  0  0  0  0  0  0
    5.0530    0.5870   21.1556 H   0  0  0  0  0  0  0  0  0  0  0  0
    8.6297   -0.5125   21.3741 C   0  0  0  0  0  0  0  0  0  0  0  0
    9.5178    0.6027   20.9206 C   0  0  0  0  0  0  0  0  0  0  0  0
    9.1751    1.9844   21.5442 C   0  0  0  0  0  0  0  0  0  0  0  0
    9.3723    1.9296   23.0485 C   0  0  0  0  0  0  0  0  0  0  0  0
   10.6764    1.9392   23.5625 C   0  0  0  0  0  0  0  0  0  0  0  0
   10.9113    1.6221   24.9019 C   0  0  0  0  0  0  0  0  0  0  0  0
    9.8252    1.2732   25.7024 C   0  0  0  0  0  0  0  0  0  0  0  0
    8.5629    1.3165   25.2632 N   0  0  0  0  0  0  0  0  0  0  0  0
    8.3599    1.6350   23.9894 C   0  0  0  0  0  0  0  0  0  0  0  0
    6.6878    1.6048   23.4965 Cl  0  0  0  0  0  0  0  0  0  0  0  0
    9.9637    0.9123   26.7175 H   0  0  0  0  0  0  0  0  0  0  0  0
   11.9146    1.6113   25.2943 H   0  0  0  0  0  0  0  0  0  0  0  0
   11.5108    2.1426   22.8872 H   0  0  0  0  0  0  0  0  0  0  0  0
    8.1577    2.2934   21.2776 H   0  0  0  0  0  0  0  0  0  0  0  0
    9.8490    2.7320   21.1122 H   0  0  0  0  0  0  0  0  0  0  0  0
    9.5025    0.6638   19.8324 H   0  0  0  0  0  0  0  0  0  0  0  0
   10.5388    0.3312   21.1983 H   0  0  0  0  0  0  0  0  0  0  0  0
    8.8705   -1.3615   22.3574 N   0  0  0  0  0  0  0  0  0  0  0  0
    7.5545   -3.9870   23.3396 H   0  0  0  0  0  0  0  0  0  0  0  0
    5.7151   -1.7412   24.4883 H   0  0  0  0  0  0  0  0  0  0  0  0
    5.6653   -3.5172   24.9402 H   0  0  0  0  0  0  0  0  0  0  0  0
    8.0763   -1.5826   25.1887 H   0  0  0  0  0  0  0  0  0  0  0  0
    7.8622   -4.6188   25.8408 H   0  0  0  0  0  0  0  0  0  0  0  0
    9.3516   -3.6606   25.9369 H   0  0  0  0  0  0  0  0  0  0  0  0
    8.0041   -3.3489   27.0593 H   0  0  0  0  0  0  0  0  0  0  0  0
  1  2  1  0
  2  3  1  0
  3  4  1  0
  4  5  1  0
  5  6  2  0
  6  7  1  0
  7  8  1  0
  8  9  2  0
  9 10  1  0
 10 11  2  0
 11 12  1  0
 12 13  2  0
 13 14  1  0
 11 15  1  0
 10 16  1  0
  9 17  1  0
  7 18  1  0
 18 19  1  0
 19 20  1  0
 20 21  1  0
 21 22  2  0
 22 23  1  0
 23 24  2  0
 24 25  1  0
 25 26  2  0
 26 27  1  0
 24 28  1  0
 23 29  1  0
 22 30  1  0
 20 31  1  0
 20 32  1  0
 19 33  1  0
 19 34  1  0
 18 35  2  0
  4 36  1  6
  3 37  1  0
  3 38  1  0
  2 39  1  6
  1 40  1  0
  1 41  1  0
  1 42  1  0
  4  2  1  0
 35  5  1  0
 13  8  1  0
 26 21  1  0
M  END
>  <cnnaffinity>  (1) 
-6.28086

>  <filename>  (1) 
C[C@@H]1C[C@H]1c1nc(CCc2cccnc2Cl)n(-c2cccnc2)n1

$$$$
