
     RDKit          3D

 43 46  0  0  0  0  0  0  0  0999 V2000
    3.8622   -4.7222   27.4549 C   0  0  0  0  0  0  0  0  0  0  0  0
    5.0738   -4.3881   26.6204 C   0  0  2  0  0  0  0  0  0  0  0  0
    6.4124   -4.8485   27.0850 C   0  0  0  0  0  0  0  0  0  0  0  0
    6.0777   -3.3707   27.1242 C   0  0  1  0  0  0  0  0  0  0  0  0
    6.7396   -2.4340   26.1924 C   0  0  0  0  0  0  0  0  0  0  0  0
    7.0377   -1.1828   26.4855 N   0  0  0  0  0  0  0  0  0  0  0  0
    7.6333   -0.7350   25.3464 N   0  0  0  0  0  0  0  0  0  0  0  0
    8.1160    0.5998   25.2294 C   0  0  0  0  0  0  0  0  0  0  0  0
    9.4187    0.8749   24.7860 C   0  0  0  0  0  0  0  0  0  0  0  0
    9.8246    2.2029   24.6746 C   0  0  0  0  0  0  0  0  0  0  0  0
    8.9051    3.2003   25.0101 C   0  0  0  0  0  0  0  0  0  0  0  0
    9.3981    4.8614   24.8762 Cl  0  0  0  0  0  0  0  0  0  0  0  0
    7.6748    2.9627   25.4392 N   0  0  0  0  0  0  0  0  0  0  0  0
    7.2922    1.6871   25.5571 C   0  0  0  0  0  0  0  0  0  0  0  0
    6.2799    1.5226   25.9127 H   0  0  0  0  0  0  0  0  0  0  0  0
   10.8167    2.4670   24.3364 H   0  0  0  0  0  0  0  0  0  0  0  0
   10.1111    0.0665   24.5611 H   0  0  0  0  0  0  0  0  0  0  0  0
    7.6321   -1.7399   24.4182 C   0  0  0  0  0  0  0  0  0  0  0  0
    8.0205   -1.5734   22.9875 C   0  0  0  0  0  0  0  0  0  0  0  0
    6.9769   -0.7643   22.2112 C   0  0  0  0  0  0  0  0  0  0  0  0
    7.4152   -0.6796   20.8560 O   0  0  0  0  0  0  0  0  0  0  0  0
    6.6689   -0.0017   19.9384 C   0  0  0  0  0  0  0  0  0  0  0  0
    5.4466    0.6422   20.1816 C   0  0  0  0  0  0  0  0  0  0  0  0
    4.8153    1.3028   19.1127 C   0  0  0  0  0  0  0  0  0  0  0  0
    5.4007    1.2898   17.8461 C   0  0  0  0  0  0  0  0  0  0  0  0
    6.5691    0.6692   17.5973 N   0  0  0  0  0  0  0  0  0  0  0  0
    7.1803    0.0532   18.6158 C   0  0  0  0  0  0  0  0  0  0  0  0
    8.1253   -0.4362   18.3981 H   0  0  0  0  0  0  0  0  0  0  0  0
    4.9196    1.7793   16.9988 H   0  0  0  0  0  0  0  0  0  0  0  0
    3.8828    1.8361   19.2626 H   0  0  0  0  0  0  0  0  0  0  0  0
    5.0024    0.6308   21.1771 H   0  0  0  0  0  0  0  0  0  0  0  0
    6.8643    0.2394   22.6482 H   0  0  0  0  0  0  0  0  0  0  0  0
    6.0088   -1.2772   22.2581 H   0  0  0  0  0  0  0  0  0  0  0  0
    8.1225   -2.5621   22.5350 H   0  0  0  0  0  0  0  0  0  0  0  0
    8.9887   -1.0768   22.8969 H   0  0  0  0  0  0  0  0  0  0  0  0
    7.0855   -2.8148   24.9246 N   0  0  0  0  0  0  0  0  0  0  0  0
    5.8642   -2.9347   28.0954 H   0  0  0  0  0  0  0  0  0  0  0  0
    7.1384   -5.1668   26.3416 H   0  0  0  0  0  0  0  0  0  0  0  0
    6.4503   -5.3881   28.0286 H   0  0  0  0  0  0  0  0  0  0  0  0
    4.9228   -4.3841   25.5434 H   0  0  0  0  0  0  0  0  0  0  0  0
    3.0377   -4.0247   27.2799 H   0  0  0  0  0  0  0  0  0  0  0  0
    3.5135   -5.7398   27.2464 H   0  0  0  0  0  0  0  0  0  0  0  0
    4.1144   -4.6813   28.5200 H   0  0  0  0  0  0  0  0  0  0  0  0
  1  2  1  0
  2  3  1  0
  3  4  1  0
  4  5  1  0
  5  6  2  0
  6  7  1  0
  7  8  1  0
  8  9  2  0
  9 10  1  0
 10 11  2  0
 11 12  1  0
 11 13  1  0
 13 14  2  0
 14 15  1  0
 10 16  1  0
  9 17  1  0
  7 18  1  0
 18 19  1  0
 19 20  1  0
 20 21  1  0
 21 22  1  0
 22 23  2  0
 23 24  1  0
 24 25  2  0
 25 26  1  0
 26 27  2  0
 27 28  1  0
 25 29  1  0
 24 30  1  0
 23 31  1  0
 20 32  1  0
 20 33  1  0
 19 34  1  0
 19 35  1  0
 18 36  2  0
  4 37  1  1
  3 38  1  0
  3 39  1  0
  2 40  1  6
  1 41  1  0
  1 42  1  0
  1 43  1  0
  4  2  1  0
 36  5  1  0
 14  8  1  0
 27 22  1  0
M  END
>  <cnnaffinity>  (1) 
-5.73788

>  <filename>  (1) 
C[C@@H]1C[C@H]1c1nc(CCOc2cccnc2)n(-c2ccc(Cl)nc2)n1

$$$$
