
     RDKit          3D

 45 47  0  0  0  0  0  0  0  0999 V2000
    5.7156   -5.0311   23.8007 C   0  0  0  0  0  0  0  0  0  0  0  0
    6.8794   -4.1149   23.6722 N   0  0  0  0  0  4  0  0  0  0  0  0
    7.6783   -4.1511   24.9410 C   0  0  0  0  0  0  0  0  0  0  0  0
    7.0210   -4.0367   25.8102 H   0  0  0  0  0  0  0  0  0  0  0  0
    8.2019   -5.1130   25.0379 H   0  0  0  0  0  0  0  0  0  0  0  0
    8.4156   -3.3439   24.9560 H   0  0  0  0  0  0  0  0  0  0  0  0
    7.7098   -4.5110   22.4847 C   0  0  0  0  0  0  0  0  0  0  0  0
    8.5638   -3.3391   22.0173 C   0  0  0  0  0  0  0  0  0  0  0  0
    7.7667   -2.0976   21.8634 C   0  0  0  0  0  0  0  0  0  0  0  0
    7.3497   -1.6660   20.7020 N   0  0  0  0  0  0  0  0  0  0  0  0
    6.7960   -0.4480   20.9989 N   0  0  0  0  0  0  0  0  0  0  0  0
    6.2654    0.2868   19.9013 C   0  0  0  0  0  0  0  0  0  0  0  0
    5.1112    1.0840   19.9392 C   0  0  0  0  0  0  0  0  0  0  0  0
    4.6801    1.6527   18.7317 C   0  0  0  0  0  0  0  0  0  0  0  0
    5.4112    1.4386   17.5628 C   0  0  0  0  0  0  0  0  0  0  0  0
    6.5381    0.7048   17.5296 N   0  0  0  0  0  0  0  0  0  0  0  0
    6.9329    0.1460   18.6687 C   0  0  0  0  0  0  0  0  0  0  0  0
    7.8337   -0.4663   18.6517 H   0  0  0  0  0  0  0  0  0  0  0  0
    5.1071    1.8701   16.6124 H   0  0  0  0  0  0  0  0  0  0  0  0
    3.7865    2.2665   18.6779 H   0  0  0  0  0  0  0  0  0  0  0  0
    4.5398    1.2464   20.8533 H   0  0  0  0  0  0  0  0  0  0  0  0
    6.9880   -0.2044   22.3398 C   0  0  0  0  0  0  0  0  0  0  0  0
    6.9881    1.1320   23.0320 C   0  0  0  0  0  0  0  0  0  0  0  0
    8.3805    1.5044   23.5623 C   0  0  0  0  0  0  0  0  0  0  0  0
    8.7022    1.3911   24.9241 C   0  0  0  0  0  0  0  0  0  0  0  0
   10.0148    1.5787   25.3829 C   0  0  0  0  0  0  0  0  0  0  0  0
   11.0397    1.8736   24.4782 C   0  0  0  0  0  0  0  0  0  0  0  0
   10.7401    2.0328   23.1247 C   0  0  0  0  0  0  0  0  0  0  0  0
    9.4210    1.8698   22.6871 C   0  0  0  0  0  0  0  0  0  0  0  0
    9.0722    2.1424   21.0065 Cl  0  0  0  0  0  0  0  0  0  0  0  0
   11.5154    2.2690   22.4003 H   0  0  0  0  0  0  0  0  0  0  0  0
   12.0648    1.9923   24.8279 H   0  0  0  0  0  0  0  0  0  0  0  0
   10.2470    1.4779   26.4343 H   0  0  0  0  0  0  0  0  0  0  0  0
    7.9155    1.1407   25.6358 H   0  0  0  0  0  0  0  0  0  0  0  0
    6.6366    1.8984   22.3388 H   0  0  0  0  0  0  0  0  0  0  0  0
    6.2821    1.0751   23.8640 H   0  0  0  0  0  0  0  0  0  0  0  0
    7.4550   -1.3075   22.9184 N   0  0  0  0  0  0  0  0  0  0  0  0
    9.0294   -3.5499   21.0575 H   0  0  0  0  0  0  0  0  0  0  0  0
    9.3488   -3.1202   22.7431 H   0  0  0  0  0  0  0  0  0  0  0  0
    7.0417   -4.8439   21.6789 H   0  0  0  0  0  0  0  0  0  0  0  0
    8.3402   -5.3726   22.7579 H   0  0  0  0  0  0  0  0  0  0  0  0
    6.5694   -3.1214   23.5441 H   0  0  0  0  0  0  0  0  0  0  0  0
    6.0600   -6.0598   23.9797 H   0  0  0  0  0  0  0  0  0  0  0  0
    5.0731   -4.7384   24.6345 H   0  0  0  0  0  0  0  0  0  0  0  0
    5.1209   -5.0337   22.8821 H   0  0  0  0  0  0  0  0  0  0  0  0
  1  2  1  0
  2  3  1  0
  3  4  1  0
  3  5  1  0
  3  6  1  0
  2  7  1  0
  7  8  1  0
  8  9  1  0
  9 10  2  0
 10 11  1  0
 11 12  1  0
 12 13  2  0
 13 14  1  0
 14 15  2  0
 15 16  1  0
 16 17  2  0
 17 18  1  0
 15 19  1  0
 14 20  1  0
 13 21  1  0
 11 22  1  0
 22 23  1  0
 23 24  1  0
 24 25  2  0
 25 26  1  0
 26 27  2  0
 27 28  1  0
 28 29  2  0
 29 30  1  0
 28 31  1  0
 27 32  1  0
 26 33  1  0
 25 34  1  0
 23 35  1  0
 23 36  1  0
 22 37  2  0
  8 38  1  0
  8 39  1  0
  7 40  1  0
  7 41  1  0
  2 42  1  0
  1 43  1  0
  1 44  1  0
  1 45  1  0
 37  9  1  0
 17 12  1  0
 29 24  1  0
M  CHG  1   2   1
M  END
>  <cnnaffinity>  (1) 
-5.85591

>  <filename>  (1) 
C[NH+](C)CCc1nc(Cc2ccccc2Cl)n(-c2cccnc2)n1

$$$$
