
     RDKit          3D

 53 56  0  0  0  0  0  0  0  0999 V2000
    6.6336    4.4493   22.3034 C   0  0  0  0  0  0  0  0  0  0  0  0
    7.9607    3.8181   22.4567 N   0  0  0  0  0  4  0  0  0  0  0  0
    8.3075    3.6196   23.9186 C   0  0  0  0  0  0  0  0  0  0  0  0
    9.6898    2.9952   24.0670 C   0  0  0  0  0  0  0  0  0  0  0  0
    9.8026    1.6875   23.2802 C   0  0  0  0  0  0  0  0  0  0  0  0
    9.4297    1.8954   21.8033 C   0  0  0  0  0  0  0  0  0  0  0  0
    9.5500    0.5932   20.9756 C   0  0  0  0  0  0  0  0  0  0  0  0
    8.6247   -0.5021   21.4087 C   0  0  0  0  0  0  0  0  0  0  0  0
    8.8511   -1.3493   22.3912 N   0  0  0  0  0  0  0  0  0  0  0  0
    7.6692   -2.0154   22.5135 C   0  0  0  0  0  0  0  0  0  0  0  0
    7.4561   -3.0353   23.5900 C   0  0  0  0  0  0  0  0  0  0  0  0
    7.2914   -2.3600   24.9783 C   0  0  0  0  0  0  0  0  0  0  0  0
    7.2982   -3.3528   26.1149 C   0  0  0  0  0  0  0  0  0  0  0  0
    7.7614   -4.6004   25.9955 C   0  0  0  0  0  0  0  0  0  0  0  0
    8.2680   -5.1693   24.6897 C   0  0  0  0  0  0  0  0  0  0  0  0
    8.5842   -4.0868   23.6441 C   0  0  0  0  0  0  0  0  0  0  0  0
    9.5269   -3.5839   23.8950 H   0  0  0  0  0  0  0  0  0  0  0  0
    8.7288   -4.5473   22.6607 H   0  0  0  0  0  0  0  0  0  0  0  0
    7.5032   -5.8515   24.2932 H   0  0  0  0  0  0  0  0  0  0  0  0
    9.1504   -5.7968   24.8643 H   0  0  0  0  0  0  0  0  0  0  0  0
    7.7769   -5.2586   26.8650 H   0  0  0  0  0  0  0  0  0  0  0  0
    6.9107   -3.0085   27.0732 H   0  0  0  0  0  0  0  0  0  0  0  0
    6.3745   -1.7583   25.0015 H   0  0  0  0  0  0  0  0  0  0  0  0
    8.1146   -1.6485   25.1334 H   0  0  0  0  0  0  0  0  0  0  0  0
    6.5180   -3.5383   23.3367 H   0  0  0  0  0  0  0  0  0  0  0  0
    6.7341   -1.6370   21.6701 N   0  0  0  0  0  0  0  0  0  0  0  0
    7.3565   -0.6810   20.9292 N   0  0  0  0  0  0  0  0  0  0  0  0
    6.6588    0.0075   19.9017 C   0  0  0  0  0  0  0  0  0  0  0  0
    5.4422    0.6476   20.1680 C   0  0  0  0  0  0  0  0  0  0  0  0
    4.8117    1.3133   19.1098 C   0  0  0  0  0  0  0  0  0  0  0  0
    5.4002    1.2974   17.8393 C   0  0  0  0  0  0  0  0  0  0  0  0
    6.5601    0.6756   17.5784 N   0  0  0  0  0  0  0  0  0  0  0  0
    7.1696    0.0526   18.5926 C   0  0  0  0  0  0  0  0  0  0  0  0
    8.1148   -0.4350   18.3655 H   0  0  0  0  0  0  0  0  0  0  0  0
    4.9171    1.7851   16.9946 H   0  0  0  0  0  0  0  0  0  0  0  0
    3.8757    1.8388   19.2580 H   0  0  0  0  0  0  0  0  0  0  0  0
    5.0115    0.6054   21.1729 H   0  0  0  0  0  0  0  0  0  0  0  0
    9.3811    0.8163   19.9212 H   0  0  0  0  0  0  0  0  0  0  0  0
   10.5691    0.2015   21.0490 H   0  0  0  0  0  0  0  0  0  0  0  0
    8.0336    2.5114   21.6897 C   0  0  0  0  0  0  0  0  0  0  0  0
    7.7621    2.6755   20.6427 H   0  0  0  0  0  0  0  0  0  0  0  0
    7.2792    1.8381   22.1054 H   0  0  0  0  0  0  0  0  0  0  0  0
   10.1263    2.6370   21.3801 H   0  0  0  0  0  0  0  0  0  0  0  0
    9.1445    0.9273   23.7240 H   0  0  0  0  0  0  0  0  0  0  0  0
   10.8160    1.2719   23.3495 H   0  0  0  0  0  0  0  0  0  0  0  0
   10.4355    3.7104   23.6974 H   0  0  0  0  0  0  0  0  0  0  0  0
    9.8944    2.8246   25.1283 H   0  0  0  0  0  0  0  0  0  0  0  0
    7.5509    2.9536   24.3516 H   0  0  0  0  0  0  0  0  0  0  0  0
    8.2415    4.5821   24.4373 H   0  0  0  0  0  0  0  0  0  0  0  0
    8.6981    4.4331   22.0440 H   0  0  0  0  0  0  0  0  0  0  0  0
    6.3855    4.6141   21.2490 H   0  0  0  0  0  0  0  0  0  0  0  0
    5.8613    3.7893   22.7245 H   0  0  0  0  0  0  0  0  0  0  0  0
    6.5807    5.3990   22.8461 H   0  0  0  0  0  0  0  0  0  0  0  0
  1  2  1  0
  2  3  1  0
  3  4  1  0
  4  5  1  0
  5  6  1  0
  6  7  1  0
  7  8  1  0
  8  9  2  0
  9 10  1  0
 10 11  1  0
 11 12  1  0
 12 13  1  0
 13 14  2  0
 14 15  1  0
 15 16  1  0
 16 17  1  0
 16 18  1  0
 15 19  1  0
 15 20  1  0
 14 21  1  0
 13 22  1  0
 12 23  1  0
 12 24  1  0
 11 25  1  0
 10 26  2  0
 26 27  1  0
 27 28  1  0
 28 29  2  0
 29 30  1  0
 30 31  2  0
 31 32  1  0
 32 33  2  0
 33 34  1  0
 31 35  1  0
 30 36  1  0
 29 37  1  0
  7 38  1  0
  7 39  1  0
  6 40  1  0
 40 41  1  0
 40 42  1  0
  6 43  1  0
  5 44  1  0
  5 45  1  0
  4 46  1  0
  4 47  1  0
  3 48  1  0
  3 49  1  0
  2 50  1  0
  1 51  1  0
  1 52  1  0
  1 53  1  0
 40  2  1  0
 27  8  1  0
 33 28  1  0
 16 11  1  0
M  CHG  1   2   1
M  END
>  <cnnaffinity>  (1) 
-6.16299

>  <filename>  (1) 
C[NH+]1CCCC(Cc2nc(C3CC=CCC3)nn2-c2cccnc2)C1

$$$$
