
     RDKit          3D

 53 56  0  0  0  0  0  0  0  0999 V2000
    8.3905    3.7592   24.2117 C   0  0  0  0  0  0  0  0  0  0  0  0
    7.2979    2.8545   24.6490 N   0  0  0  0  0  4  0  0  0  0  0  0
    7.2089    2.8735   26.1786 C   0  0  0  0  0  0  0  0  0  0  0  0
    6.3326    1.7340   26.7406 C   0  0  0  0  0  0  0  0  0  0  0  0
    5.3145    1.2401   25.7059 C   0  0  0  0  0  0  0  0  0  0  0  0
    6.0249    0.7226   24.4404 C   0  0  0  0  0  0  0  0  0  0  0  0
    7.3550    1.4336   24.0999 C   0  0  0  0  0  0  0  0  0  0  0  0
    7.6468    1.3876   22.5872 C   0  0  0  0  0  0  0  0  0  0  0  0
    7.6874   -0.0262   22.0971 C   0  0  0  0  0  0  0  0  0  0  0  0
    8.2732   -0.9674   22.8117 N   0  0  0  0  0  0  0  0  0  0  0  0
    8.0818   -2.0965   22.0903 C   0  0  0  0  0  0  0  0  0  0  0  0
    8.5336   -3.4645   22.5606 C   0  0  0  0  0  0  0  0  0  0  0  0
    9.6788   -3.4011   23.6149 C   0  0  0  0  0  0  0  0  0  0  0  0
    9.1759   -3.1715   25.0245 C   0  0  0  0  0  0  0  0  0  0  0  0
    7.9079   -3.3620   25.4010 C   0  0  0  0  0  0  0  0  0  0  0  0
    6.8275   -3.8618   24.4716 C   0  0  0  0  0  0  0  0  0  0  0  0
    7.3962   -4.3593   23.1327 C   0  0  0  0  0  0  0  0  0  0  0  0
    7.8531   -5.3444   23.2954 H   0  0  0  0  0  0  0  0  0  0  0  0
    6.5983   -4.5040   22.3953 H   0  0  0  0  0  0  0  0  0  0  0  0
    6.1033   -3.0456   24.3296 H   0  0  0  0  0  0  0  0  0  0  0  0
    6.2643   -4.6786   24.9538 H   0  0  0  0  0  0  0  0  0  0  0  0
    7.6221   -3.1426   26.4305 H   0  0  0  0  0  0  0  0  0  0  0  0
    9.8931   -2.8120   25.7584 H   0  0  0  0  0  0  0  0  0  0  0  0
   10.4037   -2.6203   23.3494 H   0  0  0  0  0  0  0  0  0  0  0  0
   10.2480   -4.3429   23.6058 H   0  0  0  0  0  0  0  0  0  0  0  0
    8.8863   -3.9469   21.6472 H   0  0  0  0  0  0  0  0  0  0  0  0
    7.4740   -1.9036   20.9290 N   0  0  0  0  0  0  0  0  0  0  0  0
    7.1942   -0.5657   20.9414 N   0  0  0  0  0  0  0  0  0  0  0  0
    6.5277    0.0587   19.8378 C   0  0  0  0  0  0  0  0  0  0  0  0
    5.3465    0.7947   20.0061 C   0  0  0  0  0  0  0  0  0  0  0  0
    4.7887    1.4253   18.8879 C   0  0  0  0  0  0  0  0  0  0  0  0
    5.4330    1.3128   17.6519 C   0  0  0  0  0  0  0  0  0  0  0  0
    6.5464    0.5781   17.4768 N   0  0  0  0  0  0  0  0  0  0  0  0
    7.0615   -0.0494   18.5390 C   0  0  0  0  0  0  0  0  0  0  0  0
    7.9343   -0.6712   18.3602 H   0  0  0  0  0  0  0  0  0  0  0  0
    5.0498    1.8268   16.7713 H   0  0  0  0  0  0  0  0  0  0  0  0
    3.8806    2.0139   18.9678 H   0  0  0  0  0  0  0  0  0  0  0  0
    4.8552    0.8509   20.9792 H   0  0  0  0  0  0  0  0  0  0  0  0
    6.9277    1.9864   22.0220 H   0  0  0  0  0  0  0  0  0  0  0  0
    8.6342    1.8285   22.4166 H   0  0  0  0  0  0  0  0  0  0  0  0
    8.1818    0.9266   24.6156 H   0  0  0  0  0  0  0  0  0  0  0  0
    5.3370    0.7749   23.5822 H   0  0  0  0  0  0  0  0  0  0  0  0
    6.2800   -0.3352   24.5589 H   0  0  0  0  0  0  0  0  0  0  0  0
    4.6751    0.4525   26.1264 H   0  0  0  0  0  0  0  0  0  0  0  0
    4.6430    2.0664   25.4340 H   0  0  0  0  0  0  0  0  0  0  0  0
    5.8293    2.0840   27.6492 H   0  0  0  0  0  0  0  0  0  0  0  0
    6.9760    0.8984   27.0503 H   0  0  0  0  0  0  0  0  0  0  0  0
    6.8129    3.8496   26.4872 H   0  0  0  0  0  0  0  0  0  0  0  0
    8.2280    2.7985   26.5801 H   0  0  0  0  0  0  0  0  0  0  0  0
    6.3799    3.2068   24.2985 H   0  0  0  0  0  0  0  0  0  0  0  0
    9.3673    3.3221   24.4742 H   0  0  0  0  0  0  0  0  0  0  0  0
    8.3175    4.7323   24.7130 H   0  0  0  0  0  0  0  0  0  0  0  0
    8.3747    3.9293   23.1308 H   0  0  0  0  0  0  0  0  0  0  0  0
  1  2  1  0
  2  3  1  0
  3  4  1  0
  4  5  1  0
  5  6  1  0
  6  7  1  0
  7  8  1  0
  8  9  1  0
  9 10  2  0
 10 11  1  0
 11 12  1  0
 12 13  1  0
 13 14  1  0
 14 15  2  0
 15 16  1  0
 16 17  1  0
 17 18  1  0
 17 19  1  0
 16 20  1  0
 16 21  1  0
 15 22  1  0
 14 23  1  0
 13 24  1  0
 13 25  1  0
 12 26  1  0
 11 27  2  0
 27 28  1  0
 28 29  1  0
 29 30  2  0
 30 31  1  0
 31 32  2  0
 32 33  1  0
 33 34  2  0
 34 35  1  0
 32 36  1  0
 31 37  1  0
 30 38  1  0
  8 39  1  0
  8 40  1  0
  7 41  1  0
  6 42  1  0
  6 43  1  0
  5 44  1  0
  5 45  1  0
  4 46  1  0
  4 47  1  0
  3 48  1  0
  3 49  1  0
  2 50  1  0
  1 51  1  0
  1 52  1  0
  1 53  1  0
  7  2  1  0
 28  9  1  0
 34 29  1  0
 17 12  1  0
M  CHG  1   2   1
M  END
>  <cnnaffinity>  (1) 
-6.04147

>  <filename>  (1) 
C[NH+]1CCCCC1Cc1nc(C2CC=CCC2)nn1-c1cccnc1

$$$$
