
     RDKit          3D

 45 47  0  0  0  0  0  0  0  0999 V2000
    9.6620    1.5615   25.5479 C   0  0  0  0  0  0  0  0  0  0  0  0
    9.6334    0.2194   24.9046 N   0  0  0  0  0  4  0  0  0  0  0  0
    9.6494   -0.8478   25.9618 C   0  0  0  0  0  0  0  0  0  0  0  0
   10.5858   -0.7961   26.5337 H   0  0  0  0  0  0  0  0  0  0  0  0
    9.5674   -1.8396   25.5085 H   0  0  0  0  0  0  0  0  0  0  0  0
    8.8172   -0.7062   26.6585 H   0  0  0  0  0  0  0  0  0  0  0  0
   10.7727    0.0603   23.9235 C   0  0  0  0  0  0  0  0  0  0  0  0
   10.4398   -1.0391   22.9190 C   0  0  0  0  0  0  0  0  0  0  0  0
    9.0740   -0.9040   22.3393 C   0  0  0  0  0  0  0  0  0  0  0  0
    8.7383    0.0586   21.5039 N   0  0  0  0  0  0  0  0  0  0  0  0
    7.4419   -0.2387   21.2172 N   0  0  0  0  0  0  0  0  0  0  0  0
    6.7696    0.3981   20.1295 C   0  0  0  0  0  0  0  0  0  0  0  0
    5.4950    0.9717   20.2475 C   0  0  0  0  0  0  0  0  0  0  0  0
    4.8610    1.3991   19.0738 C   0  0  0  0  0  0  0  0  0  0  0  0
    5.5163    1.2423   17.8483 C   0  0  0  0  0  0  0  0  0  0  0  0
    6.7438    0.7038   17.7358 N   0  0  0  0  0  0  0  0  0  0  0  0
    7.3537    0.3106   18.8564 C   0  0  0  0  0  0  0  0  0  0  0  0
    8.3405   -0.1394   18.7663 H   0  0  0  0  0  0  0  0  0  0  0  0
    5.0457    1.5596   16.9195 H   0  0  0  0  0  0  0  0  0  0  0  0
    3.8769    1.8553   19.0981 H   0  0  0  0  0  0  0  0  0  0  0  0
    5.0197    1.0923   21.2227 H   0  0  0  0  0  0  0  0  0  0  0  0
    7.1245   -1.4414   21.7921 C   0  0  0  0  0  0  0  0  0  0  0  0
    5.9482   -2.1974   21.2646 C   0  0  0  0  0  0  0  0  0  0  0  0
    5.8232   -3.6632   21.5847 C   0  0  0  0  0  0  0  0  0  0  0  0
    5.6064   -4.5924   20.5547 C   0  0  0  0  0  0  0  0  0  0  0  0
    5.5729   -4.0435   18.9152 Cl  0  0  0  0  0  0  0  0  0  0  0  0
    5.3422   -5.9404   20.8413 C   0  0  0  0  0  0  0  0  0  0  0  0
    5.0929   -7.0710   19.5487 Cl  0  0  0  0  0  0  0  0  0  0  0  0
    5.2632   -6.3529   22.1757 C   0  0  0  0  0  0  0  0  0  0  0  0
    5.4969   -5.4365   23.2073 C   0  0  0  0  0  0  0  0  0  0  0  0
    5.8079   -4.1087   22.9112 C   0  0  0  0  0  0  0  0  0  0  0  0
    6.0566   -3.4087   23.7056 H   0  0  0  0  0  0  0  0  0  0  0  0
    5.4259   -5.7553   24.2445 H   0  0  0  0  0  0  0  0  0  0  0  0
    5.0194   -7.3827   22.4075 H   0  0  0  0  0  0  0  0  0  0  0  0
    5.0326   -1.6875   21.5540 H   0  0  0  0  0  0  0  0  0  0  0  0
    5.9890   -2.0731   20.1833 H   0  0  0  0  0  0  0  0  0  0  0  0
    8.1136   -1.8310   22.5764 N   0  0  0  0  0  0  0  0  0  0  0  0
   11.1606   -1.0264   22.0991 H   0  0  0  0  0  0  0  0  0  0  0  0
   10.4776   -2.0213   23.3924 H   0  0  0  0  0  0  0  0  0  0  0  0
   11.6972   -0.1747   24.4725 H   0  0  0  0  0  0  0  0  0  0  0  0
   10.9268    1.0203   23.4182 H   0  0  0  0  0  0  0  0  0  0  0  0
    8.7504    0.1175   24.3517 H   0  0  0  0  0  0  0  0  0  0  0  0
   10.6093    1.7041   26.0848 H   0  0  0  0  0  0  0  0  0  0  0  0
    8.8409    1.6577   26.2639 H   0  0  0  0  0  0  0  0  0  0  0  0
    9.5742    2.3483   24.7912 H   0  0  0  0  0  0  0  0  0  0  0  0
  1  2  1  0
  2  3  1  0
  3  4  1  0
  3  5  1  0
  3  6  1  0
  2  7  1  0
  7  8  1  0
  8  9  1  0
  9 10  2  0
 10 11  1  0
 11 12  1  0
 12 13  2  0
 13 14  1  0
 14 15  2  0
 15 16  1  0
 16 17  2  0
 17 18  1  0
 15 19  1  0
 14 20  1  0
 13 21  1  0
 11 22  1  0
 22 23  1  0
 23 24  1  0
 24 25  2  0
 25 26  1  0
 25 27  1  0
 27 28  1  0
 27 29  2  0
 29 30  1  0
 30 31  2  0
 31 32  1  0
 30 33  1  0
 29 34  1  0
 23 35  1  0
 23 36  1  0
 22 37  2  0
  8 38  1  0
  8 39  1  0
  7 40  1  0
  7 41  1  0
  2 42  1  0
  1 43  1  0
  1 44  1  0
  1 45  1  0
 37  9  1  0
 17 12  1  0
 31 24  1  0
M  CHG  1   2   1
M  END
>  <cnnaffinity>  (1) 
-5.86238

>  <filename>  (1) 
C[NH+](C)CCc1nc(Cc2cccc(Cl)c2Cl)n(-c2cccnc2)n1

$$$$
