
     RDKit          3D

 45 47  0  0  0  0  0  0  0  0999 V2000
    5.7496   -5.2923   23.6179 C   0  0  0  0  0  0  0  0  0  0  0  0
    6.7054   -4.6557   22.6679 N   0  0  0  0  0  4  0  0  0  0  0  0
    6.8374   -5.5214   21.4384 C   0  0  0  0  0  0  0  0  0  0  0  0
    7.4392   -6.4160   21.6549 H   0  0  0  0  0  0  0  0  0  0  0  0
    5.8521   -5.8598   21.1061 H   0  0  0  0  0  0  0  0  0  0  0  0
    7.3094   -4.9658   20.6234 H   0  0  0  0  0  0  0  0  0  0  0  0
    8.0525   -4.3694   23.2954 C   0  0  0  0  0  0  0  0  0  0  0  0
    8.8308   -3.4465   22.3703 C   0  0  0  0  0  0  0  0  0  0  0  0
    8.1304   -2.1715   22.0561 C   0  0  0  0  0  0  0  0  0  0  0  0
    7.8227   -1.2703   22.9649 N   0  0  0  0  0  0  0  0  0  0  0  0
    7.2645   -0.2676   22.2261 N   0  0  0  0  0  0  0  0  0  0  0  0
    7.1240    1.0741   22.8219 C   0  0  0  0  0  0  0  0  0  0  0  0
    8.4099    1.5675   23.4722 C   0  0  0  0  0  0  0  0  0  0  0  0
    8.5470    1.5272   24.8637 C   0  0  0  0  0  0  0  0  0  0  0  0
    9.7875    1.7234   25.4726 C   0  0  0  0  0  0  0  0  0  0  0  0
   10.9078    2.0464   24.7024 C   0  0  0  0  0  0  0  0  0  0  0  0
   10.7897    2.1697   23.3161 C   0  0  0  0  0  0  0  0  0  0  0  0
    9.5407    1.9334   22.7231 C   0  0  0  0  0  0  0  0  0  0  0  0
    9.4268    2.0411   20.9988 Cl  0  0  0  0  0  0  0  0  0  0  0  0
   11.6507    2.4042   22.6901 H   0  0  0  0  0  0  0  0  0  0  0  0
   11.8659    2.2235   25.1837 H   0  0  0  0  0  0  0  0  0  0  0  0
    9.8531    1.5884   26.5419 H   0  0  0  0  0  0  0  0  0  0  0  0
    7.6661    1.3289   25.4742 H   0  0  0  0  0  0  0  0  0  0  0  0
    6.8177    1.7671   22.0324 H   0  0  0  0  0  0  0  0  0  0  0  0
    6.3386    1.0062   23.5813 H   0  0  0  0  0  0  0  0  0  0  0  0
    7.2146   -0.6632   20.9254 C   0  0  0  0  0  0  0  0  0  0  0  0
    6.5325    0.0548   19.8536 C   0  0  0  0  0  0  0  0  0  0  0  0
    5.3225    0.7413   20.0292 C   0  0  0  0  0  0  0  0  0  0  0  0
    4.7731    1.3990   18.9323 C   0  0  0  0  0  0  0  0  0  0  0  0
    5.4507    1.3514   17.7089 C   0  0  0  0  0  0  0  0  0  0  0  0
    6.5977    0.6770   17.5266 N   0  0  0  0  0  0  0  0  0  0  0  0
    7.1111    0.0331   18.5767 C   0  0  0  0  0  0  0  0  0  0  0  0
    8.0334   -0.5197   18.3993 H   0  0  0  0  0  0  0  0  0  0  0  0
    5.0377    1.8491   16.8337 H   0  0  0  0  0  0  0  0  0  0  0  0
    3.8397    1.9419   19.0142 H   0  0  0  0  0  0  0  0  0  0  0  0
    4.8264    0.7437   21.0029 H   0  0  0  0  0  0  0  0  0  0  0  0
    7.8021   -1.8414   20.7847 N   0  0  0  0  0  0  0  0  0  0  0  0
    9.8151   -3.2378   22.7865 H   0  0  0  0  0  0  0  0  0  0  0  0
    8.9502   -3.9139   21.3957 H   0  0  0  0  0  0  0  0  0  0  0  0
    8.5895   -5.3177   23.4304 H   0  0  0  0  0  0  0  0  0  0  0  0
    7.9165   -3.9301   24.2933 H   0  0  0  0  0  0  0  0  0  0  0  0
    6.3430   -3.7098   22.3946 H   0  0  0  0  0  0  0  0  0  0  0  0
    5.5963   -4.6559   24.4947 H   0  0  0  0  0  0  0  0  0  0  0  0
    4.7909   -5.4597   23.1160 H   0  0  0  0  0  0  0  0  0  0  0  0
    6.1221   -6.2652   23.9679 H   0  0  0  0  0  0  0  0  0  0  0  0
  1  2  1  0
  2  3  1  0
  3  4  1  0
  3  5  1  0
  3  6  1  0
  2  7  1  0
  7  8  1  0
  8  9  1  0
  9 10  2  0
 10 11  1  0
 11 12  1  0
 12 13  1  0
 13 14  2  0
 14 15  1  0
 15 16  2  0
 16 17  1  0
 17 18  2  0
 18 19  1  0
 17 20  1  0
 16 21  1  0
 15 22  1  0
 14 23  1  0
 12 24  1  0
 12 25  1  0
 11 26  1  0
 26 27  1  0
 27 28  2  0
 28 29  1  0
 29 30  2  0
 30 31  1  0
 31 32  2  0
 32 33  1  0
 30 34  1  0
 29 35  1  0
 28 36  1  0
 26 37  2  0
  8 38  1  0
  8 39  1  0
  7 40  1  0
  7 41  1  0
  2 42  1  0
  1 43  1  0
  1 44  1  0
  1 45  1  0
 37  9  1  0
 18 13  1  0
 32 27  1  0
M  CHG  1   2   1
M  END
>  <cnnaffinity>  (1) 
-5.67261

>  <filename>  (1) 
C[NH+](C)CCc1nc(-c2cccnc2)n(Cc2ccccc2Cl)n1

$$$$
