
     RDKit          3D

 42 44  0  0  0  0  0  0  0  0999 V2000
   10.0525    1.8816   22.0010 C   0  0  0  0  0  0  0  0  0  0  0  0
    8.5736    2.1473   21.7106 N   0  0  0  0  0  4  0  0  0  0  0  0
    8.2132    3.6244   21.8866 C   0  0  0  0  0  0  0  0  0  0  0  0
    8.3649    4.1344   23.2974 C   0  0  0  0  0  0  0  0  0  0  0  0
    7.2694    4.0442   24.1680 C   0  0  0  0  0  0  0  0  0  0  0  0
    7.3457    4.4668   25.4951 C   0  0  0  0  0  0  0  0  0  0  0  0
    8.5418    5.0126   25.9694 C   0  0  0  0  0  0  0  0  0  0  0  0
    9.6442    5.1117   25.1216 C   0  0  0  0  0  0  0  0  0  0  0  0
    9.5768    4.6497   23.8013 C   0  0  0  0  0  0  0  0  0  0  0  0
   10.7430    4.6602   23.0277 N   0  0  0  0  0  0  0  0  0  0  0  0
   11.4219    5.3193   23.3784 H   0  0  0  0  0  0  0  0  0  0  0  0
   10.5634    4.8695   22.0524 H   0  0  0  0  0  0  0  0  0  0  0  0
   10.5860    5.5330   25.4601 H   0  0  0  0  0  0  0  0  0  0  0  0
    8.6168    5.3319   27.0030 H   0  0  0  0  0  0  0  0  0  0  0  0
    6.4833    4.3591   26.1454 H   0  0  0  0  0  0  0  0  0  0  0  0
    6.3430    3.6174   23.7909 H   0  0  0  0  0  0  0  0  0  0  0  0
    8.7758    4.2161   21.1718 H   0  0  0  0  0  0  0  0  0  0  0  0
    7.1686    3.7398   21.5815 H   0  0  0  0  0  0  0  0  0  0  0  0
    7.6911    1.2477   22.5944 C   0  0  0  0  0  0  0  0  0  0  0  0
    7.8439   -0.1721   22.1858 C   0  0  0  0  0  0  0  0  0  0  0  0
    8.4401   -1.2460   22.8166 C   0  0  0  0  0  0  0  0  0  0  0  0
    8.3917   -2.2785   21.8622 C   0  0  0  0  0  0  0  0  0  0  0  0
    7.8131   -1.8916   20.7370 N   0  0  0  0  0  0  0  0  0  0  0  0
    7.4594   -0.6059   20.9442 N   0  0  0  0  0  0  0  0  0  0  0  0
    6.6993    0.0486   19.9366 C   0  0  0  0  0  0  0  0  0  0  0  0
    5.4629    0.6698   20.1771 C   0  0  0  0  0  0  0  0  0  0  0  0
    4.8263    1.3042   19.1037 C   0  0  0  0  0  0  0  0  0  0  0  0
    5.4349    1.2871   17.8454 C   0  0  0  0  0  0  0  0  0  0  0  0
    6.5928    0.6474   17.6035 N   0  0  0  0  0  0  0  0  0  0  0  0
    7.1913    0.0260   18.6222 C   0  0  0  0  0  0  0  0  0  0  0  0
    8.1111   -0.5087   18.3883 H   0  0  0  0  0  0  0  0  0  0  0  0
    4.9723    1.7978   17.0003 H   0  0  0  0  0  0  0  0  0  0  0  0
    3.8808    1.8215   19.2432 H   0  0  0  0  0  0  0  0  0  0  0  0
    4.9922    0.6334   21.1631 H   0  0  0  0  0  0  0  0  0  0  0  0
    8.7353   -3.2982   21.9569 H   0  0  0  0  0  0  0  0  0  0  0  0
    8.9158   -1.2383   23.7887 H   0  0  0  0  0  0  0  0  0  0  0  0
    7.9682    1.3841   23.6431 H   0  0  0  0  0  0  0  0  0  0  0  0
    6.6514    1.5720   22.4777 H   0  0  0  0  0  0  0  0  0  0  0  0
    8.3543    1.8492   20.7350 H   0  0  0  0  0  0  0  0  0  0  0  0
   10.3144    0.8418   21.7809 H   0  0  0  0  0  0  0  0  0  0  0  0
   10.2517    2.0721   23.0610 H   0  0  0  0  0  0  0  0  0  0  0  0
   10.6965    2.5333   21.4013 H   0  0  0  0  0  0  0  0  0  0  0  0
  1  2  1  0
  2  3  1  0
  3  4  1  0
  4  5  2  0
  5  6  1  0
  6  7  2  0
  7  8  1  0
  8  9  2  0
  9 10  1  0
 10 11  1  0
 10 12  1  0
  8 13  1  0
  7 14  1  0
  6 15  1  0
  5 16  1  0
  3 17  1  0
  3 18  1  0
  2 19  1  0
 19 20  1  0
 20 21  2  0
 21 22  1  0
 22 23  2  0
 23 24  1  0
 24 25  1  0
 25 26  2  0
 26 27  1  0
 27 28  2  0
 28 29  1  0
 29 30  2  0
 30 31  1  0
 28 32  1  0
 27 33  1  0
 26 34  1  0
 22 35  1  0
 21 36  1  0
 19 37  1  0
 19 38  1  0
  2 39  1  0
  1 40  1  0
  1 41  1  0
  1 42  1  0
  9  4  1  0
 24 20  1  0
 30 25  1  0
M  CHG  1   2   1
M  END
>  <cnnaffinity>  (1) 
-5.00923

>  <filename>  (1) 
C[NH+](Cc1ccccc1N)Cc1ccnn1-c1cccnc1

$$$$
