
     RDKit          3D

 40 42  0  0  0  0  0  0  0  0999 V2000
    5.0985    1.6777   16.8224 H   0  0  0  0  0  0  0  0  0  0  0  0
    5.5231    1.2340   17.7183 C   0  0  0  0  0  0  0  0  0  0  0  0
    6.6412    0.5130   17.5446 N   0  0  0  0  0  0  0  0  0  0  0  0
    7.1766   -0.0511   18.6289 C   0  0  0  0  0  0  0  0  0  0  0  0
    8.0905   -0.6225   18.4621 H   0  0  0  0  0  0  0  0  0  0  0  0
    6.6558    0.0867   19.9372 C   0  0  0  0  0  0  0  0  0  0  0  0
    7.2950   -0.6066   21.0710 C   0  0  0  0  0  0  0  0  0  0  0  0
    7.5129   -0.0782   22.3394 C   0  0  0  0  0  0  0  0  0  0  0  0
    7.2067    1.2782   22.6321 N   0  0  0  0  0  0  0  0  0  0  0  0
    6.6958    1.6875   23.9426 C   0  0  0  0  0  0  0  0  0  0  0  0
    7.5083    1.8341   24.6772 H   0  0  0  0  0  0  0  0  0  0  0  0
    6.0263    0.9149   24.3384 H   0  0  0  0  0  0  0  0  0  0  0  0
    5.9223    3.0026   23.7763 C   0  0  0  0  0  0  0  0  0  0  0  0
    5.5794    3.3866   24.7397 H   0  0  0  0  0  0  0  0  0  0  0  0
    5.0410    2.8171   23.1438 H   0  0  0  0  0  0  0  0  0  0  0  0
    6.7511    4.0450   23.1319 N   0  0  0  0  0  0  0  0  0  0  0  0
    6.4468    5.3719   23.3712 C   0  0  0  0  0  0  0  0  0  0  0  0
    5.7017    5.7177   24.2714 O   0  0  0  0  0  0  0  0  0  0  0  0
    7.1128    6.4080   22.4801 C   0  0  0  0  0  0  0  0  0  0  0  0
    6.7710    7.3907   22.8069 H   0  0  0  0  0  0  0  0  0  0  0  0
    6.8522    6.2696   21.4245 H   0  0  0  0  0  0  0  0  0  0  0  0
    8.2032    6.3579   22.5682 H   0  0  0  0  0  0  0  0  0  0  0  0
    7.4283    3.5957   21.9026 C   0  0  0  0  0  0  0  0  0  0  0  0
    8.1546    4.3491   21.5737 H   0  0  0  0  0  0  0  0  0  0  0  0
    6.6802    3.4469   21.1058 H   0  0  0  0  0  0  0  0  0  0  0  0
    8.1551    2.2680   22.1129 C   0  0  0  0  0  0  0  0  0  0  0  0
    8.5633    1.9229   21.1563 H   0  0  0  0  0  0  0  0  0  0  0  0
    9.0017    2.3991   22.8086 H   0  0  0  0  0  0  0  0  0  0  0  0
    8.1510   -0.9169   23.3184 C   0  0  0  0  0  0  0  0  0  0  0  0
    8.3635   -0.4823   24.2973 H   0  0  0  0  0  0  0  0  0  0  0  0
    8.5094   -2.2058   23.0288 C   0  0  0  0  0  0  0  0  0  0  0  0
    8.9971   -2.8669   23.7318 H   0  0  0  0  0  0  0  0  0  0  0  0
    8.2589   -2.7752   21.7150 C   0  0  0  0  0  0  0  0  0  0  0  0
    8.4804   -3.9191   21.3532 O   0  0  0  0  0  0  0  0  0  0  0  0
    7.7136   -1.8916   20.8084 N   0  0  0  0  0  0  0  0  0  0  0  0
    7.5504   -2.3576   19.9263 H   0  0  0  0  0  0  0  0  0  0  0  0
    5.4955    0.8581   20.0949 C   0  0  0  0  0  0  0  0  0  0  0  0
    5.0492    0.9862   21.0814 H   0  0  0  0  0  0  0  0  0  0  0  0
    4.9161    1.4261   18.9622 C   0  0  0  0  0  0  0  0  0  0  0  0
    4.0128    2.0162   19.0332 H   0  0  0  0  0  0  0  0  0  0  0  0
  1  2  1  0
  2  3  2  0
  3  4  1  0
  4  5  1  0
  4  6  2  0
  6  7  1  0
  7  8  2  0
  8  9  1  0
  9 10  1  0
 10 11  1  0
 10 12  1  0
 10 13  1  0
 13 14  1  0
 13 15  1  0
 13 16  1  0
 16 17  1  0
 17 18  2  0
 17 19  1  0
 19 20  1  0
 19 21  1  0
 19 22  1  0
 16 23  1  0
 23 24  1  0
 23 25  1  0
 23 26  1  0
 26 27  1  0
 26 28  1  0
  8 29  1  0
 29 30  1  0
 29 31  2  0
 31 32  1  0
 31 33  1  0
 33 34  2  0
 33 35  1  0
 35 36  1  0
  6 37  1  0
 37 38  1  0
 37 39  2  0
 39 40  1  0
 39  2  1  0
 35  7  1  0
 26  9  1  0
M  END
>  <cnnaffinity>  (1) 
-5.37638

>  <filename>  (1) 
CC(=O)N1CCN(c2ccc(=O)[nH]c2-c2cccnc2)CC1

$$$$
