
     RDKit          3D

 48 51  0  0  0  0  0  0  0  0999 V2000
    8.7052    0.9201   30.0100 C   0  0  0  0  0  0  0  0  0  0  0  0
    7.8896    1.4892   28.8723 C   0  0  0  0  0  0  0  0  0  0  0  0
    7.1572    2.4462   29.0362 O   0  0  0  0  0  0  0  0  0  0  0  0
    8.0515    0.8622   27.6660 N   0  0  0  0  0  0  0  0  0  0  0  0
    7.2864    1.1129   26.5077 C   0  0  0  0  0  0  0  0  0  0  0  0
    5.9170    1.3774   26.6311 C   0  0  0  0  0  0  0  0  0  0  0  0
    5.1528    1.5937   25.4862 C   0  0  0  0  0  0  0  0  0  0  0  0
    5.7593    1.5858   24.2266 C   0  0  0  0  0  0  0  0  0  0  0  0
    7.1279    1.3325   24.0910 C   0  0  0  0  0  0  0  0  0  0  0  0
    7.7491    1.2827   22.7027 C   0  0  0  0  0  0  0  0  0  0  0  0
    7.7820   -0.1189   22.1712 C   0  0  0  0  0  0  0  0  0  0  0  0
    8.3501   -1.0959   22.8523 N   0  0  0  0  0  0  0  0  0  0  0  0
    8.2797   -2.1558   22.0161 C   0  0  0  0  0  0  0  0  0  0  0  0
    8.7081   -3.5659   22.3654 C   0  0  0  0  0  0  0  0  0  0  0  0
    7.7384   -4.3756   23.2833 C   0  0  0  0  0  0  0  0  0  0  0  0
    8.7044   -5.2628   24.0796 C   0  0  0  0  0  0  0  0  0  0  0  0
    9.8928   -4.3203   24.2404 C   0  0  0  0  0  0  0  0  0  0  0  0
    9.9790   -3.6045   23.0145 O   0  0  0  0  0  0  0  0  0  0  0  0
    9.7190   -3.6070   25.0603 H   0  0  0  0  0  0  0  0  0  0  0  0
   10.8393   -4.8409   24.4165 H   0  0  0  0  0  0  0  0  0  0  0  0
    8.9856   -6.1633   23.5147 H   0  0  0  0  0  0  0  0  0  0  0  0
    8.3005   -5.5831   25.0461 H   0  0  0  0  0  0  0  0  0  0  0  0
    7.0042   -4.9507   22.7082 H   0  0  0  0  0  0  0  0  0  0  0  0
    7.2069   -3.6896   23.9591 H   0  0  0  0  0  0  0  0  0  0  0  0
    8.7794   -4.0631   21.3930 H   0  0  0  0  0  0  0  0  0  0  0  0
    7.7317   -1.8901   20.8431 N   0  0  0  0  0  0  0  0  0  0  0  0
    7.3815   -0.5824   20.9447 N   0  0  0  0  0  0  0  0  0  0  0  0
    6.6504    0.0408   19.8878 C   0  0  0  0  0  0  0  0  0  0  0  0
    5.4306    0.6879   20.1191 C   0  0  0  0  0  0  0  0  0  0  0  0
    4.8060    1.3296   19.0447 C   0  0  0  0  0  0  0  0  0  0  0  0
    5.4143    1.2977   17.7877 C   0  0  0  0  0  0  0  0  0  0  0  0
    6.5519    0.6214   17.5451 N   0  0  0  0  0  0  0  0  0  0  0  0
    7.1375   -0.0083   18.5691 C   0  0  0  0  0  0  0  0  0  0  0  0
    8.0374   -0.5718   18.3384 H   0  0  0  0  0  0  0  0  0  0  0  0
    4.9790    1.8327   16.9457 H   0  0  0  0  0  0  0  0  0  0  0  0
    3.8658    1.8565   19.1683 H   0  0  0  0  0  0  0  0  0  0  0  0
    4.9604    0.6695   21.1038 H   0  0  0  0  0  0  0  0  0  0  0  0
    8.7824    1.6501   22.7467 H   0  0  0  0  0  0  0  0  0  0  0  0
    7.2156    1.9440   22.0169 H   0  0  0  0  0  0  0  0  0  0  0  0
    7.8838    1.0582   25.2423 C   0  0  0  0  0  0  0  0  0  0  0  0
    8.9228    0.7532   25.1506 H   0  0  0  0  0  0  0  0  0  0  0  0
    5.1526    1.7682   23.3436 H   0  0  0  0  0  0  0  0  0  0  0  0
    4.0844    1.7701   25.5798 H   0  0  0  0  0  0  0  0  0  0  0  0
    5.4760    1.4183   27.6201 H   0  0  0  0  0  0  0  0  0  0  0  0
    8.8646    0.2802   27.5673 H   0  0  0  0  0  0  0  0  0  0  0  0
    9.4942    1.6358   30.2549 H   0  0  0  0  0  0  0  0  0  0  0  0
    9.1567   -0.0427   29.7715 H   0  0  0  0  0  0  0  0  0  0  0  0
    8.0670    0.8356   30.8923 H   0  0  0  0  0  0  0  0  0  0  0  0
  1  2  1  0
  2  3  2  0
  2  4  1  0
  4  5  1  0
  5  6  2  0
  6  7  1  0
  7  8  2  0
  8  9  1  0
  9 10  1  0
 10 11  1  0
 11 12  2  0
 12 13  1  0
 13 14  1  0
 14 15  1  0
 15 16  1  0
 16 17  1  0
 17 18  1  0
 17 19  1  0
 17 20  1  0
 16 21  1  0
 16 22  1  0
 15 23  1  0
 15 24  1  0
 14 25  1  0
 13 26  2  0
 26 27  1  0
 27 28  1  0
 28 29  2  0
 29 30  1  0
 30 31  2  0
 31 32  1  0
 32 33  2  0
 33 34  1  0
 31 35  1  0
 30 36  1  0
 29 37  1  0
 10 38  1  0
 10 39  1  0
  9 40  2  0
 40 41  1  0
  8 42  1  0
  7 43  1  0
  6 44  1  0
  4 45  1  0
  1 46  1  0
  1 47  1  0
  1 48  1  0
 40  5  1  0
 27 11  1  0
 33 28  1  0
 18 14  1  0
M  END
>  <cnnaffinity>  (1) 
-5.98342

>  <filename>  (1) 
CC(=O)Nc1cccc(Cc2nc(C3CCCO3)nn2-c2cccnc2)c1

$$$$
