
     RDKit          3D

 38 38  0  0  0  0  0  0  0  0999 V2000
    5.6353   -5.9958   19.6911 C   0  0  0  0  0  0  0  0  0  0  0  0
    5.0818   -5.7643   21.0688 C   0  0  0  0  0  0  0  0  0  0  0  0
    4.3680   -6.5474   21.6661 O   0  0  0  0  0  0  0  0  0  0  0  0
    5.4875   -4.5789   21.6183 N   0  0  0  0  0  0  0  0  0  0  0  0
    5.5758   -4.4722   23.0703 C   0  0  0  0  0  0  0  0  0  0  0  0
    6.6256   -5.4243   23.6808 C   0  0  0  0  0  0  0  0  0  0  0  0
    8.0505   -5.2737   23.0869 C   0  0  0  0  0  0  0  0  0  0  0  0
    8.5807   -3.8546   23.2167 C   0  0  0  0  0  0  0  0  0  0  0  0
    8.9737   -3.4187   24.2767 O   0  0  0  0  0  0  0  0  0  0  0  0
    8.4922   -3.0895   22.0570 N   0  0  0  0  0  0  0  0  0  0  0  0
    9.2617   -1.8261   21.9385 C   0  0  0  0  0  0  0  0  0  0  0  0
    8.8171   -0.7587   20.9092 C   0  0  0  0  0  0  0  0  0  0  0  0
    9.6338   -0.0077   20.4158 O   0  0  0  0  0  0  0  0  0  0  0  0
    7.4797   -0.6963   20.6399 N   0  0  0  0  0  0  0  0  0  0  0  0
    6.8279    0.0593   19.6272 C   0  0  0  0  0  0  0  0  0  0  0  0
    5.5914    0.6330   19.9415 C   0  0  0  0  0  0  0  0  0  0  0  0
    4.8976    1.3281   18.9447 C   0  0  0  0  0  0  0  0  0  0  0  0
    5.4592    1.4156   17.6663 C   0  0  0  0  0  0  0  0  0  0  0  0
    6.6471    0.8764   17.3472 N   0  0  0  0  0  0  0  0  0  0  0  0
    7.3211    0.2326   18.3119 C   0  0  0  0  0  0  0  0  0  0  0  0
    8.2912   -0.1776   18.0364 H   0  0  0  0  0  0  0  0  0  0  0  0
    4.9406    1.9346   16.8630 H   0  0  0  0  0  0  0  0  0  0  0  0
    3.9479    1.8112   19.1486 H   0  0  0  0  0  0  0  0  0  0  0  0
    5.2133    0.5608   20.9614 H   0  0  0  0  0  0  0  0  0  0  0  0
    6.9043   -1.2962   21.2081 H   0  0  0  0  0  0  0  0  0  0  0  0
   10.3180   -1.9991   21.7036 H   0  0  0  0  0  0  0  0  0  0  0  0
    9.2355   -1.3349   22.9185 H   0  0  0  0  0  0  0  0  0  0  0  0
    8.4673   -3.6750   21.2316 H   0  0  0  0  0  0  0  0  0  0  0  0
    8.7543   -5.9211   23.6188 H   0  0  0  0  0  0  0  0  0  0  0  0
    8.0684   -5.6048   22.0423 H   0  0  0  0  0  0  0  0  0  0  0  0
    6.2853   -6.4585   23.5353 H   0  0  0  0  0  0  0  0  0  0  0  0
    6.6514   -5.2443   24.7614 H   0  0  0  0  0  0  0  0  0  0  0  0
    5.8058   -3.4298   23.3186 H   0  0  0  0  0  0  0  0  0  0  0  0
    4.5833   -4.6886   23.4785 H   0  0  0  0  0  0  0  0  0  0  0  0
    6.2052   -4.1143   21.0881 H   0  0  0  0  0  0  0  0  0  0  0  0
    5.4345   -5.1619   19.0157 H   0  0  0  0  0  0  0  0  0  0  0  0
    5.2441   -6.9254   19.2807 H   0  0  0  0  0  0  0  0  0  0  0  0
    6.7158   -6.0900   19.7982 H   0  0  0  0  0  0  0  0  0  0  0  0
  1  2  1  0
  2  3  2  0
  2  4  1  0
  4  5  1  0
  5  6  1  0
  6  7  1  0
  7  8  1  0
  8  9  2  0
  8 10  1  0
 10 11  1  0
 11 12  1  0
 12 13  2  0
 12 14  1  0
 14 15  1  0
 15 16  2  0
 16 17  1  0
 17 18  2  0
 18 19  1  0
 19 20  2  0
 20 21  1  0
 18 22  1  0
 17 23  1  0
 16 24  1  0
 14 25  1  0
 11 26  1  0
 11 27  1  0
 10 28  1  0
  7 29  1  0
  7 30  1  0
  6 31  1  0
  6 32  1  0
  5 33  1  0
  5 34  1  0
  4 35  1  0
  1 36  1  0
  1 37  1  0
  1 38  1  0
 20 15  1  0
M  END
>  <cnnaffinity>  (1) 
-4.5227

>  <filename>  (1) 
CC(=O)NCCCC(=O)NCC(=O)Nc1cccnc1

$$$$
