
     RDKit          3D

 30 31  0  0  0  0  0  0  0  0999 V2000
    9.2423    0.1137   20.4494 H   0  0  0  0  0  0  0  0  0  0  0  0
    8.6828   -0.5178   21.1390 C   0  0  0  0  0  0  0  0  0  0  0  0
    9.5190   -1.1196   22.2224 C   0  0  0  0  0  0  0  0  0  0  0  0
   10.5311   -1.7145   21.9046 O   0  0  0  0  0  0  0  0  0  0  0  0
    9.0973   -0.9922   23.6733 C   0  0  0  0  0  0  0  0  0  0  0  0
    9.5259   -1.9611   24.5984 C   0  0  0  0  0  0  0  0  0  0  0  0
   10.1375   -2.7958   24.2602 H   0  0  0  0  0  0  0  0  0  0  0  0
    9.1895   -1.8579   25.9466 C   0  0  0  0  0  0  0  0  0  0  0  0
    9.5183   -2.5957   26.6725 H   0  0  0  0  0  0  0  0  0  0  0  0
    8.4295   -0.7676   26.3630 C   0  0  0  0  0  0  0  0  0  0  0  0
    8.1060   -0.6606   27.6594 F   0  0  0  0  0  0  0  0  0  0  0  0
    7.9911    0.2155   25.4804 C   0  0  0  0  0  0  0  0  0  0  0  0
    7.3993    1.0479   25.8439 H   0  0  0  0  0  0  0  0  0  0  0  0
    8.3327    0.0994   24.1332 C   0  0  0  0  0  0  0  0  0  0  0  0
    7.9987    0.8651   23.4344 H   0  0  0  0  0  0  0  0  0  0  0  0
    7.3687   -0.7070   20.9905 C   0  0  0  0  0  0  0  0  0  0  0  0
    6.6615    0.0174   19.9112 C   0  0  0  0  0  0  0  0  0  0  0  0
    7.1796    0.0774   18.6023 C   0  0  0  0  0  0  0  0  0  0  0  0
    8.1165   -0.4269   18.3754 H   0  0  0  0  0  0  0  0  0  0  0  0
    6.5681    0.6755   17.5711 N   0  0  0  0  0  0  0  0  0  0  0  0
    5.4037    1.2935   17.8371 C   0  0  0  0  0  0  0  0  0  0  0  0
    4.9133    1.7783   16.9965 H   0  0  0  0  0  0  0  0  0  0  0  0
    4.8032    1.3160   19.1036 C   0  0  0  0  0  0  0  0  0  0  0  0
    3.8690    1.8466   19.2598 H   0  0  0  0  0  0  0  0  0  0  0  0
    5.4344    0.6515   20.1536 C   0  0  0  0  0  0  0  0  0  0  0  0
    5.0103    0.6284   21.1609 H   0  0  0  0  0  0  0  0  0  0  0  0
    6.5524   -1.6387   21.8543 C   0  0  0  0  0  0  0  0  0  0  0  0
    7.1501   -2.4953   22.1670 H   0  0  0  0  0  0  0  0  0  0  0  0
    5.6706   -1.9907   21.3155 H   0  0  0  0  0  0  0  0  0  0  0  0
    6.2274   -1.1138   22.7555 H   0  0  0  0  0  0  0  0  0  0  0  0
  1  2  1  0
  2  3  1  0
  3  4  2  0
  3  5  1  0
  5  6  2  0
  6  7  1  0
  6  8  1  0
  8  9  1  0
  8 10  2  0
 10 11  1  0
 10 12  1  0
 12 13  1  0
 12 14  2  0
 14 15  1  0
  2 16  2  3
 16 17  1  0
 17 18  2  0
 18 19  1  0
 18 20  1  0
 20 21  2  0
 21 22  1  0
 21 23  1  0
 23 24  1  0
 23 25  2  0
 25 26  1  0
 16 27  1  0
 27 28  1  0
 27 29  1  0
 27 30  1  0
 14  5  1  0
 25 17  1  0
M  END
>  <cnnaffinity>  (1) 
-4.82781

>  <filename>  (1) 
CC(=CC(=O)c1ccc(F)cc1)c1cccnc1

$$$$
