
     RDKit          3D

 26 27  0  0  0  0  0  0  0  0999 V2000
    4.9563    1.8163   16.9776 H   0  0  0  0  0  0  0  0  0  0  0  0
    5.4339    1.3076   17.8112 C   0  0  0  0  0  0  0  0  0  0  0  0
    6.5866    0.6716   17.5440 N   0  0  0  0  0  0  0  0  0  0  0  0
    7.2077    0.0604   18.5625 C   0  0  0  0  0  0  0  0  0  0  0  0
    8.1215   -0.4837   18.3202 H   0  0  0  0  0  0  0  0  0  0  0  0
    6.7216    0.0569   19.8844 C   0  0  0  0  0  0  0  0  0  0  0  0
    7.4166   -0.6340   20.9288 N   0  0  0  0  0  0  0  0  0  0  0  0
    6.8306   -1.6827   21.6198 C   0  0  0  0  0  0  0  0  0  0  0  0
    5.8088   -1.9677   21.4074 H   0  0  0  0  0  0  0  0  0  0  0  0
    7.7346   -2.1926   22.5160 C   0  0  0  0  0  0  0  0  0  0  0  0
    7.5707   -3.0234   23.1904 H   0  0  0  0  0  0  0  0  0  0  0  0
    8.9241   -1.4252   22.4060 C   0  0  0  0  0  0  0  0  0  0  0  0
    9.8416   -1.4855   22.9741 H   0  0  0  0  0  0  0  0  0  0  0  0
    8.7062   -0.4734   21.4428 C   0  0  0  0  0  0  0  0  0  0  0  0
    9.5780    0.5449   21.0411 N   0  0  0  0  0  0  0  0  0  0  0  0
    9.3423    1.0399   20.1975 H   0  0  0  0  0  0  0  0  0  0  0  0
   10.6429    0.9811   21.8049 C   0  0  0  0  0  0  0  0  0  0  0  0
   10.9337    0.4929   22.8776 O   0  0  0  0  0  0  0  0  0  0  0  0
   11.4326    2.1379   21.2453 C   0  0  0  0  0  0  0  0  0  0  0  0
   12.4226    2.0982   21.7031 H   0  0  0  0  0  0  0  0  0  0  0  0
   10.9557    3.0753   21.5499 H   0  0  0  0  0  0  0  0  0  0  0  0
   11.5404    2.0974   20.1630 H   0  0  0  0  0  0  0  0  0  0  0  0
    5.4833    0.6722   20.1359 C   0  0  0  0  0  0  0  0  0  0  0  0
    5.0447    0.6600   21.1381 H   0  0  0  0  0  0  0  0  0  0  0  0
    4.8398    1.3198   19.0794 C   0  0  0  0  0  0  0  0  0  0  0  0
    3.8894    1.8244   19.2256 H   0  0  0  0  0  0  0  0  0  0  0  0
  1  2  1  0
  2  3  2  0
  3  4  1  0
  4  5  1  0
  4  6  2  0
  6  7  1  0
  7  8  1  0
  8  9  1  0
  8 10  2  0
 10 11  1  0
 10 12  1  0
 12 13  1  0
 12 14  2  0
 14 15  1  0
 15 16  1  0
 15 17  1  0
 17 18  2  0
 17 19  1  0
 19 20  1  0
 19 21  1  0
 19 22  1  0
  6 23  1  0
 23 24  1  0
 23 25  2  0
 25 26  1  0
 25  2  1  0
 14  7  1  0
M  END
>  <cnnaffinity>  (1) 
-4.31483

>  <filename>  (1) 
CC(=O)Nc1cccn1-c1cccnc1

$$$$
