
     RDKit          3D

 34 35  0  0  0  0  0  0  0  0999 V2000
    9.2084    0.0884   20.3772 H   0  0  0  0  0  0  0  0  0  0  0  0
    8.6496   -0.4889   21.1156 C   0  0  0  0  0  0  0  0  0  0  0  0
    7.3299   -0.6784   20.9547 C   0  0  0  0  0  0  0  0  0  0  0  0
    6.6145    0.0318   19.8632 C   0  0  0  0  0  0  0  0  0  0  0  0
    7.1443    0.0921   18.5588 C   0  0  0  0  0  0  0  0  0  0  0  0
    8.0831   -0.4158   18.3380 H   0  0  0  0  0  0  0  0  0  0  0  0
    6.5531    0.7057   17.5286 N   0  0  0  0  0  0  0  0  0  0  0  0
    5.3879    1.3296   17.7761 C   0  0  0  0  0  0  0  0  0  0  0  0
    4.9325    1.8425   16.9323 H   0  0  0  0  0  0  0  0  0  0  0  0
    4.7699    1.3363   19.0323 C   0  0  0  0  0  0  0  0  0  0  0  0
    3.8366    1.8715   19.1679 H   0  0  0  0  0  0  0  0  0  0  0  0
    5.3858    0.6692   20.0894 C   0  0  0  0  0  0  0  0  0  0  0  0
    4.9444    0.6495   21.0878 H   0  0  0  0  0  0  0  0  0  0  0  0
    6.5376   -1.6191   21.8384 C   0  0  0  0  0  0  0  0  0  0  0  0
    6.2327   -1.1335   22.7730 H   0  0  0  0  0  0  0  0  0  0  0  0
    7.1658   -2.4683   22.1241 H   0  0  0  0  0  0  0  0  0  0  0  0
    5.6446   -1.9915   21.3307 H   0  0  0  0  0  0  0  0  0  0  0  0
    9.4382   -1.0519   22.2331 C   0  0  0  0  0  0  0  0  0  0  0  0
   10.6060   -1.7834   21.9619 C   0  0  0  0  0  0  0  0  0  0  0  0
   11.0676   -1.7042   20.9816 H   0  0  0  0  0  0  0  0  0  0  0  0
   11.1412   -2.6139   22.9474 C   0  0  0  0  0  0  0  0  0  0  0  0
   11.9973   -3.2364   22.7250 H   0  0  0  0  0  0  0  0  0  0  0  0
   10.5760   -2.6658   24.2297 C   0  0  0  0  0  0  0  0  0  0  0  0
   10.9682   -3.3672   24.9640 H   0  0  0  0  0  0  0  0  0  0  0  0
    9.5461   -1.7733   24.5480 C   0  0  0  0  0  0  0  0  0  0  0  0
    8.9414   -1.5843   26.2236 S   0  0  0  0  0  0  0  0  0  0  0  0
    7.5513   -1.1485   26.1789 O   0  0  0  0  0  0  0  0  0  0  0  0
    9.3452   -2.7537   26.9916 O   0  0  0  0  0  0  0  0  0  0  0  0
    9.8705   -0.2106   26.8300 C   0  0  0  0  0  0  0  0  0  0  0  0
    9.5379    0.6933   26.3253 H   0  0  0  0  0  0  0  0  0  0  0  0
   10.9297   -0.3848   26.6639 H   0  0  0  0  0  0  0  0  0  0  0  0
    9.6347   -0.1590   27.8909 H   0  0  0  0  0  0  0  0  0  0  0  0
    8.9668   -0.9804   23.5542 C   0  0  0  0  0  0  0  0  0  0  0  0
    8.1125   -0.3494   23.7870 H   0  0  0  0  0  0  0  0  0  0  0  0
  1  2  1  0
  2  3  2  3
  3  4  1  0
  4  5  2  0
  5  6  1  0
  5  7  1  0
  7  8  2  0
  8  9  1  0
  8 10  1  0
 10 11  1  0
 10 12  2  0
 12 13  1  0
  3 14  1  0
 14 15  1  0
 14 16  1  0
 14 17  1  0
  2 18  1  0
 18 19  2  0
 19 20  1  0
 19 21  1  0
 21 22  1  0
 21 23  2  0
 23 24  1  0
 23 25  1  0
 25 26  1  0
 26 27  2  0
 26 28  2  0
 26 29  1  0
 29 30  1  0
 29 31  1  0
 29 32  1  0
 25 33  2  0
 33 34  1  0
 12  4  1  0
 33 18  1  0
M  END
>  <cnnaffinity>  (1) 
-5.07382

>  <filename>  (1) 
CC(=Cc1cccc(S(C)(=O)=O)c1)c1cccnc1

$$$$
