
     RDKit          3D

 31 32  0  0  0  0  0  0  0  0999 V2000
    4.9384    1.7956   16.9800 H   0  0  0  0  0  0  0  0  0  0  0  0
    5.3994    1.2956   17.8302 C   0  0  0  0  0  0  0  0  0  0  0  0
    6.5604    0.6704   17.5807 N   0  0  0  0  0  0  0  0  0  0  0  0
    7.1613    0.0556   18.6025 C   0  0  0  0  0  0  0  0  0  0  0  0
    8.1052   -0.4384   18.3826 H   0  0  0  0  0  0  0  0  0  0  0  0
    6.6450    0.0199   19.9061 C   0  0  0  0  0  0  0  0  0  0  0  0
    7.4073   -0.7104   20.9086 C   0  0  0  0  0  0  0  0  0  0  0  0
    8.3829   -1.5563   20.6621 N   0  0  0  0  0  0  0  0  0  0  0  0
    8.7890   -2.0143   21.8832 C   0  0  0  0  0  0  0  0  0  0  0  0
    9.5910   -2.7455   21.9695 H   0  0  0  0  0  0  0  0  0  0  0  0
    8.0719   -1.4304   22.8991 C   0  0  0  0  0  0  0  0  0  0  0  0
    8.2269   -1.4731   24.3895 C   0  0  0  0  0  0  0  0  0  0  0  0
    7.2455   -1.5366   24.8797 H   0  0  0  0  0  0  0  0  0  0  0  0
    8.7629   -2.3894   24.6662 H   0  0  0  0  0  0  0  0  0  0  0  0
    8.9637   -0.2643   24.9875 C   0  0  0  0  0  0  0  0  0  0  0  0
    8.4604    0.6716   24.7075 H   0  0  0  0  0  0  0  0  0  0  0  0
    8.9208   -0.3027   26.0835 H   0  0  0  0  0  0  0  0  0  0  0  0
   10.3609   -0.2111   24.5773 N   0  0  0  0  0  0  0  0  0  0  0  0
   10.7323   -0.8709   23.9189 H   0  0  0  0  0  0  0  0  0  0  0  0
   11.1393    0.8549   24.9054 C   0  0  0  0  0  0  0  0  0  0  0  0
   10.7119    1.7594   25.6000 O   0  0  0  0  0  0  0  0  0  0  0  0
   12.5519    0.8258   24.3775 C   0  0  0  0  0  0  0  0  0  0  0  0
   13.0047    1.7796   24.6363 H   0  0  0  0  0  0  0  0  0  0  0  0
   12.6043    0.6913   23.2935 H   0  0  0  0  0  0  0  0  0  0  0  0
   13.1312    0.0273   24.8459 H   0  0  0  0  0  0  0  0  0  0  0  0
    7.1785   -0.6017   22.2444 N   0  0  0  0  0  0  0  0  0  0  0  0
    6.5216    0.0456   22.6467 H   0  0  0  0  0  0  0  0  0  0  0  0
    5.4229    0.6692   20.1521 C   0  0  0  0  0  0  0  0  0  0  0  0
    4.9535    0.6636   21.1390 H   0  0  0  0  0  0  0  0  0  0  0  0
    4.7942    1.3183   19.0935 C   0  0  0  0  0  0  0  0  0  0  0  0
    3.8592    1.8516   19.2322 H   0  0  0  0  0  0  0  0  0  0  0  0
  1  2  1  0
  2  3  2  0
  3  4  1  0
  4  5  1  0
  4  6  2  0
  6  7  1  0
  7  8  2  0
  8  9  1  0
  9 10  1  0
  9 11  2  0
 11 12  1  0
 12 13  1  0
 12 14  1  0
 12 15  1  0
 15 16  1  0
 15 17  1  0
 15 18  1  0
 18 19  1  0
 18 20  1  0
 20 21  2  0
 20 22  1  0
 22 23  1  0
 22 24  1  0
 22 25  1  0
 11 26  1  0
 26 27  1  0
  6 28  1  0
 28 29  1  0
 28 30  2  0
 30 31  1  0
 30  2  1  0
 26  7  1  0
M  END
>  <cnnaffinity>  (1) 
-4.69228

>  <filename>  (1) 
CC(=O)NCCc1cnc(-c2cccnc2)[nH]1

$$$$
