
     RDKit          3D

 36 38  0  0  0  0  0  0  0  0999 V2000
    5.0241    1.8079   16.8764 H   0  0  0  0  0  0  0  0  0  0  0  0
    5.4412    1.2999   17.7420 C   0  0  0  0  0  0  0  0  0  0  0  0
    6.6042    0.6539   17.5528 N   0  0  0  0  0  0  0  0  0  0  0  0
    7.1486    0.0311   18.6035 C   0  0  0  0  0  0  0  0  0  0  0  0
    8.0993   -0.4650   18.4055 H   0  0  0  0  0  0  0  0  0  0  0  0
    6.5742    0.0072   19.8883 C   0  0  0  0  0  0  0  0  0  0  0  0
    7.2211   -0.6103   21.0445 C   0  0  0  0  0  0  0  0  0  0  0  0
    7.0542   -0.3623   22.3670 C   0  0  0  0  0  0  0  0  0  0  0  0
    6.3855    0.3107   22.8806 H   0  0  0  0  0  0  0  0  0  0  0  0
    7.9824   -1.1212   23.0656 N   0  0  0  0  0  0  0  0  0  0  0  0
    8.1602   -1.1655   24.4861 C   0  0  0  0  0  0  0  0  0  0  0  0
    8.4513   -0.0079   25.2192 C   0  0  0  0  0  0  0  0  0  0  0  0
    8.4755    0.9517   24.7160 H   0  0  0  0  0  0  0  0  0  0  0  0
    8.7484   -0.1231   26.5827 C   0  0  0  0  0  0  0  0  0  0  0  0
    9.0084    0.7639   27.1569 H   0  0  0  0  0  0  0  0  0  0  0  0
    8.7333   -1.3742   27.2051 C   0  0  0  0  0  0  0  0  0  0  0  0
    9.0233   -1.4433   28.2457 H   0  0  0  0  0  0  0  0  0  0  0  0
    8.3715   -2.5103   26.4685 C   0  0  0  0  0  0  0  0  0  0  0  0
    8.2906   -3.7711   27.0786 N   0  0  0  0  0  0  0  0  0  0  0  0
    8.9286   -3.9895   27.8192 H   0  0  0  0  0  0  0  0  0  0  0  0
    7.4572   -4.7900   26.7047 C   0  0  0  0  0  0  0  0  0  0  0  0
    6.6041   -4.6922   25.8448 O   0  0  0  0  0  0  0  0  0  0  0  0
    7.6868   -6.0312   27.5185 C   0  0  0  0  0  0  0  0  0  0  0  0
    7.1658   -6.8500   27.0347 H   0  0  0  0  0  0  0  0  0  0  0  0
    7.2716   -5.8611   28.5141 H   0  0  0  0  0  0  0  0  0  0  0  0
    8.7496   -6.2641   27.6158 H   0  0  0  0  0  0  0  0  0  0  0  0
    8.1096   -2.4080   25.1047 C   0  0  0  0  0  0  0  0  0  0  0  0
    7.9111   -3.3074   24.5366 H   0  0  0  0  0  0  0  0  0  0  0  0
    8.7591   -1.8343   22.1867 C   0  0  0  0  0  0  0  0  0  0  0  0
   10.0615   -2.8178   22.4764 S   0  0  0  0  0  0  0  0  0  0  0  0
    8.2615   -1.5261   20.9602 N   0  0  0  0  0  0  0  0  0  0  0  0
    8.6163   -2.0308   20.1662 H   0  0  0  0  0  0  0  0  0  0  0  0
    5.3507    0.6764   20.0532 C   0  0  0  0  0  0  0  0  0  0  0  0
    4.8674    0.6729   21.0263 H   0  0  0  0  0  0  0  0  0  0  0  0
    4.7770    1.3289   18.9687 C   0  0  0  0  0  0  0  0  0  0  0  0
    3.8435    1.8676   19.0633 H   0  0  0  0  0  0  0  0  0  0  0  0
  1  2  1  0
  2  3  2  0
  3  4  1  0
  4  5  1  0
  4  6  2  0
  6  7  1  0
  7  8  2  0
  8  9  1  0
  8 10  1  0
 10 11  1  0
 11 12  2  0
 12 13  1  0
 12 14  1  0
 14 15  1  0
 14 16  2  0
 16 17  1  0
 16 18  1  0
 18 19  1  0
 19 20  1  0
 19 21  1  0
 21 22  2  0
 21 23  1  0
 23 24  1  0
 23 25  1  0
 23 26  1  0
 18 27  2  0
 27 28  1  0
 10 29  1  0
 29 30  2  0
 29 31  1  0
 31 32  1  0
  6 33  1  0
 33 34  1  0
 33 35  2  0
 35 36  1  0
 35  2  1  0
 31  7  1  0
 27 11  1  0
M  END
>  <cnnaffinity>  (1) 
-5.38727

>  <filename>  (1) 
CC(=O)Nc1cccc(-n2cc(-c3cccnc3)[nH]c2=S)c1

$$$$
