
     RDKit          3D

 38 39  0  0  0  0  0  0  0  0999 V2000
    8.5640   -0.3907   20.6534 C   0  0  0  0  0  0  0  0  0  0  0  0
    7.1674   -0.8445   20.2815 C   0  0  0  0  0  0  0  0  0  0  0  0
    6.5357   -1.9415   20.7172 C   0  0  0  0  0  0  0  0  0  0  0  0
    6.8649   -2.8205   21.8795 C   0  0  0  0  0  0  0  0  0  0  0  0
    6.3859   -3.9351   21.9743 O   0  0  0  0  0  0  0  0  0  0  0  0
    7.6982   -2.2637   22.8065 N   0  0  0  0  0  0  0  0  0  0  0  0
    8.1165   -2.9474   24.0262 C   0  0  0  0  0  0  0  0  0  0  0  0
    8.8913   -1.9800   24.9232 C   0  0  0  0  0  0  0  0  0  0  0  0
   10.1110   -1.4618   24.4464 C   0  0  0  0  0  0  0  0  0  0  0  0
   10.8754   -0.5669   25.1997 C   0  0  0  0  0  0  0  0  0  0  0  0
   10.4360   -0.1886   26.4671 C   0  0  0  0  0  0  0  0  0  0  0  0
    9.2182   -0.6558   26.9577 C   0  0  0  0  0  0  0  0  0  0  0  0
    8.4256   -1.5155   26.1775 C   0  0  0  0  0  0  0  0  0  0  0  0
    7.0297   -1.8837   26.6478 C   0  0  0  0  0  0  0  0  0  0  0  0
    6.0974   -1.5207   25.7428 F   0  0  0  0  0  0  0  0  0  0  0  0
    6.8883   -3.2179   26.8304 F   0  0  0  0  0  0  0  0  0  0  0  0
    6.6787   -1.2957   27.8025 F   0  0  0  0  0  0  0  0  0  0  0  0
    8.8606   -0.3346   27.9388 H   0  0  0  0  0  0  0  0  0  0  0  0
   11.0555    0.4543   27.0775 H   0  0  0  0  0  0  0  0  0  0  0  0
   11.8091   -0.1702   24.8067 H   0  0  0  0  0  0  0  0  0  0  0  0
   10.4788   -1.7674   23.4716 H   0  0  0  0  0  0  0  0  0  0  0  0
    7.2675   -3.4191   24.5406 H   0  0  0  0  0  0  0  0  0  0  0  0
    8.7826   -3.7672   23.7284 H   0  0  0  0  0  0  0  0  0  0  0  0
    7.6631   -1.2552   22.8134 H   0  0  0  0  0  0  0  0  0  0  0  0
    5.6982   -2.3367   20.1468 H   0  0  0  0  0  0  0  0  0  0  0  0
    6.4811    0.0199   19.2771 C   0  0  0  0  0  0  0  0  0  0  0  0
    5.2666    0.6757   19.5319 C   0  0  0  0  0  0  0  0  0  0  0  0
    4.7584    1.5365   18.5574 C   0  0  0  0  0  0  0  0  0  0  0  0
    5.4519    1.6900   17.3518 C   0  0  0  0  0  0  0  0  0  0  0  0
    6.5935    1.0405   17.0720 N   0  0  0  0  0  0  0  0  0  0  0  0
    7.0843    0.2436   18.0257 C   0  0  0  0  0  0  0  0  0  0  0  0
    8.0186   -0.2662   17.7923 H   0  0  0  0  0  0  0  0  0  0  0  0
    5.0766    2.3605   16.5807 H   0  0  0  0  0  0  0  0  0  0  0  0
    3.8522    2.1060   18.7255 H   0  0  0  0  0  0  0  0  0  0  0  0
    4.7574    0.5335   20.4866 H   0  0  0  0  0  0  0  0  0  0  0  0
    9.1697   -1.2119   21.0454 H   0  0  0  0  0  0  0  0  0  0  0  0
    9.0795    0.0158   19.7765 H   0  0  0  0  0  0  0  0  0  0  0  0
    8.5241    0.4300   21.3829 H   0  0  0  0  0  0  0  0  0  0  0  0
  1  2  1  0
  2  3  2  3
  3  4  1  0
  4  5  2  0
  4  6  1  0
  6  7  1  0
  7  8  1  0
  8  9  2  0
  9 10  1  0
 10 11  2  0
 11 12  1  0
 12 13  2  0
 13 14  1  0
 14 15  1  0
 14 16  1  0
 14 17  1  0
 12 18  1  0
 11 19  1  0
 10 20  1  0
  9 21  1  0
  7 22  1  0
  7 23  1  0
  6 24  1  0
  3 25  1  0
  2 26  1  0
 26 27  2  0
 27 28  1  0
 28 29  2  0
 29 30  1  0
 30 31  2  0
 31 32  1  0
 29 33  1  0
 28 34  1  0
 27 35  1  0
  1 36  1  0
  1 37  1  0
  1 38  1  0
 13  8  1  0
 31 26  1  0
M  END
>  <cnnaffinity>  (1) 
-4.78852

>  <filename>  (1) 
CC(=CC(=O)NCc1ccccc1C(F)(F)F)c1cccnc1

$$$$
