
     RDKit          3D

 25 26  0  0  0  0  0  0  0  0999 V2000
    4.9359    1.8059   17.0023 H   0  0  0  0  0  0  0  0  0  0  0  0
    5.4322    1.3043   17.8340 C   0  0  0  0  0  0  0  0  0  0  0  0
    6.5925    0.6910   17.5563 N   0  0  0  0  0  0  0  0  0  0  0  0
    7.2273    0.0587   18.5519 C   0  0  0  0  0  0  0  0  0  0  0  0
    8.1578   -0.4476   18.2988 H   0  0  0  0  0  0  0  0  0  0  0  0
    6.7488    0.0093   19.8749 C   0  0  0  0  0  0  0  0  0  0  0  0
    7.4604   -0.7019   20.9127 N   0  0  0  0  0  0  0  0  0  0  0  0
    8.7293   -0.5002   21.4402 C   0  0  0  0  0  0  0  0  0  0  0  0
    9.5757    0.4674   20.9554 N   0  0  0  0  0  0  0  0  0  0  0  0
    9.1412    1.2342   20.4808 H   0  0  0  0  0  0  0  0  0  0  0  0
   10.8730    0.6144   21.4307 C   0  0  0  0  0  0  0  0  0  0  0  0
   11.4817   -0.3014   21.9232 O   0  0  0  0  0  0  0  0  0  0  0  0
   11.4539    2.0026   21.2465 C   0  0  0  0  0  0  0  0  0  0  0  0
   11.6244    2.2178   20.1856 H   0  0  0  0  0  0  0  0  0  0  0  0
   10.7813    2.7581   21.6782 H   0  0  0  0  0  0  0  0  0  0  0  0
   12.4261    2.0234   21.7475 H   0  0  0  0  0  0  0  0  0  0  0  0
    9.0051   -1.3034   22.4212 N   0  0  0  0  0  0  0  0  0  0  0  0
    7.8745   -2.0644   22.5120 N   0  0  0  0  0  0  0  0  0  0  0  0
    7.7802   -2.8278   23.1620 H   0  0  0  0  0  0  0  0  0  0  0  0
    6.9315   -1.7894   21.6001 C   0  0  0  0  0  0  0  0  0  0  0  0
    5.5321   -2.6432   21.3593 S   0  0  0  0  0  0  0  0  0  0  0  0
    5.5203    0.6236   20.1481 C   0  0  0  0  0  0  0  0  0  0  0  0
    5.0915    0.5670   21.1482 H   0  0  0  0  0  0  0  0  0  0  0  0
    4.8609    1.2945   19.1096 C   0  0  0  0  0  0  0  0  0  0  0  0
    3.9149    1.7992   19.2677 H   0  0  0  0  0  0  0  0  0  0  0  0
  1  2  1  0
  2  3  2  0
  3  4  1  0
  4  5  1  0
  4  6  2  0
  6  7  1  0
  7  8  1  0
  8  9  1  0
  9 10  1  0
  9 11  1  0
 11 12  2  0
 11 13  1  0
 13 14  1  0
 13 15  1  0
 13 16  1  0
  8 17  2  0
 17 18  1  0
 18 19  1  0
 18 20  1  0
 20 21  2  0
  6 22  1  0
 22 23  1  0
 22 24  2  0
 24 25  1  0
 24  2  1  0
 20  7  1  0
M  END
>  <cnnaffinity>  (1) 
-4.44074

>  <filename>  (1) 
CC(=O)Nc1n[nH]c(=S)n1-c1cccnc1

$$$$
