
     RDKit          3D

 35 37  0  0  0  0  0  0  0  0999 V2000
    5.2307    1.7573   17.1240 H   0  0  0  0  0  0  0  0  0  0  0  0
    5.6958    1.1786   17.9180 C   0  0  0  0  0  0  0  0  0  0  0  0
    6.8359    0.5504   17.5910 N   0  0  0  0  0  0  0  0  0  0  0  0
    7.4368   -0.1615   18.5460 C   0  0  0  0  0  0  0  0  0  0  0  0
    8.3715   -0.6563   18.2850 H   0  0  0  0  0  0  0  0  0  0  0  0
    6.9309   -0.3155   19.8449 C   0  0  0  0  0  0  0  0  0  0  0  0
    7.7189   -1.1405   20.7672 C   0  0  0  0  0  0  0  0  0  0  0  0
    9.0457   -1.0256   20.7892 N   0  0  0  0  0  0  0  0  0  0  0  0
    9.4179   -1.8515   21.7680 N   0  0  0  0  0  0  0  0  0  0  0  0
    8.4051   -2.4901   22.3735 C   0  0  0  0  0  0  0  0  0  0  0  0
    7.2541   -2.1051   21.7066 C   0  0  0  0  0  0  0  0  0  0  0  0
    5.8638   -2.6598   21.8498 C   0  0  0  0  0  0  0  0  0  0  0  0
    5.1963   -2.0795   21.2163 H   0  0  0  0  0  0  0  0  0  0  0  0
    5.5190   -2.5521   22.8846 H   0  0  0  0  0  0  0  0  0  0  0  0
    5.7343   -4.0575   21.4741 N   0  0  0  0  0  0  0  0  0  0  0  0
    6.0433   -4.7307   22.1494 H   0  0  0  0  0  0  0  0  0  0  0  0
    5.7198   -4.4428   20.1626 C   0  0  0  0  0  0  0  0  0  0  0  0
    5.4635   -3.6602   19.2708 O   0  0  0  0  0  0  0  0  0  0  0  0
    5.9359   -5.9159   19.9343 C   0  0  0  0  0  0  0  0  0  0  0  0
    5.9338   -6.0929   18.8599 H   0  0  0  0  0  0  0  0  0  0  0  0
    6.8910   -6.2394   20.3537 H   0  0  0  0  0  0  0  0  0  0  0  0
    5.1347   -6.4919   20.4070 H   0  0  0  0  0  0  0  0  0  0  0  0
    8.9076   -3.1817   23.6060 C   0  0  0  0  0  0  0  0  0  0  0  0
    8.8568   -4.2668   23.4949 H   0  0  0  0  0  0  0  0  0  0  0  0
    8.2982   -2.9212   24.4750 H   0  0  0  0  0  0  0  0  0  0  0  0
   10.3821   -2.6915   23.7291 C   0  0  0  0  0  0  0  0  0  0  0  0
   11.0632   -3.5393   23.8136 H   0  0  0  0  0  0  0  0  0  0  0  0
   10.5126   -2.0576   24.6075 H   0  0  0  0  0  0  0  0  0  0  0  0
   10.6915   -1.8633   22.4500 C   0  0  0  0  0  0  0  0  0  0  0  0
   11.4599   -2.3059   21.8150 H   0  0  0  0  0  0  0  0  0  0  0  0
   10.9714   -0.8279   22.6653 H   0  0  0  0  0  0  0  0  0  0  0  0
    5.7343    0.3453   20.1727 C   0  0  0  0  0  0  0  0  0  0  0  0
    5.3031    0.2704   21.1744 H   0  0  0  0  0  0  0  0  0  0  0  0
    5.1149    1.1194   19.1915 C   0  0  0  0  0  0  0  0  0  0  0  0
    4.2074    1.6812   19.3925 H   0  0  0  0  0  0  0  0  0  0  0  0
  1  2  1  0
  2  3  2  0
  3  4  1  0
  4  5  1  0
  4  6  2  0
  6  7  1  0
  7  8  2  0
  8  9  1  0
  9 10  1  0
 10 11  2  0
 11 12  1  0
 12 13  1  0
 12 14  1  0
 12 15  1  0
 15 16  1  0
 15 17  1  0
 17 18  2  0
 17 19  1  0
 19 20  1  0
 19 21  1  0
 19 22  1  0
 10 23  1  0
 23 24  1  0
 23 25  1  0
 23 26  1  0
 26 27  1  0
 26 28  1  0
 26 29  1  0
 29 30  1  0
 29 31  1  0
  6 32  1  0
 32 33  1  0
 32 34  2  0
 34 35  1  0
 34  2  1  0
 11  7  1  0
 29  9  1  0
M  END
>  <cnnaffinity>  (1) 
-5.33945

>  <filename>  (1) 
CC(=O)NCc1c(-c2cccnc2)nn2c1CCC2

$$$$
