
     RDKit          3D

 35 37  0  0  0  0  0  0  0  0999 V2000
    4.9865    1.8730   16.9152 H   0  0  0  0  0  0  0  0  0  0  0  0
    5.4161    1.3134   17.7447 C   0  0  0  0  0  0  0  0  0  0  0  0
    6.5592    0.6587   17.4905 N   0  0  0  0  0  0  0  0  0  0  0  0
    7.1333    0.0063   18.5064 C   0  0  0  0  0  0  0  0  0  0  0  0
    8.0676   -0.5041   18.2855 H   0  0  0  0  0  0  0  0  0  0  0  0
    6.6070   -0.0319   19.8117 C   0  0  0  0  0  0  0  0  0  0  0  0
    7.3812   -0.6386   20.9084 C   0  0  0  0  0  0  0  0  0  0  0  0
    8.5664   -1.2369   20.6842 N   0  0  0  0  0  0  0  0  0  0  0  0
    9.0049   -1.4897   21.9397 N   0  0  0  0  0  0  0  0  0  0  0  0
   10.1660   -2.0141   22.4899 C   0  0  0  0  0  0  0  0  0  0  0  0
   10.9231   -2.4519   21.8615 H   0  0  0  0  0  0  0  0  0  0  0  0
   10.0436   -1.8687   23.8316 C   0  0  0  0  0  0  0  0  0  0  0  0
   10.7398   -2.1449   24.6143 H   0  0  0  0  0  0  0  0  0  0  0  0
    8.8027   -1.2863   24.1267 N   0  0  0  0  0  0  0  0  0  0  0  0
    8.4620   -0.5266   25.3284 C   0  0  0  0  0  0  0  0  0  0  0  0
    8.8236   -1.0890   26.1986 H   0  0  0  0  0  0  0  0  0  0  0  0
    7.3657   -0.4862   25.3904 H   0  0  0  0  0  0  0  0  0  0  0  0
    9.0545    0.9008   25.3388 C   0  0  0  0  0  0  0  0  0  0  0  0
    8.7674    1.4211   26.2587 H   0  0  0  0  0  0  0  0  0  0  0  0
   10.1446    0.8229   25.3187 H   0  0  0  0  0  0  0  0  0  0  0  0
    8.6636    1.7253   24.2110 N   0  0  0  0  0  0  0  0  0  0  0  0
    7.7079    2.0304   24.1516 H   0  0  0  0  0  0  0  0  0  0  0  0
    9.3748    1.7850   23.0419 C   0  0  0  0  0  0  0  0  0  0  0  0
   10.4968    1.3186   22.9365 O   0  0  0  0  0  0  0  0  0  0  0  0
    8.6482    2.5183   21.9417 C   0  0  0  0  0  0  0  0  0  0  0  0
    9.0487    2.2465   20.9687 H   0  0  0  0  0  0  0  0  0  0  0  0
    8.8050    3.5938   22.0580 H   0  0  0  0  0  0  0  0  0  0  0  0
    7.5746    2.3075   21.9661 H   0  0  0  0  0  0  0  0  0  0  0  0
    8.1730   -1.0852   22.9141 C   0  0  0  0  0  0  0  0  0  0  0  0
    7.0526   -0.5557   22.2855 C   0  0  0  0  0  0  0  0  0  0  0  0
    6.1657   -0.1391   22.7285 H   0  0  0  0  0  0  0  0  0  0  0  0
    5.3850    0.6191   20.0487 C   0  0  0  0  0  0  0  0  0  0  0  0
    4.9162    0.6193   21.0371 H   0  0  0  0  0  0  0  0  0  0  0  0
    4.7871    1.3061   18.9954 C   0  0  0  0  0  0  0  0  0  0  0  0
    3.8730    1.8708   19.1409 H   0  0  0  0  0  0  0  0  0  0  0  0
  1  2  1  0
  2  3  2  0
  3  4  1  0
  4  5  1  0
  4  6  2  0
  6  7  1  0
  7  8  2  0
  8  9  1  0
  9 10  1  0
 10 11  1  0
 10 12  2  0
 12 13  1  0
 12 14  1  0
 14 15  1  0
 15 16  1  0
 15 17  1  0
 15 18  1  0
 18 19  1  0
 18 20  1  0
 18 21  1  0
 21 22  1  0
 21 23  1  0
 23 24  2  0
 23 25  1  0
 25 26  1  0
 25 27  1  0
 25 28  1  0
 14 29  1  0
 29 30  2  0
 30 31  1  0
  6 32  1  0
 32 33  1  0
 32 34  2  0
 34 35  1  0
 34  2  1  0
 30  7  1  0
 29  9  1  0
M  END
>  <cnnaffinity>  (1) 
-5.30345

>  <filename>  (1) 
CC(=O)NCCn1ccn2nc(-c3cccnc3)cc12

$$$$
