
     RDKit          3D

 35 36  0  0  0  0  0  0  0  0999 V2000
    4.9767    1.7953   16.9795 H   0  0  0  0  0  0  0  0  0  0  0  0
    5.4303    1.2916   17.8305 C   0  0  0  0  0  0  0  0  0  0  0  0
    6.5958    0.6635   17.6027 N   0  0  0  0  0  0  0  0  0  0  0  0
    7.1845    0.0540   18.6404 C   0  0  0  0  0  0  0  0  0  0  0  0
    8.1326   -0.4410   18.4254 H   0  0  0  0  0  0  0  0  0  0  0  0
    6.6561    0.0417   19.9479 C   0  0  0  0  0  0  0  0  0  0  0  0
    7.3472   -0.6479   20.9919 N   0  0  0  0  0  0  0  0  0  0  0  0
    7.6238   -1.9954   20.9479 C   0  0  0  0  0  0  0  0  0  0  0  0
    7.1760   -2.5823   20.1633 H   0  0  0  0  0  0  0  0  0  0  0  0
    8.3531   -2.3391   22.0569 C   0  0  0  0  0  0  0  0  0  0  0  0
    8.7652   -3.3143   22.2833 H   0  0  0  0  0  0  0  0  0  0  0  0
    8.4926   -1.1589   22.8392 C   0  0  0  0  0  0  0  0  0  0  0  0
    8.9885   -1.0857   23.8026 H   0  0  0  0  0  0  0  0  0  0  0  0
    7.8734   -0.1249   22.1670 C   0  0  0  0  0  0  0  0  0  0  0  0
    7.8201    1.3403   22.4803 C   0  0  0  0  0  0  0  0  0  0  0  0
    6.8041    1.7225   22.3322 H   0  0  0  0  0  0  0  0  0  0  0  0
    8.0381    1.4728   23.5474 H   0  0  0  0  0  0  0  0  0  0  0  0
    8.8245    2.1731   21.6574 C   0  0  0  0  0  0  0  0  0  0  0  0
    8.7257    3.2363   21.9091 H   0  0  0  0  0  0  0  0  0  0  0  0
    8.5853    2.0715   20.5916 H   0  0  0  0  0  0  0  0  0  0  0  0
   10.2679    1.7359   21.9466 C   0  0  0  0  0  0  0  0  0  0  0  0
   10.4297    1.7270   23.0284 H   0  0  0  0  0  0  0  0  0  0  0  0
   10.4225    0.7066   21.6077 H   0  0  0  0  0  0  0  0  0  0  0  0
   11.2945    2.5821   21.3777 N   0  0  0  0  0  0  0  0  0  0  0  0
   11.5310    2.4719   20.4076 H   0  0  0  0  0  0  0  0  0  0  0  0
   11.7288    3.7296   21.9775 C   0  0  0  0  0  0  0  0  0  0  0  0
   11.4719    4.0098   23.1355 O   0  0  0  0  0  0  0  0  0  0  0  0
   12.5803    4.5962   21.0661 C   0  0  0  0  0  0  0  0  0  0  0  0
   13.6102    4.2346   21.0978 H   0  0  0  0  0  0  0  0  0  0  0  0
   12.5848    5.6250   21.4232 H   0  0  0  0  0  0  0  0  0  0  0  0
   12.2375    4.5833   20.0236 H   0  0  0  0  0  0  0  0  0  0  0  0
    5.4258    0.6802   20.1658 C   0  0  0  0  0  0  0  0  0  0  0  0
    4.9730    0.6634   21.1593 H   0  0  0  0  0  0  0  0  0  0  0  0
    4.8080    1.3120   19.0837 C   0  0  0  0  0  0  0  0  0  0  0  0
    3.8670    1.8321   19.2154 H   0  0  0  0  0  0  0  0  0  0  0  0
  1  2  1  0
  2  3  2  0
  3  4  1  0
  4  5  1  0
  4  6  2  0
  6  7  1  0
  7  8  1  0
  8  9  1  0
  8 10  2  0
 10 11  1  0
 10 12  1  0
 12 13  1  0
 12 14  2  0
 14 15  1  0
 15 16  1  0
 15 17  1  0
 15 18  1  0
 18 19  1  0
 18 20  1  0
 18 21  1  0
 21 22  1  0
 21 23  1  0
 21 24  1  0
 24 25  1  0
 24 26  1  0
 26 27  2  0
 26 28  1  0
 28 29  1  0
 28 30  1  0
 28 31  1  0
  6 32  1  0
 32 33  1  0
 32 34  2  0
 34 35  1  0
 34  2  1  0
 14  7  1  0
M  END
>  <cnnaffinity>  (1) 
-4.89995

>  <filename>  (1) 
CC(=O)NCCCc1cccn1-c1cccnc1

$$$$
