
     RDKit          3D

 38 40  0  0  0  0  0  0  0  0999 V2000
    4.8982    1.8384   16.9588 H   0  0  0  0  0  0  0  0  0  0  0  0
    5.3705    1.3169   17.7882 C   0  0  0  0  0  0  0  0  0  0  0  0
    6.5266    0.6937   17.5153 N   0  0  0  0  0  0  0  0  0  0  0  0
    7.1481    0.0838   18.5332 C   0  0  0  0  0  0  0  0  0  0  0  0
    8.0978   -0.3960   18.3018 H   0  0  0  0  0  0  0  0  0  0  0  0
    6.6546    0.0227   19.8567 C   0  0  0  0  0  0  0  0  0  0  0  0
    7.3769   -0.6963   20.9474 C   0  0  0  0  0  0  0  0  0  0  0  0
    6.7264   -1.6121   21.7419 C   0  0  0  0  0  0  0  0  0  0  0  0
    5.6662   -1.7971   21.5649 H   0  0  0  0  0  0  0  0  0  0  0  0
    7.3780   -2.3349   22.7927 C   0  0  0  0  0  0  0  0  0  0  0  0
    6.6352   -3.3355   23.5970 C   0  0  0  0  0  0  0  0  0  0  0  0
    5.7326   -4.2054   22.9604 C   0  0  0  0  0  0  0  0  0  0  0  0
    5.5973   -4.1475   21.8850 H   0  0  0  0  0  0  0  0  0  0  0  0
    5.0356   -5.1689   23.6715 C   0  0  0  0  0  0  0  0  0  0  0  0
    4.3621   -5.8657   23.1945 H   0  0  0  0  0  0  0  0  0  0  0  0
    5.2191   -5.2592   25.0524 C   0  0  0  0  0  0  0  0  0  0  0  0
    4.5198   -6.2146   25.7812 N   0  0  0  0  0  0  0  0  0  0  0  0
    4.3532   -6.0193   26.7486 H   0  0  0  0  0  0  0  0  0  0  0  0
    4.1297   -7.4498   25.3498 C   0  0  0  0  0  0  0  0  0  0  0  0
    4.4037   -7.9164   24.2629 O   0  0  0  0  0  0  0  0  0  0  0  0
    3.2816   -8.1268   26.3812 C   0  0  0  0  0  0  0  0  0  0  0  0
    2.4021   -7.5050   26.5594 H   0  0  0  0  0  0  0  0  0  0  0  0
    2.9820   -9.1074   26.0211 H   0  0  0  0  0  0  0  0  0  0  0  0
    3.8392   -8.2167   27.3173 H   0  0  0  0  0  0  0  0  0  0  0  0
    6.0864   -4.3921   25.7209 C   0  0  0  0  0  0  0  0  0  0  0  0
    6.2233   -4.4947   26.7934 H   0  0  0  0  0  0  0  0  0  0  0  0
    6.8014   -3.4455   24.9914 C   0  0  0  0  0  0  0  0  0  0  0  0
    7.4787   -2.7740   25.5113 H   0  0  0  0  0  0  0  0  0  0  0  0
    8.7060   -2.0938   23.0235 C   0  0  0  0  0  0  0  0  0  0  0  0
    9.2703   -2.6303   23.7904 H   0  0  0  0  0  0  0  0  0  0  0  0
    9.3648   -1.1819   22.2533 N   0  0  0  0  0  0  0  0  0  0  0  0
   10.3258   -0.9005   22.3815 H   0  0  0  0  0  0  0  0  0  0  0  0
    8.8098   -0.4253   21.2117 C   0  0  0  0  0  0  0  0  0  0  0  0
    9.5548    0.3661   20.6541 O   0  0  0  0  0  0  0  0  0  0  0  0
    5.4223    0.6569   20.0989 C   0  0  0  0  0  0  0  0  0  0  0  0
    4.9942    0.6482   21.1024 H   0  0  0  0  0  0  0  0  0  0  0  0
    4.7797    1.3270   19.0556 C   0  0  0  0  0  0  0  0  0  0  0  0
    3.8482    1.8621   19.2090 H   0  0  0  0  0  0  0  0  0  0  0  0
  1  2  1  0
  2  3  2  0
  3  4  1  0
  4  5  1  0
  4  6  2  0
  6  7  1  0
  7  8  2  0
  8  9  1  0
  8 10  1  0
 10 11  1  0
 11 12  2  0
 12 13  1  0
 12 14  1  0
 14 15  1  0
 14 16  2  0
 16 17  1  0
 17 18  1  0
 17 19  1  0
 19 20  2  0
 19 21  1  0
 21 22  1  0
 21 23  1  0
 21 24  1  0
 16 25  1  0
 25 26  1  0
 25 27  2  0
 27 28  1  0
 10 29  2  0
 29 30  1  0
 29 31  1  0
 31 32  1  0
 31 33  1  0
 33 34  2  0
  6 35  1  0
 35 36  1  0
 35 37  2  0
 37 38  1  0
 37  2  1  0
 33  7  1  0
 27 11  1  0
M  END
>  <cnnaffinity>  (1) 
-5.46324

>  <filename>  (1) 
CC(=O)Nc1ccc(-c2c[nH]c(=O)c(-c3cccnc3)c2)cc1

$$$$
