
     RDKit          3D

 35 36  0  0  0  0  0  0  0  0999 V2000
    8.8453   -0.4184   21.1688 C   0  0  0  0  0  0  0  0  0  0  0  0
    7.3777   -0.7380   20.9888 C   0  0  0  0  0  0  0  0  0  0  0  0
    6.7186   -1.6270   21.7548 C   0  0  0  0  0  0  0  0  0  0  0  0
    7.3265   -2.4434   22.8307 C   0  0  0  0  0  0  0  0  0  0  0  0
    8.5260   -2.4780   23.0831 O   0  0  0  0  0  0  0  0  0  0  0  0
    6.4406   -3.1959   23.5461 N   0  0  0  0  0  0  0  0  0  0  0  0
    6.9006   -4.0303   24.6547 C   0  0  0  0  0  0  0  0  0  0  0  0
    5.7471   -4.7227   25.3571 C   0  0  0  0  0  0  0  0  0  0  0  0
    5.4701   -6.0669   25.0673 C   0  0  0  0  0  0  0  0  0  0  0  0
    4.4468   -6.7631   25.7155 C   0  0  0  0  0  0  0  0  0  0  0  0
    3.6403   -6.1038   26.6443 C   0  0  0  0  0  0  0  0  0  0  0  0
    3.8737   -4.7526   26.9274 C   0  0  0  0  0  0  0  0  0  0  0  0
    2.8273   -3.9679   28.0623 Cl  0  0  0  0  0  0  0  0  0  0  0  0
    4.9239   -4.0613   26.2914 C   0  0  0  0  0  0  0  0  0  0  0  0
    5.2195   -2.3897   26.6457 Cl  0  0  0  0  0  0  0  0  0  0  0  0
    2.8125   -6.6012   27.1463 H   0  0  0  0  0  0  0  0  0  0  0  0
    4.2667   -7.8104   25.4912 H   0  0  0  0  0  0  0  0  0  0  0  0
    6.0743   -6.5322   24.2956 H   0  0  0  0  0  0  0  0  0  0  0  0
    7.4784   -3.4176   25.3596 H   0  0  0  0  0  0  0  0  0  0  0  0
    7.6108   -4.7734   24.2654 H   0  0  0  0  0  0  0  0  0  0  0  0
    5.4612   -3.1119   23.3431 H   0  0  0  0  0  0  0  0  0  0  0  0
    5.6582   -1.7838   21.5735 H   0  0  0  0  0  0  0  0  0  0  0  0
    6.6293   -0.0172   19.9139 C   0  0  0  0  0  0  0  0  0  0  0  0
    5.4100    0.6417   20.1475 C   0  0  0  0  0  0  0  0  0  0  0  0
    4.7941    1.3152   19.0920 C   0  0  0  0  0  0  0  0  0  0  0  0
    5.3958    1.2960   17.8293 C   0  0  0  0  0  0  0  0  0  0  0  0
    6.5572    0.6715   17.5806 N   0  0  0  0  0  0  0  0  0  0  0  0
    7.1524    0.0554   18.6085 C   0  0  0  0  0  0  0  0  0  0  0  0
    8.1099   -0.4154   18.3846 H   0  0  0  0  0  0  0  0  0  0  0  0
    4.9367    1.7996   16.9802 H   0  0  0  0  0  0  0  0  0  0  0  0
    3.8663    1.8537   19.2318 H   0  0  0  0  0  0  0  0  0  0  0  0
    4.9891    0.6470   21.1528 H   0  0  0  0  0  0  0  0  0  0  0  0
    9.0772   -0.1633   22.2093 H   0  0  0  0  0  0  0  0  0  0  0  0
    9.4816   -1.2808   20.9429 H   0  0  0  0  0  0  0  0  0  0  0  0
    9.1227    0.4206   20.5275 H   0  0  0  0  0  0  0  0  0  0  0  0
  1  2  1  0
  2  3  2  3
  3  4  1  0
  4  5  2  0
  4  6  1  0
  6  7  1  0
  7  8  1  0
  8  9  2  0
  9 10  1  0
 10 11  2  0
 11 12  1  0
 12 13  1  0
 12 14  2  0
 14 15  1  0
 11 16  1  0
 10 17  1  0
  9 18  1  0
  7 19  1  0
  7 20  1  0
  6 21  1  0
  3 22  1  0
  2 23  1  0
 23 24  2  0
 24 25  1  0
 25 26  2  0
 26 27  1  0
 27 28  2  0
 28 29  1  0
 26 30  1  0
 25 31  1  0
 24 32  1  0
  1 33  1  0
  1 34  1  0
  1 35  1  0
 14  8  1  0
 28 23  1  0
M  END
>  <cnnaffinity>  (1) 
-5.32508

>  <filename>  (1) 
CC(=CC(=O)NCc1cccc(Cl)c1Cl)c1cccnc1

$$$$
