
     RDKit          3D

 38 39  0  0  0  0  0  0  0  0999 V2000
    8.8634   -0.4300   21.1372 C   0  0  0  0  0  0  0  0  0  0  0  0
    7.3902   -0.7151   20.9745 C   0  0  0  0  0  0  0  0  0  0  0  0
    6.7424   -1.5964   21.7521 C   0  0  0  0  0  0  0  0  0  0  0  0
    7.3722   -2.4400   22.7840 C   0  0  0  0  0  0  0  0  0  0  0  0
    8.5722   -2.4871   23.0224 O   0  0  0  0  0  0  0  0  0  0  0  0
    6.4828   -3.2184   23.4652 N   0  0  0  0  0  0  0  0  0  0  0  0
    6.9058   -4.0247   24.5987 C   0  0  0  0  0  0  0  0  0  0  0  0
    5.7540   -4.8050   25.1968 C   0  0  0  0  0  0  0  0  0  0  0  0
    5.2077   -4.3748   26.4129 C   0  0  0  0  0  0  0  0  0  0  0  0
    4.2010   -5.1055   27.0482 C   0  0  0  0  0  0  0  0  0  0  0  0
    3.7142   -6.2731   26.4589 C   0  0  0  0  0  0  0  0  0  0  0  0
    4.2232   -6.6754   25.2187 C   0  0  0  0  0  0  0  0  0  0  0  0
    3.5414   -8.1296   24.5239 Cl  0  0  0  0  0  0  0  0  0  0  0  0
    5.2273   -5.9495   24.5464 C   0  0  0  0  0  0  0  0  0  0  0  0
    5.7168   -6.3468   23.1722 C   0  0  0  0  0  0  0  0  0  0  0  0
    5.3384   -5.6490   22.4176 H   0  0  0  0  0  0  0  0  0  0  0  0
    6.8132   -6.3144   23.1075 H   0  0  0  0  0  0  0  0  0  0  0  0
    5.3806   -7.3480   22.9120 H   0  0  0  0  0  0  0  0  0  0  0  0
    2.9555   -6.8838   26.9449 H   0  0  0  0  0  0  0  0  0  0  0  0
    3.8336   -4.7799   28.0203 H   0  0  0  0  0  0  0  0  0  0  0  0
    5.5864   -3.4534   26.8576 H   0  0  0  0  0  0  0  0  0  0  0  0
    7.3729   -3.3917   25.3645 H   0  0  0  0  0  0  0  0  0  0  0  0
    7.7019   -4.6984   24.2581 H   0  0  0  0  0  0  0  0  0  0  0  0
    5.5153   -2.9675   23.3683 H   0  0  0  0  0  0  0  0  0  0  0  0
    5.6806   -1.7575   21.5991 H   0  0  0  0  0  0  0  0  0  0  0  0
    6.6316   -0.0173   19.9046 C   0  0  0  0  0  0  0  0  0  0  0  0
    5.3956    0.6161   20.1232 C   0  0  0  0  0  0  0  0  0  0  0  0
    4.7971    1.2968   19.0634 C   0  0  0  0  0  0  0  0  0  0  0  0
    5.4276    1.2909   17.8131 C   0  0  0  0  0  0  0  0  0  0  0  0
    6.5850    0.6556   17.5717 N   0  0  0  0  0  0  0  0  0  0  0  0
    7.1621    0.0340   18.6044 C   0  0  0  0  0  0  0  0  0  0  0  0
    8.1035   -0.4748   18.3993 H   0  0  0  0  0  0  0  0  0  0  0  0
    4.9837    1.8121   16.9678 H   0  0  0  0  0  0  0  0  0  0  0  0
    3.8645    1.8357   19.1911 H   0  0  0  0  0  0  0  0  0  0  0  0
    4.9386    0.5955   21.1144 H   0  0  0  0  0  0  0  0  0  0  0  0
    9.0909   -0.1742   22.1784 H   0  0  0  0  0  0  0  0  0  0  0  0
    9.4524   -1.3283   20.9218 H   0  0  0  0  0  0  0  0  0  0  0  0
    9.1788    0.3916   20.4902 H   0  0  0  0  0  0  0  0  0  0  0  0
  1  2  1  0
  2  3  2  3
  3  4  1  0
  4  5  2  0
  4  6  1  0
  6  7  1  0
  7  8  1  0
  8  9  2  0
  9 10  1  0
 10 11  2  0
 11 12  1  0
 12 13  1  0
 12 14  2  0
 14 15  1  0
 15 16  1  0
 15 17  1  0
 15 18  1  0
 11 19  1  0
 10 20  1  0
  9 21  1  0
  7 22  1  0
  7 23  1  0
  6 24  1  0
  3 25  1  0
  2 26  1  0
 26 27  2  0
 27 28  1  0
 28 29  2  0
 29 30  1  0
 30 31  2  0
 31 32  1  0
 29 33  1  0
 28 34  1  0
 27 35  1  0
  1 36  1  0
  1 37  1  0
  1 38  1  0
 14  8  1  0
 31 26  1  0
M  END
>  <cnnaffinity>  (1) 
-5.15252

>  <filename>  (1) 
CC(=CC(=O)NCc1cccc(Cl)c1C)c1cccnc1

$$$$
