
     RDKit          3D

 35 36  0  0  0  0  0  0  0  0999 V2000
    7.5040    0.0368   22.4265 C   0  0  0  0  0  0  0  0  0  0  0  0
    7.0842   -0.5941   21.1252 C   0  0  0  0  0  0  0  0  0  0  0  0
    7.2044   -1.9116   20.9202 C   0  0  0  0  0  0  0  0  0  0  0  0
    7.7813   -2.9805   21.8758 C   0  0  0  0  0  0  0  0  0  0  0  0
    7.7781   -2.7993   23.0959 O   0  0  0  0  0  0  0  0  0  0  0  0
    8.2430   -4.0242   21.2336 N   0  0  0  0  0  0  0  0  0  0  0  0
    8.4128   -5.7105   23.4197 C   0  0  0  0  0  0  0  0  0  0  0  0
    8.1124   -5.8537   23.6415 C   0  0  0  0  0  0  0  0  0  0  0  0
    6.8675   -6.0513   22.8801 C   0  0  0  0  0  0  0  0  0  0  0  0
    5.7838   -6.0901   23.6963 C   0  0  0  0  0  0  0  0  0  0  0  0
    5.8865   -5.7248   25.0410 C   0  0  0  0  0  0  0  0  0  0  0  0
    7.0299   -5.1867   25.7073 C   0  0  0  0  0  0  0  0  0  0  0  0
    6.7448   -4.7089   27.3885 Cl  0  0  0  0  0  0  0  0  0  0  0  0
    8.2014   -5.0499   25.1126 C   0  0  0  0  0  0  0  0  0  0  0  0
    9.2704   -4.5836   25.8217 F   0  0  0  0  0  0  0  0  0  0  0  0
    4.9885   -5.7974   25.6555 H   0  0  0  0  0  0  0  0  0  0  0  0
    4.8080   -6.3868   23.3141 H   0  0  0  0  0  0  0  0  0  0  0  0
    6.7874   -6.5197   21.9042 H   0  0  0  0  0  0  0  0  0  0  0  0
    9.1525   -5.0951   22.8297 H   0  0  0  0  0  0  0  0  0  0  0  0
    9.0608   -6.8153   23.7403 H   0  0  0  0  0  0  0  0  0  0  0  0
    8.1147   -3.7643   20.2760 H   0  0  0  0  0  0  0  0  0  0  0  0
    6.8310   -2.3204   19.9862 H   0  0  0  0  0  0  0  0  0  0  0  0
    6.5259    0.2148   19.9937 C   0  0  0  0  0  0  0  0  0  0  0  0
    5.3799    1.0111   20.1360 C   0  0  0  0  0  0  0  0  0  0  0  0
    4.8494    1.6477   19.0121 C   0  0  0  0  0  0  0  0  0  0  0  0
    5.4995    1.5029   17.7837 C   0  0  0  0  0  0  0  0  0  0  0  0
    6.6071    0.7611   17.6246 N   0  0  0  0  0  0  0  0  0  0  0  0
    7.0874    0.1356   18.7050 C   0  0  0  0  0  0  0  0  0  0  0  0
    7.9808   -0.4609   18.5373 H   0  0  0  0  0  0  0  0  0  0  0  0
    5.1216    2.0053   16.8924 H   0  0  0  0  0  0  0  0  0  0  0  0
    3.9574    2.2601   19.0712 H   0  0  0  0  0  0  0  0  0  0  0  0
    4.9009    1.0935   21.1099 H   0  0  0  0  0  0  0  0  0  0  0  0
    7.1084   -0.5375   23.2716 H   0  0  0  0  0  0  0  0  0  0  0  0
    8.5975   -0.0022   22.5298 H   0  0  0  0  0  0  0  0  0  0  0  0
    7.1781    1.0786   22.4809 H   0  0  0  0  0  0  0  0  0  0  0  0
  1  2  1  0
  2  3  2  3
  3  4  1  0
  4  5  2  0
  4  6  1  0
  6  7  1  0
  7  8  1  0
  8  9  2  0
  9 10  1  0
 10 11  2  0
 11 12  1  0
 12 13  1  0
 12 14  2  0
 14 15  1  0
 11 16  1  0
 10 17  1  0
  9 18  1  0
  7 19  1  0
  7 20  1  0
  6 21  1  0
  3 22  1  0
  2 23  1  0
 23 24  2  0
 24 25  1  0
 25 26  2  0
 26 27  1  0
 27 28  2  0
 28 29  1  0
 26 30  1  0
 25 31  1  0
 24 32  1  0
  1 33  1  0
  1 34  1  0
  1 35  1  0
 14  8  1  0
 28 23  1  0
M  END
>  <cnnaffinity>  (1) 
-5.09943

>  <filename>  (1) 
CC(=CC(=O)NCc1cccc(Cl)c1F)c1cccnc1

$$$$
