
     RDKit          3D

 25 25  0  0  0  0  0  0  0  0999 V2000
    4.9939    1.7279   16.9671 H   0  0  0  0  0  0  0  0  0  0  0  0
    5.4573    1.2527   17.8287 C   0  0  0  0  0  0  0  0  0  0  0  0
    6.6342    0.6415   17.6061 N   0  0  0  0  0  0  0  0  0  0  0  0
    7.2395    0.0611   18.6524 C   0  0  0  0  0  0  0  0  0  0  0  0
    8.1870   -0.4348   18.4460 H   0  0  0  0  0  0  0  0  0  0  0  0
    6.6912    0.0576   19.9545 C   0  0  0  0  0  0  0  0  0  0  0  0
    7.4415   -0.5607   20.9832 O   0  0  0  0  0  0  0  0  0  0  0  0
    6.7204   -1.0690   22.3716 S   0  0  0  0  0  0  0  0  0  0  0  0
    5.9307   -2.2394   22.0664 O   0  0  0  0  0  0  0  0  0  0  0  0
    6.1796    0.0747   23.0739 O   0  0  0  0  0  0  0  0  0  0  0  0
    8.2729   -1.6545   23.2333 C   0  0  0  0  0  0  0  0  0  0  0  0
    7.9137   -1.6933   24.2623 H   0  0  0  0  0  0  0  0  0  0  0  0
    8.2980   -2.6598   22.8014 H   0  0  0  0  0  0  0  0  0  0  0  0
    9.6173   -1.0420   23.2213 N   0  0  0  0  0  0  0  0  0  0  0  0
    9.9740   -0.5610   24.0384 H   0  0  0  0  0  0  0  0  0  0  0  0
   10.5359   -1.1749   22.1953 C   0  0  0  0  0  0  0  0  0  0  0  0
   10.3947   -1.9666   21.2855 O   0  0  0  0  0  0  0  0  0  0  0  0
   11.7169   -0.2352   22.3105 C   0  0  0  0  0  0  0  0  0  0  0  0
   12.5054   -0.6811   22.9260 H   0  0  0  0  0  0  0  0  0  0  0  0
   11.4448    0.7427   22.7245 H   0  0  0  0  0  0  0  0  0  0  0  0
   12.1094   -0.0990   21.3072 H   0  0  0  0  0  0  0  0  0  0  0  0
    5.4704    0.6901   20.1835 C   0  0  0  0  0  0  0  0  0  0  0  0
    5.0319    0.7261   21.1772 H   0  0  0  0  0  0  0  0  0  0  0  0
    4.8444    1.2960   19.0837 C   0  0  0  0  0  0  0  0  0  0  0  0
    3.8993    1.8153   19.2058 H   0  0  0  0  0  0  0  0  0  0  0  0
  1  2  1  0
  2  3  2  0
  3  4  1  0
  4  5  1  0
  4  6  2  0
  6  7  1  0
  7  8  1  0
  8  9  2  0
  8 10  2  0
  8 11  1  0
 11 12  1  0
 11 13  1  0
 11 14  1  0
 14 15  1  0
 14 16  1  0
 16 17  2  0
 16 18  1  0
 18 19  1  0
 18 20  1  0
 18 21  1  0
  6 22  1  0
 22 23  1  0
 22 24  2  0
 24 25  1  0
 24  2  1  0
M  END
>  <cnnaffinity>  (1) 
-4.21583

>  <filename>  (1) 
CC(=O)NCS(=O)(=O)Oc1cccnc1

$$$$
