
     RDKit          3D

 37 39  0  0  0  0  0  0  0  0999 V2000
    4.9303    1.7932   16.9921 H   0  0  0  0  0  0  0  0  0  0  0  0
    5.4015    1.2961   17.8389 C   0  0  0  0  0  0  0  0  0  0  0  0
    6.5620    0.6715   17.5810 N   0  0  0  0  0  0  0  0  0  0  0  0
    7.1721    0.0523   18.5994 C   0  0  0  0  0  0  0  0  0  0  0  0
    8.1105   -0.4448   18.3614 H   0  0  0  0  0  0  0  0  0  0  0  0
    6.6620   -0.0056   19.9108 C   0  0  0  0  0  0  0  0  0  0  0  0
    7.3476   -0.7042   20.9595 N   0  0  0  0  0  0  0  0  0  0  0  0
    6.5724   -1.4352   21.8171 N   0  0  0  0  0  0  0  0  0  0  0  0
    7.1435   -2.0688   22.8138 C   0  0  0  0  0  0  0  0  0  0  0  0
    6.2347   -2.8431   23.7318 C   0  0  0  0  0  0  0  0  0  0  0  0
    5.1788   -3.5917   23.1814 C   0  0  0  0  0  0  0  0  0  0  0  0
    5.0328   -3.5650   22.1065 H   0  0  0  0  0  0  0  0  0  0  0  0
    4.3523   -4.3607   24.0060 C   0  0  0  0  0  0  0  0  0  0  0  0
    3.5277   -4.9315   23.5832 H   0  0  0  0  0  0  0  0  0  0  0  0
    4.5478   -4.3685   25.3893 C   0  0  0  0  0  0  0  0  0  0  0  0
    3.9072   -4.9331   26.0564 H   0  0  0  0  0  0  0  0  0  0  0  0
    5.5838   -3.6118   25.9528 C   0  0  0  0  0  0  0  0  0  0  0  0
    5.7891   -3.6328   27.3555 N   0  0  0  0  0  0  0  0  0  0  0  0
    6.7269   -3.5107   27.6932 H   0  0  0  0  0  0  0  0  0  0  0  0
    4.7888   -3.6865   28.2961 C   0  0  0  0  0  0  0  0  0  0  0  0
    3.6140   -3.5698   28.0134 O   0  0  0  0  0  0  0  0  0  0  0  0
    5.2342   -3.8933   29.7325 C   0  0  0  0  0  0  0  0  0  0  0  0
    4.3651   -4.2783   30.2659 H   0  0  0  0  0  0  0  0  0  0  0  0
    5.4973   -2.9403   30.2013 H   0  0  0  0  0  0  0  0  0  0  0  0
    6.0709   -4.5887   29.8570 H   0  0  0  0  0  0  0  0  0  0  0  0
    6.4385   -2.8738   25.1295 C   0  0  0  0  0  0  0  0  0  0  0  0
    7.2970   -2.3640   25.5572 H   0  0  0  0  0  0  0  0  0  0  0  0
    8.6369   -2.0820   23.0387 C   0  0  0  0  0  0  0  0  0  0  0  0
    9.2012   -2.7174   23.9225 O   0  0  0  0  0  0  0  0  0  0  0  0
    9.3745   -1.2600   22.0873 C   0  0  0  0  0  0  0  0  0  0  0  0
   10.4464   -1.2134   22.2128 H   0  0  0  0  0  0  0  0  0  0  0  0
    8.7142   -0.6147   21.1118 C   0  0  0  0  0  0  0  0  0  0  0  0
    9.2047    0.0346   20.3910 H   0  0  0  0  0  0  0  0  0  0  0  0
    5.4444    0.6394   20.1652 C   0  0  0  0  0  0  0  0  0  0  0  0
    5.0378    0.5867   21.1744 H   0  0  0  0  0  0  0  0  0  0  0  0
    4.8138    1.3104   19.1102 C   0  0  0  0  0  0  0  0  0  0  0  0
    3.8796    1.8411   19.2559 H   0  0  0  0  0  0  0  0  0  0  0  0
  1  2  1  0
  2  3  2  0
  3  4  1  0
  4  5  1  0
  4  6  2  0
  6  7  1  0
  7  8  1  0
  8  9  2  0
  9 10  1  0
 10 11  2  0
 11 12  1  0
 11 13  1  0
 13 14  1  0
 13 15  2  0
 15 16  1  0
 15 17  1  0
 17 18  1  0
 18 19  1  0
 18 20  1  0
 20 21  2  0
 20 22  1  0
 22 23  1  0
 22 24  1  0
 22 25  1  0
 17 26  2  0
 26 27  1  0
  9 28  1  0
 28 29  2  0
 28 30  1  0
 30 31  1  0
 30 32  2  0
 32 33  1  0
  6 34  1  0
 34 35  1  0
 34 36  2  0
 36 37  1  0
 36  2  1  0
 32  7  1  0
 26 10  1  0
M  END
>  <cnnaffinity>  (1) 
-5.42134

>  <filename>  (1) 
CC(=O)Nc1cccc(-c2nn(-c3cccnc3)ccc2=O)c1

$$$$
