
     RDKit          3D

 30 31  0  0  0  0  0  0  0  0999 V2000
    5.6522   -1.6956   21.5566 H   0  0  0  0  0  0  0  0  0  0  0  0
    6.7105   -1.5284   21.7720 C   0  0  0  0  0  0  0  0  0  0  0  0
    7.3885   -0.7049   20.9711 C   0  0  0  0  0  0  0  0  0  0  0  0
    6.6608    0.0191   19.8967 C   0  0  0  0  0  0  0  0  0  0  0  0
    7.1708    0.0796   18.5912 C   0  0  0  0  0  0  0  0  0  0  0  0
    8.1132   -0.4183   18.3752 H   0  0  0  0  0  0  0  0  0  0  0  0
    6.5618    0.6787   17.5606 N   0  0  0  0  0  0  0  0  0  0  0  0
    5.4009    1.2965   17.8309 C   0  0  0  0  0  0  0  0  0  0  0  0
    4.9132    1.7835   16.9910 H   0  0  0  0  0  0  0  0  0  0  0  0
    4.8034    1.3177   19.1006 C   0  0  0  0  0  0  0  0  0  0  0  0
    3.8676    1.8470   19.2559 H   0  0  0  0  0  0  0  0  0  0  0  0
    5.4323    0.6495   20.1487 C   0  0  0  0  0  0  0  0  0  0  0  0
    5.0140    0.6283   21.1615 H   0  0  0  0  0  0  0  0  0  0  0  0
    8.8738   -0.4655   21.0934 C   0  0  0  0  0  0  0  0  0  0  0  0
    9.1670    0.4605   20.5932 H   0  0  0  0  0  0  0  0  0  0  0  0
    9.4411   -1.2900   20.6473 H   0  0  0  0  0  0  0  0  0  0  0  0
    9.1742   -0.3922   22.1449 H   0  0  0  0  0  0  0  0  0  0  0  0
    7.3321   -2.3672   22.8538 C   0  0  1  0  0  0  0  0  0  0  0  0
    7.8772   -1.7094   23.5443 H   0  0  0  0  0  0  0  0  0  0  0  0
    6.3192   -3.1730   23.6722 C   0  0  0  0  0  0  0  0  0  0  0  0
    5.8402   -2.5704   24.4510 H   0  0  0  0  0  0  0  0  0  0  0  0
    5.5212   -3.5432   23.0148 H   0  0  0  0  0  0  0  0  0  0  0  0
    7.0499   -4.2964   24.2431 N   0  0  0  0  0  0  0  0  0  0  0  0
    7.4440   -4.0089   25.1341 H   0  0  0  0  0  0  0  0  0  0  0  0
    8.1448   -4.6311   23.3228 C   0  0  0  0  0  0  0  0  0  0  0  0
    7.9086   -5.5514   22.7733 H   0  0  0  0  0  0  0  0  0  0  0  0
    9.0597   -4.8276   23.8892 H   0  0  0  0  0  0  0  0  0  0  0  0
    8.3194   -3.4466   22.3500 C   0  0  0  0  0  0  0  0  0  0  0  0
    9.3516   -3.0856   22.3190 H   0  0  0  0  0  0  0  0  0  0  0  0
    8.0655   -3.7505   21.3288 H   0  0  0  0  0  0  0  0  0  0  0  0
  1  2  1  0
  2  3  2  3
  3  4  1  0
  4  5  2  0
  5  6  1  0
  5  7  1  0
  7  8  2  0
  8  9  1  0
  8 10  1  0
 10 11  1  0
 10 12  2  0
 12 13  1  0
  3 14  1  0
 14 15  1  0
 14 16  1  0
 14 17  1  0
  2 18  1  0
 18 19  1  1
 18 20  1  0
 20 21  1  0
 20 22  1  0
 20 23  1  0
 23 24  1  0
 23 25  1  0
 25 26  1  0
 25 27  1  0
 25 28  1  0
 28 29  1  0
 28 30  1  0
 12  4  1  0
 28 18  1  0
M  END
>  <cnnaffinity>  (1) 
-4.57003

>  <filename>  (1) 
CC(=C[C@@H]1CCNC1)c1cccnc1

$$$$
