
     RDKit          3D

 36 38  0  0  0  0  0  0  0  0999 V2000
    4.9227    1.7933   16.9942 H   0  0  0  0  0  0  0  0  0  0  0  0
    5.3941    1.2914   17.8350 C   0  0  0  0  0  0  0  0  0  0  0  0
    6.5506    0.6658   17.5682 N   0  0  0  0  0  0  0  0  0  0  0  0
    7.1702    0.0527   18.5816 C   0  0  0  0  0  0  0  0  0  0  0  0
    8.1274   -0.4179   18.3679 H   0  0  0  0  0  0  0  0  0  0  0  0
    6.6634    0.0058   19.8983 C   0  0  0  0  0  0  0  0  0  0  0  0
    7.3568   -0.6722   20.9378 N   0  0  0  0  0  0  0  0  0  0  0  0
    6.7613   -1.4422   21.9316 C   0  0  0  0  0  0  0  0  0  0  0  0
    5.6969   -1.6077   21.9554 H   0  0  0  0  0  0  0  0  0  0  0  0
    7.7247   -1.9369   22.7471 C   0  0  0  0  0  0  0  0  0  0  0  0
    7.6070   -2.7833   23.9426 C   0  0  0  0  0  0  0  0  0  0  0  0
    8.6731   -3.5594   24.4318 C   0  0  0  0  0  0  0  0  0  0  0  0
    9.6295   -3.5386   23.9169 H   0  0  0  0  0  0  0  0  0  0  0  0
    8.5021   -4.3620   25.5643 C   0  0  0  0  0  0  0  0  0  0  0  0
    9.3438   -4.9436   25.9372 H   0  0  0  0  0  0  0  0  0  0  0  0
    7.2621   -4.4115   26.2181 C   0  0  0  0  0  0  0  0  0  0  0  0
    7.1206   -5.0344   27.0979 H   0  0  0  0  0  0  0  0  0  0  0  0
    6.1882   -3.6663   25.7135 C   0  0  0  0  0  0  0  0  0  0  0  0
    4.9264   -3.7189   26.3503 N   0  0  0  0  0  0  0  0  0  0  0  0
    4.9115   -3.9003   27.3369 H   0  0  0  0  0  0  0  0  0  0  0  0
    3.7116   -3.6409   25.7150 C   0  0  0  0  0  0  0  0  0  0  0  0
    3.5974   -3.6777   24.5059 O   0  0  0  0  0  0  0  0  0  0  0  0
    2.5051   -3.5186   26.6298 C   0  0  0  0  0  0  0  0  0  0  0  0
    2.1742   -4.4979   26.9909 H   0  0  0  0  0  0  0  0  0  0  0  0
    2.6518   -2.8643   27.4980 H   0  0  0  0  0  0  0  0  0  0  0  0
    1.7008   -3.1156   26.0153 H   0  0  0  0  0  0  0  0  0  0  0  0
    6.3673   -2.8480   24.5982 C   0  0  0  0  0  0  0  0  0  0  0  0
    5.5207   -2.2667   24.2585 H   0  0  0  0  0  0  0  0  0  0  0  0
    8.9268   -1.4781   22.2246 N   0  0  0  0  0  0  0  0  0  0  0  0
    9.8666   -1.5613   22.5629 H   0  0  0  0  0  0  0  0  0  0  0  0
    8.7484   -0.6792   21.1332 C   0  0  0  0  0  0  0  0  0  0  0  0
    9.6340   -0.1295   20.5091 O   0  0  0  0  0  0  0  0  0  0  0  0
    5.4466    0.6441   20.1606 C   0  0  0  0  0  0  0  0  0  0  0  0
    5.0276    0.6374   21.1675 H   0  0  0  0  0  0  0  0  0  0  0  0
    4.8126    1.3060   19.1064 C   0  0  0  0  0  0  0  0  0  0  0  0
    3.8825    1.8353   19.2622 H   0  0  0  0  0  0  0  0  0  0  0  0
  1  2  1  0
  2  3  2  0
  3  4  1  0
  4  5  1  0
  4  6  2  0
  6  7  1  0
  7  8  1  0
  8  9  1  0
  8 10  2  0
 10 11  1  0
 11 12  2  0
 12 13  1  0
 12 14  1  0
 14 15  1  0
 14 16  2  0
 16 17  1  0
 16 18  1  0
 18 19  1  0
 19 20  1  0
 19 21  1  0
 21 22  2  0
 21 23  1  0
 23 24  1  0
 23 25  1  0
 23 26  1  0
 18 27  2  0
 27 28  1  0
 10 29  1  0
 29 30  1  0
 29 31  1  0
 31 32  2  0
  6 33  1  0
 33 34  1  0
 33 35  2  0
 35 36  1  0
 35  2  1  0
 31  7  1  0
 27 11  1  0
M  END
>  <cnnaffinity>  (1) 
-5.47209

>  <filename>  (1) 
CC(=O)Nc1cccc(-c2cn(-c3cccnc3)c(=O)[nH]2)c1

$$$$
