
     RDKit          3D

 37 39  0  0  0  0  0  0  0  0999 V2000
    4.8572    1.7553   16.8701 H   0  0  0  0  0  0  0  0  0  0  0  0
    5.3531    1.2783   17.7099 C   0  0  0  0  0  0  0  0  0  0  0  0
    6.4747    0.6046   17.4208 N   0  0  0  0  0  0  0  0  0  0  0  0
    7.1151    0.0235   18.4386 C   0  0  0  0  0  0  0  0  0  0  0  0
    8.0172   -0.5263   18.1696 H   0  0  0  0  0  0  0  0  0  0  0  0
    6.6941    0.0675   19.7964 C   0  0  0  0  0  0  0  0  0  0  0  0
    7.4606   -0.5357   20.9307 C   0  0  0  0  0  0  0  0  0  0  0  0
    7.1728   -0.0177   22.1242 N   0  0  0  0  0  0  0  0  0  0  0  0
    7.7354   -0.6680   23.2074 N   0  0  0  0  0  0  0  0  0  0  0  0
    7.8584    0.0136   24.4395 C   0  0  0  0  0  0  0  0  0  0  0  0
    8.9848   -0.2646   25.2429 C   0  0  0  0  0  0  0  0  0  0  0  0
    9.7180   -0.9796   24.8839 H   0  0  0  0  0  0  0  0  0  0  0  0
    9.1568    0.4051   26.4553 C   0  0  0  0  0  0  0  0  0  0  0  0
   10.0267    0.1867   27.0728 H   0  0  0  0  0  0  0  0  0  0  0  0
    8.2083    1.3338   26.8918 C   0  0  0  0  0  0  0  0  0  0  0  0
    8.3048    1.8647   27.8288 H   0  0  0  0  0  0  0  0  0  0  0  0
    7.0770    1.5794   26.1014 C   0  0  0  0  0  0  0  0  0  0  0  0
    6.0625    2.4560   26.5220 N   0  0  0  0  0  0  0  0  0  0  0  0
    5.3829    2.6894   25.8221 H   0  0  0  0  0  0  0  0  0  0  0  0
    5.7392    2.8180   27.8027 C   0  0  0  0  0  0  0  0  0  0  0  0
    6.4312    2.5829   28.7720 O   0  0  0  0  0  0  0  0  0  0  0  0
    4.4265    3.5594   27.8871 C   0  0  0  0  0  0  0  0  0  0  0  0
    4.4468    4.4371   27.2366 H   0  0  0  0  0  0  0  0  0  0  0  0
    4.2725    3.8694   28.9189 H   0  0  0  0  0  0  0  0  0  0  0  0
    3.5991    2.9169   27.5718 H   0  0  0  0  0  0  0  0  0  0  0  0
    6.9139    0.9592   24.8546 C   0  0  0  0  0  0  0  0  0  0  0  0
    6.0483    1.1821   24.2381 H   0  0  0  0  0  0  0  0  0  0  0  0
    8.1222   -1.9825   23.0125 C   0  0  0  0  0  0  0  0  0  0  0  0
    8.1814   -2.6255   23.8779 H   0  0  0  0  0  0  0  0  0  0  0  0
    8.4352   -2.4836   21.7592 C   0  0  0  0  0  0  0  0  0  0  0  0
    8.9819   -3.4137   21.6047 H   0  0  0  0  0  0  0  0  0  0  0  0
    8.6660   -1.4899   20.5605 C   0  0  0  0  0  0  0  0  0  0  0  0
    8.5966   -1.5037   20.5909 O   0  0  0  0  0  0  0  0  0  0  0  0
    5.4938    0.7660   20.0539 C   0  0  0  0  0  0  0  0  0  0  0  0
    5.1250    0.8146   21.0793 H   0  0  0  0  0  0  0  0  0  0  0  0
    4.8181    1.3682   18.9978 C   0  0  0  0  0  0  0  0  0  0  0  0
    3.9010    1.9174   19.1670 H   0  0  0  0  0  0  0  0  0  0  0  0
  1  2  1  0
  2  3  2  0
  3  4  1  0
  4  5  1  0
  4  6  2  0
  6  7  1  0
  7  8  2  0
  8  9  1  0
  9 10  1  0
 10 11  2  0
 11 12  1  0
 11 13  1  0
 13 14  1  0
 13 15  2  0
 15 16  1  0
 15 17  1  0
 17 18  1  0
 18 19  1  0
 18 20  1  0
 20 21  2  0
 20 22  1  0
 22 23  1  0
 22 24  1  0
 22 25  1  0
 17 26  2  0
 26 27  1  0
  9 28  1  0
 28 29  1  0
 28 30  2  0
 30 31  1  0
 30 32  1  0
 32 33  2  0
  6 34  1  0
 34 35  1  0
 34 36  2  0
 36 37  1  0
 36  2  1  0
 32  7  1  0
 26 10  1  0
M  END
>  <cnnaffinity>  (1) 
-5.41874

>  <filename>  (1) 
CC(=O)Nc1cccc(-n2ccc(=O)c(-c3cccnc3)n2)c1

$$$$
