
     RDKit          3D

 31 32  0  0  0  0  0  0  0  0999 V2000
    9.1689    0.2060   20.4915 H   0  0  0  0  0  0  0  0  0  0  0  0
    8.6679   -0.5040   21.1567 C   0  0  0  0  0  0  0  0  0  0  0  0
    7.3525   -0.7075   20.9854 C   0  0  0  0  0  0  0  0  0  0  0  0
    6.6297    0.0024   19.8837 C   0  0  0  0  0  0  0  0  0  0  0  0
    7.1502    0.0738   18.5720 C   0  0  0  0  0  0  0  0  0  0  0  0
    8.1000   -0.4035   18.3333 H   0  0  0  0  0  0  0  0  0  0  0  0
    6.5460    0.6886   17.5467 N   0  0  0  0  0  0  0  0  0  0  0  0
    5.3832    1.3130   17.7981 C   0  0  0  0  0  0  0  0  0  0  0  0
    4.9298    1.8284   16.9519 H   0  0  0  0  0  0  0  0  0  0  0  0
    4.7760    1.3252   19.0590 C   0  0  0  0  0  0  0  0  0  0  0  0
    3.8427    1.8651   19.2004 H   0  0  0  0  0  0  0  0  0  0  0  0
    5.4075    0.6558   20.1100 C   0  0  0  0  0  0  0  0  0  0  0  0
    4.9830    0.6446   21.1152 H   0  0  0  0  0  0  0  0  0  0  0  0
    6.5648   -1.6245   21.9008 C   0  0  0  0  0  0  0  0  0  0  0  0
    6.4196   -1.1913   22.9011 H   0  0  0  0  0  0  0  0  0  0  0  0
    7.0834   -2.5796   22.0563 H   0  0  0  0  0  0  0  0  0  0  0  0
    5.5817   -1.8455   21.4788 H   0  0  0  0  0  0  0  0  0  0  0  0
    9.4844   -1.1588   22.2667 C   0  0  0  0  0  0  0  0  0  0  0  0
    8.9881   -0.9645   23.2315 H   0  0  0  0  0  0  0  0  0  0  0  0
    9.4725   -2.2549   22.1417 H   0  0  0  0  0  0  0  0  0  0  0  0
   10.9235   -0.6812   22.3461 C   0  0  0  0  0  0  0  0  0  0  0  0
   11.9345   -1.3447   21.6343 C   0  0  0  0  0  0  0  0  0  0  0  0
   11.6540   -2.1756   20.9977 H   0  0  0  0  0  0  0  0  0  0  0  0
   13.2601   -0.8901   21.6655 C   0  0  0  0  0  0  0  0  0  0  0  0
   14.0211   -1.4040   21.0788 H   0  0  0  0  0  0  0  0  0  0  0  0
   13.5701    0.2933   22.3533 C   0  0  0  0  0  0  0  0  0  0  0  0
   14.5585    0.7399   22.3246 H   0  0  0  0  0  0  0  0  0  0  0  0
   12.5562    0.9715   23.0328 C   0  0  0  0  0  0  0  0  0  0  0  0
   12.8895    2.5187   23.7543 Cl  0  0  0  0  0  0  0  0  0  0  0  0
   11.2487    0.4861   23.0516 C   0  0  0  0  0  0  0  0  0  0  0  0
   10.4856    1.0495   23.5811 H   0  0  0  0  0  0  0  0  0  0  0  0
  1  2  1  0
  2  3  2  3
  3  4  1  0
  4  5  2  0
  5  6  1  0
  5  7  1  0
  7  8  2  0
  8  9  1  0
  8 10  1  0
 10 11  1  0
 10 12  2  0
 12 13  1  0
  3 14  1  0
 14 15  1  0
 14 16  1  0
 14 17  1  0
  2 18  1  0
 18 19  1  0
 18 20  1  0
 18 21  1  0
 21 22  2  0
 22 23  1  0
 22 24  1  0
 24 25  1  0
 24 26  2  0
 26 27  1  0
 26 28  1  0
 28 29  1  0
 28 30  2  0
 30 31  1  0
 12  4  1  0
 30 21  1  0
M  END
>  <cnnaffinity>  (1) 
-4.61087

>  <filename>  (1) 
CC(=CCc1cccc(Cl)c1)c1cccnc1

$$$$
