
     RDKit          3D

 32 33  0  0  0  0  0  0  0  0999 V2000
    8.6890   -1.9862   21.4249 H   0  0  0  0  0  0  0  0  0  0  0  0
    8.2952   -1.6019   20.5728 N   0  0  0  0  0  0  0  0  0  0  0  0
    7.3884   -0.7833   20.9057 C   0  0  0  0  0  0  0  0  0  0  0  0
    7.1019   -0.4072   22.6584 S   0  0  0  0  0  0  0  0  0  0  0  0
    8.2269    0.9853   22.7818 C   0  0  0  0  0  0  0  0  0  0  0  0
    9.5647    0.7517   23.1320 C   0  0  0  0  0  0  0  0  0  0  0  0
    9.8828   -0.2479   23.4047 H   0  0  0  0  0  0  0  0  0  0  0  0
   10.4829    1.8037   23.1407 C   0  0  0  0  0  0  0  0  0  0  0  0
   11.5250    1.6323   23.3903 H   0  0  0  0  0  0  0  0  0  0  0  0
   10.0615    3.0916   22.8333 C   0  0  0  0  0  0  0  0  0  0  0  0
   10.7333    3.9396   22.8293 H   0  0  0  0  0  0  0  0  0  0  0  0
    8.7186    3.3175   22.5119 C   0  0  0  0  0  0  0  0  0  0  0  0
    8.2793    4.6174   22.2391 N   0  0  0  0  0  0  0  0  0  0  0  0
    7.5715    4.7411   21.5375 H   0  0  0  0  0  0  0  0  0  0  0  0
    8.7822    5.7193   22.8660 C   0  0  0  0  0  0  0  0  0  0  0  0
    9.5024    5.6667   23.8458 O   0  0  0  0  0  0  0  0  0  0  0  0
    8.4169    7.0216   22.2479 C   0  0  0  0  0  0  0  0  0  0  0  0
    9.2673    7.6475   22.5048 H   0  0  0  0  0  0  0  0  0  0  0  0
    7.4952    7.3958   22.6973 H   0  0  0  0  0  0  0  0  0  0  0  0
    8.2955    6.9330   21.1695 H   0  0  0  0  0  0  0  0  0  0  0  0
    7.7986    2.2746   22.4579 C   0  0  0  0  0  0  0  0  0  0  0  0
    6.7695    2.5032   22.1861 H   0  0  0  0  0  0  0  0  0  0  0  0
    6.6278   -0.0249   19.8930 C   0  0  0  0  0  0  0  0  0  0  0  0
    7.1635    0.0249   18.5965 C   0  0  0  0  0  0  0  0  0  0  0  0
    8.1093   -0.4681   18.3882 H   0  0  0  0  0  0  0  0  0  0  0  0
    6.5784    0.6637   17.5809 N   0  0  0  0  0  0  0  0  0  0  0  0
    5.4215    1.2960   17.8297 C   0  0  0  0  0  0  0  0  0  0  0  0
    4.9667    1.8149   16.9880 H   0  0  0  0  0  0  0  0  0  0  0  0
    4.8040    1.3096   19.0849 C   0  0  0  0  0  0  0  0  0  0  0  0
    3.8739    1.8482   19.2296 H   0  0  0  0  0  0  0  0  0  0  0  0
    5.4226    0.6442   20.1417 C   0  0  0  0  0  0  0  0  0  0  0  0
    4.9796    0.6453   21.1385 H   0  0  0  0  0  0  0  0  0  0  0  0
  1  2  1  0
  2  3  2  3
  3  4  1  0
  4  5  1  0
  5  6  2  0
  6  7  1  0
  6  8  1  0
  8  9  1  0
  8 10  2  0
 10 11  1  0
 10 12  1  0
 12 13  1  0
 13 14  1  0
 13 15  1  0
 15 16  2  0
 15 17  1  0
 17 18  1  0
 17 19  1  0
 17 20  1  0
 12 21  2  0
 21 22  1  0
  3 23  1  0
 23 24  2  0
 24 25  1  0
 24 26  1  0
 26 27  2  0
 27 28  1  0
 27 29  1  0
 29 30  1  0
 29 31  2  0
 31 32  1  0
 21  5  1  0
 31 23  1  0
M  END
>  <cnnaffinity>  (1) 
-5.0611

>  <filename>  (1) 
CC(=O)Nc1cccc(SC(=N)c2cccnc2)c1

$$$$
