
     RDKit          3D

 38 40  0  0  0  0  0  0  0  0999 V2000
    4.9521    1.8035   16.9843 H   0  0  0  0  0  0  0  0  0  0  0  0
    5.4025    1.2805   17.8242 C   0  0  0  0  0  0  0  0  0  0  0  0
    6.5600    0.6448   17.5711 N   0  0  0  0  0  0  0  0  0  0  0  0
    7.1531    0.0219   18.5935 C   0  0  0  0  0  0  0  0  0  0  0  0
    8.1078   -0.4561   18.3648 H   0  0  0  0  0  0  0  0  0  0  0  0
    6.6403   -0.0008   19.9002 C   0  0  0  0  0  0  0  0  0  0  0  0
    7.3846   -0.6480   20.9872 C   0  0  0  0  0  0  0  0  0  0  0  0
    7.7210   -0.0563   22.1926 C   0  0  0  0  0  0  0  0  0  0  0  0
    7.4850    1.3970   22.4497 C   0  0  0  0  0  0  0  0  0  0  0  0
    8.0097    2.3847   21.5918 C   0  0  0  0  0  0  0  0  0  0  0  0
    8.5368    2.0676   20.6955 H   0  0  0  0  0  0  0  0  0  0  0  0
    7.8240    3.7413   21.8844 C   0  0  0  0  0  0  0  0  0  0  0  0
    8.2735    4.5148   21.2639 H   0  0  0  0  0  0  0  0  0  0  0  0
    7.0538    4.1188   22.9869 C   0  0  0  0  0  0  0  0  0  0  0  0
    6.8437    5.1639   23.1914 H   0  0  0  0  0  0  0  0  0  0  0  0
    6.5046    3.1371   23.8183 C   0  0  0  0  0  0  0  0  0  0  0  0
    5.7461    3.5301   24.9340 N   0  0  0  0  0  0  0  0  0  0  0  0
    5.9628    4.4156   25.3471 H   0  0  0  0  0  0  0  0  0  0  0  0
    4.6684    2.8554   25.4392 C   0  0  0  0  0  0  0  0  0  0  0  0
    4.1505    1.9140   24.8760 O   0  0  0  0  0  0  0  0  0  0  0  0
    4.1624    3.3765   26.7572 C   0  0  0  0  0  0  0  0  0  0  0  0
    3.6028    2.5648   27.2209 H   0  0  0  0  0  0  0  0  0  0  0  0
    4.9740    3.6932   27.4125 H   0  0  0  0  0  0  0  0  0  0  0  0
    3.5007    4.2273   26.5863 H   0  0  0  0  0  0  0  0  0  0  0  0
    6.7361    1.7851   23.5645 C   0  0  0  0  0  0  0  0  0  0  0  0
    6.3271    1.0497   24.2486 H   0  0  0  0  0  0  0  0  0  0  0  0
    8.3426   -0.8711   23.2059 C   0  0  0  0  0  0  0  0  0  0  0  0
    8.5839   -0.3911   24.1553 H   0  0  0  0  0  0  0  0  0  0  0  0
    8.6349   -2.1835   22.9855 C   0  0  0  0  0  0  0  0  0  0  0  0
    9.1105   -2.8327   23.7098 H   0  0  0  0  0  0  0  0  0  0  0  0
    8.2907   -2.8055   21.7125 C   0  0  0  0  0  0  0  0  0  0  0  0
    8.4147   -3.9789   21.4115 O   0  0  0  0  0  0  0  0  0  0  0  0
    7.7638   -1.9490   20.7638 N   0  0  0  0  0  0  0  0  0  0  0  0
    7.4806   -2.4736   19.9497 H   0  0  0  0  0  0  0  0  0  0  0  0
    5.4215    0.6589   20.1427 C   0  0  0  0  0  0  0  0  0  0  0  0
    5.0048    0.6702   21.1545 H   0  0  0  0  0  0  0  0  0  0  0  0
    4.7888    1.3015   19.0800 C   0  0  0  0  0  0  0  0  0  0  0  0
    3.8605    1.8474   19.2190 H   0  0  0  0  0  0  0  0  0  0  0  0
  1  2  1  0
  2  3  2  0
  3  4  1  0
  4  5  1  0
  4  6  2  0
  6  7  1  0
  7  8  2  0
  8  9  1  0
  9 10  2  0
 10 11  1  0
 10 12  1  0
 12 13  1  0
 12 14  2  0
 14 15  1  0
 14 16  1  0
 16 17  1  0
 17 18  1  0
 17 19  1  0
 19 20  2  0
 19 21  1  0
 21 22  1  0
 21 23  1  0
 21 24  1  0
 16 25  2  0
 25 26  1  0
  8 27  1  0
 27 28  1  0
 27 29  2  0
 29 30  1  0
 29 31  1  0
 31 32  2  0
 31 33  1  0
 33 34  1  0
  6 35  1  0
 35 36  1  0
 35 37  2  0
 37 38  1  0
 37  2  1  0
 33  7  1  0
 25  9  1  0
M  END
>  <cnnaffinity>  (1) 
-5.23058

>  <filename>  (1) 
CC(=O)Nc1cccc(-c2ccc(=O)[nH]c2-c2cccnc2)c1

$$$$
