
     RDKit          3D

 40 42  0  0  0  0  0  0  0  0999 V2000
    5.0176    1.7918   16.9908 H   0  0  0  0  0  0  0  0  0  0  0  0
    5.4413    1.2393   17.8282 C   0  0  0  0  0  0  0  0  0  0  0  0
    6.5770    0.5690   17.5882 N   0  0  0  0  0  0  0  0  0  0  0  0
    7.1428   -0.0705   18.6214 C   0  0  0  0  0  0  0  0  0  0  0  0
    8.0828   -0.5756   18.4023 H   0  0  0  0  0  0  0  0  0  0  0  0
    6.6358   -0.0816   19.9286 C   0  0  0  0  0  0  0  0  0  0  0  0
    7.3658   -0.8519   21.0121 C   0  0  0  0  0  0  0  0  0  0  0  0
    6.9271   -2.2456   20.9179 N   0  0  0  0  0  0  0  0  0  0  0  0
    6.1446   -2.3437   20.2955 H   0  0  0  0  0  0  0  0  0  0  0  0
    6.7319   -3.0724   22.0374 C   0  0  0  0  0  0  0  0  0  0  0  0
    5.4351   -3.5709   22.2565 C   0  0  0  0  0  0  0  0  0  0  0  0
    4.6358   -3.2597   21.5911 H   0  0  0  0  0  0  0  0  0  0  0  0
    5.1696   -4.3961   23.3490 C   0  0  0  0  0  0  0  0  0  0  0  0
    4.1641   -4.7714   23.5256 H   0  0  0  0  0  0  0  0  0  0  0  0
    6.1876   -4.7309   24.2399 C   0  0  0  0  0  0  0  0  0  0  0  0
    6.0057   -5.3301   25.1228 H   0  0  0  0  0  0  0  0  0  0  0  0
    7.4775   -4.2437   24.0126 C   0  0  0  0  0  0  0  0  0  0  0  0
    8.5119   -4.5779   24.8951 N   0  0  0  0  0  0  0  0  0  0  0  0
    9.4405   -4.6361   24.5170 H   0  0  0  0  0  0  0  0  0  0  0  0
    8.3692   -4.7894   26.2411 C   0  0  0  0  0  0  0  0  0  0  0  0
    7.3414   -4.5695   26.8491 O   0  0  0  0  0  0  0  0  0  0  0  0
    9.6275   -5.3023   26.8884 C   0  0  0  0  0  0  0  0  0  0  0  0
   10.3198   -4.4725   27.0480 H   0  0  0  0  0  0  0  0  0  0  0  0
    9.3607   -5.7280   27.8534 H   0  0  0  0  0  0  0  0  0  0  0  0
   10.1078   -6.0600   26.2611 H   0  0  0  0  0  0  0  0  0  0  0  0
    7.7629   -3.4335   22.9087 C   0  0  0  0  0  0  0  0  0  0  0  0
    8.7585   -3.0327   22.7682 H   0  0  0  0  0  0  0  0  0  0  0  0
    8.9187   -0.7318   21.0194 C   0  0  0  0  0  0  0  0  0  0  0  0
    9.4317   -1.6923   20.9145 H   0  0  0  0  0  0  0  0  0  0  0  0
    9.3098   -0.0316   20.2769 H   0  0  0  0  0  0  0  0  0  0  0  0
    8.8942   -0.1364   22.4463 C   0  0  0  0  0  0  0  0  0  0  0  0
    9.3397    0.8618   22.5308 H   0  0  0  0  0  0  0  0  0  0  0  0
    9.3430   -0.7704   23.2198 H   0  0  0  0  0  0  0  0  0  0  0  0
    7.3466   -0.1573   22.4126 C   0  0  0  0  0  0  0  0  0  0  0  0
    6.8311   -0.7129   23.2026 H   0  0  0  0  0  0  0  0  0  0  0  0
    6.9339    0.8521   22.3629 H   0  0  0  0  0  0  0  0  0  0  0  0
    5.4204    0.5935   20.1460 C   0  0  0  0  0  0  0  0  0  0  0  0
    4.9605    0.6081   21.1372 H   0  0  0  0  0  0  0  0  0  0  0  0
    4.8203    1.2649   19.0809 C   0  0  0  0  0  0  0  0  0  0  0  0
    3.9053    1.8294   19.2140 H   0  0  0  0  0  0  0  0  0  0  0  0
  1  2  1  0
  2  3  2  0
  3  4  1  0
  4  5  1  0
  4  6  2  0
  6  7  1  0
  7  8  1  0
  8  9  1  0
  8 10  1  0
 10 11  2  0
 11 12  1  0
 11 13  1  0
 13 14  1  0
 13 15  2  0
 15 16  1  0
 15 17  1  0
 17 18  1  0
 18 19  1  0
 18 20  1  0
 20 21  2  0
 20 22  1  0
 22 23  1  0
 22 24  1  0
 22 25  1  0
 17 26  2  0
 26 27  1  0
  7 28  1  0
 28 29  1  0
 28 30  1  0
 28 31  1  0
 31 32  1  0
 31 33  1  0
 31 34  1  0
 34 35  1  0
 34 36  1  0
  6 37  1  0
 37 38  1  0
 37 39  2  0
 39 40  1  0
 39  2  1  0
 34  7  1  0
 26 10  1  0
M  END
>  <cnnaffinity>  (1) 
-5.13253

>  <filename>  (1) 
CC(=O)Nc1cccc(NC2(c3cccnc3)CCC2)c1

$$$$
