
     RDKit          3D

 32 34  0  0  0  0  0  0  0  0999 V2000
    4.9826    1.8420   16.9312 H   0  0  0  0  0  0  0  0  0  0  0  0
    5.4182    1.2972   17.7643 C   0  0  0  0  0  0  0  0  0  0  0  0
    6.5661    0.6506   17.5097 N   0  0  0  0  0  0  0  0  0  0  0  0
    7.1427   -0.0007   18.5244 C   0  0  0  0  0  0  0  0  0  0  0  0
    8.0864   -0.4981   18.3038 H   0  0  0  0  0  0  0  0  0  0  0  0
    6.6125   -0.0423   19.8303 C   0  0  0  0  0  0  0  0  0  0  0  0
    7.3612   -0.6738   20.9311 C   0  0  0  0  0  0  0  0  0  0  0  0
    8.4946   -1.3546   20.6958 N   0  0  0  0  0  0  0  0  0  0  0  0
    8.9299   -1.6498   21.9436 N   0  0  0  0  0  0  0  0  0  0  0  0
   10.0968   -2.1648   22.4984 C   0  0  0  0  0  0  0  0  0  0  0  0
   10.8497   -2.5959   21.8638 H   0  0  0  0  0  0  0  0  0  0  0  0
    9.9910   -1.9894   23.8389 C   0  0  0  0  0  0  0  0  0  0  0  0
   10.7146   -2.1719   24.6201 H   0  0  0  0  0  0  0  0  0  0  0  0
    8.7611   -1.3842   24.1274 N   0  0  0  0  0  0  0  0  0  0  0  0
    8.3662   -0.7286   25.3576 C   0  0  0  0  0  0  0  0  0  0  0  0
    7.3243   -0.9889   25.5651 H   0  0  0  0  0  0  0  0  0  0  0  0
    8.9819   -1.1021   26.1792 H   0  0  0  0  0  0  0  0  0  0  0  0
    8.4847    0.7262   25.3494 N   0  0  0  0  0  0  0  0  0  0  0  0
    7.7367    1.2238   24.8878 H   0  0  0  0  0  0  0  0  0  0  0  0
    9.7256    1.2960   25.1438 C   0  0  0  0  0  0  0  0  0  0  0  0
   10.7638    0.6777   25.2721 O   0  0  0  0  0  0  0  0  0  0  0  0
    9.6417    2.7644   24.8064 C   0  0  0  0  0  0  0  0  0  0  0  0
   10.6292    3.1425   24.5418 H   0  0  0  0  0  0  0  0  0  0  0  0
    9.2848    3.2944   25.6955 H   0  0  0  0  0  0  0  0  0  0  0  0
    8.9465    2.9474   23.9777 H   0  0  0  0  0  0  0  0  0  0  0  0
    8.1251   -1.1842   22.9185 C   0  0  0  0  0  0  0  0  0  0  0  0
    7.0584   -0.5552   22.3112 C   0  0  0  0  0  0  0  0  0  0  0  0
    6.2031   -0.0860   22.7635 H   0  0  0  0  0  0  0  0  0  0  0  0
    5.3946    0.6171   20.0687 C   0  0  0  0  0  0  0  0  0  0  0  0
    4.9421    0.6321   21.0637 H   0  0  0  0  0  0  0  0  0  0  0  0
    4.7938    1.2979   19.0164 C   0  0  0  0  0  0  0  0  0  0  0  0
    3.8766    1.8541   19.1610 H   0  0  0  0  0  0  0  0  0  0  0  0
  1  2  1  0
  2  3  2  0
  3  4  1  0
  4  5  1  0
  4  6  2  0
  6  7  1  0
  7  8  2  0
  8  9  1  0
  9 10  1  0
 10 11  1  0
 10 12  2  0
 12 13  1  0
 12 14  1  0
 14 15  1  0
 15 16  1  0
 15 17  1  0
 15 18  1  0
 18 19  1  0
 18 20  1  0
 20 21  2  0
 20 22  1  0
 22 23  1  0
 22 24  1  0
 22 25  1  0
 14 26  1  0
 26 27  2  0
 27 28  1  0
  6 29  1  0
 29 30  1  0
 29 31  2  0
 31 32  1  0
 31  2  1  0
 27  7  1  0
 26  9  1  0
M  END
>  <cnnaffinity>  (1) 
-5.1068

>  <filename>  (1) 
CC(=O)NCn1ccn2nc(-c3cccnc3)cc12

$$$$
