
     RDKit          3D

 36 38  0  0  0  0  0  0  0  0999 V2000
    4.9355    1.7955   16.9874 H   0  0  0  0  0  0  0  0  0  0  0  0
    5.3986    1.2867   17.8322 C   0  0  0  0  0  0  0  0  0  0  0  0
    6.5617    0.6629   17.5802 N   0  0  0  0  0  0  0  0  0  0  0  0
    7.1556    0.0272   18.5944 C   0  0  0  0  0  0  0  0  0  0  0  0
    8.1184   -0.4354   18.3601 H   0  0  0  0  0  0  0  0  0  0  0  0
    6.6374   -0.0158   19.8979 C   0  0  0  0  0  0  0  0  0  0  0  0
    7.3778   -0.6643   20.9824 C   0  0  0  0  0  0  0  0  0  0  0  0
    7.7189   -0.0641   22.1796 C   0  0  0  0  0  0  0  0  0  0  0  0
    7.4899    1.3917   22.4255 C   0  0  0  0  0  0  0  0  0  0  0  0
    8.0093    2.3654   21.5491 C   0  0  0  0  0  0  0  0  0  0  0  0
    8.5469    2.0294   20.6649 H   0  0  0  0  0  0  0  0  0  0  0  0
    7.8176    3.7210   21.8284 C   0  0  0  0  0  0  0  0  0  0  0  0
    8.2531    4.5037   21.2131 H   0  0  0  0  0  0  0  0  0  0  0  0
    7.0498    4.1148   22.9234 C   0  0  0  0  0  0  0  0  0  0  0  0
    6.8769    5.1791   23.0650 H   0  0  0  0  0  0  0  0  0  0  0  0
    6.5162    3.1611   23.8078 C   0  0  0  0  0  0  0  0  0  0  0  0
    5.7304    3.5517   25.0360 C   0  0  0  0  0  0  0  0  0  0  0  0
    5.3057    2.7120   25.8073 O   0  0  0  0  0  0  0  0  0  0  0  0
    5.4807    5.0237   25.2984 C   0  0  0  0  0  0  0  0  0  0  0  0
    4.9004    5.1112   26.2176 H   0  0  0  0  0  0  0  0  0  0  0  0
    4.9330    5.4758   24.4640 H   0  0  0  0  0  0  0  0  0  0  0  0
    6.4268    5.5678   25.3994 H   0  0  0  0  0  0  0  0  0  0  0  0
    6.7622    1.8002   23.5482 C   0  0  0  0  0  0  0  0  0  0  0  0
    6.3841    1.0480   24.2385 H   0  0  0  0  0  0  0  0  0  0  0  0
    8.3457   -0.8708   23.1923 C   0  0  0  0  0  0  0  0  0  0  0  0
    8.5895   -0.3717   24.1314 H   0  0  0  0  0  0  0  0  0  0  0  0
    8.6382   -2.1834   22.9809 C   0  0  0  0  0  0  0  0  0  0  0  0
    9.1151   -2.8266   23.7109 H   0  0  0  0  0  0  0  0  0  0  0  0
    8.2960   -2.8164   21.7125 C   0  0  0  0  0  0  0  0  0  0  0  0
    8.4440   -3.9873   21.4061 O   0  0  0  0  0  0  0  0  0  0  0  0
    7.7393   -1.9694   20.7737 N   0  0  0  0  0  0  0  0  0  0  0  0
    7.4737   -2.4861   19.9510 H   0  0  0  0  0  0  0  0  0  0  0  0
    5.4248    0.6450   20.1489 C   0  0  0  0  0  0  0  0  0  0  0  0
    5.0159    0.6537   21.1612 H   0  0  0  0  0  0  0  0  0  0  0  0
    4.7980    1.3015   19.0936 C   0  0  0  0  0  0  0  0  0  0  0  0
    3.8731    1.8433   19.2352 H   0  0  0  0  0  0  0  0  0  0  0  0
  1  2  1  0
  2  3  2  0
  3  4  1  0
  4  5  1  0
  4  6  2  0
  6  7  1  0
  7  8  2  0
  8  9  1  0
  9 10  2  0
 10 11  1  0
 10 12  1  0
 12 13  1  0
 12 14  2  0
 14 15  1  0
 14 16  1  0
 16 17  1  0
 17 18  2  0
 17 19  1  0
 19 20  1  0
 19 21  1  0
 19 22  1  0
 16 23  2  0
 23 24  1  0
  8 25  1  0
 25 26  1  0
 25 27  2  0
 27 28  1  0
 27 29  1  0
 29 30  2  0
 29 31  1  0
 31 32  1  0
  6 33  1  0
 33 34  1  0
 33 35  2  0
 35 36  1  0
 35  2  1  0
 31  7  1  0
 23  9  1  0
M  END
>  <cnnaffinity>  (1) 
-5.23879

>  <filename>  (1) 
CC(=O)c1cccc(-c2ccc(=O)[nH]c2-c2cccnc2)c1

$$$$
