
     RDKit          3D

 46 49  0  0  0  0  0  0  0  0999 V2000
   11.3377    0.1358   23.8181 C   0  0  0  0  0  0  0  0  0  0  0  0
   11.4260    1.6157   23.4026 C   0  0  0  0  0  0  0  0  0  0  0  0
   12.5736    1.8626   22.4067 C   0  0  0  0  0  0  0  0  0  0  0  0
   12.6548    2.9258   22.1599 H   0  0  0  0  0  0  0  0  0  0  0  0
   13.5306    1.5412   22.8323 H   0  0  0  0  0  0  0  0  0  0  0  0
   12.4234    1.3196   21.4678 H   0  0  0  0  0  0  0  0  0  0  0  0
   10.1283    2.2158   22.9148 C   0  0  0  0  0  0  0  0  0  0  0  0
    9.5752    3.2719   23.4649 N   0  0  0  0  0  0  0  0  0  0  0  0
    8.4498    3.5365   22.7313 C   0  0  0  0  0  0  0  0  0  0  0  0
    8.3086    2.6256   21.7277 C   0  0  0  0  0  0  0  0  0  0  0  0
    9.3993    1.7803   21.8281 N   0  0  0  0  0  0  0  0  0  0  0  0
    9.5390    0.5826   21.0012 C   0  0  0  0  0  0  0  0  0  0  0  0
    8.6134   -0.5224   21.4210 C   0  0  0  0  0  0  0  0  0  0  0  0
    8.8370   -1.3919   22.3812 N   0  0  0  0  0  0  0  0  0  0  0  0
    7.6505   -2.0454   22.5153 C   0  0  0  0  0  0  0  0  0  0  0  0
    7.4363   -3.0847   23.5431 C   0  0  0  0  0  0  0  0  0  0  0  0
    8.4539   -3.4222   24.4601 C   0  0  0  0  0  0  0  0  0  0  0  0
    8.2455   -4.4052   25.4265 C   0  0  0  0  0  0  0  0  0  0  0  0
    7.0084   -5.0443   25.4658 C   0  0  0  0  0  0  0  0  0  0  0  0
    6.7974   -5.9913   26.3897 F   0  0  0  0  0  0  0  0  0  0  0  0
    5.9780   -4.7374   24.5799 C   0  0  0  0  0  0  0  0  0  0  0  0
    6.1967   -3.7535   23.6205 C   0  0  0  0  0  0  0  0  0  0  0  0
    5.4052   -3.4884   22.9232 H   0  0  0  0  0  0  0  0  0  0  0  0
    5.0324   -5.2639   24.6583 H   0  0  0  0  0  0  0  0  0  0  0  0
    9.0106   -4.6873   26.1447 H   0  0  0  0  0  0  0  0  0  0  0  0
    9.4177   -2.9192   24.4235 H   0  0  0  0  0  0  0  0  0  0  0  0
    6.7221   -1.6456   21.6611 N   0  0  0  0  0  0  0  0  0  0  0  0
    7.3479   -0.6851   20.9385 N   0  0  0  0  0  0  0  0  0  0  0  0
    6.6550    0.0045   19.9017 C   0  0  0  0  0  0  0  0  0  0  0  0
    5.4377    0.6412   20.1661 C   0  0  0  0  0  0  0  0  0  0  0  0
    4.8105    1.3090   19.1084 C   0  0  0  0  0  0  0  0  0  0  0  0
    5.4011    1.2960   17.8377 C   0  0  0  0  0  0  0  0  0  0  0  0
    6.5587    0.6718   17.5778 N   0  0  0  0  0  0  0  0  0  0  0  0
    7.1677    0.0496   18.5926 C   0  0  0  0  0  0  0  0  0  0  0  0
    8.1109   -0.4386   18.3621 H   0  0  0  0  0  0  0  0  0  0  0  0
    4.9217    1.7872   16.9932 H   0  0  0  0  0  0  0  0  0  0  0  0
    3.8791    1.8401   19.2590 H   0  0  0  0  0  0  0  0  0  0  0  0
    5.0170    0.6124   21.1765 H   0  0  0  0  0  0  0  0  0  0  0  0
   10.5630    0.2116   21.0493 H   0  0  0  0  0  0  0  0  0  0  0  0
    9.3521    0.8721   19.9661 H   0  0  0  0  0  0  0  0  0  0  0  0
    7.5438    2.4782   20.9748 H   0  0  0  0  0  0  0  0  0  0  0  0
    7.8177    4.3819   22.9722 H   0  0  0  0  0  0  0  0  0  0  0  0
   11.6390    2.1973   24.3083 H   0  0  0  0  0  0  0  0  0  0  0  0
   10.4232   -0.0611   24.3865 H   0  0  0  0  0  0  0  0  0  0  0  0
   12.1933   -0.1267   24.4505 H   0  0  0  0  0  0  0  0  0  0  0  0
   11.3322   -0.5501   22.9644 H   0  0  0  0  0  0  0  0  0  0  0  0
  1  2  1  0
  2  3  1  0
  3  4  1  0
  3  5  1  0
  3  6  1  0
  2  7  1  0
  7  8  2  0
  8  9  1  0
  9 10  2  0
 10 11  1  0
 11 12  1  0
 12 13  1  0
 13 14  2  0
 14 15  1  0
 15 16  1  0
 16 17  2  0
 17 18  1  0
 18 19  2  0
 19 20  1  0
 19 21  1  0
 21 22  2  0
 22 23  1  0
 21 24  1  0
 18 25  1  0
 17 26  1  0
 15 27  2  0
 27 28  1  0
 28 29  1  0
 29 30  2  0
 30 31  1  0
 31 32  2  0
 32 33  1  0
 33 34  2  0
 34 35  1  0
 32 36  1  0
 31 37  1  0
 30 38  1  0
 12 39  1  0
 12 40  1  0
 10 41  1  0
  9 42  1  0
  2 43  1  0
  1 44  1  0
  1 45  1  0
  1 46  1  0
 11  7  1  0
 28 13  1  0
 34 29  1  0
 22 16  1  0
M  END
>  <cnnaffinity>  (1) 
-6.42374

>  <filename>  (1) 
CC(C)c1nccn1Cc1nc(-c2ccc(F)cc2)nn1-c1cccnc1

$$$$
