
     RDKit          3D

 47 50  0  0  0  0  0  0  0  0999 V2000
    6.9165    2.7682   25.1450 C   0  0  0  0  0  0  0  0  0  0  0  0
    7.8938    1.8185   24.4312 C   0  0  0  0  0  0  0  0  0  0  0  0
    7.7872    1.9805   22.8899 C   0  0  0  0  0  0  0  0  0  0  0  0
    9.0097    1.3920   22.0883 C   0  0  0  0  0  0  0  0  0  0  0  0
    9.9876    2.1153   21.8701 N   0  0  0  0  0  0  0  0  0  0  0  0
   11.2393   -0.4113   21.0910 C   0  0  0  0  0  0  0  0  0  0  0  0
   11.2460   -0.4393   21.2736 C   0  0  0  0  0  0  0  0  0  0  0  0
   12.5497    0.6879   22.3066 C   0  0  0  0  0  0  0  0  0  0  0  0
   13.7945    0.2558   22.5257 C   0  0  0  0  0  0  0  0  0  0  0  0
   14.2678   -1.0229   22.2103 N   0  0  0  0  0  0  0  0  0  0  0  0
   13.5192   -2.0115   21.8706 C   0  0  0  0  0  0  0  0  0  0  0  0
   12.0143   -2.0140   21.8168 C   0  0  0  0  0  0  0  0  0  0  0  0
   11.5109   -2.4894   22.7006 H   0  0  0  0  0  0  0  0  0  0  0  0
   14.0479   -2.9196   21.5585 H   0  0  0  0  0  0  0  0  0  0  0  0
   14.5743    0.9179   22.8965 H   0  0  0  0  0  0  0  0  0  0  0  0
   12.1300    1.6480   22.5858 H   0  0  0  0  0  0  0  0  0  0  0  0
    9.8629   -0.3967   20.6796 N   0  0  0  0  0  0  0  0  0  0  0  0
    8.8813    0.0008   21.6341 N   0  0  0  0  0  0  0  0  0  0  0  0
    7.5888   -0.5697   21.2395 C   0  0  0  0  0  0  0  0  0  0  0  0
    6.8860    0.1053   20.0789 C   0  0  0  0  0  0  0  0  0  0  0  0
    5.5646    0.5592   20.1424 C   0  0  0  0  0  0  0  0  0  0  0  0
    4.9926    1.1272   18.9990 C   0  0  0  0  0  0  0  0  0  0  0  0
    5.7667    1.2193   17.8379 C   0  0  0  0  0  0  0  0  0  0  0  0
    7.0338    0.7808   17.7531 N   0  0  0  0  0  0  0  0  0  0  0  0
    7.5741    0.2543   18.8577 C   0  0  0  0  0  0  0  0  0  0  0  0
    8.6165   -0.0700   18.8141 H   0  0  0  0  0  0  0  0  0  0  0  0
    5.3519    1.6585   16.9298 H   0  0  0  0  0  0  0  0  0  0  0  0
    3.9752    1.5089   18.9952 H   0  0  0  0  0  0  0  0  0  0  0  0
    4.9824    0.4773   21.0640 H   0  0  0  0  0  0  0  0  0  0  0  0
    7.8332   -1.6058   20.9782 H   0  0  0  0  0  0  0  0  0  0  0  0
    6.9536   -0.6167   22.1286 H   0  0  0  0  0  0  0  0  0  0  0  0
    7.7845    3.0522   22.6502 H   0  0  0  0  0  0  0  0  0  0  0  0
    6.8306    1.5808   22.5382 H   0  0  0  0  0  0  0  0  0  0  0  0
    7.6897    0.3716   24.8461 C   0  0  0  0  0  0  0  0  0  0  0  0
    8.7579   -0.4440   25.2504 C   0  0  0  0  0  0  0  0  0  0  0  0
    8.5254   -1.7895   25.5465 C   0  0  0  0  0  0  0  0  0  0  0  0
    7.2227   -2.2810   25.4263 C   0  0  0  0  0  0  0  0  0  0  0  0
    6.1863   -1.5242   25.0483 N   0  0  0  0  0  0  0  0  0  0  0  0
    6.4219   -0.2327   24.7744 C   0  0  0  0  0  0  0  0  0  0  0  0
    5.5442    0.3439   24.4706 H   0  0  0  0  0  0  0  0  0  0  0  0
    6.9955   -3.3221   25.6467 H   0  0  0  0  0  0  0  0  0  0  0  0
    9.3271   -2.4464   25.8632 H   0  0  0  0  0  0  0  0  0  0  0  0
    9.7656   -0.0227   25.2985 H   0  0  0  0  0  0  0  0  0  0  0  0
    8.9032    2.1156   24.7542 H   0  0  0  0  0  0  0  0  0  0  0  0
    5.8704    2.5643   24.8867 H   0  0  0  0  0  0  0  0  0  0  0  0
    7.0102    2.6820   26.2343 H   0  0  0  0  0  0  0  0  0  0  0  0
    7.1241    3.8116   24.8729 H   0  0  0  0  0  0  0  0  0  0  0  0
  1  2  1  0
  2  3  1  0
  3  4  1  0
  4  5  2  0
  5  6  1  0
  6  7  1  0
  7  8  2  0
  8  9  1  0
  9 10  2  0
 10 11  1  0
 11 12  2  0
 12 13  1  0
 11 14  1  0
  9 15  1  0
  8 16  1  0
  6 17  2  0
 17 18  1  0
 18 19  1  0
 19 20  1  0
 20 21  2  0
 21 22  1  0
 22 23  2  0
 23 24  1  0
 24 25  2  0
 25 26  1  0
 23 27  1  0
 22 28  1  0
 21 29  1  0
 19 30  1  0
 19 31  1  0
  3 32  1  0
  3 33  1  0
  2 34  1  0
 34 35  2  0
 35 36  1  0
 36 37  2  0
 37 38  1  0
 38 39  2  0
 39 40  1  0
 37 41  1  0
 36 42  1  0
 35 43  1  0
  2 44  1  0
  1 45  1  0
  1 46  1  0
  1 47  1  0
 18  4  1  0
 25 20  1  0
 39 34  1  0
 12  7  1  0
M  END
>  <cnnaffinity>  (1) 
-6.91367

>  <filename>  (1) 
CC(Cc1nc(-c2ccncc2)nn1Cc1cccnc1)c1cccnc1

$$$$
