
     RDKit          3D

 48 51  0  0  0  0  0  0  0  0999 V2000
    7.4146   -2.4451   24.9718 C   0  0  0  0  0  0  0  0  0  0  0  0
    7.3851   -3.0959   23.5750 C   0  0  0  0  0  0  0  0  0  0  0  0
    7.5951   -2.0880   22.4771 C   0  0  0  0  0  0  0  0  0  0  0  0
    6.6817   -1.7246   21.5988 N   0  0  0  0  0  0  0  0  0  0  0  0
    7.3165   -0.7557   20.8754 N   0  0  0  0  0  0  0  0  0  0  0  0
    6.6233   -0.0571   19.8441 C   0  0  0  0  0  0  0  0  0  0  0  0
    5.4246    0.6109   20.1217 C   0  0  0  0  0  0  0  0  0  0  0  0
    4.8121    1.3148   19.0786 C   0  0  0  0  0  0  0  0  0  0  0  0
    5.3996    1.3114   17.8083 C   0  0  0  0  0  0  0  0  0  0  0  0
    6.5302    0.6465   17.5285 N   0  0  0  0  0  0  0  0  0  0  0  0
    7.1189   -0.0211   18.5285 C   0  0  0  0  0  0  0  0  0  0  0  0
    8.0256   -0.5661   18.2738 H   0  0  0  0  0  0  0  0  0  0  0  0
    4.9411    1.8580   16.9846 H   0  0  0  0  0  0  0  0  0  0  0  0
    3.8903    1.8618   19.2403 H   0  0  0  0  0  0  0  0  0  0  0  0
    4.9905    0.5680   21.1220 H   0  0  0  0  0  0  0  0  0  0  0  0
    8.5695   -0.5711   21.3931 C   0  0  0  0  0  0  0  0  0  0  0  0
    9.5666    0.4938   21.0566 C   0  0  0  0  0  0  0  0  0  0  0  0
    9.5059    1.6418   22.0619 C   0  0  0  0  0  0  0  0  0  0  0  0
    8.4463    2.5603   21.9346 C   0  0  0  0  0  0  0  0  0  0  0  0
    8.2746    3.6183   22.8317 C   0  0  0  0  0  0  0  0  0  0  0  0
    9.2076    3.8194   23.8516 C   0  0  0  0  0  0  0  0  0  0  0  0
   10.2844    2.9444   23.9801 C   0  0  0  0  0  0  0  0  0  0  0  0
   10.4030    1.8364   23.1319 C   0  0  0  0  0  0  0  0  0  0  0  0
   11.8404    0.7687   23.4508 S   0  0  0  0  0  0  0  0  0  0  0  0
   11.5824   -0.6276   22.9667 O   0  0  0  0  0  0  0  0  0  0  0  0
   12.8453    1.5267   22.1618 C   0  0  0  0  0  0  0  0  0  0  0  0
   12.2251    1.6427   21.2658 H   0  0  0  0  0  0  0  0  0  0  0  0
   13.2151    2.5006   22.4848 H   0  0  0  0  0  0  0  0  0  0  0  0
   13.6676    0.8332   21.9716 H   0  0  0  0  0  0  0  0  0  0  0  0
   11.0602    3.1370   24.7137 H   0  0  0  0  0  0  0  0  0  0  0  0
    9.1131    4.6685   24.5218 H   0  0  0  0  0  0  0  0  0  0  0  0
    7.4346    4.2984   22.7177 H   0  0  0  0  0  0  0  0  0  0  0  0
    7.7536    2.4494   21.1043 H   0  0  0  0  0  0  0  0  0  0  0  0
    9.3689    0.8703   20.0527 H   0  0  0  0  0  0  0  0  0  0  0  0
   10.5437    0.0042   21.0470 H   0  0  0  0  0  0  0  0  0  0  0  0
    8.7665   -1.4163   22.3763 N   0  0  0  0  0  0  0  0  0  0  0  0
    8.3997   -4.2365   23.4758 C   0  0  0  0  0  0  0  0  0  0  0  0
    8.0104   -5.5909   23.9910 C   0  0  0  0  0  0  0  0  0  0  0  0
    8.1097   -5.3461   22.5129 C   0  0  0  0  0  0  0  0  0  0  0  0
    8.9357   -5.8074   21.9866 H   0  0  0  0  0  0  0  0  0  0  0  0
    7.1945   -5.2809   21.9262 H   0  0  0  0  0  0  0  0  0  0  0  0
    8.7800   -6.1980   24.4596 H   0  0  0  0  0  0  0  0  0  0  0  0
    7.0184   -5.7025   24.4232 H   0  0  0  0  0  0  0  0  0  0  0  0
    9.4468   -3.9427   23.6156 H   0  0  0  0  0  0  0  0  0  0  0  0
    6.3796   -3.5011   23.4020 H   0  0  0  0  0  0  0  0  0  0  0  0
    7.2414   -3.2038   25.7446 H   0  0  0  0  0  0  0  0  0  0  0  0
    6.6306   -1.6836   25.0613 H   0  0  0  0  0  0  0  0  0  0  0  0
    8.3905   -1.9727   25.1515 H   0  0  0  0  0  0  0  0  0  0  0  0
  1  2  1  0
  2  3  1  0
  3  4  2  0
  4  5  1  0
  5  6  1  0
  6  7  2  0
  7  8  1  0
  8  9  2  0
  9 10  1  0
 10 11  2  0
 11 12  1  0
  9 13  1  0
  8 14  1  0
  7 15  1  0
  5 16  1  0
 16 17  1  0
 17 18  1  0
 18 19  2  0
 19 20  1  0
 20 21  2  0
 21 22  1  0
 22 23  2  0
 23 24  1  0
 24 25  2  0
 24 26  1  0
 26 27  1  0
 26 28  1  0
 26 29  1  0
 22 30  1  0
 21 31  1  0
 20 32  1  0
 19 33  1  0
 17 34  1  0
 17 35  1  0
 16 36  2  0
  2 37  1  0
 37 38  1  0
 38 39  1  0
 39 40  1  0
 39 41  1  0
 38 42  1  0
 38 43  1  0
 37 44  1  0
  2 45  1  0
  1 46  1  0
  1 47  1  0
  1 48  1  0
 36  3  1  0
 39 37  1  0
 11  6  1  0
 23 18  1  0
M  END
>  <cnnaffinity>  (1) 
-6.42345

>  <filename>  (1) 
CC(c1nc(Cc2ccccc2S(C)=O)n(-c2cccnc2)n1)C1CC1

$$$$
