
     RDKit          3D

 35 37  0  0  0  0  0  0  0  0999 V2000
    4.9120    1.8440   17.0254 H   0  0  0  0  0  0  0  0  0  0  0  0
    5.3872    1.2928   17.8327 C   0  0  0  0  0  0  0  0  0  0  0  0
    6.5354    0.6637   17.5370 N   0  0  0  0  0  0  0  0  0  0  0  0
    7.1730    0.0171   18.5292 C   0  0  0  0  0  0  0  0  0  0  0  0
    8.1147   -0.4499   18.2470 H   0  0  0  0  0  0  0  0  0  0  0  0
    6.7056   -0.0531   19.8804 C   0  0  0  0  0  0  0  0  0  0  0  0
    7.3327   -0.7086   20.9459 N   0  0  0  0  0  0  0  0  0  0  0  0
    6.7142   -0.8777   21.7320 H   0  0  0  0  0  0  0  0  0  0  0  0
    8.7567   -0.6506   21.3462 C   0  0  0  0  0  0  0  0  0  0  0  0
    8.8462   -0.7409   22.8679 C   0  0  0  0  0  0  0  0  0  0  0  0
    9.6513   -1.5661   23.5792 C   0  0  0  0  0  0  0  0  0  0  0  0
   10.2933   -2.3475   23.1909 H   0  0  0  0  0  0  0  0  0  0  0  0
    9.5963   -1.3306   25.2923 S   0  0  0  0  0  0  0  0  0  0  0  0
    8.4523   -0.0329   25.1093 C   0  0  0  0  0  0  0  0  0  0  0  0
    7.8895    0.7482   26.1375 C   0  0  0  0  0  0  0  0  0  0  0  0
    8.1584    0.5714   27.1756 H   0  0  0  0  0  0  0  0  0  0  0  0
    6.9962    1.7556   25.7952 C   0  0  0  0  0  0  0  0  0  0  0  0
    6.5479    2.3663   26.5776 H   0  0  0  0  0  0  0  0  0  0  0  0
    6.6699    1.9912   24.4409 C   0  0  0  0  0  0  0  0  0  0  0  0
    5.9809    2.7956   24.1894 H   0  0  0  0  0  0  0  0  0  0  0  0
    7.2224    1.2210   23.4302 C   0  0  0  0  0  0  0  0  0  0  0  0
    6.9748    1.4285   22.3883 H   0  0  0  0  0  0  0  0  0  0  0  0
    8.1317    0.1815   23.7540 C   0  0  0  0  0  0  0  0  0  0  0  0
    9.4459    0.6375   20.8394 C   0  0  0  0  0  0  0  0  0  0  0  0
   10.4743    0.6965   21.2051 H   0  0  0  0  0  0  0  0  0  0  0  0
    8.9082    1.5370   21.1516 H   0  0  0  0  0  0  0  0  0  0  0  0
    9.4850    0.6206   19.7507 H   0  0  0  0  0  0  0  0  0  0  0  0
    9.4329   -1.8477   20.6642 C   0  0  0  0  0  0  0  0  0  0  0  0
    8.9508   -2.7810   20.9659 H   0  0  0  0  0  0  0  0  0  0  0  0
    9.3080   -1.7300   19.5864 H   0  0  0  0  0  0  0  0  0  0  0  0
   10.5031   -1.8945   20.8938 H   0  0  0  0  0  0  0  0  0  0  0  0
    5.4790    0.5852   20.1358 C   0  0  0  0  0  0  0  0  0  0  0  0
    5.0940    0.5693   21.1566 H   0  0  0  0  0  0  0  0  0  0  0  0
    4.8154    1.2688   19.1097 C   0  0  0  0  0  0  0  0  0  0  0  0
    3.8841    1.7978   19.2854 H   0  0  0  0  0  0  0  0  0  0  0  0
  1  2  1  0
  2  3  2  0
  3  4  1  0
  4  5  1  0
  4  6  2  0
  6  7  1  0
  7  8  1  0
  7  9  1  0
  9 10  1  0
 10 11  2  0
 11 12  1  0
 11 13  1  0
 13 14  1  0
 14 15  2  0
 15 16  1  0
 15 17  1  0
 17 18  1  0
 17 19  2  0
 19 20  1  0
 19 21  1  0
 21 22  1  0
 21 23  2  0
  9 24  1  0
 24 25  1  0
 24 26  1  0
 24 27  1  0
  9 28  1  0
 28 29  1  0
 28 30  1  0
 28 31  1  0
  6 32  1  0
 32 33  1  0
 32 34  2  0
 34 35  1  0
 34  2  1  0
 23 10  1  0
 23 14  1  0
M  END
>  <cnnaffinity>  (1) 
-4.92956

>  <filename>  (1) 
CC(C)(Nc1cccnc1)c1csc2ccccc12

$$$$
