
     RDKit          3D

 44 46  0  0  0  0  0  0  0  0999 V2000
    8.6752   -5.4894   23.8311 C   0  0  0  0  0  0  0  0  0  0  0  0
    7.9143   -4.2391   23.3948 C   0  0  0  0  0  0  0  0  0  0  0  0
    6.5419   -4.6216   22.8375 C   0  0  0  0  0  0  0  0  0  0  0  0
    5.9856   -3.7253   22.5487 H   0  0  0  0  0  0  0  0  0  0  0  0
    6.6532   -5.2633   21.9577 H   0  0  0  0  0  0  0  0  0  0  0  0
    5.9580   -5.1584   23.5904 H   0  0  0  0  0  0  0  0  0  0  0  0
    8.7330   -3.5076   22.3252 C   0  0  0  0  0  0  0  0  0  0  0  0
    8.1870   -2.1557   22.0016 C   0  0  0  0  0  0  0  0  0  0  0  0
    7.7563   -1.8880   20.7965 N   0  0  0  0  0  0  0  0  0  0  0  0
    7.3622   -0.6064   20.9125 N   0  0  0  0  0  0  0  0  0  0  0  0
    6.7029    0.0618   19.8841 C   0  0  0  0  0  0  0  0  0  0  0  0
    5.5702    0.8383   20.1458 C   0  0  0  0  0  0  0  0  0  0  0  0
    4.9313    1.4399   19.0602 C   0  0  0  0  0  0  0  0  0  0  0  0
    5.4470    1.2726   17.7673 C   0  0  0  0  0  0  0  0  0  0  0  0
    6.5301    0.5110   17.5110 N   0  0  0  0  0  0  0  0  0  0  0  0
    7.1312   -0.0954   18.5538 C   0  0  0  0  0  0  0  0  0  0  0  0
    7.9998   -0.7212   18.3605 H   0  0  0  0  0  0  0  0  0  0  0  0
    4.9523    1.7756   16.9419 H   0  0  0  0  0  0  0  0  0  0  0  0
    4.0455    2.0525   19.2062 H   0  0  0  0  0  0  0  0  0  0  0  0
    5.1822    0.9461   21.1589 H   0  0  0  0  0  0  0  0  0  0  0  0
    7.6656   -0.1283   22.1816 C   0  0  0  0  0  0  0  0  0  0  0  0
    7.5548    1.2982   22.6444 C   0  0  0  0  0  0  0  0  0  0  0  0
    8.5318    2.1916   21.8758 C   0  0  0  0  0  0  0  0  0  0  0  0
    8.3890    3.6200   22.3556 C   0  0  0  0  0  0  0  0  0  0  0  0
    7.2734    4.3842   21.9900 C   0  0  0  0  0  0  0  0  0  0  0  0
    7.1702    5.6712   22.5266 C   0  0  0  0  0  0  0  0  0  0  0  0
    8.1841    6.1683   23.3514 C   0  0  0  0  0  0  0  0  0  0  0  0
    7.9914    7.9175   24.0797 Br  0  0  0  0  0  0  0  0  0  0  0  0
    9.2863    5.4646   23.6510 N   0  0  0  0  0  0  0  0  0  0  0  0
    9.3762    4.2119   23.1719 C   0  0  0  0  0  0  0  0  0  0  0  0
   10.2528    3.6359   23.4518 H   0  0  0  0  0  0  0  0  0  0  0  0
    6.3175    6.3124   22.3223 H   0  0  0  0  0  0  0  0  0  0  0  0
    6.5143    3.9886   21.3122 H   0  0  0  0  0  0  0  0  0  0  0  0
    9.5532    1.8321   22.0439 H   0  0  0  0  0  0  0  0  0  0  0  0
    8.3324    2.1273   20.7982 H   0  0  0  0  0  0  0  0  0  0  0  0
    7.7815    1.3476   23.7131 H   0  0  0  0  0  0  0  0  0  0  0  0
    6.5363    1.6576   22.4874 H   0  0  0  0  0  0  0  0  0  0  0  0
    8.1565   -1.0978   22.8995 N   0  0  0  0  0  0  0  0  0  0  0  0
    8.7214   -4.1011   21.4089 H   0  0  0  0  0  0  0  0  0  0  0  0
    9.7687   -3.3945   22.6607 H   0  0  0  0  0  0  0  0  0  0  0  0
    7.7770   -3.5911   24.2671 H   0  0  0  0  0  0  0  0  0  0  0  0
    8.1311   -6.0140   24.6210 H   0  0  0  0  0  0  0  0  0  0  0  0
    8.8108   -6.1715   22.9853 H   0  0  0  0  0  0  0  0  0  0  0  0
    9.6588   -5.2099   24.2208 H   0  0  0  0  0  0  0  0  0  0  0  0
  1  2  1  0
  2  3  1  0
  3  4  1  0
  3  5  1  0
  3  6  1  0
  2  7  1  0
  7  8  1  0
  8  9  2  0
  9 10  1  0
 10 11  1  0
 11 12  2  0
 12 13  1  0
 13 14  2  0
 14 15  1  0
 15 16  2  0
 16 17  1  0
 14 18  1  0
 13 19  1  0
 12 20  1  0
 10 21  1  0
 21 22  1  0
 22 23  1  0
 23 24  1  0
 24 25  2  0
 25 26  1  0
 26 27  2  0
 27 28  1  0
 27 29  1  0
 29 30  2  0
 30 31  1  0
 26 32  1  0
 25 33  1  0
 23 34  1  0
 23 35  1  0
 22 36  1  0
 22 37  1  0
 21 38  2  0
  7 39  1  0
  7 40  1  0
  2 41  1  0
  1 42  1  0
  1 43  1  0
  1 44  1  0
 38  8  1  0
 16 11  1  0
 30 24  1  0
M  END
>  <cnnaffinity>  (1) 
-5.89081

>  <filename>  (1) 
CC(C)Cc1nc(CCc2ccc(Br)nc2)n(-c2cccnc2)n1

$$$$
