
     RDKit          3D

 45 47  0  0  0  0  0  0  0  0999 V2000
    8.2197   -6.5298   22.5924 C   0  0  0  0  0  0  0  0  0  0  0  0
    8.0356   -5.6003   23.7938 C   0  0  0  0  0  0  0  0  0  0  0  0
    9.2842   -5.5496   24.6865 C   0  0  0  0  0  0  0  0  0  0  0  0
    9.6666   -6.5548   24.8976 H   0  0  0  0  0  0  0  0  0  0  0  0
    9.0534   -5.0792   25.6482 H   0  0  0  0  0  0  0  0  0  0  0  0
   10.1019   -4.9667   24.2450 H   0  0  0  0  0  0  0  0  0  0  0  0
    7.5798   -4.2015   23.3520 C   0  0  0  0  0  0  0  0  0  0  0  0
    8.4846   -3.5286   22.3017 C   0  0  0  0  0  0  0  0  0  0  0  0
    8.0108   -2.1667   21.9462 C   0  0  0  0  0  0  0  0  0  0  0  0
    7.6246   -1.8119   20.7409 N   0  0  0  0  0  0  0  0  0  0  0  0
    7.2062   -0.5326   20.9244 N   0  0  0  0  0  0  0  0  0  0  0  0
    6.5723    0.1592   19.8682 C   0  0  0  0  0  0  0  0  0  0  0  0
    5.3787    0.8674   20.0497 C   0  0  0  0  0  0  0  0  0  0  0  0
    4.8070    1.4691   18.9249 C   0  0  0  0  0  0  0  0  0  0  0  0
    5.4476    1.3504   17.6878 C   0  0  0  0  0  0  0  0  0  0  0  0
    6.5945    0.6675   17.5139 N   0  0  0  0  0  0  0  0  0  0  0  0
    7.1332    0.0795   18.5830 C   0  0  0  0  0  0  0  0  0  0  0  0
    8.0549   -0.4818   18.4401 H   0  0  0  0  0  0  0  0  0  0  0  0
    5.0258    1.8108   16.7981 H   0  0  0  0  0  0  0  0  0  0  0  0
    3.8833    2.0309   19.0024 H   0  0  0  0  0  0  0  0  0  0  0  0
    4.8956    0.9184   21.0265 H   0  0  0  0  0  0  0  0  0  0  0  0
    7.4304   -0.1742   22.2207 C   0  0  0  0  0  0  0  0  0  0  0  0
    7.1475    1.1623   22.8441 C   0  0  0  0  0  0  0  0  0  0  0  0
    8.2096    1.5956   23.7509 N   0  0  0  0  0  0  0  0  0  0  0  0
    8.2286    1.4832   25.1102 C   0  0  0  0  0  0  0  0  0  0  0  0
    9.3634    1.7636   25.6371 N   0  0  0  0  0  0  0  0  0  0  0  0
   10.3043    2.0776   24.5298 C   0  0  0  0  0  0  0  0  0  0  0  0
   11.7245    2.5439   24.5104 C   0  0  0  0  0  0  0  0  0  0  0  0
   12.1256    2.5029   22.6691 F   0  0  0  0  0  0  0  0  0  0  0  0
   11.5748    2.1913   24.7541 F   0  0  0  0  0  0  0  0  0  0  0  0
   11.9969    3.9741   24.3699 F   0  0  0  0  0  0  0  0  0  0  0  0
    9.4856    1.9535   23.3883 C   0  0  0  0  0  0  0  0  0  0  0  0
    9.7242    2.0911   22.3257 H   0  0  0  0  0  0  0  0  0  0  0  0
    7.3481    1.1799   25.6740 H   0  0  0  0  0  0  0  0  0  0  0  0
    6.2367    1.0664   23.4446 H   0  0  0  0  0  0  0  0  0  0  0  0
    6.9703    1.9297   22.0824 H   0  0  0  0  0  0  0  0  0  0  0  0
    7.9136   -1.1970   22.8889 N   0  0  0  0  0  0  0  0  0  0  0  0
    9.5058   -3.4244   22.6902 H   0  0  0  0  0  0  0  0  0  0  0  0
    8.5276   -4.1152   21.3804 H   0  0  0  0  0  0  0  0  0  0  0  0
    6.5616   -4.2675   22.9381 H   0  0  0  0  0  0  0  0  0  0  0  0
    7.5129   -3.5454   24.2330 H   0  0  0  0  0  0  0  0  0  0  0  0
    7.2288   -6.0125   24.4184 H   0  0  0  0  0  0  0  0  0  0  0  0
    7.3029   -6.6023   21.9917 H   0  0  0  0  0  0  0  0  0  0  0  0
    9.0144   -6.1693   21.9319 H   0  0  0  0  0  0  0  0  0  0  0  0
    8.5062   -7.5343   22.9132 H   0  0  0  0  0  0  0  0  0  0  0  0
  1  2  1  0
  2  3  1  0
  3  4  1  0
  3  5  1  0
  3  6  1  0
  2  7  1  0
  7  8  1  0
  8  9  1  0
  9 10  2  0
 10 11  1  0
 11 12  1  0
 12 13  2  0
 13 14  1  0
 14 15  2  0
 15 16  1  0
 16 17  2  0
 17 18  1  0
 15 19  1  0
 14 20  1  0
 13 21  1  0
 11 22  1  0
 22 23  1  0
 23 24  1  0
 24 25  1  0
 25 26  2  0
 26 27  1  0
 27 28  1  0
 28 29  1  0
 28 30  1  0
 28 31  1  0
 27 32  2  0
 32 33  1  0
 25 34  1  0
 23 35  1  0
 23 36  1  0
 22 37  2  0
  8 38  1  0
  8 39  1  0
  7 40  1  0
  7 41  1  0
  2 42  1  0
  1 43  1  0
  1 44  1  0
  1 45  1  0
 37  9  1  0
 17 12  1  0
 32 24  1  0
M  END
>  <cnnaffinity>  (1) 
-6.27181

>  <filename>  (1) 
CC(C)CCc1nc(Cn2cnc(C(F)(F)F)c2)n(-c2cccnc2)n1

$$$$
