
     RDKit          3D

 46 48  0  0  0  0  0  0  0  0999 V2000
    8.6657    8.2095   24.5703 H   0  0  0  0  0  0  0  0  0  0  0  0
    7.8141    7.6077   24.2551 C   0  0  0  0  0  0  0  0  0  0  0  0
    8.1204    6.4107   23.7719 N   0  0  0  0  0  0  0  0  0  0  0  0
    7.1081    5.5973   23.4294 C   0  0  0  0  0  0  0  0  0  0  0  0
    7.4967    4.3217   23.0823 N   0  0  0  0  0  0  0  0  0  0  0  0
    8.6589    4.2040   22.1948 C   0  0  0  0  0  0  0  0  0  0  0  0
    9.4119    4.9321   22.5083 H   0  0  0  0  0  0  0  0  0  0  0  0
    8.3621    4.4775   21.1752 H   0  0  0  0  0  0  0  0  0  0  0  0
    9.3160    2.8159   22.2158 C   0  0  0  0  0  0  0  0  0  0  0  0
    9.9072    2.7361   23.1450 H   0  0  0  0  0  0  0  0  0  0  0  0
   10.0265    2.7834   21.3816 H   0  0  0  0  0  0  0  0  0  0  0  0
    8.3252    1.7234   22.0950 N   0  0  0  0  0  0  0  0  0  0  0  0
    8.8028    0.3437   21.9050 C   0  0  0  0  0  0  0  0  0  0  0  0
    9.2833   -0.2853   23.2273 C   0  0  0  0  0  0  0  0  0  0  0  0
   10.0349    0.3704   23.6869 H   0  0  0  0  0  0  0  0  0  0  0  0
    8.4590   -0.4276   23.9323 H   0  0  0  0  0  0  0  0  0  0  0  0
    9.7471   -1.2570   23.0462 H   0  0  0  0  0  0  0  0  0  0  0  0
    9.9346    0.3179   20.8717 C   0  0  0  0  0  0  0  0  0  0  0  0
   10.8290    0.8107   21.2740 H   0  0  0  0  0  0  0  0  0  0  0  0
   10.2079   -0.7127   20.6353 H   0  0  0  0  0  0  0  0  0  0  0  0
    9.6259    0.8288   19.9534 H   0  0  0  0  0  0  0  0  0  0  0  0
    7.4396   -0.9134   21.1767 S   0  0  0  0  0  0  0  0  0  0  0  0
    8.1639   -1.9891   20.5057 O   0  0  0  0  0  0  0  0  0  0  0  0
    6.4427   -1.2577   22.1902 O   0  0  0  0  0  0  0  0  0  0  0  0
    6.5978   -0.0202   19.9239 C   0  0  0  0  0  0  0  0  0  0  0  0
    7.1748   -0.0223   18.6636 C   0  0  0  0  0  0  0  0  0  0  0  0
    8.1089   -0.5523   18.4792 H   0  0  0  0  0  0  0  0  0  0  0  0
    6.6088    0.6136   17.6380 N   0  0  0  0  0  0  0  0  0  0  0  0
    5.4563    1.2688   17.8567 C   0  0  0  0  0  0  0  0  0  0  0  0
    5.0236    1.7913   17.0057 H   0  0  0  0  0  0  0  0  0  0  0  0
    4.8148    1.3031   19.1012 C   0  0  0  0  0  0  0  0  0  0  0  0
    3.8888    1.8569   19.2226 H   0  0  0  0  0  0  0  0  0  0  0  0
    5.4017    0.6458   20.1758 C   0  0  0  0  0  0  0  0  0  0  0  0
    4.9438    0.6311   21.1682 H   0  0  0  0  0  0  0  0  0  0  0  0
    7.2597    1.8915   23.0969 C   0  0  0  0  0  0  0  0  0  0  0  0
    6.5396    1.0722   23.0193 H   0  0  0  0  0  0  0  0  0  0  0  0
    7.6753    1.8756   24.1199 H   0  0  0  0  0  0  0  0  0  0  0  0
    6.5421    3.2292   22.9124 C   0  0  0  0  0  0  0  0  0  0  0  0
    6.0716    3.2633   21.9134 H   0  0  0  0  0  0  0  0  0  0  0  0
    5.7565    3.2941   23.6751 H   0  0  0  0  0  0  0  0  0  0  0  0
    5.7549    6.0041   23.4438 C   0  0  0  0  0  0  0  0  0  0  0  0
    5.0014    5.3294   23.0500 H   0  0  0  0  0  0  0  0  0  0  0  0
    5.4665    7.2734   23.9338 C   0  0  0  0  0  0  0  0  0  0  0  0
    4.4351    7.6164   23.9797 H   0  0  0  0  0  0  0  0  0  0  0  0
    6.5163    8.0909   24.3679 C   0  0  0  0  0  0  0  0  0  0  0  0
    6.3521    9.0744   24.7870 H   0  0  0  0  0  0  0  0  0  0  0  0
  1  2  1  0
  2  3  2  0
  3  4  1  0
  4  5  1  0
  5  6  1  0
  6  7  1  0
  6  8  1  0
  6  9  1  0
  9 10  1  0
  9 11  1  0
  9 12  1  0
 12 13  1  0
 13 14  1  0
 14 15  1  0
 14 16  1  0
 14 17  1  0
 13 18  1  0
 18 19  1  0
 18 20  1  0
 18 21  1  0
 13 22  1  0
 22 23  2  0
 22 24  2  0
 22 25  1  0
 25 26  2  0
 26 27  1  0
 26 28  1  0
 28 29  2  0
 29 30  1  0
 29 31  1  0
 31 32  1  0
 31 33  2  0
 33 34  1  0
 12 35  1  0
 35 36  1  0
 35 37  1  0
 35 38  1  0
 38 39  1  0
 38 40  1  0
  4 41  2  0
 41 42  1  0
 41 43  1  0
 43 44  1  0
 43 45  2  0
 45 46  1  0
 45  2  1  0
 38  5  1  0
 33 25  1  0
M  END
>  <cnnaffinity>  (1) 
-4.67744

>  <filename>  (1) 
CC(C)(N1CCN(c2ccccn2)CC1)S(=O)(=O)c1cccnc1

$$$$
