
     RDKit          3D

 46 48  0  0  0  0  0  0  0  0999 V2000
    7.4810   -3.7726   24.4868 C   0  0  0  0  0  0  0  0  0  0  0  0
    7.7607   -4.4555   23.1395 C   0  0  0  0  0  0  0  0  0  0  0  0
    8.4582   -5.7975   23.3956 C   0  0  0  0  0  0  0  0  0  0  0  0
    7.8248   -6.4665   23.9817 H   0  0  0  0  0  0  0  0  0  0  0  0
    9.3780   -5.6468   23.9706 H   0  0  0  0  0  0  0  0  0  0  0  0
    8.7195   -6.3043   22.4622 H   0  0  0  0  0  0  0  0  0  0  0  0
    6.4242   -4.6608   22.3767 C   0  0  0  0  0  0  0  0  0  0  0  0
    6.5855   -5.1533   21.0574 O   0  0  0  0  0  0  0  0  0  0  0  0
    6.9416   -4.4197   20.5344 H   0  0  0  0  0  0  0  0  0  0  0  0
    5.8682   -3.7081   22.3630 H   0  0  0  0  0  0  0  0  0  0  0  0
    5.7992   -5.3873   22.9131 H   0  0  0  0  0  0  0  0  0  0  0  0
    8.7175   -3.6050   22.2668 C   0  0  0  0  0  0  0  0  0  0  0  0
    8.2549   -2.2348   21.9376 C   0  0  0  0  0  0  0  0  0  0  0  0
    7.6000   -1.9746   20.8219 N   0  0  0  0  0  0  0  0  0  0  0  0
    7.3287   -0.6501   20.9325 N   0  0  0  0  0  0  0  0  0  0  0  0
    6.6239    0.0040   19.8931 C   0  0  0  0  0  0  0  0  0  0  0  0
    5.4065    0.6484   20.1356 C   0  0  0  0  0  0  0  0  0  0  0  0
    4.7864    1.2991   19.0643 C   0  0  0  0  0  0  0  0  0  0  0  0
    5.4107    1.2811   17.8127 C   0  0  0  0  0  0  0  0  0  0  0  0
    6.5546    0.6157   17.5669 N   0  0  0  0  0  0  0  0  0  0  0  0
    7.1394   -0.0211   18.5851 C   0  0  0  0  0  0  0  0  0  0  0  0
    8.0742   -0.5387   18.3675 H   0  0  0  0  0  0  0  0  0  0  0  0
    4.9839    1.8306   16.9773 H   0  0  0  0  0  0  0  0  0  0  0  0
    3.8638    1.8491   19.2104 H   0  0  0  0  0  0  0  0  0  0  0  0
    4.9751    0.6366   21.1407 H   0  0  0  0  0  0  0  0  0  0  0  0
    7.8395   -0.1811   22.1102 C   0  0  0  0  0  0  0  0  0  0  0  0
    7.7792    1.2640   22.5321 C   0  0  0  0  0  0  0  0  0  0  0  0
    7.8603    1.4417   24.0344 C   0  0  0  0  0  0  0  0  0  0  0  0
    9.1000    1.7333   24.6170 C   0  0  0  0  0  0  0  0  0  0  0  0
    9.2817    1.7664   25.9977 C   0  0  0  0  0  0  0  0  0  0  0  0
    8.1996    1.5022   26.8382 C   0  0  0  0  0  0  0  0  0  0  0  0
    6.9526    1.1874   26.2943 C   0  0  0  0  0  0  0  0  0  0  0  0
    6.7886    1.1867   24.9038 C   0  0  0  0  0  0  0  0  0  0  0  0
    5.1884    0.8728   24.2824 Cl  0  0  0  0  0  0  0  0  0  0  0  0
    6.1139    0.9227   26.9289 H   0  0  0  0  0  0  0  0  0  0  0  0
    8.3241    1.5323   27.9163 H   0  0  0  0  0  0  0  0  0  0  0  0
   10.2723    1.9684   26.3884 H   0  0  0  0  0  0  0  0  0  0  0  0
    9.9444    1.9325   23.9652 H   0  0  0  0  0  0  0  0  0  0  0  0
    6.8645    1.7100   22.1356 H   0  0  0  0  0  0  0  0  0  0  0  0
    8.6114    1.7945   22.0528 H   0  0  0  0  0  0  0  0  0  0  0  0
    8.4465   -1.1683   22.7483 N   0  0  0  0  0  0  0  0  0  0  0  0
    9.7110   -3.5407   22.7151 H   0  0  0  0  0  0  0  0  0  0  0  0
    8.8063   -4.1141   21.3112 H   0  0  0  0  0  0  0  0  0  0  0  0
    6.8554   -4.4004   25.1302 H   0  0  0  0  0  0  0  0  0  0  0  0
    6.9711   -2.8115   24.3648 H   0  0  0  0  0  0  0  0  0  0  0  0
    8.4159   -3.5792   25.0257 H   0  0  0  0  0  0  0  0  0  0  0  0
  1  2  1  0
  2  3  1  0
  3  4  1  0
  3  5  1  0
  3  6  1  0
  2  7  1  0
  7  8  1  0
  8  9  1  0
  7 10  1  0
  7 11  1  0
  2 12  1  0
 12 13  1  0
 13 14  2  0
 14 15  1  0
 15 16  1  0
 16 17  2  0
 17 18  1  0
 18 19  2  0
 19 20  1  0
 20 21  2  0
 21 22  1  0
 19 23  1  0
 18 24  1  0
 17 25  1  0
 15 26  1  0
 26 27  1  0
 27 28  1  0
 28 29  2  0
 29 30  1  0
 30 31  2  0
 31 32  1  0
 32 33  2  0
 33 34  1  0
 32 35  1  0
 31 36  1  0
 30 37  1  0
 29 38  1  0
 27 39  1  0
 27 40  1  0
 26 41  2  0
 12 42  1  0
 12 43  1  0
  1 44  1  0
  1 45  1  0
  1 46  1  0
 41 13  1  0
 21 16  1  0
 33 28  1  0
M  END
>  <cnnaffinity>  (1) 
-5.89

>  <filename>  (1) 
CC(C)(CO)Cc1nc(Cc2ccccc2Cl)n(-c2cccnc2)n1

$$$$
