
     RDKit          3D

 49 52  0  0  0  0  0  0  0  0999 V2000
    5.8161    0.8924   24.1987 C   0  0  0  0  0  0  0  0  0  0  0  0
    7.2139    1.4967   24.0792 C   0  0  0  0  0  0  0  0  0  0  0  0
    7.7478    1.5082   22.6209 C   0  0  0  0  0  0  0  0  0  0  0  0
    7.8715    0.1565   22.0002 C   0  0  0  0  0  0  0  0  0  0  0  0
    8.5487   -0.8290   22.5717 N   0  0  0  0  0  0  0  0  0  0  0  0
    8.3938   -1.8599   21.7047 C   0  0  0  0  0  0  0  0  0  0  0  0
    8.7833   -3.2659   22.0071 C   0  0  0  0  0  0  0  0  0  0  0  0
    7.7116   -3.9942   22.8464 C   0  0  0  0  0  0  0  0  0  0  0  0
    7.2790   -3.2628   24.1249 C   0  0  0  0  0  0  0  0  0  0  0  0
    6.5602   -4.3216   24.9726 C   0  0  0  0  0  0  0  0  0  0  0  0
    7.1020   -5.6835   24.4771 C   0  0  0  0  0  0  0  0  0  0  0  0
    8.1390   -5.3598   23.3850 C   0  0  0  0  0  0  0  0  0  0  0  0
    8.1741   -6.1298   22.6063 H   0  0  0  0  0  0  0  0  0  0  0  0
    9.1445   -5.2784   23.8231 H   0  0  0  0  0  0  0  0  0  0  0  0
    7.5351   -6.2720   25.2919 H   0  0  0  0  0  0  0  0  0  0  0  0
    6.2835   -6.2681   24.0460 H   0  0  0  0  0  0  0  0  0  0  0  0
    5.4757   -4.2633   24.8281 H   0  0  0  0  0  0  0  0  0  0  0  0
    6.7394   -4.1711   26.0417 H   0  0  0  0  0  0  0  0  0  0  0  0
    8.1741   -2.9053   24.6479 H   0  0  0  0  0  0  0  0  0  0  0  0
    6.6649   -2.3785   23.9206 H   0  0  0  0  0  0  0  0  0  0  0  0
    6.8149   -4.1347   22.2199 H   0  0  0  0  0  0  0  0  0  0  0  0
    9.7482   -3.2675   22.5256 H   0  0  0  0  0  0  0  0  0  0  0  0
    8.8884   -3.7497   21.0361 H   0  0  0  0  0  0  0  0  0  0  0  0
    7.7161   -1.5714   20.6167 N   0  0  0  0  0  0  0  0  0  0  0  0
    7.3580   -0.2737   20.8028 N   0  0  0  0  0  0  0  0  0  0  0  0
    6.5899    0.3464   19.7712 C   0  0  0  0  0  0  0  0  0  0  0  0
    5.3714    0.9988   19.9959 C   0  0  0  0  0  0  0  0  0  0  0  0
    4.7057    1.5444   18.8898 C   0  0  0  0  0  0  0  0  0  0  0  0
    5.2787    1.4277   17.6213 C   0  0  0  0  0  0  0  0  0  0  0  0
    6.4250    0.7615   17.3948 N   0  0  0  0  0  0  0  0  0  0  0  0
    7.0458    0.2228   18.4448 C   0  0  0  0  0  0  0  0  0  0  0  0
    7.9609   -0.3285   18.2397 H   0  0  0  0  0  0  0  0  0  0  0  0
    4.8145    1.8768   16.7480 H   0  0  0  0  0  0  0  0  0  0  0  0
    3.7626    2.0655   19.0057 H   0  0  0  0  0  0  0  0  0  0  0  0
    4.9417    1.0624   20.9969 H   0  0  0  0  0  0  0  0  0  0  0  0
    7.1107    2.1495   22.0018 H   0  0  0  0  0  0  0  0  0  0  0  0
    8.7425    1.9649   22.6449 H   0  0  0  0  0  0  0  0  0  0  0  0
    7.2726    2.8527   24.6402 N   0  0  0  0  0  0  0  0  0  0  0  0
    6.7044    3.9995   24.1250 C   0  0  0  0  0  0  0  0  0  0  0  0
    7.1231    5.0168   24.9358 C   0  0  0  0  0  0  0  0  0  0  0  0
    7.9202    4.5339   25.9428 N   0  0  0  0  0  0  0  0  0  0  0  0
    7.9871    3.2442   25.7335 C   0  0  0  0  0  0  0  0  0  0  0  0
    8.5328    2.5313   26.3431 H   0  0  0  0  0  0  0  0  0  0  0  0
    6.9014    6.0753   24.8543 H   0  0  0  0  0  0  0  0  0  0  0  0
    6.0420    3.9766   23.2710 H   0  0  0  0  0  0  0  0  0  0  0  0
    7.8901    0.9031   24.7073 H   0  0  0  0  0  0  0  0  0  0  0  0
    5.1131    1.3204   23.4725 H   0  0  0  0  0  0  0  0  0  0  0  0
    5.8798   -0.1834   24.0130 H   0  0  0  0  0  0  0  0  0  0  0  0
    5.4043    1.0276   25.2027 H   0  0  0  0  0  0  0  0  0  0  0  0
  1  2  1  0
  2  3  1  0
  3  4  1  0
  4  5  2  0
  5  6  1  0
  6  7  1  0
  7  8  1  0
  8  9  1  0
  9 10  1  0
 10 11  1  0
 11 12  1  0
 12 13  1  0
 12 14  1  0
 11 15  1  0
 11 16  1  0
 10 17  1  0
 10 18  1  0
  9 19  1  0
  9 20  1  0
  8 21  1  0
  7 22  1  0
  7 23  1  0
  6 24  2  0
 24 25  1  0
 25 26  1  0
 26 27  2  0
 27 28  1  0
 28 29  2  0
 29 30  1  0
 30 31  2  0
 31 32  1  0
 29 33  1  0
 28 34  1  0
 27 35  1  0
  3 36  1  0
  3 37  1  0
  2 38  1  0
 38 39  1  0
 39 40  2  0
 40 41  1  0
 41 42  2  0
 42 43  1  0
 40 44  1  0
 39 45  1  0
  2 46  1  0
  1 47  1  0
  1 48  1  0
  1 49  1  0
 25  4  1  0
 31 26  1  0
 42 38  1  0
 12  8  1  0
M  END
>  <cnnaffinity>  (1) 
-6.10429

>  <filename>  (1) 
CC(Cc1nc(CC2CCCC2)nn1-c1cccnc1)n1ccnc1

$$$$
