
     RDKit          3D

 48 50  0  0  0  0  0  0  0  0999 V2000
    7.4176   -4.5520   26.1829 C   0  0  0  0  0  0  0  0  0  0  0  0
    8.6282   -3.7906   25.6213 C   0  0  0  0  0  0  0  0  0  0  0  0
    9.9047   -4.6262   25.7527 C   0  0  0  0  0  0  0  0  0  0  0  0
   10.1286   -4.8830   26.7951 H   0  0  0  0  0  0  0  0  0  0  0  0
   10.7565   -4.0729   25.3429 H   0  0  0  0  0  0  0  0  0  0  0  0
    9.7999   -5.5546   25.1825 H   0  0  0  0  0  0  0  0  0  0  0  0
    8.8094   -2.4269   26.3060 C   0  0  0  0  0  0  0  0  0  0  0  0
    9.1032   -2.5577   27.3522 H   0  0  0  0  0  0  0  0  0  0  0  0
    9.5864   -1.8439   25.8015 H   0  0  0  0  0  0  0  0  0  0  0  0
    7.8901   -1.8292   26.2981 H   0  0  0  0  0  0  0  0  0  0  0  0
    8.5010   -3.6316   24.1937 O   0  0  0  0  0  0  0  0  0  0  0  0
    7.4016   -2.9085   23.6788 C   0  0  0  0  0  0  0  0  0  0  0  0
    7.7372   -1.9942   22.5185 C   0  0  0  0  0  0  0  0  0  0  0  0
    6.7742   -1.6387   21.6825 N   0  0  0  0  0  0  0  0  0  0  0  0
    7.3617   -0.6872   20.9185 N   0  0  0  0  0  0  0  0  0  0  0  0
    6.6467   -0.0364   19.8736 C   0  0  0  0  0  0  0  0  0  0  0  0
    5.4405    0.6174   20.1471 C   0  0  0  0  0  0  0  0  0  0  0  0
    4.8162    1.3020   19.0981 C   0  0  0  0  0  0  0  0  0  0  0  0
    5.4016    1.2945   17.8257 C   0  0  0  0  0  0  0  0  0  0  0  0
    6.5336    0.6298   17.5471 N   0  0  0  0  0  0  0  0  0  0  0  0
    7.1322   -0.0192   18.5526 C   0  0  0  0  0  0  0  0  0  0  0  0
    8.0481   -0.5508   18.3028 H   0  0  0  0  0  0  0  0  0  0  0  0
    4.9452    1.8396   17.0004 H   0  0  0  0  0  0  0  0  0  0  0  0
    3.8930    1.8480   19.2573 H   0  0  0  0  0  0  0  0  0  0  0  0
    5.0209    0.5943   21.1558 H   0  0  0  0  0  0  0  0  0  0  0  0
    8.6328   -0.4742   21.3786 C   0  0  0  0  0  0  0  0  0  0  0  0
    9.5117    0.6535   20.9405 C   0  0  0  0  0  0  0  0  0  0  0  0
    9.2034    2.0098   21.6309 C   0  0  0  0  0  0  0  0  0  0  0  0
    9.4024    1.8715   23.1273 C   0  0  0  0  0  0  0  0  0  0  0  0
   10.7134    1.8004   23.6264 C   0  0  0  0  0  0  0  0  0  0  0  0
   10.9442    1.4009   24.9432 C   0  0  0  0  0  0  0  0  0  0  0  0
    9.8468    1.0607   25.7343 C   0  0  0  0  0  0  0  0  0  0  0  0
    8.5829    1.1553   25.3082 N   0  0  0  0  0  0  0  0  0  0  0  0
    8.3844    1.5675   24.0616 C   0  0  0  0  0  0  0  0  0  0  0  0
    6.7093    1.7000   23.5980 Cl  0  0  0  0  0  0  0  0  0  0  0  0
    9.9858    0.6753   26.7430 H   0  0  0  0  0  0  0  0  0  0  0  0
   11.9461    1.3069   25.3290 H   0  0  0  0  0  0  0  0  0  0  0  0
   11.5509    2.0258   22.9632 H   0  0  0  0  0  0  0  0  0  0  0  0
    8.1929    2.3537   21.3792 H   0  0  0  0  0  0  0  0  0  0  0  0
    9.8950    2.7588   21.2322 H   0  0  0  0  0  0  0  0  0  0  0  0
   10.5371    0.3595   21.1827 H   0  0  0  0  0  0  0  0  0  0  0  0
    9.4627    0.7516   19.8569 H   0  0  0  0  0  0  0  0  0  0  0  0
    8.9077   -1.3191   22.3523 N   0  0  0  0  0  0  0  0  0  0  0  0
    6.6130   -3.5918   23.3395 H   0  0  0  0  0  0  0  0  0  0  0  0
    6.9459   -2.2521   24.4390 H   0  0  0  0  0  0  0  0  0  0  0  0
    7.2399   -5.4529   25.5866 H   0  0  0  0  0  0  0  0  0  0  0  0
    7.5783   -4.8531   27.2253 H   0  0  0  0  0  0  0  0  0  0  0  0
    6.5089   -3.9397   26.1500 H   0  0  0  0  0  0  0  0  0  0  0  0
  1  2  1  0
  2  3  1  0
  3  4  1  0
  3  5  1  0
  3  6  1  0
  2  7  1  0
  7  8  1  0
  7  9  1  0
  7 10  1  0
  2 11  1  0
 11 12  1  0
 12 13  1  0
 13 14  2  0
 14 15  1  0
 15 16  1  0
 16 17  2  0
 17 18  1  0
 18 19  2  0
 19 20  1  0
 20 21  2  0
 21 22  1  0
 19 23  1  0
 18 24  1  0
 17 25  1  0
 15 26  1  0
 26 27  1  0
 27 28  1  0
 28 29  1  0
 29 30  2  0
 30 31  1  0
 31 32  2  0
 32 33  1  0
 33 34  2  0
 34 35  1  0
 32 36  1  0
 31 37  1  0
 30 38  1  0
 28 39  1  0
 28 40  1  0
 27 41  1  0
 27 42  1  0
 26 43  2  0
 12 44  1  0
 12 45  1  0
  1 46  1  0
  1 47  1  0
  1 48  1  0
 43 13  1  0
 21 16  1  0
 34 29  1  0
M  END
>  <cnnaffinity>  (1) 
-6.23974

>  <filename>  (1) 
CC(C)(C)OCc1nc(CCc2cccnc2Cl)n(-c2cccnc2)n1

$$$$
