
     RDKit          3D

 37 39  0  0  0  0  0  0  0  0999 V2000
    4.9308    1.8166   17.0441 H   0  0  0  0  0  0  0  0  0  0  0  0
    5.4073    1.2738   17.8569 C   0  0  0  0  0  0  0  0  0  0  0  0
    6.5497    0.6410   17.5593 N   0  0  0  0  0  0  0  0  0  0  0  0
    7.1787   -0.0117   18.5513 C   0  0  0  0  0  0  0  0  0  0  0  0
    8.1179   -0.4865   18.2784 H   0  0  0  0  0  0  0  0  0  0  0  0
    6.7101   -0.0702   19.8989 C   0  0  0  0  0  0  0  0  0  0  0  0
    7.3367   -0.7075   20.9702 N   0  0  0  0  0  0  0  0  0  0  0  0
    6.7315   -0.7942   21.7799 H   0  0  0  0  0  0  0  0  0  0  0  0
    8.7586   -0.6602   21.3410 C   0  0  0  0  0  0  0  0  0  0  0  0
    8.8498   -0.7220   22.8673 C   0  0  0  0  0  0  0  0  0  0  0  0
    9.7046   -1.6144   23.4808 C   0  0  0  0  0  0  0  0  0  0  0  0
   10.2865   -2.3229   22.8973 H   0  0  0  0  0  0  0  0  0  0  0  0
    9.9136   -1.7187   24.8204 N   0  0  0  0  0  0  0  0  0  0  0  0
    9.2477   -0.9088   25.6047 C   0  0  0  0  0  0  0  0  0  0  0  0
    9.4245   -1.0099   26.6757 H   0  0  0  0  0  0  0  0  0  0  0  0
    8.3280    0.0849   25.1398 C   0  0  0  0  0  0  0  0  0  0  0  0
    7.6224    0.9494   26.0347 C   0  0  0  0  0  0  0  0  0  0  0  0
    7.7657    0.8374   27.1086 H   0  0  0  0  0  0  0  0  0  0  0  0
    6.7858    1.9190   25.5435 C   0  0  0  0  0  0  0  0  0  0  0  0
    6.2578    2.5825   26.2221 H   0  0  0  0  0  0  0  0  0  0  0  0
    6.6168    2.0787   24.1454 C   0  0  0  0  0  0  0  0  0  0  0  0
    5.9695    2.8647   23.7686 H   0  0  0  0  0  0  0  0  0  0  0  0
    7.2677    1.2417   23.2614 C   0  0  0  0  0  0  0  0  0  0  0  0
    7.1338    1.3913   22.1962 H   0  0  0  0  0  0  0  0  0  0  0  0
    8.1390    0.2030   23.7281 C   0  0  0  0  0  0  0  0  0  0  0  0
    9.4933    0.5937   20.8076 C   0  0  0  0  0  0  0  0  0  0  0  0
    9.5091    0.5880   19.7155 H   0  0  0  0  0  0  0  0  0  0  0  0
   10.5258    0.5915   21.1703 H   0  0  0  0  0  0  0  0  0  0  0  0
    9.0263    1.5310   21.1244 H   0  0  0  0  0  0  0  0  0  0  0  0
    9.3881   -1.8906   20.6736 C   0  0  0  0  0  0  0  0  0  0  0  0
   10.4510   -1.9735   20.9124 H   0  0  0  0  0  0  0  0  0  0  0  0
    8.8641   -2.8026   20.9840 H   0  0  0  0  0  0  0  0  0  0  0  0
    9.3086   -1.7678   19.5937 H   0  0  0  0  0  0  0  0  0  0  0  0
    5.4874    0.5643   20.1616 C   0  0  0  0  0  0  0  0  0  0  0  0
    5.1126    0.5503   21.1872 H   0  0  0  0  0  0  0  0  0  0  0  0
    4.8362    1.2497   19.1334 C   0  0  0  0  0  0  0  0  0  0  0  0
    3.9093    1.7775   19.3092 H   0  0  0  0  0  0  0  0  0  0  0  0
  1  2  1  0
  2  3  2  0
  3  4  1  0
  4  5  1  0
  4  6  2  0
  6  7  1  0
  7  8  1  0
  7  9  1  0
  9 10  1  0
 10 11  2  0
 11 12  1  0
 11 13  1  0
 13 14  2  0
 14 15  1  0
 14 16  1  0
 16 17  2  0
 17 18  1  0
 17 19  1  0
 19 20  1  0
 19 21  2  0
 21 22  1  0
 21 23  1  0
 23 24  1  0
 23 25  2  0
  9 26  1  0
 26 27  1  0
 26 28  1  0
 26 29  1  0
  9 30  1  0
 30 31  1  0
 30 32  1  0
 30 33  1  0
  6 34  1  0
 34 35  1  0
 34 36  2  0
 36 37  1  0
 36  2  1  0
 25 10  1  0
 25 16  1  0
M  END
>  <cnnaffinity>  (1) 
-4.87908

>  <filename>  (1) 
CC(C)(Nc1cccnc1)c1cncc2ccccc12

$$$$
