
     RDKit          3D

 46 49  0  0  0  0  0  0  0  0999 V2000
    8.1632    2.4604   21.7306 C   0  0  0  0  0  0  0  0  0  0  0  0
    9.5223    1.7870   21.8951 C   0  0  0  0  0  0  0  0  0  0  0  0
    9.6052    0.5077   21.0148 C   0  0  0  0  0  0  0  0  0  0  0  0
    8.6442   -0.5778   21.3802 C   0  0  0  0  0  0  0  0  0  0  0  0
    8.8685   -1.4994   22.2967 N   0  0  0  0  0  0  0  0  0  0  0  0
    7.6627   -2.1116   22.4410 C   0  0  0  0  0  0  0  0  0  0  0  0
    7.4481   -3.1852   23.4841 C   0  0  0  0  0  0  0  0  0  0  0  0
    8.2545   -2.9862   24.7861 C   0  0  0  0  0  0  0  0  0  0  0  0
    7.5328   -3.8104   25.8659 C   0  0  0  0  0  0  0  0  0  0  0  0
    6.0845   -4.0101   25.3609 C   0  0  0  0  0  0  0  0  0  0  0  0
    6.0008   -3.2987   23.9997 C   0  0  0  0  0  0  0  0  0  0  0  0
    5.6090   -2.2876   24.1448 H   0  0  0  0  0  0  0  0  0  0  0  0
    5.3457   -3.8030   23.2846 H   0  0  0  0  0  0  0  0  0  0  0  0
    5.8642   -5.0776   25.2597 H   0  0  0  0  0  0  0  0  0  0  0  0
    5.3460   -3.6034   26.0612 H   0  0  0  0  0  0  0  0  0  0  0  0
    7.5629   -3.3026   26.8371 H   0  0  0  0  0  0  0  0  0  0  0  0
    8.0188   -4.7808   26.0094 H   0  0  0  0  0  0  0  0  0  0  0  0
    8.2131   -1.9290   25.0603 H   0  0  0  0  0  0  0  0  0  0  0  0
    9.3077   -3.2580   24.6722 H   0  0  0  0  0  0  0  0  0  0  0  0
    7.7621   -4.1257   23.0106 H   0  0  0  0  0  0  0  0  0  0  0  0
    6.7229   -1.6642   21.6229 N   0  0  0  0  0  0  0  0  0  0  0  0
    7.3626   -0.6971   20.9106 N   0  0  0  0  0  0  0  0  0  0  0  0
    6.6645   -0.0120   19.8708 C   0  0  0  0  0  0  0  0  0  0  0  0
    5.4456    0.6261   20.1326 C   0  0  0  0  0  0  0  0  0  0  0  0
    4.8081    1.3096   19.0919 C   0  0  0  0  0  0  0  0  0  0  0  0
    5.4007    1.3104   17.8237 C   0  0  0  0  0  0  0  0  0  0  0  0
    6.5455    0.6652   17.5486 N   0  0  0  0  0  0  0  0  0  0  0  0
    7.1600    0.0222   18.5522 C   0  0  0  0  0  0  0  0  0  0  0  0
    8.0839   -0.4999   18.2979 H   0  0  0  0  0  0  0  0  0  0  0  0
    4.9347    1.8470   17.0008 H   0  0  0  0  0  0  0  0  0  0  0  0
    3.8758    1.8437   19.2512 H   0  0  0  0  0  0  0  0  0  0  0  0
    5.0136    0.5725   21.1328 H   0  0  0  0  0  0  0  0  0  0  0  0
   10.6122    0.0911   21.0797 H   0  0  0  0  0  0  0  0  0  0  0  0
    9.4274    0.8145   19.9812 H   0  0  0  0  0  0  0  0  0  0  0  0
    9.8326    1.5276   23.3093 N   0  0  0  0  0  0  0  0  0  0  0  0
    8.9639    1.1232   24.3083 C   0  0  0  0  0  0  0  0  0  0  0  0
    9.7401    0.8770   25.4053 C   0  0  0  0  0  0  0  0  0  0  0  0
   11.0653    1.1021   25.1156 N   0  0  0  0  0  0  0  0  0  0  0  0
   11.0819    1.4750   23.8626 C   0  0  0  0  0  0  0  0  0  0  0  0
   11.9715    1.7249   23.2919 H   0  0  0  0  0  0  0  0  0  0  0  0
    9.4239    0.5383   26.3887 H   0  0  0  0  0  0  0  0  0  0  0  0
    7.9118    0.9936   24.0969 H   0  0  0  0  0  0  0  0  0  0  0  0
   10.3012    2.4779   21.5445 H   0  0  0  0  0  0  0  0  0  0  0  0
    8.1440    3.4521   22.1878 H   0  0  0  0  0  0  0  0  0  0  0  0
    7.9008    2.5558   20.6759 H   0  0  0  0  0  0  0  0  0  0  0  0
    7.3775    1.8529   22.1845 H   0  0  0  0  0  0  0  0  0  0  0  0
  1  2  1  0
  2  3  1  0
  3  4  1  0
  4  5  2  0
  5  6  1  0
  6  7  1  0
  7  8  1  0
  8  9  1  0
  9 10  1  0
 10 11  1  0
 11 12  1  0
 11 13  1  0
 10 14  1  0
 10 15  1  0
  9 16  1  0
  9 17  1  0
  8 18  1  0
  8 19  1  0
  7 20  1  0
  6 21  2  0
 21 22  1  0
 22 23  1  0
 23 24  2  0
 24 25  1  0
 25 26  2  0
 26 27  1  0
 27 28  2  0
 28 29  1  0
 26 30  1  0
 25 31  1  0
 24 32  1  0
  3 33  1  0
  3 34  1  0
  2 35  1  0
 35 36  1  0
 36 37  2  0
 37 38  1  0
 38 39  2  0
 39 40  1  0
 37 41  1  0
 36 42  1  0
  2 43  1  0
  1 44  1  0
  1 45  1  0
  1 46  1  0
 22  4  1  0
 28 23  1  0
 39 35  1  0
 11  7  1  0
M  END
>  <cnnaffinity>  (1) 
-6.09399

>  <filename>  (1) 
CC(Cc1nc(C2CCCC2)nn1-c1cccnc1)n1ccnc1

$$$$
