
     RDKit          3D

 44 46  0  0  0  0  0  0  0  0999 V2000
    6.4309   -4.8278   21.9034 C   0  0  0  0  0  0  0  0  0  0  0  0
    7.6147   -4.5482   22.8439 C   0  0  0  0  0  0  0  0  0  0  0  0
    8.4159   -5.8417   23.0625 C   0  0  0  0  0  0  0  0  0  0  0  0
    9.1780   -5.7044   23.8415 H   0  0  0  0  0  0  0  0  0  0  0  0
    7.7641   -6.6632   23.3769 H   0  0  0  0  0  0  0  0  0  0  0  0
    8.9216   -6.1634   22.1429 H   0  0  0  0  0  0  0  0  0  0  0  0
    7.1000   -4.0293   24.1969 C   0  0  0  0  0  0  0  0  0  0  0  0
    6.5106   -3.1139   24.0769 H   0  0  0  0  0  0  0  0  0  0  0  0
    6.4711   -4.7771   24.6954 H   0  0  0  0  0  0  0  0  0  0  0  0
    7.9389   -3.7883   24.8622 H   0  0  0  0  0  0  0  0  0  0  0  0
    8.5717   -3.5158   22.1903 C   0  0  0  0  0  0  0  0  0  0  0  0
    8.0088   -2.1534   21.9943 C   0  0  0  0  0  0  0  0  0  0  0  0
    7.5240   -1.7833   20.8294 N   0  0  0  0  0  0  0  0  0  0  0  0
    7.1117   -0.5047   21.0465 N   0  0  0  0  0  0  0  0  0  0  0  0
    6.4986    0.1851   19.9619 C   0  0  0  0  0  0  0  0  0  0  0  0
    5.2971    0.8985   20.0810 C   0  0  0  0  0  0  0  0  0  0  0  0
    4.7554    1.4580   18.9143 C   0  0  0  0  0  0  0  0  0  0  0  0
    5.4405    1.3199   17.7025 C   0  0  0  0  0  0  0  0  0  0  0  0
    6.5945    0.6388   17.5868 N   0  0  0  0  0  0  0  0  0  0  0  0
    7.0883    0.0709   18.6880 C   0  0  0  0  0  0  0  0  0  0  0  0
    7.9937   -0.5232   18.5776 H   0  0  0  0  0  0  0  0  0  0  0  0
    5.0766    1.7864   16.7888 H   0  0  0  0  0  0  0  0  0  0  0  0
    3.8283    2.0226   18.9334 H   0  0  0  0  0  0  0  0  0  0  0  0
    4.7767    0.9836   21.0383 H   0  0  0  0  0  0  0  0  0  0  0  0
    7.4315   -0.1596   22.3316 C   0  0  0  0  0  0  0  0  0  0  0  0
    7.2909    1.1729   23.0111 C   0  0  0  0  0  0  0  0  0  0  0  0
    8.6117    1.6745   23.5973 C   0  0  0  0  0  0  0  0  0  0  0  0
    8.8955    1.6323   24.9716 C   0  0  0  0  0  0  0  0  0  0  0  0
   10.0918    1.8942   25.5084 N   0  0  0  0  0  0  0  0  0  0  0  0
   11.0853    2.2281   24.6810 C   0  0  0  0  0  0  0  0  0  0  0  0
   10.9276    2.3734   23.3052 C   0  0  0  0  0  0  0  0  0  0  0  0
    9.6647    2.0978   22.7759 C   0  0  0  0  0  0  0  0  0  0  0  0
    9.3961    2.2912   21.0756 Cl  0  0  0  0  0  0  0  0  0  0  0  0
   11.7543    2.6841   22.6798 H   0  0  0  0  0  0  0  0  0  0  0  0
   12.0502    2.4142   25.1509 H   0  0  0  0  0  0  0  0  0  0  0  0
    8.0997    1.3798   25.6768 H   0  0  0  0  0  0  0  0  0  0  0  0
    6.5576    1.0507   23.8147 H   0  0  0  0  0  0  0  0  0  0  0  0
    6.8928    1.8986   22.3002 H   0  0  0  0  0  0  0  0  0  0  0  0
    7.9675   -1.1974   22.9525 N   0  0  0  0  0  0  0  0  0  0  0  0
    8.8480   -3.8653   21.1935 H   0  0  0  0  0  0  0  0  0  0  0  0
    9.4844   -3.4216   22.7885 H   0  0  0  0  0  0  0  0  0  0  0  0
    6.7845   -5.2364   20.9468 H   0  0  0  0  0  0  0  0  0  0  0  0
    5.8525   -3.9197   21.6929 H   0  0  0  0  0  0  0  0  0  0  0  0
    5.7528   -5.5678   22.3491 H   0  0  0  0  0  0  0  0  0  0  0  0
  1  2  1  0
  2  3  1  0
  3  4  1  0
  3  5  1  0
  3  6  1  0
  2  7  1  0
  7  8  1  0
  7  9  1  0
  7 10  1  0
  2 11  1  0
 11 12  1  0
 12 13  2  0
 13 14  1  0
 14 15  1  0
 15 16  2  0
 16 17  1  0
 17 18  2  0
 18 19  1  0
 19 20  2  0
 20 21  1  0
 18 22  1  0
 17 23  1  0
 16 24  1  0
 14 25  1  0
 25 26  1  0
 26 27  1  0
 27 28  2  0
 28 29  1  0
 29 30  2  0
 30 31  1  0
 31 32  2  0
 32 33  1  0
 31 34  1  0
 30 35  1  0
 28 36  1  0
 26 37  1  0
 26 38  1  0
 25 39  2  0
 11 40  1  0
 11 41  1  0
  1 42  1  0
  1 43  1  0
  1 44  1  0
 39 12  1  0
 20 15  1  0
 32 27  1  0
M  END
>  <cnnaffinity>  (1) 
-6.06458

>  <filename>  (1) 
CC(C)(C)Cc1nc(Cc2cnccc2Cl)n(-c2cccnc2)n1

$$$$
