
     RDKit          3D

 47 50  0  0  0  0  0  0  0  0999 V2000
    6.5494    1.2599   23.9621 C   0  0  0  0  0  0  0  0  0  0  0  0
    7.5022    1.2216   22.7584 C   0  0  0  0  0  0  0  0  0  0  0  0
    8.9103    1.7816   23.1248 C   0  0  0  0  0  0  0  0  0  0  0  0
    8.8377    3.2498   23.4737 C   0  0  0  0  0  0  0  0  0  0  0  0
    8.8939    3.7366   24.7901 C   0  0  0  0  0  0  0  0  0  0  0  0
    8.8082    5.1096   25.0529 C   0  0  0  0  0  0  0  0  0  0  0  0
    8.6759    5.9985   23.9858 C   0  0  0  0  0  0  0  0  0  0  0  0
    8.6315    7.3212   24.2286 F   0  0  0  0  0  0  0  0  0  0  0  0
    8.5853    5.5452   22.6710 C   0  0  0  0  0  0  0  0  0  0  0  0
    8.6410    4.1730   22.4333 C   0  0  0  0  0  0  0  0  0  0  0  0
    8.5336    3.8130   21.4112 H   0  0  0  0  0  0  0  0  0  0  0  0
    8.4679    6.2395   21.8464 H   0  0  0  0  0  0  0  0  0  0  0  0
    8.8370    5.4777   26.0709 H   0  0  0  0  0  0  0  0  0  0  0  0
    9.0087    3.0454   25.6253 H   0  0  0  0  0  0  0  0  0  0  0  0
    9.5781    1.6605   22.2600 H   0  0  0  0  0  0  0  0  0  0  0  0
    9.3545    1.1949   23.9424 H   0  0  0  0  0  0  0  0  0  0  0  0
    7.5879   -0.1698   22.2110 C   0  0  0  0  0  0  0  0  0  0  0  0
    8.0968   -1.1795   22.8974 N   0  0  0  0  0  0  0  0  0  0  0  0
    8.0601   -2.1959   22.0122 C   0  0  0  0  0  0  0  0  0  0  0  0
    8.6169   -3.5502   22.2883 C   0  0  0  0  0  0  0  0  0  0  0  0
    7.8418   -4.7323   21.6561 C   0  0  0  0  0  0  0  0  0  0  0  0
    8.2448   -5.9177   22.5463 C   0  0  0  0  0  0  0  0  0  0  0  0
    8.8203   -5.3787   23.7268 O   0  0  0  0  0  0  0  0  0  0  0  0
    8.6712   -3.9716   23.7570 C   0  0  0  0  0  0  0  0  0  0  0  0
    7.7539   -3.6958   24.2970 H   0  0  0  0  0  0  0  0  0  0  0  0
    9.5298   -3.5531   24.2912 H   0  0  0  0  0  0  0  0  0  0  0  0
    9.0111   -6.5466   22.0817 H   0  0  0  0  0  0  0  0  0  0  0  0
    7.3780   -6.5513   22.7940 H   0  0  0  0  0  0  0  0  0  0  0  0
    6.7564   -4.5624   21.7218 H   0  0  0  0  0  0  0  0  0  0  0  0
    8.0672   -4.8994   20.6004 H   0  0  0  0  0  0  0  0  0  0  0  0
    9.6516   -3.4724   21.9424 H   0  0  0  0  0  0  0  0  0  0  0  0
    7.5721   -1.8930   20.8241 N   0  0  0  0  0  0  0  0  0  0  0  0
    7.2327   -0.5889   20.9573 N   0  0  0  0  0  0  0  0  0  0  0  0
    6.5639    0.0591   19.8840 C   0  0  0  0  0  0  0  0  0  0  0  0
    5.3646    0.7517   20.0820 C   0  0  0  0  0  0  0  0  0  0  0  0
    4.7847    1.3915   18.9830 C   0  0  0  0  0  0  0  0  0  0  0  0
    5.4285    1.3297   17.7444 C   0  0  0  0  0  0  0  0  0  0  0  0
    6.5540    0.6222   17.5380 N   0  0  0  0  0  0  0  0  0  0  0  0
    7.0880   -0.0241   18.5794 C   0  0  0  0  0  0  0  0  0  0  0  0
    7.9646   -0.6359   18.3743 H   0  0  0  0  0  0  0  0  0  0  0  0
    5.0023    1.8357   16.8806 H   0  0  0  0  0  0  0  0  0  0  0  0
    3.8449    1.9220   19.0770 H   0  0  0  0  0  0  0  0  0  0  0  0
    4.8790    0.7673   21.0587 H   0  0  0  0  0  0  0  0  0  0  0  0
    7.0919    1.8750   21.9775 H   0  0  0  0  0  0  0  0  0  0  0  0
    5.5614    0.8836   23.6711 H   0  0  0  0  0  0  0  0  0  0  0  0
    6.9298    0.6415   24.7883 H   0  0  0  0  0  0  0  0  0  0  0  0
    6.4285    2.2872   24.3203 H   0  0  0  0  0  0  0  0  0  0  0  0
  1  2  1  0
  2  3  1  0
  3  4  1  0
  4  5  2  0
  5  6  1  0
  6  7  2  0
  7  8  1  0
  7  9  1  0
  9 10  2  0
 10 11  1  0
  9 12  1  0
  6 13  1  0
  5 14  1  0
  3 15  1  0
  3 16  1  0
  2 17  1  0
 17 18  2  0
 18 19  1  0
 19 20  1  0
 20 21  1  0
 21 22  1  0
 22 23  1  0
 23 24  1  0
 24 25  1  0
 24 26  1  0
 22 27  1  0
 22 28  1  0
 21 29  1  0
 21 30  1  0
 20 31  1  0
 19 32  2  0
 32 33  1  0
 33 34  1  0
 34 35  2  0
 35 36  1  0
 36 37  2  0
 37 38  1  0
 38 39  2  0
 39 40  1  0
 37 41  1  0
 36 42  1  0
 35 43  1  0
  2 44  1  0
  1 45  1  0
  1 46  1  0
  1 47  1  0
 10  4  1  0
 33 17  1  0
 39 34  1  0
 24 20  1  0
M  END
>  <cnnaffinity>  (1) 
-6.14625

>  <filename>  (1) 
CC(Cc1ccc(F)cc1)c1nc(C2CCOC2)nn1-c1cccnc1

$$$$
