
     RDKit          3D

 41 43  0  0  0  0  0  0  0  0999 V2000
    6.6123   -4.0992   23.3214 C   0  0  0  0  0  0  0  0  0  0  0  0
    7.4010   -2.8475   23.7508 C   0  0  0  0  0  0  0  0  0  0  0  0
    6.6802   -2.0868   24.8956 C   0  0  0  0  0  0  0  0  0  0  0  0
    7.2729   -1.2278   25.2382 H   0  0  0  0  0  0  0  0  0  0  0  0
    6.5153   -2.7471   25.7562 H   0  0  0  0  0  0  0  0  0  0  0  0
    5.7032   -1.7087   24.5638 H   0  0  0  0  0  0  0  0  0  0  0  0
    7.6697   -1.9332   22.5798 C   0  0  0  0  0  0  0  0  0  0  0  0
    6.7264   -1.5535   21.7377 N   0  0  0  0  0  0  0  0  0  0  0  0
    7.3690   -0.6645   20.9406 N   0  0  0  0  0  0  0  0  0  0  0  0
    6.6653    0.0024   19.9007 C   0  0  0  0  0  0  0  0  0  0  0  0
    5.4465    0.6376   20.1635 C   0  0  0  0  0  0  0  0  0  0  0  0
    4.8135    1.3061   19.1104 C   0  0  0  0  0  0  0  0  0  0  0  0
    5.4008    1.2936   17.8396 C   0  0  0  0  0  0  0  0  0  0  0  0
    6.5564    0.6658   17.5763 N   0  0  0  0  0  0  0  0  0  0  0  0
    7.1691    0.0440   18.5896 C   0  0  0  0  0  0  0  0  0  0  0  0
    8.1116   -0.4464   18.3529 H   0  0  0  0  0  0  0  0  0  0  0  0
    4.9306    1.7985   16.9982 H   0  0  0  0  0  0  0  0  0  0  0  0
    3.8800    1.8387   19.2589 H   0  0  0  0  0  0  0  0  0  0  0  0
    5.0225    0.5990   21.1671 H   0  0  0  0  0  0  0  0  0  0  0  0
    8.6522   -0.5209   21.3785 C   0  0  0  0  0  0  0  0  0  0  0  0
    9.5261    0.6150   20.9383 C   0  0  0  0  0  0  0  0  0  0  0  0
    9.0109    2.0123   21.4100 C   0  0  0  0  0  0  0  0  0  0  0  0
    8.8099    2.0879   22.9099 C   0  0  0  0  0  0  0  0  0  0  0  0
    7.5981    1.9277   23.3645 N   0  0  0  0  0  0  0  0  0  0  0  0
    7.4637    1.8160   24.7194 N   0  0  0  0  0  0  0  0  0  0  0  0
    8.4355    1.9361   25.6995 C   0  0  0  0  0  0  0  0  0  0  0  0
    8.1091    1.8934   26.8746 O   0  0  0  0  0  0  0  0  0  0  0  0
    9.7811    2.1136   25.1476 C   0  0  0  0  0  0  0  0  0  0  0  0
    9.9585    2.2031   23.7989 C   0  0  0  0  0  0  0  0  0  0  0  0
   10.9340    2.3363   23.3390 H   0  0  0  0  0  0  0  0  0  0  0  0
   10.5778    2.1189   25.8798 H   0  0  0  0  0  0  0  0  0  0  0  0
    6.5437    1.6927   25.1198 H   0  0  0  0  0  0  0  0  0  0  0  0
    9.7376    2.7726   21.1140 H   0  0  0  0  0  0  0  0  0  0  0  0
    8.0654    2.2497   20.9086 H   0  0  0  0  0  0  0  0  0  0  0  0
    9.5853    0.5952   19.8492 H   0  0  0  0  0  0  0  0  0  0  0  0
   10.5292    0.4159   21.3296 H   0  0  0  0  0  0  0  0  0  0  0  0
    8.8824   -1.3514   22.3781 N   0  0  0  0  0  0  0  0  0  0  0  0
    8.4018   -3.1341   24.0995 H   0  0  0  0  0  0  0  0  0  0  0  0
    7.1341   -4.6419   22.5248 H   0  0  0  0  0  0  0  0  0  0  0  0
    6.4800   -4.7793   24.1707 H   0  0  0  0  0  0  0  0  0  0  0  0
    5.6216   -3.8164   22.9419 H   0  0  0  0  0  0  0  0  0  0  0  0
  1  2  1  0
  2  3  1  0
  3  4  1  0
  3  5  1  0
  3  6  1  0
  2  7  1  0
  7  8  2  0
  8  9  1  0
  9 10  1  0
 10 11  2  0
 11 12  1  0
 12 13  2  0
 13 14  1  0
 14 15  2  0
 15 16  1  0
 13 17  1  0
 12 18  1  0
 11 19  1  0
  9 20  1  0
 20 21  1  0
 21 22  1  0
 22 23  1  0
 23 24  2  0
 24 25  1  0
 25 26  1  0
 26 27  2  0
 26 28  1  0
 28 29  2  0
 29 30  1  0
 28 31  1  0
 25 32  1  0
 22 33  1  0
 22 34  1  0
 21 35  1  0
 21 36  1  0
 20 37  2  0
  2 38  1  0
  1 39  1  0
  1 40  1  0
  1 41  1  0
 37  7  1  0
 15 10  1  0
 29 23  1  0
M  END
>  <cnnaffinity>  (1) 
-5.77977

>  <filename>  (1) 
CC(C)c1nc(CCc2ccc(=O)[nH]n2)n(-c2cccnc2)n1

$$$$
