
     RDKit          3D

 49 52  0  0  0  0  0  0  0  0999 V2000
    7.7997    0.6832   28.4118 C   0  0  0  0  0  0  0  0  0  0  0  0
    8.1834    0.1468   27.0324 C   0  0  0  0  0  0  0  0  0  0  0  0
    8.2858   -1.3859   27.0001 C   0  0  0  0  0  0  0  0  0  0  0  0
    7.3446   -1.8640   27.2990 H   0  0  0  0  0  0  0  0  0  0  0  0
    9.0728   -1.7156   27.6848 H   0  0  0  0  0  0  0  0  0  0  0  0
    8.5451   -1.7369   25.9949 H   0  0  0  0  0  0  0  0  0  0  0  0
    7.2925    0.6631   25.9672 N   0  0  0  0  0  0  0  0  0  0  0  0
    6.0383    0.2691   25.6261 C   0  0  0  0  0  0  0  0  0  0  0  0
    5.7796    0.8222   24.3887 C   0  0  0  0  0  0  0  0  0  0  0  0
    6.9572    1.5033   24.0342 C   0  0  0  0  0  0  0  0  0  0  0  0
    7.4011    2.0352   22.6976 C   0  0  0  0  0  0  0  0  0  0  0  0
    8.3835    1.0599   22.1265 C   0  0  0  0  0  0  0  0  0  0  0  0
    9.6929    1.1665   22.2434 N   0  0  0  0  0  0  0  0  0  0  0  0
   10.1385   -0.0614   21.8822 C   0  0  0  0  0  0  0  0  0  0  0  0
   11.5465   -0.4880   21.7977 C   0  0  0  0  0  0  0  0  0  0  0  0
   11.7928   -1.6832   21.1036 C   0  0  0  0  0  0  0  0  0  0  0  0
   13.0837   -2.0270   20.7405 C   0  0  0  0  0  0  0  0  0  0  0  0
   14.1485   -1.2825   21.2218 C   0  0  0  0  0  0  0  0  0  0  0  0
   13.9350   -0.1539   22.0140 C   0  0  0  0  0  0  0  0  0  0  0  0
   12.6298    0.2782   22.2723 C   0  0  0  0  0  0  0  0  0  0  0  0
   12.4507    1.2081   22.8067 H   0  0  0  0  0  0  0  0  0  0  0  0
   14.7966    0.4157   22.3460 H   0  0  0  0  0  0  0  0  0  0  0  0
   15.1243   -1.5985   20.9064 H   0  0  0  0  0  0  0  0  0  0  0  0
   13.2958   -2.8369   20.0511 H   0  0  0  0  0  0  0  0  0  0  0  0
   10.9357   -2.2855   20.8113 H   0  0  0  0  0  0  0  0  0  0  0  0
    9.1725   -0.8934   21.5162 N   0  0  0  0  0  0  0  0  0  0  0  0
    8.0490   -0.1692   21.6715 N   0  0  0  0  0  0  0  0  0  0  0  0
    6.7859   -0.6932   21.1548 C   0  0  0  0  0  0  0  0  0  0  0  0
    6.2786    0.0711   19.9521 C   0  0  0  0  0  0  0  0  0  0  0  0
    5.0701    0.7697   19.9620 C   0  0  0  0  0  0  0  0  0  0  0  0
    4.6792    1.4618   18.8132 C   0  0  0  0  0  0  0  0  0  0  0  0
    5.5195    1.4348   17.6954 C   0  0  0  0  0  0  0  0  0  0  0  0
    6.6884    0.7744   17.6671 N   0  0  0  0  0  0  0  0  0  0  0  0
    7.0547    0.1243   18.7780 C   0  0  0  0  0  0  0  0  0  0  0  0
    8.0250   -0.3742   18.7391 H   0  0  0  0  0  0  0  0  0  0  0  0
    5.2416    1.9659   16.7857 H   0  0  0  0  0  0  0  0  0  0  0  0
    3.7567    2.0290   18.7795 H   0  0  0  0  0  0  0  0  0  0  0  0
    4.4510    0.7828   20.8632 H   0  0  0  0  0  0  0  0  0  0  0  0
    6.9997   -1.7325   20.8901 H   0  0  0  0  0  0  0  0  0  0  0  0
    6.0446   -0.7081   21.9613 H   0  0  0  0  0  0  0  0  0  0  0  0
    6.5456    2.1632   22.0252 H   0  0  0  0  0  0  0  0  0  0  0  0
    7.9324    2.9787   22.8374 H   0  0  0  0  0  0  0  0  0  0  0  0
    7.8373    1.4352   25.0171 N   0  0  0  0  0  0  0  0  0  0  0  0
    4.8849    0.7402   23.7884 H   0  0  0  0  0  0  0  0  0  0  0  0
    5.4518   -0.3732   26.2770 H   0  0  0  0  0  0  0  0  0  0  0  0
    9.1672    0.5510   26.7720 H   0  0  0  0  0  0  0  0  0  0  0  0
    6.8173    0.3145   28.7281 H   0  0  0  0  0  0  0  0  0  0  0  0
    7.7814    1.7769   28.4101 H   0  0  0  0  0  0  0  0  0  0  0  0
    8.5446    0.3622   29.1495 H   0  0  0  0  0  0  0  0  0  0  0  0
  1  2  1  0
  2  3  1  0
  3  4  1  0
  3  5  1  0
  3  6  1  0
  2  7  1  0
  7  8  1  0
  8  9  2  0
  9 10  1  0
 10 11  1  0
 11 12  1  0
 12 13  2  0
 13 14  1  0
 14 15  1  0
 15 16  2  0
 16 17  1  0
 17 18  2  0
 18 19  1  0
 19 20  2  0
 20 21  1  0
 19 22  1  0
 18 23  1  0
 17 24  1  0
 16 25  1  0
 14 26  2  0
 26 27  1  0
 27 28  1  0
 28 29  1  0
 29 30  2  0
 30 31  1  0
 31 32  2  0
 32 33  1  0
 33 34  2  0
 34 35  1  0
 32 36  1  0
 31 37  1  0
 30 38  1  0
 28 39  1  0
 28 40  1  0
 11 41  1  0
 11 42  1  0
 10 43  2  0
  9 44  1  0
  8 45  1  0
  2 46  1  0
  1 47  1  0
  1 48  1  0
  1 49  1  0
 43  7  1  0
 27 12  1  0
 34 29  1  0
 20 15  1  0
M  END
>  <cnnaffinity>  (1) 
-6.56517

>  <filename>  (1) 
CC(C)n1ccc(Cc2nc(-c3ccccc3)nn2Cc2cccnc2)n1

$$$$
