
     RDKit          3D

 50 53  0  0  0  0  0  0  0  0999 V2000
    8.2179    2.4808   21.5718 C   0  0  0  0  0  0  0  0  0  0  0  0
    9.5401    1.7674   21.8692 C   0  0  0  0  0  0  0  0  0  0  0  0
    9.6362    0.4644   21.0090 C   0  0  0  0  0  0  0  0  0  0  0  0
    8.6498   -0.6053   21.3535 C   0  0  0  0  0  0  0  0  0  0  0  0
    8.8798   -1.5433   22.2492 N   0  0  0  0  0  0  0  0  0  0  0  0
    7.6560   -2.0946   22.4526 C   0  0  0  0  0  0  0  0  0  0  0  0
    7.4540   -3.0947   23.5445 C   0  0  0  0  0  0  0  0  0  0  0  0
    7.2077   -2.4322   24.9164 C   0  0  0  0  0  0  0  0  0  0  0  0
    5.9130   -1.6138   24.9455 C   0  0  0  0  0  0  0  0  0  0  0  0
    5.5364   -1.4595   26.4267 C   0  0  0  0  0  0  0  0  0  0  0  0
    6.2555   -2.6235   27.1523 C   0  0  0  0  0  0  0  0  0  0  0  0
    6.9927   -3.4244   26.0623 C   0  0  0  0  0  0  0  0  0  0  0  0
    6.3743   -4.2548   25.6970 H   0  0  0  0  0  0  0  0  0  0  0  0
    7.9347   -3.8445   26.4353 H   0  0  0  0  0  0  0  0  0  0  0  0
    5.5818   -3.2522   27.7457 H   0  0  0  0  0  0  0  0  0  0  0  0
    6.9953   -2.1964   27.8307 H   0  0  0  0  0  0  0  0  0  0  0  0
    5.8835   -0.5009   26.8313 H   0  0  0  0  0  0  0  0  0  0  0  0
    4.4483   -1.4769   26.5484 H   0  0  0  0  0  0  0  0  0  0  0  0
    5.1426   -2.2195   24.4518 H   0  0  0  0  0  0  0  0  0  0  0  0
    5.9847   -0.6616   24.4064 H   0  0  0  0  0  0  0  0  0  0  0  0
    8.0682   -1.7931   25.1752 H   0  0  0  0  0  0  0  0  0  0  0  0
    8.3505   -3.7186   23.5789 H   0  0  0  0  0  0  0  0  0  0  0  0
    6.6006   -3.7346   23.2956 H   0  0  0  0  0  0  0  0  0  0  0  0
    6.6983   -1.6105   21.6862 N   0  0  0  0  0  0  0  0  0  0  0  0
    7.3487   -0.6783   20.9332 N   0  0  0  0  0  0  0  0  0  0  0  0
    6.6578   -0.0118   19.8798 C   0  0  0  0  0  0  0  0  0  0  0  0
    5.4377    0.6219   20.1364 C   0  0  0  0  0  0  0  0  0  0  0  0
    4.8134    1.3072   19.0912 C   0  0  0  0  0  0  0  0  0  0  0  0
    5.4092    1.3124   17.8272 C   0  0  0  0  0  0  0  0  0  0  0  0
    6.5553    0.6663   17.5588 N   0  0  0  0  0  0  0  0  0  0  0  0
    7.1614    0.0204   18.5659 C   0  0  0  0  0  0  0  0  0  0  0  0
    8.0811   -0.5095   18.3117 H   0  0  0  0  0  0  0  0  0  0  0  0
    4.9474    1.8505   17.0025 H   0  0  0  0  0  0  0  0  0  0  0  0
    3.8847    1.8413   19.2487 H   0  0  0  0  0  0  0  0  0  0  0  0
    5.0015    0.5696   21.1343 H   0  0  0  0  0  0  0  0  0  0  0  0
   10.6290    0.0216   21.1125 H   0  0  0  0  0  0  0  0  0  0  0  0
    9.5061    0.7585   19.9655 H   0  0  0  0  0  0  0  0  0  0  0  0
    9.7416    1.5447   23.3134 N   0  0  0  0  0  0  0  0  0  0  0  0
   10.9753    1.3589   23.9068 C   0  0  0  0  0  0  0  0  0  0  0  0
   10.7895    0.9633   25.2049 C   0  0  0  0  0  0  0  0  0  0  0  0
    9.3870    0.9286   25.4388 C   0  0  0  0  0  0  0  0  0  0  0  0
    8.7721    1.2773   24.2655 C   0  0  0  0  0  0  0  0  0  0  0  0
    7.7200    1.3332   24.0204 H   0  0  0  0  0  0  0  0  0  0  0  0
    8.8881    0.6246   26.3552 H   0  0  0  0  0  0  0  0  0  0  0  0
   11.5663    0.6411   25.8849 H   0  0  0  0  0  0  0  0  0  0  0  0
   11.8874    1.5282   23.3455 H   0  0  0  0  0  0  0  0  0  0  0  0
   10.3834    2.4043   21.5617 H   0  0  0  0  0  0  0  0  0  0  0  0
    8.0337    2.4919   20.4979 H   0  0  0  0  0  0  0  0  0  0  0  0
    8.2091    3.5048   21.9614 H   0  0  0  0  0  0  0  0  0  0  0  0
    7.3762    1.9198   21.9921 H   0  0  0  0  0  0  0  0  0  0  0  0
  1  2  1  0
  2  3  1  0
  3  4  1  0
  4  5  2  0
  5  6  1  0
  6  7  1  0
  7  8  1  0
  8  9  1  0
  9 10  1  0
 10 11  1  0
 11 12  1  0
 12 13  1  0
 12 14  1  0
 11 15  1  0
 11 16  1  0
 10 17  1  0
 10 18  1  0
  9 19  1  0
  9 20  1  0
  8 21  1  0
  7 22  1  0
  7 23  1  0
  6 24  2  0
 24 25  1  0
 25 26  1  0
 26 27  2  0
 27 28  1  0
 28 29  2  0
 29 30  1  0
 30 31  2  0
 31 32  1  0
 29 33  1  0
 28 34  1  0
 27 35  1  0
  3 36  1  0
  3 37  1  0
  2 38  1  0
 38 39  1  0
 39 40  2  0
 40 41  1  0
 41 42  2  0
 42 43  1  0
 41 44  1  0
 40 45  1  0
 39 46  1  0
  2 47  1  0
  1 48  1  0
  1 49  1  0
  1 50  1  0
 25  4  1  0
 31 26  1  0
 42 38  1  0
 12  8  1  0
M  END
>  <cnnaffinity>  (1) 
-6.09314

>  <filename>  (1) 
CC(Cc1nc(CC2CCCC2)nn1-c1cccnc1)n1cccc1

$$$$
