
     RDKit          3D

 45 47  0  0  0  0  0  0  0  0999 V2000
    6.7847   -4.9512   21.8224 C   0  0  0  0  0  0  0  0  0  0  0  0
    7.9454   -4.5585   22.7380 C   0  0  0  0  0  0  0  0  0  0  0  0
    7.4641   -4.1541   24.1353 C   0  0  0  0  0  0  0  0  0  0  0  0
    6.8761   -4.9581   24.5913 H   0  0  0  0  0  0  0  0  0  0  0  0
    8.3077   -3.9465   24.8034 H   0  0  0  0  0  0  0  0  0  0  0  0
    6.8371   -3.2539   24.1066 H   0  0  0  0  0  0  0  0  0  0  0  0
    8.8090   -3.4696   22.0596 C   0  0  0  0  0  0  0  0  0  0  0  0
    8.1521   -2.1407   21.8883 C   0  0  0  0  0  0  0  0  0  0  0  0
    7.6479   -1.8050   20.7190 N   0  0  0  0  0  0  0  0  0  0  0  0
    7.1308   -0.5738   20.9338 N   0  0  0  0  0  0  0  0  0  0  0  0
    6.4891    0.0927   19.8664 C   0  0  0  0  0  0  0  0  0  0  0  0
    5.2846    0.7807   20.0405 C   0  0  0  0  0  0  0  0  0  0  0  0
    4.7360    1.4207   18.9275 C   0  0  0  0  0  0  0  0  0  0  0  0
    5.4124    1.3534   17.7070 C   0  0  0  0  0  0  0  0  0  0  0  0
    6.5569    0.6673   17.5309 N   0  0  0  0  0  0  0  0  0  0  0  0
    7.0697    0.0338   18.5864 C   0  0  0  0  0  0  0  0  0  0  0  0
    7.9831   -0.5397   18.4264 H   0  0  0  0  0  0  0  0  0  0  0  0
    5.0136    1.8466   16.8269 H   0  0  0  0  0  0  0  0  0  0  0  0
    3.8061    1.9725   19.0049 H   0  0  0  0  0  0  0  0  0  0  0  0
    4.7942    0.8097   21.0130 H   0  0  0  0  0  0  0  0  0  0  0  0
    7.4004   -0.2037   22.2178 C   0  0  0  0  0  0  0  0  0  0  0  0
    7.0486    1.1466   22.7929 C   0  0  0  0  0  0  0  0  0  0  0  0
    8.0159    1.6471   23.7769 N   0  0  0  0  0  0  0  0  0  0  0  0
    9.1588    2.2617   23.3366 C   0  0  0  0  0  0  0  0  0  0  0  0
   10.2640    2.3384   24.1420 C   0  0  0  0  0  0  0  0  0  0  0  0
   11.4813    3.0961   23.7015 C   0  0  0  0  0  0  0  0  0  0  0  0
   11.6372    4.2205   24.4297 F   0  0  0  0  0  0  0  0  0  0  0  0
   12.6087    2.3736   23.8519 F   0  0  0  0  0  0  0  0  0  0  0  0
   11.4193    3.4748   22.4114 F   0  0  0  0  0  0  0  0  0  0  0  0
   10.2340    1.7239   25.4329 C   0  0  0  0  0  0  0  0  0  0  0  0
    9.0827    1.1862   25.9038 C   0  0  0  0  0  0  0  0  0  0  0  0
    7.8422    1.2667   25.1512 C   0  0  0  0  0  0  0  0  0  0  0  0
    6.7374    1.0219   25.5985 O   0  0  0  0  0  0  0  0  0  0  0  0
    8.9966    0.7314   26.8803 H   0  0  0  0  0  0  0  0  0  0  0  0
   11.1327    1.6779   26.0407 H   0  0  0  0  0  0  0  0  0  0  0  0
    9.1304    2.6593   22.3181 H   0  0  0  0  0  0  0  0  0  0  0  0
    6.9817    1.8737   21.9797 H   0  0  0  0  0  0  0  0  0  0  0  0
    6.0776    1.0952   23.2943 H   0  0  0  0  0  0  0  0  0  0  0  0
    8.0262   -1.1882   22.8444 N   0  0  0  0  0  0  0  0  0  0  0  0
    9.0164   -3.7793   21.0331 H   0  0  0  0  0  0  0  0  0  0  0  0
    9.7563   -3.3330   22.5943 H   0  0  0  0  0  0  0  0  0  0  0  0
    8.5906   -5.4443   22.8534 H   0  0  0  0  0  0  0  0  0  0  0  0
    7.1534   -5.2860   20.8462 H   0  0  0  0  0  0  0  0  0  0  0  0
    6.1988   -5.7705   22.2502 H   0  0  0  0  0  0  0  0  0  0  0  0
    6.1052   -4.1113   21.6418 H   0  0  0  0  0  0  0  0  0  0  0  0
  1  2  1  0
  2  3  1  0
  3  4  1  0
  3  5  1  0
  3  6  1  0
  2  7  1  0
  7  8  1  0
  8  9  2  0
  9 10  1  0
 10 11  1  0
 11 12  2  0
 12 13  1  0
 13 14  2  0
 14 15  1  0
 15 16  2  0
 16 17  1  0
 14 18  1  0
 13 19  1  0
 12 20  1  0
 10 21  1  0
 21 22  1  0
 22 23  1  0
 23 24  1  0
 24 25  2  0
 25 26  1  0
 26 27  1  0
 26 28  1  0
 26 29  1  0
 25 30  1  0
 30 31  2  0
 31 32  1  0
 32 33  2  0
 31 34  1  0
 30 35  1  0
 24 36  1  0
 22 37  1  0
 22 38  1  0
 21 39  2  0
  7 40  1  0
  7 41  1  0
  2 42  1  0
  1 43  1  0
  1 44  1  0
  1 45  1  0
 39  8  1  0
 16 11  1  0
 32 23  1  0
M  END
>  <cnnaffinity>  (1) 
-6.07506

>  <filename>  (1) 
CC(C)Cc1nc(Cn2cc(C(F)(F)F)ccc2=O)n(-c2cccnc2)n1

$$$$
