
     RDKit          3D

 32 33  0  0  0  0  0  0  0  0999 V2000
    4.9314    1.7933   16.9612 H   0  0  0  0  0  0  0  0  0  0  0  0
    5.3946    1.2979   17.8150 C   0  0  0  0  0  0  0  0  0  0  0  0
    6.5598    0.6794   17.5807 N   0  0  0  0  0  0  0  0  0  0  0  0
    7.1618    0.0882   18.6239 C   0  0  0  0  0  0  0  0  0  0  0  0
    8.1038   -0.4020   18.3974 H   0  0  0  0  0  0  0  0  0  0  0  0
    6.6534    0.0602   19.9390 C   0  0  0  0  0  0  0  0  0  0  0  0
    7.3887   -0.7595   21.0096 C   0  0  0  0  0  0  0  0  0  0  0  0
    8.8298   -0.7192   20.7324 N   0  0  0  0  0  0  0  0  0  0  0  0
    9.3154   -1.5993   20.8432 H   0  0  0  0  0  0  0  0  0  0  0  0
    9.6124    0.3684   21.0929 C   0  0  0  0  0  0  0  0  0  0  0  0
    9.0510    1.6570   21.1594 C   0  0  0  0  0  0  0  0  0  0  0  0
    8.0137    1.7959   20.8915 H   0  0  0  0  0  0  0  0  0  0  0  0
    9.7815    2.7504   21.6035 C   0  0  0  0  0  0  0  0  0  0  0  0
    9.2521    3.6980   21.7102 H   0  0  0  0  0  0  0  0  0  0  0  0
   11.1408    2.6199   21.9057 C   0  0  0  0  0  0  0  0  0  0  0  0
   11.7321    3.4815   22.2045 H   0  0  0  0  0  0  0  0  0  0  0  0
   11.7488    1.3643   21.7828 C   0  0  0  0  0  0  0  0  0  0  0  0
   12.8174    1.2348   21.9442 H   0  0  0  0  0  0  0  0  0  0  0  0
   10.9872    0.2535   21.4000 C   0  0  0  0  0  0  0  0  0  0  0  0
   11.7597   -1.3147   21.3932 Cl  0  0  0  0  0  0  0  0  0  0  0  0
    6.9300   -2.2139   20.8873 C   0  0  0  0  0  0  0  0  0  0  0  0
    6.9226   -2.5383   19.8481 H   0  0  0  0  0  0  0  0  0  0  0  0
    5.8965   -2.3092   21.2354 H   0  0  0  0  0  0  0  0  0  0  0  0
    7.5650   -2.8734   21.4927 H   0  0  0  0  0  0  0  0  0  0  0  0
    7.0975   -0.2936   22.4562 C   0  0  0  0  0  0  0  0  0  0  0  0
    6.0852   -0.5612   22.7554 H   0  0  0  0  0  0  0  0  0  0  0  0
    7.7864   -0.8093   23.1313 H   0  0  0  0  0  0  0  0  0  0  0  0
    7.2126    0.7824   22.6086 H   0  0  0  0  0  0  0  0  0  0  0  0
    5.4213    0.6919   20.1514 C   0  0  0  0  0  0  0  0  0  0  0  0
    4.9560    0.7079   21.1383 H   0  0  0  0  0  0  0  0  0  0  0  0
    4.7886    1.3249   19.0752 C   0  0  0  0  0  0  0  0  0  0  0  0
    3.8499    1.8510   19.2029 H   0  0  0  0  0  0  0  0  0  0  0  0
  1  2  1  0
  2  3  2  0
  3  4  1  0
  4  5  1  0
  4  6  2  0
  6  7  1  0
  7  8  1  0
  8  9  1  0
  8 10  1  0
 10 11  2  0
 11 12  1  0
 11 13  1  0
 13 14  1  0
 13 15  2  0
 15 16  1  0
 15 17  1  0
 17 18  1  0
 17 19  2  0
 19 20  1  0
  7 21  1  0
 21 22  1  0
 21 23  1  0
 21 24  1  0
  7 25  1  0
 25 26  1  0
 25 27  1  0
 25 28  1  0
  6 29  1  0
 29 30  1  0
 29 31  2  0
 31 32  1  0
 31  2  1  0
 19 10  1  0
M  END
>  <cnnaffinity>  (1) 
-5.24

>  <filename>  (1) 
CC(C)(Nc1ccccc1Cl)c1cccnc1

$$$$
