
     RDKit          3D

 42 44  0  0  0  0  0  0  0  0999 V2000
    6.3185   -5.9462   23.3633 C   0  0  0  0  0  0  0  0  0  0  0  0
    7.5472   -5.2749   23.9753 C   0  0  0  0  0  0  0  0  0  0  0  0
    8.7802   -6.1561   24.0929 C   0  0  0  0  0  0  0  0  0  0  0  0
    8.7273   -6.7517   25.0044 H   0  0  0  0  0  0  0  0  0  0  0  0
    8.8802   -6.8107   23.2211 H   0  0  0  0  0  0  0  0  0  0  0  0
    9.6723   -5.5266   24.1677 H   0  0  0  0  0  0  0  0  0  0  0  0
    7.9049   -4.2208   23.0952 O   0  0  0  0  0  0  0  0  0  0  0  0
    7.4399   -2.9485   23.5654 C   0  0  0  0  0  0  0  0  0  0  0  0
    7.6247   -1.9074   22.5171 C   0  0  0  0  0  0  0  0  0  0  0  0
    6.7285   -1.6329   21.6002 N   0  0  0  0  0  0  0  0  0  0  0  0
    7.3114   -0.6339   20.9113 N   0  0  0  0  0  0  0  0  0  0  0  0
    6.6659    0.0368   19.8684 C   0  0  0  0  0  0  0  0  0  0  0  0
    5.4305    0.6504   20.0925 C   0  0  0  0  0  0  0  0  0  0  0  0
    4.8283    1.3182   19.0259 C   0  0  0  0  0  0  0  0  0  0  0  0
    5.4534    1.3343   17.7716 C   0  0  0  0  0  0  0  0  0  0  0  0
    6.6308    0.7213   17.5437 N   0  0  0  0  0  0  0  0  0  0  0  0
    7.2200    0.0914   18.5794 C   0  0  0  0  0  0  0  0  0  0  0  0
    8.1697   -0.4033   18.4057 H   0  0  0  0  0  0  0  0  0  0  0  0
    4.9628    1.8590   16.9571 H   0  0  0  0  0  0  0  0  0  0  0  0
    3.8824    1.8335   19.1584 H   0  0  0  0  0  0  0  0  0  0  0  0
    4.9688    0.6260   21.0801 H   0  0  0  0  0  0  0  0  0  0  0  0
    8.5462   -0.3468   21.4890 C   0  0  0  0  0  0  0  0  0  0  0  0
    9.4850    0.7794   21.1791 C   0  0  0  0  0  0  0  0  0  0  0  0
    8.9725    2.0512   21.8211 C   0  0  0  0  0  0  0  0  0  0  0  0
    7.6978    2.5127   21.4865 C   0  0  0  0  0  0  0  0  0  0  0  0
    7.2407    3.6784   22.0917 C   0  0  0  0  0  0  0  0  0  0  0  0
    5.5242    4.4040   21.6764 Br  0  0  0  0  0  0  0  0  0  0  0  0
    8.0615    4.3279   23.0237 C   0  0  0  0  0  0  0  0  0  0  0  0
    9.2742    3.8794   23.3921 N   0  0  0  0  0  0  0  0  0  0  0  0
    9.7222    2.7624   22.7888 C   0  0  0  0  0  0  0  0  0  0  0  0
   10.6988    2.3893   23.0752 H   0  0  0  0  0  0  0  0  0  0  0  0
    7.6796    5.2347   23.4791 H   0  0  0  0  0  0  0  0  0  0  0  0
    7.0714    1.9801   20.7778 H   0  0  0  0  0  0  0  0  0  0  0  0
   10.4796    0.5359   21.5660 H   0  0  0  0  0  0  0  0  0  0  0  0
    9.5439    0.9077   20.0987 H   0  0  0  0  0  0  0  0  0  0  0  0
    8.7744   -1.1420   22.4856 N   0  0  0  0  0  0  0  0  0  0  0  0
    8.0140   -2.6563   24.4490 H   0  0  0  0  0  0  0  0  0  0  0  0
    6.3829   -2.9968   23.8384 H   0  0  0  0  0  0  0  0  0  0  0  0
    7.2960   -4.8901   24.9708 H   0  0  0  0  0  0  0  0  0  0  0  0
    6.5807   -6.4467   22.4259 H   0  0  0  0  0  0  0  0  0  0  0  0
    5.5565   -5.1897   23.1509 H   0  0  0  0  0  0  0  0  0  0  0  0
    5.8801   -6.6713   24.0494 H   0  0  0  0  0  0  0  0  0  0  0  0
  1  2  1  0
  2  3  1  0
  3  4  1  0
  3  5  1  0
  3  6  1  0
  2  7  1  0
  7  8  1  0
  8  9  1  0
  9 10  2  0
 10 11  1  0
 11 12  1  0
 12 13  2  0
 13 14  1  0
 14 15  2  0
 15 16  1  0
 16 17  2  0
 17 18  1  0
 15 19  1  0
 14 20  1  0
 13 21  1  0
 11 22  1  0
 22 23  1  0
 23 24  1  0
 24 25  2  0
 25 26  1  0
 26 27  1  0
 26 28  2  0
 28 29  1  0
 29 30  2  0
 30 31  1  0
 28 32  1  0
 25 33  1  0
 23 34  1  0
 23 35  1  0
 22 36  2  0
  8 37  1  0
  8 38  1  0
  2 39  1  0
  1 40  1  0
  1 41  1  0
  1 42  1  0
 36  9  1  0
 17 12  1  0
 30 24  1  0
M  END
>  <cnnaffinity>  (1) 
-5.86768

>  <filename>  (1) 
CC(C)OCc1nc(Cc2cncc(Br)c2)n(-c2cccnc2)n1

$$$$
