
     RDKit          3D

 33 34  0  0  0  0  0  0  0  0999 V2000
    4.9486    1.7648   17.0152 H   0  0  0  0  0  0  0  0  0  0  0  0
    5.4243    1.2775   17.8661 C   0  0  0  0  0  0  0  0  0  0  0  0
    6.5854    0.6545   17.6259 N   0  0  0  0  0  0  0  0  0  0  0  0
    7.1906    0.0321   18.6392 C   0  0  0  0  0  0  0  0  0  0  0  0
    8.1305   -0.4592   18.3896 H   0  0  0  0  0  0  0  0  0  0  0  0
    6.6477    0.0157   19.9141 C   0  0  0  0  0  0  0  0  0  0  0  0
    7.5020   -0.8769   21.1511 S   0  0  0  0  0  0  0  0  0  0  0  0
    6.4651   -1.3825   22.0389 O   0  0  0  0  0  0  0  0  0  0  0  0
    8.4158   -1.7893   20.4801 O   0  0  0  0  0  0  0  0  0  0  0  0
    8.5680    0.3894   22.0762 C   0  0  0  0  0  0  0  0  0  0  0  0
    7.7027    1.6364   22.4079 C   0  0  0  0  0  0  0  0  0  0  0  0
    7.8553    2.8092   21.6374 C   0  0  0  0  0  0  0  0  0  0  0  0
    8.5950    2.8285   20.8476 H   0  0  0  0  0  0  0  0  0  0  0  0
    7.1178    3.9704   21.8708 C   0  0  0  0  0  0  0  0  0  0  0  0
    7.2723    4.8543   21.2572 H   0  0  0  0  0  0  0  0  0  0  0  0
    6.1690    4.0099   22.8818 C   0  0  0  0  0  0  0  0  0  0  0  0
    5.5744    4.8977   23.0763 H   0  0  0  0  0  0  0  0  0  0  0  0
    5.9684    2.8702   23.6605 C   0  0  0  0  0  0  0  0  0  0  0  0
    4.7542    2.9706   24.8976 Cl  0  0  0  0  0  0  0  0  0  0  0  0
    6.7190    1.6951   23.4360 C   0  0  0  0  0  0  0  0  0  0  0  0
    6.3370    0.3456   24.4583 Cl  0  0  0  0  0  0  0  0  0  0  0  0
    9.7722    0.7127   21.1513 C   0  0  0  0  0  0  0  0  0  0  0  0
    9.4523    1.0336   20.1570 H   0  0  0  0  0  0  0  0  0  0  0  0
   10.3954    1.5015   21.5910 H   0  0  0  0  0  0  0  0  0  0  0  0
   10.3926   -0.1791   21.0206 H   0  0  0  0  0  0  0  0  0  0  0  0
    9.1486   -0.2932   23.3467 C   0  0  0  0  0  0  0  0  0  0  0  0
    8.4274   -0.9505   23.8288 H   0  0  0  0  0  0  0  0  0  0  0  0
   10.0348   -0.8924   23.0970 H   0  0  0  0  0  0  0  0  0  0  0  0
    9.4607    0.4713   24.0682 H   0  0  0  0  0  0  0  0  0  0  0  0
    5.4329    0.6487   20.1865 C   0  0  0  0  0  0  0  0  0  0  0  0
    4.9816    0.6328   21.1836 H   0  0  0  0  0  0  0  0  0  0  0  0
    4.8202    1.3040   19.1245 C   0  0  0  0  0  0  0  0  0  0  0  0
    3.8870    1.8346   19.2587 H   0  0  0  0  0  0  0  0  0  0  0  0
  1  2  1  0
  2  3  2  0
  3  4  1  0
  4  5  1  0
  4  6  2  0
  6  7  1  0
  7  8  2  0
  7  9  2  0
  7 10  1  0
 10 11  1  0
 11 12  2  0
 12 13  1  0
 12 14  1  0
 14 15  1  0
 14 16  2  0
 16 17  1  0
 16 18  1  0
 18 19  1  0
 18 20  2  0
 20 21  1  0
 10 22  1  0
 22 23  1  0
 22 24  1  0
 22 25  1  0
 10 26  1  0
 26 27  1  0
 26 28  1  0
 26 29  1  0
  6 30  1  0
 30 31  1  0
 30 32  2  0
 32 33  1  0
 32  2  1  0
 20 11  1  0
M  END
>  <cnnaffinity>  (1) 
-4.88826

>  <filename>  (1) 
CC(C)(c1cccc(Cl)c1Cl)S(=O)(=O)c1cccnc1

$$$$
