
     RDKit          3D

 42 45  0  0  0  0  0  0  0  0999 V2000
    6.2275   -2.6227   24.8035 C   0  0  0  0  0  0  0  0  0  0  0  0
    7.2860   -3.1219   23.7977 C   0  0  0  0  0  0  0  0  0  0  0  0
    7.6461   -2.1117   22.7395 C   0  0  0  0  0  0  0  0  0  0  0  0
    6.8086   -1.7489   21.7883 N   0  0  0  0  0  0  0  0  0  0  0  0
    7.5202   -0.8380   21.0762 N   0  0  0  0  0  0  0  0  0  0  0  0
    6.8677   -0.1508   20.0075 C   0  0  0  0  0  0  0  0  0  0  0  0
    5.6578    0.5139   20.2608 C   0  0  0  0  0  0  0  0  0  0  0  0
    5.0629    1.2262   19.2190 C   0  0  0  0  0  0  0  0  0  0  0  0
    5.6689    1.2174   17.9556 C   0  0  0  0  0  0  0  0  0  0  0  0
    6.8125    0.5606   17.7025 N   0  0  0  0  0  0  0  0  0  0  0  0
    7.3935   -0.1105   18.7058 C   0  0  0  0  0  0  0  0  0  0  0  0
    8.3213   -0.6334   18.4643 H   0  0  0  0  0  0  0  0  0  0  0  0
    5.2139    1.7399   17.1161 H   0  0  0  0  0  0  0  0  0  0  0  0
    4.1449    1.7853   19.3681 H   0  0  0  0  0  0  0  0  0  0  0  0
    5.2269    0.4927   21.2652 H   0  0  0  0  0  0  0  0  0  0  0  0
    8.7330   -0.6666   21.6865 C   0  0  0  0  0  0  0  0  0  0  0  0
    9.6963    0.4068   21.3217 C   0  0  0  0  0  0  0  0  0  0  0  0
    9.1311    1.7437   21.6571 C   0  0  0  0  0  0  0  0  0  0  0  0
    8.2101    2.4939   21.0221 C   0  0  0  0  0  0  0  0  0  0  0  0
    7.8281    3.5000   21.8570 O   0  0  0  0  0  0  0  0  0  0  0  0
    8.5558    3.3000   22.9809 C   0  0  0  0  0  0  0  0  0  0  0  0
    8.2591    4.3049   24.0879 C   0  0  0  0  0  0  0  0  0  0  0  0
    9.3546    4.5908   24.8285 F   0  0  0  0  0  0  0  0  0  0  0  0
    7.2970    3.8341   24.9298 F   0  0  0  0  0  0  0  0  0  0  0  0
    7.8869    5.2259   23.6370 H   0  0  0  0  0  0  0  0  0  0  0  0
    9.3382    2.2698   22.9231 N   0  0  0  0  0  0  0  0  0  0  0  0
    7.6834    2.3950   20.0895 H   0  0  0  0  0  0  0  0  0  0  0  0
    9.9394    0.2979   20.2656 H   0  0  0  0  0  0  0  0  0  0  0  0
   10.5804    0.2562   21.9372 H   0  0  0  0  0  0  0  0  0  0  0  0
    8.8509   -1.4830   22.7061 N   0  0  0  0  0  0  0  0  0  0  0  0
    6.8776   -4.4265   23.1235 C   0  0  0  0  0  0  0  0  0  0  0  0
    7.9663   -5.2620   22.5161 C   0  0  0  0  0  0  0  0  0  0  0  0
    7.2259   -5.7462   23.7373 C   0  0  0  0  0  0  0  0  0  0  0  0
    7.7480   -5.7616   24.6933 H   0  0  0  0  0  0  0  0  0  0  0  0
    6.5033   -6.5419   23.5980 H   0  0  0  0  0  0  0  0  0  0  0  0
    7.8067   -5.7562   21.5598 H   0  0  0  0  0  0  0  0  0  0  0  0
    8.9754   -4.8830   22.6678 H   0  0  0  0  0  0  0  0  0  0  0  0
    5.9262   -4.3704   22.5919 H   0  0  0  0  0  0  0  0  0  0  0  0
    8.2217   -3.2933   24.3456 H   0  0  0  0  0  0  0  0  0  0  0  0
    6.5187   -1.6561   25.2350 H   0  0  0  0  0  0  0  0  0  0  0  0
    5.2444   -2.5157   24.3279 H   0  0  0  0  0  0  0  0  0  0  0  0
    6.1295   -3.3477   25.6200 H   0  0  0  0  0  0  0  0  0  0  0  0
  1  2  1  0
  2  3  1  0
  3  4  2  0
  4  5  1  0
  5  6  1  0
  6  7  2  0
  7  8  1  0
  8  9  2  0
  9 10  1  0
 10 11  2  0
 11 12  1  0
  9 13  1  0
  8 14  1  0
  7 15  1  0
  5 16  1  0
 16 17  1  0
 17 18  1  0
 18 19  2  0
 19 20  1  0
 20 21  1  0
 21 22  1  0
 22 23  1  0
 22 24  1  0
 22 25  1  0
 21 26  2  0
 19 27  1  0
 17 28  1  0
 17 29  1  0
 16 30  2  0
  2 31  1  0
 31 32  1  0
 32 33  1  0
 33 34  1  0
 33 35  1  0
 32 36  1  0
 32 37  1  0
 31 38  1  0
  2 39  1  0
  1 40  1  0
  1 41  1  0
  1 42  1  0
 30  3  1  0
 33 31  1  0
 11  6  1  0
 26 18  1  0
M  END
>  <cnnaffinity>  (1) 
-6.05563

>  <filename>  (1) 
CC(c1nc(Cc2coc(C(F)F)n2)n(-c2cccnc2)n1)C1CC1

$$$$
