
     RDKit          3D

 36 38  0  0  0  0  0  0  0  0999 V2000
    5.0113    1.7808   16.9974 H   0  0  0  0  0  0  0  0  0  0  0  0
    5.4600    1.2888   17.8586 C   0  0  0  0  0  0  0  0  0  0  0  0
    6.6180    0.6511   17.6376 N   0  0  0  0  0  0  0  0  0  0  0  0
    7.1931    0.0368   18.6684 C   0  0  0  0  0  0  0  0  0  0  0  0
    8.1107   -0.5082   18.4614 H   0  0  0  0  0  0  0  0  0  0  0  0
    6.6528    0.0592   19.9451 C   0  0  0  0  0  0  0  0  0  0  0  0
    7.5049   -0.9305   21.1170 S   0  0  0  0  0  0  0  0  0  0  0  0
    6.5056   -1.8472   21.6612 O   0  0  0  0  0  0  0  0  0  0  0  0
    8.6688   -1.4982   20.4339 O   0  0  0  0  0  0  0  0  0  0  0  0
    8.1161    0.1883   22.5188 C   0  0  0  0  0  0  0  0  0  0  0  0
    9.1878    1.1813   22.0686 C   0  0  0  0  0  0  0  0  0  0  0  0
    9.8868    1.1017   20.9096 C   0  0  0  0  0  0  0  0  0  0  0  0
    9.7270    0.3874   20.1130 H   0  0  0  0  0  0  0  0  0  0  0  0
   11.1671    2.2611   20.7645 S   0  0  0  0  0  0  0  0  0  0  0  0
   10.7515    2.9716   22.2935 C   0  0  0  0  0  0  0  0  0  0  0  0
   11.3003    4.1549   22.8270 C   0  0  0  0  0  0  0  0  0  0  0  0
   12.0405    4.7105   22.2562 H   0  0  0  0  0  0  0  0  0  0  0  0
   10.8550    4.5885   24.0662 C   0  0  0  0  0  0  0  0  0  0  0  0
   11.2275    5.5188   24.4873 H   0  0  0  0  0  0  0  0  0  0  0  0
    9.9054    3.8264   24.7788 C   0  0  0  0  0  0  0  0  0  0  0  0
    9.5812    4.1685   25.7576 H   0  0  0  0  0  0  0  0  0  0  0  0
    9.3687    2.6640   24.2517 C   0  0  0  0  0  0  0  0  0  0  0  0
    8.6530    2.1041   24.8486 H   0  0  0  0  0  0  0  0  0  0  0  0
    9.7219    2.2464   22.9364 C   0  0  0  0  0  0  0  0  0  0  0  0
    8.7661   -0.7769   23.5339 C   0  0  0  0  0  0  0  0  0  0  0  0
    8.0445   -1.5064   23.9175 H   0  0  0  0  0  0  0  0  0  0  0  0
    9.1670   -0.1877   24.3667 H   0  0  0  0  0  0  0  0  0  0  0  0
    9.6063   -1.3061   23.0699 H   0  0  0  0  0  0  0  0  0  0  0  0
    6.8820    0.8662   23.1522 C   0  0  0  0  0  0  0  0  0  0  0  0
    6.0701    0.1439   23.2759 H   0  0  0  0  0  0  0  0  0  0  0  0
    7.1107    1.2378   24.1506 H   0  0  0  0  0  0  0  0  0  0  0  0
    6.5321    1.7285   22.5746 H   0  0  0  0  0  0  0  0  0  0  0  0
    5.4200    0.6710   20.1858 C   0  0  0  0  0  0  0  0  0  0  0  0
    4.9108    0.6408   21.1527 H   0  0  0  0  0  0  0  0  0  0  0  0
    4.8283    1.3179   19.1038 C   0  0  0  0  0  0  0  0  0  0  0  0
    3.8870    1.8396   19.2103 H   0  0  0  0  0  0  0  0  0  0  0  0
  1  2  1  0
  2  3  2  0
  3  4  1  0
  4  5  1  0
  4  6  2  0
  6  7  1  0
  7  8  2  0
  7  9  2  0
  7 10  1  0
 10 11  1  0
 11 12  2  0
 12 13  1  0
 12 14  1  0
 14 15  1  0
 15 16  2  0
 16 17  1  0
 16 18  1  0
 18 19  1  0
 18 20  2  0
 20 21  1  0
 20 22  1  0
 22 23  1  0
 22 24  2  0
 10 25  1  0
 25 26  1  0
 25 27  1  0
 25 28  1  0
 10 29  1  0
 29 30  1  0
 29 31  1  0
 29 32  1  0
  6 33  1  0
 33 34  1  0
 33 35  2  0
 35 36  1  0
 35  2  1  0
 24 11  1  0
 24 15  1  0
M  END
>  <cnnaffinity>  (1) 
-5.52525

>  <filename>  (1) 
CC(C)(c1csc2ccccc12)S(=O)(=O)c1cccnc1

$$$$
