
     RDKit          3D

 45 47  0  0  0  0  0  0  0  0999 V2000
    8.1742   -6.5903   22.5162 C   0  0  0  0  0  0  0  0  0  0  0  0
    7.9412   -5.6375   23.6978 C   0  0  0  0  0  0  0  0  0  0  0  0
    9.1561   -5.6232   24.6411 C   0  0  0  0  0  0  0  0  0  0  0  0
    9.5674   -6.6252   24.7901 H   0  0  0  0  0  0  0  0  0  0  0  0
    8.8839   -5.2471   25.6329 H   0  0  0  0  0  0  0  0  0  0  0  0
    9.9693   -4.9890   24.2620 H   0  0  0  0  0  0  0  0  0  0  0  0
    7.5654   -4.2092   23.2712 C   0  0  0  0  0  0  0  0  0  0  0  0
    8.5595   -3.5145   22.3178 C   0  0  0  0  0  0  0  0  0  0  0  0
    8.1331   -2.1298   21.9685 C   0  0  0  0  0  0  0  0  0  0  0  0
    7.7725   -1.7745   20.7540 N   0  0  0  0  0  0  0  0  0  0  0  0
    7.3030   -0.5156   20.9307 N   0  0  0  0  0  0  0  0  0  0  0  0
    6.6343    0.1454   19.8687 C   0  0  0  0  0  0  0  0  0  0  0  0
    5.4281    0.8259   20.0711 C   0  0  0  0  0  0  0  0  0  0  0  0
    4.8338    1.4278   18.9608 C   0  0  0  0  0  0  0  0  0  0  0  0
    5.4488    1.3155   17.7107 C   0  0  0  0  0  0  0  0  0  0  0  0
    6.5984    0.6466   17.5128 N   0  0  0  0  0  0  0  0  0  0  0  0
    7.1737    0.0754   18.5731 C   0  0  0  0  0  0  0  0  0  0  0  0
    8.1089   -0.4572   18.4031 H   0  0  0  0  0  0  0  0  0  0  0  0
    5.0027    1.7695   16.8292 H   0  0  0  0  0  0  0  0  0  0  0  0
    3.9084    1.9842   19.0542 H   0  0  0  0  0  0  0  0  0  0  0  0
    4.9788    0.8789   21.0646 H   0  0  0  0  0  0  0  0  0  0  0  0
    7.4447   -0.1677   22.2506 C   0  0  0  0  0  0  0  0  0  0  0  0
    7.0357    1.0548   22.8922 C   0  0  0  0  0  0  0  0  0  0  0  0
    6.3503    1.0653   24.0888 C   0  0  0  0  0  0  0  0  0  0  0  0
    5.9989    2.3021   24.6865 C   0  0  0  0  0  0  0  0  0  0  0  0
    5.3120    2.3399   26.0248 C   0  0  0  0  0  0  0  0  0  0  0  0
    4.4383    1.3264   26.1558 F   0  0  0  0  0  0  0  0  0  0  0  0
    6.1886    2.2425   27.0432 F   0  0  0  0  0  0  0  0  0  0  0  0
    4.6244    3.4844   26.2187 F   0  0  0  0  0  0  0  0  0  0  0  0
    6.3466    3.4809   24.0817 C   0  0  0  0  0  0  0  0  0  0  0  0
    7.0420    3.4322   22.9178 N   0  0  0  0  0  0  0  0  0  0  0  0
    7.4567    2.2849   22.2508 C   0  0  0  0  0  0  0  0  0  0  0  0
    8.1017    2.4111   21.2300 O   0  0  0  0  0  0  0  0  0  0  0  0
    7.3574    4.2369   22.3993 H   0  0  0  0  0  0  0  0  0  0  0  0
    6.0954    4.4638   24.4761 H   0  0  0  0  0  0  0  0  0  0  0  0
    6.0834    0.1145   24.5559 H   0  0  0  0  0  0  0  0  0  0  0  0
    7.9653   -1.1759   22.9172 N   0  0  0  0  0  0  0  0  0  0  0  0
    8.6371   -4.0714   21.3801 H   0  0  0  0  0  0  0  0  0  0  0  0
    9.5559   -3.4463   22.7699 H   0  0  0  0  0  0  0  0  0  0  0  0
    6.5797   -4.2175   22.7875 H   0  0  0  0  0  0  0  0  0  0  0  0
    7.4440   -3.5916   24.1737 H   0  0  0  0  0  0  0  0  0  0  0  0
    7.0866   -6.0209   24.2772 H   0  0  0  0  0  0  0  0  0  0  0  0
    9.1071   -6.3393   21.9976 H   0  0  0  0  0  0  0  0  0  0  0  0
    8.2739   -7.6181   22.8777 H   0  0  0  0  0  0  0  0  0  0  0  0
    7.3683   -6.5792   21.7652 H   0  0  0  0  0  0  0  0  0  0  0  0
  1  2  1  0
  2  3  1  0
  3  4  1  0
  3  5  1  0
  3  6  1  0
  2  7  1  0
  7  8  1  0
  8  9  1  0
  9 10  2  0
 10 11  1  0
 11 12  1  0
 12 13  2  0
 13 14  1  0
 14 15  2  0
 15 16  1  0
 16 17  2  0
 17 18  1  0
 15 19  1  0
 14 20  1  0
 13 21  1  0
 11 22  1  0
 22 23  1  0
 23 24  2  0
 24 25  1  0
 25 26  1  0
 26 27  1  0
 26 28  1  0
 26 29  1  0
 25 30  2  0
 30 31  1  0
 31 32  1  0
 32 33  2  0
 31 34  1  0
 30 35  1  0
 24 36  1  0
 22 37  2  0
  8 38  1  0
  8 39  1  0
  7 40  1  0
  7 41  1  0
  2 42  1  0
  1 43  1  0
  1 44  1  0
  1 45  1  0
 37  9  1  0
 17 12  1  0
 32 23  1  0
M  END
>  <cnnaffinity>  (1) 
-5.88243

>  <filename>  (1) 
CC(C)CCc1nc(-c2cc(C(F)(F)F)c[nH]c2=O)n(-c2cccnc2)n1

$$$$
