
     RDKit          3D

 43 46  0  0  0  0  0  0  0  0999 V2000
   10.2381    2.6914   21.7087 C   0  0  0  0  0  0  0  0  0  0  0  0
    9.1101    1.6781   21.9022 C   0  0  0  0  0  0  0  0  0  0  0  0
    9.4754    0.3687   21.1530 C   0  0  0  0  0  0  0  0  0  0  0  0
    8.5446   -0.7567   21.4217 C   0  0  0  0  0  0  0  0  0  0  0  0
    8.7566   -1.6339   22.3732 N   0  0  0  0  0  0  0  0  0  0  0  0
    7.5298   -2.1807   22.5664 C   0  0  0  0  0  0  0  0  0  0  0  0
    7.2979   -2.9794   23.8027 C   0  0  0  0  0  0  0  0  0  0  0  0
    8.5067   -3.8738   24.1881 C   0  0  0  0  0  0  0  0  0  0  0  0
    8.7324   -3.0001   25.7768 S   0  0  0  0  0  0  0  0  0  0  0  0
    7.3274   -2.0741   25.0814 C   0  0  0  0  0  0  0  0  0  0  0  0
    7.5769   -1.0163   24.9057 H   0  0  0  0  0  0  0  0  0  0  0  0
    6.4271   -2.1241   25.6996 H   0  0  0  0  0  0  0  0  0  0  0  0
    8.2804   -4.9376   24.3011 H   0  0  0  0  0  0  0  0  0  0  0  0
    9.3796   -3.7515   23.5363 H   0  0  0  0  0  0  0  0  0  0  0  0
    6.3610   -3.5337   23.7012 H   0  0  0  0  0  0  0  0  0  0  0  0
    6.6006   -1.7830   21.7268 N   0  0  0  0  0  0  0  0  0  0  0  0
    7.2691   -0.8798   20.9464 N   0  0  0  0  0  0  0  0  0  0  0  0
    6.5984   -0.1816   19.8974 C   0  0  0  0  0  0  0  0  0  0  0  0
    5.3926    0.4845   20.1382 C   0  0  0  0  0  0  0  0  0  0  0  0
    4.8337    1.2455   19.1073 C   0  0  0  0  0  0  0  0  0  0  0  0
    5.4744    1.2804   17.8633 C   0  0  0  0  0  0  0  0  0  0  0  0
    6.6018    0.5996   17.6080 N   0  0  0  0  0  0  0  0  0  0  0  0
    7.1455   -0.1122   18.6027 C   0  0  0  0  0  0  0  0  0  0  0  0
    8.0597   -0.6539   18.3648 H   0  0  0  0  0  0  0  0  0  0  0  0
    5.0594    1.8572   17.0372 H   0  0  0  0  0  0  0  0  0  0  0  0
    3.9235    1.8174   19.2568 H   0  0  0  0  0  0  0  0  0  0  0  0
    4.9231    0.4059   21.1194 H   0  0  0  0  0  0  0  0  0  0  0  0
   10.4677    0.0231   21.4512 H   0  0  0  0  0  0  0  0  0  0  0  0
    9.5071    0.5889   20.0858 H   0  0  0  0  0  0  0  0  0  0  0  0
    8.7860    1.5189   23.3874 C   0  0  0  0  0  0  0  0  0  0  0  0
    9.7734    1.1908   24.3294 C   0  0  0  0  0  0  0  0  0  0  0  0
    9.5066    1.3599   25.6906 C   0  0  0  0  0  0  0  0  0  0  0  0
    8.2236    1.7578   26.0774 C   0  0  0  0  0  0  0  0  0  0  0  0
    7.2196    1.9254   25.2046 N   0  0  0  0  0  0  0  0  0  0  0  0
    7.5048    1.7924   23.9022 C   0  0  0  0  0  0  0  0  0  0  0  0
    6.6676    1.9341   23.2182 H   0  0  0  0  0  0  0  0  0  0  0  0
    7.9790    1.9365   27.1232 H   0  0  0  0  0  0  0  0  0  0  0  0
   10.2827    1.2173   26.4332 H   0  0  0  0  0  0  0  0  0  0  0  0
   10.7466    0.8233   23.9983 H   0  0  0  0  0  0  0  0  0  0  0  0
    8.2061    2.0906   21.4283 H   0  0  0  0  0  0  0  0  0  0  0  0
    9.8945    3.6764   22.0450 H   0  0  0  0  0  0  0  0  0  0  0  0
   11.1323    2.4366   22.2878 H   0  0  0  0  0  0  0  0  0  0  0  0
   10.5728    2.7305   20.6627 H   0  0  0  0  0  0  0  0  0  0  0  0
  1  2  1  0
  2  3  1  0
  3  4  1  0
  4  5  2  0
  5  6  1  0
  6  7  1  0
  7  8  1  0
  8  9  1  0
  9 10  1  0
 10 11  1  0
 10 12  1  0
  8 13  1  0
  8 14  1  0
  7 15  1  0
  6 16  2  0
 16 17  1  0
 17 18  1  0
 18 19  2  0
 19 20  1  0
 20 21  2  0
 21 22  1  0
 22 23  2  0
 23 24  1  0
 21 25  1  0
 20 26  1  0
 19 27  1  0
  3 28  1  0
  3 29  1  0
  2 30  1  0
 30 31  2  0
 31 32  1  0
 32 33  2  0
 33 34  1  0
 34 35  2  0
 35 36  1  0
 33 37  1  0
 32 38  1  0
 31 39  1  0
  2 40  1  0
  1 41  1  0
  1 42  1  0
  1 43  1  0
 17  4  1  0
 23 18  1  0
 35 30  1  0
 10  7  1  0
M  END
>  <cnnaffinity>  (1) 
-6.09385

>  <filename>  (1) 
CC(Cc1nc(C2CSC2)nn1-c1cccnc1)c1cccnc1

$$$$
