
     RDKit          3D

 45 47  0  0  0  0  0  0  0  0999 V2000
    8.2983   -6.0093   22.6365 C   0  0  0  0  0  0  0  0  0  0  0  0
    7.5799   -4.6521   22.5113 C   0  0  0  0  0  0  0  0  0  0  0  0
    6.8283   -4.3099   23.8008 C   0  0  0  0  0  0  0  0  0  0  0  0
    6.3244   -3.3375   23.7359 H   0  0  0  0  0  0  0  0  0  0  0  0
    7.5258   -4.2688   24.6480 H   0  0  0  0  0  0  0  0  0  0  0  0
    6.0726   -5.0741   24.0200 H   0  0  0  0  0  0  0  0  0  0  0  0
    8.5883   -3.5443   22.0977 C   0  0  0  0  0  0  0  0  0  0  0  0
    8.0293   -2.1695   21.9365 C   0  0  0  0  0  0  0  0  0  0  0  0
    7.5067   -1.8150   20.7816 N   0  0  0  0  0  0  0  0  0  0  0  0
    7.0990   -0.5421   20.9927 N   0  0  0  0  0  0  0  0  0  0  0  0
    6.4684    0.1501   19.9187 C   0  0  0  0  0  0  0  0  0  0  0  0
    5.2734    0.8729   20.0556 C   0  0  0  0  0  0  0  0  0  0  0  0
    4.7324    1.4653   18.9048 C   0  0  0  0  0  0  0  0  0  0  0  0
    5.4105    1.3396   17.6867 C   0  0  0  0  0  0  0  0  0  0  0  0
    6.5544    0.6438   17.5501 N   0  0  0  0  0  0  0  0  0  0  0  0
    7.0463    0.0480   18.6367 C   0  0  0  0  0  0  0  0  0  0  0  0
    7.9400   -0.5582   18.5053 H   0  0  0  0  0  0  0  0  0  0  0  0
    5.0431    1.8226   16.7828 H   0  0  0  0  0  0  0  0  0  0  0  0
    3.8090    2.0386   18.9355 H   0  0  0  0  0  0  0  0  0  0  0  0
    4.7574    0.9514   21.0146 H   0  0  0  0  0  0  0  0  0  0  0  0
    7.4605   -0.1712   22.2626 C   0  0  0  0  0  0  0  0  0  0  0  0
    7.2625    1.1922   22.8380 C   0  0  0  0  0  0  0  0  0  0  0  0
    8.3232    1.6284   23.8782 C   0  0  0  0  0  0  0  0  0  0  0  0
    8.0012    2.9989   24.4404 C   0  0  0  0  0  0  0  0  0  0  0  0
    7.2532    3.1651   25.6189 C   0  0  0  0  0  0  0  0  0  0  0  0
    6.8644    4.4397   26.0349 C   0  0  0  0  0  0  0  0  0  0  0  0
    6.1196    4.5622   27.1470 F   0  0  0  0  0  0  0  0  0  0  0  0
    7.2130    5.5840   25.3257 C   0  0  0  0  0  0  0  0  0  0  0  0
    7.9880    5.4425   24.1689 C   0  0  0  0  0  0  0  0  0  0  0  0
    8.3621    4.1657   23.7478 C   0  0  0  0  0  0  0  0  0  0  0  0
    9.0916    4.0557   22.6194 F   0  0  0  0  0  0  0  0  0  0  0  0
    8.2946    6.2950   23.5715 H   0  0  0  0  0  0  0  0  0  0  0  0
    6.8814    6.5538   25.6897 H   0  0  0  0  0  0  0  0  0  0  0  0
    6.9523    2.3176   26.2259 H   0  0  0  0  0  0  0  0  0  0  0  0
    9.3123    1.6554   23.4027 H   0  0  0  0  0  0  0  0  0  0  0  0
    8.3819    0.9002   24.6985 H   0  0  0  0  0  0  0  0  0  0  0  0
    6.2634    1.2123   23.2960 H   0  0  0  0  0  0  0  0  0  0  0  0
    7.2528    1.9173   22.0147 H   0  0  0  0  0  0  0  0  0  0  0  0
    8.0191   -1.1993   22.8836 N   0  0  0  0  0  0  0  0  0  0  0  0
    9.4335   -3.5057   22.7954 H   0  0  0  0  0  0  0  0  0  0  0  0
    8.9779   -3.7750   21.1037 H   0  0  0  0  0  0  0  0  0  0  0  0
    6.8433   -4.7413   21.6983 H   0  0  0  0  0  0  0  0  0  0  0  0
    8.8365   -6.0870   23.5919 H   0  0  0  0  0  0  0  0  0  0  0  0
    9.0321   -6.1503   21.8347 H   0  0  0  0  0  0  0  0  0  0  0  0
    7.5922   -6.8507   22.5832 H   0  0  0  0  0  0  0  0  0  0  0  0
  1  2  1  0
  2  3  1  0
  3  4  1  0
  3  5  1  0
  3  6  1  0
  2  7  1  0
  7  8  1  0
  8  9  2  0
  9 10  1  0
 10 11  1  0
 11 12  2  0
 12 13  1  0
 13 14  2  0
 14 15  1  0
 15 16  2  0
 16 17  1  0
 14 18  1  0
 13 19  1  0
 12 20  1  0
 10 21  1  0
 21 22  1  0
 22 23  1  0
 23 24  1  0
 24 25  2  0
 25 26  1  0
 26 27  1  0
 26 28  2  0
 28 29  1  0
 29 30  2  0
 30 31  1  0
 29 32  1  0
 28 33  1  0
 25 34  1  0
 23 35  1  0
 23 36  1  0
 22 37  1  0
 22 38  1  0
 21 39  2  0
  7 40  1  0
  7 41  1  0
  2 42  1  0
  1 43  1  0
  1 44  1  0
  1 45  1  0
 39  8  1  0
 16 11  1  0
 30 24  1  0
M  END
>  <cnnaffinity>  (1) 
-6.1934

>  <filename>  (1) 
CC(C)Cc1nc(CCc2cc(F)ccc2F)n(-c2cccnc2)n1

$$$$
