
     RDKit          3D

 51 54  0  0  0  0  0  0  0  0999 V2000
   13.1720    0.3571   24.0296 C   0  0  0  0  0  0  0  0  0  0  0  0
   11.8913    1.0578   24.4401 C   0  0  0  0  0  0  0  0  0  0  0  0
   11.0033    0.3535   25.4581 C   0  0  0  0  0  0  0  0  0  0  0  0
   10.6886   -0.6390   25.1130 H   0  0  0  0  0  0  0  0  0  0  0  0
   10.0954    0.9400   25.6531 H   0  0  0  0  0  0  0  0  0  0  0  0
   11.5139    0.2427   26.4101 H   0  0  0  0  0  0  0  0  0  0  0  0
   11.1878    1.1619   23.2106 O   0  0  0  0  0  0  0  0  0  0  0  0
   10.1531    2.0242   23.0621 C   0  0  0  0  0  0  0  0  0  0  0  0
    9.8922    3.0711   23.9554 C   0  0  0  0  0  0  0  0  0  0  0  0
    8.8815    3.9889   23.6707 C   0  0  0  0  0  0  0  0  0  0  0  0
    8.0998    3.8297   22.5256 C   0  0  0  0  0  0  0  0  0  0  0  0
    8.3298    2.7401   21.6739 C   0  0  0  0  0  0  0  0  0  0  0  0
    9.3621    1.8332   21.9122 C   0  0  0  0  0  0  0  0  0  0  0  0
    9.5401    0.6051   21.0196 C   0  0  0  0  0  0  0  0  0  0  0  0
    8.6224   -0.5082   21.4260 C   0  0  0  0  0  0  0  0  0  0  0  0
    8.8477   -1.3501   22.4140 N   0  0  0  0  0  0  0  0  0  0  0  0
    7.6681   -2.0135   22.5344 C   0  0  0  0  0  0  0  0  0  0  0  0
    7.3757   -2.9930   23.6324 C   0  0  0  0  0  0  0  0  0  0  0  0
    6.8142   -2.3112   24.9107 C   0  0  0  0  0  0  0  0  0  0  0  0
    8.0828   -1.9898   25.7210 C   0  0  0  0  0  0  0  0  0  0  0  0
    9.1252   -2.7909   25.1915 O   0  0  0  0  0  0  0  0  0  0  0  0
    8.6495   -3.6513   24.1721 C   0  0  0  0  0  0  0  0  0  0  0  0
    8.4280   -4.6531   24.5798 H   0  0  0  0  0  0  0  0  0  0  0  0
    9.4445   -3.7414   23.4243 H   0  0  0  0  0  0  0  0  0  0  0  0
    7.9621   -2.2080   26.7931 H   0  0  0  0  0  0  0  0  0  0  0  0
    8.3814   -0.9361   25.6181 H   0  0  0  0  0  0  0  0  0  0  0  0
    6.1744   -3.0073   25.4629 H   0  0  0  0  0  0  0  0  0  0  0  0
    6.2184   -1.4184   24.6915 H   0  0  0  0  0  0  0  0  0  0  0  0
    6.6735   -3.7150   23.2145 H   0  0  0  0  0  0  0  0  0  0  0  0
    6.7466   -1.6624   21.6614 N   0  0  0  0  0  0  0  0  0  0  0  0
    7.3659   -0.6987   20.9268 N   0  0  0  0  0  0  0  0  0  0  0  0
    6.6615   -0.0199   19.8836 C   0  0  0  0  0  0  0  0  0  0  0  0
    5.4485    0.6249   20.1509 C   0  0  0  0  0  0  0  0  0  0  0  0
    4.8168    1.3022   19.1027 C   0  0  0  0  0  0  0  0  0  0  0  0
    5.4057    1.2926   17.8332 C   0  0  0  0  0  0  0  0  0  0  0  0
    6.5484    0.6450   17.5605 N   0  0  0  0  0  0  0  0  0  0  0  0
    7.1572    0.0068   18.5681 C   0  0  0  0  0  0  0  0  0  0  0  0
    8.0844   -0.5109   18.3218 H   0  0  0  0  0  0  0  0  0  0  0  0
    4.9403    1.8223   17.0045 H   0  0  0  0  0  0  0  0  0  0  0  0
    3.8877    1.8406   19.2589 H   0  0  0  0  0  0  0  0  0  0  0  0
    5.0204    0.5885   21.1544 H   0  0  0  0  0  0  0  0  0  0  0  0
    9.3431    0.8630   19.9777 H   0  0  0  0  0  0  0  0  0  0  0  0
   10.5644    0.2236   21.0826 H   0  0  0  0  0  0  0  0  0  0  0  0
    7.6901    2.5741   20.8120 H   0  0  0  0  0  0  0  0  0  0  0  0
    7.3192    4.5474   22.2982 H   0  0  0  0  0  0  0  0  0  0  0  0
    8.7022    4.8094   24.3609 H   0  0  0  0  0  0  0  0  0  0  0  0
   10.4590    3.1439   24.8739 H   0  0  0  0  0  0  0  0  0  0  0  0
   12.1454    2.0653   24.8033 H   0  0  0  0  0  0  0  0  0  0  0  0
   13.7774    0.0724   24.8964 H   0  0  0  0  0  0  0  0  0  0  0  0
   13.7312    1.0432   23.3877 H   0  0  0  0  0  0  0  0  0  0  0  0
   12.9266   -0.5154   23.4150 H   0  0  0  0  0  0  0  0  0  0  0  0
  1  2  1  0
  2  3  1  0
  3  4  1  0
  3  5  1  0
  3  6  1  0
  2  7  1  0
  7  8  1  0
  8  9  2  0
  9 10  1  0
 10 11  2  0
 11 12  1  0
 12 13  2  0
 13 14  1  0
 14 15  1  0
 15 16  2  0
 16 17  1  0
 17 18  1  0
 18 19  1  0
 19 20  1  0
 20 21  1  0
 21 22  1  0
 22 23  1  0
 22 24  1  0
 20 25  1  0
 20 26  1  0
 19 27  1  0
 19 28  1  0
 18 29  1  0
 17 30  2  0
 30 31  1  0
 31 32  1  0
 32 33  2  0
 33 34  1  0
 34 35  2  0
 35 36  1  0
 36 37  2  0
 37 38  1  0
 35 39  1  0
 34 40  1  0
 33 41  1  0
 14 42  1  0
 14 43  1  0
 12 44  1  0
 11 45  1  0
 10 46  1  0
  9 47  1  0
  2 48  1  0
  1 49  1  0
  1 50  1  0
  1 51  1  0
 13  8  1  0
 31 15  1  0
 37 32  1  0
 22 18  1  0
M  END
>  <cnnaffinity>  (1) 
-6.02802

>  <filename>  (1) 
CC(C)Oc1ccccc1Cc1nc(C2CCOC2)nn1-c1cccnc1

$$$$
