
     RDKit          3D

 48 51  0  0  0  0  0  0  0  0999 V2000
    8.1629    2.5142   21.6919 C   0  0  0  0  0  0  0  0  0  0  0  0
    9.4928    1.7977   21.8801 C   0  0  0  0  0  0  0  0  0  0  0  0
    9.5787    0.5192   20.9956 C   0  0  0  0  0  0  0  0  0  0  0  0
    8.6249   -0.5632   21.3746 C   0  0  0  0  0  0  0  0  0  0  0  0
    8.8543   -1.4536   22.3164 N   0  0  0  0  0  0  0  0  0  0  0  0
    7.6467   -2.0573   22.4797 C   0  0  0  0  0  0  0  0  0  0  0  0
    7.4221   -3.0963   23.5435 C   0  0  0  0  0  0  0  0  0  0  0  0
    8.3836   -4.3047   23.3672 C   0  0  0  0  0  0  0  0  0  0  0  0
    8.2282   -5.2852   24.5334 C   0  0  0  0  0  0  0  0  0  0  0  0
    8.4286   -4.6507   25.7827 O   0  0  0  0  0  0  0  0  0  0  0  0
    7.4941   -3.6163   26.0298 C   0  0  0  0  0  0  0  0  0  0  0  0
    7.5977   -2.5104   24.9758 C   0  0  0  0  0  0  0  0  0  0  0  0
    6.8536   -1.7277   25.1831 H   0  0  0  0  0  0  0  0  0  0  0  0
    8.5952   -2.0544   25.0501 H   0  0  0  0  0  0  0  0  0  0  0  0
    6.4657   -4.0252   26.0477 H   0  0  0  0  0  0  0  0  0  0  0  0
    7.7284   -3.2438   27.0319 H   0  0  0  0  0  0  0  0  0  0  0  0
    8.9686   -6.0888   24.4879 H   0  0  0  0  0  0  0  0  0  0  0  0
    7.2211   -5.7427   24.4977 H   0  0  0  0  0  0  0  0  0  0  0  0
    8.1826   -4.8230   22.4211 H   0  0  0  0  0  0  0  0  0  0  0  0
    9.4216   -3.9407   23.3272 H   0  0  0  0  0  0  0  0  0  0  0  0
    6.3783   -3.4209   23.4069 H   0  0  0  0  0  0  0  0  0  0  0  0
    6.7003   -1.6326   21.6657 N   0  0  0  0  0  0  0  0  0  0  0  0
    7.3412   -0.6918   20.9197 N   0  0  0  0  0  0  0  0  0  0  0  0
    6.6509   -0.0016   19.8873 C   0  0  0  0  0  0  0  0  0  0  0  0
    5.4382    0.6415   20.1527 C   0  0  0  0  0  0  0  0  0  0  0  0
    4.8067    1.3143   19.1013 C   0  0  0  0  0  0  0  0  0  0  0  0
    5.3944    1.3000   17.8314 C   0  0  0  0  0  0  0  0  0  0  0  0
    6.5485    0.6686   17.5666 N   0  0  0  0  0  0  0  0  0  0  0  0
    7.1599    0.0426   18.5789 C   0  0  0  0  0  0  0  0  0  0  0  0
    8.1030   -0.4488   18.3452 H   0  0  0  0  0  0  0  0  0  0  0  0
    4.9283    1.8088   16.9907 H   0  0  0  0  0  0  0  0  0  0  0  0
    3.8735    1.8455   19.2521 H   0  0  0  0  0  0  0  0  0  0  0  0
    5.0158    0.5966   21.1580 H   0  0  0  0  0  0  0  0  0  0  0  0
    9.3853    0.8103   19.9649 H   0  0  0  0  0  0  0  0  0  0  0  0
   10.5863    0.1009   21.0388 H   0  0  0  0  0  0  0  0  0  0  0  0
    9.7673    1.5390   23.2873 N   0  0  0  0  0  0  0  0  0  0  0  0
    8.8543    1.1650   24.2385 C   0  0  0  0  0  0  0  0  0  0  0  0
    9.5221    0.8609   25.3961 C   0  0  0  0  0  0  0  0  0  0  0  0
   10.9092    1.0174   25.1259 C   0  0  0  0  0  0  0  0  0  0  0  0
   11.0221    1.4387   23.8285 C   0  0  0  0  0  0  0  0  0  0  0  0
   11.8830    1.6701   23.2182 H   0  0  0  0  0  0  0  0  0  0  0  0
   11.7327    0.7725   25.7778 H   0  0  0  0  0  0  0  0  0  0  0  0
    9.0678    0.5059   26.3145 H   0  0  0  0  0  0  0  0  0  0  0  0
    7.8178    1.0602   23.9591 H   0  0  0  0  0  0  0  0  0  0  0  0
   10.3041    2.4633   21.5551 H   0  0  0  0  0  0  0  0  0  0  0  0
    8.0328    2.6486   20.6228 H   0  0  0  0  0  0  0  0  0  0  0  0
    8.1578    3.4751   22.2180 H   0  0  0  0  0  0  0  0  0  0  0  0
    7.3163    1.9196   22.0562 H   0  0  0  0  0  0  0  0  0  0  0  0
  1  2  1  0
  2  3  1  0
  3  4  1  0
  4  5  2  0
  5  6  1  0
  6  7  1  0
  7  8  1  0
  8  9  1  0
  9 10  1  0
 10 11  1  0
 11 12  1  0
 12 13  1  0
 12 14  1  0
 11 15  1  0
 11 16  1  0
  9 17  1  0
  9 18  1  0
  8 19  1  0
  8 20  1  0
  7 21  1  0
  6 22  2  0
 22 23  1  0
 23 24  1  0
 24 25  2  0
 25 26  1  0
 26 27  2  0
 27 28  1  0
 28 29  2  0
 29 30  1  0
 27 31  1  0
 26 32  1  0
 25 33  1  0
  3 34  1  0
  3 35  1  0
  2 36  1  0
 36 37  1  0
 37 38  2  0
 38 39  1  0
 39 40  2  0
 40 41  1  0
 39 42  1  0
 38 43  1  0
 37 44  1  0
  2 45  1  0
  1 46  1  0
  1 47  1  0
  1 48  1  0
 23  4  1  0
 29 24  1  0
 40 36  1  0
 12  7  1  0
M  END
>  <cnnaffinity>  (1) 
-5.94419

>  <filename>  (1) 
CC(Cc1nc(C2CCOCC2)nn1-c1cccnc1)n1cccc1

$$$$
