
     RDKit          3D

 48 50  0  0  0  0  0  0  0  0999 V2000
    6.2581    0.5421   25.8045 C   0  0  0  0  0  0  0  0  0  0  0  0
    7.6997    0.8135   25.3288 C   0  0  0  0  0  0  0  0  0  0  0  0
    8.7672    0.1948   26.2463 C   0  0  0  0  0  0  0  0  0  0  0  0
    8.6098   -0.8871   26.3345 H   0  0  0  0  0  0  0  0  0  0  0  0
    9.7689    0.3460   25.8264 H   0  0  0  0  0  0  0  0  0  0  0  0
    8.7568    0.6271   27.2522 H   0  0  0  0  0  0  0  0  0  0  0  0
    7.9720    2.3207   25.0832 C   0  0  0  0  0  0  0  0  0  0  0  0
    8.3641    3.0479   25.9810 O   0  0  0  0  0  0  0  0  0  0  0  0
    7.7575    2.8236   23.7997 N   0  0  0  0  0  0  0  0  0  0  0  0
    8.3778    4.1156   23.4733 C   0  0  0  0  0  0  0  0  0  0  0  0
    9.4575    4.1023   23.6694 H   0  0  0  0  0  0  0  0  0  0  0  0
    8.2270    4.3351   22.4099 H   0  0  0  0  0  0  0  0  0  0  0  0
    7.9294    4.9163   24.0686 H   0  0  0  0  0  0  0  0  0  0  0  0
    7.3121    1.9950   22.6787 C   0  0  0  0  0  0  0  0  0  0  0  0
    8.3122    0.9653   22.1971 C   0  0  0  0  0  0  0  0  0  0  0  0
    9.6210    1.0038   22.3432 N   0  0  0  0  0  0  0  0  0  0  0  0
   10.0434   -0.1834   21.8112 C   0  0  0  0  0  0  0  0  0  0  0  0
   11.4907   -0.5789   21.7534 C   0  0  0  0  0  0  0  0  0  0  0  0
   12.4890    0.2452   22.3247 C   0  0  0  0  0  0  0  0  0  0  0  0
   13.8361   -0.0525   22.1045 C   0  0  0  0  0  0  0  0  0  0  0  0
   14.1277   -1.1990   21.3638 C   0  0  0  0  0  0  0  0  0  0  0  0
   13.0845   -1.9663   20.8737 C   0  0  0  0  0  0  0  0  0  0  0  0
   11.8006   -1.6898   21.0643 N   0  0  0  0  0  0  0  0  0  0  0  0
   13.3123   -2.8117   20.2382 H   0  0  0  0  0  0  0  0  0  0  0  0
   15.1006   -1.5683   21.1185 H   0  0  0  0  0  0  0  0  0  0  0  0
   14.6184    0.6255   22.4449 H   0  0  0  0  0  0  0  0  0  0  0  0
   12.1832    1.1103   22.9025 H   0  0  0  0  0  0  0  0  0  0  0  0
    9.0520   -0.9201   21.3310 N   0  0  0  0  0  0  0  0  0  0  0  0
    7.9552   -0.2067   21.6157 N   0  0  0  0  0  0  0  0  0  0  0  0
    6.6651   -0.6718   21.1269 C   0  0  0  0  0  0  0  0  0  0  0  0
    6.1800    0.1135   19.9341 C   0  0  0  0  0  0  0  0  0  0  0  0
    5.0060    0.8675   19.9617 C   0  0  0  0  0  0  0  0  0  0  0  0
    4.6204    1.5492   18.8042 C   0  0  0  0  0  0  0  0  0  0  0  0
    5.4452    1.4735   17.6784 C   0  0  0  0  0  0  0  0  0  0  0  0
    6.5816    0.7610   17.6364 N   0  0  0  0  0  0  0  0  0  0  0  0
    6.9323    0.1028   18.7472 C   0  0  0  0  0  0  0  0  0  0  0  0
    7.8609   -0.4700   18.6992 H   0  0  0  0  0  0  0  0  0  0  0  0
    5.1837    2.0045   16.7644 H   0  0  0  0  0  0  0  0  0  0  0  0
    3.7110    2.1395   18.7652 H   0  0  0  0  0  0  0  0  0  0  0  0
    4.4114    0.9213   20.8776 H   0  0  0  0  0  0  0  0  0  0  0  0
    6.8044   -1.7285   20.8762 H   0  0  0  0  0  0  0  0  0  0  0  0
    5.9421   -0.6300   21.9456 H   0  0  0  0  0  0  0  0  0  0  0  0
    6.3636    1.5012   22.9246 H   0  0  0  0  0  0  0  0  0  0  0  0
    7.0820    2.6569   21.8350 H   0  0  0  0  0  0  0  0  0  0  0  0
    7.7976    0.2991   24.3716 H   0  0  0  0  0  0  0  0  0  0  0  0
    6.0886   -0.5409   25.8574 H   0  0  0  0  0  0  0  0  0  0  0  0
    5.5191    0.9500   25.1043 H   0  0  0  0  0  0  0  0  0  0  0  0
    6.0418    0.9597   26.7947 H   0  0  0  0  0  0  0  0  0  0  0  0
  1  2  1  0
  2  3  1  0
  3  4  1  0
  3  5  1  0
  3  6  1  0
  2  7  1  0
  7  8  2  0
  7  9  1  0
  9 10  1  0
 10 11  1  0
 10 12  1  0
 10 13  1  0
  9 14  1  0
 14 15  1  0
 15 16  2  0
 16 17  1  0
 17 18  1  0
 18 19  2  0
 19 20  1  0
 20 21  2  0
 21 22  1  0
 22 23  2  0
 22 24  1  0
 21 25  1  0
 20 26  1  0
 19 27  1  0
 17 28  2  0
 28 29  1  0
 29 30  1  0
 30 31  1  0
 31 32  2  0
 32 33  1  0
 33 34  2  0
 34 35  1  0
 35 36  2  0
 36 37  1  0
 34 38  1  0
 33 39  1  0
 32 40  1  0
 30 41  1  0
 30 42  1  0
 14 43  1  0
 14 44  1  0
  2 45  1  0
  1 46  1  0
  1 47  1  0
  1 48  1  0
 29 15  1  0
 36 31  1  0
 23 18  1  0
M  END
>  <cnnaffinity>  (1) 
-6.39386

>  <filename>  (1) 
CC(C)C(=O)N(C)Cc1nc(-c2ccccn2)nn1Cc1cccnc1

$$$$
