
     RDKit          3D

 46 49  0  0  0  0  0  0  0  0999 V2000
   12.3912    1.5156   21.9626 C   0  0  0  0  0  0  0  0  0  0  0  0
   11.0172    0.8334   22.0066 C   0  0  0  0  0  0  0  0  0  0  0  0
    9.8924    1.8549   21.7861 C   0  0  0  0  0  0  0  0  0  0  0  0
    8.9059    1.3805   21.7486 H   0  0  0  0  0  0  0  0  0  0  0  0
   10.0507    2.3839   20.8429 H   0  0  0  0  0  0  0  0  0  0  0  0
    9.8805    2.5954   22.5933 H   0  0  0  0  0  0  0  0  0  0  0  0
   10.8294    0.0850   23.2983 C   0  0  0  0  0  0  0  0  0  0  0  0
   10.9740    0.6068   24.4930 N   0  0  0  0  0  0  0  0  0  0  0  0
   10.7679   -0.4235   25.3717 C   0  0  0  0  0  0  0  0  0  0  0  0
   10.4739   -1.5714   24.6929 C   0  0  0  0  0  0  0  0  0  0  0  0
   10.5014   -1.2453   23.3611 N   0  0  0  0  0  0  0  0  0  0  0  0
    9.9589   -2.0812   22.2886 C   0  0  0  0  0  0  0  0  0  0  0  0
    8.6078   -1.6189   21.8125 C   0  0  0  0  0  0  0  0  0  0  0  0
    8.3419   -1.1526   20.6137 N   0  0  0  0  0  0  0  0  0  0  0  0
    7.0793   -0.6630   20.7404 C   0  0  0  0  0  0  0  0  0  0  0  0
    6.4184    0.0462   19.6529 C   0  0  0  0  0  0  0  0  0  0  0  0
    5.2226    0.7650   19.8267 C   0  0  0  0  0  0  0  0  0  0  0  0
    4.7305    1.4732   18.7372 C   0  0  0  0  0  0  0  0  0  0  0  0
    5.4294    1.4330   17.5256 C   0  0  0  0  0  0  0  0  0  0  0  0
    6.5640    0.7387   17.3504 N   0  0  0  0  0  0  0  0  0  0  0  0
    7.0434    0.0679   18.4005 C   0  0  0  0  0  0  0  0  0  0  0  0
    7.9654   -0.4856   18.2300 H   0  0  0  0  0  0  0  0  0  0  0  0
    5.0611    1.9731   16.6575 H   0  0  0  0  0  0  0  0  0  0  0  0
    3.8271    2.0670   18.8080 H   0  0  0  0  0  0  0  0  0  0  0  0
    4.7083    0.7706   20.7904 H   0  0  0  0  0  0  0  0  0  0  0  0
    6.5545   -0.8066   21.9396 N   0  0  0  0  0  0  0  0  0  0  0  0
    7.5237   -1.4604   22.6243 N   0  0  0  0  0  0  0  0  0  0  0  0
    7.4007   -1.7323   24.0239 C   0  0  0  0  0  0  0  0  0  0  0  0
    7.2713   -0.6474   24.9006 C   0  0  0  0  0  0  0  0  0  0  0  0
    7.4674   -0.8702   26.2605 C   0  0  0  0  0  0  0  0  0  0  0  0
    7.4416    0.1789   27.1000 F   0  0  0  0  0  0  0  0  0  0  0  0
    7.7404   -2.1428   26.7697 C   0  0  0  0  0  0  0  0  0  0  0  0
    7.7297   -3.2324   25.8915 C   0  0  0  0  0  0  0  0  0  0  0  0
    7.5538   -3.0377   24.5179 C   0  0  0  0  0  0  0  0  0  0  0  0
    7.5187   -3.8908   23.8423 H   0  0  0  0  0  0  0  0  0  0  0  0
    7.8808   -4.2374   26.2837 H   0  0  0  0  0  0  0  0  0  0  0  0
    7.9894   -2.2549   27.8174 H   0  0  0  0  0  0  0  0  0  0  0  0
    7.0894    0.3536   24.5211 H   0  0  0  0  0  0  0  0  0  0  0  0
    9.8807   -3.1002   22.6776 H   0  0  0  0  0  0  0  0  0  0  0  0
   10.6463   -2.0973   21.4349 H   0  0  0  0  0  0  0  0  0  0  0  0
   10.3124   -2.5962   25.0064 H   0  0  0  0  0  0  0  0  0  0  0  0
   10.8239   -0.2702   26.4425 H   0  0  0  0  0  0  0  0  0  0  0  0
   10.9818    0.0951   21.1979 H   0  0  0  0  0  0  0  0  0  0  0  0
   12.4764    2.0896   21.0381 H   0  0  0  0  0  0  0  0  0  0  0  0
   12.5110    2.2117   22.7977 H   0  0  0  0  0  0  0  0  0  0  0  0
   13.2140    0.7918   22.0056 H   0  0  0  0  0  0  0  0  0  0  0  0
  1  2  1  0
  2  3  1  0
  3  4  1  0
  3  5  1  0
  3  6  1  0
  2  7  1  0
  7  8  2  0
  8  9  1  0
  9 10  2  0
 10 11  1  0
 11 12  1  0
 12 13  1  0
 13 14  2  0
 14 15  1  0
 15 16  1  0
 16 17  2  0
 17 18  1  0
 18 19  2  0
 19 20  1  0
 20 21  2  0
 21 22  1  0
 19 23  1  0
 18 24  1  0
 17 25  1  0
 15 26  2  0
 26 27  1  0
 27 28  1  0
 28 29  2  0
 29 30  1  0
 30 31  1  0
 30 32  2  0
 32 33  1  0
 33 34  2  0
 34 35  1  0
 33 36  1  0
 32 37  1  0
 29 38  1  0
 12 39  1  0
 12 40  1  0
 10 41  1  0
  9 42  1  0
  2 43  1  0
  1 44  1  0
  1 45  1  0
  1 46  1  0
 11  7  1  0
 27 13  1  0
 34 28  1  0
 21 16  1  0
M  END
>  <cnnaffinity>  (1) 
-5.86418

>  <filename>  (1) 
CC(C)c1nccn1Cc1nc(-c2cccnc2)nn1-c1cccc(F)c1

$$$$
