
     RDKit          3D

 46 49  0  0  0  0  0  0  0  0999 V2000
    9.8839    1.8651   21.7900 C   0  0  0  0  0  0  0  0  0  0  0  0
   11.0129    0.8379   21.9883 C   0  0  0  0  0  0  0  0  0  0  0  0
   12.3828    1.5306   21.9296 C   0  0  0  0  0  0  0  0  0  0  0  0
   13.2051    0.8046   21.9592 H   0  0  0  0  0  0  0  0  0  0  0  0
   12.5094    2.2260   22.7687 H   0  0  0  0  0  0  0  0  0  0  0  0
   12.4421    2.0993   20.9953 H   0  0  0  0  0  0  0  0  0  0  0  0
   10.8466    0.0796   23.2790 C   0  0  0  0  0  0  0  0  0  0  0  0
   10.9997    0.5975   24.4787 N   0  0  0  0  0  0  0  0  0  0  0  0
   10.7622   -0.4236   25.3590 C   0  0  0  0  0  0  0  0  0  0  0  0
   10.4698   -1.5722   24.6822 C   0  0  0  0  0  0  0  0  0  0  0  0
   10.5109   -1.2504   23.3482 N   0  0  0  0  0  0  0  0  0  0  0  0
    9.9558   -2.0859   22.2893 C   0  0  0  0  0  0  0  0  0  0  0  0
    8.6074   -1.6163   21.8158 C   0  0  0  0  0  0  0  0  0  0  0  0
    8.3414   -1.1581   20.6147 N   0  0  0  0  0  0  0  0  0  0  0  0
    7.0847   -0.6542   20.7417 C   0  0  0  0  0  0  0  0  0  0  0  0
    6.4248    0.0540   19.6526 C   0  0  0  0  0  0  0  0  0  0  0  0
    5.2274    0.7691   19.8284 C   0  0  0  0  0  0  0  0  0  0  0  0
    4.7248    1.4761   18.7414 C   0  0  0  0  0  0  0  0  0  0  0  0
    5.4175    1.4380   17.5273 C   0  0  0  0  0  0  0  0  0  0  0  0
    6.5529    0.7470   17.3499 N   0  0  0  0  0  0  0  0  0  0  0  0
    7.0447    0.0790   18.3975 C   0  0  0  0  0  0  0  0  0  0  0  0
    7.9687   -0.4672   18.2155 H   0  0  0  0  0  0  0  0  0  0  0  0
    5.0425    1.9770   16.6594 H   0  0  0  0  0  0  0  0  0  0  0  0
    3.8201    2.0664   18.8160 H   0  0  0  0  0  0  0  0  0  0  0  0
    4.7178    0.7735   20.7931 H   0  0  0  0  0  0  0  0  0  0  0  0
    6.5622   -0.7825   21.9449 N   0  0  0  0  0  0  0  0  0  0  0  0
    7.5261   -1.4488   22.6284 N   0  0  0  0  0  0  0  0  0  0  0  0
    7.4122   -1.7205   24.0248 C   0  0  0  0  0  0  0  0  0  0  0  0
    7.5961   -3.0269   24.4996 C   0  0  0  0  0  0  0  0  0  0  0  0
    7.7843   -3.2002   25.8660 C   0  0  0  0  0  0  0  0  0  0  0  0
    8.0504   -4.4262   26.3370 F   0  0  0  0  0  0  0  0  0  0  0  0
    7.7629   -2.1446   26.7702 C   0  0  0  0  0  0  0  0  0  0  0  0
    7.4634   -0.8788   26.2658 C   0  0  0  0  0  0  0  0  0  0  0  0
    7.4210    0.1556   27.1190 F   0  0  0  0  0  0  0  0  0  0  0  0
    7.2684   -0.6434   24.9094 C   0  0  0  0  0  0  0  0  0  0  0  0
    7.0675    0.3590   24.5438 H   0  0  0  0  0  0  0  0  0  0  0  0
    8.0137   -2.2972   27.8081 H   0  0  0  0  0  0  0  0  0  0  0  0
    7.5680   -3.8947   23.8487 H   0  0  0  0  0  0  0  0  0  0  0  0
   10.6435   -2.1172   21.4366 H   0  0  0  0  0  0  0  0  0  0  0  0
    9.8672   -3.1042   22.6725 H   0  0  0  0  0  0  0  0  0  0  0  0
   10.3202   -2.5906   25.0082 H   0  0  0  0  0  0  0  0  0  0  0  0
   10.8043   -0.2687   26.4302 H   0  0  0  0  0  0  0  0  0  0  0  0
   10.9718    0.1031   21.1715 H   0  0  0  0  0  0  0  0  0  0  0  0
    8.8957    1.3935   21.7573 H   0  0  0  0  0  0  0  0  0  0  0  0
    9.8821    2.5959   22.6088 H   0  0  0  0  0  0  0  0  0  0  0  0
   10.0392    2.4060   20.8494 H   0  0  0  0  0  0  0  0  0  0  0  0
  1  2  1  0
  2  3  1  0
  3  4  1  0
  3  5  1  0
  3  6  1  0
  2  7  1  0
  7  8  2  0
  8  9  1  0
  9 10  2  0
 10 11  1  0
 11 12  1  0
 12 13  1  0
 13 14  2  0
 14 15  1  0
 15 16  1  0
 16 17  2  0
 17 18  1  0
 18 19  2  0
 19 20  1  0
 20 21  2  0
 21 22  1  0
 19 23  1  0
 18 24  1  0
 17 25  1  0
 15 26  2  0
 26 27  1  0
 27 28  1  0
 28 29  2  0
 29 30  1  0
 30 31  1  0
 30 32  2  0
 32 33  1  0
 33 34  1  0
 33 35  2  0
 35 36  1  0
 32 37  1  0
 29 38  1  0
 12 39  1  0
 12 40  1  0
 10 41  1  0
  9 42  1  0
  2 43  1  0
  1 44  1  0
  1 45  1  0
  1 46  1  0
 11  7  1  0
 27 13  1  0
 35 28  1  0
 21 16  1  0
M  END
>  <cnnaffinity>  (1) 
-6.07448

>  <filename>  (1) 
CC(C)c1nccn1Cc1nc(-c2cccnc2)nn1-c1cc(F)cc(F)c1

$$$$
