
     RDKit          3D

 45 47  0  0  0  0  0  0  0  0999 V2000
    5.4711   -4.1239   24.3929 C   0  0  0  0  0  0  0  0  0  0  0  0
    6.3139   -3.4767   25.5128 C   0  0  0  0  0  0  0  0  0  0  0  0
    7.3611   -4.4662   26.0572 C   0  0  0  0  0  0  0  0  0  0  0  0
    7.9565   -4.0236   26.8619 H   0  0  0  0  0  0  0  0  0  0  0  0
    6.8748   -5.3643   26.4537 H   0  0  0  0  0  0  0  0  0  0  0  0
    8.0537   -4.7805   25.2689 H   0  0  0  0  0  0  0  0  0  0  0  0
    6.9445   -2.1931   25.0407 C   0  0  0  0  0  0  0  0  0  0  0  0
    6.5349   -1.0025   25.4230 N   0  0  0  0  0  0  0  0  0  0  0  0
    7.3494   -0.1587   24.7296 N   0  0  0  0  0  0  0  0  0  0  0  0
    7.2217    1.2647   24.8320 C   0  0  0  0  0  0  0  0  0  0  0  0
    5.9577    1.8545   24.6728 C   0  0  0  0  0  0  0  0  0  0  0  0
    5.8229    3.2460   24.7470 C   0  0  0  0  0  0  0  0  0  0  0  0
    6.9395    4.0569   24.9877 C   0  0  0  0  0  0  0  0  0  0  0  0
    8.1957    3.4650   25.1554 C   0  0  0  0  0  0  0  0  0  0  0  0
    8.3432    2.0749   25.0774 C   0  0  0  0  0  0  0  0  0  0  0  0
    9.3159    1.6152   25.2290 H   0  0  0  0  0  0  0  0  0  0  0  0
    9.0712    4.0809   25.3427 H   0  0  0  0  0  0  0  0  0  0  0  0
    6.8305    5.1396   25.0452 H   0  0  0  0  0  0  0  0  0  0  0  0
    4.8410    3.6993   24.6290 H   0  0  0  0  0  0  0  0  0  0  0  0
    5.0986    1.2083   24.5090 H   0  0  0  0  0  0  0  0  0  0  0  0
    8.1770   -0.8969   23.9360 C   0  0  0  0  0  0  0  0  0  0  0  0
    9.0840   -0.3231   22.8933 C   0  0  0  0  0  0  0  0  0  0  0  0
    8.3093    0.3273   21.7352 C   0  0  0  0  0  0  0  0  0  0  0  0
    7.4067   -0.6754   21.0000 C   0  0  0  0  0  0  0  0  0  0  0  0
    6.6403   -0.0138   19.8877 C   0  0  0  0  0  0  0  0  0  0  0  0
    5.4305    0.6452   20.1416 C   0  0  0  0  0  0  0  0  0  0  0  0
    4.7983    1.3135   19.0921 C   0  0  0  0  0  0  0  0  0  0  0  0
    5.3947    1.3018   17.8255 C   0  0  0  0  0  0  0  0  0  0  0  0
    6.5583    0.6882   17.5589 N   0  0  0  0  0  0  0  0  0  0  0  0
    7.1548    0.0613   18.5824 C   0  0  0  0  0  0  0  0  0  0  0  0
    8.1061   -0.4154   18.3506 H   0  0  0  0  0  0  0  0  0  0  0  0
    4.9175    1.7950   16.9826 H   0  0  0  0  0  0  0  0  0  0  0  0
    3.8690    1.8481   19.2468 H   0  0  0  0  0  0  0  0  0  0  0  0
    5.0124    0.6382   21.1544 H   0  0  0  0  0  0  0  0  0  0  0  0
    8.0208   -1.4971   20.6073 H   0  0  0  0  0  0  0  0  0  0  0  0
    6.7109   -1.1363   21.7159 H   0  0  0  0  0  0  0  0  0  0  0  0
    9.0118    0.7706   21.0201 H   0  0  0  0  0  0  0  0  0  0  0  0
    7.7032    1.1606   22.1139 H   0  0  0  0  0  0  0  0  0  0  0  0
    9.7688    0.4024   23.3425 H   0  0  0  0  0  0  0  0  0  0  0  0
    9.7028   -1.1416   22.5116 H   0  0  0  0  0  0  0  0  0  0  0  0
    7.9499   -2.1824   24.1244 N   0  0  0  0  0  0  0  0  0  0  0  0
    5.6472   -3.1779   26.3258 H   0  0  0  0  0  0  0  0  0  0  0  0
    4.7051   -3.4385   24.0160 H   0  0  0  0  0  0  0  0  0  0  0  0
    6.1059   -4.4123   23.5476 H   0  0  0  0  0  0  0  0  0  0  0  0
    4.9667   -5.0255   24.7562 H   0  0  0  0  0  0  0  0  0  0  0  0
  1  2  1  0
  2  3  1  0
  3  4  1  0
  3  5  1  0
  3  6  1  0
  2  7  1  0
  7  8  2  0
  8  9  1  0
  9 10  1  0
 10 11  2  0
 11 12  1  0
 12 13  2  0
 13 14  1  0
 14 15  2  0
 15 16  1  0
 14 17  1  0
 13 18  1  0
 12 19  1  0
 11 20  1  0
  9 21  1  0
 21 22  1  0
 22 23  1  0
 23 24  1  0
 24 25  1  0
 25 26  2  0
 26 27  1  0
 27 28  2  0
 28 29  1  0
 29 30  2  0
 30 31  1  0
 28 32  1  0
 27 33  1  0
 26 34  1  0
 24 35  1  0
 24 36  1  0
 23 37  1  0
 23 38  1  0
 22 39  1  0
 22 40  1  0
 21 41  2  0
  2 42  1  0
  1 43  1  0
  1 44  1  0
  1 45  1  0
 41  7  1  0
 15 10  1  0
 30 25  1  0
M  END
>  <cnnaffinity>  (1) 
-5.76607

>  <filename>  (1) 
CC(C)c1nc(CCCc2cccnc2)n(-c2ccccc2)n1

$$$$
