
     RDKit          3D

 42 44  0  0  0  0  0  0  0  0999 V2000
    6.5769   -2.3261   24.7875 C   0  0  0  0  0  0  0  0  0  0  0  0
    7.4328   -2.9609   23.6615 C   0  0  0  0  0  0  0  0  0  0  0  0
    6.7927   -4.2613   23.1315 C   0  0  0  0  0  0  0  0  0  0  0  0
    5.8044   -4.0543   22.6974 H   0  0  0  0  0  0  0  0  0  0  0  0
    6.6707   -4.9859   23.9455 H   0  0  0  0  0  0  0  0  0  0  0  0
    7.4118   -4.7231   22.3523 H   0  0  0  0  0  0  0  0  0  0  0  0
    7.6780   -1.9701   22.5521 C   0  0  0  0  0  0  0  0  0  0  0  0
    6.7476   -1.5999   21.6931 N   0  0  0  0  0  0  0  0  0  0  0  0
    7.3765   -0.6551   20.9469 N   0  0  0  0  0  0  0  0  0  0  0  0
    6.6730    0.0115   19.9051 C   0  0  0  0  0  0  0  0  0  0  0  0
    5.4498    0.6398   20.1637 C   0  0  0  0  0  0  0  0  0  0  0  0
    4.8141    1.3050   19.1114 C   0  0  0  0  0  0  0  0  0  0  0  0
    5.4001    1.2933   17.8404 C   0  0  0  0  0  0  0  0  0  0  0  0
    6.5562    0.6663   17.5795 N   0  0  0  0  0  0  0  0  0  0  0  0
    7.1728    0.0469   18.5919 C   0  0  0  0  0  0  0  0  0  0  0  0
    8.1117   -0.4484   18.3530 H   0  0  0  0  0  0  0  0  0  0  0  0
    4.9315    1.7993   16.9994 H   0  0  0  0  0  0  0  0  0  0  0  0
    3.8810    1.8359   19.2586 H   0  0  0  0  0  0  0  0  0  0  0  0
    5.0243    0.5981   21.1659 H   0  0  0  0  0  0  0  0  0  0  0  0
    8.6457   -0.4874   21.4213 C   0  0  0  0  0  0  0  0  0  0  0  0
    9.5483    0.5930   20.9372 C   0  0  0  0  0  0  0  0  0  0  0  0
    9.0605    2.0050   21.3125 C   0  0  0  0  0  0  0  0  0  0  0  0
    8.9008    2.2176   22.8294 C   0  0  0  0  0  0  0  0  0  0  0  0
   10.1403    2.0211   23.5674 N   0  0  0  0  0  0  0  0  0  0  0  0
   11.2806    2.7796   23.4379 C   0  0  0  0  0  0  0  0  0  0  0  0
   12.2417    2.1425   24.1701 C   0  0  0  0  0  0  0  0  0  0  0  0
   11.7192    1.0303   24.7784 N   0  0  0  0  0  0  0  0  0  0  0  0
   10.4702    0.9799   24.3812 C   0  0  0  0  0  0  0  0  0  0  0  0
    9.7652    0.1781   24.5698 H   0  0  0  0  0  0  0  0  0  0  0  0
   13.2983    2.3810   24.2324 H   0  0  0  0  0  0  0  0  0  0  0  0
   11.2861    3.6718   22.8322 H   0  0  0  0  0  0  0  0  0  0  0  0
    8.1757    1.5009   23.2375 H   0  0  0  0  0  0  0  0  0  0  0  0
    8.5390    3.2336   23.0326 H   0  0  0  0  0  0  0  0  0  0  0  0
    9.7789    2.7341   20.9225 H   0  0  0  0  0  0  0  0  0  0  0  0
    8.0997    2.2135   20.8271 H   0  0  0  0  0  0  0  0  0  0  0  0
    9.6081    0.5043   19.8511 H   0  0  0  0  0  0  0  0  0  0  0  0
   10.5448    0.4093   21.3536 H   0  0  0  0  0  0  0  0  0  0  0  0
    8.8656   -1.3213   22.4209 N   0  0  0  0  0  0  0  0  0  0  0  0
    8.4365   -3.1707   24.0561 H   0  0  0  0  0  0  0  0  0  0  0  0
    7.0587   -1.4269   25.1948 H   0  0  0  0  0  0  0  0  0  0  0  0
    6.4346   -3.0361   25.6114 H   0  0  0  0  0  0  0  0  0  0  0  0
    5.5859   -2.0375   24.4114 H   0  0  0  0  0  0  0  0  0  0  0  0
  1  2  1  0
  2  3  1  0
  3  4  1  0
  3  5  1  0
  3  6  1  0
  2  7  1  0
  7  8  2  0
  8  9  1  0
  9 10  1  0
 10 11  2  0
 11 12  1  0
 12 13  2  0
 13 14  1  0
 14 15  2  0
 15 16  1  0
 13 17  1  0
 12 18  1  0
 11 19  1  0
  9 20  1  0
 20 21  1  0
 21 22  1  0
 22 23  1  0
 23 24  1  0
 24 25  1  0
 25 26  2  0
 26 27  1  0
 27 28  2  0
 28 29  1  0
 26 30  1  0
 25 31  1  0
 23 32  1  0
 23 33  1  0
 22 34  1  0
 22 35  1  0
 21 36  1  0
 21 37  1  0
 20 38  2  0
  2 39  1  0
  1 40  1  0
  1 41  1  0
  1 42  1  0
 38  7  1  0
 15 10  1  0
 28 24  1  0
M  END
>  <cnnaffinity>  (1) 
-5.77876

>  <filename>  (1) 
CC(C)c1nc(CCCn2ccnc2)n(-c2cccnc2)n1

$$$$
