
     RDKit          3D

 33 34  0  0  0  0  0  0  0  0999 V2000
    4.9127    1.8097   16.9738 H   0  0  0  0  0  0  0  0  0  0  0  0
    5.3868    1.3065   17.8157 C   0  0  0  0  0  0  0  0  0  0  0  0
    6.5505    0.6894   17.5562 N   0  0  0  0  0  0  0  0  0  0  0  0
    7.1604    0.0622   18.5680 C   0  0  0  0  0  0  0  0  0  0  0  0
    8.1163   -0.3994   18.3210 H   0  0  0  0  0  0  0  0  0  0  0  0
    6.6524    0.0001   19.8811 C   0  0  0  0  0  0  0  0  0  0  0  0
    7.3619   -0.6999   20.9653 C   0  0  0  0  0  0  0  0  0  0  0  0
    7.5839   -0.3330   22.2853 C   0  0  0  0  0  0  0  0  0  0  0  0
    7.1572    0.9691   22.9502 C   0  0  0  0  0  0  0  0  0  0  0  0
    6.1224    0.8956   23.3252 H   0  0  0  0  0  0  0  0  0  0  0  0
    7.1251    1.7569   22.1869 H   0  0  0  0  0  0  0  0  0  0  0  0
    8.0876    1.4344   24.0556 C   0  0  0  0  0  0  0  0  0  0  0  0
    8.0621    1.0514   25.2783 N   0  0  0  0  0  0  0  0  0  0  0  0
    7.1607    0.1169   25.7424 N   0  0  0  0  0  0  0  0  0  0  0  0
    6.5106   -0.4223   25.1808 H   0  0  0  0  0  0  0  0  0  0  0  0
    7.0765   -0.2907   27.0477 C   0  0  0  0  0  0  0  0  0  0  0  0
    5.9696   -1.4577   27.4606 S   0  0  0  0  0  0  0  0  0  0  0  0
    7.8806    0.2773   27.9345 N   0  0  0  0  0  0  0  0  0  0  0  0
    8.5576    0.9508   27.6076 H   0  0  0  0  0  0  0  0  0  0  0  0
    7.7786   -0.0630   28.8746 H   0  0  0  0  0  0  0  0  0  0  0  0
    9.2059    2.3915   23.7130 C   0  0  0  0  0  0  0  0  0  0  0  0
    9.2053    2.6432   22.6480 H   0  0  0  0  0  0  0  0  0  0  0  0
    9.1050    3.3101   24.3025 H   0  0  0  0  0  0  0  0  0  0  0  0
   10.1673    1.9257   23.9635 H   0  0  0  0  0  0  0  0  0  0  0  0
    8.3150   -1.4162   22.8244 C   0  0  0  0  0  0  0  0  0  0  0  0
    8.7040   -1.5224   23.8313 H   0  0  0  0  0  0  0  0  0  0  0  0
    8.5422   -2.3694   21.9268 N   0  0  0  0  0  0  0  0  0  0  0  0
    7.9677   -1.9047   20.8080 N   0  0  0  0  0  0  0  0  0  0  0  0
    7.9450   -2.4798   19.9738 H   0  0  0  0  0  0  0  0  0  0  0  0
    5.4363    0.6529   20.1274 C   0  0  0  0  0  0  0  0  0  0  0  0
    5.0057    0.6338   21.1272 H   0  0  0  0  0  0  0  0  0  0  0  0
    4.7937    1.3164   19.0821 C   0  0  0  0  0  0  0  0  0  0  0  0
    3.8635    1.8481   19.2394 H   0  0  0  0  0  0  0  0  0  0  0  0
  1  2  1  0
  2  3  2  0
  3  4  1  0
  4  5  1  0
  4  6  2  0
  6  7  1  0
  7  8  2  0
  8  9  1  0
  9 10  1  0
  9 11  1  0
  9 12  1  0
 12 13  2  3
 13 14  1  0
 14 15  1  0
 14 16  1  0
 16 17  2  0
 16 18  1  0
 18 19  1  0
 18 20  1  0
 12 21  1  0
 21 22  1  0
 21 23  1  0
 21 24  1  0
  8 25  1  0
 25 26  1  0
 25 27  2  0
 27 28  1  0
 28 29  1  0
  6 30  1  0
 30 31  1  0
 30 32  2  0
 32 33  1  0
 32  2  1  0
 28  7  1  0
M  END
>  <cnnaffinity>  (1) 
-5.18459

>  <filename>  (1) 
CC(Cc1cn[nH]c1-c1cccnc1)=NNC(N)=S

$$$$
