
     RDKit          3D

 42 45  0  0  0  0  0  0  0  0999 V2000
    8.1312    2.4677   21.6657 C   0  0  0  0  0  0  0  0  0  0  0  0
    9.5086    1.8262   21.8320 C   0  0  0  0  0  0  0  0  0  0  0  0
    9.6011    0.5225   20.9712 C   0  0  0  0  0  0  0  0  0  0  0  0
    8.6528   -0.5715   21.3485 C   0  0  0  0  0  0  0  0  0  0  0  0
    8.9149   -1.5014   22.2431 N   0  0  0  0  0  0  0  0  0  0  0  0
    7.7100   -2.0910   22.4534 C   0  0  0  0  0  0  0  0  0  0  0  0
    7.4833   -3.1288   23.4960 C   0  0  0  0  0  0  0  0  0  0  0  0
    8.3484   -3.5495   24.3857 N   0  0  0  0  0  0  0  0  0  0  0  0
    7.7406   -4.5040   25.1511 N   0  0  0  0  0  0  0  0  0  0  0  0
    6.5157   -4.6464   24.7187 C   0  0  0  0  0  0  0  0  0  0  0  0
    6.2979   -3.8068   23.6737 N   0  0  0  0  0  0  0  0  0  0  0  0
    5.4357   -3.6327   23.1828 H   0  0  0  0  0  0  0  0  0  0  0  0
    5.7851   -5.3437   25.1134 H   0  0  0  0  0  0  0  0  0  0  0  0
    6.7297   -1.6352   21.6842 N   0  0  0  0  0  0  0  0  0  0  0  0
    7.3478   -0.6838   20.9322 N   0  0  0  0  0  0  0  0  0  0  0  0
    6.6480   -0.0162   19.8810 C   0  0  0  0  0  0  0  0  0  0  0  0
    5.4305    0.6268   20.1357 C   0  0  0  0  0  0  0  0  0  0  0  0
    4.8025    1.3107   19.0895 C   0  0  0  0  0  0  0  0  0  0  0  0
    5.3963    1.3109   17.8241 C   0  0  0  0  0  0  0  0  0  0  0  0
    6.5415    0.6651   17.5586 N   0  0  0  0  0  0  0  0  0  0  0  0
    7.1514    0.0225   18.5637 C   0  0  0  0  0  0  0  0  0  0  0  0
    8.0785   -0.4890   18.3051 H   0  0  0  0  0  0  0  0  0  0  0  0
    4.9311    1.8426   16.9960 H   0  0  0  0  0  0  0  0  0  0  0  0
    3.8747    1.8486   19.2443 H   0  0  0  0  0  0  0  0  0  0  0  0
    5.0009    0.5863   21.1362 H   0  0  0  0  0  0  0  0  0  0  0  0
    9.4408    0.7972   19.9283 H   0  0  0  0  0  0  0  0  0  0  0  0
   10.6075    0.1050   21.0460 H   0  0  0  0  0  0  0  0  0  0  0  0
    9.8727    1.5961   23.2974 C   0  0  0  0  0  0  0  0  0  0  0  0
   11.2142    1.6971   23.7018 C   0  0  0  0  0  0  0  0  0  0  0  0
   11.6047    1.3115   24.9853 C   0  0  0  0  0  0  0  0  0  0  0  0
   10.6631    0.8333   25.9017 C   0  0  0  0  0  0  0  0  0  0  0  0
    9.3307    0.7954   25.5095 C   0  0  0  0  0  0  0  0  0  0  0  0
    8.4045    0.3677   26.3865 F   0  0  0  0  0  0  0  0  0  0  0  0
    8.9186    1.1718   24.2372 C   0  0  0  0  0  0  0  0  0  0  0  0
    7.8735    1.0382   23.9766 H   0  0  0  0  0  0  0  0  0  0  0  0
   10.9272    0.4691   26.8890 H   0  0  0  0  0  0  0  0  0  0  0  0
   12.6536    1.3647   25.2523 H   0  0  0  0  0  0  0  0  0  0  0  0
   11.9594    2.0569   22.9953 H   0  0  0  0  0  0  0  0  0  0  0  0
   10.2594    2.5185   21.4262 H   0  0  0  0  0  0  0  0  0  0  0  0
    7.8397    2.5153   20.6164 H   0  0  0  0  0  0  0  0  0  0  0  0
    7.3629    1.8589   22.1466 H   0  0  0  0  0  0  0  0  0  0  0  0
    8.1009    3.4749   22.0911 H   0  0  0  0  0  0  0  0  0  0  0  0
  1  2  1  0
  2  3  1  0
  3  4  1  0
  4  5  2  0
  5  6  1  0
  6  7  1  0
  7  8  2  0
  8  9  1  0
  9 10  2  0
 10 11  1  0
 11 12  1  0
 10 13  1  0
  6 14  2  0
 14 15  1  0
 15 16  1  0
 16 17  2  0
 17 18  1  0
 18 19  2  0
 19 20  1  0
 20 21  2  0
 21 22  1  0
 19 23  1  0
 18 24  1  0
 17 25  1  0
  3 26  1  0
  3 27  1  0
  2 28  1  0
 28 29  2  0
 29 30  1  0
 30 31  2  0
 31 32  1  0
 32 33  1  0
 32 34  2  0
 34 35  1  0
 31 36  1  0
 30 37  1  0
 29 38  1  0
  2 39  1  0
  1 40  1  0
  1 41  1  0
  1 42  1  0
 15  4  1  0
 21 16  1  0
 34 28  1  0
 11  7  1  0
M  END
>  <cnnaffinity>  (1) 
-6.06358

>  <filename>  (1) 
CC(Cc1nc(-c2nnc[nH]2)nn1-c1cccnc1)c1cccc(F)c1

$$$$
