
     RDKit          3D

 44 47  0  0  0  0  0  0  0  0999 V2000
    8.1111    2.4641   21.7642 C   0  0  0  0  0  0  0  0  0  0  0  0
    9.4871    1.8107   21.8836 C   0  0  0  0  0  0  0  0  0  0  0  0
    9.5699    0.5298   20.9929 C   0  0  0  0  0  0  0  0  0  0  0  0
    8.6362   -0.5686   21.3741 C   0  0  0  0  0  0  0  0  0  0  0  0
    8.8876   -1.4863   22.2879 N   0  0  0  0  0  0  0  0  0  0  0  0
    7.6837   -2.0839   22.4696 C   0  0  0  0  0  0  0  0  0  0  0  0
    7.4236   -3.0612   23.5609 C   0  0  0  0  0  0  0  0  0  0  0  0
    8.6618   -3.8789   23.9958 C   0  0  0  0  0  0  0  0  0  0  0  0
    8.6161   -3.1776   25.6808 S   0  0  0  0  0  0  0  0  0  0  0  0
    7.1515   -2.3857   24.9424 C   0  0  0  0  0  0  0  0  0  0  0  0
    7.2186   -1.2926   24.9497 H   0  0  0  0  0  0  0  0  0  0  0  0
    6.2201   -2.6918   25.4241 H   0  0  0  0  0  0  0  0  0  0  0  0
    9.5817   -3.6077   23.4709 H   0  0  0  0  0  0  0  0  0  0  0  0
    8.5262   -4.9634   23.9775 H   0  0  0  0  0  0  0  0  0  0  0  0
    6.5833   -3.6794   23.2430 H   0  0  0  0  0  0  0  0  0  0  0  0
    6.7224   -1.6524   21.6803 N   0  0  0  0  0  0  0  0  0  0  0  0
    7.3470   -0.6994   20.9316 N   0  0  0  0  0  0  0  0  0  0  0  0
    6.6467   -0.0327   19.8839 C   0  0  0  0  0  0  0  0  0  0  0  0
    5.4304    0.6114   20.1445 C   0  0  0  0  0  0  0  0  0  0  0  0
    4.8053    1.3001   19.0991 C   0  0  0  0  0  0  0  0  0  0  0  0
    5.4056    1.2986   17.8361 C   0  0  0  0  0  0  0  0  0  0  0  0
    6.5461    0.6439   17.5629 N   0  0  0  0  0  0  0  0  0  0  0  0
    7.1488   -0.0046   18.5694 C   0  0  0  0  0  0  0  0  0  0  0  0
    8.0787   -0.5206   18.3232 H   0  0  0  0  0  0  0  0  0  0  0  0
    4.9496    1.8382   17.0098 H   0  0  0  0  0  0  0  0  0  0  0  0
    3.8799    1.8477   19.2546 H   0  0  0  0  0  0  0  0  0  0  0  0
    5.0022    0.5719   21.1475 H   0  0  0  0  0  0  0  0  0  0  0  0
    9.3855    0.8146   19.9537 H   0  0  0  0  0  0  0  0  0  0  0  0
   10.5758    0.1102   21.0618 H   0  0  0  0  0  0  0  0  0  0  0  0
    9.8924    1.5396   23.3314 C   0  0  0  0  0  0  0  0  0  0  0  0
    8.9678    1.1761   24.3265 C   0  0  0  0  0  0  0  0  0  0  0  0
    9.4070    0.8065   25.5988 C   0  0  0  0  0  0  0  0  0  0  0  0
   10.7698    0.7360   25.8942 C   0  0  0  0  0  0  0  0  0  0  0  0
   11.6771    1.0883   24.8982 C   0  0  0  0  0  0  0  0  0  0  0  0
   12.9908    0.9579   25.1454 F   0  0  0  0  0  0  0  0  0  0  0  0
   11.2629    1.5315   23.6473 C   0  0  0  0  0  0  0  0  0  0  0  0
   12.0025    1.8493   22.9150 H   0  0  0  0  0  0  0  0  0  0  0  0
   11.1264    0.4016   26.8619 H   0  0  0  0  0  0  0  0  0  0  0  0
    8.6817    0.5494   26.3669 H   0  0  0  0  0  0  0  0  0  0  0  0
    7.9046    1.1164   24.0961 H   0  0  0  0  0  0  0  0  0  0  0  0
   10.2372    2.5054   21.4808 H   0  0  0  0  0  0  0  0  0  0  0  0
    7.8188    2.5914   20.7227 H   0  0  0  0  0  0  0  0  0  0  0  0
    8.0954    3.4425   22.2531 H   0  0  0  0  0  0  0  0  0  0  0  0
    7.3417    1.8353   22.2189 H   0  0  0  0  0  0  0  0  0  0  0  0
  1  2  1  0
  2  3  1  0
  3  4  1  0
  4  5  2  0
  5  6  1  0
  6  7  1  0
  7  8  1  0
  8  9  1  0
  9 10  1  0
 10 11  1  0
 10 12  1  0
  8 13  1  0
  8 14  1  0
  7 15  1  0
  6 16  2  0
 16 17  1  0
 17 18  1  0
 18 19  2  0
 19 20  1  0
 20 21  2  0
 21 22  1  0
 22 23  2  0
 23 24  1  0
 21 25  1  0
 20 26  1  0
 19 27  1  0
  3 28  1  0
  3 29  1  0
  2 30  1  0
 30 31  2  0
 31 32  1  0
 32 33  2  0
 33 34  1  0
 34 35  1  0
 34 36  2  0
 36 37  1  0
 33 38  1  0
 32 39  1  0
 31 40  1  0
  2 41  1  0
  1 42  1  0
  1 43  1  0
  1 44  1  0
 17  4  1  0
 23 18  1  0
 36 30  1  0
 10  7  1  0
M  END
>  <cnnaffinity>  (1) 
-6.22902

>  <filename>  (1) 
CC(Cc1nc(C2CSC2)nn1-c1cccnc1)c1cccc(F)c1

$$$$
