
     RDKit          3D

 29 30  0  0  0  0  0  0  0  0999 V2000
    4.9350    1.8423   17.0336 H   0  0  0  0  0  0  0  0  0  0  0  0
    5.4231    1.2979   17.8396 C   0  0  0  0  0  0  0  0  0  0  0  0
    6.5728    0.6739   17.5423 N   0  0  0  0  0  0  0  0  0  0  0  0
    7.1997    0.0188   18.5378 C   0  0  0  0  0  0  0  0  0  0  0  0
    8.1444   -0.4556   18.2721 H   0  0  0  0  0  0  0  0  0  0  0  0
    6.7152   -0.0692   19.8706 C   0  0  0  0  0  0  0  0  0  0  0  0
    7.3684   -0.7901   20.9138 N   0  0  0  0  0  0  0  0  0  0  0  0
    6.6736   -1.0696   21.6013 H   0  0  0  0  0  0  0  0  0  0  0  0
    8.4949   -0.1433   21.6535 C   0  0  0  0  0  0  0  0  0  0  0  0
    8.2106    1.2529   22.2099 C   0  0  0  0  0  0  0  0  0  0  0  0
    7.0219    1.4297   22.8595 O   0  0  0  0  0  0  0  0  0  0  0  0
    6.9997    2.6968   23.3326 C   0  0  0  0  0  0  0  0  0  0  0  0
    6.1010    2.9831   23.8633 H   0  0  0  0  0  0  0  0  0  0  0  0
    8.1460    3.3377   23.0179 C   0  0  0  0  0  0  0  0  0  0  0  0
    8.3942    4.3577   23.2707 H   0  0  0  0  0  0  0  0  0  0  0  0
    8.9419    2.3997   22.2817 C   0  0  0  0  0  0  0  0  0  0  0  0
    9.9342    2.5592   21.8751 H   0  0  0  0  0  0  0  0  0  0  0  0
    8.8159   -1.1324   22.7831 C   0  0  0  0  0  0  0  0  0  0  0  0
    9.6734   -0.8050   23.3794 H   0  0  0  0  0  0  0  0  0  0  0  0
    7.9619   -1.2598   23.4540 H   0  0  0  0  0  0  0  0  0  0  0  0
    9.0432   -2.1076   22.3423 H   0  0  0  0  0  0  0  0  0  0  0  0
    9.6748   -0.0531   20.6952 C   0  0  0  0  0  0  0  0  0  0  0  0
    9.4894    0.7003   19.9279 H   0  0  0  0  0  0  0  0  0  0  0  0
    9.8191   -1.0179   20.2084 H   0  0  0  0  0  0  0  0  0  0  0  0
   10.5967    0.2160   21.2165 H   0  0  0  0  0  0  0  0  0  0  0  0
    5.4875    0.5578   20.1368 C   0  0  0  0  0  0  0  0  0  0  0  0
    5.0824    0.5289   21.1478 H   0  0  0  0  0  0  0  0  0  0  0  0
    4.8389    1.2627   19.1134 C   0  0  0  0  0  0  0  0  0  0  0  0
    3.9115    1.7990   19.2969 H   0  0  0  0  0  0  0  0  0  0  0  0
  1  2  1  0
  2  3  2  0
  3  4  1  0
  4  5  1  0
  4  6  2  0
  6  7  1  0
  7  8  1  0
  7  9  1  0
  9 10  1  0
 10 11  1  0
 11 12  1  0
 12 13  1  0
 12 14  2  0
 14 15  1  0
 14 16  1  0
 16 17  1  0
  9 18  1  0
 18 19  1  0
 18 20  1  0
 18 21  1  0
  9 22  1  0
 22 23  1  0
 22 24  1  0
 22 25  1  0
  6 26  1  0
 26 27  1  0
 26 28  2  0
 28 29  1  0
 28  2  1  0
 16 10  2  0
M  END
>  <cnnaffinity>  (1) 
-4.54689

>  <filename>  (1) 
CC(C)(Nc1cccnc1)c1ccco1

$$$$
