
     RDKit          3D

 45 47  0  0  0  0  0  0  0  0999 V2000
    6.3668   -5.9231   23.5206 C   0  0  0  0  0  0  0  0  0  0  0  0
    7.6298   -5.0804   23.7244 C   0  0  0  0  0  0  0  0  0  0  0  0
    8.7925   -5.9455   24.2304 C   0  0  0  0  0  0  0  0  0  0  0  0
    9.7110   -5.3592   24.3471 H   0  0  0  0  0  0  0  0  0  0  0  0
    8.5487   -6.3775   25.2078 H   0  0  0  0  0  0  0  0  0  0  0  0
    8.9992   -6.7627   23.5335 H   0  0  0  0  0  0  0  0  0  0  0  0
    7.3533   -3.9238   24.6878 C   0  0  0  0  0  0  0  0  0  0  0  0
    6.5638   -3.2750   24.3002 H   0  0  0  0  0  0  0  0  0  0  0  0
    7.0380   -4.3057   25.6639 H   0  0  0  0  0  0  0  0  0  0  0  0
    8.2374   -3.2985   24.8417 H   0  0  0  0  0  0  0  0  0  0  0  0
    7.8907   -4.6315   22.3838 O   0  0  0  0  0  0  0  0  0  0  0  0
    8.7158   -3.5162   22.0978 C   0  0  0  0  0  0  0  0  0  0  0  0
    8.0602   -2.1584   21.9533 C   0  0  0  0  0  0  0  0  0  0  0  0
    7.6290   -1.7926   20.7625 N   0  0  0  0  0  0  0  0  0  0  0  0
    7.1686   -0.5390   20.9521 N   0  0  0  0  0  0  0  0  0  0  0  0
    6.5272    0.1210   19.8751 C   0  0  0  0  0  0  0  0  0  0  0  0
    5.3115    0.7839   20.0537 C   0  0  0  0  0  0  0  0  0  0  0  0
    4.7405    1.4087   18.9418 C   0  0  0  0  0  0  0  0  0  0  0  0
    5.4042    1.3521   17.7141 C   0  0  0  0  0  0  0  0  0  0  0  0
    6.5593    0.6858   17.5342 N   0  0  0  0  0  0  0  0  0  0  0  0
    7.0934    0.0656   18.5887 C   0  0  0  0  0  0  0  0  0  0  0  0
    8.0110   -0.4965   18.4194 H   0  0  0  0  0  0  0  0  0  0  0  0
    4.9805    1.8284   16.8329 H   0  0  0  0  0  0  0  0  0  0  0  0
    3.7927    1.9248   19.0216 H   0  0  0  0  0  0  0  0  0  0  0  0
    4.8325    0.7863   21.0324 H   0  0  0  0  0  0  0  0  0  0  0  0
    7.4240   -0.1593   22.2422 C   0  0  0  0  0  0  0  0  0  0  0  0
    7.2325    1.2179   22.8150 C   0  0  0  0  0  0  0  0  0  0  0  0
    8.4833    1.7094   23.5198 C   0  0  0  0  0  0  0  0  0  0  0  0
    9.6190    2.1624   22.8275 C   0  0  0  0  0  0  0  0  0  0  0  0
    9.6134    2.2697   21.1027 Cl  0  0  0  0  0  0  0  0  0  0  0  0
   10.7945    2.4987   23.5160 C   0  0  0  0  0  0  0  0  0  0  0  0
   10.9076    2.3433   24.8384 N   0  0  0  0  0  0  0  0  0  0  0  0
    9.8501    1.8856   25.5210 C   0  0  0  0  0  0  0  0  0  0  0  0
    8.6288    1.6067   24.9054 C   0  0  0  0  0  0  0  0  0  0  0  0
    7.5858    1.2358   25.6680 F   0  0  0  0  0  0  0  0  0  0  0  0
    9.9495    1.7163   26.5847 H   0  0  0  0  0  0  0  0  0  0  0  0
   11.6593    2.8860   22.9773 H   0  0  0  0  0  0  0  0  0  0  0  0
    6.4070    1.1871   23.5330 H   0  0  0  0  0  0  0  0  0  0  0  0
    6.9689    1.9201   22.0175 H   0  0  0  0  0  0  0  0  0  0  0  0
    7.9754   -1.1764   22.8922 N   0  0  0  0  0  0  0  0  0  0  0  0
    9.0673   -3.7077   21.0823 H   0  0  0  0  0  0  0  0  0  0  0  0
    9.5696   -3.4417   22.7856 H   0  0  0  0  0  0  0  0  0  0  0  0
    5.6031   -5.3070   23.0338 H   0  0  0  0  0  0  0  0  0  0  0  0
    5.9563   -6.2979   24.4648 H   0  0  0  0  0  0  0  0  0  0  0  0
    6.5823   -6.7712   22.8600 H   0  0  0  0  0  0  0  0  0  0  0  0
  1  2  1  0
  2  3  1  0
  3  4  1  0
  3  5  1  0
  3  6  1  0
  2  7  1  0
  7  8  1  0
  7  9  1  0
  7 10  1  0
  2 11  1  0
 11 12  1  0
 12 13  1  0
 13 14  2  0
 14 15  1  0
 15 16  1  0
 16 17  2  0
 17 18  1  0
 18 19  2  0
 19 20  1  0
 20 21  2  0
 21 22  1  0
 19 23  1  0
 18 24  1  0
 17 25  1  0
 15 26  1  0
 26 27  1  0
 27 28  1  0
 28 29  2  0
 29 30  1  0
 29 31  1  0
 31 32  2  0
 32 33  1  0
 33 34  2  0
 34 35  1  0
 33 36  1  0
 31 37  1  0
 27 38  1  0
 27 39  1  0
 26 40  2  0
 12 41  1  0
 12 42  1  0
  1 43  1  0
  1 44  1  0
  1 45  1  0
 40 13  1  0
 21 16  1  0
 34 28  1  0
M  END
>  <cnnaffinity>  (1) 
-6.45148

>  <filename>  (1) 
CC(C)(C)OCc1nc(Cc2c(F)cncc2Cl)n(-c2cccnc2)n1

$$$$
