
     RDKit          3D

 41 43  0  0  0  0  0  0  0  0999 V2000
    6.7744   -5.5502   24.0071 C   0  0  0  0  0  0  0  0  0  0  0  0
    7.1185   -4.4684   22.9840 C   0  0  0  0  0  0  0  0  0  0  0  0
    8.4623   -4.7692   22.3222 C   0  0  0  0  0  0  0  0  0  0  0  0
    8.7008   -4.0166   21.5626 H   0  0  0  0  0  0  0  0  0  0  0  0
    8.4845   -5.7568   21.8503 H   0  0  0  0  0  0  0  0  0  0  0  0
    9.2632   -4.7464   23.0751 H   0  0  0  0  0  0  0  0  0  0  0  0
    7.1710   -3.0540   23.6175 C   0  0  0  0  0  0  0  0  0  0  0  0
    7.4445   -1.9708   22.6076 C   0  0  0  0  0  0  0  0  0  0  0  0
    6.5767   -1.6275   21.6773 N   0  0  0  0  0  0  0  0  0  0  0  0
    7.2698   -0.7402   20.9103 N   0  0  0  0  0  0  0  0  0  0  0  0
    6.5990   -0.0520   19.8598 C   0  0  0  0  0  0  0  0  0  0  0  0
    5.3953    0.6158   20.1178 C   0  0  0  0  0  0  0  0  0  0  0  0
    4.7955    1.3220   19.0720 C   0  0  0  0  0  0  0  0  0  0  0  0
    5.3963    1.3145   17.8073 C   0  0  0  0  0  0  0  0  0  0  0  0
    6.5260    0.6426   17.5393 N   0  0  0  0  0  0  0  0  0  0  0  0
    7.1024   -0.0242   18.5479 C   0  0  0  0  0  0  0  0  0  0  0  0
    8.0071   -0.5790   18.3139 H   0  0  0  0  0  0  0  0  0  0  0  0
    4.9453    1.8589   16.9772 H   0  0  0  0  0  0  0  0  0  0  0  0
    3.8755    1.8778   19.2280 H   0  0  0  0  0  0  0  0  0  0  0  0
    4.9506    0.5678   21.1133 H   0  0  0  0  0  0  0  0  0  0  0  0
    8.5258   -0.5839   21.4378 C   0  0  0  0  0  0  0  0  0  0  0  0
    9.6655    0.2159   20.8677 C   0  0  0  0  0  0  0  0  0  0  0  0
   10.3749    1.0513   21.9168 C   0  0  0  0  0  0  0  0  0  0  0  0
    9.7821    2.1770   22.5126 C   0  0  0  0  0  0  0  0  0  0  0  0
    8.2410    2.7609   21.9676 Cl  0  0  0  0  0  0  0  0  0  0  0  0
   10.4314    2.8610   23.5510 C   0  0  0  0  0  0  0  0  0  0  0  0
   11.6277    2.4832   24.0205 N   0  0  0  0  0  0  0  0  0  0  0  0
   12.2323    1.4352   23.4474 C   0  0  0  0  0  0  0  0  0  0  0  0
   11.6453    0.7193   22.4006 C   0  0  0  0  0  0  0  0  0  0  0  0
   12.3236   -0.3037   21.8501 F   0  0  0  0  0  0  0  0  0  0  0  0
   13.2057    1.1237   23.8289 H   0  0  0  0  0  0  0  0  0  0  0  0
    9.9528    3.7265   24.0103 H   0  0  0  0  0  0  0  0  0  0  0  0
   10.3817   -0.4976   20.4424 H   0  0  0  0  0  0  0  0  0  0  0  0
    9.3040    0.8700   20.0703 H   0  0  0  0  0  0  0  0  0  0  0  0
    8.6481   -1.3476   22.5115 N   0  0  0  0  0  0  0  0  0  0  0  0
    7.9827   -3.0154   24.3523 H   0  0  0  0  0  0  0  0  0  0  0  0
    6.2386   -2.8319   24.1504 H   0  0  0  0  0  0  0  0  0  0  0  0
    6.3337   -4.4753   22.2104 H   0  0  0  0  0  0  0  0  0  0  0  0
    5.8162   -5.3533   24.5033 H   0  0  0  0  0  0  0  0  0  0  0  0
    6.7021   -6.5161   23.4947 H   0  0  0  0  0  0  0  0  0  0  0  0
    7.5526   -5.6394   24.7787 H   0  0  0  0  0  0  0  0  0  0  0  0
  1  2  1  0
  2  3  1  0
  3  4  1  0
  3  5  1  0
  3  6  1  0
  2  7  1  0
  7  8  1  0
  8  9  2  0
  9 10  1  0
 10 11  1  0
 11 12  2  0
 12 13  1  0
 13 14  2  0
 14 15  1  0
 15 16  2  0
 16 17  1  0
 14 18  1  0
 13 19  1  0
 12 20  1  0
 10 21  1  0
 21 22  1  0
 22 23  1  0
 23 24  2  0
 24 25  1  0
 24 26  1  0
 26 27  2  0
 27 28  1  0
 28 29  2  0
 29 30  1  0
 28 31  1  0
 26 32  1  0
 22 33  1  0
 22 34  1  0
 21 35  2  0
  7 36  1  0
  7 37  1  0
  2 38  1  0
  1 39  1  0
  1 40  1  0
  1 41  1  0
 35  8  1  0
 16 11  1  0
 29 23  1  0
M  END
>  <cnnaffinity>  (1) 
-6.50723

>  <filename>  (1) 
CC(C)Cc1nc(Cc2c(F)cncc2Cl)n(-c2cccnc2)n1

$$$$
