
     RDKit          3D

 47 50  0  0  0  0  0  0  0  0999 V2000
   10.0130    1.6639   22.9224 C   0  0  0  0  0  0  0  0  0  0  0  0
   10.5458    1.0742   21.6042 C   0  0  0  0  0  0  0  0  0  0  0  0
    9.4116    0.4288   20.7824 C   0  0  0  0  0  0  0  0  0  0  0  0
    8.4816   -0.5490   21.4435 C   0  0  0  0  0  0  0  0  0  0  0  0
    8.6802   -1.3603   22.4598 N   0  0  0  0  0  0  0  0  0  0  0  0
    7.5013   -2.0410   22.5798 C   0  0  0  0  0  0  0  0  0  0  0  0
    7.2803   -3.0478   23.6421 C   0  0  0  0  0  0  0  0  0  0  0  0
    5.9953   -3.5812   23.8995 C   0  0  0  0  0  0  0  0  0  0  0  0
    5.7973   -4.4698   24.9532 C   0  0  0  0  0  0  0  0  0  0  0  0
    6.8684   -4.8402   25.7760 C   0  0  0  0  0  0  0  0  0  0  0  0
    6.6674   -5.6594   26.8771 N   0  0  0  0  0  0  0  0  0  0  0  0
    5.8689   -6.2658   26.7470 H   0  0  0  0  0  0  0  0  0  0  0  0
    7.4997   -6.1982   27.0743 H   0  0  0  0  0  0  0  0  0  0  0  0
    8.1519   -4.3560   25.5010 C   0  0  0  0  0  0  0  0  0  0  0  0
    8.3591   -3.4660   24.4540 C   0  0  0  0  0  0  0  0  0  0  0  0
    9.3609   -3.0767   24.2740 H   0  0  0  0  0  0  0  0  0  0  0  0
    8.9673   -4.6924   26.1356 H   0  0  0  0  0  0  0  0  0  0  0  0
    4.8214   -4.8951   25.1675 H   0  0  0  0  0  0  0  0  0  0  0  0
    5.1503   -3.2806   23.2795 H   0  0  0  0  0  0  0  0  0  0  0  0
    6.5935   -1.6961   21.6831 N   0  0  0  0  0  0  0  0  0  0  0  0
    7.2312   -0.7707   20.9349 N   0  0  0  0  0  0  0  0  0  0  0  0
    6.5530   -0.1228   19.8628 C   0  0  0  0  0  0  0  0  0  0  0  0
    5.3637    0.5674   20.1147 C   0  0  0  0  0  0  0  0  0  0  0  0
    4.8014    1.3034   19.0681 C   0  0  0  0  0  0  0  0  0  0  0  0
    5.4207    1.2910   17.8114 C   0  0  0  0  0  0  0  0  0  0  0  0
    6.5250    0.5761   17.5479 N   0  0  0  0  0  0  0  0  0  0  0  0
    7.0683   -0.1183   18.5546 C   0  0  0  0  0  0  0  0  0  0  0  0
    7.9695   -0.6832   18.3186 H   0  0  0  0  0  0  0  0  0  0  0  0
    5.0154    1.8647   16.9802 H   0  0  0  0  0  0  0  0  0  0  0  0
    3.9038    1.8942   19.2123 H   0  0  0  0  0  0  0  0  0  0  0  0
    4.9197    0.5290   21.1109 H   0  0  0  0  0  0  0  0  0  0  0  0
    9.8164   -0.0879   19.9038 H   0  0  0  0  0  0  0  0  0  0  0  0
    8.7985    1.2417   20.3844 H   0  0  0  0  0  0  0  0  0  0  0  0
   11.7651    0.1899   21.8107 C   0  0  0  0  0  0  0  0  0  0  0  0
   12.8944    0.7208   22.4587 C   0  0  0  0  0  0  0  0  0  0  0  0
   14.0060   -0.0926   22.6669 C   0  0  0  0  0  0  0  0  0  0  0  0
   13.9796   -1.4047   22.1863 C   0  0  0  0  0  0  0  0  0  0  0  0
   12.9350   -1.9262   21.5472 N   0  0  0  0  0  0  0  0  0  0  0  0
   11.8621   -1.1442   21.3778 C   0  0  0  0  0  0  0  0  0  0  0  0
   11.0290   -1.5959   20.8453 H   0  0  0  0  0  0  0  0  0  0  0  0
   14.8184   -2.0735   22.3360 H   0  0  0  0  0  0  0  0  0  0  0  0
   14.8807    0.2912   23.1683 H   0  0  0  0  0  0  0  0  0  0  0  0
   12.9028    1.7720   22.7593 H   0  0  0  0  0  0  0  0  0  0  0  0
   10.9012    1.9205   20.9906 H   0  0  0  0  0  0  0  0  0  0  0  0
    9.1803    2.3455   22.7190 H   0  0  0  0  0  0  0  0  0  0  0  0
    9.6624    0.8671   23.5926 H   0  0  0  0  0  0  0  0  0  0  0  0
   10.7881    2.2361   23.4435 H   0  0  0  0  0  0  0  0  0  0  0  0
  1  2  1  0
  2  3  1  0
  3  4  1  0
  4  5  2  0
  5  6  1  0
  6  7  1  0
  7  8  2  0
  8  9  1  0
  9 10  2  0
 10 11  1  0
 11 12  1  0
 11 13  1  0
 10 14  1  0
 14 15  2  0
 15 16  1  0
 14 17  1  0
  9 18  1  0
  8 19  1  0
  6 20  2  0
 20 21  1  0
 21 22  1  0
 22 23  2  0
 23 24  1  0
 24 25  2  0
 25 26  1  0
 26 27  2  0
 27 28  1  0
 25 29  1  0
 24 30  1  0
 23 31  1  0
  3 32  1  0
  3 33  1  0
  2 34  1  0
 34 35  2  0
 35 36  1  0
 36 37  2  0
 37 38  1  0
 38 39  2  0
 39 40  1  0
 37 41  1  0
 36 42  1  0
 35 43  1  0
  2 44  1  0
  1 45  1  0
  1 46  1  0
  1 47  1  0
 21  4  1  0
 27 22  1  0
 39 34  1  0
 15  7  1  0
M  END
>  <cnnaffinity>  (1) 
-6.80241

>  <filename>  (1) 
CC(Cc1nc(-c2ccc(N)cc2)nn1-c1cccnc1)c1cccnc1

$$$$
