
     RDKit          3D

 33 34  0  0  0  0  0  0  0  0999 V2000
    7.7666    6.4856   24.3832 H   0  0  0  0  0  0  0  0  0  0  0  0
    7.3389    5.9399   23.5456 C   0  0  0  0  0  0  0  0  0  0  0  0
    7.5600    4.6250   23.5437 N   0  0  0  0  0  0  0  0  0  0  0  0
    7.0781    3.9222   22.4986 C   0  0  0  0  0  0  0  0  0  0  0  0
    7.4116    2.5238   22.4333 C   0  0  0  0  0  0  0  0  0  0  0  0
    7.7048    1.3579   22.3731 C   0  0  0  0  0  0  0  0  0  0  0  0
    7.8756   -0.0949   22.3507 C   0  0  0  0  0  0  0  0  0  0  0  0
    7.5687   -0.6501   20.9061 C   0  0  0  0  0  0  0  0  0  0  0  0
    8.0403   -1.7262   20.5929 O   0  0  0  0  0  0  0  0  0  0  0  0
    6.7078    0.0770   19.9095 C   0  0  0  0  0  0  0  0  0  0  0  0
    7.1638    0.0287   18.5843 C   0  0  0  0  0  0  0  0  0  0  0  0
    8.0692   -0.5336   18.3606 H   0  0  0  0  0  0  0  0  0  0  0  0
    6.5637    0.6405   17.5623 N   0  0  0  0  0  0  0  0  0  0  0  0
    5.4237    1.2972   17.8237 C   0  0  0  0  0  0  0  0  0  0  0  0
    4.9600    1.8029   16.9756 H   0  0  0  0  0  0  0  0  0  0  0  0
    4.8405    1.3431   19.0933 C   0  0  0  0  0  0  0  0  0  0  0  0
    3.8985    1.8617   19.2161 H   0  0  0  0  0  0  0  0  0  0  0  0
    5.4886    0.7309   20.1676 C   0  0  0  0  0  0  0  0  0  0  0  0
    5.0387    0.7531   21.1624 H   0  0  0  0  0  0  0  0  0  0  0  0
    9.3035   -0.4694   22.8327 C   0  0  0  0  0  0  0  0  0  0  0  0
    9.4505   -0.1118   23.8602 H   0  0  0  0  0  0  0  0  0  0  0  0
   10.0699   -0.0175   22.1938 H   0  0  0  0  0  0  0  0  0  0  0  0
    9.4371   -1.5544   22.8306 H   0  0  0  0  0  0  0  0  0  0  0  0
    6.8215   -0.6745   23.3267 C   0  0  0  0  0  0  0  0  0  0  0  0
    7.0850   -0.4616   24.3689 H   0  0  0  0  0  0  0  0  0  0  0  0
    5.8643   -0.1847   23.1391 H   0  0  0  0  0  0  0  0  0  0  0  0
    6.7246   -1.7587   23.2021 H   0  0  0  0  0  0  0  0  0  0  0  0
    6.3050    4.5122   21.4878 C   0  0  0  0  0  0  0  0  0  0  0  0
    5.9029    3.8841   20.7066 H   0  0  0  0  0  0  0  0  0  0  0  0
    6.0917    5.8877   21.4911 C   0  0  0  0  0  0  0  0  0  0  0  0
    5.5390    6.3816   20.6903 H   0  0  0  0  0  0  0  0  0  0  0  0
    6.6345    6.6189   22.5460 C   0  0  0  0  0  0  0  0  0  0  0  0
    6.5213    7.6915   22.5917 H   0  0  0  0  0  0  0  0  0  0  0  0
  1  2  1  0
  2  3  2  0
  3  4  1  0
  4  5  1  0
  5  6  3  0
  6  7  1  0
  7  8  1  0
  8  9  2  0
  8 10  1  0
 10 11  2  0
 11 12  1  0
 11 13  1  0
 13 14  2  0
 14 15  1  0
 14 16  1  0
 16 17  1  0
 16 18  2  0
 18 19  1  0
  7 20  1  0
 20 21  1  0
 20 22  1  0
 20 23  1  0
  7 24  1  0
 24 25  1  0
 24 26  1  0
 24 27  1  0
  4 28  2  0
 28 29  1  0
 28 30  1  0
 30 31  1  0
 30 32  2  0
 32 33  1  0
 32  2  1  0
 18 10  1  0
M  END
>  <cnnaffinity>  (1) 
-4.90214

>  <filename>  (1) 
CC(C)(C#Cc1ccccn1)C(=O)c1cccnc1

$$$$
