
     RDKit          3D

 45 47  0  0  0  0  0  0  0  0999 V2000
    8.7080   -5.5650   23.7890 C   0  0  0  0  0  0  0  0  0  0  0  0
    7.9239   -4.3154   23.3820 C   0  0  0  0  0  0  0  0  0  0  0  0
    6.5503   -4.6679   22.8015 C   0  0  0  0  0  0  0  0  0  0  0  0
    5.9333   -5.2083   23.5284 H   0  0  0  0  0  0  0  0  0  0  0  0
    6.6624   -5.3046   21.9110 H   0  0  0  0  0  0  0  0  0  0  0  0
    6.0057   -3.7674   22.4913 H   0  0  0  0  0  0  0  0  0  0  0  0
    8.7140   -3.4875   22.3528 C   0  0  0  0  0  0  0  0  0  0  0  0
    8.0947   -2.1588   22.0671 C   0  0  0  0  0  0  0  0  0  0  0  0
    7.6196   -1.8521   20.8818 N   0  0  0  0  0  0  0  0  0  0  0  0
    7.1907   -0.5753   21.0474 N   0  0  0  0  0  0  0  0  0  0  0  0
    6.5576    0.0902   19.9670 C   0  0  0  0  0  0  0  0  0  0  0  0
    5.3419    0.7691   20.1166 C   0  0  0  0  0  0  0  0  0  0  0  0
    4.7952    1.3767   18.9792 C   0  0  0  0  0  0  0  0  0  0  0  0
    5.4807    1.2990   17.7622 C   0  0  0  0  0  0  0  0  0  0  0  0
    6.6380    0.6295   17.6148 N   0  0  0  0  0  0  0  0  0  0  0  0
    7.1514    0.0296   18.6939 C   0  0  0  0  0  0  0  0  0  0  0  0
    8.0720   -0.5361   18.5559 H   0  0  0  0  0  0  0  0  0  0  0  0
    5.0900    1.7844   16.8681 H   0  0  0  0  0  0  0  0  0  0  0  0
    3.8603    1.9229   19.0337 H   0  0  0  0  0  0  0  0  0  0  0  0
    4.8330    0.7983   21.0817 H   0  0  0  0  0  0  0  0  0  0  0  0
    7.5083   -0.1560   22.3052 C   0  0  0  0  0  0  0  0  0  0  0  0
    7.5333    1.2911   22.7138 C   0  0  0  0  0  0  0  0  0  0  0  0
    8.6385    2.1182   21.9897 C   0  0  0  0  0  0  0  0  0  0  0  0
   10.0582    1.6492   22.2676 C   0  0  0  0  0  0  0  0  0  0  0  0
   10.6393    0.5769   21.5782 C   0  0  0  0  0  0  0  0  0  0  0  0
    9.9122    0.0517   20.5630 F   0  0  0  0  0  0  0  0  0  0  0  0
   11.8874    0.0317   21.8753 C   0  0  0  0  0  0  0  0  0  0  0  0
   12.6253    0.5845   22.9324 C   0  0  0  0  0  0  0  0  0  0  0  0
   12.1131    1.6741   23.6398 C   0  0  0  0  0  0  0  0  0  0  0  0
   10.8649    2.1828   23.2815 C   0  0  0  0  0  0  0  0  0  0  0  0
   10.4030    3.2470   23.9642 F   0  0  0  0  0  0  0  0  0  0  0  0
   12.6474    2.1338   24.4656 H   0  0  0  0  0  0  0  0  0  0  0  0
   13.5952    0.1621   23.2029 H   0  0  0  0  0  0  0  0  0  0  0  0
   12.2415   -0.8037   21.2814 H   0  0  0  0  0  0  0  0  0  0  0  0
    8.4457    2.0629   20.9106 H   0  0  0  0  0  0  0  0  0  0  0  0
    8.5327    3.1669   22.2914 H   0  0  0  0  0  0  0  0  0  0  0  0
    6.5603    1.7513   22.5130 H   0  0  0  0  0  0  0  0  0  0  0  0
    7.6710    1.3080   23.7994 H   0  0  0  0  0  0  0  0  0  0  0  0
    8.0130   -1.1635   22.9915 N   0  0  0  0  0  0  0  0  0  0  0  0
    8.7486   -4.0108   21.3942 H   0  0  0  0  0  0  0  0  0  0  0  0
    9.7411   -3.3151   22.6997 H   0  0  0  0  0  0  0  0  0  0  0  0
    7.7824   -3.6887   24.2780 H   0  0  0  0  0  0  0  0  0  0  0  0
    8.1804   -6.1284   24.5671 H   0  0  0  0  0  0  0  0  0  0  0  0
    9.6925   -5.2986   24.1932 H   0  0  0  0  0  0  0  0  0  0  0  0
    8.8616   -6.2378   22.9334 H   0  0  0  0  0  0  0  0  0  0  0  0
  1  2  1  0
  2  3  1  0
  3  4  1  0
  3  5  1  0
  3  6  1  0
  2  7  1  0
  7  8  1  0
  8  9  2  0
  9 10  1  0
 10 11  1  0
 11 12  2  0
 12 13  1  0
 13 14  2  0
 14 15  1  0
 15 16  2  0
 16 17  1  0
 14 18  1  0
 13 19  1  0
 12 20  1  0
 10 21  1  0
 21 22  1  0
 22 23  1  0
 23 24  1  0
 24 25  2  0
 25 26  1  0
 25 27  1  0
 27 28  2  0
 28 29  1  0
 29 30  2  0
 30 31  1  0
 29 32  1  0
 28 33  1  0
 27 34  1  0
 23 35  1  0
 23 36  1  0
 22 37  1  0
 22 38  1  0
 21 39  2  0
  7 40  1  0
  7 41  1  0
  2 42  1  0
  1 43  1  0
  1 44  1  0
  1 45  1  0
 39  8  1  0
 16 11  1  0
 30 24  1  0
M  END
>  <cnnaffinity>  (1) 
-6.31955

>  <filename>  (1) 
CC(C)Cc1nc(CCc2c(F)cccc2F)n(-c2cccnc2)n1

$$$$
