
     RDKit          3D

 39 41  0  0  0  0  0  0  0  0999 V2000
    6.8275   -4.3137   23.0766 C   0  0  0  0  0  0  0  0  0  0  0  0
    7.4178   -3.0152   23.6391 C   0  0  0  0  0  0  0  0  0  0  0  0
    6.4950   -2.4372   24.7191 C   0  0  0  0  0  0  0  0  0  0  0  0
    6.9202   -1.5184   25.1374 H   0  0  0  0  0  0  0  0  0  0  0  0
    6.3615   -3.1574   25.5308 H   0  0  0  0  0  0  0  0  0  0  0  0
    5.5127   -2.2023   24.2980 H   0  0  0  0  0  0  0  0  0  0  0  0
    7.6007   -2.0048   22.5438 C   0  0  0  0  0  0  0  0  0  0  0  0
    6.6484   -1.5986   21.7360 N   0  0  0  0  0  0  0  0  0  0  0  0
    7.2765   -0.6868   20.9664 N   0  0  0  0  0  0  0  0  0  0  0  0
    6.6499   -0.0005   19.9170 C   0  0  0  0  0  0  0  0  0  0  0  0
    5.4309    0.6350   20.1483 C   0  0  0  0  0  0  0  0  0  0  0  0
    4.8143    1.2986   19.0884 C   0  0  0  0  0  0  0  0  0  0  0  0
    5.4197    1.3001   17.8286 C   0  0  0  0  0  0  0  0  0  0  0  0
    6.5917    0.6800   17.5902 N   0  0  0  0  0  0  0  0  0  0  0  0
    7.1910    0.0498   18.6205 C   0  0  0  0  0  0  0  0  0  0  0  0
    8.1377   -0.4465   18.4315 H   0  0  0  0  0  0  0  0  0  0  0  0
    4.9195    1.8213   17.0193 H   0  0  0  0  0  0  0  0  0  0  0  0
    3.8769    1.8265   19.2322 H   0  0  0  0  0  0  0  0  0  0  0  0
    4.9896    0.6264   21.1440 H   0  0  0  0  0  0  0  0  0  0  0  0
    8.5997   -0.6010   21.3686 C   0  0  0  0  0  0  0  0  0  0  0  0
    9.6412    0.2619   20.7596 C   0  0  0  0  0  0  0  0  0  0  0  0
   10.4251    0.9770   21.8137 C   0  0  0  0  0  0  0  0  0  0  0  0
    9.8863    2.0571   22.5046 C   0  0  0  0  0  0  0  0  0  0  0  0
    8.1333    2.7321   22.1102 Br  0  0  0  0  0  0  0  0  0  0  0  0
   10.6678    2.6186   23.5130 C   0  0  0  0  0  0  0  0  0  0  0  0
   10.2861    3.6315   24.2900 O   0  0  0  0  0  0  0  0  0  0  0  0
   11.0750    3.7281   24.8487 H   0  0  0  0  0  0  0  0  0  0  0  0
   11.8870    2.2179   23.8653 N   0  0  0  0  0  0  0  0  0  0  0  0
   12.4099    1.1883   23.1908 C   0  0  0  0  0  0  0  0  0  0  0  0
   11.7052    0.5507   22.1667 C   0  0  0  0  0  0  0  0  0  0  0  0
   12.1611   -0.2866   21.6609 H   0  0  0  0  0  0  0  0  0  0  0  0
   13.4026    0.8313   23.4615 H   0  0  0  0  0  0  0  0  0  0  0  0
    9.1651    0.9827   20.0934 H   0  0  0  0  0  0  0  0  0  0  0  0
   10.2935   -0.3955   20.1880 H   0  0  0  0  0  0  0  0  0  0  0  0
    8.8359   -1.4244   22.3447 N   0  0  0  0  0  0  0  0  0  0  0  0
    8.3994   -3.2241   24.0795 H   0  0  0  0  0  0  0  0  0  0  0  0
    6.6920   -5.0450   23.8793 H   0  0  0  0  0  0  0  0  0  0  0  0
    5.8551   -4.1195   22.6098 H   0  0  0  0  0  0  0  0  0  0  0  0
    7.4961   -4.7432   22.3227 H   0  0  0  0  0  0  0  0  0  0  0  0
  1  2  1  0
  2  3  1  0
  3  4  1  0
  3  5  1  0
  3  6  1  0
  2  7  1  0
  7  8  2  0
  8  9  1  0
  9 10  1  0
 10 11  2  0
 11 12  1  0
 12 13  2  0
 13 14  1  0
 14 15  2  0
 15 16  1  0
 13 17  1  0
 12 18  1  0
 11 19  1  0
  9 20  1  0
 20 21  1  0
 21 22  1  0
 22 23  2  0
 23 24  1  0
 23 25  1  0
 25 26  1  0
 26 27  1  0
 25 28  2  0
 28 29  1  0
 29 30  2  0
 30 31  1  0
 29 32  1  0
 21 33  1  0
 21 34  1  0
 20 35  2  0
  2 36  1  0
  1 37  1  0
  1 38  1  0
  1 39  1  0
 35  7  1  0
 15 10  1  0
 30 22  1  0
M  END
>  <cnnaffinity>  (1) 
-5.9854

>  <filename>  (1) 
CC(C)c1nc(Cc2ccnc(O)c2Br)n(-c2cccnc2)n1

$$$$
