
     RDKit          3D

 49 52  0  0  0  0  0  0  0  0999 V2000
    8.9650   -1.3318   26.5856 C   0  0  0  0  0  0  0  0  0  0  0  0
    7.6923   -0.5907   27.0244 C   0  0  0  0  0  0  0  0  0  0  0  0
    7.9872    0.4786   28.0809 C   0  0  0  0  0  0  0  0  0  0  0  0
    8.5672    1.2810   27.6148 H   0  0  0  0  0  0  0  0  0  0  0  0
    8.5651    0.0710   28.9156 H   0  0  0  0  0  0  0  0  0  0  0  0
    7.0582    0.9069   28.4667 H   0  0  0  0  0  0  0  0  0  0  0  0
    7.0136    0.0424   25.8739 N   0  0  0  0  0  0  0  0  0  0  0  0
    5.7512   -0.1257   25.4073 C   0  0  0  0  0  0  0  0  0  0  0  0
    5.6469    0.6587   24.2732 C   0  0  0  0  0  0  0  0  0  0  0  0
    6.9170    1.2352   24.1125 C   0  0  0  0  0  0  0  0  0  0  0  0
    7.4952    1.9191   22.9058 C   0  0  0  0  0  0  0  0  0  0  0  0
    8.4921    0.9943   22.2912 C   0  0  0  0  0  0  0  0  0  0  0  0
    9.8035    1.0785   22.4324 N   0  0  0  0  0  0  0  0  0  0  0  0
   10.2416   -0.1276   21.9972 C   0  0  0  0  0  0  0  0  0  0  0  0
   11.6514   -0.5336   21.8312 C   0  0  0  0  0  0  0  0  0  0  0  0
   12.7748    0.1984   22.2684 C   0  0  0  0  0  0  0  0  0  0  0  0
   14.0557   -0.1387   21.8014 C   0  0  0  0  0  0  0  0  0  0  0  0
   14.1718   -1.1610   20.8448 C   0  0  0  0  0  0  0  0  0  0  0  0
   15.2432   -1.2717   20.0496 F   0  0  0  0  0  0  0  0  0  0  0  0
   13.1024   -1.9802   20.5251 C   0  0  0  0  0  0  0  0  0  0  0  0
   11.8581   -1.6886   21.0594 C   0  0  0  0  0  0  0  0  0  0  0  0
   10.9839   -2.2777   20.7980 H   0  0  0  0  0  0  0  0  0  0  0  0
   13.2549   -2.7836   19.8162 H   0  0  0  0  0  0  0  0  0  0  0  0
   14.9114    0.4851   22.0419 H   0  0  0  0  0  0  0  0  0  0  0  0
   12.6439    1.0662   22.9186 H   0  0  0  0  0  0  0  0  0  0  0  0
    9.2651   -0.9322   21.5893 N   0  0  0  0  0  0  0  0  0  0  0  0
    8.1514   -0.2041   21.7611 N   0  0  0  0  0  0  0  0  0  0  0  0
    6.8887   -0.6965   21.2096 C   0  0  0  0  0  0  0  0  0  0  0  0
    6.3992    0.0774   20.0047 C   0  0  0  0  0  0  0  0  0  0  0  0
    5.1733    0.7523   19.9918 C   0  0  0  0  0  0  0  0  0  0  0  0
    4.7909    1.4298   18.8293 C   0  0  0  0  0  0  0  0  0  0  0  0
    5.6514    1.4081   17.7254 C   0  0  0  0  0  0  0  0  0  0  0  0
    6.8335    0.7696   17.7203 N   0  0  0  0  0  0  0  0  0  0  0  0
    7.1938    0.1361   18.8442 C   0  0  0  0  0  0  0  0  0  0  0  0
    8.1708   -0.3515   18.8301 H   0  0  0  0  0  0  0  0  0  0  0  0
    5.3789    1.9205   16.8019 H   0  0  0  0  0  0  0  0  0  0  0  0
    3.8591    1.9846   18.7734 H   0  0  0  0  0  0  0  0  0  0  0  0
    4.5314    0.7619   20.8799 H   0  0  0  0  0  0  0  0  0  0  0  0
    6.1411   -0.6955   22.0042 H   0  0  0  0  0  0  0  0  0  0  0  0
    7.0755   -1.7435   20.9507 H   0  0  0  0  0  0  0  0  0  0  0  0
    6.6977    2.1716   22.2001 H   0  0  0  0  0  0  0  0  0  0  0  0
    8.0154    2.8328   23.1892 H   0  0  0  0  0  0  0  0  0  0  0  0
    7.7093    0.8940   25.1160 N   0  0  0  0  0  0  0  0  0  0  0  0
    4.7971    0.7716   23.6164 H   0  0  0  0  0  0  0  0  0  0  0  0
    5.0486   -0.7680   25.9205 H   0  0  0  0  0  0  0  0  0  0  0  0
    6.9759   -1.3209   27.4148 H   0  0  0  0  0  0  0  0  0  0  0  0
    9.6698   -0.6320   26.1223 H   0  0  0  0  0  0  0  0  0  0  0  0
    9.4539   -1.7902   27.4512 H   0  0  0  0  0  0  0  0  0  0  0  0
    8.7431   -2.1201   25.8598 H   0  0  0  0  0  0  0  0  0  0  0  0
  1  2  1  0
  2  3  1  0
  3  4  1  0
  3  5  1  0
  3  6  1  0
  2  7  1  0
  7  8  1  0
  8  9  2  0
  9 10  1  0
 10 11  1  0
 11 12  1  0
 12 13  2  0
 13 14  1  0
 14 15  1  0
 15 16  2  0
 16 17  1  0
 17 18  2  0
 18 19  1  0
 18 20  1  0
 20 21  2  0
 21 22  1  0
 20 23  1  0
 17 24  1  0
 16 25  1  0
 14 26  2  0
 26 27  1  0
 27 28  1  0
 28 29  1  0
 29 30  2  0
 30 31  1  0
 31 32  2  0
 32 33  1  0
 33 34  2  0
 34 35  1  0
 32 36  1  0
 31 37  1  0
 30 38  1  0
 28 39  1  0
 28 40  1  0
 11 41  1  0
 11 42  1  0
 10 43  2  0
  9 44  1  0
  8 45  1  0
  2 46  1  0
  1 47  1  0
  1 48  1  0
  1 49  1  0
 43  7  1  0
 27 12  1  0
 34 29  1  0
 21 15  1  0
M  END
>  <cnnaffinity>  (1) 
-6.72934

>  <filename>  (1) 
CC(C)n1ccc(Cc2nc(-c3ccc(F)cc3)nn2Cc2cccnc2)n1

$$$$
