
     RDKit          3D

 40 43  0  0  0  0  0  0  0  0999 V2000
    9.8798   -3.0928   23.3662 C   0  0  0  0  0  0  0  0  0  0  0  0
    8.7126   -3.3589   22.4002 C   0  0  0  0  0  0  0  0  0  0  0  0
    8.0018   -2.0730   22.0628 C   0  0  0  0  0  0  0  0  0  0  0  0
    7.7907   -1.7505   20.8087 N   0  0  0  0  0  0  0  0  0  0  0  0
    7.2485   -0.5212   20.9112 N   0  0  0  0  0  0  0  0  0  0  0  0
    6.6499    0.1291   19.8344 C   0  0  0  0  0  0  0  0  0  0  0  0
    5.5275    0.9257   20.0549 C   0  0  0  0  0  0  0  0  0  0  0  0
    4.9115    1.5144   18.9547 C   0  0  0  0  0  0  0  0  0  0  0  0
    5.4353    1.3105   17.6719 C   0  0  0  0  0  0  0  0  0  0  0  0
    6.5146    0.5314   17.4512 N   0  0  0  0  0  0  0  0  0  0  0  0
    7.1016   -0.0607   18.5123 C   0  0  0  0  0  0  0  0  0  0  0  0
    7.9561   -0.7113   18.3347 H   0  0  0  0  0  0  0  0  0  0  0  0
    4.9575    1.8038   16.8304 H   0  0  0  0  0  0  0  0  0  0  0  0
    4.0331    2.1372   19.0885 H   0  0  0  0  0  0  0  0  0  0  0  0
    5.1292    1.0489   21.0622 H   0  0  0  0  0  0  0  0  0  0  0  0
    7.2288   -0.1274   22.2494 C   0  0  0  0  0  0  0  0  0  0  0  0
    6.9556    1.1754   22.8175 C   0  0  0  0  0  0  0  0  0  0  0  0
    7.1547    2.3568   22.1205 C   0  0  0  0  0  0  0  0  0  0  0  0
    6.9982    3.6416   22.8175 C   0  0  0  0  0  0  0  0  0  0  0  0
    7.4158    5.2717   21.8997 Br  0  0  0  0  0  0  0  0  0  0  0  0
    6.6000    3.6746   24.1400 C   0  0  0  0  0  0  0  0  0  0  0  0
    6.3543    2.4632   24.8049 N   0  0  0  0  0  0  0  0  0  0  0  0
    6.5794    1.2372   24.2173 C   0  0  0  0  0  0  0  0  0  0  0  0
    6.4414    0.2490   24.9172 O   0  0  0  0  0  0  0  0  0  0  0  0
    6.0956    2.4440   25.7839 H   0  0  0  0  0  0  0  0  0  0  0  0
    6.5035    4.6429   24.6401 H   0  0  0  0  0  0  0  0  0  0  0  0
    7.4878    2.3684   21.0811 H   0  0  0  0  0  0  0  0  0  0  0  0
    7.6351   -1.1083   22.9911 N   0  0  0  0  0  0  0  0  0  0  0  0
    7.8177   -4.4863   22.9363 C   0  0  0  0  0  0  0  0  0  0  0  0
    6.7627   -4.2670   24.0109 C   0  0  0  0  0  0  0  0  0  0  0  0
    6.3351   -4.5337   22.5709 C   0  0  0  0  0  0  0  0  0  0  0  0
    5.8839   -5.5032   22.3357 H   0  0  0  0  0  0  0  0  0  0  0  0
    5.9020   -3.6902   22.0267 H   0  0  0  0  0  0  0  0  0  0  0  0
    6.6262   -3.2518   24.3911 H   0  0  0  0  0  0  0  0  0  0  0  0
    6.6145   -5.0633   24.7469 H   0  0  0  0  0  0  0  0  0  0  0  0
    8.3529   -5.4427   22.9547 H   0  0  0  0  0  0  0  0  0  0  0  0
    9.0992   -3.7245   21.4562 H   0  0  0  0  0  0  0  0  0  0  0  0
   10.7575   -2.6952   22.8394 H   0  0  0  0  0  0  0  0  0  0  0  0
    9.5531   -2.3717   24.1243 H   0  0  0  0  0  0  0  0  0  0  0  0
   10.1878   -4.0103   23.8756 H   0  0  0  0  0  0  0  0  0  0  0  0
  1  2  1  0
  2  3  1  0
  3  4  2  0
  4  5  1  0
  5  6  1  0
  6  7  2  0
  7  8  1  0
  8  9  2  0
  9 10  1  0
 10 11  2  0
 11 12  1  0
  9 13  1  0
  8 14  1  0
  7 15  1  0
  5 16  1  0
 16 17  1  0
 17 18  2  0
 18 19  1  0
 19 20  1  0
 19 21  2  0
 21 22  1  0
 22 23  1  0
 23 24  2  0
 22 25  1  0
 21 26  1  0
 18 27  1  0
 16 28  2  0
  2 29  1  0
 29 30  1  0
 30 31  1  0
 31 32  1  0
 31 33  1  0
 30 34  1  0
 30 35  1  0
 29 36  1  0
  2 37  1  0
  1 38  1  0
  1 39  1  0
  1 40  1  0
 28  3  1  0
 31 29  1  0
 11  6  1  0
 23 17  1  0
M  END
>  <cnnaffinity>  (1) 
-6.26297

>  <filename>  (1) 
CC(c1nc(-c2cc(Br)c[nH]c2=O)n(-c2cccnc2)n1)C1CC1

$$$$
