
     RDKit          3D

 49 52  0  0  0  0  0  0  0  0999 V2000
    8.1556    2.5075   21.7183 C   0  0  0  0  0  0  0  0  0  0  0  0
    9.4946    1.8033   21.8745 C   0  0  0  0  0  0  0  0  0  0  0  0
    9.5759    0.5271   20.9951 C   0  0  0  0  0  0  0  0  0  0  0  0
    8.6240   -0.5505   21.3879 C   0  0  0  0  0  0  0  0  0  0  0  0
    8.8539   -1.4266   22.3407 N   0  0  0  0  0  0  0  0  0  0  0  0
    7.6537   -2.0500   22.4907 C   0  0  0  0  0  0  0  0  0  0  0  0
    7.4301   -3.0828   23.5560 C   0  0  0  0  0  0  0  0  0  0  0  0
    8.4238   -4.2676   23.4125 C   0  0  0  0  0  0  0  0  0  0  0  0
    8.2049   -5.3171   24.5170 C   0  0  0  0  0  0  0  0  0  0  0  0
    8.2919   -4.6948   25.9233 C   0  0  0  0  0  0  0  0  0  0  0  0
    7.3153   -3.5137   26.0774 C   0  0  0  0  0  0  0  0  0  0  0  0
    7.5332   -2.4607   24.9775 C   0  0  0  0  0  0  0  0  0  0  0  0
    8.5404   -2.0277   25.0818 H   0  0  0  0  0  0  0  0  0  0  0  0
    6.8170   -1.6326   25.0903 H   0  0  0  0  0  0  0  0  0  0  0  0
    7.4282   -3.0518   27.0676 H   0  0  0  0  0  0  0  0  0  0  0  0
    6.2775   -3.8833   26.0303 H   0  0  0  0  0  0  0  0  0  0  0  0
    9.3209   -4.3383   26.0980 H   0  0  0  0  0  0  0  0  0  0  0  0
    8.1004   -5.4551   26.6927 H   0  0  0  0  0  0  0  0  0  0  0  0
    7.2116   -5.7770   24.3836 H   0  0  0  0  0  0  0  0  0  0  0  0
    8.9332   -6.1315   24.4122 H   0  0  0  0  0  0  0  0  0  0  0  0
    9.4538   -3.8750   23.4530 H   0  0  0  0  0  0  0  0  0  0  0  0
    8.3131   -4.7301   22.4227 H   0  0  0  0  0  0  0  0  0  0  0  0
    6.4032   -3.4457   23.3996 H   0  0  0  0  0  0  0  0  0  0  0  0
    6.7094   -1.6373   21.6699 N   0  0  0  0  0  0  0  0  0  0  0  0
    7.3441   -0.6925   20.9223 N   0  0  0  0  0  0  0  0  0  0  0  0
    6.6514   -0.0036   19.8913 C   0  0  0  0  0  0  0  0  0  0  0  0
    5.4380    0.6395   20.1549 C   0  0  0  0  0  0  0  0  0  0  0  0
    4.8082    1.3128   19.1030 C   0  0  0  0  0  0  0  0  0  0  0  0
    5.3947    1.2996   17.8327 C   0  0  0  0  0  0  0  0  0  0  0  0
    6.5482    0.6681   17.5693 N   0  0  0  0  0  0  0  0  0  0  0  0
    7.1601    0.0418   18.5809 C   0  0  0  0  0  0  0  0  0  0  0  0
    8.1038   -0.4467   18.3453 H   0  0  0  0  0  0  0  0  0  0  0  0
    4.9308    1.8071   16.9905 H   0  0  0  0  0  0  0  0  0  0  0  0
    3.8761    1.8431   19.2518 H   0  0  0  0  0  0  0  0  0  0  0  0
    5.0167    0.5940   21.1611 H   0  0  0  0  0  0  0  0  0  0  0  0
   10.5829    0.1087   21.0405 H   0  0  0  0  0  0  0  0  0  0  0  0
    9.3812    0.8103   19.9630 H   0  0  0  0  0  0  0  0  0  0  0  0
    9.7787    1.5242   23.2779 N   0  0  0  0  0  0  0  0  0  0  0  0
    8.8796    1.1405   24.2533 C   0  0  0  0  0  0  0  0  0  0  0  0
    9.6338    0.8637   25.3586 C   0  0  0  0  0  0  0  0  0  0  0  0
   10.9678    1.0409   25.0933 N   0  0  0  0  0  0  0  0  0  0  0  0
   11.0161    1.4266   23.8441 C   0  0  0  0  0  0  0  0  0  0  0  0
   11.9153    1.6635   23.2904 H   0  0  0  0  0  0  0  0  0  0  0  0
    9.3146    0.5219   26.3370 H   0  0  0  0  0  0  0  0  0  0  0  0
    7.8296    1.0188   24.0321 H   0  0  0  0  0  0  0  0  0  0  0  0
   10.2924    2.4806   21.5379 H   0  0  0  0  0  0  0  0  0  0  0  0
    7.3224    1.8997   22.0929 H   0  0  0  0  0  0  0  0  0  0  0  0
    7.9980    2.6470   20.6528 H   0  0  0  0  0  0  0  0  0  0  0  0
    8.1540    3.4641   22.2544 H   0  0  0  0  0  0  0  0  0  0  0  0
  1  2  1  0
  2  3  1  0
  3  4  1  0
  4  5  2  0
  5  6  1  0
  6  7  1  0
  7  8  1  0
  8  9  1  0
  9 10  1  0
 10 11  1  0
 11 12  1  0
 12 13  1  0
 12 14  1  0
 11 15  1  0
 11 16  1  0
 10 17  1  0
 10 18  1  0
  9 19  1  0
  9 20  1  0
  8 21  1  0
  8 22  1  0
  7 23  1  0
  6 24  2  0
 24 25  1  0
 25 26  1  0
 26 27  2  0
 27 28  1  0
 28 29  2  0
 29 30  1  0
 30 31  2  0
 31 32  1  0
 29 33  1  0
 28 34  1  0
 27 35  1  0
  3 36  1  0
  3 37  1  0
  2 38  1  0
 38 39  1  0
 39 40  2  0
 40 41  1  0
 41 42  2  0
 42 43  1  0
 40 44  1  0
 39 45  1  0
  2 46  1  0
  1 47  1  0
  1 48  1  0
  1 49  1  0
 25  4  1  0
 31 26  1  0
 42 38  1  0
 12  7  1  0
M  END
>  <cnnaffinity>  (1) 
-6.36387

>  <filename>  (1) 
CC(Cc1nc(C2CCCCC2)nn1-c1cccnc1)n1ccnc1

$$$$
