
     RDKit          3D

 46 49  0  0  0  0  0  0  0  0999 V2000
    8.1442    2.5334   21.7366 C   0  0  0  0  0  0  0  0  0  0  0  0
    9.4719    1.8083   21.8935 C   0  0  0  0  0  0  0  0  0  0  0  0
    9.5577    0.5438   20.9856 C   0  0  0  0  0  0  0  0  0  0  0  0
    8.6180   -0.5423   21.3907 C   0  0  0  0  0  0  0  0  0  0  0  0
    8.8546   -1.4275   22.3323 N   0  0  0  0  0  0  0  0  0  0  0  0
    7.6613   -2.0544   22.4864 C   0  0  0  0  0  0  0  0  0  0  0  0
    7.4417   -3.1256   23.5173 C   0  0  0  0  0  0  0  0  0  0  0  0
    8.4182   -4.3138   23.3424 C   0  0  0  0  0  0  0  0  0  0  0  0
    9.6410   -4.0093   24.2329 C   0  0  0  0  0  0  0  0  0  0  0  0
    9.1808   -2.9622   25.2724 C   0  0  0  0  0  0  0  0  0  0  0  0
    7.7020   -2.6347   24.9635 C   0  0  0  0  0  0  0  0  0  0  0  0
    7.0380   -3.1667   25.6550 H   0  0  0  0  0  0  0  0  0  0  0  0
    7.4704   -1.5675   25.0814 H   0  0  0  0  0  0  0  0  0  0  0  0
    9.2969   -3.3150   26.3018 H   0  0  0  0  0  0  0  0  0  0  0  0
    9.8017   -2.0695   25.1896 H   0  0  0  0  0  0  0  0  0  0  0  0
   10.0211   -4.9210   24.7055 H   0  0  0  0  0  0  0  0  0  0  0  0
   10.4652   -3.6092   23.6337 H   0  0  0  0  0  0  0  0  0  0  0  0
    7.9272   -5.2385   23.6668 H   0  0  0  0  0  0  0  0  0  0  0  0
    8.6913   -4.4672   22.2931 H   0  0  0  0  0  0  0  0  0  0  0  0
    6.4028   -3.4285   23.3758 H   0  0  0  0  0  0  0  0  0  0  0  0
    6.7164   -1.6545   21.6567 N   0  0  0  0  0  0  0  0  0  0  0  0
    7.3424   -0.6942   20.9183 N   0  0  0  0  0  0  0  0  0  0  0  0
    6.6513    0.0044   19.8962 C   0  0  0  0  0  0  0  0  0  0  0  0
    5.4380    0.6464   20.1663 C   0  0  0  0  0  0  0  0  0  0  0  0
    4.8115    1.3123   19.1071 C   0  0  0  0  0  0  0  0  0  0  0  0
    5.4001    1.2983   17.8353 C   0  0  0  0  0  0  0  0  0  0  0  0
    6.5577    0.6730   17.5699 N   0  0  0  0  0  0  0  0  0  0  0  0
    7.1640    0.0521   18.5875 C   0  0  0  0  0  0  0  0  0  0  0  0
    8.1095   -0.4352   18.3645 H   0  0  0  0  0  0  0  0  0  0  0  0
    4.9193    1.7885   16.9918 H   0  0  0  0  0  0  0  0  0  0  0  0
    3.8783    1.8405   19.2596 H   0  0  0  0  0  0  0  0  0  0  0  0
    5.0131    0.6103   21.1751 H   0  0  0  0  0  0  0  0  0  0  0  0
    9.3758    0.8269   19.9458 H   0  0  0  0  0  0  0  0  0  0  0  0
   10.5710    0.1415   21.0246 H   0  0  0  0  0  0  0  0  0  0  0  0
    9.7630    1.5076   23.2966 N   0  0  0  0  0  0  0  0  0  0  0  0
   10.9974    1.3101   23.8240 C   0  0  0  0  0  0  0  0  0  0  0  0
   10.8126    0.9300   25.1326 C   0  0  0  0  0  0  0  0  0  0  0  0
    9.4101    0.8987   25.2932 C   0  0  0  0  0  0  0  0  0  0  0  0
    8.7837    1.2439   24.1782 N   0  0  0  0  0  0  0  0  0  0  0  0
    8.8182    0.6238   26.1616 H   0  0  0  0  0  0  0  0  0  0  0  0
   11.5566    0.6621   25.8687 H   0  0  0  0  0  0  0  0  0  0  0  0
   11.8864    1.4515   23.2169 H   0  0  0  0  0  0  0  0  0  0  0  0
   10.2770    2.4770   21.5651 H   0  0  0  0  0  0  0  0  0  0  0  0
    7.2963    1.9362   22.0822 H   0  0  0  0  0  0  0  0  0  0  0  0
    7.9858    2.6755   20.6763 H   0  0  0  0  0  0  0  0  0  0  0  0
    8.1441    3.4942   22.2631 H   0  0  0  0  0  0  0  0  0  0  0  0
  1  2  1  0
  2  3  1  0
  3  4  1  0
  4  5  2  0
  5  6  1  0
  6  7  1  0
  7  8  1  0
  8  9  1  0
  9 10  1  0
 10 11  1  0
 11 12  1  0
 11 13  1  0
 10 14  1  0
 10 15  1  0
  9 16  1  0
  9 17  1  0
  8 18  1  0
  8 19  1  0
  7 20  1  0
  6 21  2  0
 21 22  1  0
 22 23  1  0
 23 24  2  0
 24 25  1  0
 25 26  2  0
 26 27  1  0
 27 28  2  0
 28 29  1  0
 26 30  1  0
 25 31  1  0
 24 32  1  0
  3 33  1  0
  3 34  1  0
  2 35  1  0
 35 36  1  0
 36 37  2  0
 37 38  1  0
 38 39  2  0
 38 40  1  0
 37 41  1  0
 36 42  1  0
  2 43  1  0
  1 44  1  0
  1 45  1  0
  1 46  1  0
 22  4  1  0
 28 23  1  0
 39 35  1  0
 11  7  1  0
M  END
>  <cnnaffinity>  (1) 
-6.21695

>  <filename>  (1) 
CC(Cc1nc(C2CCCC2)nn1-c1cccnc1)n1cccn1

$$$$
