
     RDKit          3D

 30 31  0  0  0  0  0  0  0  0999 V2000
    4.9127    1.7915   16.9863 H   0  0  0  0  0  0  0  0  0  0  0  0
    5.3944    1.3004   17.8281 C   0  0  0  0  0  0  0  0  0  0  0  0
    6.5586    0.6860   17.5638 N   0  0  0  0  0  0  0  0  0  0  0  0
    7.1785    0.0778   18.5801 C   0  0  0  0  0  0  0  0  0  0  0  0
    8.1199   -0.4241   18.3584 H   0  0  0  0  0  0  0  0  0  0  0  0
    6.6578    0.0237   19.8867 C   0  0  0  0  0  0  0  0  0  0  0  0
    7.3554   -0.6713   20.9356 N   0  0  0  0  0  0  0  0  0  0  0  0
    8.6443   -0.2733   21.2784 C   0  0  0  0  0  0  0  0  0  0  0  0
    9.0333    0.5637   20.7007 H   0  0  0  0  0  0  0  0  0  0  0  0
    9.3613   -0.8651   22.2545 C   0  0  0  0  0  0  0  0  0  0  0  0
   10.7588   -0.4073   22.6001 C   0  0  0  0  0  0  0  0  0  0  0  0
   11.0110    0.4347   21.9331 H   0  0  0  0  0  0  0  0  0  0  0  0
   11.7918   -1.5126   22.3364 C   0  0  0  0  0  0  0  0  0  0  0  0
   11.7082   -1.8920   21.3133 H   0  0  0  0  0  0  0  0  0  0  0  0
   11.6195   -2.3677   22.9976 H   0  0  0  0  0  0  0  0  0  0  0  0
   12.8071   -1.1213   22.4795 H   0  0  0  0  0  0  0  0  0  0  0  0
   10.8428    0.1237   24.0408 C   0  0  0  0  0  0  0  0  0  0  0  0
   10.0726    0.8844   24.2150 H   0  0  0  0  0  0  0  0  0  0  0  0
   10.6871   -0.6818   24.7665 H   0  0  0  0  0  0  0  0  0  0  0  0
   11.8221    0.5828   24.2212 H   0  0  0  0  0  0  0  0  0  0  0  0
    8.7507   -1.9868   22.9933 C   0  0  0  0  0  0  0  0  0  0  0  0
    9.2198   -2.6487   23.8959 O   0  0  0  0  0  0  0  0  0  0  0  0
    7.4841   -2.3040   22.5787 N   0  0  0  0  0  0  0  0  0  0  0  0
    7.0385   -3.0584   23.0591 H   0  0  0  0  0  0  0  0  0  0  0  0
    6.7315   -1.7436   21.6068 C   0  0  0  0  0  0  0  0  0  0  0  0
    5.6359   -2.1961   21.3661 O   0  0  0  0  0  0  0  0  0  0  0  0
    5.4402    0.6532   20.1537 C   0  0  0  0  0  0  0  0  0  0  0  0
    5.0139    0.6123   21.1569 H   0  0  0  0  0  0  0  0  0  0  0  0
    4.8085    1.3164   19.0984 C   0  0  0  0  0  0  0  0  0  0  0  0
    3.8763    1.8414   19.2538 H   0  0  0  0  0  0  0  0  0  0  0  0
  1  2  1  0
  2  3  2  0
  3  4  1  0
  4  5  1  0
  4  6  2  0
  6  7  1  0
  7  8  1  0
  8  9  1  0
  8 10  2  0
 10 11  1  0
 11 12  1  0
 11 13  1  0
 13 14  1  0
 13 15  1  0
 13 16  1  0
 11 17  1  0
 17 18  1  0
 17 19  1  0
 17 20  1  0
 10 21  1  0
 21 22  2  0
 21 23  1  0
 23 24  1  0
 23 25  1  0
 25 26  2  0
  6 27  1  0
 27 28  1  0
 27 29  2  0
 29 30  1  0
 29  2  1  0
 25  7  1  0
M  END
>  <cnnaffinity>  (1) 
-4.96482

>  <filename>  (1) 
CC(C)c1cn(-c2cccnc2)c(=O)[nH]c1=O

$$$$
