
     RDKit          3D

 41 43  0  0  0  0  0  0  0  0999 V2000
    6.8648   -4.2772   23.8971 C   0  0  0  0  0  0  0  0  0  0  0  0
    7.5742   -4.6205   22.5852 C   0  0  0  0  0  0  0  0  0  0  0  0
    8.3111   -5.9635   22.6953 C   0  0  0  0  0  0  0  0  0  0  0  0
    7.6254   -6.8176   22.7320 H   0  0  0  0  0  0  0  0  0  0  0  0
    8.9202   -5.9935   23.6080 H   0  0  0  0  0  0  0  0  0  0  0  0
    8.9830   -6.1252   21.8461 H   0  0  0  0  0  0  0  0  0  0  0  0
    8.5772   -3.5237   22.1448 C   0  0  0  0  0  0  0  0  0  0  0  0
    8.0372   -2.1412   21.9791 C   0  0  0  0  0  0  0  0  0  0  0  0
    7.6060   -1.7425   20.8024 N   0  0  0  0  0  0  0  0  0  0  0  0
    7.1620   -0.4807   21.0335 N   0  0  0  0  0  0  0  0  0  0  0  0
    6.5226    0.2101   19.9632 C   0  0  0  0  0  0  0  0  0  0  0  0
    5.3082    0.9006   20.0990 C   0  0  0  0  0  0  0  0  0  0  0  0
    4.7422    1.4600   18.9436 C   0  0  0  0  0  0  0  0  0  0  0  0
    5.4184    1.3363   17.7274 C   0  0  0  0  0  0  0  0  0  0  0  0
    6.5795    0.6706   17.5918 N   0  0  0  0  0  0  0  0  0  0  0  0
    7.0974    0.1037   18.6835 C   0  0  0  0  0  0  0  0  0  0  0  0
    7.9986   -0.4969   18.5560 H   0  0  0  0  0  0  0  0  0  0  0  0
    5.0217    1.7779   16.8143 H   0  0  0  0  0  0  0  0  0  0  0  0
    3.8008    2.0052   18.9734 H   0  0  0  0  0  0  0  0  0  0  0  0
    4.7952    0.9714   21.0600 H   0  0  0  0  0  0  0  0  0  0  0  0
    7.4367   -0.1548   22.3317 C   0  0  0  0  0  0  0  0  0  0  0  0
    7.2970    1.1900   22.9878 C   0  0  0  0  0  0  0  0  0  0  0  0
    8.6131    1.6953   23.5743 C   0  0  0  0  0  0  0  0  0  0  0  0
    8.8862    1.6654   24.9498 C   0  0  0  0  0  0  0  0  0  0  0  0
   10.0719    1.9551   25.4939 N   0  0  0  0  0  0  0  0  0  0  0  0
   11.0553    2.3307   24.6702 C   0  0  0  0  0  0  0  0  0  0  0  0
   10.9030    2.4737   23.2948 C   0  0  0  0  0  0  0  0  0  0  0  0
    9.6624    2.1379   22.7604 C   0  0  0  0  0  0  0  0  0  0  0  0
    9.4154    2.2760   21.0583 Cl  0  0  0  0  0  0  0  0  0  0  0  0
   11.7078    2.8512   22.6733 H   0  0  0  0  0  0  0  0  0  0  0  0
   12.0051    2.5576   25.1409 H   0  0  0  0  0  0  0  0  0  0  0  0
    8.0920    1.3960   25.6446 H   0  0  0  0  0  0  0  0  0  0  0  0
    6.9234    1.9066   22.2524 H   0  0  0  0  0  0  0  0  0  0  0  0
    6.5534    1.1028   23.7866 H   0  0  0  0  0  0  0  0  0  0  0  0
    7.9521   -1.2033   22.9563 N   0  0  0  0  0  0  0  0  0  0  0  0
    8.9538   -3.7780   21.1522 H   0  0  0  0  0  0  0  0  0  0  0  0
    9.4279   -3.4931   22.8332 H   0  0  0  0  0  0  0  0  0  0  0  0
    6.8161   -4.7178   21.7938 H   0  0  0  0  0  0  0  0  0  0  0  0
    7.5885   -4.2601   24.7236 H   0  0  0  0  0  0  0  0  0  0  0  0
    6.1030   -5.0292   24.1330 H   0  0  0  0  0  0  0  0  0  0  0  0
    6.3778   -3.2958   23.8572 H   0  0  0  0  0  0  0  0  0  0  0  0
  1  2  1  0
  2  3  1  0
  3  4  1  0
  3  5  1  0
  3  6  1  0
  2  7  1  0
  7  8  1  0
  8  9  2  0
  9 10  1  0
 10 11  1  0
 11 12  2  0
 12 13  1  0
 13 14  2  0
 14 15  1  0
 15 16  2  0
 16 17  1  0
 14 18  1  0
 13 19  1  0
 12 20  1  0
 10 21  1  0
 21 22  1  0
 22 23  1  0
 23 24  2  0
 24 25  1  0
 25 26  2  0
 26 27  1  0
 27 28  2  0
 28 29  1  0
 27 30  1  0
 26 31  1  0
 24 32  1  0
 22 33  1  0
 22 34  1  0
 21 35  2  0
  7 36  1  0
  7 37  1  0
  2 38  1  0
  1 39  1  0
  1 40  1  0
  1 41  1  0
 35  8  1  0
 16 11  1  0
 28 23  1  0
M  END
>  <cnnaffinity>  (1) 
-6.03504

>  <filename>  (1) 
CC(C)Cc1nc(Cc2cnccc2Cl)n(-c2cccnc2)n1

$$$$
