
     RDKit          3D

 47 49  0  0  0  0  0  0  0  0999 V2000
    5.0205    1.7792   17.0002 H   0  0  0  0  0  0  0  0  0  0  0  0
    5.4433    1.2616   17.8615 C   0  0  0  0  0  0  0  0  0  0  0  0
    6.5883    0.5920   17.6577 N   0  0  0  0  0  0  0  0  0  0  0  0
    7.1450   -0.0332   18.6946 C   0  0  0  0  0  0  0  0  0  0  0  0
    8.0729   -0.5744   18.5048 H   0  0  0  0  0  0  0  0  0  0  0  0
    6.5772    0.0032   19.9601 C   0  0  0  0  0  0  0  0  0  0  0  0
    7.3675   -0.9835   21.1936 S   0  0  0  0  0  0  0  0  0  0  0  0
    6.3697   -1.2372   22.2229 O   0  0  0  0  0  0  0  0  0  0  0  0
    7.9571   -2.0974   20.4635 O   0  0  0  0  0  0  0  0  0  0  0  0
    8.9305   -0.0120   21.9280 C   0  0  0  0  0  0  0  0  0  0  0  0
    8.6215    1.0800   22.8335 N   0  0  0  0  0  0  0  0  0  0  0  0
    7.7857    2.1876   22.3388 C   0  0  0  0  0  0  0  0  0  0  0  0
    6.8442    2.2182   22.9059 H   0  0  0  0  0  0  0  0  0  0  0  0
    7.5079    2.0304   21.2947 H   0  0  0  0  0  0  0  0  0  0  0  0
    8.4966    3.5368   22.4489 C   0  0  0  0  0  0  0  0  0  0  0  0
    9.3932    3.5057   21.8111 H   0  0  0  0  0  0  0  0  0  0  0  0
    7.8500    4.3288   22.0551 H   0  0  0  0  0  0  0  0  0  0  0  0
    8.8543    3.8126   23.8378 N   0  0  0  0  0  0  0  0  0  0  0  0
    8.9560    5.1048   24.3043 C   0  0  0  0  0  0  0  0  0  0  0  0
    9.3154    6.1368   23.4198 C   0  0  0  0  0  0  0  0  0  0  0  0
    9.5566    5.8756   22.3925 H   0  0  0  0  0  0  0  0  0  0  0  0
    9.3913    7.4444   23.8845 C   0  0  0  0  0  0  0  0  0  0  0  0
    9.6457    8.2291   23.1938 H   0  0  0  0  0  0  0  0  0  0  0  0
    9.1455    7.7489   25.2239 C   0  0  0  0  0  0  0  0  0  0  0  0
    9.2450    8.7730   25.5678 H   0  0  0  0  0  0  0  0  0  0  0  0
    8.7910    6.7254   26.1058 C   0  0  0  0  0  0  0  0  0  0  0  0
    8.5866    6.9510   27.1484 H   0  0  0  0  0  0  0  0  0  0  0  0
    8.6952    5.4090   25.6547 C   0  0  0  0  0  0  0  0  0  0  0  0
    8.3860    4.6036   26.3145 H   0  0  0  0  0  0  0  0  0  0  0  0
    9.1025    2.6581   24.6963 C   0  0  0  0  0  0  0  0  0  0  0  0
    8.1944    2.3556   25.2393 H   0  0  0  0  0  0  0  0  0  0  0  0
    9.8609    2.9193   25.4414 H   0  0  0  0  0  0  0  0  0  0  0  0
    9.5982    1.4544   23.8829 C   0  0  0  0  0  0  0  0  0  0  0  0
    9.7460    0.6100   24.5639 H   0  0  0  0  0  0  0  0  0  0  0  0
   10.5903    1.7102   23.4684 H   0  0  0  0  0  0  0  0  0  0  0  0
    9.7757   -1.0997   22.6232 C   0  0  0  0  0  0  0  0  0  0  0  0
    9.9925   -1.8986   21.9115 H   0  0  0  0  0  0  0  0  0  0  0  0
    9.2710   -1.5318   23.4940 H   0  0  0  0  0  0  0  0  0  0  0  0
   10.7363   -0.6810   22.9509 H   0  0  0  0  0  0  0  0  0  0  0  0
    9.7076    0.5082   20.7038 C   0  0  0  0  0  0  0  0  0  0  0  0
    9.1135    1.2242   20.1372 H   0  0  0  0  0  0  0  0  0  0  0  0
    9.9700   -0.3197   20.0410 H   0  0  0  0  0  0  0  0  0  0  0  0
   10.6275    1.0118   21.0301 H   0  0  0  0  0  0  0  0  0  0  0  0
    5.3867    0.6820   20.1976 C   0  0  0  0  0  0  0  0  0  0  0  0
    4.9342    0.6983   21.1917 H   0  0  0  0  0  0  0  0  0  0  0  0
    4.8031    1.3190   19.1041 C   0  0  0  0  0  0  0  0  0  0  0  0
    3.8735    1.8660   19.2098 H   0  0  0  0  0  0  0  0  0  0  0  0
  1  2  1  0
  2  3  2  0
  3  4  1  0
  4  5  1  0
  4  6  2  0
  6  7  1  0
  7  8  2  0
  7  9  2  0
  7 10  1  0
 10 11  1  0
 11 12  1  0
 12 13  1  0
 12 14  1  0
 12 15  1  0
 15 16  1  0
 15 17  1  0
 15 18  1  0
 18 19  1  0
 19 20  2  0
 20 21  1  0
 20 22  1  0
 22 23  1  0
 22 24  2  0
 24 25  1  0
 24 26  1  0
 26 27  1  0
 26 28  2  0
 28 29  1  0
 18 30  1  0
 30 31  1  0
 30 32  1  0
 30 33  1  0
 33 34  1  0
 33 35  1  0
 10 36  1  0
 36 37  1  0
 36 38  1  0
 36 39  1  0
 10 40  1  0
 40 41  1  0
 40 42  1  0
 40 43  1  0
  6 44  1  0
 44 45  1  0
 44 46  2  0
 46 47  1  0
 46  2  1  0
 33 11  1  0
 28 19  1  0
M  END
>  <cnnaffinity>  (1) 
-5.11052

>  <filename>  (1) 
CC(C)(N1CCN(c2ccccc2)CC1)S(=O)(=O)c1cccnc1

$$$$
