
     RDKit          3D

 29 29  0  0  0  0  0  0  0  0999 V2000
    4.9419    1.6781   16.9025 H   0  0  0  0  0  0  0  0  0  0  0  0
    5.4643    1.2309   17.7467 C   0  0  0  0  0  0  0  0  0  0  0  0
    6.5803    0.5496   17.4458 N   0  0  0  0  0  0  0  0  0  0  0  0
    7.2671    0.0208   18.4577 C   0  0  0  0  0  0  0  0  0  0  0  0
    8.1718   -0.5272   18.2000 H   0  0  0  0  0  0  0  0  0  0  0  0
    6.9014    0.1547   19.8127 C   0  0  0  0  0  0  0  0  0  0  0  0
    7.8701   -0.4481   20.8036 C   0  0  0  0  0  0  0  0  0  0  0  0
    8.6460   -1.3004   20.4085 O   0  0  0  0  0  0  0  0  0  0  0  0
    7.9349   -0.0112   22.3683 C   0  0  0  0  0  0  0  0  0  0  0  0
    7.5879    1.4328   22.5860 N   0  0  0  0  0  0  0  0  0  0  0  0
    8.3964    2.0550   22.5947 H   0  0  0  0  0  0  0  0  0  0  0  0
    7.0192    2.0092   24.0594 S   0  0  0  0  0  0  0  0  0  0  0  0
    7.8553    1.6477   25.1730 O   0  0  0  0  0  0  0  0  0  0  0  0
    5.5811    2.0716   24.1382 O   0  0  0  0  0  0  0  0  0  0  0  0
    7.4499    3.5052   23.5222 N   0  0  0  0  0  0  0  0  0  0  0  0
    6.8383    4.0714   24.1079 H   0  0  0  0  0  0  0  0  0  0  0  0
    6.9664    3.3934   22.6313 H   0  0  0  0  0  0  0  0  0  0  0  0
    6.9835   -0.8827   23.2003 C   0  0  0  0  0  0  0  0  0  0  0  0
    7.3103   -0.9366   24.2455 H   0  0  0  0  0  0  0  0  0  0  0  0
    6.9365   -1.9087   22.8268 H   0  0  0  0  0  0  0  0  0  0  0  0
    5.9829   -0.4503   23.1971 H   0  0  0  0  0  0  0  0  0  0  0  0
    9.3758   -0.2021   22.8714 C   0  0  0  0  0  0  0  0  0  0  0  0
    9.6684   -1.2493   22.7578 H   0  0  0  0  0  0  0  0  0  0  0  0
   10.0826    0.4109   22.3012 H   0  0  0  0  0  0  0  0  0  0  0  0
    9.4429    0.0635   23.9316 H   0  0  0  0  0  0  0  0  0  0  0  0
    5.7131    0.8475   20.1138 C   0  0  0  0  0  0  0  0  0  0  0  0
    5.3756    0.9943   21.1459 H   0  0  0  0  0  0  0  0  0  0  0  0
    4.9826    1.3837   19.0511 C   0  0  0  0  0  0  0  0  0  0  0  0
    4.0722    1.9498   19.2177 H   0  0  0  0  0  0  0  0  0  0  0  0
  1  2  1  0
  2  3  2  0
  3  4  1  0
  4  5  1  0
  4  6  2  0
  6  7  1  0
  7  8  2  0
  7  9  1  0
  9 10  1  0
 10 11  1  0
 10 12  1  0
 12 13  2  0
 12 14  2  0
 12 15  1  0
 15 16  1  0
 15 17  1  0
  9 18  1  0
 18 19  1  0
 18 20  1  0
 18 21  1  0
  9 22  1  0
 22 23  1  0
 22 24  1  0
 22 25  1  0
  6 26  1  0
 26 27  1  0
 26 28  2  0
 28 29  1  0
 28  2  1  0
M  END
>  <cnnaffinity>  (1) 
-3.79184

>  <filename>  (1) 
CC(C)(NS(N)(=O)=O)C(=O)c1cccnc1

$$$$
