
     RDKit          3D

 49 51  0  0  0  0  0  0  0  0999 V2000
    7.5820    0.7967   27.6479 C   0  0  0  0  0  0  0  0  0  0  0  0
    8.0041    0.3103   26.2520 C   0  0  0  0  0  0  0  0  0  0  0  0
    9.4796   -0.1225   26.2061 C   0  0  0  0  0  0  0  0  0  0  0  0
    9.6720   -0.8854   26.9707 H   0  0  0  0  0  0  0  0  0  0  0  0
    9.7557   -0.5501   25.2341 H   0  0  0  0  0  0  0  0  0  0  0  0
   10.1416    0.7308   26.3931 H   0  0  0  0  0  0  0  0  0  0  0  0
    7.7190    1.3993   25.1951 C   0  0  0  0  0  0  0  0  0  0  0  0
    8.4263    2.3873   25.1023 O   0  0  0  0  0  0  0  0  0  0  0  0
    6.6404    1.2007   24.3277 N   0  0  0  0  0  0  0  0  0  0  0  0
    5.5718    0.2605   24.6352 C   0  0  0  0  0  0  0  0  0  0  0  0
    5.7884   -0.7579   24.2742 H   0  0  0  0  0  0  0  0  0  0  0  0
    5.3972    0.2082   25.7164 H   0  0  0  0  0  0  0  0  0  0  0  0
    4.6388    0.6093   24.1812 H   0  0  0  0  0  0  0  0  0  0  0  0
    6.8016    1.6671   22.9240 C   0  0  0  0  0  0  0  0  0  0  0  0
    7.8612    0.9055   22.1456 C   0  0  0  0  0  0  0  0  0  0  0  0
    9.1374    1.2042   22.2049 N   0  0  0  0  0  0  0  0  0  0  0  0
    9.7608    0.0540   21.8299 C   0  0  0  0  0  0  0  0  0  0  0  0
   11.2252   -0.0443   22.0479 C   0  0  0  0  0  0  0  0  0  0  0  0
   12.0288   -1.0949   21.5674 C   0  0  0  0  0  0  0  0  0  0  0  0
   13.4010   -1.0367   21.8182 C   0  0  0  0  0  0  0  0  0  0  0  0
   14.2059   -1.9601   21.2769 F   0  0  0  0  0  0  0  0  0  0  0  0
   13.9878   -0.0313   22.5822 C   0  0  0  0  0  0  0  0  0  0  0  0
   13.1614    0.9570   23.0841 C   0  0  0  0  0  0  0  0  0  0  0  0
   13.6951    1.9485   23.8064 F   0  0  0  0  0  0  0  0  0  0  0  0
   11.8061    0.9867   22.8182 C   0  0  0  0  0  0  0  0  0  0  0  0
   11.2092    1.8132   23.1935 H   0  0  0  0  0  0  0  0  0  0  0  0
   15.0465    0.0146   22.7729 H   0  0  0  0  0  0  0  0  0  0  0  0
   11.6218   -1.9212   20.9904 H   0  0  0  0  0  0  0  0  0  0  0  0
    8.9332   -0.8945   21.4235 N   0  0  0  0  0  0  0  0  0  0  0  0
    7.7109   -0.3342   21.6262 N   0  0  0  0  0  0  0  0  0  0  0  0
    6.5012   -0.9145   21.0514 C   0  0  0  0  0  0  0  0  0  0  0  0
    6.0130   -0.1279   19.8507 C   0  0  0  0  0  0  0  0  0  0  0  0
    4.8638    0.6720   19.8505 C   0  0  0  0  0  0  0  0  0  0  0  0
    4.6059    1.4728   18.7314 C   0  0  0  0  0  0  0  0  0  0  0  0
    5.4946    1.4305   17.6538 C   0  0  0  0  0  0  0  0  0  0  0  0
    6.5885    0.6544   17.6280 N   0  0  0  0  0  0  0  0  0  0  0  0
    6.8332   -0.0918   18.7107 C   0  0  0  0  0  0  0  0  0  0  0  0
    7.7504   -0.6831   18.6911 H   0  0  0  0  0  0  0  0  0  0  0  0
    5.3228    2.0401   16.7673 H   0  0  0  0  0  0  0  0  0  0  0  0
    3.7528    2.1415   18.6938 H   0  0  0  0  0  0  0  0  0  0  0  0
    4.1845    0.6822   20.7075 H   0  0  0  0  0  0  0  0  0  0  0  0
    6.7580   -1.9440   20.7889 H   0  0  0  0  0  0  0  0  0  0  0  0
    5.7373   -0.9565   21.8326 H   0  0  0  0  0  0  0  0  0  0  0  0
    5.8385    1.6245   22.4020 H   0  0  0  0  0  0  0  0  0  0  0  0
    7.1304    2.7109   22.9637 H   0  0  0  0  0  0  0  0  0  0  0  0
    7.4035   -0.5707   25.9961 H   0  0  0  0  0  0  0  0  0  0  0  0
    8.1907    1.6483   27.9729 H   0  0  0  0  0  0  0  0  0  0  0  0
    6.5312    1.1093   27.6777 H   0  0  0  0  0  0  0  0  0  0  0  0
    7.7138   -0.0093   28.3771 H   0  0  0  0  0  0  0  0  0  0  0  0
  1  2  1  0
  2  3  1  0
  3  4  1  0
  3  5  1  0
  3  6  1  0
  2  7  1  0
  7  8  2  0
  7  9  1  0
  9 10  1  0
 10 11  1  0
 10 12  1  0
 10 13  1  0
  9 14  1  0
 14 15  1  0
 15 16  2  0
 16 17  1  0
 17 18  1  0
 18 19  2  0
 19 20  1  0
 20 21  1  0
 20 22  2  0
 22 23  1  0
 23 24  1  0
 23 25  2  0
 25 26  1  0
 22 27  1  0
 19 28  1  0
 17 29  2  0
 29 30  1  0
 30 31  1  0
 31 32  1  0
 32 33  2  0
 33 34  1  0
 34 35  2  0
 35 36  1  0
 36 37  2  0
 37 38  1  0
 35 39  1  0
 34 40  1  0
 33 41  1  0
 31 42  1  0
 31 43  1  0
 14 44  1  0
 14 45  1  0
  2 46  1  0
  1 47  1  0
  1 48  1  0
  1 49  1  0
 30 15  1  0
 37 32  1  0
 25 18  1  0
M  END
>  <cnnaffinity>  (1) 
-6.42099

>  <filename>  (1) 
CC(C)C(=O)N(C)Cc1nc(-c2cc(F)cc(F)c2)nn1Cc1cccnc1

$$$$
