
     RDKit          3D

 41 43  0  0  0  0  0  0  0  0999 V2000
    6.2566   -3.3567   25.8731 C   0  0  0  0  0  0  0  0  0  0  0  0
    6.5852   -2.2884   24.8375 C   0  0  0  0  0  0  0  0  0  0  0  0
    7.3352   -1.1263   25.4990 C   0  0  0  0  0  0  0  0  0  0  0  0
    6.7322   -0.6971   26.3052 H   0  0  0  0  0  0  0  0  0  0  0  0
    7.5459   -0.3386   24.7678 H   0  0  0  0  0  0  0  0  0  0  0  0
    8.2841   -1.4723   25.9207 H   0  0  0  0  0  0  0  0  0  0  0  0
    7.4342   -2.9218   23.7283 C   0  0  0  0  0  0  0  0  0  0  0  0
    7.6262   -1.9566   22.6098 C   0  0  0  0  0  0  0  0  0  0  0  0
    6.7264   -1.6951   21.6920 N   0  0  0  0  0  0  0  0  0  0  0  0
    7.3185   -0.7275   20.9589 N   0  0  0  0  0  0  0  0  0  0  0  0
    6.6804   -0.0196   19.9311 C   0  0  0  0  0  0  0  0  0  0  0  0
    5.4540    0.6126   20.1582 C   0  0  0  0  0  0  0  0  0  0  0  0
    4.8501    1.2813   19.0920 C   0  0  0  0  0  0  0  0  0  0  0  0
    5.4666    1.2982   17.8352 C   0  0  0  0  0  0  0  0  0  0  0  0
    6.6429    0.6815   17.6081 N   0  0  0  0  0  0  0  0  0  0  0  0
    7.2303    0.0449   18.6385 C   0  0  0  0  0  0  0  0  0  0  0  0
    8.1736   -0.4583   18.4517 H   0  0  0  0  0  0  0  0  0  0  0  0
    4.9788    1.8240   17.0201 H   0  0  0  0  0  0  0  0  0  0  0  0
    3.9061    1.7990   19.2259 H   0  0  0  0  0  0  0  0  0  0  0  0
    4.9937    0.5889   21.1467 H   0  0  0  0  0  0  0  0  0  0  0  0
    8.5591   -0.4560   21.5228 C   0  0  0  0  0  0  0  0  0  0  0  0
    9.4685    0.6675   21.1918 C   0  0  0  0  0  0  0  0  0  0  0  0
    8.9764    1.8363   21.9809 C   0  0  0  0  0  0  0  0  0  0  0  0
    9.5086    2.1616   23.2226 C   0  0  0  0  0  0  0  0  0  0  0  0
    8.9906    3.2617   23.9144 C   0  0  0  0  0  0  0  0  0  0  0  0
    8.0083    4.0374   23.4296 N   0  0  0  0  0  0  0  0  0  0  0  0
    7.5065    3.7410   22.2223 C   0  0  0  0  0  0  0  0  0  0  0  0
    6.2332    4.9448   21.4750 Br  0  0  0  0  0  0  0  0  0  0  0  0
    7.9326    2.6225   21.5043 C   0  0  0  0  0  0  0  0  0  0  0  0
    7.4527    2.3858   20.5662 H   0  0  0  0  0  0  0  0  0  0  0  0
    9.4204    3.5107   24.8783 H   0  0  0  0  0  0  0  0  0  0  0  0
   10.3075    1.5669   23.6642 H   0  0  0  0  0  0  0  0  0  0  0  0
    9.4485    0.8775   20.1236 H   0  0  0  0  0  0  0  0  0  0  0  0
   10.4913    0.4301   21.4904 H   0  0  0  0  0  0  0  0  0  0  0  0
    8.7970   -1.2372   22.5295 N   0  0  0  0  0  0  0  0  0  0  0  0
    8.4128   -3.2076   24.1263 H   0  0  0  0  0  0  0  0  0  0  0  0
    6.9448   -3.8166   23.3395 H   0  0  0  0  0  0  0  0  0  0  0  0
    5.6494   -1.9113   24.4117 H   0  0  0  0  0  0  0  0  0  0  0  0
    5.6245   -2.9381   26.6612 H   0  0  0  0  0  0  0  0  0  0  0  0
    7.1753   -3.7437   26.3245 H   0  0  0  0  0  0  0  0  0  0  0  0
    5.7214   -4.1855   25.3992 H   0  0  0  0  0  0  0  0  0  0  0  0
  1  2  1  0
  2  3  1  0
  3  4  1  0
  3  5  1  0
  3  6  1  0
  2  7  1  0
  7  8  1  0
  8  9  2  0
  9 10  1  0
 10 11  1  0
 11 12  2  0
 12 13  1  0
 13 14  2  0
 14 15  1  0
 15 16  2  0
 16 17  1  0
 14 18  1  0
 13 19  1  0
 12 20  1  0
 10 21  1  0
 21 22  1  0
 22 23  1  0
 23 24  2  0
 24 25  1  0
 25 26  2  0
 26 27  1  0
 27 28  1  0
 27 29  2  0
 29 30  1  0
 25 31  1  0
 24 32  1  0
 22 33  1  0
 22 34  1  0
 21 35  2  0
  7 36  1  0
  7 37  1  0
  2 38  1  0
  1 39  1  0
  1 40  1  0
  1 41  1  0
 35  8  1  0
 16 11  1  0
 29 23  1  0
M  END
>  <cnnaffinity>  (1) 
-5.97318

>  <filename>  (1) 
CC(C)Cc1nc(Cc2ccnc(Br)c2)n(-c2cccnc2)n1

$$$$
