
     RDKit          3D

 44 46  0  0  0  0  0  0  0  0999 V2000
    8.3982   -5.8882   22.8233 C   0  0  0  0  0  0  0  0  0  0  0  0
    7.7113   -4.5211   22.7281 C   0  0  0  0  0  0  0  0  0  0  0  0
    7.0907   -4.1427   24.0730 C   0  0  0  0  0  0  0  0  0  0  0  0
    6.3546   -4.8937   24.3842 H   0  0  0  0  0  0  0  0  0  0  0  0
    7.8649   -4.0986   24.8520 H   0  0  0  0  0  0  0  0  0  0  0  0
    6.6024   -3.1621   24.0320 H   0  0  0  0  0  0  0  0  0  0  0  0
    8.6942   -3.4419   22.2150 C   0  0  0  0  0  0  0  0  0  0  0  0
    8.1430   -2.0629   22.0322 C   0  0  0  0  0  0  0  0  0  0  0  0
    7.7519   -1.6968   20.8297 N   0  0  0  0  0  0  0  0  0  0  0  0
    7.2826   -0.4416   21.0162 N   0  0  0  0  0  0  0  0  0  0  0  0
    6.5858    0.1820   19.9477 C   0  0  0  0  0  0  0  0  0  0  0  0
    5.3662    0.8468   20.1247 C   0  0  0  0  0  0  0  0  0  0  0  0
    4.7752    1.4233   18.9949 C   0  0  0  0  0  0  0  0  0  0  0  0
    5.4211    1.3246   17.7592 C   0  0  0  0  0  0  0  0  0  0  0  0
    6.5695    0.6467   17.5796 N   0  0  0  0  0  0  0  0  0  0  0  0
    7.1183    0.0659   18.6504 C   0  0  0  0  0  0  0  0  0  0  0  0
    8.0101   -0.5385   18.4781 H   0  0  0  0  0  0  0  0  0  0  0  0
    4.9963    1.7841   16.8711 H   0  0  0  0  0  0  0  0  0  0  0  0
    3.8276    1.9477   19.0685 H   0  0  0  0  0  0  0  0  0  0  0  0
    4.8823    0.8770   21.1029 H   0  0  0  0  0  0  0  0  0  0  0  0
    7.5131   -0.0685   22.3095 C   0  0  0  0  0  0  0  0  0  0  0  0
    7.4589    1.3623   22.7585 C   0  0  0  0  0  0  0  0  0  0  0  0
    8.4477    2.2797   21.9830 C   0  0  0  0  0  0  0  0  0  0  0  0
    9.8827    1.8313   22.1085 C   0  0  0  0  0  0  0  0  0  0  0  0
   10.7357    2.3177   23.1159 C   0  0  0  0  0  0  0  0  0  0  0  0
   11.9850    1.7216   23.2645 C   0  0  0  0  0  0  0  0  0  0  0  0
   12.8040    2.0983   24.2534 F   0  0  0  0  0  0  0  0  0  0  0  0
   12.3722    0.6880   22.4079 C   0  0  0  0  0  0  0  0  0  0  0  0
   11.5745    0.2295   21.4362 N   0  0  0  0  0  0  0  0  0  0  0  0
   10.3714    0.7959   21.2933 C   0  0  0  0  0  0  0  0  0  0  0  0
    9.7264    0.4011   20.5091 H   0  0  0  0  0  0  0  0  0  0  0  0
   13.3461    0.2212   22.5310 H   0  0  0  0  0  0  0  0  0  0  0  0
   10.4368    3.1183   23.7863 H   0  0  0  0  0  0  0  0  0  0  0  0
    8.1462    2.2908   20.9271 H   0  0  0  0  0  0  0  0  0  0  0  0
    8.3576    3.3087   22.3475 H   0  0  0  0  0  0  0  0  0  0  0  0
    6.4427    1.7477   22.6240 H   0  0  0  0  0  0  0  0  0  0  0  0
    7.6832    1.3775   23.8299 H   0  0  0  0  0  0  0  0  0  0  0  0
    8.0193   -1.0951   22.9839 N   0  0  0  0  0  0  0  0  0  0  0  0
    9.0072   -3.7141   21.2065 H   0  0  0  0  0  0  0  0  0  0  0  0
    9.5865   -3.3901   22.8466 H   0  0  0  0  0  0  0  0  0  0  0  0
    6.9078   -4.6087   21.9813 H   0  0  0  0  0  0  0  0  0  0  0  0
    7.6728   -6.7019   22.9280 H   0  0  0  0  0  0  0  0  0  0  0  0
    9.0605   -5.9384   23.6945 H   0  0  0  0  0  0  0  0  0  0  0  0
    9.0036   -6.1064   21.9407 H   0  0  0  0  0  0  0  0  0  0  0  0
  1  2  1  0
  2  3  1  0
  3  4  1  0
  3  5  1  0
  3  6  1  0
  2  7  1  0
  7  8  1  0
  8  9  2  0
  9 10  1  0
 10 11  1  0
 11 12  2  0
 12 13  1  0
 13 14  2  0
 14 15  1  0
 15 16  2  0
 16 17  1  0
 14 18  1  0
 13 19  1  0
 12 20  1  0
 10 21  1  0
 21 22  1  0
 22 23  1  0
 23 24  1  0
 24 25  2  0
 25 26  1  0
 26 27  1  0
 26 28  2  0
 28 29  1  0
 29 30  2  0
 30 31  1  0
 28 32  1  0
 25 33  1  0
 23 34  1  0
 23 35  1  0
 22 36  1  0
 22 37  1  0
 21 38  2  0
  7 39  1  0
  7 40  1  0
  2 41  1  0
  1 42  1  0
  1 43  1  0
  1 44  1  0
 38  8  1  0
 16 11  1  0
 30 24  1  0
M  END
>  <cnnaffinity>  (1) 
-6.04509

>  <filename>  (1) 
CC(C)Cc1nc(CCc2cncc(F)c2)n(-c2cccnc2)n1

$$$$
