
     RDKit          3D

 46 49  0  0  0  0  0  0  0  0999 V2000
   12.5700    1.8704   22.4091 C   0  0  0  0  0  0  0  0  0  0  0  0
   11.4209    1.6243   23.4033 C   0  0  0  0  0  0  0  0  0  0  0  0
   11.3334    0.1450   23.8212 C   0  0  0  0  0  0  0  0  0  0  0  0
   11.3300   -0.5424   22.9690 H   0  0  0  0  0  0  0  0  0  0  0  0
   12.1877   -0.1166   24.4559 H   0  0  0  0  0  0  0  0  0  0  0  0
   10.4180   -0.0525   24.3875 H   0  0  0  0  0  0  0  0  0  0  0  0
   10.1238    2.2227   22.9116 C   0  0  0  0  0  0  0  0  0  0  0  0
    9.5684    3.2792   23.4589 N   0  0  0  0  0  0  0  0  0  0  0  0
    8.4445    3.5420   22.7226 C   0  0  0  0  0  0  0  0  0  0  0  0
    8.3059    2.6290   21.7194 C   0  0  0  0  0  0  0  0  0  0  0  0
    9.3976    1.7859   21.8240 N   0  0  0  0  0  0  0  0  0  0  0  0
    9.5396    0.5865   21.0010 C   0  0  0  0  0  0  0  0  0  0  0  0
    8.6142   -0.5179   21.4212 C   0  0  0  0  0  0  0  0  0  0  0  0
    8.8387   -1.3879   22.3802 N   0  0  0  0  0  0  0  0  0  0  0  0
    7.6521   -2.0421   22.5145 C   0  0  0  0  0  0  0  0  0  0  0  0
    7.4371   -3.0829   23.5461 C   0  0  0  0  0  0  0  0  0  0  0  0
    8.4559   -3.4170   24.4631 C   0  0  0  0  0  0  0  0  0  0  0  0
    8.2371   -4.4029   25.4285 C   0  0  0  0  0  0  0  0  0  0  0  0
    7.0056   -5.0651   25.4941 C   0  0  0  0  0  0  0  0  0  0  0  0
    5.9897   -4.7356   24.5891 C   0  0  0  0  0  0  0  0  0  0  0  0
    6.1979   -3.7517   23.6222 C   0  0  0  0  0  0  0  0  0  0  0  0
    5.4082   -3.4836   22.9209 H   0  0  0  0  0  0  0  0  0  0  0  0
    5.0295   -5.2415   24.6364 H   0  0  0  0  0  0  0  0  0  0  0  0
    6.8360   -5.8325   26.2476 H   0  0  0  0  0  0  0  0  0  0  0  0
    9.0272   -4.6565   26.1318 H   0  0  0  0  0  0  0  0  0  0  0  0
    9.4191   -2.9097   24.4225 H   0  0  0  0  0  0  0  0  0  0  0  0
    6.7246   -1.6438   21.6584 N   0  0  0  0  0  0  0  0  0  0  0  0
    7.3493   -0.6824   20.9376 N   0  0  0  0  0  0  0  0  0  0  0  0
    6.6547    0.0058   19.9013 C   0  0  0  0  0  0  0  0  0  0  0  0
    5.4374    0.6417   20.1667 C   0  0  0  0  0  0  0  0  0  0  0  0
    4.8111    1.3086   19.1078 C   0  0  0  0  0  0  0  0  0  0  0  0
    5.4014    1.2962   17.8366 C   0  0  0  0  0  0  0  0  0  0  0  0
    6.5586    0.6713   17.5750 N   0  0  0  0  0  0  0  0  0  0  0  0
    7.1660    0.0495   18.5915 C   0  0  0  0  0  0  0  0  0  0  0  0
    8.1092   -0.4392   18.3626 H   0  0  0  0  0  0  0  0  0  0  0  0
    4.9217    1.7880   16.9927 H   0  0  0  0  0  0  0  0  0  0  0  0
    3.8796    1.8394   19.2592 H   0  0  0  0  0  0  0  0  0  0  0  0
    5.0157    0.6132   21.1767 H   0  0  0  0  0  0  0  0  0  0  0  0
    9.3533    0.8727   19.9651 H   0  0  0  0  0  0  0  0  0  0  0  0
   10.5635    0.2162   21.0520 H   0  0  0  0  0  0  0  0  0  0  0  0
    7.5425    2.4772   20.9656 H   0  0  0  0  0  0  0  0  0  0  0  0
    7.8123    4.3875   22.9613 H   0  0  0  0  0  0  0  0  0  0  0  0
   11.6301    2.2085   24.3081 H   0  0  0  0  0  0  0  0  0  0  0  0
   12.6513    2.9329   22.1604 H   0  0  0  0  0  0  0  0  0  0  0  0
   12.4220    1.3261   21.4707 H   0  0  0  0  0  0  0  0  0  0  0  0
   13.5265    1.5503   22.8363 H   0  0  0  0  0  0  0  0  0  0  0  0
  1  2  1  0
  2  3  1  0
  3  4  1  0
  3  5  1  0
  3  6  1  0
  2  7  1  0
  7  8  2  0
  8  9  1  0
  9 10  2  0
 10 11  1  0
 11 12  1  0
 12 13  1  0
 13 14  2  0
 14 15  1  0
 15 16  1  0
 16 17  2  0
 17 18  1  0
 18 19  2  0
 19 20  1  0
 20 21  2  0
 21 22  1  0
 20 23  1  0
 19 24  1  0
 18 25  1  0
 17 26  1  0
 15 27  2  0
 27 28  1  0
 28 29  1  0
 29 30  2  0
 30 31  1  0
 31 32  2  0
 32 33  1  0
 33 34  2  0
 34 35  1  0
 32 36  1  0
 31 37  1  0
 30 38  1  0
 12 39  1  0
 12 40  1  0
 10 41  1  0
  9 42  1  0
  2 43  1  0
  1 44  1  0
  1 45  1  0
  1 46  1  0
 11  7  1  0
 28 13  1  0
 34 29  1  0
 21 16  1  0
M  END
>  <cnnaffinity>  (1) 
-6.28909

>  <filename>  (1) 
CC(C)c1nccn1Cc1nc(-c2ccccc2)nn1-c1cccnc1

$$$$
