
     RDKit          3D

 37 38  0  0  0  0  0  0  0  0999 V2000
    8.8502   -2.3575   21.2767 C   0  0  0  0  0  0  0  0  0  0  0  0
    7.3911   -1.9845   20.9938 C   0  0  0  0  0  0  0  0  0  0  0  0
    6.4129   -2.8751   21.7628 C   0  0  0  0  0  0  0  0  0  0  0  0
    6.5709   -3.9240   21.4867 H   0  0  0  0  0  0  0  0  0  0  0  0
    5.3848   -2.6011   21.5107 H   0  0  0  0  0  0  0  0  0  0  0  0
    6.5486   -2.7572   22.8394 H   0  0  0  0  0  0  0  0  0  0  0  0
    7.1103   -0.5375   21.2269 N   0  0  0  0  0  0  0  0  0  0  0  0
    7.3314   -0.0429   22.5184 C   0  0  0  0  0  0  0  0  0  0  0  0
    7.3891   -0.7709   23.4936 O   0  0  0  0  0  0  0  0  0  0  0  0
    7.6241    1.4448   22.7338 C   0  0  0  0  0  0  0  0  0  0  0  0
    9.1016    1.6440   23.0673 C   0  0  0  0  0  0  0  0  0  0  0  0
    9.5298    1.8640   24.3839 C   0  0  0  0  0  0  0  0  0  0  0  0
   10.8917    1.9351   24.6990 C   0  0  0  0  0  0  0  0  0  0  0  0
   11.8580    1.8310   23.6976 C   0  0  0  0  0  0  0  0  0  0  0  0
   11.4671    1.6103   22.3800 C   0  0  0  0  0  0  0  0  0  0  0  0
   10.1054    1.4854   22.0994 C   0  0  0  0  0  0  0  0  0  0  0  0
    9.6695    0.9962   20.5066 Cl  0  0  0  0  0  0  0  0  0  0  0  0
   12.1967    1.4935   21.5828 H   0  0  0  0  0  0  0  0  0  0  0  0
   12.9139    1.8782   23.9461 H   0  0  0  0  0  0  0  0  0  0  0  0
   11.1970    2.0254   25.7307 H   0  0  0  0  0  0  0  0  0  0  0  0
    8.7835    1.9522   25.1683 H   0  0  0  0  0  0  0  0  0  0  0  0
    7.3248    2.0345   21.8656 H   0  0  0  0  0  0  0  0  0  0  0  0
    7.0079    1.7288   23.5895 H   0  0  0  0  0  0  0  0  0  0  0  0
    6.5577    0.2050   20.1253 C   0  0  0  0  0  0  0  0  0  0  0  0
    5.3467    0.9009   20.2389 C   0  0  0  0  0  0  0  0  0  0  0  0
    4.7771    1.4634   19.0871 C   0  0  0  0  0  0  0  0  0  0  0  0
    5.4468    1.3563   17.8650 C   0  0  0  0  0  0  0  0  0  0  0  0
    6.6215    0.7197   17.7378 N   0  0  0  0  0  0  0  0  0  0  0  0
    7.1571    0.1737   18.8360 C   0  0  0  0  0  0  0  0  0  0  0  0
    8.1138   -0.3208   18.6938 H   0  0  0  0  0  0  0  0  0  0  0  0
    5.0361    1.7924   16.9563 H   0  0  0  0  0  0  0  0  0  0  0  0
    3.8284    1.9848   19.1267 H   0  0  0  0  0  0  0  0  0  0  0  0
    4.8567    0.9761   21.2104 H   0  0  0  0  0  0  0  0  0  0  0  0
    7.1892   -2.1372   19.9243 H   0  0  0  0  0  0  0  0  0  0  0  0
    8.9927   -3.4231   21.0734 H   0  0  0  0  0  0  0  0  0  0  0  0
    9.5473   -1.8133   20.6329 H   0  0  0  0  0  0  0  0  0  0  0  0
    9.1026   -2.1594   22.3241 H   0  0  0  0  0  0  0  0  0  0  0  0
  1  2  1  0
  2  3  1  0
  3  4  1  0
  3  5  1  0
  3  6  1  0
  2  7  1  0
  7  8  1  0
  8  9  2  0
  8 10  1  0
 10 11  1  0
 11 12  2  0
 12 13  1  0
 13 14  2  0
 14 15  1  0
 15 16  2  0
 16 17  1  0
 15 18  1  0
 14 19  1  0
 13 20  1  0
 12 21  1  0
 10 22  1  0
 10 23  1  0
  7 24  1  0
 24 25  2  0
 25 26  1  0
 26 27  2  0
 27 28  1  0
 28 29  2  0
 29 30  1  0
 27 31  1  0
 26 32  1  0
 25 33  1  0
  2 34  1  0
  1 35  1  0
  1 36  1  0
  1 37  1  0
 16 11  1  0
 29 24  1  0
M  END
>  <cnnaffinity>  (1) 
-4.90748

>  <filename>  (1) 
CC(C)N(C(=O)Cc1ccccc1Cl)c1cccnc1

$$$$
