
     RDKit          3D

 44 47  0  0  0  0  0  0  0  0999 V2000
    9.1916    1.7247   20.9656 C   0  0  0  0  0  0  0  0  0  0  0  0
    8.6360    1.1118   22.2538 C   0  0  0  0  0  0  0  0  0  0  0  0
    7.6047    2.0274   22.9764 C   0  0  0  0  0  0  0  0  0  0  0  0
    7.1574    1.5035   24.3105 C   0  0  0  0  0  0  0  0  0  0  0  0
    6.0667    0.7954   24.7577 C   0  0  0  0  0  0  0  0  0  0  0  0
    6.2016    0.4561   26.0840 N   0  0  0  0  0  0  0  0  0  0  0  0
    7.3615    0.9382   26.4511 C   0  0  0  0  0  0  0  0  0  0  0  0
    7.9719    1.5872   25.4223 N   0  0  0  0  0  0  0  0  0  0  0  0
    8.8379    2.0934   25.4831 H   0  0  0  0  0  0  0  0  0  0  0  0
    7.8135    0.8427   27.4332 H   0  0  0  0  0  0  0  0  0  0  0  0
    5.2009    0.4666   24.1956 H   0  0  0  0  0  0  0  0  0  0  0  0
    8.0429    3.0237   23.1152 H   0  0  0  0  0  0  0  0  0  0  0  0
    6.7343    2.1724   22.3311 H   0  0  0  0  0  0  0  0  0  0  0  0
    8.1116   -0.2841   22.0524 C   0  0  0  0  0  0  0  0  0  0  0  0
    8.3634   -1.2807   22.8772 N   0  0  0  0  0  0  0  0  0  0  0  0
    7.7637   -2.3455   22.2835 C   0  0  0  0  0  0  0  0  0  0  0  0
    7.7249   -3.6918   22.9464 C   0  0  0  0  0  0  0  0  0  0  0  0
    7.0105   -3.6235   24.3232 C   0  0  0  0  0  0  0  0  0  0  0  0
    8.1468   -3.2184   25.2771 C   0  0  0  0  0  0  0  0  0  0  0  0
    9.3540   -3.5916   24.6439 O   0  0  0  0  0  0  0  0  0  0  0  0
    9.1301   -4.1474   23.3702 C   0  0  0  0  0  0  0  0  0  0  0  0
    9.9295   -3.7770   22.7203 H   0  0  0  0  0  0  0  0  0  0  0  0
    9.1915   -5.2475   23.4276 H   0  0  0  0  0  0  0  0  0  0  0  0
    8.0816   -3.7196   26.2510 H   0  0  0  0  0  0  0  0  0  0  0  0
    8.1775   -2.1385   25.4592 H   0  0  0  0  0  0  0  0  0  0  0  0
    6.5924   -4.5989   24.5985 H   0  0  0  0  0  0  0  0  0  0  0  0
    6.1901   -2.8987   24.3445 H   0  0  0  0  0  0  0  0  0  0  0  0
    7.2602   -4.3945   22.2536 H   0  0  0  0  0  0  0  0  0  0  0  0
    7.1763   -2.0824   21.1360 N   0  0  0  0  0  0  0  0  0  0  0  0
    7.3696   -0.7389   20.9946 N   0  0  0  0  0  0  0  0  0  0  0  0
    6.7030   -0.0475   19.9357 C   0  0  0  0  0  0  0  0  0  0  0  0
    5.5281    0.6771   20.1701 C   0  0  0  0  0  0  0  0  0  0  0  0
    4.9221    1.3310   19.0951 C   0  0  0  0  0  0  0  0  0  0  0  0
    5.5268    1.2444   17.8384 C   0  0  0  0  0  0  0  0  0  0  0  0
    6.6327    0.5195   17.5951 N   0  0  0  0  0  0  0  0  0  0  0  0
    7.1883   -0.1386   18.6215 C   0  0  0  0  0  0  0  0  0  0  0  0
    8.0539   -0.7651   18.4004 H   0  0  0  0  0  0  0  0  0  0  0  0
    5.1006    1.7668   16.9885 H   0  0  0  0  0  0  0  0  0  0  0  0
    4.0006    1.8903   19.2264 H   0  0  0  0  0  0  0  0  0  0  0  0
    5.0765    0.6879   21.1611 H   0  0  0  0  0  0  0  0  0  0  0  0
    9.4860    0.9732   22.9306 H   0  0  0  0  0  0  0  0  0  0  0  0
    8.3992    2.0711   20.2925 H   0  0  0  0  0  0  0  0  0  0  0  0
    9.8024    0.9821   20.4390 H   0  0  0  0  0  0  0  0  0  0  0  0
    9.8323    2.5871   21.1855 H   0  0  0  0  0  0  0  0  0  0  0  0
  1  2  1  0
  2  3  1  0
  3  4  1  0
  4  5  2  0
  5  6  1  0
  6  7  2  0
  7  8  1  0
  8  9  1  0
  7 10  1  0
  5 11  1  0
  3 12  1  0
  3 13  1  0
  2 14  1  0
 14 15  2  0
 15 16  1  0
 16 17  1  0
 17 18  1  0
 18 19  1  0
 19 20  1  0
 20 21  1  0
 21 22  1  0
 21 23  1  0
 19 24  1  0
 19 25  1  0
 18 26  1  0
 18 27  1  0
 17 28  1  0
 16 29  2  0
 29 30  1  0
 30 31  1  0
 31 32  2  0
 32 33  1  0
 33 34  2  0
 34 35  1  0
 35 36  2  0
 36 37  1  0
 34 38  1  0
 33 39  1  0
 32 40  1  0
  2 41  1  0
  1 42  1  0
  1 43  1  0
  1 44  1  0
  8  4  1  0
 30 14  1  0
 36 31  1  0
 21 17  1  0
M  END
>  <cnnaffinity>  (1) 
-5.71511

>  <filename>  (1) 
CC(Cc1cnc[nH]1)c1nc(C2CCOC2)nn1-c1cccnc1

$$$$
