
     RDKit          3D

 49 52  0  0  0  0  0  0  0  0999 V2000
   11.3082    0.1593   23.8357 C   0  0  0  0  0  0  0  0  0  0  0  0
   11.3973    1.6381   23.4142 C   0  0  0  0  0  0  0  0  0  0  0  0
   12.5552    1.8860   22.4291 C   0  0  0  0  0  0  0  0  0  0  0  0
   13.5087    1.5707   22.8674 H   0  0  0  0  0  0  0  0  0  0  0  0
   12.4186    1.3380   21.4903 H   0  0  0  0  0  0  0  0  0  0  0  0
   12.6339    2.9491   22.1795 H   0  0  0  0  0  0  0  0  0  0  0  0
   10.1032    2.2315   22.9115 C   0  0  0  0  0  0  0  0  0  0  0  0
    9.5454    3.2898   23.4518 N   0  0  0  0  0  0  0  0  0  0  0  0
    8.4266    3.5492   22.7051 C   0  0  0  0  0  0  0  0  0  0  0  0
    8.2969    2.6337   21.7059 C   0  0  0  0  0  0  0  0  0  0  0  0
    9.3856    1.7884   21.8207 N   0  0  0  0  0  0  0  0  0  0  0  0
    9.5357    0.5880   20.9987 C   0  0  0  0  0  0  0  0  0  0  0  0
    8.6052   -0.5153   21.4148 C   0  0  0  0  0  0  0  0  0  0  0  0
    8.8302   -1.3827   22.3768 N   0  0  0  0  0  0  0  0  0  0  0  0
    7.6389   -2.0319   22.5064 C   0  0  0  0  0  0  0  0  0  0  0  0
    7.4262   -3.0467   23.5823 C   0  0  0  0  0  0  0  0  0  0  0  0
    7.4508   -2.4473   25.0090 C   0  0  0  0  0  0  0  0  0  0  0  0
    7.8423   -3.6094   25.9424 C   0  0  0  0  0  0  0  0  0  0  0  0
    8.4617   -4.7127   25.0484 C   0  0  0  0  0  0  0  0  0  0  0  0
    8.4926   -4.1581   23.6138 C   0  0  0  0  0  0  0  0  0  0  0  0
    8.2955   -4.9303   22.8618 H   0  0  0  0  0  0  0  0  0  0  0  0
    9.4773   -3.7344   23.3862 H   0  0  0  0  0  0  0  0  0  0  0  0
    7.8607   -5.6275   25.1031 H   0  0  0  0  0  0  0  0  0  0  0  0
    9.4652   -4.9934   25.3839 H   0  0  0  0  0  0  0  0  0  0  0  0
    8.5423   -3.2709   26.7132 H   0  0  0  0  0  0  0  0  0  0  0  0
    6.9702   -3.9976   26.4796 H   0  0  0  0  0  0  0  0  0  0  0  0
    8.1955   -1.6425   25.0672 H   0  0  0  0  0  0  0  0  0  0  0  0
    6.4864   -1.9997   25.2747 H   0  0  0  0  0  0  0  0  0  0  0  0
    6.4417   -3.4828   23.3924 H   0  0  0  0  0  0  0  0  0  0  0  0
    6.7110   -1.6434   21.6595 N   0  0  0  0  0  0  0  0  0  0  0  0
    7.3406   -0.6786   20.9321 N   0  0  0  0  0  0  0  0  0  0  0  0
    6.6529    0.0096   19.8979 C   0  0  0  0  0  0  0  0  0  0  0  0
    5.4362    0.6463   20.1632 C   0  0  0  0  0  0  0  0  0  0  0  0
    4.8092    1.3108   19.1062 C   0  0  0  0  0  0  0  0  0  0  0  0
    5.4005    1.2965   17.8361 C   0  0  0  0  0  0  0  0  0  0  0  0
    6.5590    0.6733   17.5756 N   0  0  0  0  0  0  0  0  0  0  0  0
    7.1680    0.0520   18.5905 C   0  0  0  0  0  0  0  0  0  0  0  0
    8.1119   -0.4380   18.3640 H   0  0  0  0  0  0  0  0  0  0  0  0
    4.9196    1.7868   16.9930 H   0  0  0  0  0  0  0  0  0  0  0  0
    3.8780    1.8406   19.2593 H   0  0  0  0  0  0  0  0  0  0  0  0
    5.0161    0.6140   21.1733 H   0  0  0  0  0  0  0  0  0  0  0  0
   10.5623    0.2236   21.0518 H   0  0  0  0  0  0  0  0  0  0  0  0
    9.3551    0.8733   19.9616 H   0  0  0  0  0  0  0  0  0  0  0  0
    7.5397    2.4863   20.9450 H   0  0  0  0  0  0  0  0  0  0  0  0
    7.7876    4.3938   22.9335 H   0  0  0  0  0  0  0  0  0  0  0  0
   11.5943    2.2280   24.3178 H   0  0  0  0  0  0  0  0  0  0  0  0
   12.1591   -0.0977   24.4773 H   0  0  0  0  0  0  0  0  0  0  0  0
   10.3896   -0.0389   24.3989 H   0  0  0  0  0  0  0  0  0  0  0  0
   11.3170   -0.5289   22.9841 H   0  0  0  0  0  0  0  0  0  0  0  0
  1  2  1  0
  2  3  1  0
  3  4  1  0
  3  5  1  0
  3  6  1  0
  2  7  1  0
  7  8  2  0
  8  9  1  0
  9 10  2  0
 10 11  1  0
 11 12  1  0
 12 13  1  0
 13 14  2  0
 14 15  1  0
 15 16  1  0
 16 17  1  0
 17 18  1  0
 18 19  1  0
 19 20  1  0
 20 21  1  0
 20 22  1  0
 19 23  1  0
 19 24  1  0
 18 25  1  0
 18 26  1  0
 17 27  1  0
 17 28  1  0
 16 29  1  0
 15 30  2  0
 30 31  1  0
 31 32  1  0
 32 33  2  0
 33 34  1  0
 34 35  2  0
 35 36  1  0
 36 37  2  0
 37 38  1  0
 35 39  1  0
 34 40  1  0
 33 41  1  0
 12 42  1  0
 12 43  1  0
 10 44  1  0
  9 45  1  0
  2 46  1  0
  1 47  1  0
  1 48  1  0
  1 49  1  0
 11  7  1  0
 31 13  1  0
 37 32  1  0
 20 16  1  0
M  END
>  <cnnaffinity>  (1) 
-6.58404

>  <filename>  (1) 
CC(C)c1nccn1Cc1nc(C2CCCC2)nn1-c1cccnc1

$$$$
