
     RDKit          3D

 32 33  0  0  0  0  0  0  0  0999 V2000
    4.9450    1.8153   16.9621 H   0  0  0  0  0  0  0  0  0  0  0  0
    5.4095    1.3190   17.8136 C   0  0  0  0  0  0  0  0  0  0  0  0
    6.5817    0.7079   17.5828 N   0  0  0  0  0  0  0  0  0  0  0  0
    7.1676    0.0915   18.6193 C   0  0  0  0  0  0  0  0  0  0  0  0
    8.1195   -0.3858   18.3934 H   0  0  0  0  0  0  0  0  0  0  0  0
    6.6381    0.0280   19.9329 C   0  0  0  0  0  0  0  0  0  0  0  0
    7.3198   -0.6849   21.0540 C   0  0  0  0  0  0  0  0  0  0  0  0
    7.8719   -1.9933   21.1471 C   0  0  0  0  0  0  0  0  0  0  0  0
    7.8319   -2.8078   20.4462 H   0  0  0  0  0  0  0  0  0  0  0  0
    8.4283   -2.2373   22.3234 N   0  0  0  0  0  0  0  0  0  0  0  0
    8.2287   -1.1080   23.0123 N   0  0  0  0  0  0  0  0  0  0  0  0
    8.5478   -1.0058   23.9692 H   0  0  0  0  0  0  0  0  0  0  0  0
    7.5586   -0.1661   22.3194 C   0  0  0  0  0  0  0  0  0  0  0  0
    7.0977    1.0672   23.0317 C   0  0  0  0  0  0  0  0  0  0  0  0
    6.9316    1.8725   22.2990 H   0  0  0  0  0  0  0  0  0  0  0  0
    6.1271    0.8608   23.5073 H   0  0  0  0  0  0  0  0  0  0  0  0
    8.0190    1.3978   24.1186 N   0  0  0  0  0  0  0  0  0  0  0  0
    8.9263    1.6361   23.7186 H   0  0  0  0  0  0  0  0  0  0  0  0
    7.6097    2.5224   24.9527 C   0  0  0  0  0  0  0  0  0  0  0  0
    6.5826    2.3240   25.2958 H   0  0  0  0  0  0  0  0  0  0  0  0
    8.5286    2.5155   26.1680 C   0  0  0  0  0  0  0  0  0  0  0  0
    8.5059    1.5172   26.6187 H   0  0  0  0  0  0  0  0  0  0  0  0
    9.5575    2.7217   25.8467 H   0  0  0  0  0  0  0  0  0  0  0  0
    8.2379    3.2541   26.9243 H   0  0  0  0  0  0  0  0  0  0  0  0
    7.6162    3.8467   24.1803 C   0  0  0  0  0  0  0  0  0  0  0  0
    8.6260    4.0608   23.8044 H   0  0  0  0  0  0  0  0  0  0  0  0
    7.2929    4.6893   24.8011 H   0  0  0  0  0  0  0  0  0  0  0  0
    6.9403    3.8005   23.3178 H   0  0  0  0  0  0  0  0  0  0  0  0
    5.4136    0.6864   20.1382 C   0  0  0  0  0  0  0  0  0  0  0  0
    4.9399    0.6742   21.1211 H   0  0  0  0  0  0  0  0  0  0  0  0
    4.7911    1.3284   19.0654 C   0  0  0  0  0  0  0  0  0  0  0  0
    3.8429    1.8349   19.1871 H   0  0  0  0  0  0  0  0  0  0  0  0
  1  2  1  0
  2  3  2  0
  3  4  1  0
  4  5  1  0
  4  6  2  0
  6  7  1  0
  7  8  1  0
  8  9  1  0
  8 10  2  0
 10 11  1  0
 11 12  1  0
 11 13  1  0
 13 14  1  0
 14 15  1  0
 14 16  1  0
 14 17  1  0
 17 18  1  0
 17 19  1  0
 19 20  1  0
 19 21  1  0
 21 22  1  0
 21 23  1  0
 21 24  1  0
 19 25  1  0
 25 26  1  0
 25 27  1  0
 25 28  1  0
  6 29  1  0
 29 30  1  0
 29 31  2  0
 31 32  1  0
 31  2  1  0
 13  7  2  0
M  END
>  <cnnaffinity>  (1) 
-4.24259

>  <filename>  (1) 
CC(C)NCc1[nH]ncc1-c1cccnc1

$$$$
