
     RDKit          3D

 46 49  0  0  0  0  0  0  0  0999 V2000
   10.3156   -1.5987   21.6057 C   0  0  0  0  0  0  0  0  0  0  0  0
   10.8676   -0.1998   21.3533 C   0  0  0  0  0  0  0  0  0  0  0  0
    9.7837    0.8526   20.9604 C   0  0  0  0  0  0  0  0  0  0  0  0
    8.6816    1.0117   21.9669 C   0  0  0  0  0  0  0  0  0  0  0  0
    8.6509    1.8642   22.9721 N   0  0  0  0  0  0  0  0  0  0  0  0
    7.5664    1.4697   23.6991 C   0  0  0  0  0  0  0  0  0  0  0  0
    7.1948    2.1047   25.0126 C   0  0  0  0  0  0  0  0  0  0  0  0
    8.0502    3.0440   25.6307 C   0  0  0  0  0  0  0  0  0  0  0  0
    7.6837    3.6174   26.8501 C   0  0  0  0  0  0  0  0  0  0  0  0
    6.5453    3.3389   27.4979 N   0  0  0  0  0  0  0  0  0  0  0  0
    5.7325    2.4399   26.9232 C   0  0  0  0  0  0  0  0  0  0  0  0
    6.0029    1.7985   25.7095 C   0  0  0  0  0  0  0  0  0  0  0  0
    5.2974    1.0627   25.3310 H   0  0  0  0  0  0  0  0  0  0  0  0
    4.8141    2.2164   27.4626 H   0  0  0  0  0  0  0  0  0  0  0  0
    8.3430    4.3398   27.3274 H   0  0  0  0  0  0  0  0  0  0  0  0
    8.9947    3.3234   25.1725 H   0  0  0  0  0  0  0  0  0  0  0  0
    6.9078    0.4554   23.1570 N   0  0  0  0  0  0  0  0  0  0  0  0
    7.6317    0.1636   22.0529 N   0  0  0  0  0  0  0  0  0  0  0  0
    7.1327   -0.7837   21.0556 C   0  0  0  0  0  0  0  0  0  0  0  0
    6.5053   -0.0944   19.8671 C   0  0  0  0  0  0  0  0  0  0  0  0
    5.3456    0.6620   20.0585 C   0  0  0  0  0  0  0  0  0  0  0  0
    4.8143    1.3501   18.9696 C   0  0  0  0  0  0  0  0  0  0  0  0
    5.4587    1.2631   17.7326 C   0  0  0  0  0  0  0  0  0  0  0  0
    6.5670    0.5359   17.5267 N   0  0  0  0  0  0  0  0  0  0  0  0
    7.0659   -0.1223   18.5805 C   0  0  0  0  0  0  0  0  0  0  0  0
    7.9682   -0.7052   18.3819 H   0  0  0  0  0  0  0  0  0  0  0  0
    5.0684    1.7954   16.8680 H   0  0  0  0  0  0  0  0  0  0  0  0
    3.9273    1.9623   19.0718 H   0  0  0  0  0  0  0  0  0  0  0  0
    4.8947    0.7133   21.0526 H   0  0  0  0  0  0  0  0  0  0  0  0
    7.9589   -1.4149   20.7206 H   0  0  0  0  0  0  0  0  0  0  0  0
    6.4207   -1.4202   21.5875 H   0  0  0  0  0  0  0  0  0  0  0  0
   10.2653    1.8293   20.8481 H   0  0  0  0  0  0  0  0  0  0  0  0
    9.3658    0.5837   19.9896 H   0  0  0  0  0  0  0  0  0  0  0  0
   11.6638    0.3141   22.4618 N   0  0  0  0  0  0  0  0  0  0  0  0
   12.5646    1.3336   22.2833 C   0  0  0  0  0  0  0  0  0  0  0  0
   12.9025    1.8479   23.5030 C   0  0  0  0  0  0  0  0  0  0  0  0
   12.1330    1.1363   24.4670 C   0  0  0  0  0  0  0  0  0  0  0  0
   11.3803    0.2122   23.7978 C   0  0  0  0  0  0  0  0  0  0  0  0
   10.5996   -0.4521   24.1379 H   0  0  0  0  0  0  0  0  0  0  0  0
   12.0693    1.3059   25.5207 H   0  0  0  0  0  0  0  0  0  0  0  0
   13.5923    2.6608   23.6910 H   0  0  0  0  0  0  0  0  0  0  0  0
   12.8170    1.6447   21.2813 H   0  0  0  0  0  0  0  0  0  0  0  0
   11.5923   -0.2940   20.5405 H   0  0  0  0  0  0  0  0  0  0  0  0
    9.8600   -1.9763   20.6886 H   0  0  0  0  0  0  0  0  0  0  0  0
   11.1093   -2.3008   21.8686 H   0  0  0  0  0  0  0  0  0  0  0  0
    9.5477   -1.6194   22.3852 H   0  0  0  0  0  0  0  0  0  0  0  0
  1  2  1  0
  2  3  1  0
  3  4  1  0
  4  5  2  0
  5  6  1  0
  6  7  1  0
  7  8  2  0
  8  9  1  0
  9 10  2  0
 10 11  1  0
 11 12  2  0
 12 13  1  0
 11 14  1  0
  9 15  1  0
  8 16  1  0
  6 17  2  0
 17 18  1  0
 18 19  1  0
 19 20  1  0
 20 21  2  0
 21 22  1  0
 22 23  2  0
 23 24  1  0
 24 25  2  0
 25 26  1  0
 23 27  1  0
 22 28  1  0
 21 29  1  0
 19 30  1  0
 19 31  1  0
  3 32  1  0
  3 33  1  0
  2 34  1  0
 34 35  1  0
 35 36  2  0
 36 37  1  0
 37 38  2  0
 38 39  1  0
 37 40  1  0
 36 41  1  0
 35 42  1  0
  2 43  1  0
  1 44  1  0
  1 45  1  0
  1 46  1  0
 18  4  1  0
 25 20  1  0
 38 34  1  0
 12  7  1  0
M  END
>  <cnnaffinity>  (1) 
-5.37057

>  <filename>  (1) 
CC(Cc1nc(-c2ccncc2)nn1Cc1cccnc1)n1cccc1

$$$$
