
     RDKit          3D

 37 39  0  0  0  0  0  0  0  0999 V2000
    4.9906    1.7763   16.9658 H   0  0  0  0  0  0  0  0  0  0  0  0
    5.4489    1.2952   17.8288 C   0  0  0  0  0  0  0  0  0  0  0  0
    6.6207    0.6910   17.6071 N   0  0  0  0  0  0  0  0  0  0  0  0
    7.2122    0.1014   18.6579 C   0  0  0  0  0  0  0  0  0  0  0  0
    8.1604   -0.3820   18.4399 H   0  0  0  0  0  0  0  0  0  0  0  0
    6.6991    0.0660   19.9591 C   0  0  0  0  0  0  0  0  0  0  0  0
    7.3762   -0.7448   21.0643 C   0  0  0  0  0  0  0  0  0  0  0  0
    7.3883    0.1163   22.2430 N   0  0  0  0  0  0  0  0  0  0  0  0
    7.3150    1.1043   22.0737 H   0  0  0  0  0  0  0  0  0  0  0  0
    7.9080   -0.2496   23.4376 C   0  0  0  0  0  0  0  0  0  0  0  0
    8.1452   -1.4195   23.7105 O   0  0  0  0  0  0  0  0  0  0  0  0
    8.1094    0.8802   24.4011 C   0  0  0  0  0  0  0  0  0  0  0  0
    8.5904    2.1306   24.1459 C   0  0  0  0  0  0  0  0  0  0  0  0
    8.9829    2.5488   23.2174 H   0  0  0  0  0  0  0  0  0  0  0  0
    8.6824    3.1228   25.5646 S   0  0  0  0  0  0  0  0  0  0  0  0
    8.0261    1.8522   26.5631 C   0  0  0  0  0  0  0  0  0  0  0  0
    7.7536    1.8744   27.9450 C   0  0  0  0  0  0  0  0  0  0  0  0
    7.9271    2.7736   28.5297 H   0  0  0  0  0  0  0  0  0  0  0  0
    7.2605    0.7196   28.5453 C   0  0  0  0  0  0  0  0  0  0  0  0
    7.0508    0.7147   29.6119 H   0  0  0  0  0  0  0  0  0  0  0  0
    7.0265   -0.4498   27.7876 C   0  0  0  0  0  0  0  0  0  0  0  0
    6.6393   -1.3548   28.2489 H   0  0  0  0  0  0  0  0  0  0  0  0
    7.2900   -0.4667   26.4292 C   0  0  0  0  0  0  0  0  0  0  0  0
    7.1318   -1.3476   25.8188 H   0  0  0  0  0  0  0  0  0  0  0  0
    7.7891    0.6938   25.8022 C   0  0  0  0  0  0  0  0  0  0  0  0
    8.8412   -1.1121   20.7603 C   0  0  0  0  0  0  0  0  0  0  0  0
    9.2499   -1.6333   21.6299 H   0  0  0  0  0  0  0  0  0  0  0  0
    8.9354   -1.7527   19.8860 H   0  0  0  0  0  0  0  0  0  0  0  0
    9.4257   -0.2006   20.5953 H   0  0  0  0  0  0  0  0  0  0  0  0
    6.5549   -2.0178   21.3291 C   0  0  0  0  0  0  0  0  0  0  0  0
    7.0313   -2.6269   22.0980 H   0  0  0  0  0  0  0  0  0  0  0  0
    6.4474   -2.5851   20.3994 H   0  0  0  0  0  0  0  0  0  0  0  0
    5.5509   -1.7588   21.6724 H   0  0  0  0  0  0  0  0  0  0  0  0
    5.4674    0.7224   20.1676 C   0  0  0  0  0  0  0  0  0  0  0  0
    5.0126    0.7518   21.1636 H   0  0  0  0  0  0  0  0  0  0  0  0
    4.8304    1.3362   19.0862 C   0  0  0  0  0  0  0  0  0  0  0  0
    3.8859    1.8618   19.1984 H   0  0  0  0  0  0  0  0  0  0  0  0
  1  2  1  0
  2  3  2  0
  3  4  1  0
  4  5  1  0
  4  6  2  0
  6  7  1  0
  7  8  1  0
  8  9  1  0
  8 10  1  0
 10 11  2  0
 10 12  1  0
 12 13  2  0
 13 14  1  0
 13 15  1  0
 15 16  1  0
 16 17  2  0
 17 18  1  0
 17 19  1  0
 19 20  1  0
 19 21  2  0
 21 22  1  0
 21 23  1  0
 23 24  1  0
 23 25  2  0
  7 26  1  0
 26 27  1  0
 26 28  1  0
 26 29  1  0
  7 30  1  0
 30 31  1  0
 30 32  1  0
 30 33  1  0
  6 34  1  0
 34 35  1  0
 34 36  2  0
 36 37  1  0
 36  2  1  0
 25 12  1  0
 25 16  1  0
M  END
>  <cnnaffinity>  (1) 
-5.16928

>  <filename>  (1) 
CC(C)(NC(=O)c1csc2ccccc12)c1cccnc1

$$$$
