
     RDKit          3D

 54 57  0  0  0  0  0  0  0  0999 V2000
    7.6536    1.9373   24.5938 C   0  0  0  0  0  0  0  0  0  0  0  0
    7.9944    2.8651   23.4237 C   0  0  0  0  0  0  0  0  0  0  0  0
    6.7299    3.3778   22.7355 C   0  0  0  0  0  0  0  0  0  0  0  0
    6.1279    3.9474   23.4565 H   0  0  0  0  0  0  0  0  0  0  0  0
    6.9706    4.0321   21.8896 H   0  0  0  0  0  0  0  0  0  0  0  0
    6.1185    2.5444   22.3623 H   0  0  0  0  0  0  0  0  0  0  0  0
    8.7657    2.2091   22.4113 O   0  0  0  0  0  0  0  0  0  0  0  0
   10.0652    1.8243   22.6157 C   0  0  0  0  0  0  0  0  0  0  0  0
   10.8907    2.3120   23.6394 C   0  0  0  0  0  0  0  0  0  0  0  0
   12.2097    1.8504   23.7502 C   0  0  0  0  0  0  0  0  0  0  0  0
   12.7071    0.8961   22.8643 C   0  0  0  0  0  0  0  0  0  0  0  0
   11.8618    0.3778   21.8761 C   0  0  0  0  0  0  0  0  0  0  0  0
   10.5629    0.8509   21.7159 C   0  0  0  0  0  0  0  0  0  0  0  0
    9.6521    0.2119   20.6925 C   0  0  0  0  0  0  0  0  0  0  0  0
    8.6133   -0.6336   21.3283 C   0  0  0  0  0  0  0  0  0  0  0  0
    8.8355   -1.4841   22.3116 N   0  0  0  0  0  0  0  0  0  0  0  0
    7.6028   -1.9754   22.5665 C   0  0  0  0  0  0  0  0  0  0  0  0
    7.3550   -2.8526   23.7578 C   0  0  0  0  0  0  0  0  0  0  0  0
    6.7714   -2.0287   24.9489 C   0  0  0  0  0  0  0  0  0  0  0  0
    6.3639   -2.9592   26.0937 C   0  0  0  0  0  0  0  0  0  0  0  0
    5.4710   -3.9659   25.6478 O   0  0  0  0  0  0  0  0  0  0  0  0
    6.0401   -4.8111   24.6641 C   0  0  0  0  0  0  0  0  0  0  0  0
    6.4168   -4.0310   23.4066 C   0  0  0  0  0  0  0  0  0  0  0  0
    5.5110   -3.6230   22.9321 H   0  0  0  0  0  0  0  0  0  0  0  0
    6.8992   -4.7002   22.6831 H   0  0  0  0  0  0  0  0  0  0  0  0
    6.9354   -5.3220   25.0695 H   0  0  0  0  0  0  0  0  0  0  0  0
    5.2842   -5.5693   24.4474 H   0  0  0  0  0  0  0  0  0  0  0  0
    7.2633   -3.4207   26.5467 H   0  0  0  0  0  0  0  0  0  0  0  0
    5.8300   -2.4183   26.8794 H   0  0  0  0  0  0  0  0  0  0  0  0
    7.5060   -1.2929   25.3101 H   0  0  0  0  0  0  0  0  0  0  0  0
    5.8840   -1.4707   24.6064 H   0  0  0  0  0  0  0  0  0  0  0  0
    8.3548   -3.2237   24.0409 H   0  0  0  0  0  0  0  0  0  0  0  0
    6.6421   -1.5276   21.7699 N   0  0  0  0  0  0  0  0  0  0  0  0
    7.3122   -0.6791   20.9482 N   0  0  0  0  0  0  0  0  0  0  0  0
    6.6411   -0.0071   19.8945 C   0  0  0  0  0  0  0  0  0  0  0  0
    5.4300    0.6343   20.1536 C   0  0  0  0  0  0  0  0  0  0  0  0
    4.8005    1.3115   19.1059 C   0  0  0  0  0  0  0  0  0  0  0  0
    5.3898    1.2964   17.8377 C   0  0  0  0  0  0  0  0  0  0  0  0
    6.5433    0.6598   17.5753 N   0  0  0  0  0  0  0  0  0  0  0  0
    7.1545    0.0317   18.5871 C   0  0  0  0  0  0  0  0  0  0  0  0
    8.1031   -0.4464   18.3440 H   0  0  0  0  0  0  0  0  0  0  0  0
    4.9294    1.8067   16.9972 H   0  0  0  0  0  0  0  0  0  0  0  0
    3.8703    1.8472   19.2587 H   0  0  0  0  0  0  0  0  0  0  0  0
    5.0156    0.5890   21.1609 H   0  0  0  0  0  0  0  0  0  0  0  0
   10.2067   -0.4733   20.0464 H   0  0  0  0  0  0  0  0  0  0  0  0
    9.1706    0.9770   20.0806 H   0  0  0  0  0  0  0  0  0  0  0  0
   12.1852   -0.4466   21.2420 H   0  0  0  0  0  0  0  0  0  0  0  0
   13.7294    0.5433   22.9501 H   0  0  0  0  0  0  0  0  0  0  0  0
   12.8483    2.2167   24.5449 H   0  0  0  0  0  0  0  0  0  0  0  0
   10.4957    3.0268   24.3546 H   0  0  0  0  0  0  0  0  0  0  0  0
    8.5690    3.7311   23.7864 H   0  0  0  0  0  0  0  0  0  0  0  0
    8.5481    1.5811   25.1182 H   0  0  0  0  0  0  0  0  0  0  0  0
    7.0838    1.0612   24.2522 H   0  0  0  0  0  0  0  0  0  0  0  0
    7.0362    2.4894   25.3132 H   0  0  0  0  0  0  0  0  0  0  0  0
  1  2  1  0
  2  3  1  0
  3  4  1  0
  3  5  1  0
  3  6  1  0
  2  7  1  0
  7  8  1  0
  8  9  2  0
  9 10  1  0
 10 11  2  0
 11 12  1  0
 12 13  2  0
 13 14  1  0
 14 15  1  0
 15 16  2  0
 16 17  1  0
 17 18  1  0
 18 19  1  0
 19 20  1  0
 20 21  1  0
 21 22  1  0
 22 23  1  0
 23 24  1  0
 23 25  1  0
 22 26  1  0
 22 27  1  0
 20 28  1  0
 20 29  1  0
 19 30  1  0
 19 31  1  0
 18 32  1  0
 17 33  2  0
 33 34  1  0
 34 35  1  0
 35 36  2  0
 36 37  1  0
 37 38  2  0
 38 39  1  0
 39 40  2  0
 40 41  1  0
 38 42  1  0
 37 43  1  0
 36 44  1  0
 14 45  1  0
 14 46  1  0
 12 47  1  0
 11 48  1  0
 10 49  1  0
  9 50  1  0
  2 51  1  0
  1 52  1  0
  1 53  1  0
  1 54  1  0
 13  8  1  0
 34 15  1  0
 40 35  1  0
 23 18  1  0
M  END
>  <cnnaffinity>  (1) 
-6.34306

>  <filename>  (1) 
CC(C)Oc1ccccc1Cc1nc(C2CCOCC2)nn1-c1cccnc1

$$$$
