
     RDKit          3D

 42 44  0  0  0  0  0  0  0  0999 V2000
    4.9809    1.7593   17.0212 H   0  0  0  0  0  0  0  0  0  0  0  0
    5.4391    1.2671   17.8740 C   0  0  0  0  0  0  0  0  0  0  0  0
    6.5965    0.6389   17.6338 N   0  0  0  0  0  0  0  0  0  0  0  0
    7.1975    0.0213   18.6482 C   0  0  0  0  0  0  0  0  0  0  0  0
    8.1383   -0.4762   18.4182 H   0  0  0  0  0  0  0  0  0  0  0  0
    6.6505    0.0292   19.9206 C   0  0  0  0  0  0  0  0  0  0  0  0
    7.4821   -0.8764   21.1509 S   0  0  0  0  0  0  0  0  0  0  0  0
    8.3895   -1.8086   20.4866 O   0  0  0  0  0  0  0  0  0  0  0  0
    6.4129   -1.3637   22.0107 O   0  0  0  0  0  0  0  0  0  0  0  0
    8.5751    0.3505   22.0732 C   0  0  0  0  0  0  0  0  0  0  0  0
    9.4676    1.0704   21.0537 C   0  0  0  0  0  0  0  0  0  0  0  0
   10.1672    1.7349   21.5752 H   0  0  0  0  0  0  0  0  0  0  0  0
    8.8642    1.6922   20.3877 H   0  0  0  0  0  0  0  0  0  0  0  0
   10.0515    0.3509   20.4721 H   0  0  0  0  0  0  0  0  0  0  0  0
    7.7023    1.3616   22.8283 C   0  0  0  0  0  0  0  0  0  0  0  0
    8.3511    2.0115   23.4291 H   0  0  0  0  0  0  0  0  0  0  0  0
    6.9867    0.8709   23.4990 H   0  0  0  0  0  0  0  0  0  0  0  0
    7.1489    2.0120   22.1393 H   0  0  0  0  0  0  0  0  0  0  0  0
    9.5110   -0.4649   23.0337 C   0  0  0  0  0  0  0  0  0  0  0  0
   10.1440   -1.1255   22.4234 H   0  0  0  0  0  0  0  0  0  0  0  0
   10.1887    0.2661   23.5002 H   0  0  0  0  0  0  0  0  0  0  0  0
    8.8501   -1.2692   24.1321 C   0  0  0  0  0  0  0  0  0  0  0  0
    8.4601   -0.6318   25.3513 C   0  0  0  0  0  0  0  0  0  0  0  0
    8.6663    0.4331   25.4776 H   0  0  0  0  0  0  0  0  0  0  0  0
    7.7936   -1.3272   26.3304 C   0  0  0  0  0  0  0  0  0  0  0  0
    7.4911   -0.8353   27.2518 H   0  0  0  0  0  0  0  0  0  0  0  0
    7.4766   -2.7098   26.1530 C   0  0  0  0  0  0  0  0  0  0  0  0
    6.7338   -3.4519   27.1179 C   0  0  0  0  0  0  0  0  0  0  0  0
    6.2981   -2.9043   27.9497 H   0  0  0  0  0  0  0  0  0  0  0  0
    6.5100   -4.7976   26.9519 C   0  0  0  0  0  0  0  0  0  0  0  0
    6.0010   -5.3684   27.7243 H   0  0  0  0  0  0  0  0  0  0  0  0
    6.9264   -5.4576   25.7584 C   0  0  0  0  0  0  0  0  0  0  0  0
    6.6908   -6.5106   25.6313 H   0  0  0  0  0  0  0  0  0  0  0  0
    7.5856   -4.7541   24.7743 C   0  0  0  0  0  0  0  0  0  0  0  0
    7.8771   -5.2307   23.8380 H   0  0  0  0  0  0  0  0  0  0  0  0
    7.8976   -3.3726   24.9543 C   0  0  0  0  0  0  0  0  0  0  0  0
    8.5837   -2.6135   23.9601 C   0  0  0  0  0  0  0  0  0  0  0  0
    8.8387   -3.0968   23.0182 H   0  0  0  0  0  0  0  0  0  0  0  0
    5.4359    0.6589   20.1957 C   0  0  0  0  0  0  0  0  0  0  0  0
    4.9749    0.6376   21.1876 H   0  0  0  0  0  0  0  0  0  0  0  0
    4.8259    1.3034   19.1303 C   0  0  0  0  0  0  0  0  0  0  0  0
    3.8910    1.8307   19.2551 H   0  0  0  0  0  0  0  0  0  0  0  0
  1  2  1  0
  2  3  2  0
  3  4  1  0
  4  5  1  0
  4  6  2  0
  6  7  1  0
  7  8  2  0
  7  9  2  0
  7 10  1  0
 10 11  1  0
 11 12  1  0
 11 13  1  0
 11 14  1  0
 10 15  1  0
 15 16  1  0
 15 17  1  0
 15 18  1  0
 10 19  1  0
 19 20  1  0
 19 21  1  0
 19 22  1  0
 22 23  2  0
 23 24  1  0
 23 25  1  0
 25 26  1  0
 25 27  2  0
 27 28  1  0
 28 29  1  0
 28 30  2  0
 30 31  1  0
 30 32  1  0
 32 33  1  0
 32 34  2  0
 34 35  1  0
 34 36  1  0
 36 37  2  0
 37 38  1  0
  6 39  1  0
 39 40  1  0
 39 41  2  0
 41 42  1  0
 41  2  1  0
 37 22  1  0
 36 27  1  0
M  END
>  <cnnaffinity>  (1) 
-5.43866

>  <filename>  (1) 
CC(C)(Cc1ccc2ccccc2c1)S(=O)(=O)c1cccnc1

$$$$
