
     RDKit          3D

 41 43  0  0  0  0  0  0  0  0999 V2000
    6.6384   -4.1912   23.1908 C   0  0  0  0  0  0  0  0  0  0  0  0
    7.4246   -2.9564   23.6572 C   0  0  0  0  0  0  0  0  0  0  0  0
    6.6793   -2.2939   24.8224 C   0  0  0  0  0  0  0  0  0  0  0  0
    7.2466   -1.4393   25.2066 H   0  0  0  0  0  0  0  0  0  0  0  0
    6.5337   -3.0082   25.6382 H   0  0  0  0  0  0  0  0  0  0  0  0
    5.6983   -1.9360   24.4955 H   0  0  0  0  0  0  0  0  0  0  0  0
    7.6266   -1.9535   22.5490 C   0  0  0  0  0  0  0  0  0  0  0  0
    6.7019   -1.6491   21.6691 N   0  0  0  0  0  0  0  0  0  0  0  0
    7.2970   -0.6938   20.9311 N   0  0  0  0  0  0  0  0  0  0  0  0
    6.6552   -0.0035   19.9019 C   0  0  0  0  0  0  0  0  0  0  0  0
    5.4323    0.6276   20.1413 C   0  0  0  0  0  0  0  0  0  0  0  0
    4.8188    1.2929   19.0816 C   0  0  0  0  0  0  0  0  0  0  0  0
    5.4331    1.3047   17.8249 C   0  0  0  0  0  0  0  0  0  0  0  0
    6.6053    0.6844   17.5879 N   0  0  0  0  0  0  0  0  0  0  0  0
    7.2035    0.0501   18.6119 C   0  0  0  0  0  0  0  0  0  0  0  0
    8.1504   -0.4559   18.4297 H   0  0  0  0  0  0  0  0  0  0  0  0
    4.9465    1.8427   17.0176 H   0  0  0  0  0  0  0  0  0  0  0  0
    3.8772    1.8156   19.2188 H   0  0  0  0  0  0  0  0  0  0  0  0
    4.9893    0.6097   21.1361 H   0  0  0  0  0  0  0  0  0  0  0  0
    8.5688   -0.4535   21.4252 C   0  0  0  0  0  0  0  0  0  0  0  0
    9.5133    0.6003   20.9250 C   0  0  0  0  0  0  0  0  0  0  0  0
    9.2102    1.9550   21.5841 C   0  0  0  0  0  0  0  0  0  0  0  0
    9.5136    1.8321   23.0564 C   0  0  0  0  0  0  0  0  0  0  0  0
   10.8449    1.8393   23.4691 C   0  0  0  0  0  0  0  0  0  0  0  0
   11.1290    1.5671   24.8016 C   0  0  0  0  0  0  0  0  0  0  0  0
   10.0679    1.2644   25.6702 C   0  0  0  0  0  0  0  0  0  0  0  0
    8.7811    1.3114   25.2898 N   0  0  0  0  0  0  0  0  0  0  0  0
    8.5032    1.5914   24.0032 C   0  0  0  0  0  0  0  0  0  0  0  0
    6.6835    1.5697   23.4175 Br  0  0  0  0  0  0  0  0  0  0  0  0
   10.2891    0.9433   26.6745 H   0  0  0  0  0  0  0  0  0  0  0  0
   12.1576    1.5509   25.1507 H   0  0  0  0  0  0  0  0  0  0  0  0
   11.6315    2.0020   22.7346 H   0  0  0  0  0  0  0  0  0  0  0  0
    9.8307    2.7403   21.1402 H   0  0  0  0  0  0  0  0  0  0  0  0
    8.1634    2.2399   21.4257 H   0  0  0  0  0  0  0  0  0  0  0  0
    9.4106    0.6780   19.8398 H   0  0  0  0  0  0  0  0  0  0  0  0
   10.5415    0.2960   21.1532 H   0  0  0  0  0  0  0  0  0  0  0  0
    8.8156   -1.2485   22.4243 N   0  0  0  0  0  0  0  0  0  0  0  0
    8.4128   -3.2749   24.0007 H   0  0  0  0  0  0  0  0  0  0  0  0
    6.5142   -4.8960   24.0193 H   0  0  0  0  0  0  0  0  0  0  0  0
    7.1635   -4.7026   22.3781 H   0  0  0  0  0  0  0  0  0  0  0  0
    5.6462   -3.8989   22.8335 H   0  0  0  0  0  0  0  0  0  0  0  0
  1  2  1  0
  2  3  1  0
  3  4  1  0
  3  5  1  0
  3  6  1  0
  2  7  1  0
  7  8  2  0
  8  9  1  0
  9 10  1  0
 10 11  2  0
 11 12  1  0
 12 13  2  0
 13 14  1  0
 14 15  2  0
 15 16  1  0
 13 17  1  0
 12 18  1  0
 11 19  1  0
  9 20  1  0
 20 21  1  0
 21 22  1  0
 22 23  1  0
 23 24  2  0
 24 25  1  0
 25 26  2  0
 26 27  1  0
 27 28  2  0
 28 29  1  0
 26 30  1  0
 25 31  1  0
 24 32  1  0
 22 33  1  0
 22 34  1  0
 21 35  1  0
 21 36  1  0
 20 37  2  0
  2 38  1  0
  1 39  1  0
  1 40  1  0
  1 41  1  0
 37  7  1  0
 15 10  1  0
 28 23  1  0
M  END
>  <cnnaffinity>  (1) 
-5.95424

>  <filename>  (1) 
CC(C)c1nc(CCc2cccnc2Br)n(-c2cccnc2)n1

$$$$
