
     RDKit          3D

 41 44  0  0  0  0  0  0  0  0999 V2000
    4.9162    1.7755   17.0021 H   0  0  0  0  0  0  0  0  0  0  0  0
    5.4045    1.2900   17.8428 C   0  0  0  0  0  0  0  0  0  0  0  0
    6.5699    0.6780   17.5774 N   0  0  0  0  0  0  0  0  0  0  0  0
    7.1749    0.0568   18.5902 C   0  0  0  0  0  0  0  0  0  0  0  0
    8.1244   -0.4345   18.3744 H   0  0  0  0  0  0  0  0  0  0  0  0
    6.6481    0.0110   19.8913 C   0  0  0  0  0  0  0  0  0  0  0  0
    7.4037   -0.7034   20.9168 C   0  0  0  0  0  0  0  0  0  0  0  0
    8.3328   -1.6004   20.6968 N   0  0  0  0  0  0  0  0  0  0  0  0
    8.8300   -2.0387   21.9032 N   0  0  0  0  0  0  0  0  0  0  0  0
    8.1912   -1.3640   22.8175 C   0  0  0  0  0  0  0  0  0  0  0  0
    8.2480   -1.1194   24.5355 S   0  0  0  0  0  0  0  0  0  0  0  0
    7.0152    0.1456   24.3242 C   0  0  0  0  0  0  0  0  0  0  0  0
    6.5093    0.9227   25.4752 C   0  0  0  0  0  0  0  0  0  0  0  0
    6.9698    0.6998   26.7895 C   0  0  0  0  0  0  0  0  0  0  0  0
    7.7204   -0.0601   27.0006 H   0  0  0  0  0  0  0  0  0  0  0  0
    6.4686    1.4550   27.8474 C   0  0  0  0  0  0  0  0  0  0  0  0
    6.8512    1.2488   28.8432 H   0  0  0  0  0  0  0  0  0  0  0  0
    5.4959    2.4577   27.6522 C   0  0  0  0  0  0  0  0  0  0  0  0
    4.9755    3.2636   28.8614 C   0  0  0  0  0  0  0  0  0  0  0  0
    6.1524    4.0049   29.5354 C   0  0  0  0  0  0  0  0  0  0  0  0
    6.6582    4.6628   28.8197 H   0  0  0  0  0  0  0  0  0  0  0  0
    6.9007    3.3098   29.9302 H   0  0  0  0  0  0  0  0  0  0  0  0
    5.8004    4.6197   30.3719 H   0  0  0  0  0  0  0  0  0  0  0  0
    4.3254    2.3030   29.8828 C   0  0  0  0  0  0  0  0  0  0  0  0
    3.5130    1.7330   29.4181 H   0  0  0  0  0  0  0  0  0  0  0  0
    5.0462    1.5821   30.2826 H   0  0  0  0  0  0  0  0  0  0  0  0
    3.9086    2.8569   30.7320 H   0  0  0  0  0  0  0  0  0  0  0  0
    3.9204    4.3160   28.4691 C   0  0  0  0  0  0  0  0  0  0  0  0
    3.0399    3.8527   28.0097 H   0  0  0  0  0  0  0  0  0  0  0  0
    3.5770    4.8654   29.3525 H   0  0  0  0  0  0  0  0  0  0  0  0
    4.3259    5.0505   27.7642 H   0  0  0  0  0  0  0  0  0  0  0  0
    5.0495    2.6651   26.3344 C   0  0  0  0  0  0  0  0  0  0  0  0
    4.3040    3.4220   26.1236 H   0  0  0  0  0  0  0  0  0  0  0  0
    5.5402    1.9192   25.2665 C   0  0  0  0  0  0  0  0  0  0  0  0
    5.1719    2.1111   24.2633 H   0  0  0  0  0  0  0  0  0  0  0  0
    6.6089    0.3366   23.1058 N   0  0  0  0  0  0  0  0  0  0  0  0
    7.2651   -0.5287   22.2784 N   0  0  0  0  0  0  0  0  0  0  0  0
    5.4335    0.6523   20.1617 C   0  0  0  0  0  0  0  0  0  0  0  0
    5.0092    0.6347   21.1686 H   0  0  0  0  0  0  0  0  0  0  0  0
    4.8047    1.3086   19.1088 C   0  0  0  0  0  0  0  0  0  0  0  0
    3.8740    1.8436   19.2616 H   0  0  0  0  0  0  0  0  0  0  0  0
  1  2  1  0
  2  3  2  0
  3  4  1  0
  4  5  1  0
  4  6  2  0
  6  7  1  0
  7  8  2  0
  8  9  1  0
  9 10  2  0
 10 11  1  0
 11 12  1  0
 12 13  1  0
 13 14  2  0
 14 15  1  0
 14 16  1  0
 16 17  1  0
 16 18  2  0
 18 19  1  0
 19 20  1  0
 20 21  1  0
 20 22  1  0
 20 23  1  0
 19 24  1  0
 24 25  1  0
 24 26  1  0
 24 27  1  0
 19 28  1  0
 28 29  1  0
 28 30  1  0
 28 31  1  0
 18 32  1  0
 32 33  1  0
 32 34  2  0
 34 35  1  0
 12 36  2  0
 36 37  1  0
  6 38  1  0
 38 39  1  0
 38 40  2  0
 40 41  1  0
 40  2  1  0
 37  7  1  0
 37 10  1  0
 34 13  1  0
M  END
>  <cnnaffinity>  (1) 
-5.49821

>  <filename>  (1) 
CC(C)(C)c1ccc(-c2nn3c(-c4cccnc4)nnc3s2)cc1

$$$$
