
     RDKit          3D

 38 40  0  0  0  0  0  0  0  0999 V2000
    4.9383    1.8058   16.9782 H   0  0  0  0  0  0  0  0  0  0  0  0
    5.4016    1.2902   17.8177 C   0  0  0  0  0  0  0  0  0  0  0  0
    6.5611    0.6656   17.5602 N   0  0  0  0  0  0  0  0  0  0  0  0
    7.1704    0.0418   18.5737 C   0  0  0  0  0  0  0  0  0  0  0  0
    8.1164   -0.4414   18.3315 H   0  0  0  0  0  0  0  0  0  0  0  0
    6.6610    0.0127   19.8850 C   0  0  0  0  0  0  0  0  0  0  0  0
    7.3916   -0.6576   20.9712 C   0  0  0  0  0  0  0  0  0  0  0  0
    8.1866   -1.7094   20.7439 N   0  0  0  0  0  0  0  0  0  0  0  0
    8.5714   -2.0798   21.9598 N   0  0  0  0  0  0  0  0  0  0  0  0
    8.1107   -1.3416   22.9764 C   0  0  0  0  0  0  0  0  0  0  0  0
    7.3292   -0.3721   22.3761 C   0  0  0  0  0  0  0  0  0  0  0  0
    6.5815    0.6136   22.9406 O   0  0  0  0  0  0  0  0  0  0  0  0
    6.8675    0.9543   24.2974 C   0  0  0  0  0  0  0  0  0  0  0  0
    6.8824    0.0421   24.9135 H   0  0  0  0  0  0  0  0  0  0  0  0
    6.0011    1.5613   24.5864 H   0  0  0  0  0  0  0  0  0  0  0  0
    8.1750    1.7535   24.4699 C   0  0  0  0  0  0  0  0  0  0  0  0
    9.0076    1.1362   24.0886 H   0  0  0  0  0  0  0  0  0  0  0  0
    8.1311    3.0555   23.6569 C   0  0  0  0  0  0  0  0  0  0  0  0
    7.9740    2.8657   22.5884 H   0  0  0  0  0  0  0  0  0  0  0  0
    7.3096    3.6981   24.0041 H   0  0  0  0  0  0  0  0  0  0  0  0
    9.0659    3.6158   23.7697 H   0  0  0  0  0  0  0  0  0  0  0  0
    8.4399    2.0340   25.9576 C   0  0  0  0  0  0  0  0  0  0  0  0
    7.6421    2.6441   26.4032 H   0  0  0  0  0  0  0  0  0  0  0  0
    9.3807    2.5808   26.0891 H   0  0  0  0  0  0  0  0  0  0  0  0
    8.5144    1.1059   26.5393 H   0  0  0  0  0  0  0  0  0  0  0  0
    8.5395   -1.9273   24.2957 C   0  0  0  0  0  0  0  0  0  0  0  0
    9.1098   -1.2041   24.8963 H   0  0  0  0  0  0  0  0  0  0  0  0
    7.6560   -2.2111   24.8828 H   0  0  0  0  0  0  0  0  0  0  0  0
    9.3914   -3.1655   23.8771 C   0  0  0  0  0  0  0  0  0  0  0  0
    8.9872   -4.0900   24.2950 H   0  0  0  0  0  0  0  0  0  0  0  0
   10.4266   -3.0840   24.2097 H   0  0  0  0  0  0  0  0  0  0  0  0
    9.3763   -3.2091   22.3229 C   0  0  0  0  0  0  0  0  0  0  0  0
    8.9124   -4.1149   21.9219 H   0  0  0  0  0  0  0  0  0  0  0  0
   10.3748   -3.0709   21.9005 H   0  0  0  0  0  0  0  0  0  0  0  0
    5.4353    0.6560   20.1309 C   0  0  0  0  0  0  0  0  0  0  0  0
    5.0189    0.6591   21.1373 H   0  0  0  0  0  0  0  0  0  0  0  0
    4.7967    1.3037   19.0785 C   0  0  0  0  0  0  0  0  0  0  0  0
    3.8660    1.8426   19.2288 H   0  0  0  0  0  0  0  0  0  0  0  0
  1  2  1  0
  2  3  2  0
  3  4  1  0
  4  5  1  0
  4  6  2  0
  6  7  1  0
  7  8  2  0
  8  9  1  0
  9 10  1  0
 10 11  2  0
 11 12  1  0
 12 13  1  0
 13 14  1  0
 13 15  1  0
 13 16  1  0
 16 17  1  0
 16 18  1  0
 18 19  1  0
 18 20  1  0
 18 21  1  0
 16 22  1  0
 22 23  1  0
 22 24  1  0
 22 25  1  0
 10 26  1  0
 26 27  1  0
 26 28  1  0
 26 29  1  0
 29 30  1  0
 29 31  1  0
 29 32  1  0
 32 33  1  0
 32 34  1  0
  6 35  1  0
 35 36  1  0
 35 37  2  0
 37 38  1  0
 37  2  1  0
 11  7  1  0
 32  9  1  0
M  END
>  <cnnaffinity>  (1) 
-5.25311

>  <filename>  (1) 
CC(C)COc1c(-c2cccnc2)nn2c1CCC2

$$$$
