
     RDKit          3D

 35 36  0  0  0  0  0  0  0  0999 V2000
    5.0628    1.9294   17.0653 H   0  0  0  0  0  0  0  0  0  0  0  0
    5.5095    1.3097   17.8399 C   0  0  0  0  0  0  0  0  0  0  0  0
    6.6517    0.6822   17.5159 N   0  0  0  0  0  0  0  0  0  0  0  0
    7.2337   -0.0684   18.4604 C   0  0  0  0  0  0  0  0  0  0  0  0
    8.1774   -0.5422   18.1923 H   0  0  0  0  0  0  0  0  0  0  0  0
    6.6915   -0.2632   19.7498 C   0  0  0  0  0  0  0  0  0  0  0  0
    7.3633   -1.0127   20.7450 N   0  0  0  0  0  0  0  0  0  0  0  0
    6.7295   -1.8999   21.5953 C   0  0  0  0  0  0  0  0  0  0  0  0
    5.6129   -2.3444   21.5344 O   0  0  0  0  0  0  0  0  0  0  0  0
    7.6526   -2.2780   22.5366 N   0  0  0  0  0  0  0  0  0  0  0  0
    7.4481   -3.0166   23.1787 H   0  0  0  0  0  0  0  0  0  0  0  0
    8.8816   -1.7310   22.3491 C   0  0  0  0  0  0  0  0  0  0  0  0
    9.8685   -2.0423   22.9676 O   0  0  0  0  0  0  0  0  0  0  0  0
    8.7282   -0.7390   21.1877 C   0  0  2  0  0  0  0  0  0  0  0  0
    9.4556   -1.0407   20.4259 H   0  0  0  0  0  0  0  0  0  0  0  0
    8.9514    0.7419   21.5201 C   0  0  0  0  0  0  0  0  0  0  0  0
    8.7495    1.3121   20.6004 H   0  0  0  0  0  0  0  0  0  0  0  0
    8.2125    1.0727   22.2592 H   0  0  0  0  0  0  0  0  0  0  0  0
   10.3714    1.0329   22.0170 C   0  0  0  0  0  0  0  0  0  0  0  0
   11.0771    0.5128   21.3549 H   0  0  0  0  0  0  0  0  0  0  0  0
   10.5042    0.5857   23.0128 H   0  0  0  0  0  0  0  0  0  0  0  0
   10.7330    2.5329   22.0386 C   0  0  0  0  0  0  0  0  0  0  0  0
   10.1520    2.9949   21.2327 H   0  0  0  0  0  0  0  0  0  0  0  0
   10.3196    3.2227   23.3489 C   0  0  0  0  0  0  0  0  0  0  0  0
   10.8200    2.7791   24.2201 H   0  0  0  0  0  0  0  0  0  0  0  0
    9.2367    3.1611   23.5300 H   0  0  0  0  0  0  0  0  0  0  0  0
   10.5931    4.2854   23.3309 H   0  0  0  0  0  0  0  0  0  0  0  0
   12.2118    2.7847   21.6861 C   0  0  0  0  0  0  0  0  0  0  0  0
   12.4992    3.8217   21.9037 H   0  0  0  0  0  0  0  0  0  0  0  0
   12.3600    2.6131   20.6138 H   0  0  0  0  0  0  0  0  0  0  0  0
   12.9061    2.1289   22.2290 H   0  0  0  0  0  0  0  0  0  0  0  0
    5.4807    0.3668   20.0625 C   0  0  0  0  0  0  0  0  0  0  0  0
    5.0423    0.2036   21.0488 H   0  0  0  0  0  0  0  0  0  0  0  0
    4.8953    1.1839   19.0926 C   0  0  0  0  0  0  0  0  0  0  0  0
    3.9783    1.7227   19.2982 H   0  0  0  0  0  0  0  0  0  0  0  0
  1  2  1  0
  2  3  2  0
  3  4  1  0
  4  5  1  0
  4  6  2  0
  6  7  1  0
  7  8  1  0
  8  9  2  0
  8 10  1  0
 10 11  1  0
 10 12  1  0
 12 13  2  0
 12 14  1  0
 14 15  1  6
 14 16  1  0
 16 17  1  0
 16 18  1  0
 16 19  1  0
 19 20  1  0
 19 21  1  0
 19 22  1  0
 22 23  1  0
 22 24  1  0
 24 25  1  0
 24 26  1  0
 24 27  1  0
 22 28  1  0
 28 29  1  0
 28 30  1  0
 28 31  1  0
  6 32  1  0
 32 33  1  0
 32 34  2  0
 34 35  1  0
 34  2  1  0
 14  7  1  0
M  END
>  <cnnaffinity>  (1) 
-5.00311

>  <filename>  (1) 
CC(C)CC[C@H]1C(=O)NC(=O)N1c1cccnc1

$$$$
