
     RDKit          3D

 49 52  0  0  0  0  0  0  0  0999 V2000
    8.7716   -1.2478   26.4606 C   0  0  0  0  0  0  0  0  0  0  0  0
    7.5152   -0.5922   27.0505 C   0  0  0  0  0  0  0  0  0  0  0  0
    7.8708    0.4623   28.1041 C   0  0  0  0  0  0  0  0  0  0  0  0
    6.9761    0.8091   28.6288 H   0  0  0  0  0  0  0  0  0  0  0  0
    8.3471    1.3212   27.6185 H   0  0  0  0  0  0  0  0  0  0  0  0
    8.5751    0.0616   28.8399 H   0  0  0  0  0  0  0  0  0  0  0  0
    6.7024    0.0239   25.9867 N   0  0  0  0  0  0  0  0  0  0  0  0
    5.3919   -0.1281   25.6808 C   0  0  0  0  0  0  0  0  0  0  0  0
    5.1676    0.6272   24.5431 C   0  0  0  0  0  0  0  0  0  0  0  0
    6.4251    1.1572   24.2044 C   0  0  0  0  0  0  0  0  0  0  0  0
    6.9367    1.8075   22.9472 C   0  0  0  0  0  0  0  0  0  0  0  0
    7.9726    0.9159   22.3388 C   0  0  0  0  0  0  0  0  0  0  0  0
    9.2744    1.0569   22.4912 N   0  0  0  0  0  0  0  0  0  0  0  0
    9.7734   -0.1268   22.0525 C   0  0  0  0  0  0  0  0  0  0  0  0
   11.2147   -0.4531   21.9636 C   0  0  0  0  0  0  0  0  0  0  0  0
   11.5844   -1.5370   21.1525 C   0  0  0  0  0  0  0  0  0  0  0  0
   12.9235   -1.7388   20.8767 C   0  0  0  0  0  0  0  0  0  0  0  0
   13.2963   -2.6192   19.9436 F   0  0  0  0  0  0  0  0  0  0  0  0
   13.9222   -1.0185   21.5122 C   0  0  0  0  0  0  0  0  0  0  0  0
   13.5613    0.0358   22.3516 C   0  0  0  0  0  0  0  0  0  0  0  0
   12.2133    0.3271   22.5799 C   0  0  0  0  0  0  0  0  0  0  0  0
   11.9411    1.1567   23.2237 H   0  0  0  0  0  0  0  0  0  0  0  0
   14.3286    0.6708   22.7821 H   0  0  0  0  0  0  0  0  0  0  0  0
   14.9271   -1.3458   21.3112 H   0  0  0  0  0  0  0  0  0  0  0  0
   10.8204   -2.1920   20.7438 H   0  0  0  0  0  0  0  0  0  0  0  0
    8.8480   -0.9604   21.5994 N   0  0  0  0  0  0  0  0  0  0  0  0
    7.6917   -0.2889   21.7860 N   0  0  0  0  0  0  0  0  0  0  0  0
    6.4869   -0.7792   21.1175 C   0  0  0  0  0  0  0  0  0  0  0  0
    6.0982    0.0192   19.8881 C   0  0  0  0  0  0  0  0  0  0  0  0
    4.8979    0.7339   19.8111 C   0  0  0  0  0  0  0  0  0  0  0  0
    4.6280    1.4819   18.6628 C   0  0  0  0  0  0  0  0  0  0  0  0
    5.5616    1.4715   17.6225 C   0  0  0  0  0  0  0  0  0  0  0  0
    6.7117    0.7827   17.6697 N   0  0  0  0  0  0  0  0  0  0  0  0
    6.9707    0.0914   18.7866 C   0  0  0  0  0  0  0  0  0  0  0  0
    7.9301   -0.4270   18.8109 H   0  0  0  0  0  0  0  0  0  0  0  0
    5.3787    2.0401   16.7118 H   0  0  0  0  0  0  0  0  0  0  0  0
    3.7304    2.0826   18.5688 H   0  0  0  0  0  0  0  0  0  0  0  0
    4.1855    0.7125   20.6410 H   0  0  0  0  0  0  0  0  0  0  0  0
    6.7107   -1.8225   20.8727 H   0  0  0  0  0  0  0  0  0  0  0  0
    5.6674   -0.7897   21.8332 H   0  0  0  0  0  0  0  0  0  0  0  0
    6.1276    1.9977   22.2386 H   0  0  0  0  0  0  0  0  0  0  0  0
    7.4249    2.7535   23.1795 H   0  0  0  0  0  0  0  0  0  0  0  0
    7.3175    0.8353   25.1281 N   0  0  0  0  0  0  0  0  0  0  0  0
    4.2375    0.7511   24.0108 H   0  0  0  0  0  0  0  0  0  0  0  0
    4.7611   -0.7766   26.2749 H   0  0  0  0  0  0  0  0  0  0  0  0
    6.8816   -1.3669   27.4961 H   0  0  0  0  0  0  0  0  0  0  0  0
    9.3880   -0.4899   25.9637 H   0  0  0  0  0  0  0  0  0  0  0  0
    8.5205   -2.0104   25.7182 H   0  0  0  0  0  0  0  0  0  0  0  0
    9.3638   -1.7179   27.2505 H   0  0  0  0  0  0  0  0  0  0  0  0
  1  2  1  0
  2  3  1  0
  3  4  1  0
  3  5  1  0
  3  6  1  0
  2  7  1  0
  7  8  1  0
  8  9  2  0
  9 10  1  0
 10 11  1  0
 11 12  1  0
 12 13  2  0
 13 14  1  0
 14 15  1  0
 15 16  2  0
 16 17  1  0
 17 18  1  0
 17 19  2  0
 19 20  1  0
 20 21  2  0
 21 22  1  0
 20 23  1  0
 19 24  1  0
 16 25  1  0
 14 26  2  0
 26 27  1  0
 27 28  1  0
 28 29  1  0
 29 30  2  0
 30 31  1  0
 31 32  2  0
 32 33  1  0
 33 34  2  0
 34 35  1  0
 32 36  1  0
 31 37  1  0
 30 38  1  0
 28 39  1  0
 28 40  1  0
 11 41  1  0
 11 42  1  0
 10 43  2  0
  9 44  1  0
  8 45  1  0
  2 46  1  0
  1 47  1  0
  1 48  1  0
  1 49  1  0
 43  7  1  0
 27 12  1  0
 34 29  1  0
 21 15  1  0
M  END
>  <cnnaffinity>  (1) 
-6.69519

>  <filename>  (1) 
CC(C)n1ccc(Cc2nc(-c3cccc(F)c3)nn2Cc2cccnc2)n1

$$$$
