
     RDKit          3D

 46 48  0  0  0  0  0  0  0  0999 V2000
    8.6761   -2.3253   26.7215 C   0  0  0  0  0  0  0  0  0  0  0  0
    8.3581   -2.1584   26.7246 C   0  0  0  0  0  0  0  0  0  0  0  0
    7.3752   -2.7516   25.7227 C   0  0  0  0  0  0  0  0  0  0  0  0
    6.4815   -2.0626   25.6907 H   0  0  0  0  0  0  0  0  0  0  0  0
    6.8463   -3.7231   25.9201 H   0  0  0  0  0  0  0  0  0  0  0  0
    7.5819   -2.7448   24.6119 H   0  0  0  0  0  0  0  0  0  0  0  0
    8.5496   -0.6863   26.2996 C   0  0  0  0  0  0  0  0  0  0  0  0
    9.1314   -0.3698   24.9459 C   0  0  0  0  0  0  0  0  0  0  0  0
   10.4111   -0.5480   24.6635 N   0  0  0  0  0  0  0  0  0  0  0  0
   10.4472   -0.3996   23.3125 N   0  0  0  0  0  0  0  0  0  0  0  0
   11.6520   -0.6701   22.6212 C   0  0  0  0  0  0  0  0  0  0  0  0
   11.7223   -1.5199   21.5254 C   0  0  0  0  0  0  0  0  0  0  0  0
   12.9860   -1.7172   20.9538 C   0  0  0  0  0  0  0  0  0  0  0  0
   14.0979   -1.1347   21.4215 N   0  0  0  0  0  0  0  0  0  0  0  0
   14.0219   -0.3323   22.4895 N   0  0  0  0  0  0  0  0  0  0  0  0
   12.8544   -0.1100   23.0944 C   0  0  0  0  0  0  0  0  0  0  0  0
   12.8829    0.5203   23.9771 H   0  0  0  0  0  0  0  0  0  0  0  0
   13.1198   -2.3581   20.0907 H   0  0  0  0  0  0  0  0  0  0  0  0
   10.8542   -2.0479   21.1346 H   0  0  0  0  0  0  0  0  0  0  0  0
    9.1986   -0.0910   22.8584 C   0  0  0  0  0  0  0  0  0  0  0  0
    8.7937    0.2791   21.4692 C   0  0  0  0  0  0  0  0  0  0  0  0
    7.4512   -0.3813   21.0672 C   0  0  0  0  0  0  0  0  0  0  0  0
    7.6373   -1.9029   20.9519 C   0  0  0  0  0  0  0  0  0  0  0  0
    8.5583   -2.1347   20.4034 H   0  0  0  0  0  0  0  0  0  0  0  0
    7.7281   -2.3642   21.9399 H   0  0  0  0  0  0  0  0  0  0  0  0
    6.7999   -2.3813   20.4355 H   0  0  0  0  0  0  0  0  0  0  0  0
    6.8707    0.2359   19.8106 C   0  0  0  0  0  0  0  0  0  0  0  0
    5.6727    0.9677   19.8545 C   0  0  0  0  0  0  0  0  0  0  0  0
    5.1438    1.4971   18.6771 C   0  0  0  0  0  0  0  0  0  0  0  0
    5.8372    1.2866   17.4831 C   0  0  0  0  0  0  0  0  0  0  0  0
    6.9846    0.6014   17.4155 N   0  0  0  0  0  0  0  0  0  0  0  0
    7.4802    0.0957   18.5547 C   0  0  0  0  0  0  0  0  0  0  0  0
    8.4102   -0.4667   18.4482 H   0  0  0  0  0  0  0  0  0  0  0  0
    5.4540    1.6753   16.5412 H   0  0  0  0  0  0  0  0  0  0  0  0
    4.2211    2.0673   18.6744 H   0  0  0  0  0  0  0  0  0  0  0  0
    5.1617    1.1082   20.8088 H   0  0  0  0  0  0  0  0  0  0  0  0
    6.7244   -0.1892   21.8706 H   0  0  0  0  0  0  0  0  0  0  0  0
    8.7193    1.3699   21.4162 H   0  0  0  0  0  0  0  0  0  0  0  0
    9.5753    0.0006   20.7558 H   0  0  0  0  0  0  0  0  0  0  0  0
    8.3558   -0.0735   23.8790 N   0  0  0  0  0  0  0  0  0  0  0  0
    7.5187   -0.2374   26.2717 H   0  0  0  0  0  0  0  0  0  0  0  0
    9.0247    0.0273   27.0184 H   0  0  0  0  0  0  0  0  0  0  0  0
    9.5924   -2.6600   25.9535 H   0  0  0  0  0  0  0  0  0  0  0  0
    8.0246   -2.2146   27.8207 H   0  0  0  0  0  0  0  0  0  0  0  0
    9.0320   -3.7408   27.2901 H   0  0  0  0  0  0  0  0  0  0  0  0
    9.9548   -2.0883   27.6121 H   0  0  0  0  0  0  0  0  0  0  0  0
  1  2  1  0
  2  3  1  0
  3  4  1  0
  3  5  1  0
  3  6  1  0
  2  7  1  0
  7  8  1  0
  8  9  2  0
  9 10  1  0
 10 11  1  0
 11 12  2  0
 12 13  1  0
 13 14  2  0
 14 15  1  0
 15 16  2  0
 16 17  1  0
 13 18  1  0
 12 19  1  0
 10 20  1  0
 20 21  1  0
 21 22  1  0
 22 23  1  0
 23 24  1  0
 23 25  1  0
 23 26  1  0
 22 27  1  0
 27 28  2  0
 28 29  1  0
 29 30  2  0
 30 31  1  0
 31 32  2  0
 32 33  1  0
 30 34  1  0
 29 35  1  0
 28 36  1  0
 22 37  1  0
 21 38  1  0
 21 39  1  0
 20 40  2  0
  7 41  1  0
  7 42  1  0
  2 43  1  0
  1 44  1  0
  1 45  1  0
  1 46  1  0
 40  8  1  0
 16 11  1  0
 32 27  1  0
M  END
>  <cnnaffinity>  (1) 
-6.62222

>  <filename>  (1) 
CC(C)Cc1nc(CC(C)c2cccnc2)n(-c2ccnnc2)n1

$$$$
