
     RDKit          3D

 26 26  0  0  0  0  0  0  0  0999 V2000
    5.4653    0.1747   23.9903 H   0  0  0  0  0  0  0  0  0  0  0  0
    5.7603    1.1549   23.8654 N   0  0  0  0  0  0  0  0  0  0  0  0
    6.8075    1.2708   23.2759 N   0  0  0  0  0  4  0  0  0  0  0  0
    7.8264    1.4784   22.6738 N   0  0  0  0  0  0  0  0  0  0  0  0
    8.6162    0.2917   22.1565 C   0  0  0  0  0  0  0  0  0  0  0  0
    9.6227    0.8604   21.1664 C   0  0  0  0  0  0  0  0  0  0  0  0
   10.2523    0.0633   20.7589 H   0  0  0  0  0  0  0  0  0  0  0  0
   10.2680    1.5842   21.6757 H   0  0  0  0  0  0  0  0  0  0  0  0
    9.1092    1.3611   20.3444 H   0  0  0  0  0  0  0  0  0  0  0  0
    9.3191   -0.4342   23.3142 C   0  0  0  0  0  0  0  0  0  0  0  0
    8.6083   -0.9043   23.9988 H   0  0  0  0  0  0  0  0  0  0  0  0
    9.8987    0.3084   23.8714 H   0  0  0  0  0  0  0  0  0  0  0  0
    9.9989   -1.2018   22.9289 H   0  0  0  0  0  0  0  0  0  0  0  0
    7.4140   -0.9020   21.2137 S   0  0  0  0  0  0  0  0  0  0  0  0
    6.3926   -1.3106   22.1744 O   0  0  0  0  0  0  0  0  0  0  0  0
    8.2556   -1.8744   20.5294 O   0  0  0  0  0  0  0  0  0  0  0  0
    6.5762    0.0306   19.9761 C   0  0  0  0  0  0  0  0  0  0  0  0
    7.1758   -0.0023   18.7236 C   0  0  0  0  0  0  0  0  0  0  0  0
    8.0984   -0.5523   18.5585 H   0  0  0  0  0  0  0  0  0  0  0  0
    6.6665    0.6375   17.6760 N   0  0  0  0  0  0  0  0  0  0  0  0
    5.5163    1.3012   17.8492 C   0  0  0  0  0  0  0  0  0  0  0  0
    5.1146    1.8007   16.9690 H   0  0  0  0  0  0  0  0  0  0  0  0
    4.8306    1.3403   19.0651 C   0  0  0  0  0  0  0  0  0  0  0  0
    3.8963    1.8799   19.1249 H   0  0  0  0  0  0  0  0  0  0  0  0
    5.3498    0.6689   20.1684 C   0  0  0  0  0  0  0  0  0  0  0  0
    4.7959    0.6378   21.1098 H   0  0  0  0  0  0  0  0  0  0  0  0
  1  2  1  0
  2  3  2  0
  3  4  2  0
  4  5  1  0
  5  6  1  0
  6  7  1  0
  6  8  1  0
  6  9  1  0
  5 10  1  0
 10 11  1  0
 10 12  1  0
 10 13  1  0
  5 14  1  0
 14 15  2  0
 14 16  2  0
 14 17  1  0
 17 18  2  0
 18 19  1  0
 18 20  1  0
 20 21  2  0
 21 22  1  0
 21 23  1  0
 23 24  1  0
 23 25  2  0
 25 26  1  0
 25 17  1  0
M  CHG  1   3   1
M  END
>  <cnnaffinity>  (1) 
-4.14771

>  <filename>  (1) 
CC(C)(N=[N+]=N)S(=O)(=O)c1cccnc1

$$$$
