
     RDKit          3D

 49 52  0  0  0  0  0  0  0  0999 V2000
   10.1567    1.8424   22.1023 C   0  0  0  0  0  0  0  0  0  0  0  0
    8.6984    2.2975   21.9661 C   0  0  0  0  0  0  0  0  0  0  0  0
    7.7051    1.3310   22.6660 C   0  0  0  0  0  0  0  0  0  0  0  0
    7.7740   -0.0907   22.2029 C   0  0  0  0  0  0  0  0  0  0  0  0
    8.3401   -1.0866   22.8689 N   0  0  0  0  0  0  0  0  0  0  0  0
    8.2328   -2.1397   22.0174 C   0  0  0  0  0  0  0  0  0  0  0  0
    8.7596   -3.5132   22.2682 C   0  0  0  0  0  0  0  0  0  0  0  0
    7.8404   -4.4825   23.0430 C   0  0  0  0  0  0  0  0  0  0  0  0
    6.5528   -4.7871   22.2508 C   0  0  0  0  0  0  0  0  0  0  0  0
    5.4944   -3.7775   22.7371 C   0  0  0  0  0  0  0  0  0  0  0  0
    5.9850   -3.2443   24.1014 C   0  0  0  0  0  0  0  0  0  0  0  0
    7.3327   -3.9391   24.3924 C   0  0  0  0  0  0  0  0  0  0  0  0
    7.1852   -4.7791   25.0873 H   0  0  0  0  0  0  0  0  0  0  0  0
    8.0477   -3.2494   24.8590 H   0  0  0  0  0  0  0  0  0  0  0  0
    5.2648   -3.4430   24.9022 H   0  0  0  0  0  0  0  0  0  0  0  0
    6.1193   -2.1596   24.0536 H   0  0  0  0  0  0  0  0  0  0  0  0
    5.4039   -2.9545   22.0222 H   0  0  0  0  0  0  0  0  0  0  0  0
    4.5118   -4.2562   22.8107 H   0  0  0  0  0  0  0  0  0  0  0  0
    6.7119   -4.7105   21.1673 H   0  0  0  0  0  0  0  0  0  0  0  0
    6.2295   -5.8178   22.4483 H   0  0  0  0  0  0  0  0  0  0  0  0
    8.4197   -5.4026   23.2033 H   0  0  0  0  0  0  0  0  0  0  0  0
    8.8856   -3.9229   21.2636 H   0  0  0  0  0  0  0  0  0  0  0  0
    9.7350   -3.4215   22.7556 H   0  0  0  0  0  0  0  0  0  0  0  0
    7.6676   -1.8563   20.8623 N   0  0  0  0  0  0  0  0  0  0  0  0
    7.3417   -0.5452   20.9906 N   0  0  0  0  0  0  0  0  0  0  0  0
    6.6506    0.0956   19.9322 C   0  0  0  0  0  0  0  0  0  0  0  0
    5.4294    0.7380   20.1517 C   0  0  0  0  0  0  0  0  0  0  0  0
    4.8099    1.3474   19.0568 C   0  0  0  0  0  0  0  0  0  0  0  0
    5.4277    1.2938   17.8029 C   0  0  0  0  0  0  0  0  0  0  0  0
    6.5781    0.6320   17.5802 N   0  0  0  0  0  0  0  0  0  0  0  0
    7.1615    0.0331   18.6232 C   0  0  0  0  0  0  0  0  0  0  0  0
    8.0692   -0.5313   18.4240 H   0  0  0  0  0  0  0  0  0  0  0  0
    4.9862    1.7973   16.9442 H   0  0  0  0  0  0  0  0  0  0  0  0
    3.8639    1.8629   19.1717 H   0  0  0  0  0  0  0  0  0  0  0  0
    4.9602    0.7052   21.1364 H   0  0  0  0  0  0  0  0  0  0  0  0
    7.8763    1.3509   23.7480 H   0  0  0  0  0  0  0  0  0  0  0  0
    6.6954    1.7104   22.4985 H   0  0  0  0  0  0  0  0  0  0  0  0
    8.4653    3.6833   22.4390 N   0  0  0  0  0  0  0  0  0  0  0  0
    8.6149    4.2166   23.6816 C   0  0  0  0  0  0  0  0  0  0  0  0
    8.2773    5.5490   23.5997 C   0  0  0  0  0  0  0  0  0  0  0  0
    7.9265    5.7325   22.2455 C   0  0  0  0  0  0  0  0  0  0  0  0
    8.0301    4.6059   21.5681 N   0  0  0  0  0  0  0  0  0  0  0  0
    7.6110    6.6362   21.7316 H   0  0  0  0  0  0  0  0  0  0  0  0
    8.2594    6.2901   24.3851 H   0  0  0  0  0  0  0  0  0  0  0  0
    8.9354    3.6294   24.5333 H   0  0  0  0  0  0  0  0  0  0  0  0
    8.4576    2.3289   20.8967 H   0  0  0  0  0  0  0  0  0  0  0  0
   10.4931    1.8451   23.1462 H   0  0  0  0  0  0  0  0  0  0  0  0
   10.8263    2.4794   21.5163 H   0  0  0  0  0  0  0  0  0  0  0  0
   10.2407    0.8190   21.7193 H   0  0  0  0  0  0  0  0  0  0  0  0
  1  2  1  0
  2  3  1  0
  3  4  1  0
  4  5  2  0
  5  6  1  0
  6  7  1  0
  7  8  1  0
  8  9  1  0
  9 10  1  0
 10 11  1  0
 11 12  1  0
 12 13  1  0
 12 14  1  0
 11 15  1  0
 11 16  1  0
 10 17  1  0
 10 18  1  0
  9 19  1  0
  9 20  1  0
  8 21  1  0
  7 22  1  0
  7 23  1  0
  6 24  2  0
 24 25  1  0
 25 26  1  0
 26 27  2  0
 27 28  1  0
 28 29  2  0
 29 30  1  0
 30 31  2  0
 31 32  1  0
 29 33  1  0
 28 34  1  0
 27 35  1  0
  3 36  1  0
  3 37  1  0
  2 38  1  0
 38 39  1  0
 39 40  2  0
 40 41  1  0
 41 42  2  0
 41 43  1  0
 40 44  1  0
 39 45  1  0
  2 46  1  0
  1 47  1  0
  1 48  1  0
  1 49  1  0
 25  4  1  0
 31 26  1  0
 42 38  1  0
 12  8  1  0
M  END
>  <cnnaffinity>  (1) 
-5.97409

>  <filename>  (1) 
CC(Cc1nc(CC2CCCC2)nn1-c1cccnc1)n1cccn1

$$$$
