
     RDKit          3D

 49 52  0  0  0  0  0  0  0  0999 V2000
   12.4929    3.7616   21.1483 C   0  0  0  0  0  0  0  0  0  0  0  0
   12.4273    2.8781   22.4219 C   0  0  0  0  0  0  0  0  0  0  0  0
   11.4535    3.4715   23.4561 C   0  0  0  0  0  0  0  0  0  0  0  0
   11.7836    4.4901   23.7007 H   0  0  0  0  0  0  0  0  0  0  0  0
   10.4316    3.5196   23.0662 H   0  0  0  0  0  0  0  0  0  0  0  0
   11.4451    2.8681   24.3715 H   0  0  0  0  0  0  0  0  0  0  0  0
   12.2323    1.3910   22.1778 C   0  0  0  0  0  0  0  0  0  0  0  0
   13.0996    0.4920   22.5887 N   0  0  0  0  0  0  0  0  0  0  0  0
   12.6037   -0.7292   22.2097 C   0  0  0  0  0  0  0  0  0  0  0  0
   11.4181   -0.5747   21.5560 C   0  0  0  0  0  0  0  0  0  0  0  0
   11.1676    0.7869   21.5307 N   0  0  0  0  0  0  0  0  0  0  0  0
    9.8740    1.3527   21.1467 C   0  0  0  0  0  0  0  0  0  0  0  0
    8.7937    1.1575   22.1807 C   0  0  0  0  0  0  0  0  0  0  0  0
    8.7131    1.8413   23.3017 N   0  0  0  0  0  0  0  0  0  0  0  0
    7.6040    1.3558   23.9188 C   0  0  0  0  0  0  0  0  0  0  0  0
    7.1524    1.8823   25.2264 C   0  0  0  0  0  0  0  0  0  0  0  0
    7.8955    2.9009   25.8555 C   0  0  0  0  0  0  0  0  0  0  0  0
    7.4852    3.4279   27.0791 C   0  0  0  0  0  0  0  0  0  0  0  0
    6.3284    2.9402   27.6962 C   0  0  0  0  0  0  0  0  0  0  0  0
    5.5845    1.9259   27.0826 C   0  0  0  0  0  0  0  0  0  0  0  0
    5.9879    1.3953   25.8559 C   0  0  0  0  0  0  0  0  0  0  0  0
    5.4070    0.6070   25.3787 H   0  0  0  0  0  0  0  0  0  0  0  0
    4.6863    1.5454   27.5609 H   0  0  0  0  0  0  0  0  0  0  0  0
    6.0057    3.3507   28.6485 H   0  0  0  0  0  0  0  0  0  0  0  0
    8.0653    4.2186   27.5455 H   0  0  0  0  0  0  0  0  0  0  0  0
    8.7949    3.2781   25.3688 H   0  0  0  0  0  0  0  0  0  0  0  0
    6.9975    0.4078   23.2235 N   0  0  0  0  0  0  0  0  0  0  0  0
    7.7661    0.2825   22.1184 N   0  0  0  0  0  0  0  0  0  0  0  0
    7.3780   -0.6411   21.0592 C   0  0  0  0  0  0  0  0  0  0  0  0
    6.7266    0.0345   19.8677 C   0  0  0  0  0  0  0  0  0  0  0  0
    5.5379    0.7533   20.0422 C   0  0  0  0  0  0  0  0  0  0  0  0
    4.9661    1.3764   18.9328 C   0  0  0  0  0  0  0  0  0  0  0  0
    5.5990    1.2586   17.6914 C   0  0  0  0  0  0  0  0  0  0  0  0
    6.7282    0.5595   17.5015 N   0  0  0  0  0  0  0  0  0  0  0  0
    7.2654   -0.0339   18.5753 C   0  0  0  0  0  0  0  0  0  0  0  0
    8.1754   -0.6100   18.3948 H   0  0  0  0  0  0  0  0  0  0  0  0
    5.1765    1.7368   16.8099 H   0  0  0  0  0  0  0  0  0  0  0  0
    4.0565    1.9599   19.0186 H   0  0  0  0  0  0  0  0  0  0  0  0
    5.0824    0.8232   21.0334 H   0  0  0  0  0  0  0  0  0  0  0  0
    8.2562   -1.2217   20.7531 H   0  0  0  0  0  0  0  0  0  0  0  0
    6.6783   -1.3384   21.5281 H   0  0  0  0  0  0  0  0  0  0  0  0
    9.5630    0.9221   20.1897 H   0  0  0  0  0  0  0  0  0  0  0  0
   10.0080    2.4289   21.0031 H   0  0  0  0  0  0  0  0  0  0  0  0
   10.7506   -1.3069   21.1165 H   0  0  0  0  0  0  0  0  0  0  0  0
   13.1215   -1.6510   22.4503 H   0  0  0  0  0  0  0  0  0  0  0  0
   13.4226    2.8870   22.8799 H   0  0  0  0  0  0  0  0  0  0  0  0
   13.5254    4.0240   20.9099 H   0  0  0  0  0  0  0  0  0  0  0  0
   12.0619    3.2910   20.2597 H   0  0  0  0  0  0  0  0  0  0  0  0
   11.9913    4.7226   21.2972 H   0  0  0  0  0  0  0  0  0  0  0  0
  1  2  1  0
  2  3  1  0
  3  4  1  0
  3  5  1  0
  3  6  1  0
  2  7  1  0
  7  8  2  0
  8  9  1  0
  9 10  2  0
 10 11  1  0
 11 12  1  0
 12 13  1  0
 13 14  2  0
 14 15  1  0
 15 16  1  0
 16 17  2  0
 17 18  1  0
 18 19  2  0
 19 20  1  0
 20 21  2  0
 21 22  1  0
 20 23  1  0
 19 24  1  0
 18 25  1  0
 17 26  1  0
 15 27  2  0
 27 28  1  0
 28 29  1  0
 29 30  1  0
 30 31  2  0
 31 32  1  0
 32 33  2  0
 33 34  1  0
 34 35  2  0
 35 36  1  0
 33 37  1  0
 32 38  1  0
 31 39  1  0
 29 40  1  0
 29 41  1  0
 12 42  1  0
 12 43  1  0
 10 44  1  0
  9 45  1  0
  2 46  1  0
  1 47  1  0
  1 48  1  0
  1 49  1  0
 11  7  1  0
 28 13  1  0
 35 30  1  0
 21 16  1  0
M  END
>  <cnnaffinity>  (1) 
-6.68258

>  <filename>  (1) 
CC(C)c1nccn1Cc1nc(-c2ccccc2)nn1Cc1cccnc1

$$$$
