
     RDKit          3D

 52 55  0  0  0  0  0  0  0  0999 V2000
   11.1714    4.6695   23.2143 C   0  0  0  0  0  0  0  0  0  0  0  0
   11.3188    3.1793   23.5897 C   0  0  0  0  0  0  0  0  0  0  0  0
   12.1826    2.4025   22.5828 C   0  0  0  0  0  0  0  0  0  0  0  0
   12.2768    1.3455   22.8600 H   0  0  0  0  0  0  0  0  0  0  0  0
   13.1920    2.8270   22.5752 H   0  0  0  0  0  0  0  0  0  0  0  0
   11.7991    2.4619   21.5584 H   0  0  0  0  0  0  0  0  0  0  0  0
    9.9707    2.5643   23.8745 C   0  0  0  0  0  0  0  0  0  0  0  0
    9.5057    2.4181   25.0966 N   0  0  0  0  0  0  0  0  0  0  0  0
    8.2328    1.9196   24.9662 C   0  0  0  0  0  0  0  0  0  0  0  0
    7.9288    1.7765   23.6494 C   0  0  0  0  0  0  0  0  0  0  0  0
    9.0367    2.1820   22.9372 N   0  0  0  0  0  0  0  0  0  0  0  0
    9.0963    2.0474   21.4827 C   0  0  0  0  0  0  0  0  0  0  0  0
    9.5336    0.6467   21.0061 C   0  0  0  0  0  0  0  0  0  0  0  0
    8.6266   -0.4632   21.4338 C   0  0  0  0  0  0  0  0  0  0  0  0
    8.8548   -1.3193   22.4086 N   0  0  0  0  0  0  0  0  0  0  0  0
    7.6566   -1.9519   22.5634 C   0  0  0  0  0  0  0  0  0  0  0  0
    7.4039   -2.9413   23.6750 C   0  0  0  0  0  0  0  0  0  0  0  0
    6.4291   -4.0838   23.3205 C   0  0  0  0  0  0  0  0  0  0  0  0
    6.7347   -5.2128   24.3231 C   0  0  0  0  0  0  0  0  0  0  0  0
    8.1576   -4.9469   24.8723 C   0  0  0  0  0  0  0  0  0  0  0  0
    8.6662   -3.6737   24.1733 C   0  0  0  0  0  0  0  0  0  0  0  0
    9.2967   -3.9308   23.3134 H   0  0  0  0  0  0  0  0  0  0  0  0
    9.2635   -3.0426   24.8404 H   0  0  0  0  0  0  0  0  0  0  0  0
    8.1207   -4.8045   25.9590 H   0  0  0  0  0  0  0  0  0  0  0  0
    8.8323   -5.7910   24.6934 H   0  0  0  0  0  0  0  0  0  0  0  0
    6.6585   -6.1884   23.8338 H   0  0  0  0  0  0  0  0  0  0  0  0
    6.0114   -5.2185   25.1468 H   0  0  0  0  0  0  0  0  0  0  0  0
    6.6286   -4.4225   22.2961 H   0  0  0  0  0  0  0  0  0  0  0  0
    5.3846   -3.7563   23.3644 H   0  0  0  0  0  0  0  0  0  0  0  0
    6.9811   -2.3605   24.5111 H   0  0  0  0  0  0  0  0  0  0  0  0
    6.7195   -1.5590   21.7153 N   0  0  0  0  0  0  0  0  0  0  0  0
    7.3614   -0.6371   20.9522 N   0  0  0  0  0  0  0  0  0  0  0  0
    6.6691    0.0029   19.8861 C   0  0  0  0  0  0  0  0  0  0  0  0
    5.4414    0.6249   20.1338 C   0  0  0  0  0  0  0  0  0  0  0  0
    4.8215    1.3052   19.0833 C   0  0  0  0  0  0  0  0  0  0  0  0
    5.4233    1.3088   17.8199 C   0  0  0  0  0  0  0  0  0  0  0  0
    6.5696    0.6628   17.5587 N   0  0  0  0  0  0  0  0  0  0  0  0
    7.1703    0.0243   18.5702 C   0  0  0  0  0  0  0  0  0  0  0  0
    8.0901   -0.5025   18.3217 H   0  0  0  0  0  0  0  0  0  0  0  0
    4.9630    1.8379   16.9862 H   0  0  0  0  0  0  0  0  0  0  0  0
    3.8878    1.8334   19.2358 H   0  0  0  0  0  0  0  0  0  0  0  0
    4.9927    0.5655   21.1268 H   0  0  0  0  0  0  0  0  0  0  0  0
    9.5830    0.6532   19.9157 H   0  0  0  0  0  0  0  0  0  0  0  0
   10.5316    0.4169   21.3868 H   0  0  0  0  0  0  0  0  0  0  0  0
    9.7588    2.8099   21.0743 H   0  0  0  0  0  0  0  0  0  0  0  0
    8.0960    2.2803   21.0992 H   0  0  0  0  0  0  0  0  0  0  0  0
    7.0623    1.3893   23.1371 H   0  0  0  0  0  0  0  0  0  0  0  0
    7.6263    1.6889   25.8350 H   0  0  0  0  0  0  0  0  0  0  0  0
   11.8308    3.1354   24.5600 H   0  0  0  0  0  0  0  0  0  0  0  0
   10.4847    4.8187   22.3743 H   0  0  0  0  0  0  0  0  0  0  0  0
   12.1449    5.0919   22.9397 H   0  0  0  0  0  0  0  0  0  0  0  0
   10.7598    5.2304   24.0605 H   0  0  0  0  0  0  0  0  0  0  0  0
  1  2  1  0
  2  3  1  0
  3  4  1  0
  3  5  1  0
  3  6  1  0
  2  7  1  0
  7  8  2  0
  8  9  1  0
  9 10  2  0
 10 11  1  0
 11 12  1  0
 12 13  1  0
 13 14  1  0
 14 15  2  0
 15 16  1  0
 16 17  1  0
 17 18  1  0
 18 19  1  0
 19 20  1  0
 20 21  1  0
 21 22  1  0
 21 23  1  0
 20 24  1  0
 20 25  1  0
 19 26  1  0
 19 27  1  0
 18 28  1  0
 18 29  1  0
 17 30  1  0
 16 31  2  0
 31 32  1  0
 32 33  1  0
 33 34  2  0
 34 35  1  0
 35 36  2  0
 36 37  1  0
 37 38  2  0
 38 39  1  0
 36 40  1  0
 35 41  1  0
 34 42  1  0
 13 43  1  0
 13 44  1  0
 12 45  1  0
 12 46  1  0
 10 47  1  0
  9 48  1  0
  2 49  1  0
  1 50  1  0
  1 51  1  0
  1 52  1  0
 11  7  1  0
 32 14  1  0
 38 33  1  0
 21 17  1  0
M  END
>  <cnnaffinity>  (1) 
-6.63284

>  <filename>  (1) 
CC(C)c1nccn1CCc1nc(C2CCCC2)nn1-c1cccnc1

$$$$
