
     RDKit          3D

 38 40  0  0  0  0  0  0  0  0999 V2000
    6.4746   -2.4733   24.6889 C   0  0  0  0  0  0  0  0  0  0  0  0
    7.4104   -3.0416   23.6010 C   0  0  0  0  0  0  0  0  0  0  0  0
    6.8604   -4.3538   23.0133 C   0  0  0  0  0  0  0  0  0  0  0  0
    5.8916   -4.1761   22.5308 H   0  0  0  0  0  0  0  0  0  0  0  0
    7.5407   -4.7676   22.2607 H   0  0  0  0  0  0  0  0  0  0  0  0
    6.7244   -5.1016   23.8014 H   0  0  0  0  0  0  0  0  0  0  0  0
    7.6573   -2.0280   22.5172 C   0  0  0  0  0  0  0  0  0  0  0  0
    6.6954   -1.6053   21.7135 N   0  0  0  0  0  0  0  0  0  0  0  0
    7.3285   -0.6973   20.9287 N   0  0  0  0  0  0  0  0  0  0  0  0
    6.6415   -0.0055   19.8974 C   0  0  0  0  0  0  0  0  0  0  0  0
    5.4321    0.6408   20.1657 C   0  0  0  0  0  0  0  0  0  0  0  0
    4.8116    1.3123   19.1098 C   0  0  0  0  0  0  0  0  0  0  0  0
    5.3979    1.2961   17.8382 C   0  0  0  0  0  0  0  0  0  0  0  0
    6.5551    0.6694   17.5760 N   0  0  0  0  0  0  0  0  0  0  0  0
    7.1613    0.0463   18.5906 C   0  0  0  0  0  0  0  0  0  0  0  0
    8.1115   -0.4315   18.3624 H   0  0  0  0  0  0  0  0  0  0  0  0
    4.9215    1.7867   16.9937 H   0  0  0  0  0  0  0  0  0  0  0  0
    3.8817    1.8410   19.2597 H   0  0  0  0  0  0  0  0  0  0  0  0
    5.0130    0.6063   21.1754 H   0  0  0  0  0  0  0  0  0  0  0  0
    8.6131   -0.5813   21.3540 C   0  0  0  0  0  0  0  0  0  0  0  0
    9.6323    0.3417   20.7896 C   0  0  0  0  0  0  0  0  0  0  0  0
   10.3318    1.1533   21.8569 C   0  0  0  0  0  0  0  0  0  0  0  0
   11.5824    0.7853   22.3626 C   0  0  0  0  0  0  0  0  0  0  0  0
   12.2052    1.3835   23.3789 N   0  0  0  0  0  0  0  0  0  0  0  0
   11.5700    2.4070   23.9496 C   0  0  0  0  0  0  0  0  0  0  0  0
   10.3138    2.8650   23.5705 C   0  0  0  0  0  0  0  0  0  0  0  0
    9.6934    2.2148   22.5095 C   0  0  0  0  0  0  0  0  0  0  0  0
    8.1029    2.7188   22.0358 Cl  0  0  0  0  0  0  0  0  0  0  0  0
    9.8379    3.6955   24.0708 H   0  0  0  0  0  0  0  0  0  0  0  0
   12.0951    2.8916   24.7618 H   0  0  0  0  0  0  0  0  0  0  0  0
   12.0958   -0.0653   21.9176 H   0  0  0  0  0  0  0  0  0  0  0  0
   10.3270   -0.3272   20.2780 H   0  0  0  0  0  0  0  0  0  0  0  0
    9.1671    1.0196   20.0722 H   0  0  0  0  0  0  0  0  0  0  0  0
    8.8638   -1.4497   22.3160 N   0  0  0  0  0  0  0  0  0  0  0  0
    8.3919   -3.2281   24.0477 H   0  0  0  0  0  0  0  0  0  0  0  0
    6.3255   -3.2015   25.4928 H   0  0  0  0  0  0  0  0  0  0  0  0
    5.4943   -2.2365   24.2627 H   0  0  0  0  0  0  0  0  0  0  0  0
    6.8806   -1.5553   25.1290 H   0  0  0  0  0  0  0  0  0  0  0  0
  1  2  1  0
  2  3  1  0
  3  4  1  0
  3  5  1  0
  3  6  1  0
  2  7  1  0
  7  8  2  0
  8  9  1  0
  9 10  1  0
 10 11  2  0
 11 12  1  0
 12 13  2  0
 13 14  1  0
 14 15  2  0
 15 16  1  0
 13 17  1  0
 12 18  1  0
 11 19  1  0
  9 20  1  0
 20 21  1  0
 21 22  1  0
 22 23  2  0
 23 24  1  0
 24 25  2  0
 25 26  1  0
 26 27  2  0
 27 28  1  0
 26 29  1  0
 25 30  1  0
 23 31  1  0
 21 32  1  0
 21 33  1  0
 20 34  2  0
  2 35  1  0
  1 36  1  0
  1 37  1  0
  1 38  1  0
 34  7  1  0
 15 10  1  0
 27 22  1  0
M  END
>  <cnnaffinity>  (1) 
-5.96328

>  <filename>  (1) 
CC(C)c1nc(Cc2cnccc2Cl)n(-c2cccnc2)n1

$$$$
