
     RDKit          3D

 43 45  0  0  0  0  0  0  0  0999 V2000
    5.5742   -0.7533   25.0795 C   0  0  0  0  0  0  0  0  0  0  0  0
    6.3612    0.5402   24.9143 C   0  0  0  0  0  0  0  0  0  0  0  0
    5.8600    1.6064   25.8795 C   0  0  0  0  0  0  0  0  0  0  0  0
    4.8446    1.8863   25.5794 H   0  0  0  0  0  0  0  0  0  0  0  0
    6.4872    2.5013   25.8442 H   0  0  0  0  0  0  0  0  0  0  0  0
    5.8391    1.2406   26.9119 H   0  0  0  0  0  0  0  0  0  0  0  0
    6.1989    1.0821   23.5926 O   0  0  0  0  0  0  0  0  0  0  0  0
    7.3683    1.1837   22.7891 C   0  0  0  0  0  0  0  0  0  0  0  0
    7.7445   -0.1379   22.1829 C   0  0  0  0  0  0  0  0  0  0  0  0
    8.3758   -1.1135   22.8216 N   0  0  0  0  0  0  0  0  0  0  0  0
    8.3189   -2.1426   21.9431 C   0  0  0  0  0  0  0  0  0  0  0  0
    8.7395   -3.5483   22.2253 C   0  0  0  0  0  0  0  0  0  0  0  0
    7.6582   -4.4148   22.8599 C   0  0  0  0  0  0  0  0  0  0  0  0
    7.3092   -4.4044   24.2228 C   0  0  0  0  0  0  0  0  0  0  0  0
    8.2349   -3.4630   25.3651 Cl  0  0  0  0  0  0  0  0  0  0  0  0
    6.2363   -5.1450   24.7326 C   0  0  0  0  0  0  0  0  0  0  0  0
    5.4780   -5.9355   23.8671 C   0  0  0  0  0  0  0  0  0  0  0  0
    5.8047   -6.0070   22.5138 C   0  0  0  0  0  0  0  0  0  0  0  0
    6.8848   -5.2685   22.0517 C   0  0  0  0  0  0  0  0  0  0  0  0
    7.2027   -5.3989   20.7493 F   0  0  0  0  0  0  0  0  0  0  0  0
    5.2526   -6.6154   21.8052 H   0  0  0  0  0  0  0  0  0  0  0  0
    4.6333   -6.5013   24.2452 H   0  0  0  0  0  0  0  0  0  0  0  0
    6.0038   -5.0992   25.7911 H   0  0  0  0  0  0  0  0  0  0  0  0
    8.9357   -3.9468   21.2350 H   0  0  0  0  0  0  0  0  0  0  0  0
    9.6625   -3.5364   22.8119 H   0  0  0  0  0  0  0  0  0  0  0  0
    7.7556   -1.8500   20.7910 N   0  0  0  0  0  0  0  0  0  0  0  0
    7.3603   -0.5678   20.9495 N   0  0  0  0  0  0  0  0  0  0  0  0
    6.6466    0.0713   19.9081 C   0  0  0  0  0  0  0  0  0  0  0  0
    5.4329    0.7157   20.1599 C   0  0  0  0  0  0  0  0  0  0  0  0
    4.7955    1.3304   19.0778 C   0  0  0  0  0  0  0  0  0  0  0  0
    5.4027    1.2865   17.8188 C   0  0  0  0  0  0  0  0  0  0  0  0
    6.5526    0.6294   17.5719 N   0  0  0  0  0  0  0  0  0  0  0  0
    7.1489    0.0178   18.5976 C   0  0  0  0  0  0  0  0  0  0  0  0
    8.0705   -0.5284   18.3955 H   0  0  0  0  0  0  0  0  0  0  0  0
    4.9574    1.8051   16.9737 H   0  0  0  0  0  0  0  0  0  0  0  0
    3.8577    1.8563   19.2107 H   0  0  0  0  0  0  0  0  0  0  0  0
    5.0221    0.7203   21.1716 H   0  0  0  0  0  0  0  0  0  0  0  0
    7.1556    1.9315   22.0184 H   0  0  0  0  0  0  0  0  0  0  0  0
    8.2228    1.5492   23.3807 H   0  0  0  0  0  0  0  0  0  0  0  0
    7.4264    0.3150   25.1057 H   0  0  0  0  0  0  0  0  0  0  0  0
    5.8249   -1.5032   24.3234 H   0  0  0  0  0  0  0  0  0  0  0  0
    5.7982   -1.1742   26.0671 H   0  0  0  0  0  0  0  0  0  0  0  0
    4.4940   -0.5690   25.0280 H   0  0  0  0  0  0  0  0  0  0  0  0
  1  2  1  0
  2  3  1  0
  3  4  1  0
  3  5  1  0
  3  6  1  0
  2  7  1  0
  7  8  1  0
  8  9  1  0
  9 10  2  0
 10 11  1  0
 11 12  1  0
 12 13  1  0
 13 14  2  0
 14 15  1  0
 14 16  1  0
 16 17  2  0
 17 18  1  0
 18 19  2  0
 19 20  1  0
 18 21  1  0
 17 22  1  0
 16 23  1  0
 12 24  1  0
 12 25  1  0
 11 26  2  0
 26 27  1  0
 27 28  1  0
 28 29  2  0
 29 30  1  0
 30 31  2  0
 31 32  1  0
 32 33  2  0
 33 34  1  0
 31 35  1  0
 30 36  1  0
 29 37  1  0
  8 38  1  0
  8 39  1  0
  2 40  1  0
  1 41  1  0
  1 42  1  0
  1 43  1  0
 27  9  1  0
 33 28  1  0
 19 13  1  0
M  END
>  <cnnaffinity>  (1) 
-6.11297

>  <filename>  (1) 
CC(C)OCc1nc(Cc2c(F)cccc2Cl)nn1-c1cccnc1

$$$$
