
     RDKit          3D

 41 43  0  0  0  0  0  0  0  0999 V2000
    7.2347   -3.2721   26.4451 C   0  0  0  0  0  0  0  0  0  0  0  0
    7.2941   -2.3027   25.2626 C   0  0  0  0  0  0  0  0  0  0  0  0
    6.0519   -1.4075   25.2000 C   0  0  0  0  0  0  0  0  0  0  0  0
    5.1432   -2.0098   25.0627 H   0  0  0  0  0  0  0  0  0  0  0  0
    6.1089   -0.6995   24.3630 H   0  0  0  0  0  0  0  0  0  0  0  0
    5.9313   -0.8286   26.1230 H   0  0  0  0  0  0  0  0  0  0  0  0
    7.4826   -3.0667   23.9276 C   0  0  0  0  0  0  0  0  0  0  0  0
    7.6835   -2.1499   22.7601 C   0  0  0  0  0  0  0  0  0  0  0  0
    8.7751   -1.4194   22.6485 N   0  0  0  0  0  0  0  0  0  0  0  0
    8.5630   -0.7109   21.5171 N   0  0  0  0  0  0  0  0  0  0  0  0
    9.4779    0.3876   21.2409 C   0  0  0  0  0  0  0  0  0  0  0  0
    9.1021    1.6571   21.9955 C   0  0  0  0  0  0  0  0  0  0  0  0
    8.0350    2.4676   21.6748 C   0  0  0  0  0  0  0  0  0  0  0  0
    8.3803    4.1614   22.7572 C   0  0  0  0  0  0  0  0  0  0  0  0
    8.3108    3.9533   22.9520 C   0  0  0  0  0  0  0  0  0  0  0  0
    9.3215    3.1907   23.6338 C   0  0  0  0  0  0  0  0  0  0  0  0
    9.8995    2.0510   23.0439 N   0  0  0  0  0  0  0  0  0  0  0  0
    8.5505    2.9500   24.3096 H   0  0  0  0  0  0  0  0  0  0  0  0
    7.3324    4.5639   23.3536 H   0  0  0  0  0  0  0  0  0  0  0  0
    8.6248    4.8095   21.7418 H   0  0  0  0  0  0  0  0  0  0  0  0
    7.3494    2.3393   20.8445 H   0  0  0  0  0  0  0  0  0  0  0  0
   10.4690    0.0528   21.5599 H   0  0  0  0  0  0  0  0  0  0  0  0
    9.5144    0.5435   20.1578 H   0  0  0  0  0  0  0  0  0  0  0  0
    7.3259   -1.0009   21.0399 C   0  0  0  0  0  0  0  0  0  0  0  0
    6.7020   -0.2930   19.9139 C   0  0  0  0  0  0  0  0  0  0  0  0
    5.4828    0.3829   20.0567 C   0  0  0  0  0  0  0  0  0  0  0  0
    4.9739    1.0687   18.9560 C   0  0  0  0  0  0  0  0  0  0  0  0
    5.6864    1.0393   17.7521 C   0  0  0  0  0  0  0  0  0  0  0  0
    6.8359    0.3672   17.5966 N   0  0  0  0  0  0  0  0  0  0  0  0
    7.3227   -0.2827   18.6585 C   0  0  0  0  0  0  0  0  0  0  0  0
    8.2551   -0.8262   18.5015 H   0  0  0  0  0  0  0  0  0  0  0  0
    5.3152    1.5732   16.8789 H   0  0  0  0  0  0  0  0  0  0  0  0
    4.0482    1.6287   19.0194 H   0  0  0  0  0  0  0  0  0  0  0  0
    4.9555    0.3656   21.0144 H   0  0  0  0  0  0  0  0  0  0  0  0
    6.7541   -1.9245   21.7922 N   0  0  0  0  0  0  0  0  0  0  0  0
    8.3613   -3.7185   23.9973 H   0  0  0  0  0  0  0  0  0  0  0  0
    6.6102   -3.6952   23.7182 H   0  0  0  0  0  0  0  0  0  0  0  0
    8.1745   -1.6540   25.4007 H   0  0  0  0  0  0  0  0  0  0  0  0
    7.1337   -2.7280   27.3917 H   0  0  0  0  0  0  0  0  0  0  0  0
    8.1448   -3.8813   26.5089 H   0  0  0  0  0  0  0  0  0  0  0  0
    6.3787   -3.9548   26.3605 H   0  0  0  0  0  0  0  0  0  0  0  0
  1  2  1  0
  2  3  1  0
  3  4  1  0
  3  5  1  0
  3  6  1  0
  2  7  1  0
  7  8  1  0
  8  9  2  0
  9 10  1  0
 10 11  1  0
 11 12  1  0
 12 13  2  0
 13 14  1  0
 14 15  2  0
 15 16  1  0
 16 17  2  0
 16 18  1  0
 15 19  1  0
 14 20  1  0
 13 21  1  0
 11 22  1  0
 11 23  1  0
 10 24  1  0
 24 25  1  0
 25 26  2  0
 26 27  1  0
 27 28  2  0
 28 29  1  0
 29 30  2  0
 30 31  1  0
 28 32  1  0
 27 33  1  0
 26 34  1  0
 24 35  2  0
  7 36  1  0
  7 37  1  0
  2 38  1  0
  1 39  1  0
  1 40  1  0
  1 41  1  0
 35  8  1  0
 17 12  1  0
 30 25  1  0
M  END
>  <cnnaffinity>  (1) 
-5.7378

>  <filename>  (1) 
CC(C)Cc1nc(-c2cccnc2)n(Cc2ccccn2)n1

$$$$
