
     RDKit          3D

 36 37  0  0  0  0  0  0  0  0999 V2000
    3.1557   -4.2268   27.1462 H   0  0  0  0  0  0  0  0  0  0  0  0
    3.2136   -4.5919   26.2487 O   0  0  0  0  0  0  0  0  0  0  0  0
    4.1748   -3.8858   25.5890 C   0  0  0  0  0  0  0  0  0  0  0  0
    4.4661   -4.2421   24.2712 C   0  0  0  0  0  0  0  0  0  0  0  0
    3.9102   -5.0760   23.8563 H   0  0  0  0  0  0  0  0  0  0  0  0
    5.4438   -3.5516   23.5452 C   0  0  0  0  0  0  0  0  0  0  0  0
    5.6632   -3.8465   22.5199 H   0  0  0  0  0  0  0  0  0  0  0  0
    6.1626   -2.4784   24.1039 C   0  0  0  0  0  0  0  0  0  0  0  0
    7.2890   -1.8048   23.2823 C   0  0  0  0  0  0  0  0  0  0  0  0
    6.7281   -1.3492   21.9956 N   0  0  0  0  0  0  0  0  0  0  0  0
    5.7291   -1.2745   21.9382 H   0  0  0  0  0  0  0  0  0  0  0  0
    7.4167   -0.7396   21.0012 C   0  0  0  0  0  0  0  0  0  0  0  0
    8.6383   -0.7715   20.9112 O   0  0  0  0  0  0  0  0  0  0  0  0
    6.5887   -0.0475   19.9750 C   0  0  0  0  0  0  0  0  0  0  0  0
    7.1582    0.0047   18.6985 C   0  0  0  0  0  0  0  0  0  0  0  0
    8.1223   -0.4647   18.5063 H   0  0  0  0  0  0  0  0  0  0  0  0
    6.5861    0.6141   17.6566 N   0  0  0  0  0  0  0  0  0  0  0  0
    5.4268    1.2509   17.8760 C   0  0  0  0  0  0  0  0  0  0  0  0
    4.9950    1.7702   17.0243 H   0  0  0  0  0  0  0  0  0  0  0  0
    4.7879    1.2857   19.1208 C   0  0  0  0  0  0  0  0  0  0  0  0
    3.8677    1.8478   19.2392 H   0  0  0  0  0  0  0  0  0  0  0  0
    5.3742    0.6223   20.1974 C   0  0  0  0  0  0  0  0  0  0  0  0
    4.9141    0.6793   21.1889 H   0  0  0  0  0  0  0  0  0  0  0  0
    7.9020   -0.5903   24.0046 C   0  0  0  0  0  0  0  0  0  0  0  0
    8.6467   -0.1324   23.3494 H   0  0  0  0  0  0  0  0  0  0  0  0
    7.1330    0.1562   24.2311 H   0  0  0  0  0  0  0  0  0  0  0  0
    8.3963   -0.8952   24.9328 H   0  0  0  0  0  0  0  0  0  0  0  0
    8.4002   -2.8310   23.0097 C   0  0  0  0  0  0  0  0  0  0  0  0
    8.0439   -3.5926   22.3124 H   0  0  0  0  0  0  0  0  0  0  0  0
    8.7098   -3.3187   23.9399 H   0  0  0  0  0  0  0  0  0  0  0  0
    9.2566   -2.3361   22.5544 H   0  0  0  0  0  0  0  0  0  0  0  0
    5.8663   -2.1398   25.4464 C   0  0  0  0  0  0  0  0  0  0  0  0
    6.3782   -1.3368   25.9819 H   0  0  0  0  0  0  0  0  0  0  0  0
    4.8945   -2.8220   26.1747 C   0  0  0  0  0  0  0  0  0  0  0  0
    4.6116   -2.4926   27.4796 O   0  0  0  0  0  0  0  0  0  0  0  0
    5.1927   -1.7621   27.7282 H   0  0  0  0  0  0  0  0  0  0  0  0
  1  2  1  0
  2  3  1  0
  3  4  2  0
  4  5  1  0
  4  6  1  0
  6  7  1  0
  6  8  2  0
  8  9  1  0
  9 10  1  0
 10 11  1  0
 10 12  1  0
 12 13  2  0
 12 14  1  0
 14 15  2  0
 15 16  1  0
 15 17  1  0
 17 18  2  0
 18 19  1  0
 18 20  1  0
 20 21  1  0
 20 22  2  0
 22 23  1  0
  9 24  1  0
 24 25  1  0
 24 26  1  0
 24 27  1  0
  9 28  1  0
 28 29  1  0
 28 30  1  0
 28 31  1  0
  8 32  1  0
 32 33  1  0
 32 34  2  0
 34 35  1  0
 35 36  1  0
 34  3  1  0
 22 14  1  0
M  END
>  <cnnaffinity>  (1) 
-4.82442

>  <filename>  (1) 
CC(C)(NC(=O)c1cccnc1)c1ccc(O)c(O)c1

$$$$
