
     RDKit          3D

 32 32  0  0  0  0  0  0  0  0999 V2000
    9.3191    1.8172   20.6775 H   0  0  0  0  0  0  0  0  0  0  0  0
    9.5179    0.9443   20.3216 O   0  0  0  0  0  0  0  0  0  0  0  0
    9.6828    0.1249   21.4746 C   0  0  0  0  0  0  0  0  0  0  0  0
   10.3208   -1.1574   20.9522 C   0  0  0  0  0  0  0  0  0  0  0  0
   11.3059   -0.9037   20.5528 H   0  0  0  0  0  0  0  0  0  0  0  0
   10.4803   -1.9108   21.7244 H   0  0  0  0  0  0  0  0  0  0  0  0
    9.6912   -1.6054   20.1788 H   0  0  0  0  0  0  0  0  0  0  0  0
   10.6960    0.8467   22.3751 C   0  0  0  0  0  0  0  0  0  0  0  0
   11.0090    0.2337   23.2274 H   0  0  0  0  0  0  0  0  0  0  0  0
   11.5775    1.0554   21.7530 H   0  0  0  0  0  0  0  0  0  0  0  0
   10.3229    1.8074   22.7490 H   0  0  0  0  0  0  0  0  0  0  0  0
    8.2473   -0.0708   22.1057 C   0  0  0  0  0  0  0  0  0  0  0  0
    7.4290   -0.7418   20.9445 C   0  0  0  0  0  0  0  0  0  0  0  0
    7.4907   -1.9493   20.8089 O   0  0  0  0  0  0  0  0  0  0  0  0
    6.6607    0.0550   19.9170 C   0  0  0  0  0  0  0  0  0  0  0  0
    7.1575    0.0511   18.6030 C   0  0  0  0  0  0  0  0  0  0  0  0
    8.0916   -0.4563   18.3634 H   0  0  0  0  0  0  0  0  0  0  0  0
    6.5684    0.6669   17.5730 N   0  0  0  0  0  0  0  0  0  0  0  0
    5.4166    1.3082   17.8153 C   0  0  0  0  0  0  0  0  0  0  0  0
    4.9635    1.8122   16.9620 H   0  0  0  0  0  0  0  0  0  0  0  0
    4.8045    1.3324   19.0709 C   0  0  0  0  0  0  0  0  0  0  0  0
    3.8633    1.8544   19.1898 H   0  0  0  0  0  0  0  0  0  0  0  0
    5.4318    0.6993   20.1464 C   0  0  0  0  0  0  0  0  0  0  0  0
    4.9674    0.7127   21.1360 H   0  0  0  0  0  0  0  0  0  0  0  0
    8.3356   -0.9824   23.3613 C   0  0  0  0  0  0  0  0  0  0  0  0
    8.7958   -1.9490   23.1266 H   0  0  0  0  0  0  0  0  0  0  0  0
    7.3523   -1.1892   23.8040 H   0  0  0  0  0  0  0  0  0  0  0  0
    8.9435   -0.5021   24.1426 H   0  0  0  0  0  0  0  0  0  0  0  0
    7.6363    1.2948   22.4958 C   0  0  0  0  0  0  0  0  0  0  0  0
    6.6421    1.1883   22.9402 H   0  0  0  0  0  0  0  0  0  0  0  0
    8.2503    1.8180   23.2361 H   0  0  0  0  0  0  0  0  0  0  0  0
    7.5324    1.9539   21.6276 H   0  0  0  0  0  0  0  0  0  0  0  0
  1  2  1  0
  2  3  1  0
  3  4  1  0
  4  5  1  0
  4  6  1  0
  4  7  1  0
  3  8  1  0
  8  9  1  0
  8 10  1  0
  8 11  1  0
  3 12  1  0
 12 13  1  0
 13 14  2  0
 13 15  1  0
 15 16  2  0
 16 17  1  0
 16 18  1  0
 18 19  2  0
 19 20  1  0
 19 21  1  0
 21 22  1  0
 21 23  2  0
 23 24  1  0
 12 25  1  0
 25 26  1  0
 25 27  1  0
 25 28  1  0
 12 29  1  0
 29 30  1  0
 29 31  1  0
 29 32  1  0
 23 15  1  0
M  END
>  <cnnaffinity>  (1) 
-4.44193

>  <filename>  (1) 
CC(C)(O)C(C)(C)C(=O)c1cccnc1

$$$$
