
     RDKit          3D

 41 43  0  0  0  0  0  0  0  0999 V2000
   10.3299   -2.9303   22.9527 C   0  0  0  0  0  0  0  0  0  0  0  0
    8.9107   -3.2726   22.4563 C   0  0  0  0  0  0  0  0  0  0  0  0
    8.2045   -4.1251   23.5249 C   0  0  0  0  0  0  0  0  0  0  0  0
    8.7666   -5.0446   23.7119 H   0  0  0  0  0  0  0  0  0  0  0  0
    7.1978   -4.4073   23.1990 H   0  0  0  0  0  0  0  0  0  0  0  0
    8.1452   -3.5797   24.4690 H   0  0  0  0  0  0  0  0  0  0  0  0
    8.1576   -2.0233   22.0672 C   0  0  0  0  0  0  0  0  0  0  0  0
    7.8173   -1.7398   20.8275 N   0  0  0  0  0  0  0  0  0  0  0  0
    7.2104   -0.5343   20.9382 N   0  0  0  0  0  0  0  0  0  0  0  0
    6.5715    0.1315   19.8847 C   0  0  0  0  0  0  0  0  0  0  0  0
    5.4608    0.9656   20.0768 C   0  0  0  0  0  0  0  0  0  0  0  0
    4.8860    1.5519   18.9474 C   0  0  0  0  0  0  0  0  0  0  0  0
    5.4328    1.3142   17.6807 C   0  0  0  0  0  0  0  0  0  0  0  0
    6.5004    0.5189   17.4951 N   0  0  0  0  0  0  0  0  0  0  0  0
    7.0485   -0.0617   18.5809 C   0  0  0  0  0  0  0  0  0  0  0  0
    7.9195   -0.6966   18.4649 H   0  0  0  0  0  0  0  0  0  0  0  0
    4.9805    1.7879   16.8163 H   0  0  0  0  0  0  0  0  0  0  0  0
    4.0152    2.1935   19.0248 H   0  0  0  0  0  0  0  0  0  0  0  0
    5.0358    1.1353   21.0678 H   0  0  0  0  0  0  0  0  0  0  0  0
    7.3015   -0.1178   22.2566 C   0  0  0  0  0  0  0  0  0  0  0  0
    6.9715    1.2232   22.8230 C   0  0  0  0  0  0  0  0  0  0  0  0
    8.1471    1.6971   23.7027 C   0  0  0  0  0  0  0  0  0  0  0  0
    7.8836    3.0525   24.2838 C   0  0  0  0  0  0  0  0  0  0  0  0
    8.4216    4.1926   23.6946 C   0  0  0  0  0  0  0  0  0  0  0  0
    8.1474    5.4491   24.2333 C   0  0  0  0  0  0  0  0  0  0  0  0
    7.3871    5.6094   25.3274 N   0  0  0  0  0  0  0  0  0  0  0  0
    6.8805    4.5083   25.9099 C   0  0  0  0  0  0  0  0  0  0  0  0
    7.1077    3.2141   25.4303 C   0  0  0  0  0  0  0  0  0  0  0  0
    6.3746    1.7013   26.3496 Br  0  0  0  0  0  0  0  0  0  0  0  0
    6.2648    4.6278   26.7951 H   0  0  0  0  0  0  0  0  0  0  0  0
    8.5653    6.3268   23.7515 H   0  0  0  0  0  0  0  0  0  0  0  0
    9.0537    4.1114   22.8183 H   0  0  0  0  0  0  0  0  0  0  0  0
    9.0737    1.7355   23.1184 H   0  0  0  0  0  0  0  0  0  0  0  0
    8.3029    0.9810   24.5166 H   0  0  0  0  0  0  0  0  0  0  0  0
    6.7986    1.9323   22.0079 H   0  0  0  0  0  0  0  0  0  0  0  0
    6.0573    1.1298   23.4174 H   0  0  0  0  0  0  0  0  0  0  0  0
    7.8325   -1.0504   22.9861 N   0  0  0  0  0  0  0  0  0  0  0  0
    8.9719   -3.8672   21.5518 H   0  0  0  0  0  0  0  0  0  0  0  0
   10.9161   -2.4685   22.1413 H   0  0  0  0  0  0  0  0  0  0  0  0
   10.8497   -3.8369   23.2639 H   0  0  0  0  0  0  0  0  0  0  0  0
   10.2975   -2.2589   23.8218 H   0  0  0  0  0  0  0  0  0  0  0  0
  1  2  1  0
  2  3  1  0
  3  4  1  0
  3  5  1  0
  3  6  1  0
  2  7  1  0
  7  8  2  0
  8  9  1  0
  9 10  1  0
 10 11  2  0
 11 12  1  0
 12 13  2  0
 13 14  1  0
 14 15  2  0
 15 16  1  0
 13 17  1  0
 12 18  1  0
 11 19  1  0
  9 20  1  0
 20 21  1  0
 21 22  1  0
 22 23  1  0
 23 24  2  0
 24 25  1  0
 25 26  2  0
 26 27  1  0
 27 28  2  0
 28 29  1  0
 27 30  1  0
 25 31  1  0
 24 32  1  0
 22 33  1  0
 22 34  1  0
 21 35  1  0
 21 36  1  0
 20 37  2  0
  2 38  1  0
  1 39  1  0
  1 40  1  0
  1 41  1  0
 37  7  1  0
 15 10  1  0
 28 23  1  0
M  END
>  <cnnaffinity>  (1) 
-6.0254

>  <filename>  (1) 
CC(C)c1nc(CCc2ccncc2Br)n(-c2cccnc2)n1

$$$$
