
     RDKit          3D

 49 52  0  0  0  0  0  0  0  0999 V2000
    5.5295    4.8701   22.6723 C   0  0  0  0  0  0  0  0  0  0  0  0
    6.8805    4.9015   21.9463 C   0  0  0  0  0  0  0  0  0  0  0  0
    7.6576    6.2167   22.1214 C   0  0  0  0  0  0  0  0  0  0  0  0
    7.8310    6.4132   23.1866 H   0  0  0  0  0  0  0  0  0  0  0  0
    8.6330    6.1611   21.6233 H   0  0  0  0  0  0  0  0  0  0  0  0
    7.1058    7.0562   21.6851 H   0  0  0  0  0  0  0  0  0  0  0  0
    7.7113    3.7484   22.3137 N   0  0  0  0  0  0  0  0  0  0  0  0
    7.9733    2.6932   21.5125 C   0  0  0  0  0  0  0  0  0  0  0  0
    8.9052    1.9066   22.1271 C   0  0  0  0  0  0  0  0  0  0  0  0
    9.4992    0.6708   21.4704 C   0  0  0  0  0  0  0  0  0  0  0  0
    8.6284   -0.5436   21.6048 C   0  0  0  0  0  0  0  0  0  0  0  0
    8.8376   -1.4689   22.5106 N   0  0  0  0  0  0  0  0  0  0  0  0
    7.6535   -2.1423   22.5533 C   0  0  0  0  0  0  0  0  0  0  0  0
    7.4395   -3.1249   23.6594 C   0  0  0  0  0  0  0  0  0  0  0  0
    8.5765   -4.1646   23.7656 C   0  0  0  0  0  0  0  0  0  0  0  0
    8.5342   -4.6680   25.2206 C   0  0  0  0  0  0  0  0  0  0  0  0
    7.8694   -3.5384   26.0511 C   0  0  0  0  0  0  0  0  0  0  0  0
    7.5100   -2.4299   25.0475 C   0  0  0  0  0  0  0  0  0  0  0  0
    8.3245   -1.6913   25.0176 H   0  0  0  0  0  0  0  0  0  0  0  0
    6.5904   -1.8847   25.2914 H   0  0  0  0  0  0  0  0  0  0  0  0
    6.9752   -3.9094   26.5654 H   0  0  0  0  0  0  0  0  0  0  0  0
    8.5389   -3.1548   26.8300 H   0  0  0  0  0  0  0  0  0  0  0  0
    7.9500   -5.5926   25.3013 H   0  0  0  0  0  0  0  0  0  0  0  0
    9.5413   -4.9057   25.5830 H   0  0  0  0  0  0  0  0  0  0  0  0
    9.5285   -3.6467   23.5811 H   0  0  0  0  0  0  0  0  0  0  0  0
    8.4913   -4.9663   23.0226 H   0  0  0  0  0  0  0  0  0  0  0  0
    6.4610   -3.5994   23.5007 H   0  0  0  0  0  0  0  0  0  0  0  0
    6.7622   -1.7488   21.6705 N   0  0  0  0  0  0  0  0  0  0  0  0
    7.4031   -0.7273   21.0257 N   0  0  0  0  0  0  0  0  0  0  0  0
    6.7335   -0.0427   19.9601 C   0  0  0  0  0  0  0  0  0  0  0  0
    5.5197    0.6148   20.1968 C   0  0  0  0  0  0  0  0  0  0  0  0
    4.9154    1.3054   19.1429 C   0  0  0  0  0  0  0  0  0  0  0  0
    5.5169    1.2870   17.8781 C   0  0  0  0  0  0  0  0  0  0  0  0
    6.6519    0.6138   17.6280 N   0  0  0  0  0  0  0  0  0  0  0  0
    7.2381   -0.0325   18.6453 C   0  0  0  0  0  0  0  0  0  0  0  0
    8.1464   -0.5799   18.4000 H   0  0  0  0  0  0  0  0  0  0  0  0
    5.0652    1.8142   17.0374 H   0  0  0  0  0  0  0  0  0  0  0  0
    3.9924    1.8582   19.2850 H   0  0  0  0  0  0  0  0  0  0  0  0
    5.0713    0.5748   21.1915 H   0  0  0  0  0  0  0  0  0  0  0  0
    9.6609    0.8681   20.4037 H   0  0  0  0  0  0  0  0  0  0  0  0
   10.4683    0.4083   21.9037 H   0  0  0  0  0  0  0  0  0  0  0  0
    9.1075    2.5553   23.3716 C   0  0  0  0  0  0  0  0  0  0  0  0
    8.3879    3.6708   23.4697 N   0  0  0  0  0  0  0  0  0  0  0  0
    9.7481    2.2706   24.1972 H   0  0  0  0  0  0  0  0  0  0  0  0
    7.4429    2.5628   20.5798 H   0  0  0  0  0  0  0  0  0  0  0  0
    6.6626    4.7602   20.8808 H   0  0  0  0  0  0  0  0  0  0  0  0
    4.9294    4.0252   22.3111 H   0  0  0  0  0  0  0  0  0  0  0  0
    5.6651    4.7929   23.7571 H   0  0  0  0  0  0  0  0  0  0  0  0
    4.9736    5.7891   22.4612 H   0  0  0  0  0  0  0  0  0  0  0  0
  1  2  1  0
  2  3  1  0
  3  4  1  0
  3  5  1  0
  3  6  1  0
  2  7  1  0
  7  8  1  0
  8  9  2  0
  9 10  1  0
 10 11  1  0
 11 12  2  0
 12 13  1  0
 13 14  1  0
 14 15  1  0
 15 16  1  0
 16 17  1  0
 17 18  1  0
 18 19  1  0
 18 20  1  0
 17 21  1  0
 17 22  1  0
 16 23  1  0
 16 24  1  0
 15 25  1  0
 15 26  1  0
 14 27  1  0
 13 28  2  0
 28 29  1  0
 29 30  1  0
 30 31  2  0
 31 32  1  0
 32 33  2  0
 33 34  1  0
 34 35  2  0
 35 36  1  0
 33 37  1  0
 32 38  1  0
 31 39  1  0
 10 40  1  0
 10 41  1  0
  9 42  1  0
 42 43  2  0
 42 44  1  0
  8 45  1  0
  2 46  1  0
  1 47  1  0
  1 48  1  0
  1 49  1  0
 43  7  1  0
 29 11  1  0
 35 30  1  0
 18 14  1  0
M  END
>  <cnnaffinity>  (1) 
-6.32218

>  <filename>  (1) 
CC(C)n1cc(Cc2nc(C3CCCC3)nn2-c2cccnc2)cn1

$$$$
