
     RDKit          3D

 43 46  0  0  0  0  0  0  0  0999 V2000
   10.8283    2.4578   21.7870 C   0  0  0  0  0  0  0  0  0  0  0  0
    9.7167    1.4788   22.1674 C   0  0  0  0  0  0  0  0  0  0  0  0
    9.6235    0.3710   21.0797 C   0  0  0  0  0  0  0  0  0  0  0  0
    8.6095   -0.6628   21.4017 C   0  0  0  0  0  0  0  0  0  0  0  0
    8.7986   -1.5292   22.3679 N   0  0  0  0  0  0  0  0  0  0  0  0
    7.5809   -2.1093   22.5177 C   0  0  0  0  0  0  0  0  0  0  0  0
    7.3330   -3.1043   23.5755 C   0  0  0  0  0  0  0  0  0  0  0  0
    8.3735   -3.4542   24.4583 C   0  0  0  0  0  0  0  0  0  0  0  0
    8.1644   -4.4002   25.4578 C   0  0  0  0  0  0  0  0  0  0  0  0
    6.9098   -5.0020   25.5799 C   0  0  0  0  0  0  0  0  0  0  0  0
    6.6534   -6.2038   26.8106 Cl  0  0  0  0  0  0  0  0  0  0  0  0
    5.8590   -4.6517   24.7265 C   0  0  0  0  0  0  0  0  0  0  0  0
    6.0663   -3.6987   23.7308 C   0  0  0  0  0  0  0  0  0  0  0  0
    5.2466   -3.4028   23.0760 H   0  0  0  0  0  0  0  0  0  0  0  0
    4.8925   -5.1250   24.8491 H   0  0  0  0  0  0  0  0  0  0  0  0
    8.9638   -4.6730   26.1382 H   0  0  0  0  0  0  0  0  0  0  0  0
    9.3459   -2.9744   24.3564 H   0  0  0  0  0  0  0  0  0  0  0  0
    6.6590   -1.6730   21.6765 N   0  0  0  0  0  0  0  0  0  0  0  0
    7.3306   -0.7595   20.9319 N   0  0  0  0  0  0  0  0  0  0  0  0
    6.6555   -0.0681   19.8854 C   0  0  0  0  0  0  0  0  0  0  0  0
    5.4001    0.5018   20.1195 C   0  0  0  0  0  0  0  0  0  0  0  0
    4.7918    1.2198   19.0847 C   0  0  0  0  0  0  0  0  0  0  0  0
    5.4449    1.3024   17.8500 C   0  0  0  0  0  0  0  0  0  0  0  0
    6.6164    0.7008   17.5989 N   0  0  0  0  0  0  0  0  0  0  0  0
    7.2020    0.0260   18.5966 C   0  0  0  0  0  0  0  0  0  0  0  0
    8.1335   -0.4849   18.3501 H   0  0  0  0  0  0  0  0  0  0  0  0
    5.0026    1.8587   17.0264 H   0  0  0  0  0  0  0  0  0  0  0  0
    3.8374    1.7176   19.2313 H   0  0  0  0  0  0  0  0  0  0  0  0
    4.9133    0.3490   21.0822 H   0  0  0  0  0  0  0  0  0  0  0  0
    9.4082    0.8390   20.1193 H   0  0  0  0  0  0  0  0  0  0  0  0
   10.5891   -0.1364   21.0137 H   0  0  0  0  0  0  0  0  0  0  0  0
    8.4230    2.1606   22.3279 N   0  0  0  0  0  0  0  0  0  0  0  0
    7.5688    2.1173   23.3811 C   0  0  0  0  0  0  0  0  0  0  0  0
    6.4597    2.8664   23.0304 C   0  0  0  0  0  0  0  0  0  0  0  0
    6.7486    3.3149   21.7177 C   0  0  0  0  0  0  0  0  0  0  0  0
    7.9335    2.8678   21.3133 N   0  0  0  0  0  0  0  0  0  0  0  0
    6.1626    3.9158   21.0289 H   0  0  0  0  0  0  0  0  0  0  0  0
    5.5874    3.0775   23.6445 H   0  0  0  0  0  0  0  0  0  0  0  0
    7.8406    1.5299   24.2518 H   0  0  0  0  0  0  0  0  0  0  0  0
    9.8977    1.0381   23.1560 H   0  0  0  0  0  0  0  0  0  0  0  0
   11.8207    2.0170   21.9357 H   0  0  0  0  0  0  0  0  0  0  0  0
   10.7579    3.3722   22.3791 H   0  0  0  0  0  0  0  0  0  0  0  0
   10.7301    2.7355   20.7317 H   0  0  0  0  0  0  0  0  0  0  0  0
  1  2  1  0
  2  3  1  0
  3  4  1  0
  4  5  2  0
  5  6  1  0
  6  7  1  0
  7  8  2  0
  8  9  1  0
  9 10  2  0
 10 11  1  0
 10 12  1  0
 12 13  2  0
 13 14  1  0
 12 15  1  0
  9 16  1  0
  8 17  1  0
  6 18  2  0
 18 19  1  0
 19 20  1  0
 20 21  2  0
 21 22  1  0
 22 23  2  0
 23 24  1  0
 24 25  2  0
 25 26  1  0
 23 27  1  0
 22 28  1  0
 21 29  1  0
  3 30  1  0
  3 31  1  0
  2 32  1  0
 32 33  1  0
 33 34  2  0
 34 35  1  0
 35 36  2  0
 35 37  1  0
 34 38  1  0
 33 39  1  0
  2 40  1  0
  1 41  1  0
  1 42  1  0
  1 43  1  0
 19  4  1  0
 25 20  1  0
 36 32  1  0
 13  7  1  0
M  END
>  <cnnaffinity>  (1) 
-5.89816

>  <filename>  (1) 
CC(Cc1nc(-c2ccc(Cl)cc2)nn1-c1cccnc1)n1cccn1

$$$$
