
     RDKit          3D

 41 44  0  0  0  0  0  0  0  0999 V2000
    9.7425    1.8773   22.7922 C   0  0  0  0  0  0  0  0  0  0  0  0
    8.4801    1.6799   23.6558 C   0  0  0  0  0  0  0  0  0  0  0  0
    7.2743    1.2179   22.7846 C   0  0  0  0  0  0  0  0  0  0  0  0
    7.4891   -0.1469   22.2330 C   0  0  0  0  0  0  0  0  0  0  0  0
    8.0372   -1.1099   22.9540 N   0  0  0  0  0  0  0  0  0  0  0  0
    8.2155   -2.1042   22.0621 C   0  0  0  0  0  0  0  0  0  0  0  0
    8.9718   -3.3279   22.4151 C   0  0  0  0  0  0  0  0  0  0  0  0
    8.4463   -4.2022   23.5860 C   0  0  0  0  0  0  0  0  0  0  0  0
   10.0639   -4.1438   24.4321 S   0  0  0  0  0  0  0  0  0  0  0  0
   10.3713   -3.0188   23.0319 C   0  0  0  0  0  0  0  0  0  0  0  0
   11.2503   -3.2787   22.4364 H   0  0  0  0  0  0  0  0  0  0  0  0
   10.4668   -1.9809   23.3788 H   0  0  0  0  0  0  0  0  0  0  0  0
    8.1368   -5.2101   23.2817 H   0  0  0  0  0  0  0  0  0  0  0  0
    7.6533   -3.7471   24.1872 H   0  0  0  0  0  0  0  0  0  0  0  0
    8.9711   -3.9016   21.4939 H   0  0  0  0  0  0  0  0  0  0  0  0
    7.8054   -1.8444   20.8382 N   0  0  0  0  0  0  0  0  0  0  0  0
    7.2835   -0.5931   20.9587 N   0  0  0  0  0  0  0  0  0  0  0  0
    6.6009    0.0224   19.8791 C   0  0  0  0  0  0  0  0  0  0  0  0
    5.3788    0.6696   20.0899 C   0  0  0  0  0  0  0  0  0  0  0  0
    4.7907    1.3244   19.0078 C   0  0  0  0  0  0  0  0  0  0  0  0
    5.4322    1.2958   17.7671 C   0  0  0  0  0  0  0  0  0  0  0  0
    6.5750    0.6191   17.5480 N   0  0  0  0  0  0  0  0  0  0  0  0
    7.1358   -0.0178   18.5800 C   0  0  0  0  0  0  0  0  0  0  0  0
    8.0508   -0.5723   18.3769 H   0  0  0  0  0  0  0  0  0  0  0  0
    5.0138    1.8284   16.9158 H   0  0  0  0  0  0  0  0  0  0  0  0
    3.8601    1.8659   19.1275 H   0  0  0  0  0  0  0  0  0  0  0  0
    4.9051    0.6457   21.0731 H   0  0  0  0  0  0  0  0  0  0  0  0
    6.3658    1.1891   23.3969 H   0  0  0  0  0  0  0  0  0  0  0  0
    7.0864    1.9560   21.9974 H   0  0  0  0  0  0  0  0  0  0  0  0
    8.1064    2.8798   24.4633 C   0  0  0  0  0  0  0  0  0  0  0  0
    7.9520    3.1161   25.7921 C   0  0  0  0  0  0  0  0  0  0  0  0
    7.4761    4.4685   25.9075 C   0  0  0  0  0  0  0  0  0  0  0  0
    7.3829    4.9381   24.6393 C   0  0  0  0  0  0  0  0  0  0  0  0
    7.7628    3.9857   23.7556 O   0  0  0  0  0  0  0  0  0  0  0  0
    7.0728    5.8693   24.1904 H   0  0  0  0  0  0  0  0  0  0  0  0
    7.2343    5.0095   26.8098 H   0  0  0  0  0  0  0  0  0  0  0  0
    8.1326    2.4045   26.5898 H   0  0  0  0  0  0  0  0  0  0  0  0
    8.6902    0.8830   24.3778 H   0  0  0  0  0  0  0  0  0  0  0  0
    9.5596    2.5886   21.9778 H   0  0  0  0  0  0  0  0  0  0  0  0
   10.0526    0.9226   22.3475 H   0  0  0  0  0  0  0  0  0  0  0  0
   10.5763    2.2549   23.3922 H   0  0  0  0  0  0  0  0  0  0  0  0
  1  2  1  0
  2  3  1  0
  3  4  1  0
  4  5  2  0
  5  6  1  0
  6  7  1  0
  7  8  1  0
  8  9  1  0
  9 10  1  0
 10 11  1  0
 10 12  1  0
  8 13  1  0
  8 14  1  0
  7 15  1  0
  6 16  2  0
 16 17  1  0
 17 18  1  0
 18 19  2  0
 19 20  1  0
 20 21  2  0
 21 22  1  0
 22 23  2  0
 23 24  1  0
 21 25  1  0
 20 26  1  0
 19 27  1  0
  3 28  1  0
  3 29  1  0
  2 30  1  0
 30 31  2  0
 31 32  1  0
 32 33  2  0
 33 34  1  0
 33 35  1  0
 32 36  1  0
 31 37  1  0
  2 38  1  0
  1 39  1  0
  1 40  1  0
  1 41  1  0
 17  4  1  0
 23 18  1  0
 34 30  1  0
 10  7  1  0
M  END
>  <cnnaffinity>  (1) 
-5.88075

>  <filename>  (1) 
CC(Cc1nc(C2CSC2)nn1-c1cccnc1)c1ccco1

$$$$
