
     RDKit          3D

 45 47  0  0  0  0  0  0  0  0999 V2000
    8.4124   -5.7815   23.2311 C   0  0  0  0  0  0  0  0  0  0  0  0
    7.5585   -4.5216   23.0184 C   0  0  0  0  0  0  0  0  0  0  0  0
    7.1949   -3.9166   24.3870 C   0  0  0  0  0  0  0  0  0  0  0  0
    8.1024   -3.5992   24.9151 H   0  0  0  0  0  0  0  0  0  0  0  0
    6.6860   -4.6545   25.0199 H   0  0  0  0  0  0  0  0  0  0  0  0
    6.5429   -3.0404   24.2927 H   0  0  0  0  0  0  0  0  0  0  0  0
    6.2802   -4.9472   22.2472 C   0  0  0  0  0  0  0  0  0  0  0  0
    5.3552   -3.9271   21.9562 O   0  0  0  0  0  0  0  0  0  0  0  0
    5.7715   -3.2881   21.3520 H   0  0  0  0  0  0  0  0  0  0  0  0
    6.5954   -5.4801   21.3311 H   0  0  0  0  0  0  0  0  0  0  0  0
    5.7302   -5.6729   22.8640 H   0  0  0  0  0  0  0  0  0  0  0  0
    8.4545   -3.5383   22.2060 C   0  0  0  0  0  0  0  0  0  0  0  0
    7.9014   -2.1790   21.9637 C   0  0  0  0  0  0  0  0  0  0  0  0
    7.3185   -1.8492   20.8274 N   0  0  0  0  0  0  0  0  0  0  0  0
    6.9930   -0.5345   21.0137 N   0  0  0  0  0  0  0  0  0  0  0  0
    6.4651    0.1928   19.9178 C   0  0  0  0  0  0  0  0  0  0  0  0
    5.3052    0.9699   20.0180 C   0  0  0  0  0  0  0  0  0  0  0  0
    4.8034    1.5412   18.8414 C   0  0  0  0  0  0  0  0  0  0  0  0
    5.4933    1.3472   17.6409 C   0  0  0  0  0  0  0  0  0  0  0  0
    6.6326    0.6367   17.5521 N   0  0  0  0  0  0  0  0  0  0  0  0
    7.0950    0.0668   18.6664 C   0  0  0  0  0  0  0  0  0  0  0  0
    8.0102   -0.5173   18.5845 H   0  0  0  0  0  0  0  0  0  0  0  0
    5.1181    1.7571   16.7054 H   0  0  0  0  0  0  0  0  0  0  0  0
    3.9035    2.1463   18.8490 H   0  0  0  0  0  0  0  0  0  0  0  0
    4.8040    1.0933   20.9782 H   0  0  0  0  0  0  0  0  0  0  0  0
    7.3779   -0.1594   22.2695 C   0  0  0  0  0  0  0  0  0  0  0  0
    7.1915    1.1656   22.9366 C   0  0  0  0  0  0  0  0  0  0  0  0
    8.4911    1.6409   23.5596 C   0  0  0  0  0  0  0  0  0  0  0  0
    9.5712    2.0836   22.7800 C   0  0  0  0  0  0  0  0  0  0  0  0
    9.3842    2.2679   21.0729 Cl  0  0  0  0  0  0  0  0  0  0  0  0
   10.8194    2.3523   23.3590 C   0  0  0  0  0  0  0  0  0  0  0  0
   11.0434    2.2029   24.6692 N   0  0  0  0  0  0  0  0  0  0  0  0
   10.0278    1.7885   25.4400 C   0  0  0  0  0  0  0  0  0  0  0  0
    8.7550    1.5255   24.9247 C   0  0  0  0  0  0  0  0  0  0  0  0
    7.7818    1.1314   25.7640 F   0  0  0  0  0  0  0  0  0  0  0  0
   10.2122    1.6368   26.4946 H   0  0  0  0  0  0  0  0  0  0  0  0
   11.6505    2.6805   22.7371 H   0  0  0  0  0  0  0  0  0  0  0  0
    6.8318    1.9094   22.2213 H   0  0  0  0  0  0  0  0  0  0  0  0
    6.4384    1.0409   23.7205 H   0  0  0  0  0  0  0  0  0  0  0  0
    7.9791   -1.1809   22.8681 N   0  0  0  0  0  0  0  0  0  0  0  0
    9.3964   -3.3861   22.7458 H   0  0  0  0  0  0  0  0  0  0  0  0
    8.6778   -3.9611   21.2217 H   0  0  0  0  0  0  0  0  0  0  0  0
    9.3032   -5.5426   23.8225 H   0  0  0  0  0  0  0  0  0  0  0  0
    7.8589   -6.5586   23.7608 H   0  0  0  0  0  0  0  0  0  0  0  0
    8.7469   -6.2123   22.2804 H   0  0  0  0  0  0  0  0  0  0  0  0
  1  2  1  0
  2  3  1  0
  3  4  1  0
  3  5  1  0
  3  6  1  0
  2  7  1  0
  7  8  1  0
  8  9  1  0
  7 10  1  0
  7 11  1  0
  2 12  1  0
 12 13  1  0
 13 14  2  0
 14 15  1  0
 15 16  1  0
 16 17  2  0
 17 18  1  0
 18 19  2  0
 19 20  1  0
 20 21  2  0
 21 22  1  0
 19 23  1  0
 18 24  1  0
 17 25  1  0
 15 26  1  0
 26 27  1  0
 27 28  1  0
 28 29  2  0
 29 30  1  0
 29 31  1  0
 31 32  2  0
 32 33  1  0
 33 34  2  0
 34 35  1  0
 33 36  1  0
 31 37  1  0
 27 38  1  0
 27 39  1  0
 26 40  2  0
 12 41  1  0
 12 42  1  0
  1 43  1  0
  1 44  1  0
  1 45  1  0
 40 13  1  0
 21 16  1  0
 34 28  1  0
M  END
>  <cnnaffinity>  (1) 
-6.19224

>  <filename>  (1) 
CC(C)(CO)Cc1nc(Cc2c(F)cncc2Cl)n(-c2cccnc2)n1

$$$$
