
     RDKit          3D

 27 27  0  0  0  0  0  0  0  0999 V2000
    4.9529    1.7734   16.9989 H   0  0  0  0  0  0  0  0  0  0  0  0
    5.4084    1.2792   17.8559 C   0  0  0  0  0  0  0  0  0  0  0  0
    6.5700    0.6537   17.6279 N   0  0  0  0  0  0  0  0  0  0  0  0
    7.1572    0.0320   18.6538 C   0  0  0  0  0  0  0  0  0  0  0  0
    8.1189   -0.4244   18.4297 H   0  0  0  0  0  0  0  0  0  0  0  0
    6.6064   -0.0300   19.9381 C   0  0  0  0  0  0  0  0  0  0  0  0
    7.4277   -0.7222   20.9777 C   0  0  0  0  0  0  0  0  0  0  0  0
    8.6420   -0.8032   20.8940 O   0  0  0  0  0  0  0  0  0  0  0  0
    6.7284   -1.2582   22.0108 N   0  0  0  0  0  0  0  0  0  0  0  0
    5.7252   -1.2755   21.9323 H   0  0  0  0  0  0  0  0  0  0  0  0
    7.3840   -1.9701   23.1039 C   0  0  0  0  0  0  0  0  0  0  0  0
    6.6596   -2.0767   23.9206 H   0  0  0  0  0  0  0  0  0  0  0  0
    8.2024   -1.3358   23.4686 H   0  0  0  0  0  0  0  0  0  0  0  0
    7.9490   -3.3536   22.7186 C   0  0  0  0  0  0  0  0  0  0  0  0
    8.6146   -3.1778   21.8623 H   0  0  0  0  0  0  0  0  0  0  0  0
    6.8373   -4.3225   22.2998 C   0  0  0  0  0  0  0  0  0  0  0  0
    7.2534   -5.2981   22.0240 H   0  0  0  0  0  0  0  0  0  0  0  0
    6.1276   -4.4848   23.1245 H   0  0  0  0  0  0  0  0  0  0  0  0
    6.2734   -3.9403   21.4411 H   0  0  0  0  0  0  0  0  0  0  0  0
    8.7833   -3.9383   23.8686 C   0  0  0  0  0  0  0  0  0  0  0  0
    9.2172   -4.9018   23.5794 H   0  0  0  0  0  0  0  0  0  0  0  0
    9.6103   -3.2746   24.1510 H   0  0  0  0  0  0  0  0  0  0  0  0
    8.1719   -4.1117   24.7655 H   0  0  0  0  0  0  0  0  0  0  0  0
    5.3933    0.6368   20.1742 C   0  0  0  0  0  0  0  0  0  0  0  0
    4.9537    0.6765   21.1763 H   0  0  0  0  0  0  0  0  0  0  0  0
    4.7936    1.3088   19.1121 C   0  0  0  0  0  0  0  0  0  0  0  0
    3.8680    1.8524   19.2436 H   0  0  0  0  0  0  0  0  0  0  0  0
  1  2  1  0
  2  3  2  0
  3  4  1  0
  4  5  1  0
  4  6  2  0
  6  7  1  0
  7  8  2  0
  7  9  1  0
  9 10  1  0
  9 11  1  0
 11 12  1  0
 11 13  1  0
 11 14  1  0
 14 15  1  0
 14 16  1  0
 16 17  1  0
 16 18  1  0
 16 19  1  0
 14 20  1  0
 20 21  1  0
 20 22  1  0
 20 23  1  0
  6 24  1  0
 24 25  1  0
 24 26  2  0
 26 27  1  0
 26  2  1  0
M  END
>  <cnnaffinity>  (1) 
-4.10143

>  <filename>  (1) 
CC(C)CNC(=O)c1cccnc1

$$$$
