
     RDKit          3D

 34 35  0  0  0  0  0  0  0  0999 V2000
    4.9360    1.7711   17.0013 H   0  0  0  0  0  0  0  0  0  0  0  0
    5.4098    1.2844   17.8534 C   0  0  0  0  0  0  0  0  0  0  0  0
    6.5741    0.6600   17.6212 N   0  0  0  0  0  0  0  0  0  0  0  0
    7.1769    0.0580   18.6525 C   0  0  0  0  0  0  0  0  0  0  0  0
    8.1115   -0.4405   18.4065 H   0  0  0  0  0  0  0  0  0  0  0  0
    6.6688    0.0542   19.9600 C   0  0  0  0  0  0  0  0  0  0  0  0
    7.4225   -0.7299   20.9936 C   0  0  0  0  0  0  0  0  0  0  0  0
    8.0929   -1.7044   20.6881 O   0  0  0  0  0  0  0  0  0  0  0  0
    7.3159   -0.2979   22.2809 N   0  0  0  0  0  0  0  0  0  0  0  0
    6.8742    0.5877   22.4313 H   0  0  0  0  0  0  0  0  0  0  0  0
    7.7206   -1.0635   23.4785 C   0  0  0  0  0  0  0  0  0  0  0  0
    7.5104   -0.1813   24.7329 C   0  0  0  0  0  0  0  0  0  0  0  0
    6.7955   -0.5988   25.8715 C   0  0  0  0  0  0  0  0  0  0  0  0
    6.3028   -1.5656   25.8865 H   0  0  0  0  0  0  0  0  0  0  0  0
    6.6882    0.2005   27.0103 C   0  0  0  0  0  0  0  0  0  0  0  0
    6.1150   -0.1287   27.8715 H   0  0  0  0  0  0  0  0  0  0  0  0
    7.3123    1.4489   27.0590 C   0  0  0  0  0  0  0  0  0  0  0  0
    7.1422    2.4219   28.4833 Cl  0  0  0  0  0  0  0  0  0  0  0  0
    8.0569    1.8775   25.9496 C   0  0  0  0  0  0  0  0  0  0  0  0
    8.8553    3.4147   25.9465 Cl  0  0  0  0  0  0  0  0  0  0  0  0
    8.1518    1.0683   24.8129 C   0  0  0  0  0  0  0  0  0  0  0  0
    8.7511    1.4327   23.9851 H   0  0  0  0  0  0  0  0  0  0  0  0
    9.2093   -1.4408   23.3784 C   0  0  0  0  0  0  0  0  0  0  0  0
    9.3677   -2.2065   22.6176 H   0  0  0  0  0  0  0  0  0  0  0  0
    9.5589   -1.8086   24.3468 H   0  0  0  0  0  0  0  0  0  0  0  0
    9.8118   -0.5710   23.1049 H   0  0  0  0  0  0  0  0  0  0  0  0
    6.8861   -2.3543   23.5293 C   0  0  0  0  0  0  0  0  0  0  0  0
    7.0187   -2.9177   22.6028 H   0  0  0  0  0  0  0  0  0  0  0  0
    7.1914   -2.9797   24.3718 H   0  0  0  0  0  0  0  0  0  0  0  0
    5.8249   -2.1281   23.6460 H   0  0  0  0  0  0  0  0  0  0  0  0
    5.4323    0.6811   20.1845 C   0  0  0  0  0  0  0  0  0  0  0  0
    4.9634    0.6472   21.1737 H   0  0  0  0  0  0  0  0  0  0  0  0
    4.8000    1.3114   19.1123 C   0  0  0  0  0  0  0  0  0  0  0  0
    3.8669    1.8456   19.2523 H   0  0  0  0  0  0  0  0  0  0  0  0
  1  2  1  0
  2  3  2  0
  3  4  1  0
  4  5  1  0
  4  6  2  0
  6  7  1  0
  7  8  2  0
  7  9  1  0
  9 10  1  0
  9 11  1  0
 11 12  1  0
 12 13  2  0
 13 14  1  0
 13 15  1  0
 15 16  1  0
 15 17  2  0
 17 18  1  0
 17 19  1  0
 19 20  1  0
 19 21  2  0
 21 22  1  0
 11 23  1  0
 23 24  1  0
 23 25  1  0
 23 26  1  0
 11 27  1  0
 27 28  1  0
 27 29  1  0
 27 30  1  0
  6 31  1  0
 31 32  1  0
 31 33  2  0
 33 34  1  0
 33  2  1  0
 21 12  1  0
M  END
>  <cnnaffinity>  (1) 
-5.11517

>  <filename>  (1) 
CC(C)(NC(=O)c1cccnc1)c1ccc(Cl)c(Cl)c1

$$$$
