
     RDKit          3D

 46 48  0  0  0  0  0  0  0  0999 V2000
    7.6434   -2.3040   25.0701 C   0  0  0  0  0  0  0  0  0  0  0  0
    7.3460   -2.9672   23.7100 C   0  0  0  0  0  0  0  0  0  0  0  0
    8.2127   -4.2304   23.5239 C   0  0  0  0  0  0  0  0  0  0  0  0
    9.2777   -3.9736   23.5617 H   0  0  0  0  0  0  0  0  0  0  0  0
    8.0276   -4.7243   22.5641 H   0  0  0  0  0  0  0  0  0  0  0  0
    8.0134   -4.9549   24.3212 H   0  0  0  0  0  0  0  0  0  0  0  0
    7.5682   -1.9809   22.5983 C   0  0  0  0  0  0  0  0  0  0  0  0
    6.6517   -1.5698   21.7484 N   0  0  0  0  0  0  0  0  0  0  0  0
    7.3255   -0.6862   20.9627 N   0  0  0  0  0  0  0  0  0  0  0  0
    6.6563   -0.0043   19.9005 C   0  0  0  0  0  0  0  0  0  0  0  0
    5.4395    0.6408   20.1515 C   0  0  0  0  0  0  0  0  0  0  0  0
    4.8119    1.3121   19.0990 C   0  0  0  0  0  0  0  0  0  0  0  0
    5.4100    1.2981   17.8331 C   0  0  0  0  0  0  0  0  0  0  0  0
    6.5605    0.6587   17.5740 N   0  0  0  0  0  0  0  0  0  0  0  0
    7.1668    0.0294   18.5890 C   0  0  0  0  0  0  0  0  0  0  0  0
    8.1028   -0.4718   18.3393 H   0  0  0  0  0  0  0  0  0  0  0  0
    4.9436    1.8142   16.9973 H   0  0  0  0  0  0  0  0  0  0  0  0
    3.8775    1.8456   19.2520 H   0  0  0  0  0  0  0  0  0  0  0  0
    5.0124    0.5956   21.1531 H   0  0  0  0  0  0  0  0  0  0  0  0
    8.6131   -0.5992   21.4124 C   0  0  0  0  0  0  0  0  0  0  0  0
    9.6838    0.2101   20.7358 C   0  0  0  0  0  0  0  0  0  0  0  0
   10.7744    0.6921   21.5881 N   0  0  0  0  0  0  0  0  0  0  0  0
   10.3948    1.7009   22.5836 C   0  0  0  0  0  0  0  0  0  0  0  0
   11.6162    2.4241   23.1738 C   0  0  0  0  0  0  0  0  0  0  0  0
   12.2279    3.4130   22.1669 C   0  0  0  0  0  0  0  0  0  0  0  0
   11.5376    4.5723   22.1467 F   0  0  0  0  0  0  0  0  0  0  0  0
   13.4906    3.7549   22.5047 F   0  0  0  0  0  0  0  0  0  0  0  0
   12.2640    2.9564   20.9075 F   0  0  0  0  0  0  0  0  0  0  0  0
   12.6212    1.3982   23.7255 C   0  0  0  0  0  0  0  0  0  0  0  0
   13.0019    0.3915   22.6422 C   0  0  0  0  0  0  0  0  0  0  0  0
   11.8815   -0.1290   21.7670 C   0  0  0  0  0  0  0  0  0  0  0  0
   12.0130   -1.1917   21.1797 O   0  0  0  0  0  0  0  0  0  0  0  0
   13.4941   -0.4971   23.0328 H   0  0  0  0  0  0  0  0  0  0  0  0
   13.7041    0.8435   21.9399 H   0  0  0  0  0  0  0  0  0  0  0  0
   13.5203    1.9039   24.1006 H   0  0  0  0  0  0  0  0  0  0  0  0
   12.1796    0.8994   24.5987 H   0  0  0  0  0  0  0  0  0  0  0  0
   11.2673    3.0641   23.9905 H   0  0  0  0  0  0  0  0  0  0  0  0
    9.7276    2.4275   22.1022 H   0  0  0  0  0  0  0  0  0  0  0  0
    9.8228    1.2046   23.3886 H   0  0  0  0  0  0  0  0  0  0  0  0
    9.2119    1.0578   20.2323 H   0  0  0  0  0  0  0  0  0  0  0  0
   10.1145   -0.4555   19.9823 H   0  0  0  0  0  0  0  0  0  0  0  0
    8.7909   -1.4127   22.4280 N   0  0  0  0  0  0  0  0  0  0  0  0
    6.2872   -3.2400   23.6580 H   0  0  0  0  0  0  0  0  0  0  0  0
    8.6979   -2.0089   25.1220 H   0  0  0  0  0  0  0  0  0  0  0  0
    7.4406   -2.9931   25.8956 H   0  0  0  0  0  0  0  0  0  0  0  0
    7.0454   -1.3996   25.2255 H   0  0  0  0  0  0  0  0  0  0  0  0
  1  2  1  0
  2  3  1  0
  3  4  1  0
  3  5  1  0
  3  6  1  0
  2  7  1  0
  7  8  2  0
  8  9  1  0
  9 10  1  0
 10 11  2  0
 11 12  1  0
 12 13  2  0
 13 14  1  0
 14 15  2  0
 15 16  1  0
 13 17  1  0
 12 18  1  0
 11 19  1  0
  9 20  1  0
 20 21  1  0
 21 22  1  0
 22 23  1  0
 23 24  1  0
 24 25  1  0
 25 26  1  0
 25 27  1  0
 25 28  1  0
 24 29  1  0
 29 30  1  0
 30 31  1  0
 31 32  2  0
 30 33  1  0
 30 34  1  0
 29 35  1  0
 29 36  1  0
 24 37  1  0
 23 38  1  0
 23 39  1  0
 21 40  1  0
 21 41  1  0
 20 42  2  0
  2 43  1  0
  1 44  1  0
  1 45  1  0
  1 46  1  0
 42  7  1  0
 15 10  1  0
 31 22  1  0
M  END
>  <cnnaffinity>  (1) 
-6.37465

>  <filename>  (1) 
CC(C)c1nc(CN2CC(C(F)(F)F)CCC2=O)n(-c2cccnc2)n1

$$$$
