
     RDKit          3D

 45 47  0  0  0  0  0  0  0  0999 V2000
    7.2326   -6.4656   22.5648 C   0  0  0  0  0  0  0  0  0  0  0  0
    7.9752   -5.5805   23.5717 C   0  0  0  0  0  0  0  0  0  0  0  0
    7.5581   -5.7528   25.0294 C   0  0  0  0  0  0  0  0  0  0  0  0
    7.8507   -6.7206   25.4495 H   0  0  0  0  0  0  0  0  0  0  0  0
    6.4748   -5.6292   25.1227 H   0  0  0  0  0  0  0  0  0  0  0  0
    8.0387   -4.9739   25.6318 H   0  0  0  0  0  0  0  0  0  0  0  0
    7.7073   -4.2122   23.2629 O   0  0  0  0  0  0  0  0  0  0  0  0
    8.6577   -3.5778   22.4173 C   0  0  0  0  0  0  0  0  0  0  0  0
    8.2459   -2.2047   22.0093 C   0  0  0  0  0  0  0  0  0  0  0  0
    7.6226   -1.9760   20.8705 N   0  0  0  0  0  0  0  0  0  0  0  0
    7.3839   -0.6479   20.9232 N   0  0  0  0  0  0  0  0  0  0  0  0
    6.6512    0.0087   19.8948 C   0  0  0  0  0  0  0  0  0  0  0  0
    5.4413    0.6563   20.1580 C   0  0  0  0  0  0  0  0  0  0  0  0
    4.8052    1.3159   19.1005 C   0  0  0  0  0  0  0  0  0  0  0  0
    5.4011    1.2931   17.8367 C   0  0  0  0  0  0  0  0  0  0  0  0
    6.5577    0.6559   17.5791 N   0  0  0  0  0  0  0  0  0  0  0  0
    7.1615    0.0247   18.5903 C   0  0  0  0  0  0  0  0  0  0  0  0
    8.1073   -0.4660   18.3686 H   0  0  0  0  0  0  0  0  0  0  0  0
    4.9421    1.8000   16.9907 H   0  0  0  0  0  0  0  0  0  0  0  0
    3.8701    1.8479   19.2442 H   0  0  0  0  0  0  0  0  0  0  0  0
    5.0138    0.6365   21.1592 H   0  0  0  0  0  0  0  0  0  0  0  0
    7.9261   -0.1361   22.0651 C   0  0  0  0  0  0  0  0  0  0  0  0
    7.8906    1.2986   22.4666 C   0  0  0  0  0  0  0  0  0  0  0  0
    6.7088    1.6433   23.3564 C   0  0  0  0  0  0  0  0  0  0  0  0
    5.7719    2.6042   22.9740 C   0  0  0  0  0  0  0  0  0  0  0  0
    4.6974    2.8720   23.8307 C   0  0  0  0  0  0  0  0  0  0  0  0
    4.5195    2.2442   24.9958 N   0  0  0  0  0  0  0  0  0  0  0  0
    5.4193    1.3206   25.3725 C   0  0  0  0  0  0  0  0  0  0  0  0
    5.2492    0.5947   26.7235 C   0  0  0  0  0  0  0  0  0  0  0  0
    4.1614    0.9496   27.4104 F   0  0  0  0  0  0  0  0  0  0  0  0
    6.3190    0.8256   27.5157 F   0  0  0  0  0  0  0  0  0  0  0  0
    5.1883   -0.7418   26.5361 F   0  0  0  0  0  0  0  0  0  0  0  0
    6.5270    0.9883   24.5765 C   0  0  0  0  0  0  0  0  0  0  0  0
    7.2287    0.2134   24.8680 H   0  0  0  0  0  0  0  0  0  0  0  0
    3.9493    3.6186   23.5690 H   0  0  0  0  0  0  0  0  0  0  0  0
    5.8602    3.1056   22.0148 H   0  0  0  0  0  0  0  0  0  0  0  0
    8.8358    1.4809   22.9891 H   0  0  0  0  0  0  0  0  0  0  0  0
    7.8800    1.9116   21.5626 H   0  0  0  0  0  0  0  0  0  0  0  0
    8.4961   -1.0981   22.7588 N   0  0  0  0  0  0  0  0  0  0  0  0
    9.6248   -3.4845   22.9315 H   0  0  0  0  0  0  0  0  0  0  0  0
    8.7686   -4.1388   21.4817 H   0  0  0  0  0  0  0  0  0  0  0  0
    9.0573   -5.7834   23.4923 H   0  0  0  0  0  0  0  0  0  0  0  0
    7.5616   -6.2501   21.5401 H   0  0  0  0  0  0  0  0  0  0  0  0
    7.4101   -7.5311   22.7358 H   0  0  0  0  0  0  0  0  0  0  0  0
    6.1550   -6.2737   22.6107 H   0  0  0  0  0  0  0  0  0  0  0  0
  1  2  1  0
  2  3  1  0
  3  4  1  0
  3  5  1  0
  3  6  1  0
  2  7  1  0
  7  8  1  0
  8  9  1  0
  9 10  2  0
 10 11  1  0
 11 12  1  0
 12 13  2  0
 13 14  1  0
 14 15  2  0
 15 16  1  0
 16 17  2  0
 17 18  1  0
 15 19  1  0
 14 20  1  0
 13 21  1  0
 11 22  1  0
 22 23  1  0
 23 24  1  0
 24 25  2  0
 25 26  1  0
 26 27  2  0
 27 28  1  0
 28 29  1  0
 29 30  1  0
 29 31  1  0
 29 32  1  0
 28 33  2  0
 33 34  1  0
 26 35  1  0
 25 36  1  0
 23 37  1  0
 23 38  1  0
 22 39  2  0
  8 40  1  0
  8 41  1  0
  2 42  1  0
  1 43  1  0
  1 44  1  0
  1 45  1  0
 39  9  1  0
 17 12  1  0
 33 24  1  0
M  END
>  <cnnaffinity>  (1) 
-6.06637

>  <filename>  (1) 
CC(C)OCc1nc(Cc2ccnc(C(F)(F)F)c2)n(-c2cccnc2)n1

$$$$
