
     RDKit          3D

 41 43  0  0  0  0  0  0  0  0999 V2000
    5.2633    2.4214   16.3164 H   0  0  0  0  0  0  0  0  0  0  0  0
    5.6446    1.7626   17.0946 C   0  0  0  0  0  0  0  0  0  0  0  0
    6.8910    1.2963   16.9125 N   0  0  0  0  0  0  0  0  0  0  0  0
    7.4094    0.5247   17.8704 C   0  0  0  0  0  0  0  0  0  0  0  0
    8.4066    0.1277   17.6920 H   0  0  0  0  0  0  0  0  0  0  0  0
    6.7293    0.1801   19.0558 C   0  0  0  0  0  0  0  0  0  0  0  0
    7.3762   -0.5567   20.0751 N   0  0  0  0  0  0  0  0  0  0  0  0
    6.8433   -1.4944   20.9757 C   0  0  0  0  0  0  0  0  0  0  0  0
    5.6859   -1.8816   20.9642 O   0  0  0  0  0  0  0  0  0  0  0  0
    7.9768   -1.8565   21.8559 C   0  0  0  0  0  0  0  0  0  0  0  0
    7.8237   -2.7111   23.0444 C   0  0  0  0  0  0  0  0  0  0  0  0
    6.6066   -2.6530   23.7375 C   0  0  0  0  0  0  0  0  0  0  0  0
    5.8137   -2.0440   23.3394 H   0  0  0  0  0  0  0  0  0  0  0  0
    6.3977   -3.3538   24.9131 C   0  0  0  0  0  0  0  0  0  0  0  0
    5.4422   -3.2506   25.4174 H   0  0  0  0  0  0  0  0  0  0  0  0
    7.3939   -4.1756   25.4589 C   0  0  0  0  0  0  0  0  0  0  0  0
    7.1807   -4.9246   26.7897 C   0  0  0  0  0  0  0  0  0  0  0  0
    6.9831   -6.4282   26.5211 C   0  0  0  0  0  0  0  0  0  0  0  0
    7.8767   -6.8736   26.0674 H   0  0  0  0  0  0  0  0  0  0  0  0
    6.1359   -6.6165   25.8512 H   0  0  0  0  0  0  0  0  0  0  0  0
    6.7720   -6.9360   27.4707 H   0  0  0  0  0  0  0  0  0  0  0  0
    8.3995   -4.7499   27.7209 C   0  0  0  0  0  0  0  0  0  0  0  0
    9.3436   -5.0135   27.2350 H   0  0  0  0  0  0  0  0  0  0  0  0
    8.4859   -3.7078   28.0381 H   0  0  0  0  0  0  0  0  0  0  0  0
    8.2987   -5.3871   28.6075 H   0  0  0  0  0  0  0  0  0  0  0  0
    5.9350   -4.4223   27.5566 C   0  0  0  0  0  0  0  0  0  0  0  0
    5.0144   -4.6693   27.0149 H   0  0  0  0  0  0  0  0  0  0  0  0
    5.9639   -3.3361   27.7137 H   0  0  0  0  0  0  0  0  0  0  0  0
    5.8609   -4.9025   28.5382 H   0  0  0  0  0  0  0  0  0  0  0  0
    8.5919   -4.3042   24.7207 C   0  0  0  0  0  0  0  0  0  0  0  0
    9.3677   -4.9754   25.0845 H   0  0  0  0  0  0  0  0  0  0  0  0
    8.8146   -3.5773   23.5447 C   0  0  0  0  0  0  0  0  0  0  0  0
    9.7560   -3.6960   23.0156 H   0  0  0  0  0  0  0  0  0  0  0  0
    9.0413   -1.1432   21.4173 C   0  0  0  0  0  0  0  0  0  0  0  0
   10.0297   -1.0650   21.8477 H   0  0  0  0  0  0  0  0  0  0  0  0
    8.7529   -0.4358   20.2644 N   0  0  0  0  0  0  0  0  0  0  0  0
    9.1056    0.5098   20.1516 H   0  0  0  0  0  0  0  0  0  0  0  0
    5.4006    0.6050   19.2005 C   0  0  0  0  0  0  0  0  0  0  0  0
    4.8250    0.3069   20.0725 H   0  0  0  0  0  0  0  0  0  0  0  0
    4.8638    1.4241   18.2032 C   0  0  0  0  0  0  0  0  0  0  0  0
    3.8644    1.8353   18.2839 H   0  0  0  0  0  0  0  0  0  0  0  0
  1  2  1  0
  2  3  2  0
  3  4  1  0
  4  5  1  0
  4  6  2  0
  6  7  1  0
  7  8  1  0
  8  9  2  0
  8 10  1  0
 10 11  1  0
 11 12  2  0
 12 13  1  0
 12 14  1  0
 14 15  1  0
 14 16  2  0
 16 17  1  0
 17 18  1  0
 18 19  1  0
 18 20  1  0
 18 21  1  0
 17 22  1  0
 22 23  1  0
 22 24  1  0
 22 25  1  0
 17 26  1  0
 26 27  1  0
 26 28  1  0
 26 29  1  0
 16 30  1  0
 30 31  1  0
 30 32  2  0
 32 33  1  0
 10 34  2  0
 34 35  1  0
 34 36  1  0
 36 37  1  0
  6 38  1  0
 38 39  1  0
 38 40  2  0
 40 41  1  0
 40  2  1  0
 36  7  1  0
 32 11  1  0
M  END
>  <cnnaffinity>  (1) 
-5.25417

>  <filename>  (1) 
CC(C)(C)c1ccc(-c2c[nH]n(-c3cccnc3)c2=O)cc1

$$$$
