
     RDKit          3D

 49 51  0  0  0  0  0  0  0  0999 V2000
    9.4433   -0.1750   26.2898 C   0  0  0  0  0  0  0  0  0  0  0  0
    7.9983    0.3444   26.4018 C   0  0  0  0  0  0  0  0  0  0  0  0
    7.5932    0.7342   27.8265 C   0  0  0  0  0  0  0  0  0  0  0  0
    8.1724    1.5894   28.1846 H   0  0  0  0  0  0  0  0  0  0  0  0
    6.5291    0.9901   27.8872 H   0  0  0  0  0  0  0  0  0  0  0  0
    7.7667   -0.0950   28.5107 H   0  0  0  0  0  0  0  0  0  0  0  0
    7.7986    1.5472   25.4625 C   0  0  0  0  0  0  0  0  0  0  0  0
    8.4784    2.5507   25.5805 O   0  0  0  0  0  0  0  0  0  0  0  0
    6.8455    1.4372   24.4396 N   0  0  0  0  0  0  0  0  0  0  0  0
    5.7678    0.4571   24.4912 C   0  0  0  0  0  0  0  0  0  0  0  0
    4.9471    0.7983   23.8454 H   0  0  0  0  0  0  0  0  0  0  0  0
    6.0855   -0.5509   24.1730 H   0  0  0  0  0  0  0  0  0  0  0  0
    5.3760    0.3840   25.5125 H   0  0  0  0  0  0  0  0  0  0  0  0
    7.2828    1.9028   23.1045 C   0  0  0  0  0  0  0  0  0  0  0  0
    8.2601    0.9595   22.4446 C   0  0  0  0  0  0  0  0  0  0  0  0
    9.5743    1.0342   22.5482 N   0  0  0  0  0  0  0  0  0  0  0  0
    9.9983   -0.1370   22.0181 C   0  0  0  0  0  0  0  0  0  0  0  0
   11.4180   -0.5017   21.8601 C   0  0  0  0  0  0  0  0  0  0  0  0
   12.4681    0.3057   22.3419 C   0  0  0  0  0  0  0  0  0  0  0  0
   13.7936   -0.0855   22.1360 C   0  0  0  0  0  0  0  0  0  0  0  0
   14.0712   -1.2264   21.3806 C   0  0  0  0  0  0  0  0  0  0  0  0
   13.0394   -1.9670   20.8251 C   0  0  0  0  0  0  0  0  0  0  0  0
   11.7208   -1.6549   21.1251 C   0  0  0  0  0  0  0  0  0  0  0  0
   10.8991   -2.2784   20.7807 H   0  0  0  0  0  0  0  0  0  0  0  0
   13.2862   -2.7750   20.1474 H   0  0  0  0  0  0  0  0  0  0  0  0
   15.0712   -1.5695   21.1877 H   0  0  0  0  0  0  0  0  0  0  0  0
   14.5959    0.5426   22.5089 H   0  0  0  0  0  0  0  0  0  0  0  0
   12.2466    1.2242   22.8790 H   0  0  0  0  0  0  0  0  0  0  0  0
    9.0136   -0.9116   21.5786 N   0  0  0  0  0  0  0  0  0  0  0  0
    7.8996   -0.2079   21.8637 N   0  0  0  0  0  0  0  0  0  0  0  0
    6.6207   -0.6138   21.2809 C   0  0  0  0  0  0  0  0  0  0  0  0
    6.2030    0.1749   20.0543 C   0  0  0  0  0  0  0  0  0  0  0  0
    5.0042    0.8951   19.9987 C   0  0  0  0  0  0  0  0  0  0  0  0
    4.6602    1.5428   18.8096 C   0  0  0  0  0  0  0  0  0  0  0  0
    5.5320    1.4514   17.7221 C   0  0  0  0  0  0  0  0  0  0  0  0
    6.6953    0.7829   17.7598 N   0  0  0  0  0  0  0  0  0  0  0  0
    7.0173    0.1766   18.9090 C   0  0  0  0  0  0  0  0  0  0  0  0
    7.9747   -0.3448   18.9252 H   0  0  0  0  0  0  0  0  0  0  0  0
    5.2886    1.9291   16.7743 H   0  0  0  0  0  0  0  0  0  0  0  0
    3.7485    2.1237   18.7182 H   0  0  0  0  0  0  0  0  0  0  0  0
    4.3512    0.9562   20.8725 H   0  0  0  0  0  0  0  0  0  0  0  0
    6.7351   -1.6751   21.0475 H   0  0  0  0  0  0  0  0  0  0  0  0
    5.8464   -0.5414   22.0440 H   0  0  0  0  0  0  0  0  0  0  0  0
    6.4137    2.0555   22.4532 H   0  0  0  0  0  0  0  0  0  0  0  0
    7.7873    2.8634   23.2402 H   0  0  0  0  0  0  0  0  0  0  0  0
    7.3495   -0.4726   26.0711 H   0  0  0  0  0  0  0  0  0  0  0  0
    9.6692   -0.5298   25.2764 H   0  0  0  0  0  0  0  0  0  0  0  0
    9.6131   -1.0095   26.9790 H   0  0  0  0  0  0  0  0  0  0  0  0
   10.1649    0.6108   26.5281 H   0  0  0  0  0  0  0  0  0  0  0  0
  1  2  1  0
  2  3  1  0
  3  4  1  0
  3  5  1  0
  3  6  1  0
  2  7  1  0
  7  8  2  0
  7  9  1  0
  9 10  1  0
 10 11  1  0
 10 12  1  0
 10 13  1  0
  9 14  1  0
 14 15  1  0
 15 16  2  0
 16 17  1  0
 17 18  1  0
 18 19  2  0
 19 20  1  0
 20 21  2  0
 21 22  1  0
 22 23  2  0
 23 24  1  0
 22 25  1  0
 21 26  1  0
 20 27  1  0
 19 28  1  0
 17 29  2  0
 29 30  1  0
 30 31  1  0
 31 32  1  0
 32 33  2  0
 33 34  1  0
 34 35  2  0
 35 36  1  0
 36 37  2  0
 37 38  1  0
 35 39  1  0
 34 40  1  0
 33 41  1  0
 31 42  1  0
 31 43  1  0
 14 44  1  0
 14 45  1  0
  2 46  1  0
  1 47  1  0
  1 48  1  0
  1 49  1  0
 30 15  1  0
 37 32  1  0
 23 18  1  0
M  END
>  <cnnaffinity>  (1) 
-6.28984

>  <filename>  (1) 
CC(C)C(=O)N(C)Cc1nc(-c2ccccc2)nn1Cc1cccnc1

$$$$
