
     RDKit          3D

 49 52  0  0  0  0  0  0  0  0999 V2000
    8.1494    2.5052   21.7188 C   0  0  0  0  0  0  0  0  0  0  0  0
    9.4865    1.7965   21.9043 C   0  0  0  0  0  0  0  0  0  0  0  0
    9.5771    0.5261   21.0079 C   0  0  0  0  0  0  0  0  0  0  0  0
    8.6263   -0.5648   21.3757 C   0  0  0  0  0  0  0  0  0  0  0  0
    8.8628   -1.4676   22.3037 N   0  0  0  0  0  0  0  0  0  0  0  0
    7.6517   -2.0637   22.4784 C   0  0  0  0  0  0  0  0  0  0  0  0
    7.4300   -3.1000   23.5406 C   0  0  0  0  0  0  0  0  0  0  0  0
    7.6266   -2.5073   24.9670 C   0  0  0  0  0  0  0  0  0  0  0  0
    7.4164   -3.5728   26.0575 C   0  0  0  0  0  0  0  0  0  0  0  0
    8.3105   -4.7806   25.8215 C   0  0  0  0  0  0  0  0  0  0  0  0
    9.6231   -4.4153   26.0322 F   0  0  0  0  0  0  0  0  0  0  0  0
    8.0203   -5.7465   26.7475 F   0  0  0  0  0  0  0  0  0  0  0  0
    8.1748   -5.3696   24.4247 C   0  0  0  0  0  0  0  0  0  0  0  0
    8.3827   -4.3076   23.3315 C   0  0  0  0  0  0  0  0  0  0  0  0
    8.2180   -4.7444   22.3389 H   0  0  0  0  0  0  0  0  0  0  0  0
    9.4228   -3.9473   23.3444 H   0  0  0  0  0  0  0  0  0  0  0  0
    8.8886   -6.1950   24.3402 H   0  0  0  0  0  0  0  0  0  0  0  0
    7.1614   -5.7889   24.3523 H   0  0  0  0  0  0  0  0  0  0  0  0
    6.3767   -3.9292   26.0571 H   0  0  0  0  0  0  0  0  0  0  0  0
    7.6356   -3.1881   27.0598 H   0  0  0  0  0  0  0  0  0  0  0  0
    8.6554   -2.1235   25.0412 H   0  0  0  0  0  0  0  0  0  0  0  0
    6.9474   -1.6592   25.1322 H   0  0  0  0  0  0  0  0  0  0  0  0
    6.3839   -3.4232   23.4296 H   0  0  0  0  0  0  0  0  0  0  0  0
    6.7026   -1.6326   21.6731 N   0  0  0  0  0  0  0  0  0  0  0  0
    7.3407   -0.6887   20.9281 N   0  0  0  0  0  0  0  0  0  0  0  0
    6.6534   -0.0057   19.8876 C   0  0  0  0  0  0  0  0  0  0  0  0
    5.4410    0.6400   20.1484 C   0  0  0  0  0  0  0  0  0  0  0  0
    4.8034    1.3148   19.1007 C   0  0  0  0  0  0  0  0  0  0  0  0
    5.3947    1.3006   17.8332 C   0  0  0  0  0  0  0  0  0  0  0  0
    6.5489    0.6677   17.5689 N   0  0  0  0  0  0  0  0  0  0  0  0
    7.1617    0.0378   18.5795 C   0  0  0  0  0  0  0  0  0  0  0  0
    8.1031   -0.4566   18.3380 H   0  0  0  0  0  0  0  0  0  0  0  0
    4.9290    1.8144   16.9951 H   0  0  0  0  0  0  0  0  0  0  0  0
    3.8691    1.8496   19.2524 H   0  0  0  0  0  0  0  0  0  0  0  0
    5.0198    0.5966   21.1531 H   0  0  0  0  0  0  0  0  0  0  0  0
    9.3777    0.8277   19.9800 H   0  0  0  0  0  0  0  0  0  0  0  0
   10.5847    0.1074   21.0532 H   0  0  0  0  0  0  0  0  0  0  0  0
    9.7681    1.5122   23.3195 N   0  0  0  0  0  0  0  0  0  0  0  0
   10.9965    1.2790   23.8538 C   0  0  0  0  0  0  0  0  0  0  0  0
   10.7968    0.8667   25.1571 C   0  0  0  0  0  0  0  0  0  0  0  0
    9.3911    0.8929   25.3096 C   0  0  0  0  0  0  0  0  0  0  0  0
    8.7856    1.2802   24.2010 N   0  0  0  0  0  0  0  0  0  0  0  0
    8.7606    0.6325   26.1542 H   0  0  0  0  0  0  0  0  0  0  0  0
   11.5299    0.5712   25.8953 H   0  0  0  0  0  0  0  0  0  0  0  0
   11.8797    1.4402   23.2465 H   0  0  0  0  0  0  0  0  0  0  0  0
   10.3081    2.4564   21.5937 H   0  0  0  0  0  0  0  0  0  0  0  0
    7.3259    1.9099   22.1297 H   0  0  0  0  0  0  0  0  0  0  0  0
    8.1453    3.4770   22.2188 H   0  0  0  0  0  0  0  0  0  0  0  0
    7.9863    2.6324   20.6511 H   0  0  0  0  0  0  0  0  0  0  0  0
  1  2  1  0
  2  3  1  0
  3  4  1  0
  4  5  2  0
  5  6  1  0
  6  7  1  0
  7  8  1  0
  8  9  1  0
  9 10  1  0
 10 11  1  0
 10 12  1  0
 10 13  1  0
 13 14  1  0
 14 15  1  0
 14 16  1  0
 13 17  1  0
 13 18  1  0
  9 19  1  0
  9 20  1  0
  8 21  1  0
  8 22  1  0
  7 23  1  0
  6 24  2  0
 24 25  1  0
 25 26  1  0
 26 27  2  0
 27 28  1  0
 28 29  2  0
 29 30  1  0
 30 31  2  0
 31 32  1  0
 29 33  1  0
 28 34  1  0
 27 35  1  0
  3 36  1  0
  3 37  1  0
  2 38  1  0
 38 39  1  0
 39 40  2  0
 40 41  1  0
 41 42  2  0
 41 43  1  0
 40 44  1  0
 39 45  1  0
  2 46  1  0
  1 47  1  0
  1 48  1  0
  1 49  1  0
 25  4  1  0
 31 26  1  0
 42 38  1  0
 14  7  1  0
M  END
>  <cnnaffinity>  (1) 
-6.45871

>  <filename>  (1) 
CC(Cc1nc(C2CCC(F)(F)CC2)nn1-c1cccnc1)n1cccn1

$$$$
