
     RDKit          3D

 43 46  0  0  0  0  0  0  0  0999 V2000
    6.5879   -4.2052   23.2539 C   0  0  0  0  0  0  0  0  0  0  0  0
    7.3216   -2.9336   23.7099 C   0  0  0  0  0  0  0  0  0  0  0  0
    7.5615   -1.9758   22.5777 C   0  0  0  0  0  0  0  0  0  0  0  0
    6.6175   -1.5629   21.7477 N   0  0  0  0  0  0  0  0  0  0  0  0
    7.2842   -0.7056   20.9339 N   0  0  0  0  0  0  0  0  0  0  0  0
    6.6265   -0.0198   19.8826 C   0  0  0  0  0  0  0  0  0  0  0  0
    5.4225    0.6382   20.1445 C   0  0  0  0  0  0  0  0  0  0  0  0
    4.8017    1.3164   19.0962 C   0  0  0  0  0  0  0  0  0  0  0  0
    5.3990    1.3009   17.8299 C   0  0  0  0  0  0  0  0  0  0  0  0
    6.5483    0.6594   17.5676 N   0  0  0  0  0  0  0  0  0  0  0  0
    7.1499    0.0221   18.5769 C   0  0  0  0  0  0  0  0  0  0  0  0
    8.0937   -0.4680   18.3348 H   0  0  0  0  0  0  0  0  0  0  0  0
    4.9363    1.8196   16.9952 H   0  0  0  0  0  0  0  0  0  0  0  0
    3.8717    1.8526   19.2517 H   0  0  0  0  0  0  0  0  0  0  0  0
    5.0073    0.6007   21.1511 H   0  0  0  0  0  0  0  0  0  0  0  0
    8.5756   -0.6261   21.3479 C   0  0  0  0  0  0  0  0  0  0  0  0
    9.5957    0.2138   20.6573 C   0  0  0  0  0  0  0  0  0  0  0  0
   10.6315    0.7270   21.5362 N   0  0  0  0  0  0  0  0  0  0  0  0
   10.5547    1.7707   22.4294 C   0  0  0  0  0  0  0  0  0  0  0  0
   11.6194    1.8637   23.1811 N   0  0  0  0  0  0  0  0  0  0  0  0
   12.4284    0.8113   22.7901 C   0  0  0  0  0  0  0  0  0  0  0  0
   13.8185    0.5065   23.3058 C   0  0  0  0  0  0  0  0  0  0  0  0
   14.2175   -0.7178   22.8805 F   0  0  0  0  0  0  0  0  0  0  0  0
   13.9073    0.4963   24.6424 F   0  0  0  0  0  0  0  0  0  0  0  0
   14.7202    1.3861   22.8429 F   0  0  0  0  0  0  0  0  0  0  0  0
   11.8205    0.0994   21.7938 C   0  0  0  0  0  0  0  0  0  0  0  0
   12.1074   -0.8064   21.2747 H   0  0  0  0  0  0  0  0  0  0  0  0
    9.6626    2.3797   22.4928 H   0  0  0  0  0  0  0  0  0  0  0  0
   10.0816   -0.4414   19.9277 H   0  0  0  0  0  0  0  0  0  0  0  0
    9.1088    1.0297   20.1170 H   0  0  0  0  0  0  0  0  0  0  0  0
    8.7854   -1.4446   22.3570 N   0  0  0  0  0  0  0  0  0  0  0  0
    6.5991   -2.2127   24.8506 C   0  0  0  0  0  0  0  0  0  0  0  0
    6.8160   -2.6357   26.2717 C   0  0  0  0  0  0  0  0  0  0  0  0
    7.3859   -1.3316   25.7749 C   0  0  0  0  0  0  0  0  0  0  0  0
    8.4603   -1.2695   25.6056 H   0  0  0  0  0  0  0  0  0  0  0  0
    6.9469   -0.3964   26.1156 H   0  0  0  0  0  0  0  0  0  0  0  0
    7.5006   -3.4613   26.4538 H   0  0  0  0  0  0  0  0  0  0  0  0
    5.9645   -2.6133   26.9461 H   0  0  0  0  0  0  0  0  0  0  0  0
    5.5940   -1.8706   24.5978 H   0  0  0  0  0  0  0  0  0  0  0  0
    8.3329   -3.1984   24.0533 H   0  0  0  0  0  0  0  0  0  0  0  0
    5.6077   -3.9503   22.8352 H   0  0  0  0  0  0  0  0  0  0  0  0
    6.4410   -4.8946   24.0919 H   0  0  0  0  0  0  0  0  0  0  0  0
    7.1560   -4.7265   22.4755 H   0  0  0  0  0  0  0  0  0  0  0  0
  1  2  1  0
  2  3  1  0
  3  4  2  0
  4  5  1  0
  5  6  1  0
  6  7  2  0
  7  8  1  0
  8  9  2  0
  9 10  1  0
 10 11  2  0
 11 12  1  0
  9 13  1  0
  8 14  1  0
  7 15  1  0
  5 16  1  0
 16 17  1  0
 17 18  1  0
 18 19  1  0
 19 20  2  0
 20 21  1  0
 21 22  1  0
 22 23  1  0
 22 24  1  0
 22 25  1  0
 21 26  2  0
 26 27  1  0
 19 28  1  0
 17 29  1  0
 17 30  1  0
 16 31  2  0
  2 32  1  0
 32 33  1  0
 33 34  1  0
 34 35  1  0
 34 36  1  0
 33 37  1  0
 33 38  1  0
 32 39  1  0
  2 40  1  0
  1 41  1  0
  1 42  1  0
  1 43  1  0
 31  3  1  0
 34 32  1  0
 11  6  1  0
 26 18  1  0
M  END
>  <cnnaffinity>  (1) 
-6.59152

>  <filename>  (1) 
CC(c1nc(Cn2cnc(C(F)(F)F)c2)n(-c2cccnc2)n1)C1CC1

$$$$
