
     RDKit          3D

 49 52  0  0  0  0  0  0  0  0999 V2000
    9.9027   -0.4782   24.8747 C   0  0  0  0  0  0  0  0  0  0  0  0
    9.0477    0.7970   24.8251 C   0  0  0  0  0  0  0  0  0  0  0  0
    9.2623    1.7016   26.0488 C   0  0  0  0  0  0  0  0  0  0  0  0
    8.7555    2.6642   25.9089 H   0  0  0  0  0  0  0  0  0  0  0  0
   10.3337    1.8778   26.1958 H   0  0  0  0  0  0  0  0  0  0  0  0
    8.8514    1.2299   26.9486 H   0  0  0  0  0  0  0  0  0  0  0  0
    7.5818    0.4751   24.6871 C   0  0  0  0  0  0  0  0  0  0  0  0
    6.9383   -0.3229   25.5114 N   0  0  0  0  0  0  0  0  0  0  0  0
    5.6216   -0.2571   25.1470 C   0  0  0  0  0  0  0  0  0  0  0  0
    5.4741    0.5835   24.0800 C   0  0  0  0  0  0  0  0  0  0  0  0
    6.7280    1.0523   23.7728 N   0  0  0  0  0  0  0  0  0  0  0  0
    7.0720    1.8089   22.5597 C   0  0  0  0  0  0  0  0  0  0  0  0
    8.1252    1.1195   21.7303 C   0  0  0  0  0  0  0  0  0  0  0  0
    9.3860    1.4938   21.6564 N   0  0  0  0  0  0  0  0  0  0  0  0
   10.0402    0.3190   21.4296 C   0  0  0  0  0  0  0  0  0  0  0  0
   11.4838    0.2050   21.7424 C   0  0  0  0  0  0  0  0  0  0  0  0
   12.1978   -0.9807   21.4887 C   0  0  0  0  0  0  0  0  0  0  0  0
   13.5334   -1.0319   21.8627 C   0  0  0  0  0  0  0  0  0  0  0  0
   14.2501   -2.1270   21.5640 F   0  0  0  0  0  0  0  0  0  0  0  0
   14.1540    0.0180   22.5308 C   0  0  0  0  0  0  0  0  0  0  0  0
   13.4178    1.1554   22.8649 C   0  0  0  0  0  0  0  0  0  0  0  0
   12.1006    1.2725   22.4311 C   0  0  0  0  0  0  0  0  0  0  0  0
   11.5496    2.1949   22.6055 H   0  0  0  0  0  0  0  0  0  0  0  0
   13.8753    1.9482   23.4570 H   0  0  0  0  0  0  0  0  0  0  0  0
   15.1963   -0.0756   22.7571 H   0  0  0  0  0  0  0  0  0  0  0  0
   11.7382   -1.8474   21.0177 H   0  0  0  0  0  0  0  0  0  0  0  0
    9.2390   -0.6978   21.1481 N   0  0  0  0  0  0  0  0  0  0  0  0
    8.0038   -0.1681   21.3424 N   0  0  0  0  0  0  0  0  0  0  0  0
    6.8062   -0.8765   20.9081 C   0  0  0  0  0  0  0  0  0  0  0  0
    6.1701   -0.1737   19.7266 C   0  0  0  0  0  0  0  0  0  0  0  0
    4.9785    0.5521   19.8242 C   0  0  0  0  0  0  0  0  0  0  0  0
    4.5607    1.3225   18.7344 C   0  0  0  0  0  0  0  0  0  0  0  0
    5.3423    1.3181   17.5774 C   0  0  0  0  0  0  0  0  0  0  0  0
    6.4683    0.6020   17.4472 N   0  0  0  0  0  0  0  0  0  0  0  0
    6.8667   -0.1114   18.5067 C   0  0  0  0  0  0  0  0  0  0  0  0
    7.7991   -0.6618   18.3791 H   0  0  0  0  0  0  0  0  0  0  0  0
    5.0641    1.9290   16.7216 H   0  0  0  0  0  0  0  0  0  0  0  0
    3.6716    1.9408   18.7809 H   0  0  0  0  0  0  0  0  0  0  0  0
    4.3842    0.5299   20.7400 H   0  0  0  0  0  0  0  0  0  0  0  0
    7.1415   -1.8914   20.6775 H   0  0  0  0  0  0  0  0  0  0  0  0
    6.1127   -0.9400   21.7557 H   0  0  0  0  0  0  0  0  0  0  0  0
    6.1668    1.9175   21.9595 H   0  0  0  0  0  0  0  0  0  0  0  0
    7.4295    2.8069   22.8264 H   0  0  0  0  0  0  0  0  0  0  0  0
    4.6188    0.8308   23.4697 H   0  0  0  0  0  0  0  0  0  0  0  0
    4.8581   -0.8059   25.6820 H   0  0  0  0  0  0  0  0  0  0  0  0
    9.3613    1.3731   23.9510 H   0  0  0  0  0  0  0  0  0  0  0  0
    9.7805   -1.0800   23.9654 H   0  0  0  0  0  0  0  0  0  0  0  0
   10.9651   -0.2088   24.9218 H   0  0  0  0  0  0  0  0  0  0  0  0
    9.6455   -1.0988   25.7445 H   0  0  0  0  0  0  0  0  0  0  0  0
  1  2  1  0
  2  3  1  0
  3  4  1  0
  3  5  1  0
  3  6  1  0
  2  7  1  0
  7  8  2  0
  8  9  1  0
  9 10  2  0
 10 11  1  0
 11 12  1  0
 12 13  1  0
 13 14  2  0
 14 15  1  0
 15 16  1  0
 16 17  2  0
 17 18  1  0
 18 19  1  0
 18 20  2  0
 20 21  1  0
 21 22  2  0
 22 23  1  0
 21 24  1  0
 20 25  1  0
 17 26  1  0
 15 27  2  0
 27 28  1  0
 28 29  1  0
 29 30  1  0
 30 31  2  0
 31 32  1  0
 32 33  2  0
 33 34  1  0
 34 35  2  0
 35 36  1  0
 33 37  1  0
 32 38  1  0
 31 39  1  0
 29 40  1  0
 29 41  1  0
 12 42  1  0
 12 43  1  0
 10 44  1  0
  9 45  1  0
  2 46  1  0
  1 47  1  0
  1 48  1  0
  1 49  1  0
 11  7  1  0
 28 13  1  0
 35 30  1  0
 22 16  1  0
M  END
>  <cnnaffinity>  (1) 
-6.63674

>  <filename>  (1) 
CC(C)c1nccn1Cc1nc(-c2cccc(F)c2)nn1Cc1cccnc1

$$$$
