
     RDKit          3D

 46 49  0  0  0  0  0  0  0  0999 V2000
    6.6102   -4.3021   23.4244 C   0  0  0  0  0  0  0  0  0  0  0  0
    7.4983   -3.1124   23.8162 C   0  0  0  0  0  0  0  0  0  0  0  0
    7.7214   -2.1241   22.6850 C   0  0  0  0  0  0  0  0  0  0  0  0
    6.8293   -1.8496   21.7528 N   0  0  0  0  0  0  0  0  0  0  0  0
    7.4096   -0.8384   21.0493 N   0  0  0  0  0  0  0  0  0  0  0  0
    6.7383   -0.3146   19.9056 C   0  0  0  0  0  0  0  0  0  0  0  0
    5.4465    0.2052   20.0451 C   0  0  0  0  0  0  0  0  0  0  0  0
    4.8425    0.7803   18.9229 C   0  0  0  0  0  0  0  0  0  0  0  0
    5.5220    0.7557   17.6996 C   0  0  0  0  0  0  0  0  0  0  0  0
    6.7320    0.1964   17.5440 N   0  0  0  0  0  0  0  0  0  0  0  0
    7.3188   -0.3333   18.6255 C   0  0  0  0  0  0  0  0  0  0  0  0
    8.2942   -0.7908   18.4654 H   0  0  0  0  0  0  0  0  0  0  0  0
    5.0711    1.1860   16.8068 H   0  0  0  0  0  0  0  0  0  0  0  0
    3.8693    1.2545   18.9880 H   0  0  0  0  0  0  0  0  0  0  0  0
    4.9492    0.1606   21.0159 H   0  0  0  0  0  0  0  0  0  0  0  0
    8.5994   -0.5275   21.6332 C   0  0  0  0  0  0  0  0  0  0  0  0
    9.4467    0.6680   21.2690 C   0  0  0  0  0  0  0  0  0  0  0  0
    8.8821    2.0248   21.7297 N   0  0  0  0  0  0  0  0  0  0  0  0
    7.6711    2.4631   21.3580 C   0  0  0  0  0  0  0  0  0  0  0  0
    7.8907    4.4136   22.3076 C   0  0  0  0  0  0  0  0  0  0  0  0
    7.9064    4.7733   22.3089 C   0  0  0  0  0  0  0  0  0  0  0  0
    8.7235    3.8748   23.3151 C   0  0  0  0  0  0  0  0  0  0  0  0
    8.2361    3.5165   24.6950 C   0  0  0  0  0  0  0  0  0  0  0  0
    7.6098    4.5248   25.3207 F   0  0  0  0  0  0  0  0  0  0  0  0
    9.1988    3.0962   25.5232 F   0  0  0  0  0  0  0  0  0  0  0  0
    7.3524    2.5002   24.5665 F   0  0  0  0  0  0  0  0  0  0  0  0
    9.5266    2.6912   22.8249 C   0  0  0  0  0  0  0  0  0  0  0  0
   10.5470    2.3075   23.3239 O   0  0  0  0  0  0  0  0  0  0  0  0
    6.7286    4.5155   22.3139 H   0  0  0  0  0  0  0  0  0  0  0  0
    8.3428    6.1288   21.9647 H   0  0  0  0  0  0  0  0  0  0  0  0
    7.0927    1.9147   20.6421 H   0  0  0  0  0  0  0  0  0  0  0  0
   10.4263    0.5143   21.7319 H   0  0  0  0  0  0  0  0  0  0  0  0
    9.5959    0.6709   20.1788 H   0  0  0  0  0  0  0  0  0  0  0  0
    8.8495   -1.3646   22.6228 N   0  0  0  0  0  0  0  0  0  0  0  0
    6.9751   -2.4320   25.1001 C   0  0  0  0  0  0  0  0  0  0  0  0
    6.3040   -1.0838   25.1041 C   0  0  0  0  0  0  0  0  0  0  0  0
    7.6798   -1.2440   25.6904 C   0  0  0  0  0  0  0  0  0  0  0  0
    8.5015   -0.8192   25.1164 H   0  0  0  0  0  0  0  0  0  0  0  0
    7.8119   -1.2002   26.7695 H   0  0  0  0  0  0  0  0  0  0  0  0
    6.2346   -0.5576   24.1509 H   0  0  0  0  0  0  0  0  0  0  0  0
    5.4527   -0.9294   25.7643 H   0  0  0  0  0  0  0  0  0  0  0  0
    6.5955   -3.1515   25.8280 H   0  0  0  0  0  0  0  0  0  0  0  0
    8.5095   -3.4763   24.0444 H   0  0  0  0  0  0  0  0  0  0  0  0
    7.0314   -4.8624   22.5844 H   0  0  0  0  0  0  0  0  0  0  0  0
    6.5175   -4.9890   24.2733 H   0  0  0  0  0  0  0  0  0  0  0  0
    5.6068   -3.9658   23.1447 H   0  0  0  0  0  0  0  0  0  0  0  0
  1  2  1  0
  2  3  1  0
  3  4  2  0
  4  5  1  0
  5  6  1  0
  6  7  2  0
  7  8  1  0
  8  9  2  0
  9 10  1  0
 10 11  2  0
 11 12  1  0
  9 13  1  0
  8 14  1  0
  7 15  1  0
  5 16  1  0
 16 17  1  0
 17 18  1  0
 18 19  1  0
 19 20  2  0
 20 21  1  0
 21 22  2  0
 22 23  1  0
 23 24  1  0
 23 25  1  0
 23 26  1  0
 22 27  1  0
 27 28  2  0
 21 29  1  0
 20 30  1  0
 19 31  1  0
 17 32  1  0
 17 33  1  0
 16 34  2  0
  2 35  1  0
 35 36  1  0
 36 37  1  0
 37 38  1  0
 37 39  1  0
 36 40  1  0
 36 41  1  0
 35 42  1  0
  2 43  1  0
  1 44  1  0
  1 45  1  0
  1 46  1  0
 34  3  1  0
 37 35  1  0
 11  6  1  0
 27 18  1  0
M  END
>  <cnnaffinity>  (1) 
-6.24414

>  <filename>  (1) 
CC(c1nc(Cn2cccc(C(F)(F)F)c2=O)n(-c2cccnc2)n1)C1CC1

$$$$
