
     RDKit          3D

 46 49  0  0  0  0  0  0  0  0999 V2000
    7.8940    4.3023   22.1535 C   0  0  0  0  0  0  0  0  0  0  0  0
    8.0255    2.7707   22.2080 C   0  0  0  0  0  0  0  0  0  0  0  0
    7.0128    2.1886   23.2215 C   0  0  0  0  0  0  0  0  0  0  0  0
    7.0307    1.0919   23.2672 H   0  0  0  0  0  0  0  0  0  0  0  0
    7.2170    2.5747   24.2283 H   0  0  0  0  0  0  0  0  0  0  0  0
    5.9945    2.4918   22.9499 H   0  0  0  0  0  0  0  0  0  0  0  0
    9.4415    2.3467   22.5508 C   0  0  0  0  0  0  0  0  0  0  0  0
   10.1422    2.8137   23.5587 N   0  0  0  0  0  0  0  0  0  0  0  0
   11.3060    2.0881   23.5892 C   0  0  0  0  0  0  0  0  0  0  0  0
   11.3077    1.1691   22.5800 C   0  0  0  0  0  0  0  0  0  0  0  0
   10.1175    1.3365   21.9049 N   0  0  0  0  0  0  0  0  0  0  0  0
    9.6201    0.4157   20.8901 C   0  0  0  0  0  0  0  0  0  0  0  0
    8.6088   -0.5561   21.4050 C   0  0  0  0  0  0  0  0  0  0  0  0
    8.8410   -1.4193   22.3640 N   0  0  0  0  0  0  0  0  0  0  0  0
    7.6380   -2.0316   22.5345 C   0  0  0  0  0  0  0  0  0  0  0  0
    7.4085   -3.0311   23.6058 C   0  0  0  0  0  0  0  0  0  0  0  0
    6.1322   -3.6044   23.7667 C   0  0  0  0  0  0  0  0  0  0  0  0
    5.9378   -4.5403   24.7728 C   0  0  0  0  0  0  0  0  0  0  0  0
    4.7230   -5.0956   24.9095 F   0  0  0  0  0  0  0  0  0  0  0  0
    6.9618   -4.9180   25.6360 C   0  0  0  0  0  0  0  0  0  0  0  0
    8.2268   -4.3349   25.4906 C   0  0  0  0  0  0  0  0  0  0  0  0
    8.4532   -3.3930   24.4830 C   0  0  0  0  0  0  0  0  0  0  0  0
    9.4318   -2.9296   24.3710 H   0  0  0  0  0  0  0  0  0  0  0  0
    9.0388   -4.6154   26.1609 H   0  0  0  0  0  0  0  0  0  0  0  0
    6.7437   -5.6534   26.3994 H   0  0  0  0  0  0  0  0  0  0  0  0
    5.2999   -3.3238   23.1292 H   0  0  0  0  0  0  0  0  0  0  0  0
    6.6945   -1.6188   21.7001 N   0  0  0  0  0  0  0  0  0  0  0  0
    7.3307   -0.6873   20.9492 N   0  0  0  0  0  0  0  0  0  0  0  0
    6.6466   -0.0162   19.8944 C   0  0  0  0  0  0  0  0  0  0  0  0
    5.4407    0.6398   20.1556 C   0  0  0  0  0  0  0  0  0  0  0  0
    4.8049    1.3140   19.1069 C   0  0  0  0  0  0  0  0  0  0  0  0
    5.3935    1.2954   17.8368 C   0  0  0  0  0  0  0  0  0  0  0  0
    6.5410    0.6521   17.5726 N   0  0  0  0  0  0  0  0  0  0  0  0
    7.1506    0.0200   18.5823 C   0  0  0  0  0  0  0  0  0  0  0  0
    8.0941   -0.4678   18.3384 H   0  0  0  0  0  0  0  0  0  0  0  0
    4.9319    1.8138   16.9980 H   0  0  0  0  0  0  0  0  0  0  0  0
    3.8723    1.8516   19.2556 H   0  0  0  0  0  0  0  0  0  0  0  0
    5.0328    0.6122   21.1656 H   0  0  0  0  0  0  0  0  0  0  0  0
    9.2152    0.9670   20.0428 H   0  0  0  0  0  0  0  0  0  0  0  0
   10.4717   -0.1842   20.5562 H   0  0  0  0  0  0  0  0  0  0  0  0
   12.0114    0.3969   22.2932 H   0  0  0  0  0  0  0  0  0  0  0  0
   12.0497    2.2676   24.3586 H   0  0  0  0  0  0  0  0  0  0  0  0
    7.7908    2.3577   21.2157 H   0  0  0  0  0  0  0  0  0  0  0  0
    8.5490    4.7565   21.4090 H   0  0  0  0  0  0  0  0  0  0  0  0
    6.8684    4.5907   21.8983 H   0  0  0  0  0  0  0  0  0  0  0  0
    8.1397    4.7352   23.1288 H   0  0  0  0  0  0  0  0  0  0  0  0
  1  2  1  0
  2  3  1  0
  3  4  1  0
  3  5  1  0
  3  6  1  0
  2  7  1  0
  7  8  2  0
  8  9  1  0
  9 10  2  0
 10 11  1  0
 11 12  1  0
 12 13  1  0
 13 14  2  0
 14 15  1  0
 15 16  1  0
 16 17  2  0
 17 18  1  0
 18 19  1  0
 18 20  2  0
 20 21  1  0
 21 22  2  0
 22 23  1  0
 21 24  1  0
 20 25  1  0
 17 26  1  0
 15 27  2  0
 27 28  1  0
 28 29  1  0
 29 30  2  0
 30 31  1  0
 31 32  2  0
 32 33  1  0
 33 34  2  0
 34 35  1  0
 32 36  1  0
 31 37  1  0
 30 38  1  0
 12 39  1  0
 12 40  1  0
 10 41  1  0
  9 42  1  0
  2 43  1  0
  1 44  1  0
  1 45  1  0
  1 46  1  0
 11  7  1  0
 28 13  1  0
 34 29  1  0
 22 16  1  0
M  END
>  <cnnaffinity>  (1) 
-6.12628

>  <filename>  (1) 
CC(C)c1nccn1Cc1nc(-c2cccc(F)c2)nn1-c1cccnc1

$$$$
