
     RDKit          3D

 44 46  0  0  0  0  0  0  0  0999 V2000
    7.3942    0.0946   24.9009 C   0  0  0  0  0  0  0  0  0  0  0  0
    7.0862   -1.1844   25.6828 C   0  0  0  0  0  0  0  0  0  0  0  0
    5.5864   -1.4405   25.6634 C   0  0  0  0  0  0  0  0  0  0  0  0
    5.0421   -0.6189   26.1343 H   0  0  0  0  0  0  0  0  0  0  0  0
    5.3353   -2.3616   26.1927 H   0  0  0  0  0  0  0  0  0  0  0  0
    5.2651   -1.5339   24.6271 H   0  0  0  0  0  0  0  0  0  0  0  0
    7.8331   -2.3944   25.1001 C   0  0  0  0  0  0  0  0  0  0  0  0
    7.3444   -2.9107   23.7254 C   0  0  0  0  0  0  0  0  0  0  0  0
    7.5369   -1.9454   22.6128 C   0  0  0  0  0  0  0  0  0  0  0  0
    6.5936   -1.5653   21.7861 N   0  0  0  0  0  0  0  0  0  0  0  0
    7.2470   -0.7010   20.9789 N   0  0  0  0  0  0  0  0  0  0  0  0
    6.6345   -0.0178   19.9208 C   0  0  0  0  0  0  0  0  0  0  0  0
    5.4185    0.6264   20.1435 C   0  0  0  0  0  0  0  0  0  0  0  0
    4.8133    1.2953   19.0825 C   0  0  0  0  0  0  0  0  0  0  0  0
    5.4280    1.3048   17.8268 C   0  0  0  0  0  0  0  0  0  0  0  0
    6.5999    0.6815   17.5943 N   0  0  0  0  0  0  0  0  0  0  0  0
    7.1852    0.0416   18.6259 C   0  0  0  0  0  0  0  0  0  0  0  0
    8.1364   -0.4512   18.4461 H   0  0  0  0  0  0  0  0  0  0  0  0
    4.9302    1.8377   17.0219 H   0  0  0  0  0  0  0  0  0  0  0  0
    3.8767    1.8266   19.2205 H   0  0  0  0  0  0  0  0  0  0  0  0
    4.9789    0.6239   21.1394 H   0  0  0  0  0  0  0  0  0  0  0  0
    8.5709   -0.6221   21.3888 C   0  0  0  0  0  0  0  0  0  0  0  0
    9.6317    0.2571   20.8151 C   0  0  0  0  0  0  0  0  0  0  0  0
   10.3487    1.0558   21.8892 C   0  0  0  0  0  0  0  0  0  0  0  0
   11.6051    0.6251   22.3098 C   0  0  0  0  0  0  0  0  0  0  0  0
   12.2123    1.2864   23.3777 C   0  0  0  0  0  0  0  0  0  0  0  0
   11.5638    2.3601   23.9874 C   0  0  0  0  0  0  0  0  0  0  0  0
   10.3757    2.8050   23.5540 N   0  0  0  0  0  0  0  0  0  0  0  0
    9.7701    2.1735   22.5285 C   0  0  0  0  0  0  0  0  0  0  0  0
    8.0372    2.7758   21.9894 Br  0  0  0  0  0  0  0  0  0  0  0  0
   12.0218    2.8382   24.8494 H   0  0  0  0  0  0  0  0  0  0  0  0
   13.1713    0.9653   23.7631 H   0  0  0  0  0  0  0  0  0  0  0  0
   12.0692   -0.2299   21.8216 H   0  0  0  0  0  0  0  0  0  0  0  0
   10.3465   -0.4049   20.3235 H   0  0  0  0  0  0  0  0  0  0  0  0
    9.1789    0.9127   20.0726 H   0  0  0  0  0  0  0  0  0  0  0  0
    8.7891   -1.4242   22.3833 N   0  0  0  0  0  0  0  0  0  0  0  0
    6.2846   -3.1796   23.7660 H   0  0  0  0  0  0  0  0  0  0  0  0
    7.9310   -3.8002   23.4742 H   0  0  0  0  0  0  0  0  0  0  0  0
    8.8970   -2.1372   25.0422 H   0  0  0  0  0  0  0  0  0  0  0  0
    7.7216   -3.2195   25.8086 H   0  0  0  0  0  0  0  0  0  0  0  0
    7.4139   -1.0452   26.7216 H   0  0  0  0  0  0  0  0  0  0  0  0
    6.9788    0.9660   25.4190 H   0  0  0  0  0  0  0  0  0  0  0  0
    8.4747    0.2286   24.8072 H   0  0  0  0  0  0  0  0  0  0  0  0
    6.9574    0.0509   23.8982 H   0  0  0  0  0  0  0  0  0  0  0  0
  1  2  1  0
  2  3  1  0
  3  4  1  0
  3  5  1  0
  3  6  1  0
  2  7  1  0
  7  8  1  0
  8  9  1  0
  9 10  2  0
 10 11  1  0
 11 12  1  0
 12 13  2  0
 13 14  1  0
 14 15  2  0
 15 16  1  0
 16 17  2  0
 17 18  1  0
 15 19  1  0
 14 20  1  0
 13 21  1  0
 11 22  1  0
 22 23  1  0
 23 24  1  0
 24 25  2  0
 25 26  1  0
 26 27  2  0
 27 28  1  0
 28 29  2  0
 29 30  1  0
 27 31  1  0
 26 32  1  0
 25 33  1  0
 23 34  1  0
 23 35  1  0
 22 36  2  0
  8 37  1  0
  8 38  1  0
  7 39  1  0
  7 40  1  0
  2 41  1  0
  1 42  1  0
  1 43  1  0
  1 44  1  0
 36  9  1  0
 17 12  1  0
 29 24  1  0
M  END
>  <cnnaffinity>  (1) 
-6.36389

>  <filename>  (1) 
CC(C)CCc1nc(Cc2cccnc2Br)n(-c2cccnc2)n1

$$$$
