
     RDKit          3D

 43 44  0  0  0  0  0  0  0  0999 V2000
    5.1488    1.8020   17.0021 H   0  0  0  0  0  0  0  0  0  0  0  0
    5.5272    1.2574   17.8678 C   0  0  0  0  0  0  0  0  0  0  0  0
    6.6641    0.5701   17.6854 N   0  0  0  0  0  0  0  0  0  0  0  0
    7.1592   -0.1061   18.7195 C   0  0  0  0  0  0  0  0  0  0  0  0
    8.0888   -0.6510   18.5536 H   0  0  0  0  0  0  0  0  0  0  0  0
    6.5339   -0.1216   19.9568 C   0  0  0  0  0  0  0  0  0  0  0  0
    7.3943   -1.0418   21.1836 S   0  0  0  0  0  0  0  0  0  0  0  0
    8.2723   -1.9795   20.4923 O   0  0  0  0  0  0  0  0  0  0  0  0
    6.4001   -1.5097   22.1368 O   0  0  0  0  0  0  0  0  0  0  0  0
    8.6534    0.2433   22.0802 C   0  0  0  0  0  0  0  0  0  0  0  0
    8.0361    1.4264   22.7129 N   0  0  0  0  0  0  0  0  0  0  0  0
    7.0338    1.5298   22.7182 H   0  0  0  0  0  0  0  0  0  0  0  0
    8.7043    2.4765   23.3063 C   0  0  0  0  0  0  0  0  0  0  0  0
    9.9114    2.4858   23.4872 O   0  0  0  0  0  0  0  0  0  0  0  0
    7.7236    3.5628   23.7680 C   0  0  0  0  0  0  0  0  0  0  0  0
    6.9506    3.6140   22.9890 H   0  0  0  0  0  0  0  0  0  0  0  0
    7.0846    3.0885   25.1035 C   0  0  0  0  0  0  0  0  0  0  0  0
    6.6830    2.0718   24.9920 H   0  0  0  0  0  0  0  0  0  0  0  0
    6.2200    3.7277   25.3349 H   0  0  0  0  0  0  0  0  0  0  0  0
    8.1087    3.1533   26.2486 C   0  0  0  0  0  0  0  0  0  0  0  0
    8.9399    2.4610   26.0420 H   0  0  0  0  0  0  0  0  0  0  0  0
    7.6372    2.8250   27.1810 H   0  0  0  0  0  0  0  0  0  0  0  0
    8.6686    4.5758   26.3892 C   0  0  0  0  0  0  0  0  0  0  0  0
    9.3820    4.6418   27.2118 H   0  0  0  0  0  0  0  0  0  0  0  0
    7.8418    5.2556   26.6452 H   0  0  0  0  0  0  0  0  0  0  0  0
    9.3298    5.0446   25.0881 C   0  0  0  0  0  0  0  0  0  0  0  0
    9.7100    6.0662   25.2026 H   0  0  0  0  0  0  0  0  0  0  0  0
   10.1844    4.3952   24.8642 H   0  0  0  0  0  0  0  0  0  0  0  0
    8.3305    4.9739   23.9233 C   0  0  0  0  0  0  0  0  0  0  0  0
    8.7885    5.3208   22.9867 H   0  0  0  0  0  0  0  0  0  0  0  0
    7.4954    5.6652   24.1287 H   0  0  0  0  0  0  0  0  0  0  0  0
    9.3987   -0.5555   23.1564 C   0  0  0  0  0  0  0  0  0  0  0  0
   10.1521    0.0872   23.6230 H   0  0  0  0  0  0  0  0  0  0  0  0
    9.8945   -1.4307   22.7256 H   0  0  0  0  0  0  0  0  0  0  0  0
    8.6991   -0.8802   23.9308 H   0  0  0  0  0  0  0  0  0  0  0  0
    9.6018    0.7309   20.9858 C   0  0  0  0  0  0  0  0  0  0  0  0
   10.0999   -0.1141   20.5079 H   0  0  0  0  0  0  0  0  0  0  0  0
   10.3488    1.3991   21.4207 H   0  0  0  0  0  0  0  0  0  0  0  0
    9.0322    1.3054   20.2538 H   0  0  0  0  0  0  0  0  0  0  0  0
    5.3472    0.5839   20.1770 C   0  0  0  0  0  0  0  0  0  0  0  0
    4.8140    0.5838   21.1326 H   0  0  0  0  0  0  0  0  0  0  0  0
    4.8436    1.2941   19.0864 C   0  0  0  0  0  0  0  0  0  0  0  0
    3.9366    1.8837   19.1587 H   0  0  0  0  0  0  0  0  0  0  0  0
  1  2  1  0
  2  3  2  0
  3  4  1  0
  4  5  1  0
  4  6  2  0
  6  7  1  0
  7  8  2  0
  7  9  2  0
  7 10  1  0
 10 11  1  0
 11 12  1  0
 11 13  1  0
 13 14  2  0
 13 15  1  0
 15 16  1  0
 15 17  1  0
 17 18  1  0
 17 19  1  0
 17 20  1  0
 20 21  1  0
 20 22  1  0
 20 23  1  0
 23 24  1  0
 23 25  1  0
 23 26  1  0
 26 27  1  0
 26 28  1  0
 26 29  1  0
 29 30  1  0
 29 31  1  0
 10 32  1  0
 32 33  1  0
 32 34  1  0
 32 35  1  0
 10 36  1  0
 36 37  1  0
 36 38  1  0
 36 39  1  0
  6 40  1  0
 40 41  1  0
 40 42  2  0
 42 43  1  0
 42  2  1  0
 29 15  1  0
M  END
>  <cnnaffinity>  (1) 
-5.02547

>  <filename>  (1) 
CC(C)(NC(=O)C1CCCCC1)S(=O)(=O)c1cccnc1

$$$$
