
     RDKit          3D

 36 37  0  0  0  0  0  0  0  0999 V2000
    4.9592    1.7266   16.9285 H   0  0  0  0  0  0  0  0  0  0  0  0
    5.4576    1.2699   17.7781 C   0  0  0  0  0  0  0  0  0  0  0  0
    6.6100    0.6428   17.5192 N   0  0  0  0  0  0  0  0  0  0  0  0
    7.2412    0.0637   18.5506 C   0  0  0  0  0  0  0  0  0  0  0  0
    8.1613   -0.4641   18.3043 H   0  0  0  0  0  0  0  0  0  0  0  0
    6.7876    0.0989   19.8873 C   0  0  0  0  0  0  0  0  0  0  0  0
    7.5227   -0.5871   21.0626 C   0  0  0  0  0  0  0  0  0  0  0  0
    6.6762   -1.7696   21.5706 C   0  0  0  0  0  0  0  0  0  0  0  0
    5.6607   -1.4470   21.8026 H   0  0  0  0  0  0  0  0  0  0  0  0
    6.6056   -2.5379   20.7915 H   0  0  0  0  0  0  0  0  0  0  0  0
    7.1264   -2.2160   22.4639 H   0  0  0  0  0  0  0  0  0  0  0  0
    8.9364   -1.0955   20.6986 C   0  0  0  0  0  0  0  0  0  0  0  0
    8.8715   -1.8493   19.9131 H   0  0  0  0  0  0  0  0  0  0  0  0
    9.6010   -0.3164   20.3240 H   0  0  0  0  0  0  0  0  0  0  0  0
    9.4260   -1.5567   21.5602 H   0  0  0  0  0  0  0  0  0  0  0  0
    7.7350    0.6208   22.5198 S   0  0  0  0  0  0  0  0  0  0  0  0
    6.4357    1.1515   22.9410 O   0  0  0  0  0  0  0  0  0  0  0  0
    8.6158   -0.0086   23.5028 O   0  0  0  0  0  0  0  0  0  0  0  0
    8.6212    1.9338   21.6723 C   0  0  0  0  0  0  0  0  0  0  0  0
    7.8883    2.3502   20.9802 H   0  0  0  0  0  0  0  0  0  0  0  0
    9.4272    1.4402   21.1375 H   0  0  0  0  0  0  0  0  0  0  0  0
    9.1618    2.9552   22.6161 C   0  0  0  0  0  0  0  0  0  0  0  0
    8.3074    3.9688   23.0643 C   0  0  0  0  0  0  0  0  0  0  0  0
    7.3094    4.0230   22.6369 H   0  0  0  0  0  0  0  0  0  0  0  0
    8.7170    4.8798   24.0379 C   0  0  0  0  0  0  0  0  0  0  0  0
    8.0287    5.6479   24.3776 H   0  0  0  0  0  0  0  0  0  0  0  0
   10.0127    4.7944   24.5606 C   0  0  0  0  0  0  0  0  0  0  0  0
   10.3296    5.4813   25.3400 H   0  0  0  0  0  0  0  0  0  0  0  0
   10.9026    3.8243   24.0902 C   0  0  0  0  0  0  0  0  0  0  0  0
   11.9201    3.7566   24.4632 H   0  0  0  0  0  0  0  0  0  0  0  0
   10.4777    2.9221   23.1122 C   0  0  0  0  0  0  0  0  0  0  0  0
   11.6354    1.7567   22.5139 Cl  0  0  0  0  0  0  0  0  0  0  0  0
    5.5606    0.7492   20.1213 C   0  0  0  0  0  0  0  0  0  0  0  0
    5.1523    0.7938   21.1318 H   0  0  0  0  0  0  0  0  0  0  0  0
    4.8900    1.3425   19.0538 C   0  0  0  0  0  0  0  0  0  0  0  0
    3.9397    1.8403   19.2013 H   0  0  0  0  0  0  0  0  0  0  0  0
  1  2  1  0
  2  3  2  0
  3  4  1  0
  4  5  1  0
  4  6  2  0
  6  7  1  0
  7  8  1  0
  8  9  1  0
  8 10  1  0
  8 11  1  0
  7 12  1  0
 12 13  1  0
 12 14  1  0
 12 15  1  0
  7 16  1  0
 16 17  2  0
 16 18  2  0
 16 19  1  0
 19 20  1  0
 19 21  1  0
 19 22  1  0
 22 23  2  0
 23 24  1  0
 23 25  1  0
 25 26  1  0
 25 27  2  0
 27 28  1  0
 27 29  1  0
 29 30  1  0
 29 31  2  0
 31 32  1  0
  6 33  1  0
 33 34  1  0
 33 35  2  0
 35 36  1  0
 35  2  1  0
 31 22  1  0
M  END
>  <cnnaffinity>  (1) 
-5.05568

>  <filename>  (1) 
CC(C)(c1cccnc1)S(=O)(=O)Cc1ccccc1Cl

$$$$
