
     RDKit          3D

 43 46  0  0  0  0  0  0  0  0999 V2000
   10.2839   -2.9477   23.1018 C   0  0  0  0  0  0  0  0  0  0  0  0
    8.8962   -3.2683   22.5039 C   0  0  0  0  0  0  0  0  0  0  0  0
    8.1247   -2.0179   22.1330 C   0  0  0  0  0  0  0  0  0  0  0  0
    7.7722   -1.7266   20.8934 N   0  0  0  0  0  0  0  0  0  0  0  0
    7.1706   -0.5067   21.0141 N   0  0  0  0  0  0  0  0  0  0  0  0
    6.5348    0.0988   19.8905 C   0  0  0  0  0  0  0  0  0  0  0  0
    5.3488    0.8286   20.0438 C   0  0  0  0  0  0  0  0  0  0  0  0
    4.8096    1.4453   18.9095 C   0  0  0  0  0  0  0  0  0  0  0  0
    5.4566    1.3130   17.6791 C   0  0  0  0  0  0  0  0  0  0  0  0
    6.5698    0.5762   17.5183 N   0  0  0  0  0  0  0  0  0  0  0  0
    7.0817   -0.0280   18.5962 C   0  0  0  0  0  0  0  0  0  0  0  0
    7.9636   -0.6427   18.4292 H   0  0  0  0  0  0  0  0  0  0  0  0
    5.0724    1.8079   16.7870 H   0  0  0  0  0  0  0  0  0  0  0  0
    3.9050    2.0370   18.9764 H   0  0  0  0  0  0  0  0  0  0  0  0
    4.8753    0.9163   21.0223 H   0  0  0  0  0  0  0  0  0  0  0  0
    7.2392   -0.1152   22.3361 C   0  0  0  0  0  0  0  0  0  0  0  0
    6.9379    1.1766   22.9163 C   0  0  0  0  0  0  0  0  0  0  0  0
    7.1250    2.4247   22.3405 C   0  0  0  0  0  0  0  0  0  0  0  0
    6.8537    3.6086   23.0716 C   0  0  0  0  0  0  0  0  0  0  0  0
    6.9224    4.9406   22.3920 C   0  0  0  0  0  0  0  0  0  0  0  0
    6.7193    5.9721   23.2387 F   0  0  0  0  0  0  0  0  0  0  0  0
    8.1095    5.1504   21.7986 F   0  0  0  0  0  0  0  0  0  0  0  0
    5.9773    5.0266   21.4369 F   0  0  0  0  0  0  0  0  0  0  0  0
    6.4233    3.5433   24.3686 C   0  0  0  0  0  0  0  0  0  0  0  0
    6.2682    2.3195   24.9152 N   0  0  0  0  0  0  0  0  0  0  0  0
    6.4694    1.0860   24.2877 C   0  0  0  0  0  0  0  0  0  0  0  0
    6.2042    0.1138   24.9681 O   0  0  0  0  0  0  0  0  0  0  0  0
    5.9582    2.1175   25.8518 H   0  0  0  0  0  0  0  0  0  0  0  0
    6.1881    4.4195   24.9732 H   0  0  0  0  0  0  0  0  0  0  0  0
    7.4880    2.5161   21.3202 H   0  0  0  0  0  0  0  0  0  0  0  0
    7.8012   -1.0817   23.0428 N   0  0  0  0  0  0  0  0  0  0  0  0
    8.1213   -4.2124   23.4293 C   0  0  0  0  0  0  0  0  0  0  0  0
    8.2742   -5.6985   23.2205 C   0  0  0  0  0  0  0  0  0  0  0  0
    6.9896   -5.0040   22.8515 C   0  0  0  0  0  0  0  0  0  0  0  0
    6.7707   -4.8584   21.7962 H   0  0  0  0  0  0  0  0  0  0  0  0
    6.1033   -5.1816   23.4538 H   0  0  0  0  0  0  0  0  0  0  0  0
    8.2856   -6.3628   24.0823 H   0  0  0  0  0  0  0  0  0  0  0  0
    8.9195   -6.0283   22.4090 H   0  0  0  0  0  0  0  0  0  0  0  0
    8.0297   -3.8793   24.4669 H   0  0  0  0  0  0  0  0  0  0  0  0
    8.9975   -3.7764   21.5405 H   0  0  0  0  0  0  0  0  0  0  0  0
   10.2179   -2.0897   23.7825 H   0  0  0  0  0  0  0  0  0  0  0  0
   11.0081   -2.7011   22.3211 H   0  0  0  0  0  0  0  0  0  0  0  0
   10.6766   -3.8107   23.6529 H   0  0  0  0  0  0  0  0  0  0  0  0
  1  2  1  0
  2  3  1  0
  3  4  2  0
  4  5  1  0
  5  6  1  0
  6  7  2  0
  7  8  1  0
  8  9  2  0
  9 10  1  0
 10 11  2  0
 11 12  1  0
  9 13  1  0
  8 14  1  0
  7 15  1  0
  5 16  1  0
 16 17  1  0
 17 18  2  0
 18 19  1  0
 19 20  1  0
 20 21  1  0
 20 22  1  0
 20 23  1  0
 19 24  2  0
 24 25  1  0
 25 26  1  0
 26 27  2  0
 25 28  1  0
 24 29  1  0
 18 30  1  0
 16 31  2  0
  2 32  1  0
 32 33  1  0
 33 34  1  0
 34 35  1  0
 34 36  1  0
 33 37  1  0
 33 38  1  0
 32 39  1  0
  2 40  1  0
  1 41  1  0
  1 42  1  0
  1 43  1  0
 31  3  1  0
 34 32  1  0
 11  6  1  0
 26 17  1  0
M  END
>  <cnnaffinity>  (1) 
-5.96858

>  <filename>  (1) 
CC(c1nc(-c2cc(C(F)(F)F)c[nH]c2=O)n(-c2cccnc2)n1)C1CC1

$$$$
