
     RDKit          3D

 36 37  0  0  0  0  0  0  0  0999 V2000
    4.9077    1.7885   16.9896 H   0  0  0  0  0  0  0  0  0  0  0  0
    5.3943    1.3004   17.8300 C   0  0  0  0  0  0  0  0  0  0  0  0
    6.5571    0.6873   17.5591 N   0  0  0  0  0  0  0  0  0  0  0  0
    7.1767    0.0811   18.5776 C   0  0  0  0  0  0  0  0  0  0  0  0
    8.1163   -0.4194   18.3574 H   0  0  0  0  0  0  0  0  0  0  0  0
    6.6775    0.0084   19.9022 C   0  0  0  0  0  0  0  0  0  0  0  0
    7.3760   -0.7129   20.8961 N   0  0  0  0  0  0  0  0  0  0  0  0
    6.6635   -1.5869   21.8276 C   0  0  0  0  0  0  0  0  0  0  0  0
    5.6972   -1.8401   21.3776 H   0  0  0  0  0  0  0  0  0  0  0  0
    6.4479   -1.0926   22.7915 H   0  0  0  0  0  0  0  0  0  0  0  0
    7.4828   -2.8591   22.0504 C   0  0  0  0  0  0  0  0  0  0  0  0
    7.5120   -3.4229   21.1095 H   0  0  0  0  0  0  0  0  0  0  0  0
    6.9787   -3.4931   22.7862 H   0  0  0  0  0  0  0  0  0  0  0  0
    8.9053   -2.5238   22.5042 C   0  0  0  0  0  0  0  0  0  0  0  0
    9.5056   -3.4339   22.6008 H   0  0  0  0  0  0  0  0  0  0  0  0
    8.8733   -2.0401   23.4883 H   0  0  0  0  0  0  0  0  0  0  0  0
    9.5681   -1.5595   21.5175 C   0  0  0  0  0  0  0  0  0  0  0  0
   10.5659   -1.2592   21.8512 H   0  0  0  0  0  0  0  0  0  0  0  0
    9.6995   -2.0532   20.5472 H   0  0  0  0  0  0  0  0  0  0  0  0
    8.7201   -0.3153   21.2801 C   0  0  2  0  0  0  0  0  0  0  0  0
    9.1607    0.2526   20.4499 H   0  0  0  0  0  0  0  0  0  0  0  0
    8.7385    0.4912   22.4384 O   0  0  0  0  0  0  0  0  0  0  0  0
    8.4402    1.8731   22.2220 C   0  0  0  0  0  0  0  0  0  0  0  0
    7.9512    2.0157   21.2442 H   0  0  0  0  0  0  0  0  0  0  0  0
    9.7439    2.6568   22.2503 C   0  0  0  0  0  0  0  0  0  0  0  0
   10.4263    2.3135   21.4657 H   0  0  0  0  0  0  0  0  0  0  0  0
   10.2431    2.5315   23.2167 H   0  0  0  0  0  0  0  0  0  0  0  0
    9.5466    3.7221   22.1021 H   0  0  0  0  0  0  0  0  0  0  0  0
    7.4766    2.3323   23.3049 C   0  0  0  0  0  0  0  0  0  0  0  0
    6.5450    1.7576   23.2648 H   0  0  0  0  0  0  0  0  0  0  0  0
    7.2263    3.3898   23.1587 H   0  0  0  0  0  0  0  0  0  0  0  0
    7.9163    2.2122   24.3006 H   0  0  0  0  0  0  0  0  0  0  0  0
    5.4494    0.6464   20.1597 C   0  0  0  0  0  0  0  0  0  0  0  0
    5.0268    0.6161   21.1675 H   0  0  0  0  0  0  0  0  0  0  0  0
    4.8122    1.3119   19.1048 C   0  0  0  0  0  0  0  0  0  0  0  0
    3.8763    1.8390   19.2599 H   0  0  0  0  0  0  0  0  0  0  0  0
  1  2  1  0
  2  3  2  0
  3  4  1  0
  4  5  1  0
  4  6  2  0
  6  7  1  0
  7  8  1  0
  8  9  1  0
  8 10  1  0
  8 11  1  0
 11 12  1  0
 11 13  1  0
 11 14  1  0
 14 15  1  0
 14 16  1  0
 14 17  1  0
 17 18  1  0
 17 19  1  0
 17 20  1  0
 20 21  1  6
 20 22  1  0
 22 23  1  0
 23 24  1  0
 23 25  1  0
 25 26  1  0
 25 27  1  0
 25 28  1  0
 23 29  1  0
 29 30  1  0
 29 31  1  0
 29 32  1  0
  6 33  1  0
 33 34  1  0
 33 35  2  0
 35 36  1  0
 35  2  1  0
 20  7  1  0
M  END
>  <cnnaffinity>  (1) 
-4.47884

>  <filename>  (1) 
CC(C)O[C@H]1CCCCN1c1cccnc1

$$$$
