
     RDKit          3D

 39 41  0  0  0  0  0  0  0  0999 V2000
   10.5958   -2.6427   22.5736 C   0  0  0  0  0  0  0  0  0  0  0  0
    9.1270   -3.1003   22.4590 C   0  0  0  0  0  0  0  0  0  0  0  0
    8.7012   -3.8552   23.7257 C   0  0  0  0  0  0  0  0  0  0  0  0
    7.6376   -4.1060   23.7069 H   0  0  0  0  0  0  0  0  0  0  0  0
    9.2581   -4.7985   23.7958 H   0  0  0  0  0  0  0  0  0  0  0  0
    8.9003   -3.2788   24.6369 H   0  0  0  0  0  0  0  0  0  0  0  0
    8.2685   -1.9015   22.1307 C   0  0  0  0  0  0  0  0  0  0  0  0
    7.8382   -1.6667   20.9059 N   0  0  0  0  0  0  0  0  0  0  0  0
    7.2619   -0.4399   21.0107 N   0  0  0  0  0  0  0  0  0  0  0  0
    6.5706    0.1244   19.9041 C   0  0  0  0  0  0  0  0  0  0  0  0
    5.3673    0.8170   20.0752 C   0  0  0  0  0  0  0  0  0  0  0  0
    4.7936    1.4164   18.9503 C   0  0  0  0  0  0  0  0  0  0  0  0
    5.4315    1.2955   17.7117 C   0  0  0  0  0  0  0  0  0  0  0  0
    6.5586    0.5871   17.5341 N   0  0  0  0  0  0  0  0  0  0  0  0
    7.1046    0.0010   18.6050 C   0  0  0  0  0  0  0  0  0  0  0  0
    8.0073   -0.5796   18.4332 H   0  0  0  0  0  0  0  0  0  0  0  0
    5.0189    1.7786   16.8277 H   0  0  0  0  0  0  0  0  0  0  0  0
    3.8768    1.9871   19.0315 H   0  0  0  0  0  0  0  0  0  0  0  0
    4.8925    0.8798   21.0569 H   0  0  0  0  0  0  0  0  0  0  0  0
    7.4772    0.0434   22.2695 C   0  0  0  0  0  0  0  0  0  0  0  0
    7.5436    1.5116   22.5785 C   0  0  0  0  0  0  0  0  0  0  0  0
    8.7094    2.2112   21.8097 C   0  0  0  0  0  0  0  0  0  0  0  0
   10.0898    1.6866   22.1200 C   0  0  0  0  0  0  0  0  0  0  0  0
   10.9247    2.1862   22.9951 N   0  0  0  0  0  0  0  0  0  0  0  0
   12.0323    1.3763   22.9694 C   0  0  0  0  0  0  0  0  0  0  0  0
   11.8681    0.3680   22.0605 C   0  0  0  0  0  0  0  0  0  0  0  0
   10.6218    0.5887   21.5158 N   0  0  0  0  0  0  0  0  0  0  0  0
   10.1029   -0.0347   20.9111 H   0  0  0  0  0  0  0  0  0  0  0  0
   12.5191   -0.4334   21.7338 H   0  0  0  0  0  0  0  0  0  0  0  0
   12.8636    1.5765   23.6324 H   0  0  0  0  0  0  0  0  0  0  0  0
    8.7272    3.2741   22.0600 H   0  0  0  0  0  0  0  0  0  0  0  0
    8.5489    2.1295   20.7287 H   0  0  0  0  0  0  0  0  0  0  0  0
    7.6868    1.6089   23.6595 H   0  0  0  0  0  0  0  0  0  0  0  0
    6.5958    1.9979   22.3332 H   0  0  0  0  0  0  0  0  0  0  0  0
    8.0393   -0.8941   23.0146 N   0  0  0  0  0  0  0  0  0  0  0  0
    8.9750   -3.7612   21.6017 H   0  0  0  0  0  0  0  0  0  0  0  0
   10.6500   -1.7831   23.2522 H   0  0  0  0  0  0  0  0  0  0  0  0
   11.0047   -2.3436   21.6042 H   0  0  0  0  0  0  0  0  0  0  0  0
   11.2520   -3.4277   22.9605 H   0  0  0  0  0  0  0  0  0  0  0  0
  1  2  1  0
  2  3  1  0
  3  4  1  0
  3  5  1  0
  3  6  1  0
  2  7  1  0
  7  8  2  0
  8  9  1  0
  9 10  1  0
 10 11  2  0
 11 12  1  0
 12 13  2  0
 13 14  1  0
 14 15  2  0
 15 16  1  0
 13 17  1  0
 12 18  1  0
 11 19  1  0
  9 20  1  0
 20 21  1  0
 21 22  1  0
 22 23  1  0
 23 24  2  0
 24 25  1  0
 25 26  2  0
 26 27  1  0
 27 28  1  0
 26 29  1  0
 25 30  1  0
 22 31  1  0
 22 32  1  0
 21 33  1  0
 21 34  1  0
 20 35  2  0
  2 36  1  0
  1 37  1  0
  1 38  1  0
  1 39  1  0
 35  7  1  0
 15 10  1  0
 27 23  1  0
M  END
>  <cnnaffinity>  (1) 
-5.85341

>  <filename>  (1) 
CC(C)c1nc(CCc2ncc[nH]2)n(-c2cccnc2)n1

$$$$
