
     RDKit          3D

 30 30  0  0  0  0  0  0  0  0999 V2000
    4.9971    1.6716   17.0731 H   0  0  0  0  0  0  0  0  0  0  0  0
    5.4988    1.2127   17.9231 C   0  0  0  0  0  0  0  0  0  0  0  0
    6.6698    0.6093   17.6712 N   0  0  0  0  0  0  0  0  0  0  0  0
    7.3124    0.0659   18.7035 C   0  0  0  0  0  0  0  0  0  0  0  0
    8.2679   -0.3935   18.4761 H   0  0  0  0  0  0  0  0  0  0  0  0
    6.8237    0.0433   20.0204 C   0  0  0  0  0  0  0  0  0  0  0  0
    7.7279   -0.6474   21.0248 C   0  0  0  0  0  0  0  0  0  0  0  0
    8.9289   -0.5769   20.8636 O   0  0  0  0  0  0  0  0  0  0  0  0
    7.1088   -1.5425   22.2347 C   0  0  0  0  0  0  0  0  0  0  0  0
    6.8163   -0.7537   23.4832 N   0  0  0  0  0  0  0  0  0  0  0  0
    6.1397    0.0062   23.4203 H   0  0  0  0  0  0  0  0  0  0  0  0
    6.0904   -1.3419   24.8715 S   0  0  0  0  0  0  0  0  0  0  0  0
    5.5156   -2.6668   24.7436 O   0  0  0  0  0  0  0  0  0  0  0  0
    5.2938   -0.1698   25.1913 O   0  0  0  0  0  0  0  0  0  0  0  0
    7.3998   -1.4859   26.0206 C   0  0  0  0  0  0  0  0  0  0  0  0
    7.8294   -0.5047   26.2107 H   0  0  0  0  0  0  0  0  0  0  0  0
    6.9390   -1.9065   26.9120 H   0  0  0  0  0  0  0  0  0  0  0  0
    8.1344   -2.1717   25.6095 H   0  0  0  0  0  0  0  0  0  0  0  0
    5.8588   -2.2692   21.7325 C   0  0  0  0  0  0  0  0  0  0  0  0
    6.1223   -2.9054   20.8828 H   0  0  0  0  0  0  0  0  0  0  0  0
    5.4294   -2.8819   22.5267 H   0  0  0  0  0  0  0  0  0  0  0  0
    5.0972   -1.5751   21.3795 H   0  0  0  0  0  0  0  0  0  0  0  0
    8.1518   -2.5821   22.6470 C   0  0  0  0  0  0  0  0  0  0  0  0
    8.4884   -3.1519   21.7777 H   0  0  0  0  0  0  0  0  0  0  0  0
    7.7308   -3.2865   23.3685 H   0  0  0  0  0  0  0  0  0  0  0  0
    9.0239   -2.1022   23.0913 H   0  0  0  0  0  0  0  0  0  0  0  0
    5.5963    0.6828   20.2684 C   0  0  0  0  0  0  0  0  0  0  0  0
    5.1607    0.7277   21.2698 H   0  0  0  0  0  0  0  0  0  0  0  0
    4.9270    1.2787   19.1955 C   0  0  0  0  0  0  0  0  0  0  0  0
    3.9802    1.7854   19.3392 H   0  0  0  0  0  0  0  0  0  0  0  0
  1  2  1  0
  2  3  2  0
  3  4  1  0
  4  5  1  0
  4  6  2  0
  6  7  1  0
  7  8  2  0
  7  9  1  0
  9 10  1  0
 10 11  1  0
 10 12  1  0
 12 13  2  0
 12 14  2  0
 12 15  1  0
 15 16  1  0
 15 17  1  0
 15 18  1  0
  9 19  1  0
 19 20  1  0
 19 21  1  0
 19 22  1  0
  9 23  1  0
 23 24  1  0
 23 25  1  0
 23 26  1  0
  6 27  1  0
 27 28  1  0
 27 29  2  0
 29 30  1  0
 29  2  1  0
M  END
>  <cnnaffinity>  (1) 
-4.52627

>  <filename>  (1) 
CC(C)(NS(C)(=O)=O)C(=O)c1cccnc1

$$$$
