
     RDKit          3D

 43 46  0  0  0  0  0  0  0  0999 V2000
   10.2857    2.6917   21.7135 C   0  0  0  0  0  0  0  0  0  0  0  0
    9.1307    1.7132   21.8755 C   0  0  0  0  0  0  0  0  0  0  0  0
    9.4731    0.3944   21.1417 C   0  0  0  0  0  0  0  0  0  0  0  0
    8.5438   -0.7248   21.4257 C   0  0  0  0  0  0  0  0  0  0  0  0
    8.7606   -1.5988   22.3781 N   0  0  0  0  0  0  0  0  0  0  0  0
    7.5468   -2.1890   22.5447 C   0  0  0  0  0  0  0  0  0  0  0  0
    7.3175   -3.0706   23.7257 C   0  0  0  0  0  0  0  0  0  0  0  0
    7.4456   -2.3160   25.0976 C   0  0  0  0  0  0  0  0  0  0  0  0
    8.6501   -3.2111   25.4774 C   0  0  0  0  0  0  0  0  0  0  0  0
    8.5278   -3.9705   24.1320 C   0  0  0  0  0  0  0  0  0  0  0  0
    9.3946   -3.8572   23.4697 H   0  0  0  0  0  0  0  0  0  0  0  0
    8.2980   -5.0370   24.2137 H   0  0  0  0  0  0  0  0  0  0  0  0
    9.5950   -2.6733   25.6084 H   0  0  0  0  0  0  0  0  0  0  0  0
    8.5012   -3.8221   26.3747 H   0  0  0  0  0  0  0  0  0  0  0  0
    6.5728   -2.4020   25.7504 H   0  0  0  0  0  0  0  0  0  0  0  0
    7.6786   -1.2503   24.9825 H   0  0  0  0  0  0  0  0  0  0  0  0
    6.3683   -3.5972   23.5787 H   0  0  0  0  0  0  0  0  0  0  0  0
    6.6177   -1.7949   21.6931 N   0  0  0  0  0  0  0  0  0  0  0  0
    7.2737   -0.8611   20.9412 N   0  0  0  0  0  0  0  0  0  0  0  0
    6.6089   -0.1526   19.8978 C   0  0  0  0  0  0  0  0  0  0  0  0
    5.4061    0.5196   20.1403 C   0  0  0  0  0  0  0  0  0  0  0  0
    4.8407    1.2708   19.1053 C   0  0  0  0  0  0  0  0  0  0  0  0
    5.4709    1.2920   17.8555 C   0  0  0  0  0  0  0  0  0  0  0  0
    6.5978    0.6090   17.6015 N   0  0  0  0  0  0  0  0  0  0  0  0
    7.1489   -0.0922   18.5991 C   0  0  0  0  0  0  0  0  0  0  0  0
    8.0637   -0.6328   18.3601 H   0  0  0  0  0  0  0  0  0  0  0  0
    5.0487    1.8571   17.0240 H   0  0  0  0  0  0  0  0  0  0  0  0
    3.9321    1.8440   19.2570 H   0  0  0  0  0  0  0  0  0  0  0  0
    4.9454    0.4476   21.1259 H   0  0  0  0  0  0  0  0  0  0  0  0
   10.4663    0.0535   21.4396 H   0  0  0  0  0  0  0  0  0  0  0  0
    9.5004    0.6006   20.0704 H   0  0  0  0  0  0  0  0  0  0  0  0
    8.7781    1.5584   23.2973 N   0  0  0  0  0  0  0  0  0  0  0  0
    7.5387    1.8286   23.8559 C   0  0  0  0  0  0  0  0  0  0  0  0
    7.7399    1.8821   25.2096 C   0  0  0  0  0  0  0  0  0  0  0  0
    9.0480    1.6051   25.5126 N   0  0  0  0  0  0  0  0  0  0  0  0
    9.6311    1.4010   24.3590 C   0  0  0  0  0  0  0  0  0  0  0  0
   10.6644    1.0974   24.2267 H   0  0  0  0  0  0  0  0  0  0  0  0
    7.0140    2.1302   25.9747 H   0  0  0  0  0  0  0  0  0  0  0  0
    6.6528    1.8692   23.2329 H   0  0  0  0  0  0  0  0  0  0  0  0
    8.2301    2.1457   21.4155 H   0  0  0  0  0  0  0  0  0  0  0  0
   10.5804    2.7583   20.6635 H   0  0  0  0  0  0  0  0  0  0  0  0
    9.9877    3.6767   22.0887 H   0  0  0  0  0  0  0  0  0  0  0  0
   11.1808    2.3682   22.2554 H   0  0  0  0  0  0  0  0  0  0  0  0
  1  2  1  0
  2  3  1  0
  3  4  1  0
  4  5  2  0
  5  6  1  0
  6  7  1  0
  7  8  1  0
  8  9  1  0
  9 10  1  0
 10 11  1  0
 10 12  1  0
  9 13  1  0
  9 14  1  0
  8 15  1  0
  8 16  1  0
  7 17  1  0
  6 18  2  0
 18 19  1  0
 19 20  1  0
 20 21  2  0
 21 22  1  0
 22 23  2  0
 23 24  1  0
 24 25  2  0
 25 26  1  0
 23 27  1  0
 22 28  1  0
 21 29  1  0
  3 30  1  0
  3 31  1  0
  2 32  1  0
 32 33  1  0
 33 34  2  0
 34 35  1  0
 35 36  2  0
 36 37  1  0
 34 38  1  0
 33 39  1  0
  2 40  1  0
  1 41  1  0
  1 42  1  0
  1 43  1  0
 19  4  1  0
 25 20  1  0
 36 32  1  0
 10  7  1  0
M  END
>  <cnnaffinity>  (1) 
-5.98206

>  <filename>  (1) 
CC(Cc1nc(C2CCC2)nn1-c1cccnc1)n1ccnc1

$$$$
