
     RDKit          3D

 43 46  0  0  0  0  0  0  0  0999 V2000
   10.8782    2.4292   21.8415 C   0  0  0  0  0  0  0  0  0  0  0  0
    9.7628    1.4484   22.2059 C   0  0  0  0  0  0  0  0  0  0  0  0
    9.6371    0.3548   21.1053 C   0  0  0  0  0  0  0  0  0  0  0  0
    8.6003   -0.6617   21.4151 C   0  0  0  0  0  0  0  0  0  0  0  0
    8.7762   -1.5239   22.3965 N   0  0  0  0  0  0  0  0  0  0  0  0
    7.5629   -2.1083   22.5168 C   0  0  0  0  0  0  0  0  0  0  0  0
    7.3142   -3.0795   23.6119 C   0  0  0  0  0  0  0  0  0  0  0  0
    6.2188   -2.6941   24.6550 C   0  0  0  0  0  0  0  0  0  0  0  0
    5.3666   -3.8952   24.1879 C   0  0  0  0  0  0  0  0  0  0  0  0
    6.5075   -4.3571   23.2521 C   0  0  0  0  0  0  0  0  0  0  0  0
    6.2468   -4.4519   22.1942 H   0  0  0  0  0  0  0  0  0  0  0  0
    7.0084   -5.2799   23.5593 H   0  0  0  0  0  0  0  0  0  0  0  0
    4.4535   -3.6066   23.6580 H   0  0  0  0  0  0  0  0  0  0  0  0
    5.0820   -4.6014   24.9716 H   0  0  0  0  0  0  0  0  0  0  0  0
    6.5717   -2.7530   25.6890 H   0  0  0  0  0  0  0  0  0  0  0  0
    5.7712   -1.7054   24.5168 H   0  0  0  0  0  0  0  0  0  0  0  0
    8.2904   -3.2744   24.0616 H   0  0  0  0  0  0  0  0  0  0  0  0
    6.6543   -1.6953   21.6511 N   0  0  0  0  0  0  0  0  0  0  0  0
    7.3344   -0.7790   20.9054 N   0  0  0  0  0  0  0  0  0  0  0  0
    6.6574   -0.0863   19.8505 C   0  0  0  0  0  0  0  0  0  0  0  0
    5.3963    0.4806   20.0855 C   0  0  0  0  0  0  0  0  0  0  0  0
    4.7962    1.2161   19.0596 C   0  0  0  0  0  0  0  0  0  0  0  0
    5.4530    1.3228   17.8278 C   0  0  0  0  0  0  0  0  0  0  0  0
    6.6244    0.7179   17.5694 N   0  0  0  0  0  0  0  0  0  0  0  0
    7.2056    0.0283   18.5593 C   0  0  0  0  0  0  0  0  0  0  0  0
    8.1347   -0.4833   18.2994 H   0  0  0  0  0  0  0  0  0  0  0  0
    5.0133    1.8942   17.0133 H   0  0  0  0  0  0  0  0  0  0  0  0
    3.8343    1.7013   19.2072 H   0  0  0  0  0  0  0  0  0  0  0  0
    4.9112    0.3254   21.0509 H   0  0  0  0  0  0  0  0  0  0  0  0
    9.4307    0.8463   20.1553 H   0  0  0  0  0  0  0  0  0  0  0  0
   10.5905   -0.1754   21.0332 H   0  0  0  0  0  0  0  0  0  0  0  0
    8.4805    2.1411   22.4010 N   0  0  0  0  0  0  0  0  0  0  0  0
    7.6349    2.0514   23.4583 C   0  0  0  0  0  0  0  0  0  0  0  0
    6.5081    2.7879   23.1335 C   0  0  0  0  0  0  0  0  0  0  0  0
    6.7774    3.2788   21.8307 C   0  0  0  0  0  0  0  0  0  0  0  0
    7.9712    2.8723   21.4081 N   0  0  0  0  0  0  0  0  0  0  0  0
    6.1714    3.8903   21.1687 H   0  0  0  0  0  0  0  0  0  0  0  0
    5.6368    2.9723   23.7470 H   0  0  0  0  0  0  0  0  0  0  0  0
    7.9109    1.4531   24.3209 H   0  0  0  0  0  0  0  0  0  0  0  0
    9.9640    0.9853   23.1783 H   0  0  0  0  0  0  0  0  0  0  0  0
   11.8666    1.9912   22.0161 H   0  0  0  0  0  0  0  0  0  0  0  0
   10.7963    3.3529   22.4196 H   0  0  0  0  0  0  0  0  0  0  0  0
   10.8042    2.7017   20.7851 H   0  0  0  0  0  0  0  0  0  0  0  0
  1  2  1  0
  2  3  1  0
  3  4  1  0
  4  5  2  0
  5  6  1  0
  6  7  1  0
  7  8  1  0
  8  9  1  0
  9 10  1  0
 10 11  1  0
 10 12  1  0
  9 13  1  0
  9 14  1  0
  8 15  1  0
  8 16  1  0
  7 17  1  0
  6 18  2  0
 18 19  1  0
 19 20  1  0
 20 21  2  0
 21 22  1  0
 22 23  2  0
 23 24  1  0
 24 25  2  0
 25 26  1  0
 23 27  1  0
 22 28  1  0
 21 29  1  0
  3 30  1  0
  3 31  1  0
  2 32  1  0
 32 33  1  0
 33 34  2  0
 34 35  1  0
 35 36  2  0
 35 37  1  0
 34 38  1  0
 33 39  1  0
  2 40  1  0
  1 41  1  0
  1 42  1  0
  1 43  1  0
 19  4  1  0
 25 20  1  0
 36 32  1  0
 10  7  1  0
M  END
>  <cnnaffinity>  (1) 
-5.90756

>  <filename>  (1) 
CC(Cc1nc(C2CCC2)nn1-c1cccnc1)n1cccn1

$$$$
