
     RDKit          3D

 39 40  0  0  0  0  0  0  0  0999 V2000
    4.9731    1.7956   16.8084 H   0  0  0  0  0  0  0  0  0  0  0  0
    5.4640    1.3263   17.6591 C   0  0  0  0  0  0  0  0  0  0  0  0
    6.6353    0.7284   17.4128 N   0  0  0  0  0  0  0  0  0  0  0  0
    7.2739    0.1728   18.4531 C   0  0  0  0  0  0  0  0  0  0  0  0
    8.2110   -0.3198   18.2074 H   0  0  0  0  0  0  0  0  0  0  0  0
    6.8214    0.1866   19.7841 C   0  0  0  0  0  0  0  0  0  0  0  0
    7.6276   -0.4065   20.9588 C   0  0  0  0  0  0  0  0  0  0  0  0
    9.0443   -0.8726   20.5636 C   0  0  0  0  0  0  0  0  0  0  0  0
    9.6665   -0.0180   20.2659 H   0  0  0  0  0  0  0  0  0  0  0  0
    9.5282   -1.3551   21.4204 H   0  0  0  0  0  0  0  0  0  0  0  0
    9.0470   -1.5960   19.7472 H   0  0  0  0  0  0  0  0  0  0  0  0
    6.8332   -1.6065   21.5234 C   0  0  0  0  0  0  0  0  0  0  0  0
    7.3543   -2.0751   22.3653 H   0  0  0  0  0  0  0  0  0  0  0  0
    5.8423   -1.2984   21.8731 H   0  0  0  0  0  0  0  0  0  0  0  0
    6.6805   -2.3697   20.7530 H   0  0  0  0  0  0  0  0  0  0  0  0
    7.8304    0.6930   22.0579 C   0  0  0  0  0  0  0  0  0  0  0  0
    6.8494    1.0952   22.3515 H   0  0  0  0  0  0  0  0  0  0  0  0
    8.3816    1.5295   21.6090 H   0  0  0  0  0  0  0  0  0  0  0  0
    8.5407    0.2377   23.3167 C   0  0  0  0  0  0  0  0  0  0  0  0
    9.9290    0.3342   23.5233 C   0  0  0  0  0  0  0  0  0  0  0  0
   10.5758    0.6576   22.7066 H   0  0  0  0  0  0  0  0  0  0  0  0
   10.4778    0.0185   24.7705 C   0  0  0  0  0  0  0  0  0  0  0  0
   11.5398    0.1680   24.9433 H   0  0  0  0  0  0  0  0  0  0  0  0
    9.6768   -0.4547   25.8090 C   0  0  0  0  0  0  0  0  0  0  0  0
   10.1475   -0.6404   26.7735 H   0  0  0  0  0  0  0  0  0  0  0  0
    8.3098   -0.6698   25.5640 C   0  0  0  0  0  0  0  0  0  0  0  0
    7.2382   -1.3933   26.8031 S   0  0  0  0  0  0  0  0  0  0  0  0
    5.9138   -1.6265   26.2377 O   0  0  0  0  0  0  0  0  0  0  0  0
    7.9671   -2.4511   27.4853 O   0  0  0  0  0  0  0  0  0  0  0  0
    7.0543   -0.0689   27.9515 C   0  0  0  0  0  0  0  0  0  0  0  0
    8.0339    0.0974   28.4019 H   0  0  0  0  0  0  0  0  0  0  0  0
    6.3187   -0.4107   28.6821 H   0  0  0  0  0  0  0  0  0  0  0  0
    6.6928    0.7945   27.3933 H   0  0  0  0  0  0  0  0  0  0  0  0
    7.7467   -0.2985   24.3411 C   0  0  0  0  0  0  0  0  0  0  0  0
    6.6842   -0.4305   24.1570 H   0  0  0  0  0  0  0  0  0  0  0  0
    5.5539    0.7656   19.9969 C   0  0  0  0  0  0  0  0  0  0  0  0
    5.0990    0.7657   20.9906 H   0  0  0  0  0  0  0  0  0  0  0  0
    4.8711    1.3471   18.9260 C   0  0  0  0  0  0  0  0  0  0  0  0
    3.9083    1.8285   19.0606 H   0  0  0  0  0  0  0  0  0  0  0  0
  1  2  1  0
  2  3  2  0
  3  4  1  0
  4  5  1  0
  4  6  2  0
  6  7  1  0
  7  8  1  0
  8  9  1  0
  8 10  1  0
  8 11  1  0
  7 12  1  0
 12 13  1  0
 12 14  1  0
 12 15  1  0
  7 16  1  0
 16 17  1  0
 16 18  1  0
 16 19  1  0
 19 20  2  0
 20 21  1  0
 20 22  1  0
 22 23  1  0
 22 24  2  0
 24 25  1  0
 24 26  1  0
 26 27  1  0
 27 28  2  0
 27 29  2  0
 27 30  1  0
 30 31  1  0
 30 32  1  0
 30 33  1  0
 26 34  2  0
 34 35  1  0
  6 36  1  0
 36 37  1  0
 36 38  2  0
 38 39  1  0
 38  2  1  0
 34 19  1  0
M  END
>  <cnnaffinity>  (1) 
-5.06762

>  <filename>  (1) 
CC(C)(Cc1cccc(S(C)(=O)=O)c1)c1cccnc1

$$$$
