
     RDKit          3D

 45 47  0  0  0  0  0  0  0  0999 V2000
    6.4398   -4.8501   21.8702 C   0  0  0  0  0  0  0  0  0  0  0  0
    7.6234   -4.5665   22.8137 C   0  0  0  0  0  0  0  0  0  0  0  0
    8.4210   -5.8558   23.0718 C   0  0  0  0  0  0  0  0  0  0  0  0
    9.1328   -5.7087   23.8945 H   0  0  0  0  0  0  0  0  0  0  0  0
    7.7539   -6.6773   23.3488 H   0  0  0  0  0  0  0  0  0  0  0  0
    8.9667   -6.1708   22.1740 H   0  0  0  0  0  0  0  0  0  0  0  0
    7.0902   -4.0016   24.1602 C   0  0  0  0  0  0  0  0  0  0  0  0
    8.0943   -3.3932   24.9435 O   0  0  0  0  0  0  0  0  0  0  0  0
    8.2592   -2.5244   24.5273 H   0  0  0  0  0  0  0  0  0  0  0  0
    6.6590   -4.8148   24.7600 H   0  0  0  0  0  0  0  0  0  0  0  0
    6.2705   -3.2908   23.9585 H   0  0  0  0  0  0  0  0  0  0  0  0
    8.5844   -3.5499   22.1409 C   0  0  0  0  0  0  0  0  0  0  0  0
    8.0225   -2.1860   21.9627 C   0  0  0  0  0  0  0  0  0  0  0  0
    7.5780   -1.7835   20.7996 N   0  0  0  0  0  0  0  0  0  0  0  0
    7.1359   -0.5223   21.0479 N   0  0  0  0  0  0  0  0  0  0  0  0
    6.5143    0.1626   19.9738 C   0  0  0  0  0  0  0  0  0  0  0  0
    5.3074    0.8603   20.0992 C   0  0  0  0  0  0  0  0  0  0  0  0
    4.7680    1.4291   18.9389 C   0  0  0  0  0  0  0  0  0  0  0  0
    5.4529    1.3062   17.7266 C   0  0  0  0  0  0  0  0  0  0  0  0
    6.6056    0.6226   17.6011 N   0  0  0  0  0  0  0  0  0  0  0  0
    7.1018    0.0514   18.6988 C   0  0  0  0  0  0  0  0  0  0  0  0
    8.0173   -0.5267   18.5889 H   0  0  0  0  0  0  0  0  0  0  0  0
    5.0806    1.7795   16.8196 H   0  0  0  0  0  0  0  0  0  0  0  0
    3.8380    1.9869   18.9701 H   0  0  0  0  0  0  0  0  0  0  0  0
    4.7941    0.9286   21.0604 H   0  0  0  0  0  0  0  0  0  0  0  0
    7.4059   -0.2045   22.3495 C   0  0  0  0  0  0  0  0  0  0  0  0
    7.2769    1.1435   22.9975 C   0  0  0  0  0  0  0  0  0  0  0  0
    8.5947    1.6384   23.5970 C   0  0  0  0  0  0  0  0  0  0  0  0
    8.8757    1.5832   24.9728 C   0  0  0  0  0  0  0  0  0  0  0  0
   10.0713    1.8314   25.5162 N   0  0  0  0  0  0  0  0  0  0  0  0
   11.0795    2.1465   24.6980 C   0  0  0  0  0  0  0  0  0  0  0  0
   10.9298    2.2905   23.3174 C   0  0  0  0  0  0  0  0  0  0  0  0
    9.6590    2.0574   22.7841 C   0  0  0  0  0  0  0  0  0  0  0  0
    9.3957    2.2834   21.0844 Cl  0  0  0  0  0  0  0  0  0  0  0  0
   11.7661    2.5475   22.6807 H   0  0  0  0  0  0  0  0  0  0  0  0
   12.0491    2.2969   25.1766 H   0  0  0  0  0  0  0  0  0  0  0  0
    8.0771    1.3285   25.6750 H   0  0  0  0  0  0  0  0  0  0  0  0
    6.5197    1.0551   23.7834 H   0  0  0  0  0  0  0  0  0  0  0  0
    6.9105    1.8608   22.2582 H   0  0  0  0  0  0  0  0  0  0  0  0
    7.9245   -1.2642   22.9594 N   0  0  0  0  0  0  0  0  0  0  0  0
    9.5064   -3.4592   22.7252 H   0  0  0  0  0  0  0  0  0  0  0  0
    8.8330   -3.9002   21.1404 H   0  0  0  0  0  0  0  0  0  0  0  0
    6.8108   -5.2569   20.9201 H   0  0  0  0  0  0  0  0  0  0  0  0
    5.8716   -3.9367   21.6481 H   0  0  0  0  0  0  0  0  0  0  0  0
    5.7496   -5.5866   22.3036 H   0  0  0  0  0  0  0  0  0  0  0  0
  1  2  1  0
  2  3  1  0
  3  4  1  0
  3  5  1  0
  3  6  1  0
  2  7  1  0
  7  8  1  0
  8  9  1  0
  7 10  1  0
  7 11  1  0
  2 12  1  0
 12 13  1  0
 13 14  2  0
 14 15  1  0
 15 16  1  0
 16 17  2  0
 17 18  1  0
 18 19  2  0
 19 20  1  0
 20 21  2  0
 21 22  1  0
 19 23  1  0
 18 24  1  0
 17 25  1  0
 15 26  1  0
 26 27  1  0
 27 28  1  0
 28 29  2  0
 29 30  1  0
 30 31  2  0
 31 32  1  0
 32 33  2  0
 33 34  1  0
 32 35  1  0
 31 36  1  0
 29 37  1  0
 27 38  1  0
 27 39  1  0
 26 40  2  0
 12 41  1  0
 12 42  1  0
  1 43  1  0
  1 44  1  0
  1 45  1  0
 40 13  1  0
 21 16  1  0
 33 28  1  0
M  END
>  <cnnaffinity>  (1) 
-5.9873

>  <filename>  (1) 
CC(C)(CO)Cc1nc(Cc2cnccc2Cl)n(-c2cccnc2)n1

$$$$
