
     RDKit          3D

 47 50  0  0  0  0  0  0  0  0999 V2000
    9.0885    1.6516   20.9683 C   0  0  0  0  0  0  0  0  0  0  0  0
    8.6042    1.0200   22.2785 C   0  0  0  0  0  0  0  0  0  0  0  0
    7.6438    1.9799   23.0439 C   0  0  0  0  0  0  0  0  0  0  0  0
    7.2687    1.5157   24.4212 C   0  0  0  0  0  0  0  0  0  0  0  0
    7.8380    1.7284   25.6532 C   0  0  0  0  0  0  0  0  0  0  0  0
    7.1798    1.0258   26.6334 N   0  0  0  0  0  0  0  0  0  0  0  0
    6.2233    0.3845   26.0195 C   0  0  0  0  0  0  0  0  0  0  0  0
    6.2165    0.6620   24.6855 N   0  0  0  0  0  0  0  0  0  0  0  0
    5.6775    0.1560   24.0005 H   0  0  0  0  0  0  0  0  0  0  0  0
    5.4949   -0.2734   26.4837 H   0  0  0  0  0  0  0  0  0  0  0  0
    8.6941    2.3456   25.8960 H   0  0  0  0  0  0  0  0  0  0  0  0
    6.7402    2.1617   22.4453 H   0  0  0  0  0  0  0  0  0  0  0  0
    8.1511    2.9459   23.1338 H   0  0  0  0  0  0  0  0  0  0  0  0
    8.0466   -0.3699   22.1214 C   0  0  0  0  0  0  0  0  0  0  0  0
    8.2398   -1.3439   22.9882 N   0  0  0  0  0  0  0  0  0  0  0  0
    7.5111   -2.3718   22.4797 C   0  0  0  0  0  0  0  0  0  0  0  0
    7.3350   -3.6535   23.2426 C   0  0  0  0  0  0  0  0  0  0  0  0
    8.6845   -4.4198   23.3441 C   0  0  0  0  0  0  0  0  0  0  0  0
    8.7891   -5.3598   24.5198 C   0  0  0  0  0  0  0  0  0  0  0  0
    7.8443   -5.4939   25.4520 C   0  0  0  0  0  0  0  0  0  0  0  0
    6.5450   -4.7183   25.4093 C   0  0  0  0  0  0  0  0  0  0  0  0
    6.7194   -3.3983   24.6429 C   0  0  0  0  0  0  0  0  0  0  0  0
    5.7625   -2.8681   24.5561 H   0  0  0  0  0  0  0  0  0  0  0  0
    7.3899   -2.7361   25.2059 H   0  0  0  0  0  0  0  0  0  0  0  0
    6.1941   -4.5217   26.4296 H   0  0  0  0  0  0  0  0  0  0  0  0
    5.7616   -5.3264   24.9306 H   0  0  0  0  0  0  0  0  0  0  0  0
    8.0136   -6.1475   26.3074 H   0  0  0  0  0  0  0  0  0  0  0  0
    9.7215   -5.9230   24.5926 H   0  0  0  0  0  0  0  0  0  0  0  0
    8.8515   -4.9760   22.4133 H   0  0  0  0  0  0  0  0  0  0  0  0
    9.5236   -3.7170   23.4234 H   0  0  0  0  0  0  0  0  0  0  0  0
    6.6257   -4.2528   22.6596 H   0  0  0  0  0  0  0  0  0  0  0  0
    6.9307   -2.1210   21.3261 N   0  0  0  0  0  0  0  0  0  0  0  0
    7.2684   -0.8226   21.0922 N   0  0  0  0  0  0  0  0  0  0  0  0
    6.6586   -0.1343   19.9960 C   0  0  0  0  0  0  0  0  0  0  0  0
    5.5140    0.6476   20.1856 C   0  0  0  0  0  0  0  0  0  0  0  0
    4.9858    1.3202   19.0804 C   0  0  0  0  0  0  0  0  0  0  0  0
    5.6111    1.1713   17.8378 C   0  0  0  0  0  0  0  0  0  0  0  0
    6.6853    0.3877   17.6393 N   0  0  0  0  0  0  0  0  0  0  0  0
    7.1830   -0.2645   18.7005 C   0  0  0  0  0  0  0  0  0  0  0  0
    8.0548   -0.8960   18.5300 H   0  0  0  0  0  0  0  0  0  0  0  0
    5.2315    1.6984   16.9661 H   0  0  0  0  0  0  0  0  0  0  0  0
    4.1183    1.9659   19.1804 H   0  0  0  0  0  0  0  0  0  0  0  0
    5.0370    0.7106   21.1668 H   0  0  0  0  0  0  0  0  0  0  0  0
    9.4698    0.8601   22.9287 H   0  0  0  0  0  0  0  0  0  0  0  0
    9.7104    2.5284   21.1877 H   0  0  0  0  0  0  0  0  0  0  0  0
    9.6915    0.9457   20.3874 H   0  0  0  0  0  0  0  0  0  0  0  0
    8.2529    1.9853   20.3424 H   0  0  0  0  0  0  0  0  0  0  0  0
  1  2  1  0
  2  3  1  0
  3  4  1  0
  4  5  2  0
  5  6  1  0
  6  7  2  0
  7  8  1  0
  8  9  1  0
  7 10  1  0
  5 11  1  0
  3 12  1  0
  3 13  1  0
  2 14  1  0
 14 15  2  0
 15 16  1  0
 16 17  1  0
 17 18  1  0
 18 19  1  0
 19 20  2  0
 20 21  1  0
 21 22  1  0
 22 23  1  0
 22 24  1  0
 21 25  1  0
 21 26  1  0
 20 27  1  0
 19 28  1  0
 18 29  1  0
 18 30  1  0
 17 31  1  0
 16 32  2  0
 32 33  1  0
 33 34  1  0
 34 35  2  0
 35 36  1  0
 36 37  2  0
 37 38  1  0
 38 39  2  0
 39 40  1  0
 37 41  1  0
 36 42  1  0
 35 43  1  0
  2 44  1  0
  1 45  1  0
  1 46  1  0
  1 47  1  0
  8  4  1  0
 33 14  1  0
 39 34  1  0
 22 17  1  0
M  END
>  <cnnaffinity>  (1) 
-6.22389

>  <filename>  (1) 
CC(Cc1cnc[nH]1)c1nc(C2CC=CCC2)nn1-c1cccnc1

$$$$
