
     RDKit          3D

 31 32  0  0  0  0  0  0  0  0999 V2000
    4.9461    1.7833   17.0092 H   0  0  0  0  0  0  0  0  0  0  0  0
    5.4182    1.2778   17.8468 C   0  0  0  0  0  0  0  0  0  0  0  0
    6.5809    0.6525   17.5892 N   0  0  0  0  0  0  0  0  0  0  0  0
    7.2125    0.0621   18.6148 C   0  0  0  0  0  0  0  0  0  0  0  0
    8.1549   -0.4374   18.3953 H   0  0  0  0  0  0  0  0  0  0  0  0
    6.6910    0.0432   19.9213 C   0  0  0  0  0  0  0  0  0  0  0  0
    7.4387   -0.5324   20.9592 O   0  0  0  0  0  0  0  0  0  0  0  0
    6.8469   -1.4141   21.8347 C   0  0  0  0  0  0  0  0  0  0  0  0
    5.7938   -1.9600   21.6038 O   0  0  0  0  0  0  0  0  0  0  0  0
    7.7416   -1.7215   23.0557 C   0  0  0  0  0  0  0  0  0  0  0  0
    7.6668   -0.8764   24.1839 O   0  0  0  0  0  0  0  0  0  0  0  0
    8.2796    0.4207   24.1017 C   0  0  0  0  0  0  0  0  0  0  0  0
    8.8826    0.4761   23.1848 H   0  0  0  0  0  0  0  0  0  0  0  0
    7.1799    1.4776   24.0502 C   0  0  0  0  0  0  0  0  0  0  0  0
    6.5701    1.4487   24.9599 H   0  0  0  0  0  0  0  0  0  0  0  0
    6.5201    1.3150   23.1934 H   0  0  0  0  0  0  0  0  0  0  0  0
    7.6168    2.4775   23.9528 H   0  0  0  0  0  0  0  0  0  0  0  0
    9.2047    0.6194   25.3041 C   0  0  0  0  0  0  0  0  0  0  0  0
    8.6494    0.5970   26.2486 H   0  0  0  0  0  0  0  0  0  0  0  0
    9.9731   -0.1592   25.3459 H   0  0  0  0  0  0  0  0  0  0  0  0
    9.7170    1.5884   25.2415 H   0  0  0  0  0  0  0  0  0  0  0  0
    7.8734   -3.1809   23.3883 C   0  0  0  0  0  0  0  0  0  0  0  0
    7.8697   -3.4295   24.4474 H   0  0  0  0  0  0  0  0  0  0  0  0
    7.3286   -3.8831   22.7582 H   0  0  0  0  0  0  0  0  0  0  0  0
    9.0543   -2.4287   22.8277 C   0  0  0  0  0  0  0  0  0  0  0  0
    9.3746   -2.5691   21.8006 H   0  0  0  0  0  0  0  0  0  0  0  0
    9.8517   -2.1723   23.5240 H   0  0  0  0  0  0  0  0  0  0  0  0
    5.4622    0.6571   20.1720 C   0  0  0  0  0  0  0  0  0  0  0  0
    5.0244    0.6007   21.1677 H   0  0  0  0  0  0  0  0  0  0  0  0
    4.8225    1.3035   19.1115 C   0  0  0  0  0  0  0  0  0  0  0  0
    3.8857    1.8309   19.2640 H   0  0  0  0  0  0  0  0  0  0  0  0
  1  2  1  0
  2  3  2  0
  3  4  1  0
  4  5  1  0
  4  6  2  0
  6  7  1  0
  7  8  1  0
  8  9  2  0
  8 10  1  0
 10 11  1  0
 11 12  1  0
 12 13  1  0
 12 14  1  0
 14 15  1  0
 14 16  1  0
 14 17  1  0
 12 18  1  0
 18 19  1  0
 18 20  1  0
 18 21  1  0
 10 22  1  0
 22 23  1  0
 22 24  1  0
 22 25  1  0
 25 26  1  0
 25 27  1  0
  6 28  1  0
 28 29  1  0
 28 30  2  0
 30 31  1  0
 30  2  1  0
 25 10  1  0
M  END
>  <cnnaffinity>  (1) 
-4.30389

>  <filename>  (1) 
CC(C)OC1(C(=O)Oc2cccnc2)CC1

$$$$
