
     RDKit          3D

 33 34  0  0  0  0  0  0  0  0999 V2000
    5.0501    1.7520   17.0142 H   0  0  0  0  0  0  0  0  0  0  0  0
    5.4811    1.2496   17.8792 C   0  0  0  0  0  0  0  0  0  0  0  0
    6.6234    0.5802   17.6601 N   0  0  0  0  0  0  0  0  0  0  0  0
    7.1974   -0.0554   18.6884 C   0  0  0  0  0  0  0  0  0  0  0  0
    8.1329   -0.5777   18.4810 H   0  0  0  0  0  0  0  0  0  0  0  0
    6.6460   -0.0677   19.9862 C   0  0  0  0  0  0  0  0  0  0  0  0
    7.2788   -0.7763   21.0565 N   0  0  0  0  0  0  0  0  0  0  0  0
    6.6870   -1.8192   21.7906 C   0  0  0  0  0  0  0  0  0  0  0  0
    5.6420   -2.0479   21.6687 H   0  0  0  0  0  0  0  0  0  0  0  0
    7.6133   -2.2659   22.6718 C   0  0  0  0  0  0  0  0  0  0  0  0
    7.7689   -3.2513   23.6248 N   0  0  0  0  0  0  0  0  0  0  0  0
    8.4100   -2.9177   24.3292 H   0  0  0  0  0  0  0  0  0  0  0  0
    6.6351   -3.9471   24.2442 C   0  0  0  0  0  0  0  0  0  0  0  0
    5.9791   -4.8145   23.1626 C   0  0  0  0  0  0  0  0  0  0  0  0
    5.0929   -5.3391   23.5364 H   0  0  0  0  0  0  0  0  0  0  0  0
    5.6665   -4.2032   22.3095 H   0  0  0  0  0  0  0  0  0  0  0  0
    6.6949   -5.5647   22.8029 H   0  0  0  0  0  0  0  0  0  0  0  0
    5.6624   -2.9290   24.8603 C   0  0  0  0  0  0  0  0  0  0  0  0
    5.4812   -2.1229   24.1509 H   0  0  0  0  0  0  0  0  0  0  0  0
    6.0914   -2.4680   25.7613 H   0  0  0  0  0  0  0  0  0  0  0  0
    4.7125   -3.4022   25.1293 H   0  0  0  0  0  0  0  0  0  0  0  0
    7.2200   -4.8157   25.3627 C   0  0  0  0  0  0  0  0  0  0  0  0
    7.6733   -4.1768   26.1333 H   0  0  0  0  0  0  0  0  0  0  0  0
    6.4427   -5.4274   25.8384 H   0  0  0  0  0  0  0  0  0  0  0  0
    7.9998   -5.4835   24.9811 H   0  0  0  0  0  0  0  0  0  0  0  0
    8.7180   -1.4712   22.4971 N   0  0  0  0  0  0  0  0  0  0  0  0
    9.5918   -1.5516   22.9813 H   0  0  0  0  0  0  0  0  0  0  0  0
    8.5638   -0.5618   21.5089 C   0  0  0  0  0  0  0  0  0  0  0  0
    9.7300    0.5075   20.9920 S   0  0  0  0  0  0  0  0  0  0  0  0
    5.4511    0.6296   20.2045 C   0  0  0  0  0  0  0  0  0  0  0  0
    5.0020    0.6368   21.1978 H   0  0  0  0  0  0  0  0  0  0  0  0
    4.8589    1.3053   19.1302 C   0  0  0  0  0  0  0  0  0  0  0  0
    3.9375    1.8679   19.2431 H   0  0  0  0  0  0  0  0  0  0  0  0
  1  2  1  0
  2  3  2  0
  3  4  1  0
  4  5  1  0
  4  6  2  0
  6  7  1  0
  7  8  1  0
  8  9  1  0
  8 10  2  0
 10 11  1  0
 11 12  1  0
 11 13  1  0
 13 14  1  0
 14 15  1  0
 14 16  1  0
 14 17  1  0
 13 18  1  0
 18 19  1  0
 18 20  1  0
 18 21  1  0
 13 22  1  0
 22 23  1  0
 22 24  1  0
 22 25  1  0
 10 26  1  0
 26 27  1  0
 26 28  1  0
 28 29  2  0
  6 30  1  0
 30 31  1  0
 30 32  2  0
 32 33  1  0
 32  2  1  0
 28  7  1  0
M  END
>  <cnnaffinity>  (1) 
-5.03135

>  <filename>  (1) 
CC(C)(C)Nc1cn(-c2cccnc2)c(=S)[nH]1

$$$$
