
     RDKit          3D

 44 47  0  0  0  0  0  0  0  0999 V2000
    8.5662    0.6896   21.5704 C   0  0  0  0  0  0  0  0  0  0  0  0
    7.3272   -0.0453   21.0434 C   0  0  0  0  0  0  0  0  0  0  0  0
    7.6620   -1.5303   20.7445 C   0  0  0  0  0  0  0  0  0  0  0  0
    7.5740   -2.4916   21.8951 C   0  0  0  0  0  0  0  0  0  0  0  0
    7.8797   -2.2616   23.1446 N   0  0  0  0  0  0  0  0  0  0  0  0
    7.6924   -3.4566   23.7571 C   0  0  0  0  0  0  0  0  0  0  0  0
    8.1348   -3.7433   25.1343 C   0  0  0  0  0  0  0  0  0  0  0  0
    8.0792   -5.0479   25.6672 C   0  0  0  0  0  0  0  0  0  0  0  0
    8.7430   -5.3457   26.8584 C   0  0  0  0  0  0  0  0  0  0  0  0
    9.4503   -4.3477   27.5341 C   0  0  0  0  0  0  0  0  0  0  0  0
    9.4241   -3.0355   27.0508 C   0  0  0  0  0  0  0  0  0  0  0  0
    8.7674   -2.7275   25.8674 C   0  0  0  0  0  0  0  0  0  0  0  0
    8.7715   -1.7035   25.4908 H   0  0  0  0  0  0  0  0  0  0  0  0
    9.9352   -2.2261   27.5657 H   0  0  0  0  0  0  0  0  0  0  0  0
   10.0418   -4.5984   28.4096 H   0  0  0  0  0  0  0  0  0  0  0  0
    8.7366   -6.3568   27.2487 H   0  0  0  0  0  0  0  0  0  0  0  0
    7.5481   -5.8350   25.1425 H   0  0  0  0  0  0  0  0  0  0  0  0
    7.2550   -4.4029   22.9559 N   0  0  0  0  0  0  0  0  0  0  0  0
    7.2084   -3.8046   21.7664 N   0  0  0  0  0  0  0  0  0  0  0  0
    6.8215   -4.7206   20.4667 C   0  0  0  0  0  0  0  0  0  0  0  0
    5.7292   -5.7729   20.8539 C   0  0  0  0  0  0  0  0  0  0  0  0
    5.2751   -6.7081   20.0143 C   0  0  0  0  0  0  0  0  0  0  0  0
    5.6681   -6.7632   18.4571 N   0  0  0  0  0  0  0  0  0  0  0  0
    5.7690   -6.8237   18.4866 N   0  0  0  0  0  0  0  0  0  0  0  0
    7.1426   -4.8959   20.3111 C   0  0  0  0  0  0  0  0  0  0  0  0
    8.0337   -5.4880   20.2928 H   0  0  0  0  0  0  0  0  0  0  0  0
    4.6761   -7.5807   20.1409 H   0  0  0  0  0  0  0  0  0  0  0  0
    5.7984   -6.0793   21.8816 H   0  0  0  0  0  0  0  0  0  0  0  0
    7.0282   -1.9390   19.9414 H   0  0  0  0  0  0  0  0  0  0  0  0
    8.6901   -1.5757   20.3593 H   0  0  0  0  0  0  0  0  0  0  0  0
    6.7232    0.5815   19.7947 C   0  0  0  0  0  0  0  0  0  0  0  0
    5.4905    1.2512   19.8275 C   0  0  0  0  0  0  0  0  0  0  0  0
    4.9380    1.7328   18.6377 C   0  0  0  0  0  0  0  0  0  0  0  0
    5.6426    1.5451   17.4460 C   0  0  0  0  0  0  0  0  0  0  0  0
    6.8273    0.9211   17.3846 N   0  0  0  0  0  0  0  0  0  0  0  0
    7.3421    0.4647   18.5362 C   0  0  0  0  0  0  0  0  0  0  0  0
    8.3011   -0.0503   18.4422 H   0  0  0  0  0  0  0  0  0  0  0  0
    5.2391    1.9117   16.5045 H   0  0  0  0  0  0  0  0  0  0  0  0
    3.9852    2.2517   18.6262 H   0  0  0  0  0  0  0  0  0  0  0  0
    4.9730    1.3809   20.7809 H   0  0  0  0  0  0  0  0  0  0  0  0
    6.5595    0.0115   21.8291 H   0  0  0  0  0  0  0  0  0  0  0  0
    8.9770    0.1463   22.4267 H   0  0  0  0  0  0  0  0  0  0  0  0
    9.3503    0.7611   20.8070 H   0  0  0  0  0  0  0  0  0  0  0  0
    8.3217    1.7047   21.8904 H   0  0  0  0  0  0  0  0  0  0  0  0
  1  2  1  0
  2  3  1  0
  3  4  1  0
  4  5  2  0
  5  6  1  0
  6  7  1  0
  7  8  2  0
  8  9  1  0
  9 10  2  0
 10 11  1  0
 11 12  2  0
 12 13  1  0
 11 14  1  0
 10 15  1  0
  9 16  1  0
  8 17  1  0
  6 18  2  0
 18 19  1  0
 19 20  1  0
 20 21  2  0
 21 22  1  0
 22 23  2  0
 23 24  1  0
 24 25  2  0
 25 26  1  0
 22 27  1  0
 21 28  1  0
  3 29  1  0
  3 30  1  0
  2 31  1  0
 31 32  2  0
 32 33  1  0
 33 34  2  0
 34 35  1  0
 35 36  2  0
 36 37  1  0
 34 38  1  0
 33 39  1  0
 32 40  1  0
  2 41  1  0
  1 42  1  0
  1 43  1  0
  1 44  1  0
 19  4  1  0
 25 20  1  0
 36 31  1  0
 12  7  1  0
M  END
>  <cnnaffinity>  (1) 
-6.18165

>  <filename>  (1) 
CC(Cc1nc(-c2ccccc2)nn1-c1ccnnc1)c1cccnc1

$$$$
