
     RDKit          3D

 43 46  0  0  0  0  0  0  0  0999 V2000
   10.8287    2.4570   21.7861 C   0  0  0  0  0  0  0  0  0  0  0  0
    9.7163    1.4798   22.1696 C   0  0  0  0  0  0  0  0  0  0  0  0
    9.6225    0.3707   21.0828 C   0  0  0  0  0  0  0  0  0  0  0  0
    8.6083   -0.6633   21.4042 C   0  0  0  0  0  0  0  0  0  0  0  0
    8.7976   -1.5303   22.3699 N   0  0  0  0  0  0  0  0  0  0  0  0
    7.5808   -2.1123   22.5168 C   0  0  0  0  0  0  0  0  0  0  0  0
    7.3337   -3.1059   23.5723 C   0  0  0  0  0  0  0  0  0  0  0  0
    6.0658   -3.7001   23.7278 C   0  0  0  0  0  0  0  0  0  0  0  0
    5.8586   -4.6515   24.7235 C   0  0  0  0  0  0  0  0  0  0  0  0
    6.9125   -4.9918   25.5700 C   0  0  0  0  0  0  0  0  0  0  0  0
    6.7128   -5.9135   26.5240 F   0  0  0  0  0  0  0  0  0  0  0  0
    8.1673   -4.3987   25.4551 C   0  0  0  0  0  0  0  0  0  0  0  0
    8.3751   -3.4546   24.4550 C   0  0  0  0  0  0  0  0  0  0  0  0
    9.3483   -2.9749   24.3528 H   0  0  0  0  0  0  0  0  0  0  0  0
    8.9567   -4.6797   26.1420 H   0  0  0  0  0  0  0  0  0  0  0  0
    4.8977   -5.1317   24.8579 H   0  0  0  0  0  0  0  0  0  0  0  0
    5.2457   -3.4045   23.0726 H   0  0  0  0  0  0  0  0  0  0  0  0
    6.6595   -1.6780   21.6747 N   0  0  0  0  0  0  0  0  0  0  0  0
    7.3302   -0.7619   20.9324 N   0  0  0  0  0  0  0  0  0  0  0  0
    6.6544   -0.0703   19.8863 C   0  0  0  0  0  0  0  0  0  0  0  0
    5.3994    0.5009   20.1203 C   0  0  0  0  0  0  0  0  0  0  0  0
    4.7924    1.2189   19.0856 C   0  0  0  0  0  0  0  0  0  0  0  0
    5.4451    1.3015   17.8504 C   0  0  0  0  0  0  0  0  0  0  0  0
    6.6164    0.6986   17.5988 N   0  0  0  0  0  0  0  0  0  0  0  0
    7.2001    0.0233   18.5971 C   0  0  0  0  0  0  0  0  0  0  0  0
    8.1310   -0.4893   18.3515 H   0  0  0  0  0  0  0  0  0  0  0  0
    5.0029    1.8583   17.0274 H   0  0  0  0  0  0  0  0  0  0  0  0
    3.8381    1.7171   19.2320 H   0  0  0  0  0  0  0  0  0  0  0  0
    4.9116    0.3484   21.0826 H   0  0  0  0  0  0  0  0  0  0  0  0
    9.4081    0.8383   20.1219 H   0  0  0  0  0  0  0  0  0  0  0  0
   10.5883   -0.1366   21.0165 H   0  0  0  0  0  0  0  0  0  0  0  0
    8.4232    2.1622   22.3303 N   0  0  0  0  0  0  0  0  0  0  0  0
    7.5684    2.1185   23.3828 C   0  0  0  0  0  0  0  0  0  0  0  0
    6.4588    2.8670   23.0304 C   0  0  0  0  0  0  0  0  0  0  0  0
    6.7485    3.3147   21.7180 C   0  0  0  0  0  0  0  0  0  0  0  0
    7.9340    2.8686   21.3148 N   0  0  0  0  0  0  0  0  0  0  0  0
    6.1624    3.9141   21.0279 H   0  0  0  0  0  0  0  0  0  0  0  0
    5.5864    3.0776   23.6444 H   0  0  0  0  0  0  0  0  0  0  0  0
    7.8401    1.5317   24.2536 H   0  0  0  0  0  0  0  0  0  0  0  0
    9.8962    1.0416   23.1592 H   0  0  0  0  0  0  0  0  0  0  0  0
   10.7301    2.7326   20.7302 H   0  0  0  0  0  0  0  0  0  0  0  0
   11.8209    2.0153   21.9342 H   0  0  0  0  0  0  0  0  0  0  0  0
   10.7599    3.3724   22.3769 H   0  0  0  0  0  0  0  0  0  0  0  0
  1  2  1  0
  2  3  1  0
  3  4  1  0
  4  5  2  0
  5  6  1  0
  6  7  1  0
  7  8  2  0
  8  9  1  0
  9 10  2  0
 10 11  1  0
 10 12  1  0
 12 13  2  0
 13 14  1  0
 12 15  1  0
  9 16  1  0
  8 17  1  0
  6 18  2  0
 18 19  1  0
 19 20  1  0
 20 21  2  0
 21 22  1  0
 22 23  2  0
 23 24  1  0
 24 25  2  0
 25 26  1  0
 23 27  1  0
 22 28  1  0
 21 29  1  0
  3 30  1  0
  3 31  1  0
  2 32  1  0
 32 33  1  0
 33 34  2  0
 34 35  1  0
 35 36  2  0
 35 37  1  0
 34 38  1  0
 33 39  1  0
  2 40  1  0
  1 41  1  0
  1 42  1  0
  1 43  1  0
 19  4  1  0
 25 20  1  0
 36 32  1  0
 13  7  1  0
M  END
>  <cnnaffinity>  (1) 
-5.83552

>  <filename>  (1) 
CC(Cc1nc(-c2ccc(F)cc2)nn1-c1cccnc1)n1cccn1

$$$$
