
     RDKit          3D

 52 55  0  0  0  0  0  0  0  0999 V2000
    9.1447    2.0690   20.9793 C   0  0  0  0  0  0  0  0  0  0  0  0
    8.9505    1.9295   22.4819 C   0  0  0  0  0  0  0  0  0  0  0  0
    7.6404    1.1456   22.7848 C   0  0  0  0  0  0  0  0  0  0  0  0
    7.6315   -0.2528   22.2523 C   0  0  0  0  0  0  0  0  0  0  0  0
    8.1308   -1.2796   22.9099 N   0  0  0  0  0  0  0  0  0  0  0  0
    8.1898   -2.2571   21.9720 C   0  0  0  0  0  0  0  0  0  0  0  0
    8.7195   -3.6076   22.2912 C   0  0  0  0  0  0  0  0  0  0  0  0
    7.8659   -4.3385   23.3509 C   0  0  0  0  0  0  0  0  0  0  0  0
    8.5619   -5.6270   23.8324 C   0  0  0  0  0  0  0  0  0  0  0  0
    8.5931   -6.6827   22.7220 C   0  0  0  0  0  0  0  0  0  0  0  0
    7.1731   -7.0090   22.2382 C   0  0  0  0  0  0  0  0  0  0  0  0
    6.4950   -5.7499   21.6805 C   0  0  0  0  0  0  0  0  0  0  0  0
    6.4658   -4.6425   22.7572 C   0  0  0  0  0  0  0  0  0  0  0  0
    6.0383   -3.7166   22.3487 H   0  0  0  0  0  0  0  0  0  0  0  0
    5.8000   -4.9760   23.5657 H   0  0  0  0  0  0  0  0  0  0  0  0
    5.4770   -5.9737   21.3370 H   0  0  0  0  0  0  0  0  0  0  0  0
    7.0460   -5.3939   20.7973 H   0  0  0  0  0  0  0  0  0  0  0  0
    6.5386   -7.3790   23.0503 H   0  0  0  0  0  0  0  0  0  0  0  0
    7.2164   -7.8228   21.5191 H   0  0  0  0  0  0  0  0  0  0  0  0
    9.1565   -6.2776   21.8709 H   0  0  0  0  0  0  0  0  0  0  0  0
    9.1492   -7.5737   23.0268 H   0  0  0  0  0  0  0  0  0  0  0  0
    8.0266   -6.0339   24.7032 H   0  0  0  0  0  0  0  0  0  0  0  0
    9.5768   -5.3988   24.1855 H   0  0  0  0  0  0  0  0  0  0  0  0
    7.7499   -3.6665   24.2136 H   0  0  0  0  0  0  0  0  0  0  0  0
    8.6944   -4.1620   21.3531 H   0  0  0  0  0  0  0  0  0  0  0  0
    9.7580   -3.5069   22.6302 H   0  0  0  0  0  0  0  0  0  0  0  0
    7.7384   -1.9179   20.7796 N   0  0  0  0  0  0  0  0  0  0  0  0
    7.3291   -0.6342   20.9703 N   0  0  0  0  0  0  0  0  0  0  0  0
    6.6386    0.0380   19.9259 C   0  0  0  0  0  0  0  0  0  0  0  0
    5.4279    0.6999   20.1547 C   0  0  0  0  0  0  0  0  0  0  0  0
    4.8218    1.3342   19.0646 C   0  0  0  0  0  0  0  0  0  0  0  0
    5.4372    1.2971   17.8110 C   0  0  0  0  0  0  0  0  0  0  0  0
    6.5810    0.6301   17.5814 N   0  0  0  0  0  0  0  0  0  0  0  0
    7.1529    0.0039   18.6171 C   0  0  0  0  0  0  0  0  0  0  0  0
    8.0526   -0.5676   18.4008 H   0  0  0  0  0  0  0  0  0  0  0  0
    5.0002    1.8185   16.9596 H   0  0  0  0  0  0  0  0  0  0  0  0
    3.8829    1.8587   19.1833 H   0  0  0  0  0  0  0  0  0  0  0  0
    4.9553    0.6743   21.1394 H   0  0  0  0  0  0  0  0  0  0  0  0
    6.8077    1.7095   22.3585 H   0  0  0  0  0  0  0  0  0  0  0  0
    7.4728    1.1007   23.8629 H   0  0  0  0  0  0  0  0  0  0  0  0
   10.1561    1.3334   23.0835 N   0  0  0  0  0  0  0  0  0  0  0  0
   10.9948    0.3945   22.5084 C   0  0  0  0  0  0  0  0  0  0  0  0
   11.9679    0.1384   23.4262 C   0  0  0  0  0  0  0  0  0  0  0  0
   11.7706    0.8944   24.5577 N   0  0  0  0  0  0  0  0  0  0  0  0
   10.6893    1.5913   24.3183 C   0  0  0  0  0  0  0  0  0  0  0  0
   10.2538    2.3178   24.9970 H   0  0  0  0  0  0  0  0  0  0  0  0
   12.8027   -0.5420   23.3303 H   0  0  0  0  0  0  0  0  0  0  0  0
   10.8409   -0.0079   21.5180 H   0  0  0  0  0  0  0  0  0  0  0  0
    8.8452    2.9235   22.9372 H   0  0  0  0  0  0  0  0  0  0  0  0
    9.2679    1.0818   20.5138 H   0  0  0  0  0  0  0  0  0  0  0  0
    8.2673    2.5104   20.5079 H   0  0  0  0  0  0  0  0  0  0  0  0
   10.0353    2.6704   20.7635 H   0  0  0  0  0  0  0  0  0  0  0  0
  1  2  1  0
  2  3  1  0
  3  4  1  0
  4  5  2  0
  5  6  1  0
  6  7  1  0
  7  8  1  0
  8  9  1  0
  9 10  1  0
 10 11  1  0
 11 12  1  0
 12 13  1  0
 13 14  1  0
 13 15  1  0
 12 16  1  0
 12 17  1  0
 11 18  1  0
 11 19  1  0
 10 20  1  0
 10 21  1  0
  9 22  1  0
  9 23  1  0
  8 24  1  0
  7 25  1  0
  7 26  1  0
  6 27  2  0
 27 28  1  0
 28 29  1  0
 29 30  2  0
 30 31  1  0
 31 32  2  0
 32 33  1  0
 33 34  2  0
 34 35  1  0
 32 36  1  0
 31 37  1  0
 30 38  1  0
  3 39  1  0
  3 40  1  0
  2 41  1  0
 41 42  1  0
 42 43  2  0
 43 44  1  0
 44 45  2  0
 45 46  1  0
 43 47  1  0
 42 48  1  0
  2 49  1  0
  1 50  1  0
  1 51  1  0
  1 52  1  0
 28  4  1  0
 34 29  1  0
 45 41  1  0
 13  8  1  0
M  END
>  <cnnaffinity>  (1) 
-6.40531

>  <filename>  (1) 
CC(Cc1nc(CC2CCCCC2)nn1-c1cccnc1)n1ccnc1

$$$$
