
     RDKit          3D

 44 46  0  0  0  0  0  0  0  0999 V2000
    7.9747   -1.4262   25.6479 C   0  0  0  0  0  0  0  0  0  0  0  0
    6.9915   -2.4691   25.0808 C   0  0  0  0  0  0  0  0  0  0  0  0
    5.6145   -1.8246   24.9093 C   0  0  0  0  0  0  0  0  0  0  0  0
    4.9250   -2.4957   24.3822 H   0  0  0  0  0  0  0  0  0  0  0  0
    5.7017   -0.8973   24.3371 H   0  0  0  0  0  0  0  0  0  0  0  0
    5.1552   -1.5891   25.8784 H   0  0  0  0  0  0  0  0  0  0  0  0
    6.8552   -3.6408   26.0536 C   0  0  0  0  0  0  0  0  0  0  0  0
    6.4271   -3.3200   27.0093 H   0  0  0  0  0  0  0  0  0  0  0  0
    7.8215   -4.1156   26.2541 H   0  0  0  0  0  0  0  0  0  0  0  0
    6.1855   -4.4022   25.6403 H   0  0  0  0  0  0  0  0  0  0  0  0
    7.4885   -3.0609   23.7259 C   0  0  0  0  0  0  0  0  0  0  0  0
    7.6940   -2.0645   22.6388 C   0  0  0  0  0  0  0  0  0  0  0  0
    6.7730   -1.7087   21.7648 N   0  0  0  0  0  0  0  0  0  0  0  0
    7.3943   -0.7332   21.0388 N   0  0  0  0  0  0  0  0  0  0  0  0
    6.6996   -0.0897   19.9652 C   0  0  0  0  0  0  0  0  0  0  0  0
    5.4741    0.5449   20.2015 C   0  0  0  0  0  0  0  0  0  0  0  0
    4.8738    1.2395   19.1479 C   0  0  0  0  0  0  0  0  0  0  0  0
    5.4915    1.2384   17.8905 C   0  0  0  0  0  0  0  0  0  0  0  0
    6.6400    0.5901   17.6413 N   0  0  0  0  0  0  0  0  0  0  0  0
    7.2216   -0.0643   18.6560 C   0  0  0  0  0  0  0  0  0  0  0  0
    8.1332   -0.6126   18.4161 H   0  0  0  0  0  0  0  0  0  0  0  0
    5.0364    1.7518   17.0469 H   0  0  0  0  0  0  0  0  0  0  0  0
    3.9393    1.7701   19.2899 H   0  0  0  0  0  0  0  0  0  0  0  0
    5.0197    0.4877   21.1926 H   0  0  0  0  0  0  0  0  0  0  0  0
    8.6404   -0.5269   21.5632 C   0  0  0  0  0  0  0  0  0  0  0  0
    9.5567    0.6372   21.3112 C   0  0  0  0  0  0  0  0  0  0  0  0
    9.0928    1.8894   22.0410 C   0  0  0  0  0  0  0  0  0  0  0  0
    8.0821    2.6739   21.4882 C   0  0  0  0  0  0  0  0  0  0  0  0
    7.6505    3.8309   22.1437 C   0  0  0  0  0  0  0  0  0  0  0  0
    8.2439    4.1428   23.3661 C   0  0  0  0  0  0  0  0  0  0  0  0
    9.1681    3.3721   23.9547 N   0  0  0  0  0  0  0  0  0  0  0  0
    9.5532    2.2804   23.3153 C   0  0  0  0  0  0  0  0  0  0  0  0
   10.6902    1.2709   24.1789 Cl  0  0  0  0  0  0  0  0  0  0  0  0
    7.9694    5.0498   23.8994 H   0  0  0  0  0  0  0  0  0  0  0  0
    6.9003    4.4835   21.7147 H   0  0  0  0  0  0  0  0  0  0  0  0
    7.6448    2.3309   20.5530 H   0  0  0  0  0  0  0  0  0  0  0  0
    9.6317    0.8378   20.2401 H   0  0  0  0  0  0  0  0  0  0  0  0
   10.5458    0.3327   21.6662 H   0  0  0  0  0  0  0  0  0  0  0  0
    8.8652   -1.3868   22.5350 N   0  0  0  0  0  0  0  0  0  0  0  0
    6.7791   -3.8162   23.3733 H   0  0  0  0  0  0  0  0  0  0  0  0
    8.4450   -3.5675   23.8850 H   0  0  0  0  0  0  0  0  0  0  0  0
    8.0993   -0.5666   24.9803 H   0  0  0  0  0  0  0  0  0  0  0  0
    7.6175   -1.0302   26.6068 H   0  0  0  0  0  0  0  0  0  0  0  0
    8.9700   -1.8585   25.8053 H   0  0  0  0  0  0  0  0  0  0  0  0
  1  2  1  0
  2  3  1  0
  3  4  1  0
  3  5  1  0
  3  6  1  0
  2  7  1  0
  7  8  1  0
  7  9  1  0
  7 10  1  0
  2 11  1  0
 11 12  1  0
 12 13  2  0
 13 14  1  0
 14 15  1  0
 15 16  2  0
 16 17  1  0
 17 18  2  0
 18 19  1  0
 19 20  2  0
 20 21  1  0
 18 22  1  0
 17 23  1  0
 16 24  1  0
 14 25  1  0
 25 26  1  0
 26 27  1  0
 27 28  2  0
 28 29  1  0
 29 30  2  0
 30 31  1  0
 31 32  2  0
 32 33  1  0
 30 34  1  0
 29 35  1  0
 28 36  1  0
 26 37  1  0
 26 38  1  0
 25 39  2  0
 11 40  1  0
 11 41  1  0
  1 42  1  0
  1 43  1  0
  1 44  1  0
 39 12  1  0
 20 15  1  0
 32 27  1  0
M  END
>  <cnnaffinity>  (1) 
-6.17585

>  <filename>  (1) 
CC(C)(C)Cc1nc(Cc2cccnc2Cl)n(-c2cccnc2)n1

$$$$
