
     RDKit          3D

 41 43  0  0  0  0  0  0  0  0999 V2000
    8.3269   -5.3782   24.3138 C   0  0  0  0  0  0  0  0  0  0  0  0
    8.3708   -4.3691   23.1671 C   0  0  0  0  0  0  0  0  0  0  0  0
    7.8133   -4.9828   21.8819 C   0  0  0  0  0  0  0  0  0  0  0  0
    6.7615   -5.2528   22.0154 H   0  0  0  0  0  0  0  0  0  0  0  0
    8.3744   -5.8809   21.6106 H   0  0  0  0  0  0  0  0  0  0  0  0
    7.8851   -4.2640   21.0598 H   0  0  0  0  0  0  0  0  0  0  0  0
    7.5397   -3.1394   23.5527 C   0  0  0  0  0  0  0  0  0  0  0  0
    7.6556   -2.0631   22.5261 C   0  0  0  0  0  0  0  0  0  0  0  0
    6.7539   -1.7949   21.6115 N   0  0  0  0  0  0  0  0  0  0  0  0
    7.2969   -0.7450   20.9559 N   0  0  0  0  0  0  0  0  0  0  0  0
    6.6551   -0.0463   19.9245 C   0  0  0  0  0  0  0  0  0  0  0  0
    5.4303    0.5911   20.1501 C   0  0  0  0  0  0  0  0  0  0  0  0
    4.8447    1.2791   19.0871 C   0  0  0  0  0  0  0  0  0  0  0  0
    5.4696    1.2993   17.8371 C   0  0  0  0  0  0  0  0  0  0  0  0
    6.6380    0.6719   17.6103 N   0  0  0  0  0  0  0  0  0  0  0  0
    7.2173    0.0207   18.6390 C   0  0  0  0  0  0  0  0  0  0  0  0
    8.1635   -0.4857   18.4666 H   0  0  0  0  0  0  0  0  0  0  0  0
    5.0004    1.8414   17.0217 H   0  0  0  0  0  0  0  0  0  0  0  0
    3.9112    1.8117   19.2164 H   0  0  0  0  0  0  0  0  0  0  0  0
    4.9614    0.5668   21.1330 H   0  0  0  0  0  0  0  0  0  0  0  0
    8.5221   -0.4424   21.5464 C   0  0  0  0  0  0  0  0  0  0  0  0
    9.4339    0.7081   21.2380 C   0  0  0  0  0  0  0  0  0  0  0  0
    8.9135    1.9771   21.8847 C   0  0  0  0  0  0  0  0  0  0  0  0
    7.6660    2.4721   21.5206 C   0  0  0  0  0  0  0  0  0  0  0  0
    7.2138    3.6454   22.1138 C   0  0  0  0  0  0  0  0  0  0  0  0
    5.4872    4.3370   21.6885 Br  0  0  0  0  0  0  0  0  0  0  0  0
    8.0385    4.2927   23.0453 C   0  0  0  0  0  0  0  0  0  0  0  0
    9.2225    3.8044   23.4423 N   0  0  0  0  0  0  0  0  0  0  0  0
    9.6507    2.6613   22.8757 C   0  0  0  0  0  0  0  0  0  0  0  0
   10.5915    2.2505   23.2201 H   0  0  0  0  0  0  0  0  0  0  0  0
    7.6912    5.2154   23.4922 H   0  0  0  0  0  0  0  0  0  0  0  0
    7.0616    1.9529   20.7782 H   0  0  0  0  0  0  0  0  0  0  0  0
    9.4963    0.8442   20.1587 H   0  0  0  0  0  0  0  0  0  0  0  0
   10.4382    0.4686   21.5961 H   0  0  0  0  0  0  0  0  0  0  0  0
    8.7753   -1.2592   22.5212 N   0  0  0  0  0  0  0  0  0  0  0  0
    7.9062   -2.7404   24.5016 H   0  0  0  0  0  0  0  0  0  0  0  0
    6.4898   -3.4151   23.6763 H   0  0  0  0  0  0  0  0  0  0  0  0
    9.4139   -4.0746   23.0025 H   0  0  0  0  0  0  0  0  0  0  0  0
    8.9024   -6.2733   24.0611 H   0  0  0  0  0  0  0  0  0  0  0  0
    7.2946   -5.6721   24.5253 H   0  0  0  0  0  0  0  0  0  0  0  0
    8.7542   -4.9367   25.2199 H   0  0  0  0  0  0  0  0  0  0  0  0
  1  2  1  0
  2  3  1  0
  3  4  1  0
  3  5  1  0
  3  6  1  0
  2  7  1  0
  7  8  1  0
  8  9  2  0
  9 10  1  0
 10 11  1  0
 11 12  2  0
 12 13  1  0
 13 14  2  0
 14 15  1  0
 15 16  2  0
 16 17  1  0
 14 18  1  0
 13 19  1  0
 12 20  1  0
 10 21  1  0
 21 22  1  0
 22 23  1  0
 23 24  2  0
 24 25  1  0
 25 26  1  0
 25 27  2  0
 27 28  1  0
 28 29  2  0
 29 30  1  0
 27 31  1  0
 24 32  1  0
 22 33  1  0
 22 34  1  0
 21 35  2  0
  7 36  1  0
  7 37  1  0
  2 38  1  0
  1 39  1  0
  1 40  1  0
  1 41  1  0
 35  8  1  0
 16 11  1  0
 29 23  1  0
M  END
>  <cnnaffinity>  (1) 
-5.76416

>  <filename>  (1) 
CC(C)Cc1nc(Cc2cncc(Br)c2)n(-c2cccnc2)n1

$$$$
