
     RDKit          3D

 44 46  0  0  0  0  0  0  0  0999 V2000
    6.5864   -2.3416   24.7977 C   0  0  0  0  0  0  0  0  0  0  0  0
    7.4103   -2.9658   23.6518 C   0  0  0  0  0  0  0  0  0  0  0  0
    6.7747   -4.2704   23.1462 C   0  0  0  0  0  0  0  0  0  0  0  0
    6.6554   -4.9814   23.9712 H   0  0  0  0  0  0  0  0  0  0  0  0
    5.7874   -4.0755   22.7154 H   0  0  0  0  0  0  0  0  0  0  0  0
    7.3902   -4.7468   22.3763 H   0  0  0  0  0  0  0  0  0  0  0  0
    7.6522   -1.9750   22.5431 C   0  0  0  0  0  0  0  0  0  0  0  0
    6.7199   -1.5888   21.6945 N   0  0  0  0  0  0  0  0  0  0  0  0
    7.3616   -0.6568   20.9430 N   0  0  0  0  0  0  0  0  0  0  0  0
    6.6716    0.0024   19.8879 C   0  0  0  0  0  0  0  0  0  0  0  0
    5.4510    0.6305   20.1521 C   0  0  0  0  0  0  0  0  0  0  0  0
    4.8216    1.3057   19.1041 C   0  0  0  0  0  0  0  0  0  0  0  0
    5.4157    1.3026   17.8342 C   0  0  0  0  0  0  0  0  0  0  0  0
    6.5645    0.6638   17.5621 N   0  0  0  0  0  0  0  0  0  0  0  0
    7.1735    0.0321   18.5732 C   0  0  0  0  0  0  0  0  0  0  0  0
    8.1031   -0.4848   18.3338 H   0  0  0  0  0  0  0  0  0  0  0  0
    4.9445    1.8234   17.0049 H   0  0  0  0  0  0  0  0  0  0  0  0
    3.8839    1.8275   19.2610 H   0  0  0  0  0  0  0  0  0  0  0  0
    5.0304    0.5783   21.1594 H   0  0  0  0  0  0  0  0  0  0  0  0
    8.6286   -0.4930   21.4180 C   0  0  0  0  0  0  0  0  0  0  0  0
    9.5138    0.5987   20.9201 C   0  0  0  0  0  0  0  0  0  0  0  0
    8.9834    2.0121   21.2306 C   0  0  0  0  0  0  0  0  0  0  0  0
    8.7475    2.2770   22.7321 C   0  0  0  0  0  0  0  0  0  0  0  0
   10.0386    2.1406   23.5070 C   0  0  0  0  0  0  0  0  0  0  0  0
   11.0947    3.0451   23.3143 C   0  0  0  0  0  0  0  0  0  0  0  0
   12.3488    2.7443   23.8455 C   0  0  0  0  0  0  0  0  0  0  0  0
   12.5056    1.5447   24.5457 C   0  0  0  0  0  0  0  0  0  0  0  0
   11.5101    0.6892   24.7896 N   0  0  0  0  0  0  0  0  0  0  0  0
   10.3085    1.0000   24.2798 C   0  0  0  0  0  0  0  0  0  0  0  0
    9.5054    0.2840   24.4484 H   0  0  0  0  0  0  0  0  0  0  0  0
   13.4804    1.2643   24.9287 H   0  0  0  0  0  0  0  0  0  0  0  0
   13.1974    3.4034   23.6984 H   0  0  0  0  0  0  0  0  0  0  0  0
   10.9394    3.9446   22.7136 H   0  0  0  0  0  0  0  0  0  0  0  0
    7.9944    1.5768   23.1154 H   0  0  0  0  0  0  0  0  0  0  0  0
    8.3074    3.2712   22.8642 H   0  0  0  0  0  0  0  0  0  0  0  0
    9.7183    2.7377   20.8689 H   0  0  0  0  0  0  0  0  0  0  0  0
    8.0662    2.1886   20.6599 H   0  0  0  0  0  0  0  0  0  0  0  0
   10.5106    0.4558   21.3422 H   0  0  0  0  0  0  0  0  0  0  0  0
    9.6135    0.4798   19.8404 H   0  0  0  0  0  0  0  0  0  0  0  0
    8.8516   -1.3477   22.4002 N   0  0  0  0  0  0  0  0  0  0  0  0
    8.4076   -3.1856   24.0397 H   0  0  0  0  0  0  0  0  0  0  0  0
    7.0749   -1.4512   25.2093 H   0  0  0  0  0  0  0  0  0  0  0  0
    6.4587   -3.0583   25.6154 H   0  0  0  0  0  0  0  0  0  0  0  0
    5.5911   -2.0451   24.4543 H   0  0  0  0  0  0  0  0  0  0  0  0
  1  2  1  0
  2  3  1  0
  3  4  1  0
  3  5  1  0
  3  6  1  0
  2  7  1  0
  7  8  2  0
  8  9  1  0
  9 10  1  0
 10 11  2  0
 11 12  1  0
 12 13  2  0
 13 14  1  0
 14 15  2  0
 15 16  1  0
 13 17  1  0
 12 18  1  0
 11 19  1  0
  9 20  1  0
 20 21  1  0
 21 22  1  0
 22 23  1  0
 23 24  1  0
 24 25  2  0
 25 26  1  0
 26 27  2  0
 27 28  1  0
 28 29  2  0
 29 30  1  0
 27 31  1  0
 26 32  1  0
 25 33  1  0
 23 34  1  0
 23 35  1  0
 22 36  1  0
 22 37  1  0
 21 38  1  0
 21 39  1  0
 20 40  2  0
  2 41  1  0
  1 42  1  0
  1 43  1  0
  1 44  1  0
 40  7  1  0
 15 10  1  0
 29 24  1  0
M  END
>  <cnnaffinity>  (1) 
-6.06352

>  <filename>  (1) 
CC(C)c1nc(CCCc2cccnc2)n(-c2cccnc2)n1

$$$$
