
     RDKit          3D

 39 41  0  0  0  0  0  0  0  0999 V2000
    6.5358   -2.4643   24.7469 C   0  0  0  0  0  0  0  0  0  0  0  0
    7.8487   -1.7805   24.3174 C   0  0  0  0  0  0  0  0  0  0  0  0
    8.1089   -0.4718   25.1260 C   0  0  0  0  0  0  0  0  0  0  0  0
    9.4612    0.1574   24.8429 C   0  0  0  0  0  0  0  0  0  0  0  0
   10.5861   -0.2861   25.5551 C   0  0  0  0  0  0  0  0  0  0  0  0
   11.8780    0.1042   25.2010 C   0  0  0  0  0  0  0  0  0  0  0  0
   12.0227    1.0756   24.2216 C   0  0  0  0  0  0  0  0  0  0  0  0
   13.2648    1.5096   23.9557 F   0  0  0  0  0  0  0  0  0  0  0  0
   10.9374    1.6077   23.5376 C   0  0  0  0  0  0  0  0  0  0  0  0
    9.6596    1.1231   23.8371 C   0  0  0  0  0  0  0  0  0  0  0  0
    8.8048    1.4873   23.2788 H   0  0  0  0  0  0  0  0  0  0  0  0
   11.1371    2.3846   22.8074 H   0  0  0  0  0  0  0  0  0  0  0  0
   12.7882   -0.3317   25.5978 H   0  0  0  0  0  0  0  0  0  0  0  0
   10.3964   -0.8815   26.4418 H   0  0  0  0  0  0  0  0  0  0  0  0
    8.0487   -0.7212   26.1937 H   0  0  0  0  0  0  0  0  0  0  0  0
    7.2969    0.2363   24.9113 H   0  0  0  0  0  0  0  0  0  0  0  0
    7.8459   -1.4758   22.8434 C   0  0  0  0  0  0  0  0  0  0  0  0
    6.9316   -0.7711   22.2084 N   0  0  0  0  0  0  0  0  0  0  0  0
    7.4012   -0.7082   20.9409 C   0  0  0  0  0  0  0  0  0  0  0  0
    6.6646   -0.0018   19.8987 C   0  0  0  0  0  0  0  0  0  0  0  0
    5.4446    0.6479   20.1555 C   0  0  0  0  0  0  0  0  0  0  0  0
    4.8160    1.2990   19.1007 C   0  0  0  0  0  0  0  0  0  0  0  0
    5.4229    1.2773   17.8398 C   0  0  0  0  0  0  0  0  0  0  0  0
    6.5824    0.6552   17.5860 N   0  0  0  0  0  0  0  0  0  0  0  0
    7.1914    0.0363   18.6013 C   0  0  0  0  0  0  0  0  0  0  0  0
    8.1421   -0.4452   18.3753 H   0  0  0  0  0  0  0  0  0  0  0  0
    4.9617    1.7865   16.9982 H   0  0  0  0  0  0  0  0  0  0  0  0
    3.8824    1.8322   19.2403 H   0  0  0  0  0  0  0  0  0  0  0  0
    5.0020    0.6479   21.1546 H   0  0  0  0  0  0  0  0  0  0  0  0
    8.5608   -1.3211   20.7573 N   0  0  0  0  0  0  0  0  0  0  0  0
    8.8387   -1.8050   21.9876 N   0  0  0  0  0  0  0  0  0  0  0  0
   10.0829   -2.4976   22.2494 C   0  0  0  0  0  0  0  0  0  0  0  0
   10.6107   -2.5378   21.2963 H   0  0  0  0  0  0  0  0  0  0  0  0
   10.6838   -1.9540   22.9917 H   0  0  0  0  0  0  0  0  0  0  0  0
    9.8887   -3.5127   22.6192 H   0  0  0  0  0  0  0  0  0  0  0  0
    8.6786   -2.4754   24.5155 H   0  0  0  0  0  0  0  0  0  0  0  0
    6.3509   -3.3789   24.1704 H   0  0  0  0  0  0  0  0  0  0  0  0
    6.5633   -2.7406   25.8081 H   0  0  0  0  0  0  0  0  0  0  0  0
    5.6793   -1.7962   24.5962 H   0  0  0  0  0  0  0  0  0  0  0  0
  1  2  1  0
  2  3  1  0
  3  4  1  0
  4  5  2  0
  5  6  1  0
  6  7  2  0
  7  8  1  0
  7  9  1  0
  9 10  2  0
 10 11  1  0
  9 12  1  0
  6 13  1  0
  5 14  1  0
  3 15  1  0
  3 16  1  0
  2 17  1  0
 17 18  2  0
 18 19  1  0
 19 20  1  0
 20 21  2  0
 21 22  1  0
 22 23  2  0
 23 24  1  0
 24 25  2  0
 25 26  1  0
 23 27  1  0
 22 28  1  0
 21 29  1  0
 19 30  2  0
 30 31  1  0
 31 32  1  0
 32 33  1  0
 32 34  1  0
 32 35  1  0
  2 36  1  0
  1 37  1  0
  1 38  1  0
  1 39  1  0
 10  4  1  0
 31 17  1  0
 25 20  1  0
M  END
>  <cnnaffinity>  (1) 
-5.83626

>  <filename>  (1) 
CC(Cc1ccc(F)cc1)c1nc(-c2cccnc2)nn1C

$$$$
