
     RDKit          3D

 43 46  0  0  0  0  0  0  0  0999 V2000
    8.1547    2.5254   21.7598 C   0  0  0  0  0  0  0  0  0  0  0  0
    9.4896    1.8139   21.8742 C   0  0  0  0  0  0  0  0  0  0  0  0
    9.5583    0.5460   20.9797 C   0  0  0  0  0  0  0  0  0  0  0  0
    8.6228   -0.5384   21.3950 C   0  0  0  0  0  0  0  0  0  0  0  0
    8.8518   -1.4036   22.3546 N   0  0  0  0  0  0  0  0  0  0  0  0
    7.6633   -2.0494   22.4997 C   0  0  0  0  0  0  0  0  0  0  0  0
    7.4479   -3.0947   23.5308 C   0  0  0  0  0  0  0  0  0  0  0  0
    6.2133   -3.7724   23.6015 C   0  0  0  0  0  0  0  0  0  0  0  0
    5.9938   -4.7552   24.5630 C   0  0  0  0  0  0  0  0  0  0  0  0
    7.0142   -5.0648   25.4655 C   0  0  0  0  0  0  0  0  0  0  0  0
    6.7368   -6.2886   26.6666 Cl  0  0  0  0  0  0  0  0  0  0  0  0
    8.2474   -4.4088   25.4214 C   0  0  0  0  0  0  0  0  0  0  0  0
    8.4611   -3.4249   24.4555 C   0  0  0  0  0  0  0  0  0  0  0  0
    9.4199   -2.9090   24.4249 H   0  0  0  0  0  0  0  0  0  0  0  0
    9.0188   -4.6729   26.1396 H   0  0  0  0  0  0  0  0  0  0  0  0
    5.0440   -5.2777   24.6238 H   0  0  0  0  0  0  0  0  0  0  0  0
    5.4241   -3.5138   22.8993 H   0  0  0  0  0  0  0  0  0  0  0  0
    6.7227   -1.6433   21.6592 N   0  0  0  0  0  0  0  0  0  0  0  0
    7.3492   -0.6953   20.9217 N   0  0  0  0  0  0  0  0  0  0  0  0
    6.6531    0.0019   19.8974 C   0  0  0  0  0  0  0  0  0  0  0  0
    5.4378    0.6412   20.1665 C   0  0  0  0  0  0  0  0  0  0  0  0
    4.8115    1.3105   19.1084 C   0  0  0  0  0  0  0  0  0  0  0  0
    5.3997    1.2974   17.8373 C   0  0  0  0  0  0  0  0  0  0  0  0
    6.5570    0.6721   17.5731 N   0  0  0  0  0  0  0  0  0  0  0  0
    7.1646    0.0499   18.5888 C   0  0  0  0  0  0  0  0  0  0  0  0
    8.1104   -0.4364   18.3642 H   0  0  0  0  0  0  0  0  0  0  0  0
    4.9202    1.7881   16.9929 H   0  0  0  0  0  0  0  0  0  0  0  0
    3.8796    1.8398   19.2601 H   0  0  0  0  0  0  0  0  0  0  0  0
    5.0126    0.6071   21.1747 H   0  0  0  0  0  0  0  0  0  0  0  0
    9.3730    0.8269   19.9405 H   0  0  0  0  0  0  0  0  0  0  0  0
   10.5665    0.1344   21.0235 H   0  0  0  0  0  0  0  0  0  0  0  0
    9.8043    1.5220   23.2646 N   0  0  0  0  0  0  0  0  0  0  0  0
   11.0764    1.4260   23.7935 C   0  0  0  0  0  0  0  0  0  0  0  0
   10.9010    0.9957   25.0748 C   0  0  0  0  0  0  0  0  0  0  0  0
    9.5726    0.8102   25.3518 N   0  0  0  0  0  0  0  0  0  0  0  0
    8.9397    1.1224   24.2495 C   0  0  0  0  0  0  0  0  0  0  0  0
    7.8698    1.0254   24.1064 H   0  0  0  0  0  0  0  0  0  0  0  0
   11.6654    0.7981   25.8088 H   0  0  0  0  0  0  0  0  0  0  0  0
   11.9645    1.6554   23.2176 H   0  0  0  0  0  0  0  0  0  0  0  0
   10.2756    2.4956   21.5199 H   0  0  0  0  0  0  0  0  0  0  0  0
    7.3017    1.9135   22.0692 H   0  0  0  0  0  0  0  0  0  0  0  0
    8.1512    3.4653   22.3239 H   0  0  0  0  0  0  0  0  0  0  0  0
    7.9924    2.7128   20.7086 H   0  0  0  0  0  0  0  0  0  0  0  0
  1  2  1  0
  2  3  1  0
  3  4  1  0
  4  5  2  0
  5  6  1  0
  6  7  1  0
  7  8  2  0
  8  9  1  0
  9 10  2  0
 10 11  1  0
 10 12  1  0
 12 13  2  0
 13 14  1  0
 12 15  1  0
  9 16  1  0
  8 17  1  0
  6 18  2  0
 18 19  1  0
 19 20  1  0
 20 21  2  0
 21 22  1  0
 22 23  2  0
 23 24  1  0
 24 25  2  0
 25 26  1  0
 23 27  1  0
 22 28  1  0
 21 29  1  0
  3 30  1  0
  3 31  1  0
  2 32  1  0
 32 33  1  0
 33 34  2  0
 34 35  1  0
 35 36  2  0
 36 37  1  0
 34 38  1  0
 33 39  1  0
  2 40  1  0
  1 41  1  0
  1 42  1  0
  1 43  1  0
 19  4  1  0
 25 20  1  0
 36 32  1  0
 13  7  1  0
M  END
>  <cnnaffinity>  (1) 
-6.09343

>  <filename>  (1) 
CC(Cc1nc(-c2ccc(Cl)cc2)nn1-c1cccnc1)n1ccnc1

$$$$
