
     RDKit          3D

 34 35  0  0  0  0  0  0  0  0999 V2000
    5.0521    1.7991   16.9195 H   0  0  0  0  0  0  0  0  0  0  0  0
    5.4865    1.2886   17.7742 C   0  0  0  0  0  0  0  0  0  0  0  0
    6.6486    0.6509   17.5434 N   0  0  0  0  0  0  0  0  0  0  0  0
    7.2192    0.0126   18.5686 C   0  0  0  0  0  0  0  0  0  0  0  0
    8.1786   -0.4728   18.3961 H   0  0  0  0  0  0  0  0  0  0  0  0
    6.6533   -0.0587   19.8545 C   0  0  0  0  0  0  0  0  0  0  0  0
    7.3629   -0.7712   20.8719 N   0  0  0  0  0  0  0  0  0  0  0  0
    8.7245   -0.6567   20.7893 N   0  0  0  0  0  0  0  0  0  0  0  0
    9.4511   -1.0651   21.7849 C   0  0  0  0  0  0  0  0  0  0  0  0
   10.9240   -0.7188   21.7510 C   0  0  0  0  0  0  0  0  0  0  0  0
   11.5172   -1.6347   21.9302 H   0  0  0  0  0  0  0  0  0  0  0  0
   11.1621   -0.3518   20.7431 H   0  0  0  0  0  0  0  0  0  0  0  0
   11.1868    0.3501   22.7213 N   0  0  0  0  0  0  0  0  0  0  0  0
   11.0602   -0.0284   23.6580 H   0  0  0  0  0  0  0  0  0  0  0  0
   12.4837    1.0103   22.6209 C   0  0  0  0  0  0  0  0  0  0  0  0
   12.6509    1.2016   21.5521 H   0  0  0  0  0  0  0  0  0  0  0  0
   13.6183    0.1568   23.1799 C   0  0  0  0  0  0  0  0  0  0  0  0
   13.4946    0.0582   24.2658 H   0  0  0  0  0  0  0  0  0  0  0  0
   13.5853   -0.8469   22.7438 H   0  0  0  0  0  0  0  0  0  0  0  0
   14.5966    0.6094   22.9769 H   0  0  0  0  0  0  0  0  0  0  0  0
   12.4361    2.3689   23.3030 C   0  0  0  0  0  0  0  0  0  0  0  0
   13.4144    2.8608   23.2415 H   0  0  0  0  0  0  0  0  0  0  0  0
   12.2113    2.2701   24.3680 H   0  0  0  0  0  0  0  0  0  0  0  0
   11.6619    2.9960   22.8514 H   0  0  0  0  0  0  0  0  0  0  0  0
    8.9193   -1.7601   22.9851 C   0  0  0  0  0  0  0  0  0  0  0  0
    9.6216   -2.0660   23.9473 O   0  0  0  0  0  0  0  0  0  0  0  0
    7.4887   -2.0374   22.8865 C   0  0  0  0  0  0  0  0  0  0  0  0
    7.0328   -2.6213   23.6789 H   0  0  0  0  0  0  0  0  0  0  0  0
    6.7656   -1.5120   21.8670 C   0  0  0  0  0  0  0  0  0  0  0  0
    5.6861   -1.6303   21.7608 H   0  0  0  0  0  0  0  0  0  0  0  0
    5.4561    0.6328   20.0938 C   0  0  0  0  0  0  0  0  0  0  0  0
    5.0466    0.6654   21.1013 H   0  0  0  0  0  0  0  0  0  0  0  0
    4.8601    1.3131   19.0239 C   0  0  0  0  0  0  0  0  0  0  0  0
    3.9345    1.8687   19.1492 H   0  0  0  0  0  0  0  0  0  0  0  0
  1  2  1  0
  2  3  2  0
  3  4  1  0
  4  5  1  0
  4  6  2  0
  6  7  1  0
  7  8  1  0
  8  9  2  0
  9 10  1  0
 10 11  1  0
 10 12  1  0
 10 13  1  0
 13 14  1  0
 13 15  1  0
 15 16  1  0
 15 17  1  0
 17 18  1  0
 17 19  1  0
 17 20  1  0
 15 21  1  0
 21 22  1  0
 21 23  1  0
 21 24  1  0
  9 25  1  0
 25 26  2  0
 25 27  1  0
 27 28  1  0
 27 29  2  0
 29 30  1  0
  6 31  1  0
 31 32  1  0
 31 33  2  0
 33 34  1  0
 33  2  1  0
 29  7  1  0
M  END
>  <cnnaffinity>  (1) 
-4.70946

>  <filename>  (1) 
CC(C)NCc1nn(-c2cccnc2)ccc1=O

$$$$
