
     RDKit          3D

 41 43  0  0  0  0  0  0  0  0999 V2000
    6.6439   -4.1127   23.2966 C   0  0  0  0  0  0  0  0  0  0  0  0
    7.4035   -2.8560   23.7453 C   0  0  0  0  0  0  0  0  0  0  0  0
    6.6582   -2.1146   24.8754 C   0  0  0  0  0  0  0  0  0  0  0  0
    7.2260   -1.2454   25.2255 H   0  0  0  0  0  0  0  0  0  0  0  0
    6.4880   -2.7758   25.7312 H   0  0  0  0  0  0  0  0  0  0  0  0
    5.6849   -1.7579   24.5216 H   0  0  0  0  0  0  0  0  0  0  0  0
    7.6709   -1.9273   22.5886 C   0  0  0  0  0  0  0  0  0  0  0  0
    6.7368   -1.5760   21.7234 N   0  0  0  0  0  0  0  0  0  0  0  0
    7.3707   -0.6684   20.9370 N   0  0  0  0  0  0  0  0  0  0  0  0
    6.6612    0.0041   19.9024 C   0  0  0  0  0  0  0  0  0  0  0  0
    5.4431    0.6424   20.1663 C   0  0  0  0  0  0  0  0  0  0  0  0
    4.8131    1.3097   19.1109 C   0  0  0  0  0  0  0  0  0  0  0  0
    5.4000    1.2959   17.8388 C   0  0  0  0  0  0  0  0  0  0  0  0
    6.5595    0.6734   17.5777 N   0  0  0  0  0  0  0  0  0  0  0  0
    7.1693    0.0525   18.5931 C   0  0  0  0  0  0  0  0  0  0  0  0
    8.1142   -0.4346   18.3678 H   0  0  0  0  0  0  0  0  0  0  0  0
    4.9187    1.7851   16.9944 H   0  0  0  0  0  0  0  0  0  0  0  0
    3.8803    1.8389   19.2627 H   0  0  0  0  0  0  0  0  0  0  0  0
    5.0153    0.6099   21.1725 H   0  0  0  0  0  0  0  0  0  0  0  0
    8.6449   -0.5061   21.3959 C   0  0  0  0  0  0  0  0  0  0  0  0
    9.5302    0.6110   20.9451 C   0  0  0  0  0  0  0  0  0  0  0  0
    9.0594    2.0139   21.4360 C   0  0  0  0  0  0  0  0  0  0  0  0
    8.9305    2.0926   22.9409 C   0  0  0  0  0  0  0  0  0  0  0  0
    7.6958    1.8552   23.5710 C   0  0  0  0  0  0  0  0  0  0  0  0
    7.6126    1.8403   24.9634 C   0  0  0  0  0  0  0  0  0  0  0  0
    8.7870    2.0538   25.6847 C   0  0  0  0  0  0  0  0  0  0  0  0
    9.9729    2.2385   24.9675 C   0  0  0  0  0  0  0  0  0  0  0  0
   10.0588    2.2773   23.6336 N   0  0  0  0  0  0  0  0  0  0  0  0
   10.9251    2.3225   25.4711 H   0  0  0  0  0  0  0  0  0  0  0  0
    8.7955    2.0575   26.7698 H   0  0  0  0  0  0  0  0  0  0  0  0
    6.6649    1.6386   25.4720 H   0  0  0  0  0  0  0  0  0  0  0  0
    6.8315    1.6473   22.9577 H   0  0  0  0  0  0  0  0  0  0  0  0
    9.7749    2.7691   21.1042 H   0  0  0  0  0  0  0  0  0  0  0  0
    8.0940    2.2457   20.9772 H   0  0  0  0  0  0  0  0  0  0  0  0
    9.5911    0.6067   19.8543 H   0  0  0  0  0  0  0  0  0  0  0  0
   10.5307    0.3994   21.3302 H   0  0  0  0  0  0  0  0  0  0  0  0
    8.8694   -1.3127   22.4176 N   0  0  0  0  0  0  0  0  0  0  0  0
    8.3927   -3.1408   24.1145 H   0  0  0  0  0  0  0  0  0  0  0  0
    6.5099   -4.8021   24.1370 H   0  0  0  0  0  0  0  0  0  0  0  0
    7.1837   -4.6371   22.5011 H   0  0  0  0  0  0  0  0  0  0  0  0
    5.6558   -3.8392   22.9086 H   0  0  0  0  0  0  0  0  0  0  0  0
  1  2  1  0
  2  3  1  0
  3  4  1  0
  3  5  1  0
  3  6  1  0
  2  7  1  0
  7  8  2  0
  8  9  1  0
  9 10  1  0
 10 11  2  0
 11 12  1  0
 12 13  2  0
 13 14  1  0
 14 15  2  0
 15 16  1  0
 13 17  1  0
 12 18  1  0
 11 19  1  0
  9 20  1  0
 20 21  1  0
 21 22  1  0
 22 23  1  0
 23 24  2  0
 24 25  1  0
 25 26  2  0
 26 27  1  0
 27 28  2  0
 27 29  1  0
 26 30  1  0
 25 31  1  0
 24 32  1  0
 22 33  1  0
 22 34  1  0
 21 35  1  0
 21 36  1  0
 20 37  2  0
  2 38  1  0
  1 39  1  0
  1 40  1  0
  1 41  1  0
 37  7  1  0
 15 10  1  0
 28 23  1  0
M  END
>  <cnnaffinity>  (1) 
-5.67595

>  <filename>  (1) 
CC(C)c1nc(CCc2ccccn2)n(-c2cccnc2)n1

$$$$
