
     RDKit          3D

 32 33  0  0  0  0  0  0  0  0999 V2000
    4.9666    1.8161   16.9439 H   0  0  0  0  0  0  0  0  0  0  0  0
    5.4443    1.3348   17.7917 C   0  0  0  0  0  0  0  0  0  0  0  0
    6.6325    0.7529   17.5409 N   0  0  0  0  0  0  0  0  0  0  0  0
    7.2345    0.1288   18.5551 C   0  0  0  0  0  0  0  0  0  0  0  0
    8.2125   -0.3174   18.3807 H   0  0  0  0  0  0  0  0  0  0  0  0
    6.6593    0.0132   19.8318 C   0  0  0  0  0  0  0  0  0  0  0  0
    7.3394   -0.7198   20.8432 N   0  0  0  0  0  0  0  0  0  0  0  0
    8.6610   -0.3742   20.9983 N   0  0  0  0  0  0  0  0  0  0  0  0
    9.3282   -0.9496   21.9528 C   0  0  0  0  0  0  0  0  0  0  0  0
   10.3708   -0.6380   22.0305 H   0  0  0  0  0  0  0  0  0  0  0  0
    8.7559   -1.9418   22.8411 C   0  0  0  0  0  0  0  0  0  0  0  0
    9.5101   -2.5708   23.9783 C   0  0  0  0  0  0  0  0  0  0  0  0
    9.2245   -3.6295   24.0464 H   0  0  0  0  0  0  0  0  0  0  0  0
   10.5861   -2.5745   23.7565 H   0  0  0  0  0  0  0  0  0  0  0  0
    9.3104   -1.8846   25.3553 C   0  0  0  0  0  0  0  0  0  0  0  0
    9.7458   -2.5689   26.0924 H   0  0  0  0  0  0  0  0  0  0  0  0
    7.8674   -1.6790   25.8350 C   0  0  0  0  0  0  0  0  0  0  0  0
    7.3110   -2.6170   25.9177 H   0  0  0  0  0  0  0  0  0  0  0  0
    7.2911   -0.9947   25.2024 H   0  0  0  0  0  0  0  0  0  0  0  0
    7.8717   -1.2551   26.8458 H   0  0  0  0  0  0  0  0  0  0  0  0
   10.0882   -0.5659   25.3753 C   0  0  0  0  0  0  0  0  0  0  0  0
   10.1643   -0.1575   26.3864 H   0  0  0  0  0  0  0  0  0  0  0  0
    9.6256    0.1927   24.7320 H   0  0  0  0  0  0  0  0  0  0  0  0
   11.1078   -0.7228   25.0114 H   0  0  0  0  0  0  0  0  0  0  0  0
    7.4598   -2.3097   22.6257 C   0  0  0  0  0  0  0  0  0  0  0  0
    6.9465   -3.0286   23.2524 H   0  0  0  0  0  0  0  0  0  0  0  0
    6.6581   -1.7692   21.5555 C   0  0  0  0  0  0  0  0  0  0  0  0
    5.5389   -2.1521   21.2586 O   0  0  0  0  0  0  0  0  0  0  0  0
    5.4376    0.6371   20.0987 C   0  0  0  0  0  0  0  0  0  0  0  0
    5.0083    0.6066   21.1006 H   0  0  0  0  0  0  0  0  0  0  0  0
    4.8253    1.3207   19.0458 C   0  0  0  0  0  0  0  0  0  0  0  0
    3.8837    1.8391   19.1879 H   0  0  0  0  0  0  0  0  0  0  0  0
  1  2  1  0
  2  3  2  0
  3  4  1  0
  4  5  1  0
  4  6  2  0
  6  7  1  0
  7  8  1  0
  8  9  2  0
  9 10  1  0
  9 11  1  0
 11 12  1  0
 12 13  1  0
 12 14  1  0
 12 15  1  0
 15 16  1  0
 15 17  1  0
 17 18  1  0
 17 19  1  0
 17 20  1  0
 15 21  1  0
 21 22  1  0
 21 23  1  0
 21 24  1  0
 11 25  2  0
 25 26  1  0
 25 27  1  0
 27 28  2  0
  6 29  1  0
 29 30  1  0
 29 31  2  0
 31 32  1  0
 31  2  1  0
 27  7  1  0
M  END
>  <cnnaffinity>  (1) 
-5.02347

>  <filename>  (1) 
CC(C)Cc1cnn(-c2cccnc2)c(=O)c1

$$$$
