
     RDKit          3D

 49 51  0  0  0  0  0  0  0  0999 V2000
    6.4529   -1.6509   27.0744 C   0  0  0  0  0  0  0  0  0  0  0  0
    7.2261   -2.6263   26.1799 C   0  0  0  0  0  0  0  0  0  0  0  0
    8.7226   -2.5903   26.4920 C   0  0  0  0  0  0  0  0  0  0  0  0
    8.8936   -2.8904   27.5234 H   0  0  0  0  0  0  0  0  0  0  0  0
    9.1381   -1.5885   26.3453 H   0  0  0  0  0  0  0  0  0  0  0  0
    9.2815   -3.2881   25.8632 H   0  0  0  0  0  0  0  0  0  0  0  0
    6.6623   -4.0455   26.3031 C   0  0  0  0  0  0  0  0  0  0  0  0
    7.2262   -4.7460   25.6802 H   0  0  0  0  0  0  0  0  0  0  0  0
    6.7205   -4.4132   27.3296 H   0  0  0  0  0  0  0  0  0  0  0  0
    5.6141   -4.0631   25.9895 H   0  0  0  0  0  0  0  0  0  0  0  0
    6.9966   -2.1011   24.8663 O   0  0  0  0  0  0  0  0  0  0  0  0
    7.3880   -2.8508   23.7204 C   0  0  0  0  0  0  0  0  0  0  0  0
    7.6479   -1.9322   22.5522 C   0  0  0  0  0  0  0  0  0  0  0  0
    6.7075   -1.5493   21.7115 N   0  0  0  0  0  0  0  0  0  0  0  0
    7.3491   -0.6532   20.9254 N   0  0  0  0  0  0  0  0  0  0  0  0
    6.6601   -0.0014   19.8637 C   0  0  0  0  0  0  0  0  0  0  0  0
    5.4481    0.6391   20.1350 C   0  0  0  0  0  0  0  0  0  0  0  0
    4.8067    1.3118   19.0931 C   0  0  0  0  0  0  0  0  0  0  0  0
    5.3964    1.2995   17.8247 C   0  0  0  0  0  0  0  0  0  0  0  0
    6.5425    0.6547   17.5491 N   0  0  0  0  0  0  0  0  0  0  0  0
    7.1608    0.0213   18.5527 C   0  0  0  0  0  0  0  0  0  0  0  0
    8.0951   -0.4876   18.3056 H   0  0  0  0  0  0  0  0  0  0  0  0
    4.9335    1.8300   16.9989 H   0  0  0  0  0  0  0  0  0  0  0  0
    3.8749    1.8495   19.2562 H   0  0  0  0  0  0  0  0  0  0  0  0
    5.0450    0.5964   21.1462 H   0  0  0  0  0  0  0  0  0  0  0  0
    8.6385   -0.5177   21.3619 C   0  0  0  0  0  0  0  0  0  0  0  0
    9.5349    0.6054   20.9423 C   0  0  0  0  0  0  0  0  0  0  0  0
    9.1344    1.9757   21.5599 C   0  0  0  0  0  0  0  0  0  0  0  0
    9.0923    1.9314   23.0754 C   0  0  0  0  0  0  0  0  0  0  0  0
   10.2783    1.8825   23.8303 C   0  0  0  0  0  0  0  0  0  0  0  0
   10.2651    1.6961   25.2170 C   0  0  0  0  0  0  0  0  0  0  0  0
    9.0444    1.5375   25.8784 C   0  0  0  0  0  0  0  0  0  0  0  0
    7.8481    1.5785   25.1574 C   0  0  0  0  0  0  0  0  0  0  0  0
    7.8911    1.7792   23.7802 C   0  0  0  0  0  0  0  0  0  0  0  0
    6.7145    1.8083   23.1144 F   0  0  0  0  0  0  0  0  0  0  0  0
    6.8793    1.4379   25.6254 H   0  0  0  0  0  0  0  0  0  0  0  0
    9.0183    1.3585   26.9506 H   0  0  0  0  0  0  0  0  0  0  0  0
   11.1994    1.6449   25.7664 H   0  0  0  0  0  0  0  0  0  0  0  0
   11.2320    1.9798   23.3165 H   0  0  0  0  0  0  0  0  0  0  0  0
    9.8572    2.7295   21.2314 H   0  0  0  0  0  0  0  0  0  0  0  0
    8.1615    2.2948   21.1704 H   0  0  0  0  0  0  0  0  0  0  0  0
    9.5372    0.6685   19.8534 H   0  0  0  0  0  0  0  0  0  0  0  0
   10.5484    0.3431   21.2632 H   0  0  0  0  0  0  0  0  0  0  0  0
    8.8735   -1.3765   22.3309 N   0  0  0  0  0  0  0  0  0  0  0  0
    8.3188   -3.4069   23.8964 H   0  0  0  0  0  0  0  0  0  0  0  0
    6.5894   -3.5498   23.4375 H   0  0  0  0  0  0  0  0  0  0  0  0
    5.4188   -1.5886   26.7284 H   0  0  0  0  0  0  0  0  0  0  0  0
    6.4445   -1.9263   28.1328 H   0  0  0  0  0  0  0  0  0  0  0  0
    6.8738   -0.6443   26.9978 H   0  0  0  0  0  0  0  0  0  0  0  0
  1  2  1  0
  2  3  1  0
  3  4  1  0
  3  5  1  0
  3  6  1  0
  2  7  1  0
  7  8  1  0
  7  9  1  0
  7 10  1  0
  2 11  1  0
 11 12  1  0
 12 13  1  0
 13 14  2  0
 14 15  1  0
 15 16  1  0
 16 17  2  0
 17 18  1  0
 18 19  2  0
 19 20  1  0
 20 21  2  0
 21 22  1  0
 19 23  1  0
 18 24  1  0
 17 25  1  0
 15 26  1  0
 26 27  1  0
 27 28  1  0
 28 29  1  0
 29 30  2  0
 30 31  1  0
 31 32  2  0
 32 33  1  0
 33 34  2  0
 34 35  1  0
 33 36  1  0
 32 37  1  0
 31 38  1  0
 30 39  1  0
 28 40  1  0
 28 41  1  0
 27 42  1  0
 27 43  1  0
 26 44  2  0
 12 45  1  0
 12 46  1  0
  1 47  1  0
  1 48  1  0
  1 49  1  0
 44 13  1  0
 21 16  1  0
 34 29  1  0
M  END
>  <cnnaffinity>  (1) 
-6.00942

>  <filename>  (1) 
CC(C)(C)OCc1nc(CCc2ccccc2F)n(-c2cccnc2)n1

$$$$
