
     RDKit          3D

 45 47  0  0  0  0  0  0  0  0999 V2000
    6.3281   -4.7873   22.0329 C   0  0  0  0  0  0  0  0  0  0  0  0
    7.4857   -4.4452   22.9905 C   0  0  0  0  0  0  0  0  0  0  0  0
    6.9229   -3.8057   24.2730 C   0  0  0  0  0  0  0  0  0  0  0  0
    7.7350   -3.5361   24.9604 H   0  0  0  0  0  0  0  0  0  0  0  0
    6.2478   -4.4965   24.7940 H   0  0  0  0  0  0  0  0  0  0  0  0
    6.3651   -2.8900   24.0539 H   0  0  0  0  0  0  0  0  0  0  0  0
    8.2557   -5.7015   23.4332 C   0  0  0  0  0  0  0  0  0  0  0  0
    8.7500   -6.4165   22.3170 O   0  0  0  0  0  0  0  0  0  0  0  0
    9.3691   -7.0850   22.6314 H   0  0  0  0  0  0  0  0  0  0  0  0
    7.5893   -6.3289   24.0424 H   0  0  0  0  0  0  0  0  0  0  0  0
    9.0802   -5.3698   24.0892 H   0  0  0  0  0  0  0  0  0  0  0  0
    8.4875   -3.4751   22.2954 C   0  0  0  0  0  0  0  0  0  0  0  0
    7.9433   -2.1195   22.0027 C   0  0  0  0  0  0  0  0  0  0  0  0
    7.4642   -1.7901   20.8228 N   0  0  0  0  0  0  0  0  0  0  0  0
    7.0533   -0.5038   20.9958 N   0  0  0  0  0  0  0  0  0  0  0  0
    6.4460    0.1682   19.8989 C   0  0  0  0  0  0  0  0  0  0  0  0
    5.2442    0.8840   20.0031 C   0  0  0  0  0  0  0  0  0  0  0  0
    4.7278    1.4687   18.8381 C   0  0  0  0  0  0  0  0  0  0  0  0
    5.4325    1.3415   17.6377 C   0  0  0  0  0  0  0  0  0  0  0  0
    6.5748    0.6408   17.5313 N   0  0  0  0  0  0  0  0  0  0  0  0
    7.0498    0.0552   18.6318 C   0  0  0  0  0  0  0  0  0  0  0  0
    7.9543   -0.5395   18.5216 H   0  0  0  0  0  0  0  0  0  0  0  0
    5.0749    1.8142   16.7243 H   0  0  0  0  0  0  0  0  0  0  0  0
    3.8049    2.0385   18.8532 H   0  0  0  0  0  0  0  0  0  0  0  0
    4.7159    0.9625   20.9541 H   0  0  0  0  0  0  0  0  0  0  0  0
    7.3665   -0.1110   22.2678 C   0  0  0  0  0  0  0  0  0  0  0  0
    7.2392    1.2657   22.8566 C   0  0  0  0  0  0  0  0  0  0  0  0
    8.5417    1.7240   23.5083 C   0  0  0  0  0  0  0  0  0  0  0  0
    8.7274    1.6377   24.8913 C   0  0  0  0  0  0  0  0  0  0  0  0
    9.9990    1.8585   25.4310 C   0  0  0  0  0  0  0  0  0  0  0  0
   11.0403    2.2228   24.5783 C   0  0  0  0  0  0  0  0  0  0  0  0
   10.8880    2.3403   23.2545 N   0  0  0  0  0  0  0  0  0  0  0  0
    9.6872    2.0861   22.7604 C   0  0  0  0  0  0  0  0  0  0  0  0
    9.5581    2.1821   21.0415 Cl  0  0  0  0  0  0  0  0  0  0  0  0
   12.0340    2.4471   24.9625 H   0  0  0  0  0  0  0  0  0  0  0  0
   10.1866    1.7202   26.4821 H   0  0  0  0  0  0  0  0  0  0  0  0
    7.8766    1.3958   25.5349 H   0  0  0  0  0  0  0  0  0  0  0  0
    6.4522    1.2250   23.6189 H   0  0  0  0  0  0  0  0  0  0  0  0
    6.9261    1.9748   22.0849 H   0  0  0  0  0  0  0  0  0  0  0  0
    7.9113   -1.1242   22.9221 N   0  0  0  0  0  0  0  0  0  0  0  0
    9.3752   -3.3466   22.9258 H   0  0  0  0  0  0  0  0  0  0  0  0
    8.8027   -3.8996   21.3433 H   0  0  0  0  0  0  0  0  0  0  0  0
    5.6169   -5.4783   22.5059 H   0  0  0  0  0  0  0  0  0  0  0  0
    5.7826   -3.8781   21.7515 H   0  0  0  0  0  0  0  0  0  0  0  0
    6.6962   -5.2692   21.1196 H   0  0  0  0  0  0  0  0  0  0  0  0
  1  2  1  0
  2  3  1  0
  3  4  1  0
  3  5  1  0
  3  6  1  0
  2  7  1  0
  7  8  1  0
  8  9  1  0
  7 10  1  0
  7 11  1  0
  2 12  1  0
 12 13  1  0
 13 14  2  0
 14 15  1  0
 15 16  1  0
 16 17  2  0
 17 18  1  0
 18 19  2  0
 19 20  1  0
 20 21  2  0
 21 22  1  0
 19 23  1  0
 18 24  1  0
 17 25  1  0
 15 26  1  0
 26 27  1  0
 27 28  1  0
 28 29  2  0
 29 30  1  0
 30 31  2  0
 31 32  1  0
 32 33  2  0
 33 34  1  0
 31 35  1  0
 30 36  1  0
 29 37  1  0
 27 38  1  0
 27 39  1  0
 26 40  2  0
 12 41  1  0
 12 42  1  0
  1 43  1  0
  1 44  1  0
  1 45  1  0
 40 13  1  0
 21 16  1  0
 33 28  1  0
M  END
>  <cnnaffinity>  (1) 
-6.33713

>  <filename>  (1) 
CC(C)(CO)Cc1nc(Cc2cccnc2Cl)n(-c2cccnc2)n1

$$$$
