
     RDKit          3D

 43 45  0  0  0  0  0  0  0  0999 V2000
    5.8101   -4.9241   23.5498 C   0  0  0  0  0  0  0  0  0  0  0  0
    7.2914   -4.5881   23.6816 C   0  0  0  0  0  0  0  0  0  0  0  0
    8.0540   -5.6426   24.4853 C   0  0  0  0  0  0  0  0  0  0  0  0
    9.0567   -5.2958   24.7630 H   0  0  0  0  0  0  0  0  0  0  0  0
    7.5165   -5.9022   25.4065 H   0  0  0  0  0  0  0  0  0  0  0  0
    8.1621   -6.5442   23.8734 H   0  0  0  0  0  0  0  0  0  0  0  0
    7.8459   -4.5428   22.3591 O   0  0  0  0  0  0  0  0  0  0  0  0
    8.6256   -3.4016   22.0342 C   0  0  0  0  0  0  0  0  0  0  0  0
    7.8952   -2.0946   21.8724 C   0  0  0  0  0  0  0  0  0  0  0  0
    7.5201   -1.6764   20.6832 N   0  0  0  0  0  0  0  0  0  0  0  0
    6.9781   -0.4590   20.9311 N   0  0  0  0  0  0  0  0  0  0  0  0
    6.3867    0.2403   19.8506 C   0  0  0  0  0  0  0  0  0  0  0  0
    5.1823    0.9430   19.9498 C   0  0  0  0  0  0  0  0  0  0  0  0
    4.6771    1.5374   18.7880 C   0  0  0  0  0  0  0  0  0  0  0  0
    5.3856    1.4079   17.5881 C   0  0  0  0  0  0  0  0  0  0  0  0
    6.5288    0.7064   17.4850 N   0  0  0  0  0  0  0  0  0  0  0  0
    7.0091    0.1414   18.5913 C   0  0  0  0  0  0  0  0  0  0  0  0
    7.9387   -0.4199   18.5089 H   0  0  0  0  0  0  0  0  0  0  0  0
    5.0249    1.8772   16.6766 H   0  0  0  0  0  0  0  0  0  0  0  0
    3.7560    2.1089   18.8069 H   0  0  0  0  0  0  0  0  0  0  0  0
    4.6470    1.0105   20.8997 H   0  0  0  0  0  0  0  0  0  0  0  0
    7.1355   -0.1668   22.2571 C   0  0  0  0  0  0  0  0  0  0  0  0
    6.8939    1.1435   22.9480 C   0  0  0  0  0  0  0  0  0  0  0  0
    8.2037    1.6804   23.5116 C   0  0  0  0  0  0  0  0  0  0  0  0
    8.5133    1.5294   24.8683 C   0  0  0  0  0  0  0  0  0  0  0  0
    9.8198    1.6705   25.3420 C   0  0  0  0  0  0  0  0  0  0  0  0
   10.8154    2.0021   24.4326 C   0  0  0  0  0  0  0  0  0  0  0  0
   12.0809    2.0767   24.8651 F   0  0  0  0  0  0  0  0  0  0  0  0
   10.5469    2.2698   23.0947 C   0  0  0  0  0  0  0  0  0  0  0  0
    9.2250    2.1384   22.6640 C   0  0  0  0  0  0  0  0  0  0  0  0
    8.8573    2.5112   21.0139 Cl  0  0  0  0  0  0  0  0  0  0  0  0
   11.3463    2.5337   22.4139 H   0  0  0  0  0  0  0  0  0  0  0  0
   10.0831    1.4771   26.3732 H   0  0  0  0  0  0  0  0  0  0  0  0
    7.7102    1.2636   25.5516 H   0  0  0  0  0  0  0  0  0  0  0  0
    6.1916    0.9561   23.7654 H   0  0  0  0  0  0  0  0  0  0  0  0
    6.4489    1.8660   22.2618 H   0  0  0  0  0  0  0  0  0  0  0  0
    7.6853   -1.1999   22.8749 N   0  0  0  0  0  0  0  0  0  0  0  0
    9.4338   -3.2363   22.7637 H   0  0  0  0  0  0  0  0  0  0  0  0
    9.0596   -3.6053   21.0553 H   0  0  0  0  0  0  0  0  0  0  0  0
    7.3844   -3.6001   24.1661 H   0  0  0  0  0  0  0  0  0  0  0  0
    5.3448   -4.9668   24.5439 H   0  0  0  0  0  0  0  0  0  0  0  0
    5.6768   -5.8961   23.0585 H   0  0  0  0  0  0  0  0  0  0  0  0
    5.2934   -4.1566   22.9626 H   0  0  0  0  0  0  0  0  0  0  0  0
  1  2  1  0
  2  3  1  0
  3  4  1  0
  3  5  1  0
  3  6  1  0
  2  7  1  0
  7  8  1  0
  8  9  1  0
  9 10  2  0
 10 11  1  0
 11 12  1  0
 12 13  2  0
 13 14  1  0
 14 15  2  0
 15 16  1  0
 16 17  2  0
 17 18  1  0
 15 19  1  0
 14 20  1  0
 13 21  1  0
 11 22  1  0
 22 23  1  0
 23 24  1  0
 24 25  2  0
 25 26  1  0
 26 27  2  0
 27 28  1  0
 27 29  1  0
 29 30  2  0
 30 31  1  0
 29 32  1  0
 26 33  1  0
 25 34  1  0
 23 35  1  0
 23 36  1  0
 22 37  2  0
  8 38  1  0
  8 39  1  0
  2 40  1  0
  1 41  1  0
  1 42  1  0
  1 43  1  0
 37  9  1  0
 17 12  1  0
 30 24  1  0
M  END
>  <cnnaffinity>  (1) 
-5.84391

>  <filename>  (1) 
CC(C)OCc1nc(Cc2ccc(F)cc2Cl)n(-c2cccnc2)n1

$$$$
