
     RDKit          3D

 44 46  0  0  0  0  0  0  0  0999 V2000
    8.7459   -5.4169   25.1876 C   0  0  0  0  0  0  0  0  0  0  0  0
    7.8558   -5.6105   23.9562 C   0  0  0  0  0  0  0  0  0  0  0  0
    6.3803   -5.6726   24.3768 C   0  0  0  0  0  0  0  0  0  0  0  0
    6.0506   -4.7025   24.7609 H   0  0  0  0  0  0  0  0  0  0  0  0
    5.7563   -5.9387   23.5175 H   0  0  0  0  0  0  0  0  0  0  0  0
    6.2299   -6.4124   25.1679 H   0  0  0  0  0  0  0  0  0  0  0  0
    8.0756   -4.4678   22.9587 C   0  0  0  0  0  0  0  0  0  0  0  0
    7.5454   -3.1409   23.5181 C   0  0  0  0  0  0  0  0  0  0  0  0
    7.6759   -2.0494   22.5178 C   0  0  0  0  0  0  0  0  0  0  0  0
    6.7628   -1.7704   21.6202 N   0  0  0  0  0  0  0  0  0  0  0  0
    7.3042   -0.7190   20.9709 N   0  0  0  0  0  0  0  0  0  0  0  0
    6.6591   -0.0351   19.9325 C   0  0  0  0  0  0  0  0  0  0  0  0
    5.4298    0.5947   20.1512 C   0  0  0  0  0  0  0  0  0  0  0  0
    4.8439    1.2794   19.0837 C   0  0  0  0  0  0  0  0  0  0  0  0
    5.4755    1.2960   17.8332 C   0  0  0  0  0  0  0  0  0  0  0  0
    6.6475    0.6693   17.6107 N   0  0  0  0  0  0  0  0  0  0  0  0
    7.2212    0.0258   18.6466 C   0  0  0  0  0  0  0  0  0  0  0  0
    8.1674   -0.4770   18.4763 H   0  0  0  0  0  0  0  0  0  0  0  0
    5.0019    1.8360   17.0182 H   0  0  0  0  0  0  0  0  0  0  0  0
    3.9050    1.8101   19.2110 H   0  0  0  0  0  0  0  0  0  0  0  0
    4.9578    0.5718   21.1336 H   0  0  0  0  0  0  0  0  0  0  0  0
    8.5345   -0.4161   21.5467 C   0  0  0  0  0  0  0  0  0  0  0  0
    9.4441    0.7334   21.2257 C   0  0  0  0  0  0  0  0  0  0  0  0
    8.9255    2.0042   21.8657 C   0  0  0  0  0  0  0  0  0  0  0  0
    7.6694    2.4952   21.5016 C   0  0  0  0  0  0  0  0  0  0  0  0
    7.2172    3.6584   22.1145 C   0  0  0  0  0  0  0  0  0  0  0  0
    5.5010    4.3784   21.7011 Br  0  0  0  0  0  0  0  0  0  0  0  0
    8.0308    4.2944   23.0581 C   0  0  0  0  0  0  0  0  0  0  0  0
    9.2272    3.8175   23.4426 N   0  0  0  0  0  0  0  0  0  0  0  0
    9.6621    2.6926   22.8544 C   0  0  0  0  0  0  0  0  0  0  0  0
   10.6254    2.2964   23.1648 H   0  0  0  0  0  0  0  0  0  0  0  0
    7.6651    5.2031   23.5162 H   0  0  0  0  0  0  0  0  0  0  0  0
    7.0520    1.9738   20.7730 H   0  0  0  0  0  0  0  0  0  0  0  0
   10.4474    0.5017   21.6009 H   0  0  0  0  0  0  0  0  0  0  0  0
    9.4949    0.8567   20.1417 H   0  0  0  0  0  0  0  0  0  0  0  0
    8.7974   -1.2503   22.5073 N   0  0  0  0  0  0  0  0  0  0  0  0
    6.4921   -3.2328   23.7867 H   0  0  0  0  0  0  0  0  0  0  0  0
    8.1085   -2.8675   24.4143 H   0  0  0  0  0  0  0  0  0  0  0  0
    9.1453   -4.3733   22.7428 H   0  0  0  0  0  0  0  0  0  0  0  0
    7.5661   -4.7036   22.0180 H   0  0  0  0  0  0  0  0  0  0  0  0
    8.1362   -6.5509   23.4713 H   0  0  0  0  0  0  0  0  0  0  0  0
    9.7827   -5.2367   24.8852 H   0  0  0  0  0  0  0  0  0  0  0  0
    8.4032   -4.5625   25.7793 H   0  0  0  0  0  0  0  0  0  0  0  0
    8.7202   -6.3114   25.8173 H   0  0  0  0  0  0  0  0  0  0  0  0
  1  2  1  0
  2  3  1  0
  3  4  1  0
  3  5  1  0
  3  6  1  0
  2  7  1  0
  7  8  1  0
  8  9  1  0
  9 10  2  0
 10 11  1  0
 11 12  1  0
 12 13  2  0
 13 14  1  0
 14 15  2  0
 15 16  1  0
 16 17  2  0
 17 18  1  0
 15 19  1  0
 14 20  1  0
 13 21  1  0
 11 22  1  0
 22 23  1  0
 23 24  1  0
 24 25  2  0
 25 26  1  0
 26 27  1  0
 26 28  2  0
 28 29  1  0
 29 30  2  0
 30 31  1  0
 28 32  1  0
 25 33  1  0
 23 34  1  0
 23 35  1  0
 22 36  2  0
  8 37  1  0
  8 38  1  0
  7 39  1  0
  7 40  1  0
  2 41  1  0
  1 42  1  0
  1 43  1  0
  1 44  1  0
 36  9  1  0
 17 12  1  0
 30 24  1  0
M  END
>  <cnnaffinity>  (1) 
-6.17665

>  <filename>  (1) 
CC(C)CCc1nc(Cc2cncc(Br)c2)n(-c2cccnc2)n1

$$$$
