
     RDKit          3D

 46 49  0  0  0  0  0  0  0  0999 V2000
    7.9191    4.0669   22.1827 C   0  0  0  0  0  0  0  0  0  0  0  0
    8.1615    2.5565   22.3675 C   0  0  0  0  0  0  0  0  0  0  0  0
    7.2532    2.0666   23.5122 C   0  0  0  0  0  0  0  0  0  0  0  0
    7.3249    0.9879   23.6816 H   0  0  0  0  0  0  0  0  0  0  0  0
    6.2063    2.3040   23.2903 H   0  0  0  0  0  0  0  0  0  0  0  0
    7.5146    2.5640   24.4551 H   0  0  0  0  0  0  0  0  0  0  0  0
    9.6240    2.1763   22.6308 C   0  0  0  0  0  0  0  0  0  0  0  0
   10.3018    2.8099   23.6865 C   0  0  0  0  0  0  0  0  0  0  0  0
   11.6118    2.4647   24.0218 C   0  0  0  0  0  0  0  0  0  0  0  0
   12.2890    1.4864   23.2952 C   0  0  0  0  0  0  0  0  0  0  0  0
   11.6266    0.8429   22.2480 C   0  0  0  0  0  0  0  0  0  0  0  0
   10.3040    1.1605   21.9160 C   0  0  0  0  0  0  0  0  0  0  0  0
    9.6068    0.3275   20.8542 C   0  0  0  0  0  0  0  0  0  0  0  0
    8.5503   -0.5633   21.4210 C   0  0  0  0  0  0  0  0  0  0  0  0
    8.7365   -1.3713   22.4368 N   0  0  0  0  0  0  0  0  0  0  0  0
    7.5408   -2.0254   22.5542 C   0  0  0  0  0  0  0  0  0  0  0  0
    7.3491   -3.0473   23.6076 C   0  0  0  0  0  0  0  0  0  0  0  0
    6.1883   -3.6672   23.8447 N   0  0  0  0  0  0  0  0  0  0  0  0
    6.4381   -4.4574   24.8834 N   0  0  0  0  0  0  0  0  0  0  0  0
    7.7136   -4.3891   25.3338 C   0  0  0  0  0  0  0  0  0  0  0  0
    8.3459   -3.4841   24.5245 C   0  0  0  0  0  0  0  0  0  0  0  0
    9.3716   -3.1529   24.5701 H   0  0  0  0  0  0  0  0  0  0  0  0
    8.0453   -4.9824   26.1760 H   0  0  0  0  0  0  0  0  0  0  0  0
    5.6757   -4.9962   25.2627 H   0  0  0  0  0  0  0  0  0  0  0  0
    6.6326   -1.6510   21.6627 N   0  0  0  0  0  0  0  0  0  0  0  0
    7.2874   -0.7292   20.9144 N   0  0  0  0  0  0  0  0  0  0  0  0
    6.6120   -0.0413   19.8593 C   0  0  0  0  0  0  0  0  0  0  0  0
    5.4070    0.6218   20.1149 C   0  0  0  0  0  0  0  0  0  0  0  0
    4.7911    1.3219   19.0738 C   0  0  0  0  0  0  0  0  0  0  0  0
    5.3904    1.3156   17.8094 C   0  0  0  0  0  0  0  0  0  0  0  0
    6.5331    0.6619   17.5446 N   0  0  0  0  0  0  0  0  0  0  0  0
    7.1279    0.0067   18.5508 C   0  0  0  0  0  0  0  0  0  0  0  0
    8.0662   -0.4931   18.3077 H   0  0  0  0  0  0  0  0  0  0  0  0
    4.9336    1.8499   16.9792 H   0  0  0  0  0  0  0  0  0  0  0  0
    3.8668    1.8690   19.2315 H   0  0  0  0  0  0  0  0  0  0  0  0
    4.9827    0.5728   21.1168 H   0  0  0  0  0  0  0  0  0  0  0  0
   10.3340   -0.3400   20.3828 H   0  0  0  0  0  0  0  0  0  0  0  0
    9.1855    0.9599   20.0711 H   0  0  0  0  0  0  0  0  0  0  0  0
   12.1443    0.0717   21.6803 H   0  0  0  0  0  0  0  0  0  0  0  0
   13.3101    1.2120   23.5474 H   0  0  0  0  0  0  0  0  0  0  0  0
   12.0724    2.9313   24.8786 H   0  0  0  0  0  0  0  0  0  0  0  0
    9.7988    3.5734   24.2757 H   0  0  0  0  0  0  0  0  0  0  0  0
    7.8449    2.0746   21.4340 H   0  0  0  0  0  0  0  0  0  0  0  0
    8.1973    4.6416   23.0725 H   0  0  0  0  0  0  0  0  0  0  0  0
    6.8508    4.2429   22.0141 H   0  0  0  0  0  0  0  0  0  0  0  0
    8.4495    4.4987   21.3341 H   0  0  0  0  0  0  0  0  0  0  0  0
  1  2  1  0
  2  3  1  0
  3  4  1  0
  3  5  1  0
  3  6  1  0
  2  7  1  0
  7  8  2  0
  8  9  1  0
  9 10  2  0
 10 11  1  0
 11 12  2  0
 12 13  1  0
 13 14  1  0
 14 15  2  0
 15 16  1  0
 16 17  1  0
 17 18  2  0
 18 19  1  0
 19 20  1  0
 20 21  2  0
 21 22  1  0
 20 23  1  0
 19 24  1  0
 16 25  2  0
 25 26  1  0
 26 27  1  0
 27 28  2  0
 28 29  1  0
 29 30  2  0
 30 31  1  0
 31 32  2  0
 32 33  1  0
 30 34  1  0
 29 35  1  0
 28 36  1  0
 13 37  1  0
 13 38  1  0
 11 39  1  0
 10 40  1  0
  9 41  1  0
  8 42  1  0
  2 43  1  0
  1 44  1  0
  1 45  1  0
  1 46  1  0
 12  7  1  0
 26 14  1  0
 32 27  1  0
 21 17  1  0
M  END
>  <cnnaffinity>  (1) 
-6.04414

>  <filename>  (1) 
CC(C)c1ccccc1Cc1nc(-c2cc[nH]n2)nn1-c1cccnc1

$$$$
