
     RDKit          3D

 45 47  0  0  0  0  0  0  0  0999 V2000
    8.3396   -5.9229   22.9070 C   0  0  0  0  0  0  0  0  0  0  0  0
    7.6298   -4.5658   22.7856 C   0  0  0  0  0  0  0  0  0  0  0  0
    7.0582   -4.1222   24.1350 C   0  0  0  0  0  0  0  0  0  0  0  0
    7.8496   -4.0739   24.8957 H   0  0  0  0  0  0  0  0  0  0  0  0
    6.5967   -3.1298   24.0788 H   0  0  0  0  0  0  0  0  0  0  0  0
    6.3005   -4.8319   24.4893 H   0  0  0  0  0  0  0  0  0  0  0  0
    8.6189   -3.5420   22.1759 C   0  0  0  0  0  0  0  0  0  0  0  0
    8.1253   -2.1484   21.9834 C   0  0  0  0  0  0  0  0  0  0  0  0
    7.6347   -1.7990   20.8142 N   0  0  0  0  0  0  0  0  0  0  0  0
    7.2662   -0.5108   21.0012 N   0  0  0  0  0  0  0  0  0  0  0  0
    6.5917    0.1538   19.9463 C   0  0  0  0  0  0  0  0  0  0  0  0
    5.3922    0.8510   20.1303 C   0  0  0  0  0  0  0  0  0  0  0  0
    4.8090    1.4421   19.0026 C   0  0  0  0  0  0  0  0  0  0  0  0
    5.4479    1.3303   17.7642 C   0  0  0  0  0  0  0  0  0  0  0  0
    6.5880    0.6384   17.5832 N   0  0  0  0  0  0  0  0  0  0  0  0
    7.1243    0.0428   18.6501 C   0  0  0  0  0  0  0  0  0  0  0  0
    8.0132   -0.5657   18.4888 H   0  0  0  0  0  0  0  0  0  0  0  0
    5.0333    1.8006   16.8753 H   0  0  0  0  0  0  0  0  0  0  0  0
    3.8679    1.9774   19.0721 H   0  0  0  0  0  0  0  0  0  0  0  0
    4.9106    0.8922   21.1082 H   0  0  0  0  0  0  0  0  0  0  0  0
    7.6288   -0.1222   22.2584 C   0  0  0  0  0  0  0  0  0  0  0  0
    7.5929    1.2980   22.7151 C   0  0  0  0  0  0  0  0  0  0  0  0
    8.5145    2.2292   21.8901 C   0  0  0  0  0  0  0  0  0  0  0  0
    8.4198    3.6801   22.3125 C   0  0  0  0  0  0  0  0  0  0  0  0
    7.4163    4.4789   21.8444 C   0  0  0  0  0  0  0  0  0  0  0  0
    7.3555    5.8020   22.2138 N   0  0  0  0  0  0  0  0  0  0  0  0
    8.2326    6.4327   23.0894 C   0  0  0  0  0  0  0  0  0  0  0  0
    8.0224    7.5980   23.3809 O   0  0  0  0  0  0  0  0  0  0  0  0
    9.3135    5.5875   23.5708 C   0  0  0  0  0  0  0  0  0  0  0  0
    9.3907    4.2762   23.2054 C   0  0  0  0  0  0  0  0  0  0  0  0
   10.1845    3.6507   23.6166 H   0  0  0  0  0  0  0  0  0  0  0  0
    9.9918    6.0703   24.2626 H   0  0  0  0  0  0  0  0  0  0  0  0
    6.6325    6.4538   21.9428 H   0  0  0  0  0  0  0  0  0  0  0  0
    6.6454    4.1270   21.1512 H   0  0  0  0  0  0  0  0  0  0  0  0
    8.2534    2.1249   20.8262 H   0  0  0  0  0  0  0  0  0  0  0  0
    9.5535    1.8845   21.9811 H   0  0  0  0  0  0  0  0  0  0  0  0
    7.8927    1.3162   23.7655 H   0  0  0  0  0  0  0  0  0  0  0  0
    6.5632    1.6684   22.6564 H   0  0  0  0  0  0  0  0  0  0  0  0
    8.1439   -1.1525   22.9109 N   0  0  0  0  0  0  0  0  0  0  0  0
    8.8639   -3.8870   21.1679 H   0  0  0  0  0  0  0  0  0  0  0  0
    9.5422   -3.5052   22.7634 H   0  0  0  0  0  0  0  0  0  0  0  0
    6.7914   -4.6767   22.0788 H   0  0  0  0  0  0  0  0  0  0  0  0
    9.0353   -5.9189   23.7580 H   0  0  0  0  0  0  0  0  0  0  0  0
    8.9256   -6.1485   22.0080 H   0  0  0  0  0  0  0  0  0  0  0  0
    7.6340   -6.7483   23.0567 H   0  0  0  0  0  0  0  0  0  0  0  0
  1  2  1  0
  2  3  1  0
  3  4  1  0
  3  5  1  0
  3  6  1  0
  2  7  1  0
  7  8  1  0
  8  9  2  0
  9 10  1  0
 10 11  1  0
 11 12  2  0
 12 13  1  0
 13 14  2  0
 14 15  1  0
 15 16  2  0
 16 17  1  0
 14 18  1  0
 13 19  1  0
 12 20  1  0
 10 21  1  0
 21 22  1  0
 22 23  1  0
 23 24  1  0
 24 25  2  0
 25 26  1  0
 26 27  1  0
 27 28  2  0
 27 29  1  0
 29 30  2  0
 30 31  1  0
 29 32  1  0
 26 33  1  0
 25 34  1  0
 23 35  1  0
 23 36  1  0
 22 37  1  0
 22 38  1  0
 21 39  2  0
  7 40  1  0
  7 41  1  0
  2 42  1  0
  1 43  1  0
  1 44  1  0
  1 45  1  0
 39  8  1  0
 16 11  1  0
 30 24  1  0
M  END
>  <cnnaffinity>  (1) 
-5.77745

>  <filename>  (1) 
CC(C)Cc1nc(CCc2ccc(=O)[nH]c2)n(-c2cccnc2)n1

$$$$
