
     RDKit          3D

 38 40  0  0  0  0  0  0  0  0999 V2000
    8.7413   -0.0061   21.3477 C   0  0  0  0  0  0  0  0  0  0  0  0
    7.3443   -0.5955   21.1136 C   0  0  0  0  0  0  0  0  0  0  0  0
    7.4907   -2.0964   20.8033 C   0  0  0  0  0  0  0  0  0  0  0  0
    7.8598   -2.9473   21.9513 C   0  0  0  0  0  0  0  0  0  0  0  0
    7.1141   -3.3718   22.9222 N   0  0  0  0  0  0  0  0  0  0  0  0
    8.0375   -4.0185   23.7192 C   0  0  0  0  0  0  0  0  0  0  0  0
    7.6899   -4.6166   25.0152 C   0  0  0  0  0  0  0  0  0  0  0  0
    8.6641   -5.2664   25.7907 C   0  0  0  0  0  0  0  0  0  0  0  0
    8.2971   -5.8104   27.0165 C   0  0  0  0  0  0  0  0  0  0  0  0
    6.9799   -5.7245   27.4731 C   0  0  0  0  0  0  0  0  0  0  0  0
    6.0099   -5.0621   26.7091 C   0  0  0  0  0  0  0  0  0  0  0  0
    4.5782   -4.9952   27.1943 C   0  0  0  0  0  0  0  0  0  0  0  0
    3.8445   -6.0281   26.7346 F   0  0  0  0  0  0  0  0  0  0  0  0
    3.9552   -3.8702   26.7953 F   0  0  0  0  0  0  0  0  0  0  0  0
    4.4996   -5.0313   28.5375 F   0  0  0  0  0  0  0  0  0  0  0  0
    6.3694   -4.5018   25.4792 C   0  0  0  0  0  0  0  0  0  0  0  0
    5.6591   -3.9595   24.8585 H   0  0  0  0  0  0  0  0  0  0  0  0
    6.7253   -6.1670   28.4297 H   0  0  0  0  0  0  0  0  0  0  0  0
    9.0402   -6.2893   27.6319 H   0  0  0  0  0  0  0  0  0  0  0  0
    9.6944   -5.3373   25.4379 H   0  0  0  0  0  0  0  0  0  0  0  0
    9.2539   -4.0180   23.2389 N   0  0  0  0  0  0  0  0  0  0  0  0
    9.1357   -3.3096   22.0690 O   0  0  0  0  0  0  0  0  0  0  0  0
    6.6032   -2.5147   20.3185 H   0  0  0  0  0  0  0  0  0  0  0  0
    8.3149   -2.1286   20.1061 H   0  0  0  0  0  0  0  0  0  0  0  0
    6.6348    0.0551   19.9410 C   0  0  0  0  0  0  0  0  0  0  0  0
    5.4012    0.6847   20.1380 C   0  0  0  0  0  0  0  0  0  0  0  0
    4.7694    1.3258   19.0709 C   0  0  0  0  0  0  0  0  0  0  0  0
    5.3895    1.2962   17.8176 C   0  0  0  0  0  0  0  0  0  0  0  0
    6.5484    0.6642   17.5890 N   0  0  0  0  0  0  0  0  0  0  0  0
    7.1492    0.0649   18.6287 C   0  0  0  0  0  0  0  0  0  0  0  0
    8.0949   -0.4194   18.3771 H   0  0  0  0  0  0  0  0  0  0  0  0
    4.9457    1.8045   16.9629 H   0  0  0  0  0  0  0  0  0  0  0  0
    3.8371    1.8653   19.2068 H   0  0  0  0  0  0  0  0  0  0  0  0
    4.9609    0.6762   21.1373 H   0  0  0  0  0  0  0  0  0  0  0  0
    6.7267   -0.4416   22.0098 H   0  0  0  0  0  0  0  0  0  0  0  0
    9.2506   -0.4679   22.2016 H   0  0  0  0  0  0  0  0  0  0  0  0
    9.3539   -0.2178   20.4636 H   0  0  0  0  0  0  0  0  0  0  0  0
    8.7072    1.0771   21.4889 H   0  0  0  0  0  0  0  0  0  0  0  0
  1  2  1  0
  2  3  1  0
  3  4  1  0
  4  5  2  0
  5  6  1  0
  6  7  1  0
  7  8  2  0
  8  9  1  0
  9 10  2  0
 10 11  1  0
 11 12  1  0
 12 13  1  0
 12 14  1  0
 12 15  1  0
 11 16  2  0
 16 17  1  0
 10 18  1  0
  9 19  1  0
  8 20  1  0
  6 21  2  0
 21 22  1  0
  3 23  1  0
  3 24  1  0
  2 25  1  0
 25 26  2  0
 26 27  1  0
 27 28  2  0
 28 29  1  0
 29 30  2  0
 30 31  1  0
 28 32  1  0
 27 33  1  0
 26 34  1  0
  2 35  1  0
  1 36  1  0
  1 37  1  0
  1 38  1  0
 22  4  1  0
 30 25  1  0
 16  7  1  0
M  END
>  <cnnaffinity>  (1) 
-5.52334

>  <filename>  (1) 
CC(Cc1nc(-c2cccc(C(F)(F)F)c2)no1)c1cccnc1

$$$$
