
     RDKit          3D

 42 44  0  0  0  0  0  0  0  0999 V2000
    6.6050   -0.3699   25.1186 C   0  0  0  0  0  0  0  0  0  0  0  0
    6.1174   -1.8119   25.2327 C   0  0  0  0  0  0  0  0  0  0  0  0
    5.5235   -2.0942   26.6031 C   0  0  0  0  0  0  0  0  0  0  0  0
    4.6559   -1.4502   26.7836 H   0  0  0  0  0  0  0  0  0  0  0  0
    5.2037   -3.1370   26.6746 H   0  0  0  0  0  0  0  0  0  0  0  0
    6.2700   -1.9033   27.3812 H   0  0  0  0  0  0  0  0  0  0  0  0
    7.1918   -2.7341   25.0471 O   0  0  0  0  0  0  0  0  0  0  0  0
    7.4007   -3.2069   23.7218 C   0  0  0  0  0  0  0  0  0  0  0  0
    7.6793   -2.1581   22.6672 C   0  0  0  0  0  0  0  0  0  0  0  0
    6.8237   -1.9064   21.6965 N   0  0  0  0  0  0  0  0  0  0  0  0
    7.4023   -0.8746   21.0256 N   0  0  0  0  0  0  0  0  0  0  0  0
    6.7188   -0.2511   19.9393 C   0  0  0  0  0  0  0  0  0  0  0  0
    5.4092    0.2184   20.0956 C   0  0  0  0  0  0  0  0  0  0  0  0
    4.8158    0.8840   19.0190 C   0  0  0  0  0  0  0  0  0  0  0  0
    5.5292    1.0213   17.8213 C   0  0  0  0  0  0  0  0  0  0  0  0
    6.7605    0.5203   17.6466 N   0  0  0  0  0  0  0  0  0  0  0  0
    7.3344   -0.0987   18.6849 C   0  0  0  0  0  0  0  0  0  0  0  0
    8.3342   -0.4941   18.5234 H   0  0  0  0  0  0  0  0  0  0  0  0
    5.0918    1.5430   16.9702 H   0  0  0  0  0  0  0  0  0  0  0  0
    3.8170    1.2990   19.0951 H   0  0  0  0  0  0  0  0  0  0  0  0
    4.8842    0.0599   21.0394 H   0  0  0  0  0  0  0  0  0  0  0  0
    8.5787   -0.5547   21.6451 C   0  0  0  0  0  0  0  0  0  0  0  0
    9.4089    0.6570   21.3195 C   0  0  0  0  0  0  0  0  0  0  0  0
    8.9488    1.9720   22.0639 C   0  0  0  0  0  0  0  0  0  0  0  0
    7.9821    2.7057   21.5226 C   0  0  0  0  0  0  0  0  0  0  0  0
    7.7545    5.1811   22.6196 C   0  0  0  0  0  0  0  0  0  0  0  0
    8.1107    5.2383   22.4452 C   0  0  0  0  0  0  0  0  0  0  0  0
    9.5018    3.3008   24.1223 N   0  0  0  0  0  0  0  0  0  0  0  0
    9.6009    2.3097   23.4366 C   0  0  0  0  0  0  0  0  0  0  0  0
   10.6321    0.9767   24.0937 Cl  0  0  0  0  0  0  0  0  0  0  0  0
    7.4097    5.2611   21.4806 H   0  0  0  0  0  0  0  0  0  0  0  0
    7.9709    4.0707   22.2549 H   0  0  0  0  0  0  0  0  0  0  0  0
    7.3990    2.2970   20.6785 H   0  0  0  0  0  0  0  0  0  0  0  0
   10.4462    0.4221   21.5498 H   0  0  0  0  0  0  0  0  0  0  0  0
    9.3632    0.8231   20.2377 H   0  0  0  0  0  0  0  0  0  0  0  0
    8.7961   -1.3800   22.6526 N   0  0  0  0  0  0  0  0  0  0  0  0
    8.2714   -3.8631   23.7913 H   0  0  0  0  0  0  0  0  0  0  0  0
    6.5394   -3.7901   23.3644 H   0  0  0  0  0  0  0  0  0  0  0  0
    5.3447   -1.9997   24.4698 H   0  0  0  0  0  0  0  0  0  0  0  0
    7.1079   -0.1753   24.1694 H   0  0  0  0  0  0  0  0  0  0  0  0
    7.3193   -0.1479   25.9189 H   0  0  0  0  0  0  0  0  0  0  0  0
    5.7557    0.3171   25.1971 H   0  0  0  0  0  0  0  0  0  0  0  0
  1  2  1  0
  2  3  1  0
  3  4  1  0
  3  5  1  0
  3  6  1  0
  2  7  1  0
  7  8  1  0
  8  9  1  0
  9 10  2  0
 10 11  1  0
 11 12  1  0
 12 13  2  0
 13 14  1  0
 14 15  2  0
 15 16  1  0
 16 17  2  0
 17 18  1  0
 15 19  1  0
 14 20  1  0
 13 21  1  0
 11 22  1  0
 22 23  1  0
 23 24  1  0
 24 25  2  0
 25 26  1  0
 26 27  2  0
 27 28  1  0
 28 29  2  0
 29 30  1  0
 27 31  1  0
 26 32  1  0
 25 33  1  0
 23 34  1  0
 23 35  1  0
 22 36  2  0
  8 37  1  0
  8 38  1  0
  2 39  1  0
  1 40  1  0
  1 41  1  0
  1 42  1  0
 36  9  1  0
 17 12  1  0
 29 24  1  0
M  END
>  <cnnaffinity>  (1) 
-5.83977

>  <filename>  (1) 
CC(C)OCc1nc(Cc2cccnc2Cl)n(-c2cccnc2)n1

$$$$
