
     RDKit          3D

 42 45  0  0  0  0  0  0  0  0999 V2000
    8.6297   -3.8637   23.9904 C   0  0  0  0  0  0  0  0  0  0  0  0
    7.3927   -2.9909   23.7226 C   0  0  0  0  0  0  0  0  0  0  0  0
    7.6575   -2.0337   22.5854 C   0  0  0  0  0  0  0  0  0  0  0  0
    6.7540   -1.6373   21.7161 N   0  0  0  0  0  0  0  0  0  0  0  0
    7.4179   -0.6809   20.9952 N   0  0  0  0  0  0  0  0  0  0  0  0
    6.7341   -0.0037   19.9390 C   0  0  0  0  0  0  0  0  0  0  0  0
    5.5113    0.6295   20.1907 C   0  0  0  0  0  0  0  0  0  0  0  0
    4.8798    1.2916   19.1348 C   0  0  0  0  0  0  0  0  0  0  0  0
    5.4765    1.2776   17.8673 C   0  0  0  0  0  0  0  0  0  0  0  0
    6.6303    0.6455   17.6099 N   0  0  0  0  0  0  0  0  0  0  0  0
    7.2377    0.0161   18.6253 C   0  0  0  0  0  0  0  0  0  0  0  0
    8.1480   -0.5265   18.3788 H   0  0  0  0  0  0  0  0  0  0  0  0
    5.0042    1.7747   17.0231 H   0  0  0  0  0  0  0  0  0  0  0  0
    3.9354    1.8030   19.2781 H   0  0  0  0  0  0  0  0  0  0  0  0
    5.0742    0.5794   21.1909 H   0  0  0  0  0  0  0  0  0  0  0  0
    8.6601   -0.5113   21.5423 C   0  0  0  0  0  0  0  0  0  0  0  0
    9.5763    0.6660   21.3601 C   0  0  0  0  0  0  0  0  0  0  0  0
    9.0655    1.9067   22.0755 C   0  0  0  0  0  0  0  0  0  0  0  0
    8.2122    2.7760   21.3945 C   0  0  0  0  0  0  0  0  0  0  0  0
    7.7581    3.9383   22.0258 C   0  0  0  0  0  0  0  0  0  0  0  0
    8.1520    4.1263   23.3603 C   0  0  0  0  0  0  0  0  0  0  0  0
    7.6533    5.5698   24.2014 Cl  0  0  0  0  0  0  0  0  0  0  0  0
    8.9017    3.2828   24.0540 N   0  0  0  0  0  0  0  0  0  0  0  0
    9.3490    2.1895   23.4188 C   0  0  0  0  0  0  0  0  0  0  0  0
    9.9564    1.5058   24.0169 H   0  0  0  0  0  0  0  0  0  0  0  0
    7.1633    4.6838   21.5050 H   0  0  0  0  0  0  0  0  0  0  0  0
    7.9370    2.4835   20.3788 H   0  0  0  0  0  0  0  0  0  0  0  0
    9.6918    0.8663   20.2950 H   0  0  0  0  0  0  0  0  0  0  0  0
   10.5667    0.3774   21.7294 H   0  0  0  0  0  0  0  0  0  0  0  0
    8.8589   -1.4057   22.4828 N   0  0  0  0  0  0  0  0  0  0  0  0
    6.9104   -2.1719   24.9478 C   0  0  0  0  0  0  0  0  0  0  0  0
    7.7924   -1.1504   25.6222 C   0  0  0  0  0  0  0  0  0  0  0  0
    7.3967   -2.3981   26.3547 C   0  0  0  0  0  0  0  0  0  0  0  0
    8.1678   -3.1447   26.5391 H   0  0  0  0  0  0  0  0  0  0  0  0
    6.6753   -2.3180   27.1636 H   0  0  0  0  0  0  0  0  0  0  0  0
    8.8256   -1.0593   25.2838 H   0  0  0  0  0  0  0  0  0  0  0  0
    7.3534   -0.2042   25.9311 H   0  0  0  0  0  0  0  0  0  0  0  0
    5.8679   -1.8564   24.8487 H   0  0  0  0  0  0  0  0  0  0  0  0
    6.5660   -3.6329   23.3992 H   0  0  0  0  0  0  0  0  0  0  0  0
    8.4282   -4.6179   24.7581 H   0  0  0  0  0  0  0  0  0  0  0  0
    9.4712   -3.2489   24.3286 H   0  0  0  0  0  0  0  0  0  0  0  0
    8.9479   -4.3706   23.0741 H   0  0  0  0  0  0  0  0  0  0  0  0
  1  2  1  0
  2  3  1  0
  3  4  2  0
  4  5  1  0
  5  6  1  0
  6  7  2  0
  7  8  1  0
  8  9  2  0
  9 10  1  0
 10 11  2  0
 11 12  1  0
  9 13  1  0
  8 14  1  0
  7 15  1  0
  5 16  1  0
 16 17  1  0
 17 18  1  0
 18 19  2  0
 19 20  1  0
 20 21  2  0
 21 22  1  0
 21 23  1  0
 23 24  2  0
 24 25  1  0
 20 26  1  0
 19 27  1  0
 17 28  1  0
 17 29  1  0
 16 30  2  0
  2 31  1  0
 31 32  1  0
 32 33  1  0
 33 34  1  0
 33 35  1  0
 32 36  1  0
 32 37  1  0
 31 38  1  0
  2 39  1  0
  1 40  1  0
  1 41  1  0
  1 42  1  0
 30  3  1  0
 33 31  1  0
 11  6  1  0
 24 18  1  0
M  END
>  <cnnaffinity>  (1) 
-6.09371

>  <filename>  (1) 
CC(c1nc(Cc2ccc(Cl)nc2)n(-c2cccnc2)n1)C1CC1

$$$$
