
     RDKit          3D

 50 53  0  0  0  0  0  0  0  0999 V2000
    5.7744    0.8189   24.1338 C   0  0  0  0  0  0  0  0  0  0  0  0
    7.1885    1.4141   24.0776 C   0  0  0  0  0  0  0  0  0  0  0  0
    7.2958    2.8523   24.6246 C   0  0  0  0  0  0  0  0  0  0  0  0
    6.9078    2.9318   26.0892 C   0  0  0  0  0  0  0  0  0  0  0  0
    7.7688    2.4206   27.0770 C   0  0  0  0  0  0  0  0  0  0  0  0
    7.4013    2.4374   28.4256 C   0  0  0  0  0  0  0  0  0  0  0  0
    6.1634    2.9603   28.8125 C   0  0  0  0  0  0  0  0  0  0  0  0
    5.3042    3.4366   27.8260 C   0  0  0  0  0  0  0  0  0  0  0  0
    4.0924    3.9030   28.1808 F   0  0  0  0  0  0  0  0  0  0  0  0
    5.6537    3.4274   26.4755 C   0  0  0  0  0  0  0  0  0  0  0  0
    4.9349    3.7755   25.7398 H   0  0  0  0  0  0  0  0  0  0  0  0
    5.8516    2.9791   29.8517 H   0  0  0  0  0  0  0  0  0  0  0  0
    8.0707    2.0155   29.1738 H   0  0  0  0  0  0  0  0  0  0  0  0
    8.7243    1.9871   26.7905 H   0  0  0  0  0  0  0  0  0  0  0  0
    6.6807    3.5436   24.0275 H   0  0  0  0  0  0  0  0  0  0  0  0
    8.3394    3.1817   24.5193 H   0  0  0  0  0  0  0  0  0  0  0  0
    7.7518    1.3111   22.6406 C   0  0  0  0  0  0  0  0  0  0  0  0
    7.7753   -0.1018   22.1432 C   0  0  0  0  0  0  0  0  0  0  0  0
    8.2890   -1.1076   22.8345 N   0  0  0  0  0  0  0  0  0  0  0  0
    8.1673   -2.1532   21.9912 C   0  0  0  0  0  0  0  0  0  0  0  0
    8.7392   -3.5023   22.2735 C   0  0  0  0  0  0  0  0  0  0  0  0
    7.9817   -4.6917   21.6374 C   0  0  0  0  0  0  0  0  0  0  0  0
    8.3758   -5.8788   22.5272 C   0  0  0  0  0  0  0  0  0  0  0  0
    8.9380   -5.3461   23.7149 O   0  0  0  0  0  0  0  0  0  0  0  0
    8.8224   -3.9343   23.7410 C   0  0  0  0  0  0  0  0  0  0  0  0
    7.9283   -3.6370   24.3100 H   0  0  0  0  0  0  0  0  0  0  0  0
    9.7146   -3.5435   24.2413 H   0  0  0  0  0  0  0  0  0  0  0  0
    7.5091   -6.5133   22.7628 H   0  0  0  0  0  0  0  0  0  0  0  0
    9.1326   -6.5157   22.0564 H   0  0  0  0  0  0  0  0  0  0  0  0
    6.8952   -4.5273   21.6788 H   0  0  0  0  0  0  0  0  0  0  0  0
    8.2405   -4.8515   20.5886 H   0  0  0  0  0  0  0  0  0  0  0  0
    9.7635   -3.3812   21.9066 H   0  0  0  0  0  0  0  0  0  0  0  0
    7.6249   -1.8727   20.8231 N   0  0  0  0  0  0  0  0  0  0  0  0
    7.3398   -0.5544   20.9304 N   0  0  0  0  0  0  0  0  0  0  0  0
    6.6188    0.0768   19.8839 C   0  0  0  0  0  0  0  0  0  0  0  0
    5.4050    0.7338   20.1150 C   0  0  0  0  0  0  0  0  0  0  0  0
    4.7873    1.3631   19.0300 C   0  0  0  0  0  0  0  0  0  0  0  0
    5.4042    1.3171   17.7759 C   0  0  0  0  0  0  0  0  0  0  0  0
    6.5419    0.6361   17.5445 N   0  0  0  0  0  0  0  0  0  0  0  0
    7.1147    0.0093   18.5727 C   0  0  0  0  0  0  0  0  0  0  0  0
    8.0130   -0.5655   18.3645 H   0  0  0  0  0  0  0  0  0  0  0  0
    4.9657    1.8294   16.9235 H   0  0  0  0  0  0  0  0  0  0  0  0
    3.8426    1.8822   19.1425 H   0  0  0  0  0  0  0  0  0  0  0  0
    4.9485    0.7288   21.1074 H   0  0  0  0  0  0  0  0  0  0  0  0
    8.7857    1.6845   22.6204 H   0  0  0  0  0  0  0  0  0  0  0  0
    7.1688    1.9409   21.9588 H   0  0  0  0  0  0  0  0  0  0  0  0
    7.8298    0.7908   24.7232 H   0  0  0  0  0  0  0  0  0  0  0  0
    5.3275    0.8817   25.1341 H   0  0  0  0  0  0  0  0  0  0  0  0
    5.8414   -0.2442   23.8689 H   0  0  0  0  0  0  0  0  0  0  0  0
    5.0971    1.3135   23.4178 H   0  0  0  0  0  0  0  0  0  0  0  0
  1  2  1  0
  2  3  1  0
  3  4  1  0
  4  5  2  0
  5  6  1  0
  6  7  2  0
  7  8  1  0
  8  9  1  0
  8 10  2  0
 10 11  1  0
  7 12  1  0
  6 13  1  0
  5 14  1  0
  3 15  1  0
  3 16  1  0
  2 17  1  0
 17 18  1  0
 18 19  2  0
 19 20  1  0
 20 21  1  0
 21 22  1  0
 22 23  1  0
 23 24  1  0
 24 25  1  0
 25 26  1  0
 25 27  1  0
 23 28  1  0
 23 29  1  0
 22 30  1  0
 22 31  1  0
 21 32  1  0
 20 33  2  0
 33 34  1  0
 34 35  1  0
 35 36  2  0
 36 37  1  0
 37 38  2  0
 38 39  1  0
 39 40  2  0
 40 41  1  0
 38 42  1  0
 37 43  1  0
 36 44  1  0
 17 45  1  0
 17 46  1  0
  2 47  1  0
  1 48  1  0
  1 49  1  0
  1 50  1  0
 10  4  1  0
 34 18  1  0
 40 35  1  0
 25 21  1  0
M  END
>  <cnnaffinity>  (1) 
-5.78092

>  <filename>  (1) 
CC(Cc1cccc(F)c1)Cc1nc(C2CCOC2)nn1-c1cccnc1

$$$$
