
     RDKit          3D

 48 51  0  0  0  0  0  0  0  0999 V2000
   11.0035    0.4070   21.3853 C   0  0  0  0  0  0  0  0  0  0  0  0
    9.5649    0.5965   20.9127 C   0  0  0  0  0  0  0  0  0  0  0  0
    9.0975    1.9183   21.2184 O   0  0  0  0  0  0  0  0  0  0  0  0
    8.8238    2.1928   22.5975 C   0  0  0  0  0  0  0  0  0  0  0  0
    7.3348    2.2996   22.8569 C   0  0  0  0  0  0  0  0  0  0  0  0
    6.6677    1.4304   23.7375 C   0  0  0  0  0  0  0  0  0  0  0  0
    5.2975    1.5558   23.9754 C   0  0  0  0  0  0  0  0  0  0  0  0
    4.6005    2.5657   23.3160 C   0  0  0  0  0  0  0  0  0  0  0  0
    3.2832    2.7013   23.5359 F   0  0  0  0  0  0  0  0  0  0  0  0
    5.2222    3.4381   22.4235 C   0  0  0  0  0  0  0  0  0  0  0  0
    6.5906    3.2889   22.1975 C   0  0  0  0  0  0  0  0  0  0  0  0
    7.0964    3.9558   21.5022 H   0  0  0  0  0  0  0  0  0  0  0  0
    4.6404    4.2060   21.9188 H   0  0  0  0  0  0  0  0  0  0  0  0
    4.7650    0.8954   24.6562 H   0  0  0  0  0  0  0  0  0  0  0  0
    7.2294    0.6440   24.2423 H   0  0  0  0  0  0  0  0  0  0  0  0
    9.2455    1.4107   23.2462 H   0  0  0  0  0  0  0  0  0  0  0  0
    9.3287    3.1411   22.8284 H   0  0  0  0  0  0  0  0  0  0  0  0
    8.6457   -0.4900   21.4270 C   0  0  0  0  0  0  0  0  0  0  0  0
    8.8440   -1.2801   22.4756 N   0  0  0  0  0  0  0  0  0  0  0  0
    7.6600   -1.9101   22.6107 C   0  0  0  0  0  0  0  0  0  0  0  0
    7.4015   -2.8648   23.7237 C   0  0  0  0  0  0  0  0  0  0  0  0
    6.8115   -4.2188   23.2869 C   0  0  0  0  0  0  0  0  0  0  0  0
    5.9822   -4.6431   24.5020 C   0  0  0  0  0  0  0  0  0  0  0  0
    5.7293   -3.4729   25.2649 O   0  0  0  0  0  0  0  0  0  0  0  0
    6.3604   -2.3337   24.7215 C   0  0  0  0  0  0  0  0  0  0  0  0
    5.6255   -1.6840   24.2272 H   0  0  0  0  0  0  0  0  0  0  0  0
    6.7996   -1.7537   25.5453 H   0  0  0  0  0  0  0  0  0  0  0  0
    6.5167   -5.3645   25.1359 H   0  0  0  0  0  0  0  0  0  0  0  0
    5.0256   -5.0968   24.2102 H   0  0  0  0  0  0  0  0  0  0  0  0
    6.1721   -4.0742   22.4088 H   0  0  0  0  0  0  0  0  0  0  0  0
    7.5824   -4.9513   23.0313 H   0  0  0  0  0  0  0  0  0  0  0  0
    8.3466   -3.0093   24.2496 H   0  0  0  0  0  0  0  0  0  0  0  0
    6.7418   -1.5716   21.7213 N   0  0  0  0  0  0  0  0  0  0  0  0
    7.3801   -0.6567   20.9460 N   0  0  0  0  0  0  0  0  0  0  0  0
    6.6676    0.0168   19.9117 C   0  0  0  0  0  0  0  0  0  0  0  0
    5.4446    0.6417   20.1720 C   0  0  0  0  0  0  0  0  0  0  0  0
    4.8149    1.3093   19.1152 C   0  0  0  0  0  0  0  0  0  0  0  0
    5.4010    1.2954   17.8429 C   0  0  0  0  0  0  0  0  0  0  0  0
    6.5568    0.6676   17.5812 N   0  0  0  0  0  0  0  0  0  0  0  0
    7.1684    0.0546   18.6001 C   0  0  0  0  0  0  0  0  0  0  0  0
    8.1125   -0.4338   18.3682 H   0  0  0  0  0  0  0  0  0  0  0  0
    4.9210    1.7848   16.9981 H   0  0  0  0  0  0  0  0  0  0  0  0
    3.8808    1.8386   19.2640 H   0  0  0  0  0  0  0  0  0  0  0  0
    5.0195    0.6167   21.1796 H   0  0  0  0  0  0  0  0  0  0  0  0
    9.5331    0.5716   19.8213 H   0  0  0  0  0  0  0  0  0  0  0  0
   11.0633    0.3588   22.4784 H   0  0  0  0  0  0  0  0  0  0  0  0
   11.6098    1.2475   21.0360 H   0  0  0  0  0  0  0  0  0  0  0  0
   11.4010   -0.5286   20.9810 H   0  0  0  0  0  0  0  0  0  0  0  0
  1  2  1  0
  2  3  1  0
  3  4  1  0
  4  5  1  0
  5  6  2  0
  6  7  1  0
  7  8  2  0
  8  9  1  0
  8 10  1  0
 10 11  2  0
 11 12  1  0
 10 13  1  0
  7 14  1  0
  6 15  1  0
  4 16  1  0
  4 17  1  0
  2 18  1  0
 18 19  2  0
 19 20  1  0
 20 21  1  0
 21 22  1  0
 22 23  1  0
 23 24  1  0
 24 25  1  0
 25 26  1  0
 25 27  1  0
 23 28  1  0
 23 29  1  0
 22 30  1  0
 22 31  1  0
 21 32  1  0
 20 33  2  0
 33 34  1  0
 34 35  1  0
 35 36  2  0
 36 37  1  0
 37 38  2  0
 38 39  1  0
 39 40  2  0
 40 41  1  0
 38 42  1  0
 37 43  1  0
 36 44  1  0
  2 45  1  0
  1 46  1  0
  1 47  1  0
  1 48  1  0
 11  5  1  0
 34 18  1  0
 40 35  1  0
 25 21  1  0
M  END
>  <cnnaffinity>  (1) 
-5.94942

>  <filename>  (1) 
CC(OCc1ccc(F)cc1)c1nc(C2CCOC2)nn1-c1cccnc1

$$$$
