
     RDKit          3D

 39 42  0  0  0  0  0  0  0  0999 V2000
    8.0610    2.5272   21.8930 C   0  0  0  0  0  0  0  0  0  0  0  0
    9.4043    1.8308   21.9003 C   0  0  0  0  0  0  0  0  0  0  0  0
    9.5269    0.6025   20.9983 C   0  0  0  0  0  0  0  0  0  0  0  0
    8.6128   -0.4921   21.4123 C   0  0  0  0  0  0  0  0  0  0  0  0
    8.8490   -1.3498   22.3777 N   0  0  0  0  0  0  0  0  0  0  0  0
    7.6714   -2.0157   22.4991 C   0  0  0  0  0  0  0  0  0  0  0  0
    7.4473   -3.0704   23.5303 C   0  0  0  0  0  0  0  0  0  0  0  0
    6.2148   -3.7426   23.6310 C   0  0  0  0  0  0  0  0  0  0  0  0
    6.0566   -4.7211   24.6108 C   0  0  0  0  0  0  0  0  0  0  0  0
    7.0091   -5.0750   25.4783 N   0  0  0  0  0  0  0  0  0  0  0  0
    8.1776   -4.4320   25.3861 C   0  0  0  0  0  0  0  0  0  0  0  0
    8.4506   -3.4365   24.4475 C   0  0  0  0  0  0  0  0  0  0  0  0
    9.4237   -2.9611   24.4370 H   0  0  0  0  0  0  0  0  0  0  0  0
    8.9395   -4.7280   26.0998 H   0  0  0  0  0  0  0  0  0  0  0  0
    5.1122   -5.2481   24.6977 H   0  0  0  0  0  0  0  0  0  0  0  0
    5.3991   -3.4983   22.9611 H   0  0  0  0  0  0  0  0  0  0  0  0
    6.7355   -1.6345   21.6472 N   0  0  0  0  0  0  0  0  0  0  0  0
    7.3525   -0.6725   20.9242 N   0  0  0  0  0  0  0  0  0  0  0  0
    6.6529    0.0096   19.8957 C   0  0  0  0  0  0  0  0  0  0  0  0
    5.4371    0.6443   20.1646 C   0  0  0  0  0  0  0  0  0  0  0  0
    4.8106    1.3113   19.1078 C   0  0  0  0  0  0  0  0  0  0  0  0
    5.3984    1.2968   17.8371 C   0  0  0  0  0  0  0  0  0  0  0  0
    6.5558    0.6716   17.5719 N   0  0  0  0  0  0  0  0  0  0  0  0
    7.1649    0.0508   18.5879 C   0  0  0  0  0  0  0  0  0  0  0  0
    8.1115   -0.4366   18.3663 H   0  0  0  0  0  0  0  0  0  0  0  0
    4.9187    1.7871   16.9942 H   0  0  0  0  0  0  0  0  0  0  0  0
    3.8792    1.8400   19.2601 H   0  0  0  0  0  0  0  0  0  0  0  0
    5.0117    0.6097   21.1724 H   0  0  0  0  0  0  0  0  0  0  0  0
   10.5410    0.1987   21.0410 H   0  0  0  0  0  0  0  0  0  0  0  0
    9.3404    0.8726   19.9600 H   0  0  0  0  0  0  0  0  0  0  0  0
   10.6402    2.6525   22.0954 C   0  0  0  0  0  0  0  0  0  0  0  0
   10.1384    1.7693   23.2068 C   0  0  0  0  0  0  0  0  0  0  0  0
    9.6872    2.2416   24.0755 H   0  0  0  0  0  0  0  0  0  0  0  0
   10.6971    0.8668   23.4369 H   0  0  0  0  0  0  0  0  0  0  0  0
   10.5285    3.7277   22.2098 H   0  0  0  0  0  0  0  0  0  0  0  0
   11.5470    2.3587   21.5733 H   0  0  0  0  0  0  0  0  0  0  0  0
    7.7595    2.7781   20.8816 H   0  0  0  0  0  0  0  0  0  0  0  0
    7.2576    1.9015   22.2968 H   0  0  0  0  0  0  0  0  0  0  0  0
    8.0960    3.4499   22.4820 H   0  0  0  0  0  0  0  0  0  0  0  0
  1  2  1  0
  2  3  1  0
  3  4  1  0
  4  5  2  0
  5  6  1  0
  6  7  1  0
  7  8  2  0
  8  9  1  0
  9 10  2  0
 10 11  1  0
 11 12  2  0
 12 13  1  0
 11 14  1  0
  9 15  1  0
  8 16  1  0
  6 17  2  0
 17 18  1  0
 18 19  1  0
 19 20  2  0
 20 21  1  0
 21 22  2  0
 22 23  1  0
 23 24  2  0
 24 25  1  0
 22 26  1  0
 21 27  1  0
 20 28  1  0
  3 29  1  0
  3 30  1  0
  2 31  1  0
 31 32  1  0
 32 33  1  0
 32 34  1  0
 31 35  1  0
 31 36  1  0
  1 37  1  0
  1 38  1  0
  1 39  1  0
 32  2  1  0
 18  4  1  0
 24 19  1  0
 12  7  1  0
M  END
>  <cnnaffinity>  (1) 
-5.99225

>  <filename>  (1) 
CC1(Cc2nc(-c3ccncc3)nn2-c2cccnc2)CC1

$$$$
