
     RDKit          3D

 50 53  0  0  0  0  0  0  0  0999 V2000
    6.1062   -4.3630   22.6359 C   0  0  0  0  0  0  0  0  0  0  0  0
    7.5974   -4.6470   22.7300 C   0  0  0  0  0  0  0  0  0  0  0  0
    8.0310   -5.9801   22.1497 C   0  0  0  0  0  0  0  0  0  0  0  0
    9.1148   -6.0906   22.1632 H   0  0  0  0  0  0  0  0  0  0  0  0
    7.6331   -6.8167   22.7365 H   0  0  0  0  0  0  0  0  0  0  0  0
    7.7082   -6.0853   21.1058 H   0  0  0  0  0  0  0  0  0  0  0  0
    8.3173   -4.1007   23.9359 C   0  0  0  0  0  0  0  0  0  0  0  0
    8.5584   -3.4898   22.5789 C   0  0  0  0  0  0  0  0  0  0  0  0
    8.0710   -2.1479   22.1854 C   0  0  0  0  0  0  0  0  0  0  0  0
    7.4870   -1.9328   21.0192 N   0  0  0  0  0  0  0  0  0  0  0  0
    7.1579   -0.6142   21.0809 N   0  0  0  0  0  0  0  0  0  0  0  0
    6.5165    0.0067   19.9702 C   0  0  0  0  0  0  0  0  0  0  0  0
    5.3176    0.7157   20.1001 C   0  0  0  0  0  0  0  0  0  0  0  0
    4.8057    1.3608   18.9675 C   0  0  0  0  0  0  0  0  0  0  0  0
    5.4914    1.2538   17.7548 C   0  0  0  0  0  0  0  0  0  0  0  0
    6.6075    0.5166   17.6113 N   0  0  0  0  0  0  0  0  0  0  0  0
    7.0936   -0.1021   18.6926 C   0  0  0  0  0  0  0  0  0  0  0  0
    7.9892   -0.7035   18.5599 H   0  0  0  0  0  0  0  0  0  0  0  0
    5.1317    1.7697   16.8651 H   0  0  0  0  0  0  0  0  0  0  0  0
    3.8995    1.9495   19.0245 H   0  0  0  0  0  0  0  0  0  0  0  0
    4.7871    0.7330   21.0528 H   0  0  0  0  0  0  0  0  0  0  0  0
    7.6030   -0.0987   22.2672 C   0  0  0  0  0  0  0  0  0  0  0  0
    7.5328    1.3673   22.6546 C   0  0  0  0  0  0  0  0  0  0  0  0
    8.9363    2.0421   22.6391 C   0  0  0  0  0  0  0  0  0  0  0  0
    9.3738    2.0648   24.1112 C   0  0  0  0  0  0  0  0  0  0  0  0
    8.0985    1.9262   24.9022 C   0  0  0  0  0  0  0  0  0  0  0  0
    7.9866    2.0461   26.1071 O   0  0  0  0  0  0  0  0  0  0  0  0
    7.0868    1.6052   24.0323 N   0  0  0  0  0  0  0  0  0  0  0  0
    5.8283    1.1057   24.5598 C   0  0  0  0  0  0  0  0  0  0  0  0
    6.0428   -0.2181   25.3133 C   0  0  0  0  0  0  0  0  0  0  0  0
    4.9083   -0.5754   26.2216 C   0  0  0  0  0  0  0  0  0  0  0  0
    5.1320   -1.7471   26.8441 F   0  0  0  0  0  0  0  0  0  0  0  0
    3.7345   -0.6789   25.5729 F   0  0  0  0  0  0  0  0  0  0  0  0
    4.7498    0.3677   27.1775 F   0  0  0  0  0  0  0  0  0  0  0  0
    6.2292   -1.0400   24.6159 H   0  0  0  0  0  0  0  0  0  0  0  0
    6.9173   -0.1261   25.9652 H   0  0  0  0  0  0  0  0  0  0  0  0
    5.1170    0.9870   23.7301 H   0  0  0  0  0  0  0  0  0  0  0  0
    5.4178    1.8609   25.2409 H   0  0  0  0  0  0  0  0  0  0  0  0
    9.8907    2.9731   24.4294 H   0  0  0  0  0  0  0  0  0  0  0  0
    9.9822    1.1972   24.3850 H   0  0  0  0  0  0  0  0  0  0  0  0
    9.6367    1.4961   21.9981 H   0  0  0  0  0  0  0  0  0  0  0  0
    8.8429    3.0538   22.2303 H   0  0  0  0  0  0  0  0  0  0  0  0
    6.8456    1.8692   21.9634 H   0  0  0  0  0  0  0  0  0  0  0  0
    8.2200   -1.0451   22.9597 N   0  0  0  0  0  0  0  0  0  0  0  0
    9.5429   -3.6673   22.1694 H   0  0  0  0  0  0  0  0  0  0  0  0
    7.7343   -3.5201   24.6501 H   0  0  0  0  0  0  0  0  0  0  0  0
    9.1183   -4.6918   24.3789 H   0  0  0  0  0  0  0  0  0  0  0  0
    5.5176   -5.1335   23.1505 H   0  0  0  0  0  0  0  0  0  0  0  0
    5.7902   -4.2971   21.5895 H   0  0  0  0  0  0  0  0  0  0  0  0
    5.8430   -3.3960   23.0818 H   0  0  0  0  0  0  0  0  0  0  0  0
  1  2  1  0
  2  3  1  0
  3  4  1  0
  3  5  1  0
  3  6  1  0
  2  7  1  0
  7  8  1  0
  8  9  1  0
  9 10  2  0
 10 11  1  0
 11 12  1  0
 12 13  2  0
 13 14  1  0
 14 15  2  0
 15 16  1  0
 16 17  2  0
 17 18  1  0
 15 19  1  0
 14 20  1  0
 13 21  1  0
 11 22  1  0
 22 23  1  0
 23 24  1  0
 24 25  1  0
 25 26  1  0
 26 27  2  0
 26 28  1  0
 28 29  1  0
 29 30  1  0
 30 31  1  0
 31 32  1  0
 31 33  1  0
 31 34  1  0
 30 35  1  0
 30 36  1  0
 29 37  1  0
 29 38  1  0
 25 39  1  0
 25 40  1  0
 24 41  1  0
 24 42  1  0
 23 43  1  0
 22 44  2  0
  8 45  1  0
  7 46  1  0
  7 47  1  0
  1 48  1  0
  1 49  1  0
  1 50  1  0
  8  2  1  0
 44  9  1  0
 17 12  1  0
 28 23  1  0
M  END
>  <cnnaffinity>  (1) 
-6.34458

>  <filename>  (1) 
CC1(C)CC1c1nc(C2CCC(=O)N2CCC(F)(F)F)n(-c2cccnc2)n1

$$$$
