
     RDKit          3D

 40 43  0  0  0  0  0  0  0  0999 V2000
    8.0615    2.5222   21.8962 C   0  0  0  0  0  0  0  0  0  0  0  0
    9.4052    1.8269   21.9041 C   0  0  0  0  0  0  0  0  0  0  0  0
    9.5232    0.5947   21.0064 C   0  0  0  0  0  0  0  0  0  0  0  0
    8.6108   -0.5044   21.4252 C   0  0  0  0  0  0  0  0  0  0  0  0
    8.8457   -1.3682   22.3865 N   0  0  0  0  0  0  0  0  0  0  0  0
    7.6663   -2.0378   22.5123 C   0  0  0  0  0  0  0  0  0  0  0  0
    7.4448   -3.0900   23.5369 C   0  0  0  0  0  0  0  0  0  0  0  0
    6.1991   -3.7494   23.6196 C   0  0  0  0  0  0  0  0  0  0  0  0
    5.9901   -4.7408   24.5789 C   0  0  0  0  0  0  0  0  0  0  0  0
    7.0109   -5.0882   25.4710 C   0  0  0  0  0  0  0  0  0  0  0  0
    8.2470   -4.4364   25.4000 C   0  0  0  0  0  0  0  0  0  0  0  0
    8.4690   -3.4432   24.4433 C   0  0  0  0  0  0  0  0  0  0  0  0
    9.4340   -2.9403   24.3976 H   0  0  0  0  0  0  0  0  0  0  0  0
    9.0414   -4.7034   26.0935 H   0  0  0  0  0  0  0  0  0  0  0  0
    6.8425   -5.8610   26.2190 H   0  0  0  0  0  0  0  0  0  0  0  0
    5.0262   -5.2403   24.6314 H   0  0  0  0  0  0  0  0  0  0  0  0
    5.4038   -3.4704   22.9289 H   0  0  0  0  0  0  0  0  0  0  0  0
    6.7332   -1.6482   21.6574 N   0  0  0  0  0  0  0  0  0  0  0  0
    7.3502   -0.6841   20.9343 N   0  0  0  0  0  0  0  0  0  0  0  0
    6.6528    0.0032   19.9014 C   0  0  0  0  0  0  0  0  0  0  0  0
    5.4381    0.6415   20.1661 C   0  0  0  0  0  0  0  0  0  0  0  0
    4.8118    1.3101   19.1084 C   0  0  0  0  0  0  0  0  0  0  0  0
    5.3985    1.2966   17.8372 C   0  0  0  0  0  0  0  0  0  0  0  0
    6.5549    0.6696   17.5730 N   0  0  0  0  0  0  0  0  0  0  0  0
    7.1635    0.0478   18.5909 C   0  0  0  0  0  0  0  0  0  0  0  0
    8.1097   -0.4370   18.3646 H   0  0  0  0  0  0  0  0  0  0  0  0
    4.9210    1.7887   16.9936 H   0  0  0  0  0  0  0  0  0  0  0  0
    3.8804    1.8392   19.2593 H   0  0  0  0  0  0  0  0  0  0  0  0
    5.0120    0.6080   21.1737 H   0  0  0  0  0  0  0  0  0  0  0  0
   10.5393    0.1965   21.0456 H   0  0  0  0  0  0  0  0  0  0  0  0
    9.3366    0.8666   19.9679 H   0  0  0  0  0  0  0  0  0  0  0  0
   10.6422    2.6495   22.0982 C   0  0  0  0  0  0  0  0  0  0  0  0
   10.1401    1.7642   23.2098 C   0  0  0  0  0  0  0  0  0  0  0  0
    9.6888    2.2303   24.0821 H   0  0  0  0  0  0  0  0  0  0  0  0
   10.6943    0.8592   23.4412 H   0  0  0  0  0  0  0  0  0  0  0  0
   11.5491    2.3615   21.5724 H   0  0  0  0  0  0  0  0  0  0  0  0
   10.5337    3.7260   22.2105 H   0  0  0  0  0  0  0  0  0  0  0  0
    7.7581    2.7730   20.8851 H   0  0  0  0  0  0  0  0  0  0  0  0
    8.0970    3.4441   22.4862 H   0  0  0  0  0  0  0  0  0  0  0  0
    7.2596    1.8948   22.3002 H   0  0  0  0  0  0  0  0  0  0  0  0
  1  2  1  0
  2  3  1  0
  3  4  1  0
  4  5  2  0
  5  6  1  0
  6  7  1  0
  7  8  2  0
  8  9  1  0
  9 10  2  0
 10 11  1  0
 11 12  2  0
 12 13  1  0
 11 14  1  0
 10 15  1  0
  9 16  1  0
  8 17  1  0
  6 18  2  0
 18 19  1  0
 19 20  1  0
 20 21  2  0
 21 22  1  0
 22 23  2  0
 23 24  1  0
 24 25  2  0
 25 26  1  0
 23 27  1  0
 22 28  1  0
 21 29  1  0
  3 30  1  0
  3 31  1  0
  2 32  1  0
 32 33  1  0
 33 34  1  0
 33 35  1  0
 32 36  1  0
 32 37  1  0
  1 38  1  0
  1 39  1  0
  1 40  1  0
 33  2  1  0
 19  4  1  0
 25 20  1  0
 12  7  1  0
M  END
>  <cnnaffinity>  (1) 
-5.63617

>  <filename>  (1) 
CC1(Cc2nc(-c3ccccc3)nn2-c2cccnc2)CC1

$$$$
