
     RDKit          3D

 42 45  0  0  0  0  0  0  0  0999 V2000
    6.1897   -4.2889   22.1990 C   0  0  0  0  0  0  0  0  0  0  0  0
    7.6506   -4.6262   22.4596 C   0  0  0  0  0  0  0  0  0  0  0  0
    8.1131   -5.9149   21.8052 C   0  0  0  0  0  0  0  0  0  0  0  0
    8.1928   -5.7718   20.7195 H   0  0  0  0  0  0  0  0  0  0  0  0
    7.4035   -6.7315   21.9989 H   0  0  0  0  0  0  0  0  0  0  0  0
    9.0981   -6.2517   22.1495 H   0  0  0  0  0  0  0  0  0  0  0  0
    8.2636   -4.1883   23.7609 C   0  0  0  0  0  0  0  0  0  0  0  0
    8.6161   -3.4570   22.4841 C   0  0  0  0  0  0  0  0  0  0  0  0
    8.1271   -2.0994   22.1357 C   0  0  0  0  0  0  0  0  0  0  0  0
    7.7118   -1.7934   20.9203 N   0  0  0  0  0  0  0  0  0  0  0  0
    7.2696   -0.5128   21.0648 N   0  0  0  0  0  0  0  0  0  0  0  0
    6.6046    0.0965   19.9615 C   0  0  0  0  0  0  0  0  0  0  0  0
    5.3806    0.7579   20.1146 C   0  0  0  0  0  0  0  0  0  0  0  0
    4.8096    1.3642   18.9892 C   0  0  0  0  0  0  0  0  0  0  0  0
    5.4795    1.2783   17.7650 C   0  0  0  0  0  0  0  0  0  0  0  0
    6.6195    0.5821   17.5993 N   0  0  0  0  0  0  0  0  0  0  0  0
    7.1514   -0.0171   18.6700 C   0  0  0  0  0  0  0  0  0  0  0  0
    8.0442   -0.6185   18.5004 H   0  0  0  0  0  0  0  0  0  0  0  0
    5.0891    1.7774   16.8795 H   0  0  0  0  0  0  0  0  0  0  0  0
    3.8732    1.9113   19.0561 H   0  0  0  0  0  0  0  0  0  0  0  0
    4.8743    0.7631   21.0802 H   0  0  0  0  0  0  0  0  0  0  0  0
    7.5223   -0.1001   22.3476 C   0  0  0  0  0  0  0  0  0  0  0  0
    7.2777    1.2242   23.0103 C   0  0  0  0  0  0  0  0  0  0  0  0
    8.5594    1.7681   23.6194 C   0  0  0  0  0  0  0  0  0  0  0  0
    9.5839    2.3041   22.8219 C   0  0  0  0  0  0  0  0  0  0  0  0
    9.3167    2.5063   21.1258 Cl  0  0  0  0  0  0  0  0  0  0  0  0
   10.8363    2.6176   23.3650 C   0  0  0  0  0  0  0  0  0  0  0  0
   11.1333    2.3765   24.6455 N   0  0  0  0  0  0  0  0  0  0  0  0
   10.1726    1.8733   25.4308 C   0  0  0  0  0  0  0  0  0  0  0  0
    8.8822    1.6132   24.9726 C   0  0  0  0  0  0  0  0  0  0  0  0
    7.9591    1.1984   25.8569 F   0  0  0  0  0  0  0  0  0  0  0  0
   10.4310    1.6594   26.4596 H   0  0  0  0  0  0  0  0  0  0  0  0
   11.6223    3.0531   22.7488 H   0  0  0  0  0  0  0  0  0  0  0  0
    6.5585    1.0587   23.8148 H   0  0  0  0  0  0  0  0  0  0  0  0
    6.8523    1.9378   22.3031 H   0  0  0  0  0  0  0  0  0  0  0  0
    8.0595   -1.0936   23.0304 N   0  0  0  0  0  0  0  0  0  0  0  0
    9.6482   -3.5648   22.1645 H   0  0  0  0  0  0  0  0  0  0  0  0
    9.0445   -4.8315   24.1654 H   0  0  0  0  0  0  0  0  0  0  0  0
    7.6529   -3.6985   24.5225 H   0  0  0  0  0  0  0  0  0  0  0  0
    5.5224   -5.0744   22.5659 H   0  0  0  0  0  0  0  0  0  0  0  0
    6.0144   -4.1725   21.1217 H   0  0  0  0  0  0  0  0  0  0  0  0
    5.9110   -3.3476   22.6886 H   0  0  0  0  0  0  0  0  0  0  0  0
  1  2  1  0
  2  3  1  0
  3  4  1  0
  3  5  1  0
  3  6  1  0
  2  7  1  0
  7  8  1  0
  8  9  1  0
  9 10  2  0
 10 11  1  0
 11 12  1  0
 12 13  2  0
 13 14  1  0
 14 15  2  0
 15 16  1  0
 16 17  2  0
 17 18  1  0
 15 19  1  0
 14 20  1  0
 13 21  1  0
 11 22  1  0
 22 23  1  0
 23 24  1  0
 24 25  2  0
 25 26  1  0
 25 27  1  0
 27 28  2  0
 28 29  1  0
 29 30  2  0
 30 31  1  0
 29 32  1  0
 27 33  1  0
 23 34  1  0
 23 35  1  0
 22 36  2  0
  8 37  1  0
  7 38  1  0
  7 39  1  0
  1 40  1  0
  1 41  1  0
  1 42  1  0
  8  2  1  0
 36  9  1  0
 17 12  1  0
 30 24  1  0
M  END
>  <cnnaffinity>  (1) 
-6.72766

>  <filename>  (1) 
CC1(C)CC1c1nc(Cc2c(F)cncc2Cl)n(-c2cccnc2)n1

$$$$
