
     RDKit          3D

 42 45  0  0  0  0  0  0  0  0999 V2000
    8.0013   -3.4310   26.1994 C   0  0  0  0  0  0  0  0  0  0  0  0
    7.3582   -2.5378   25.1549 C   0  0  0  0  0  0  0  0  0  0  0  0
    7.5676   -1.0538   25.4056 C   0  0  0  0  0  0  0  0  0  0  0  0
    7.0766   -0.4420   24.6411 H   0  0  0  0  0  0  0  0  0  0  0  0
    8.6405   -0.8235   25.3566 H   0  0  0  0  0  0  0  0  0  0  0  0
    7.1954   -0.7517   26.3906 H   0  0  0  0  0  0  0  0  0  0  0  0
    6.0913   -3.0170   24.4945 C   0  0  0  0  0  0  0  0  0  0  0  0
    7.3797   -3.0297   23.7163 C   0  0  0  0  0  0  0  0  0  0  0  0
    7.6351   -2.0649   22.6162 C   0  0  0  0  0  0  0  0  0  0  0  0
    6.7263   -1.5926   21.7861 N   0  0  0  0  0  0  0  0  0  0  0  0
    7.4236   -0.6718   21.0575 N   0  0  0  0  0  0  0  0  0  0  0  0
    6.7686    0.0070   19.9796 C   0  0  0  0  0  0  0  0  0  0  0  0
    5.5413    0.6403   20.2161 C   0  0  0  0  0  0  0  0  0  0  0  0
    4.9136    1.2952   19.1536 C   0  0  0  0  0  0  0  0  0  0  0  0
    5.5168    1.2797   17.8908 C   0  0  0  0  0  0  0  0  0  0  0  0
    6.6781    0.6520   17.6455 N   0  0  0  0  0  0  0  0  0  0  0  0
    7.2821    0.0291   18.6673 C   0  0  0  0  0  0  0  0  0  0  0  0
    8.2010   -0.5038   18.4189 H   0  0  0  0  0  0  0  0  0  0  0  0
    5.0441    1.7654   17.0391 H   0  0  0  0  0  0  0  0  0  0  0  0
    3.9636    1.8017   19.2928 H   0  0  0  0  0  0  0  0  0  0  0  0
    5.1003    0.5940   21.2122 H   0  0  0  0  0  0  0  0  0  0  0  0
    8.6948   -0.6007   21.5567 C   0  0  0  0  0  0  0  0  0  0  0  0
    9.6272    0.5623   21.3621 C   0  0  0  0  0  0  0  0  0  0  0  0
    9.1307    1.8223   22.0704 C   0  0  0  0  0  0  0  0  0  0  0  0
    9.3519    2.0424   23.4408 C   0  0  0  0  0  0  0  0  0  0  0  0
    8.8350    3.1864   24.0515 C   0  0  0  0  0  0  0  0  0  0  0  0
    8.1205    4.0756   23.2407 C   0  0  0  0  0  0  0  0  0  0  0  0
    7.5474    5.5585   23.9449 Cl  0  0  0  0  0  0  0  0  0  0  0  0
    7.8683    3.8868   21.9603 N   0  0  0  0  0  0  0  0  0  0  0  0
    8.3678    2.7745   21.3985 C   0  0  0  0  0  0  0  0  0  0  0  0
    8.1663    2.5848   20.3481 H   0  0  0  0  0  0  0  0  0  0  0  0
    8.9808    3.4323   25.0960 H   0  0  0  0  0  0  0  0  0  0  0  0
    9.9471    1.3227   24.0036 H   0  0  0  0  0  0  0  0  0  0  0  0
    9.7767    0.7170   20.2875 H   0  0  0  0  0  0  0  0  0  0  0  0
   10.5858    0.2628   21.7935 H   0  0  0  0  0  0  0  0  0  0  0  0
    8.8771   -1.5337   22.4697 N   0  0  0  0  0  0  0  0  0  0  0  0
    7.8692   -3.9845   23.5436 H   0  0  0  0  0  0  0  0  0  0  0  0
    5.3467   -2.2807   24.2038 H   0  0  0  0  0  0  0  0  0  0  0  0
    5.6662   -3.9648   24.8215 H   0  0  0  0  0  0  0  0  0  0  0  0
    7.5577   -3.2622   27.1886 H   0  0  0  0  0  0  0  0  0  0  0  0
    7.8815   -4.4927   25.9586 H   0  0  0  0  0  0  0  0  0  0  0  0
    9.0764   -3.2285   26.2786 H   0  0  0  0  0  0  0  0  0  0  0  0
  1  2  1  0
  2  3  1  0
  3  4  1  0
  3  5  1  0
  3  6  1  0
  2  7  1  0
  7  8  1  0
  8  9  1  0
  9 10  2  0
 10 11  1  0
 11 12  1  0
 12 13  2  0
 13 14  1  0
 14 15  2  0
 15 16  1  0
 16 17  2  0
 17 18  1  0
 15 19  1  0
 14 20  1  0
 13 21  1  0
 11 22  1  0
 22 23  1  0
 23 24  1  0
 24 25  2  0
 25 26  1  0
 26 27  2  0
 27 28  1  0
 27 29  1  0
 29 30  2  0
 30 31  1  0
 26 32  1  0
 25 33  1  0
 23 34  1  0
 23 35  1  0
 22 36  2  0
  8 37  1  0
  7 38  1  0
  7 39  1  0
  1 40  1  0
  1 41  1  0
  1 42  1  0
  8  2  1  0
 36  9  1  0
 17 12  1  0
 30 24  1  0
M  END
>  <cnnaffinity>  (1) 
-6.05869

>  <filename>  (1) 
CC1(C)CC1c1nc(Cc2ccc(Cl)nc2)n(-c2cccnc2)n1

$$$$
