
     RDKit          3D

 43 46  0  0  0  0  0  0  0  0999 V2000
    8.4215   -4.6135   22.6628 C   0  0  0  0  0  0  0  0  0  0  0  0
    7.5425   -4.2269   23.8379 C   0  0  0  0  0  0  0  0  0  0  0  0
    8.0307   -4.7128   25.1953 C   0  0  0  0  0  0  0  0  0  0  0  0
    7.3377   -4.4644   26.0100 H   0  0  0  0  0  0  0  0  0  0  0  0
    8.1396   -5.8043   25.1843 H   0  0  0  0  0  0  0  0  0  0  0  0
    9.0052   -4.2868   25.4649 H   0  0  0  0  0  0  0  0  0  0  0  0
    6.0543   -4.1250   23.6379 C   0  0  0  0  0  0  0  0  0  0  0  0
    6.8757   -2.8662   23.7660 C   0  0  0  0  0  0  0  0  0  0  0  0
    7.1140   -1.9992   22.5808 C   0  0  0  0  0  0  0  0  0  0  0  0
    6.1906   -1.6555   21.6990 N   0  0  0  0  0  0  0  0  0  0  0  0
    6.8998   -0.9650   20.7677 N   0  0  0  0  0  0  0  0  0  0  0  0
    6.2601   -0.2724   19.7108 C   0  0  0  0  0  0  0  0  0  0  0  0
    5.1408    0.5265   19.9641 C   0  0  0  0  0  0  0  0  0  0  0  0
    4.6946    1.3700   18.9448 C   0  0  0  0  0  0  0  0  0  0  0  0
    5.3428    1.3400   17.7027 C   0  0  0  0  0  0  0  0  0  0  0  0
    6.3515    0.4978   17.4264 N   0  0  0  0  0  0  0  0  0  0  0  0
    6.7820   -0.3033   18.4066 C   0  0  0  0  0  0  0  0  0  0  0  0
    7.5899   -0.9890   18.1522 H   0  0  0  0  0  0  0  0  0  0  0  0
    5.0390    2.0126   16.9030 H   0  0  0  0  0  0  0  0  0  0  0  0
    3.8679    2.0531   19.1104 H   0  0  0  0  0  0  0  0  0  0  0  0
    4.6548    0.4741   20.9389 H   0  0  0  0  0  0  0  0  0  0  0  0
    8.1996   -0.8907   21.1743 C   0  0  0  0  0  0  0  0  0  0  0  0
    9.2862   -0.2729   20.3513 C   0  0  0  0  0  0  0  0  0  0  0  0
   10.4264    0.1427   21.1483 N   0  0  0  0  0  0  0  0  0  0  0  0
   11.6089   -0.5267   21.3554 C   0  0  0  0  0  0  0  0  0  0  0  0
   12.3480    0.0429   22.2622 N   0  0  0  0  0  0  0  0  0  0  0  0
   11.6180    1.1316   22.6987 C   0  0  0  0  0  0  0  0  0  0  0  0
   12.0733    2.0784   23.7906 C   0  0  0  0  0  0  0  0  0  0  0  0
   12.6836    1.4540   24.8076 F   0  0  0  0  0  0  0  0  0  0  0  0
   12.9279    3.0085   23.3254 F   0  0  0  0  0  0  0  0  0  0  0  0
   11.0142    2.7389   24.3125 F   0  0  0  0  0  0  0  0  0  0  0  0
   10.4372    1.2168   22.0057 C   0  0  0  0  0  0  0  0  0  0  0  0
    9.6256    1.9337   22.0410 H   0  0  0  0  0  0  0  0  0  0  0  0
   11.8623   -1.4224   20.7987 H   0  0  0  0  0  0  0  0  0  0  0  0
    9.6080   -1.0092   19.6138 H   0  0  0  0  0  0  0  0  0  0  0  0
    8.9002    0.5852   19.7956 H   0  0  0  0  0  0  0  0  0  0  0  0
    8.3589   -1.5291   22.3116 N   0  0  0  0  0  0  0  0  0  0  0  0
    6.8510   -2.2979   24.6944 H   0  0  0  0  0  0  0  0  0  0  0  0
    5.6556   -4.3677   22.6526 H   0  0  0  0  0  0  0  0  0  0  0  0
    5.4270   -4.4320   24.4726 H   0  0  0  0  0  0  0  0  0  0  0  0
    9.3759   -4.0800   22.7478 H   0  0  0  0  0  0  0  0  0  0  0  0
    7.9759   -4.2990   21.7109 H   0  0  0  0  0  0  0  0  0  0  0  0
    8.6084   -5.6910   22.6234 H   0  0  0  0  0  0  0  0  0  0  0  0
  1  2  1  0
  2  3  1  0
  3  4  1  0
  3  5  1  0
  3  6  1  0
  2  7  1  0
  7  8  1  0
  8  9  1  0
  9 10  2  0
 10 11  1  0
 11 12  1  0
 12 13  2  0
 13 14  1  0
 14 15  2  0
 15 16  1  0
 16 17  2  0
 17 18  1  0
 15 19  1  0
 14 20  1  0
 13 21  1  0
 11 22  1  0
 22 23  1  0
 23 24  1  0
 24 25  1  0
 25 26  2  0
 26 27  1  0
 27 28  1  0
 28 29  1  0
 28 30  1  0
 28 31  1  0
 27 32  2  0
 32 33  1  0
 25 34  1  0
 23 35  1  0
 23 36  1  0
 22 37  2  0
  8 38  1  0
  7 39  1  0
  7 40  1  0
  1 41  1  0
  1 42  1  0
  1 43  1  0
  8  2  1  0
 37  9  1  0
 17 12  1  0
 32 24  1  0
M  END
>  <cnnaffinity>  (1) 
-6.37682

>  <filename>  (1) 
CC1(C)CC1c1nc(Cn2cnc(C(F)(F)F)c2)n(-c2cccnc2)n1

$$$$
