
     RDKit          3D

 42 45  0  0  0  0  0  0  0  0999 V2000
    5.9792   -4.6100   22.7148 C   0  0  0  0  0  0  0  0  0  0  0  0
    7.4693   -4.8815   22.8456 C   0  0  0  0  0  0  0  0  0  0  0  0
    7.9348   -6.0646   22.0208 C   0  0  0  0  0  0  0  0  0  0  0  0
    9.0018   -6.2745   22.1339 H   0  0  0  0  0  0  0  0  0  0  0  0
    7.7472   -5.8740   20.9571 H   0  0  0  0  0  0  0  0  0  0  0  0
    7.3920   -6.9805   22.2757 H   0  0  0  0  0  0  0  0  0  0  0  0
    8.1762   -4.4962   24.1213 C   0  0  0  0  0  0  0  0  0  0  0  0
    8.3861   -3.6705   22.8851 C   0  0  0  0  0  0  0  0  0  0  0  0
    7.7823   -2.3314   22.6696 C   0  0  0  0  0  0  0  0  0  0  0  0
    7.4410   -1.9897   21.4477 N   0  0  0  0  0  0  0  0  0  0  0  0
    6.8958   -0.7576   21.6140 N   0  0  0  0  0  0  0  0  0  0  0  0
    6.4332   -0.0526   20.4722 C   0  0  0  0  0  0  0  0  0  0  0  0
    5.2768    0.7333   20.4766 C   0  0  0  0  0  0  0  0  0  0  0  0
    4.9275    1.3948   19.2969 C   0  0  0  0  0  0  0  0  0  0  0  0
    5.7245    1.2290   18.1593 C   0  0  0  0  0  0  0  0  0  0  0  0
    6.8283    0.4633   18.1465 N   0  0  0  0  0  0  0  0  0  0  0  0
    7.1644   -0.1642   19.2772 C   0  0  0  0  0  0  0  0  0  0  0  0
    8.0551   -0.7888   19.2647 H   0  0  0  0  0  0  0  0  0  0  0  0
    5.4741    1.7243   17.2234 H   0  0  0  0  0  0  0  0  0  0  0  0
    4.0498    2.0310   19.2502 H   0  0  0  0  0  0  0  0  0  0  0  0
    4.6488    0.7996   21.3645 H   0  0  0  0  0  0  0  0  0  0  0  0
    6.9760   -0.4164   22.9348 C   0  0  0  0  0  0  0  0  0  0  0  0
    6.7759    1.0000   23.4002 C   0  0  0  0  0  0  0  0  0  0  0  0
    7.8446    1.8499   22.7728 C   0  0  0  0  0  0  0  0  0  0  0  0
    7.8378    2.6211   21.6633 C   0  0  0  0  0  0  0  0  0  0  0  0
    9.1315    2.8944   21.3255 O   0  0  0  0  0  0  0  0  0  0  0  0
    9.8649    2.3227   22.3128 C   0  0  0  0  0  0  0  0  0  0  0  0
   11.3818    2.4202   22.1731 C   0  0  0  0  0  0  0  0  0  0  0  0
   11.8261    3.6955   22.3441 F   0  0  0  0  0  0  0  0  0  0  0  0
   12.0057    1.6348   23.0812 F   0  0  0  0  0  0  0  0  0  0  0  0
   11.6671    2.0980   21.1688 H   0  0  0  0  0  0  0  0  0  0  0  0
    9.1576    1.6840   23.1845 N   0  0  0  0  0  0  0  0  0  0  0  0
    7.0478    2.9899   21.0279 H   0  0  0  0  0  0  0  0  0  0  0  0
    5.7837    1.3528   23.1110 H   0  0  0  0  0  0  0  0  0  0  0  0
    6.8728    1.0251   24.4853 H   0  0  0  0  0  0  0  0  0  0  0  0
    7.5129   -1.4032   23.6246 N   0  0  0  0  0  0  0  0  0  0  0  0
    9.3547   -3.7445   22.4033 H   0  0  0  0  0  0  0  0  0  0  0  0
    7.6101   -4.0423   24.9336 H   0  0  0  0  0  0  0  0  0  0  0  0
    9.0193   -5.1031   24.4490 H   0  0  0  0  0  0  0  0  0  0  0  0
    5.6620   -3.7765   23.3507 H   0  0  0  0  0  0  0  0  0  0  0  0
    5.3744   -5.4879   22.9696 H   0  0  0  0  0  0  0  0  0  0  0  0
    5.7586   -4.3178   21.6803 H   0  0  0  0  0  0  0  0  0  0  0  0
  1  2  1  0
  2  3  1  0
  3  4  1  0
  3  5  1  0
  3  6  1  0
  2  7  1  0
  7  8  1  0
  8  9  1  0
  9 10  2  0
 10 11  1  0
 11 12  1  0
 12 13  2  0
 13 14  1  0
 14 15  2  0
 15 16  1  0
 16 17  2  0
 17 18  1  0
 15 19  1  0
 14 20  1  0
 13 21  1  0
 11 22  1  0
 22 23  1  0
 23 24  1  0
 24 25  2  0
 25 26  1  0
 26 27  1  0
 27 28  1  0
 28 29  1  0
 28 30  1  0
 28 31  1  0
 27 32  2  0
 25 33  1  0
 23 34  1  0
 23 35  1  0
 22 36  2  0
  8 37  1  0
  7 38  1  0
  7 39  1  0
  1 40  1  0
  1 41  1  0
  1 42  1  0
  8  2  1  0
 36  9  1  0
 17 12  1  0
 32 24  1  0
M  END
>  <cnnaffinity>  (1) 
-6.28943

>  <filename>  (1) 
CC1(C)CC1c1nc(Cc2coc(C(F)F)n2)n(-c2cccnc2)n1

$$$$
