
     RDKit          3D

 46 49  0  0  0  0  0  0  0  0999 V2000
    6.0777   -4.2944   22.4413 C   0  0  0  0  0  0  0  0  0  0  0  0
    7.5504   -4.6217   22.6172 C   0  0  0  0  0  0  0  0  0  0  0  0
    7.9971   -5.9368   22.0037 C   0  0  0  0  0  0  0  0  0  0  0  0
    7.5130   -6.7860   22.5012 H   0  0  0  0  0  0  0  0  0  0  0  0
    7.7696   -5.9858   20.9291 H   0  0  0  0  0  0  0  0  0  0  0  0
    9.0741   -6.0846   22.1084 H   0  0  0  0  0  0  0  0  0  0  0  0
    8.2002   -4.1234   23.8849 C   0  0  0  0  0  0  0  0  0  0  0  0
    8.5190   -3.4660   22.5601 C   0  0  0  0  0  0  0  0  0  0  0  0
    8.0564   -2.1182   22.1488 C   0  0  0  0  0  0  0  0  0  0  0  0
    7.5212   -1.8743   20.9620 N   0  0  0  0  0  0  0  0  0  0  0  0
    7.2241   -0.5475   21.0270 N   0  0  0  0  0  0  0  0  0  0  0  0
    6.5476    0.0564   19.9271 C   0  0  0  0  0  0  0  0  0  0  0  0
    5.3429    0.7571   20.0694 C   0  0  0  0  0  0  0  0  0  0  0  0
    4.8100    1.3873   18.9374 C   0  0  0  0  0  0  0  0  0  0  0  0
    5.4835    1.2762   17.7175 C   0  0  0  0  0  0  0  0  0  0  0  0
    6.5914    0.5282   17.5600 N   0  0  0  0  0  0  0  0  0  0  0  0
    7.0890   -0.0858   18.6382 C   0  0  0  0  0  0  0  0  0  0  0  0
    7.9577   -0.7241   18.4923 H   0  0  0  0  0  0  0  0  0  0  0  0
    5.1271    1.7983   16.8298 H   0  0  0  0  0  0  0  0  0  0  0  0
    3.8980    1.9724   18.9939 H   0  0  0  0  0  0  0  0  0  0  0  0
    4.8177    0.7774   21.0263 H   0  0  0  0  0  0  0  0  0  0  0  0
    7.6622   -0.0591   22.2299 C   0  0  0  0  0  0  0  0  0  0  0  0
    7.7371    1.3805   22.6813 C   0  0  0  0  0  0  0  0  0  0  0  0
    7.3280    1.5598   24.0881 N   0  0  0  0  0  0  0  0  0  0  0  0
    6.0016    1.4647   24.3971 C   0  0  0  0  0  0  0  0  0  0  0  0
    5.5637    1.3737   25.6884 C   0  0  0  0  0  0  0  0  0  0  0  0
    4.0940    1.2450   25.9687 C   0  0  0  0  0  0  0  0  0  0  0  0
    3.7067   -0.0432   26.0235 F   0  0  0  0  0  0  0  0  0  0  0  0
    3.7455    1.8072   27.1398 F   0  0  0  0  0  0  0  0  0  0  0  0
    3.3411    1.8307   25.0132 F   0  0  0  0  0  0  0  0  0  0  0  0
    6.5163    1.3028   26.7483 C   0  0  0  0  0  0  0  0  0  0  0  0
    7.8372    1.4213   26.4662 C   0  0  0  0  0  0  0  0  0  0  0  0
    8.3279    1.6223   25.1176 C   0  0  0  0  0  0  0  0  0  0  0  0
    9.5031    1.8151   24.8524 O   0  0  0  0  0  0  0  0  0  0  0  0
    8.6262    1.3592   27.1995 H   0  0  0  0  0  0  0  0  0  0  0  0
    6.1927    1.1421   27.7753 H   0  0  0  0  0  0  0  0  0  0  0  0
    5.3233    1.4575   23.5460 H   0  0  0  0  0  0  0  0  0  0  0  0
    7.1413    2.0214   22.0218 H   0  0  0  0  0  0  0  0  0  0  0  0
    8.7823    1.7044   22.6275 H   0  0  0  0  0  0  0  0  0  0  0  0
    8.1845   -1.0382   22.9445 N   0  0  0  0  0  0  0  0  0  0  0  0
    9.5328   -3.6362   22.2176 H   0  0  0  0  0  0  0  0  0  0  0  0
    8.9700   -4.7437   24.3462 H   0  0  0  0  0  0  0  0  0  0  0  0
    7.5865   -3.5899   24.6107 H   0  0  0  0  0  0  0  0  0  0  0  0
    5.8341   -4.1935   21.3777 H   0  0  0  0  0  0  0  0  0  0  0  0
    5.8289   -3.3354   22.9093 H   0  0  0  0  0  0  0  0  0  0  0  0
    5.4387   -5.0629   22.8901 H   0  0  0  0  0  0  0  0  0  0  0  0
  1  2  1  0
  2  3  1  0
  3  4  1  0
  3  5  1  0
  3  6  1  0
  2  7  1  0
  7  8  1  0
  8  9  1  0
  9 10  2  0
 10 11  1  0
 11 12  1  0
 12 13  2  0
 13 14  1  0
 14 15  2  0
 15 16  1  0
 16 17  2  0
 17 18  1  0
 15 19  1  0
 14 20  1  0
 13 21  1  0
 11 22  1  0
 22 23  1  0
 23 24  1  0
 24 25  1  0
 25 26  2  0
 26 27  1  0
 27 28  1  0
 27 29  1  0
 27 30  1  0
 26 31  1  0
 31 32  2  0
 32 33  1  0
 33 34  2  0
 32 35  1  0
 31 36  1  0
 25 37  1  0
 23 38  1  0
 23 39  1  0
 22 40  2  0
  8 41  1  0
  7 42  1  0
  7 43  1  0
  1 44  1  0
  1 45  1  0
  1 46  1  0
  8  2  1  0
 40  9  1  0
 17 12  1  0
 33 24  1  0
M  END
>  <cnnaffinity>  (1) 
-6.29182

>  <filename>  (1) 
CC1(C)CC1c1nc(Cn2cc(C(F)(F)F)ccc2=O)n(-c2cccnc2)n1

$$$$
