
     RDKit          3D

 42 45  0  0  0  0  0  0  0  0999 V2000
    6.4469   -5.3080   24.0164 C   0  0  0  0  0  0  0  0  0  0  0  0
    7.4206   -4.4931   23.1840 C   0  0  0  0  0  0  0  0  0  0  0  0
    7.4647   -4.8241   21.6922 C   0  0  0  0  0  0  0  0  0  0  0  0
    8.1926   -4.1883   21.1791 H   0  0  0  0  0  0  0  0  0  0  0  0
    6.4813   -4.6543   21.2444 H   0  0  0  0  0  0  0  0  0  0  0  0
    7.7464   -5.8703   21.5412 H   0  0  0  0  0  0  0  0  0  0  0  0
    8.7075   -4.0258   23.8544 C   0  0  0  0  0  0  0  0  0  0  0  0
    7.5541   -3.0420   23.6013 C   0  0  0  0  0  0  0  0  0  0  0  0
    7.6687   -1.9855   22.5543 C   0  0  0  0  0  0  0  0  0  0  0  0
    6.7636   -1.7439   21.6350 N   0  0  0  0  0  0  0  0  0  0  0  0
    7.3014   -0.7068   20.9582 N   0  0  0  0  0  0  0  0  0  0  0  0
    6.6515   -0.0324   19.9145 C   0  0  0  0  0  0  0  0  0  0  0  0
    5.4201    0.5946   20.1334 C   0  0  0  0  0  0  0  0  0  0  0  0
    4.8359    1.2830   19.0682 C   0  0  0  0  0  0  0  0  0  0  0  0
    5.4688    1.3076   17.8203 C   0  0  0  0  0  0  0  0  0  0  0  0
    6.6410    0.6837   17.5971 N   0  0  0  0  0  0  0  0  0  0  0  0
    7.2155    0.0346   18.6295 C   0  0  0  0  0  0  0  0  0  0  0  0
    8.1660   -0.4617   18.4574 H   0  0  0  0  0  0  0  0  0  0  0  0
    4.9956    1.8473   17.0059 H   0  0  0  0  0  0  0  0  0  0  0  0
    3.8982    1.8126   19.1957 H   0  0  0  0  0  0  0  0  0  0  0  0
    4.9505    0.5693   21.1169 H   0  0  0  0  0  0  0  0  0  0  0  0
    8.5276   -0.3869   21.5382 C   0  0  0  0  0  0  0  0  0  0  0  0
    9.4386    0.7548   21.2115 C   0  0  0  0  0  0  0  0  0  0  0  0
    8.9225    2.0195   21.8647 C   0  0  0  0  0  0  0  0  0  0  0  0
    7.6615    2.4991   21.5172 C   0  0  0  0  0  0  0  0  0  0  0  0
    7.2084    3.6634   22.1279 C   0  0  0  0  0  0  0  0  0  0  0  0
    5.4878    4.3828   21.7287 Br  0  0  0  0  0  0  0  0  0  0  0  0
    8.0330    4.3167   23.0528 C   0  0  0  0  0  0  0  0  0  0  0  0
    9.2363    3.8512   23.4210 N   0  0  0  0  0  0  0  0  0  0  0  0
    9.6607    2.7188   22.8400 C   0  0  0  0  0  0  0  0  0  0  0  0
   10.6270    2.3244   23.1333 H   0  0  0  0  0  0  0  0  0  0  0  0
    7.6741    5.2330   23.5021 H   0  0  0  0  0  0  0  0  0  0  0  0
    7.0476    1.9717   20.7919 H   0  0  0  0  0  0  0  0  0  0  0  0
    9.4763    0.8865   20.1318 H   0  0  0  0  0  0  0  0  0  0  0  0
   10.4467    0.5209   21.5704 H   0  0  0  0  0  0  0  0  0  0  0  0
    8.7847   -1.1798   22.5300 N   0  0  0  0  0  0  0  0  0  0  0  0
    6.9764   -2.7113   24.4664 H   0  0  0  0  0  0  0  0  0  0  0  0
    9.6089   -3.9371   23.2385 H   0  0  0  0  0  0  0  0  0  0  0  0
    8.8921   -4.3345   24.8889 H   0  0  0  0  0  0  0  0  0  0  0  0
    6.4924   -5.0122   25.0695 H   0  0  0  0  0  0  0  0  0  0  0  0
    6.7011   -6.3597   23.9342 H   0  0  0  0  0  0  0  0  0  0  0  0
    5.4251   -5.1659   23.6553 H   0  0  0  0  0  0  0  0  0  0  0  0
  1  2  1  0
  2  3  1  0
  3  4  1  0
  3  5  1  0
  3  6  1  0
  2  7  1  0
  7  8  1  0
  8  9  1  0
  9 10  2  0
 10 11  1  0
 11 12  1  0
 12 13  2  0
 13 14  1  0
 14 15  2  0
 15 16  1  0
 16 17  2  0
 17 18  1  0
 15 19  1  0
 14 20  1  0
 13 21  1  0
 11 22  1  0
 22 23  1  0
 23 24  1  0
 24 25  2  0
 25 26  1  0
 26 27  1  0
 26 28  2  0
 28 29  1  0
 29 30  2  0
 30 31  1  0
 28 32  1  0
 25 33  1  0
 23 34  1  0
 23 35  1  0
 22 36  2  0
  8 37  1  0
  7 38  1  0
  7 39  1  0
  1 40  1  0
  1 41  1  0
  1 42  1  0
  8  2  1  0
 36  9  1  0
 17 12  1  0
 30 24  1  0
M  END
>  <cnnaffinity>  (1) 
-6.18289

>  <filename>  (1) 
CC1(C)CC1c1nc(Cc2cncc(Br)c2)n(-c2cccnc2)n1

$$$$
