
     RDKit          3D

 47 50  0  0  0  0  0  0  0  0999 V2000
    7.2522   -4.8067   21.7600 C   0  0  0  0  0  0  0  0  0  0  0  0
    7.2543   -4.4350   23.2283 C   0  0  0  0  0  0  0  0  0  0  0  0
    6.3174   -5.2422   24.1013 C   0  0  0  0  0  0  0  0  0  0  0  0
    6.6053   -6.2931   24.0745 H   0  0  0  0  0  0  0  0  0  0  0  0
    5.2739   -5.1792   23.7783 H   0  0  0  0  0  0  0  0  0  0  0  0
    6.3632   -4.9293   25.1493 H   0  0  0  0  0  0  0  0  0  0  0  0
    8.5619   -4.0063   23.8437 C   0  0  0  0  0  0  0  0  0  0  0  0
    7.4737   -2.9925   23.6018 C   0  0  0  0  0  0  0  0  0  0  0  0
    7.6660   -1.9570   22.5618 C   0  0  0  0  0  0  0  0  0  0  0  0
    6.7302   -1.6069   21.7010 N   0  0  0  0  0  0  0  0  0  0  0  0
    7.3571   -0.6635   20.9447 N   0  0  0  0  0  0  0  0  0  0  0  0
    6.6587    0.0088   19.9036 C   0  0  0  0  0  0  0  0  0  0  0  0
    5.4397    0.6426   20.1676 C   0  0  0  0  0  0  0  0  0  0  0  0
    4.8141    1.3093   19.1100 C   0  0  0  0  0  0  0  0  0  0  0  0
    5.4008    1.2964   17.8380 C   0  0  0  0  0  0  0  0  0  0  0  0
    6.5595    0.6720   17.5764 N   0  0  0  0  0  0  0  0  0  0  0  0
    7.1683    0.0517   18.5937 C   0  0  0  0  0  0  0  0  0  0  0  0
    8.1112   -0.4377   18.3653 H   0  0  0  0  0  0  0  0  0  0  0  0
    4.9225    1.7874   16.9936 H   0  0  0  0  0  0  0  0  0  0  0  0
    3.8822    1.8379   19.2592 H   0  0  0  0  0  0  0  0  0  0  0  0
    5.0151    0.6061   21.1752 H   0  0  0  0  0  0  0  0  0  0  0  0
    8.6113   -0.4618   21.4493 C   0  0  0  0  0  0  0  0  0  0  0  0
    9.5073    0.6341   21.0028 C   0  0  0  0  0  0  0  0  0  0  0  0
    9.0434    2.0110   21.4852 C   0  0  0  0  0  0  0  0  0  0  0  0
    8.9971    1.9762   22.9092 O   0  0  0  0  0  0  0  0  0  0  0  0
    8.5678    3.0530   23.6268 C   0  0  0  0  0  0  0  0  0  0  0  0
    8.1709    4.2828   23.0792 C   0  0  0  0  0  0  0  0  0  0  0  0
    7.7492    5.3293   23.9146 C   0  0  0  0  0  0  0  0  0  0  0  0
    7.7280    5.1400   25.2898 C   0  0  0  0  0  0  0  0  0  0  0  0
    7.3239    6.1422   26.0907 F   0  0  0  0  0  0  0  0  0  0  0  0
    8.1188    3.9292   25.8609 C   0  0  0  0  0  0  0  0  0  0  0  0
    8.5375    2.8879   25.0288 C   0  0  0  0  0  0  0  0  0  0  0  0
    8.8440    1.9379   25.4536 H   0  0  0  0  0  0  0  0  0  0  0  0
    8.0841    3.8256   26.9416 H   0  0  0  0  0  0  0  0  0  0  0  0
    7.4354    6.2868   23.5085 H   0  0  0  0  0  0  0  0  0  0  0  0
    8.1928    4.4308   22.0029 H   0  0  0  0  0  0  0  0  0  0  0  0
    8.0530    2.2403   21.0659 H   0  0  0  0  0  0  0  0  0  0  0  0
    9.7497    2.7789   21.1435 H   0  0  0  0  0  0  0  0  0  0  0  0
    9.5605    0.6483   19.9132 H   0  0  0  0  0  0  0  0  0  0  0  0
   10.5108    0.4200   21.3725 H   0  0  0  0  0  0  0  0  0  0  0  0
    8.8449   -1.2912   22.4394 N   0  0  0  0  0  0  0  0  0  0  0  0
    6.9619   -2.6105   24.4813 H   0  0  0  0  0  0  0  0  0  0  0  0
    9.4383   -3.9382   23.1992 H   0  0  0  0  0  0  0  0  0  0  0  0
    8.7949   -4.3135   24.8614 H   0  0  0  0  0  0  0  0  0  0  0  0
    8.0139   -4.2429   21.2158 H   0  0  0  0  0  0  0  0  0  0  0  0
    6.2941   -4.5632   21.2905 H   0  0  0  0  0  0  0  0  0  0  0  0
    7.4544   -5.8740   21.6221 H   0  0  0  0  0  0  0  0  0  0  0  0
  1  2  1  0
  2  3  1  0
  3  4  1  0
  3  5  1  0
  3  6  1  0
  2  7  1  0
  7  8  1  0
  8  9  1  0
  9 10  2  0
 10 11  1  0
 11 12  1  0
 12 13  2  0
 13 14  1  0
 14 15  2  0
 15 16  1  0
 16 17  2  0
 17 18  1  0
 15 19  1  0
 14 20  1  0
 13 21  1  0
 11 22  1  0
 22 23  1  0
 23 24  1  0
 24 25  1  0
 25 26  1  0
 26 27  2  0
 27 28  1  0
 28 29  2  0
 29 30  1  0
 29 31  1  0
 31 32  2  0
 32 33  1  0
 31 34  1  0
 28 35  1  0
 27 36  1  0
 24 37  1  0
 24 38  1  0
 23 39  1  0
 23 40  1  0
 22 41  2  0
  8 42  1  0
  7 43  1  0
  7 44  1  0
  1 45  1  0
  1 46  1  0
  1 47  1  0
  8  2  1  0
 41  9  1  0
 17 12  1  0
 32 26  1  0
M  END
>  <cnnaffinity>  (1) 
-6.34465

>  <filename>  (1) 
CC1(C)CC1c1nc(CCOc2ccc(F)cc2)n(-c2cccnc2)n1

$$$$
