
     RDKit          3D

 48 51  0  0  0  0  0  0  0  0999 V2000
    8.1628   -4.6695   25.1967 C   0  0  0  0  0  0  0  0  0  0  0  0
    7.7377   -4.2095   23.8148 C   0  0  0  0  0  0  0  0  0  0  0  0
    8.7475   -4.5263   22.7258 C   0  0  0  0  0  0  0  0  0  0  0  0
    8.4924   -4.0712   21.7605 H   0  0  0  0  0  0  0  0  0  0  0  0
    9.7159   -4.0962   23.0121 H   0  0  0  0  0  0  0  0  0  0  0  0
    8.8773   -5.6066   22.5856 H   0  0  0  0  0  0  0  0  0  0  0  0
    6.2634   -4.1624   23.5102 C   0  0  0  0  0  0  0  0  0  0  0  0
    7.0149   -2.8799   23.7593 C   0  0  0  0  0  0  0  0  0  0  0  0
    7.3059   -1.9378   22.6513 C   0  0  0  0  0  0  0  0  0  0  0  0
    6.4689   -1.6337   21.6793 N   0  0  0  0  0  0  0  0  0  0  0  0
    7.1717   -0.7272   20.9472 N   0  0  0  0  0  0  0  0  0  0  0  0
    6.5445   -0.0355   19.8723 C   0  0  0  0  0  0  0  0  0  0  0  0
    5.3481    0.6595   20.0858 C   0  0  0  0  0  0  0  0  0  0  0  0
    4.8056    1.3689   19.0108 C   0  0  0  0  0  0  0  0  0  0  0  0
    5.4545    1.3416   17.7701 C   0  0  0  0  0  0  0  0  0  0  0  0
    6.5831    0.6507   17.5500 N   0  0  0  0  0  0  0  0  0  0  0  0
    7.1089   -0.0148   18.5854 C   0  0  0  0  0  0  0  0  0  0  0  0
    8.0284   -0.5647   18.3964 H   0  0  0  0  0  0  0  0  0  0  0  0
    5.0502    1.8884   16.9207 H   0  0  0  0  0  0  0  0  0  0  0  0
    3.8969    1.9476   19.1235 H   0  0  0  0  0  0  0  0  0  0  0  0
    4.8795    0.6375   21.0712 H   0  0  0  0  0  0  0  0  0  0  0  0
    8.3902   -0.5250   21.5386 C   0  0  0  0  0  0  0  0  0  0  0  0
    9.3646    0.5075   21.0711 C   0  0  0  0  0  0  0  0  0  0  0  0
    8.8659    1.9420   21.3474 C   0  0  0  0  0  0  0  0  0  0  0  0
    8.7556    2.2095   22.8693 C   0  0  0  0  0  0  0  0  0  0  0  0
   10.0902    1.9961   23.5554 C   0  0  0  0  0  0  0  0  0  0  0  0
   11.2073    2.7898   23.2327 C   0  0  0  0  0  0  0  0  0  0  0  0
   12.4804    2.4017   23.6559 C   0  0  0  0  0  0  0  0  0  0  0  0
   12.5815    1.2300   24.4103 C   0  0  0  0  0  0  0  0  0  0  0  0
   11.4071    0.5639   24.7738 C   0  0  0  0  0  0  0  0  0  0  0  0
   10.1875    0.9517   24.3914 N   0  0  0  0  0  0  0  0  0  0  0  0
   11.4425   -0.3297   25.3929 H   0  0  0  0  0  0  0  0  0  0  0  0
   13.5372    0.8159   24.7094 H   0  0  0  0  0  0  0  0  0  0  0  0
   13.3656    2.9818   23.3768 H   0  0  0  0  0  0  0  0  0  0  0  0
   11.0461    3.6777   22.6300 H   0  0  0  0  0  0  0  0  0  0  0  0
    8.3850    3.2249   23.0560 H   0  0  0  0  0  0  0  0  0  0  0  0
    8.0425    1.5102   23.3224 H   0  0  0  0  0  0  0  0  0  0  0  0
    9.5623    2.6593   20.8961 H   0  0  0  0  0  0  0  0  0  0  0  0
    7.8957    2.1043   20.8631 H   0  0  0  0  0  0  0  0  0  0  0  0
   10.3097    0.3328   21.5953 H   0  0  0  0  0  0  0  0  0  0  0  0
    9.5643    0.3576   20.0071 H   0  0  0  0  0  0  0  0  0  0  0  0
    8.4991   -1.2922   22.6015 N   0  0  0  0  0  0  0  0  0  0  0  0
    6.8886   -2.3623   24.7122 H   0  0  0  0  0  0  0  0  0  0  0  0
    5.5793   -4.5059   24.2865 H   0  0  0  0  0  0  0  0  0  0  0  0
    5.9269   -4.3366   22.4872 H   0  0  0  0  0  0  0  0  0  0  0  0
    9.0688   -4.1338   25.5129 H   0  0  0  0  0  0  0  0  0  0  0  0
    8.3643   -5.7469   25.2123 H   0  0  0  0  0  0  0  0  0  0  0  0
    7.3862   -4.4734   25.9447 H   0  0  0  0  0  0  0  0  0  0  0  0
  1  2  1  0
  2  3  1  0
  3  4  1  0
  3  5  1  0
  3  6  1  0
  2  7  1  0
  7  8  1  0
  8  9  1  0
  9 10  2  0
 10 11  1  0
 11 12  1  0
 12 13  2  0
 13 14  1  0
 14 15  2  0
 15 16  1  0
 16 17  2  0
 17 18  1  0
 15 19  1  0
 14 20  1  0
 13 21  1  0
 11 22  1  0
 22 23  1  0
 23 24  1  0
 24 25  1  0
 25 26  1  0
 26 27  2  0
 27 28  1  0
 28 29  2  0
 29 30  1  0
 30 31  2  0
 30 32  1  0
 29 33  1  0
 28 34  1  0
 27 35  1  0
 25 36  1  0
 25 37  1  0
 24 38  1  0
 24 39  1  0
 23 40  1  0
 23 41  1  0
 22 42  2  0
  8 43  1  0
  7 44  1  0
  7 45  1  0
  1 46  1  0
  1 47  1  0
  1 48  1  0
  8  2  1  0
 42  9  1  0
 17 12  1  0
 31 26  1  0
M  END
>  <cnnaffinity>  (1) 
-6.20358

>  <filename>  (1) 
CC1(C)CC1c1nc(CCCc2ccccn2)n(-c2cccnc2)n1

$$$$
