
     RDKit          3D

 43 46  0  0  0  0  0  0  0  0999 V2000
    5.3224    1.1421   24.3179 C   0  0  0  0  0  0  0  0  0  0  0  0
    6.7084    1.4216   24.8008 C   0  0  0  0  0  0  0  0  0  0  0  0
    7.8622    1.6105   24.0968 C   0  0  0  0  0  0  0  0  0  0  0  0
    8.0372    1.4666   22.6211 C   0  0  0  0  0  0  0  0  0  0  0  0
    7.8667    0.0328   22.2404 C   0  0  0  0  0  0  0  0  0  0  0  0
    8.3589   -0.9628   22.9476 N   0  0  0  0  0  0  0  0  0  0  0  0
    8.1080   -2.0477   22.1815 C   0  0  0  0  0  0  0  0  0  0  0  0
    8.5843   -3.4167   22.5653 C   0  0  0  0  0  0  0  0  0  0  0  0
    7.7736   -4.5494   21.9126 C   0  0  0  0  0  0  0  0  0  0  0  0
    8.1355   -5.7956   22.7223 C   0  0  0  0  0  0  0  0  0  0  0  0
    8.4308   -5.2847   24.1534 C   0  0  0  0  0  0  0  0  0  0  0  0
    8.5589   -3.7440   24.0740 C   0  0  0  0  0  0  0  0  0  0  0  0
    9.4634   -3.3694   24.5677 H   0  0  0  0  0  0  0  0  0  0  0  0
    7.7010   -3.2489   24.5476 H   0  0  0  0  0  0  0  0  0  0  0  0
    7.6332   -5.5582   24.8488 H   0  0  0  0  0  0  0  0  0  0  0  0
    9.3469   -5.7435   24.5385 H   0  0  0  0  0  0  0  0  0  0  0  0
    7.3349   -6.5443   22.6917 H   0  0  0  0  0  0  0  0  0  0  0  0
    9.0322   -6.2782   22.3147 H   0  0  0  0  0  0  0  0  0  0  0  0
    8.0010   -4.6472   20.8469 H   0  0  0  0  0  0  0  0  0  0  0  0
    6.7011   -4.3187   22.0079 H   0  0  0  0  0  0  0  0  0  0  0  0
    9.6343   -3.4393   22.2416 H   0  0  0  0  0  0  0  0  0  0  0  0
    7.4931   -1.7906   21.0409 N   0  0  0  0  0  0  0  0  0  0  0  0
    7.2893   -0.4492   21.1006 N   0  0  0  0  0  0  0  0  0  0  0  0
    6.6191    0.1858   20.0156 C   0  0  0  0  0  0  0  0  0  0  0  0
    5.4356    0.9162   20.1744 C   0  0  0  0  0  0  0  0  0  0  0  0
    4.8440    1.4638   19.0290 C   0  0  0  0  0  0  0  0  0  0  0  0
    5.4542    1.2734   17.7873 C   0  0  0  0  0  0  0  0  0  0  0  0
    6.5814    0.5562   17.6297 N   0  0  0  0  0  0  0  0  0  0  0  0
    7.1363    0.0196   18.7193 C   0  0  0  0  0  0  0  0  0  0  0  0
    8.0500   -0.5548   18.5762 H   0  0  0  0  0  0  0  0  0  0  0  0
    5.0372    1.7165   16.8832 H   0  0  0  0  0  0  0  0  0  0  0  0
    3.9269    2.0379   19.0886 H   0  0  0  0  0  0  0  0  0  0  0  0
    4.9770    1.0313   21.1575 H   0  0  0  0  0  0  0  0  0  0  0  0
    9.0495    1.7857   22.3589 H   0  0  0  0  0  0  0  0  0  0  0  0
    7.3195    2.0782   22.0654 H   0  0  0  0  0  0  0  0  0  0  0  0
    8.9236    1.8305   24.9365 N   0  0  0  0  0  0  0  0  0  0  0  0
    8.4252    1.7831   26.1435 C   0  0  0  0  0  0  0  0  0  0  0  0
    7.0873    1.5312   26.1229 N   0  0  0  0  0  0  0  0  0  0  0  0
    6.4922    1.4381   26.9273 H   0  0  0  0  0  0  0  0  0  0  0  0
    8.9611    1.9335   27.0719 H   0  0  0  0  0  0  0  0  0  0  0  0
    4.7066    0.6385   25.0711 H   0  0  0  0  0  0  0  0  0  0  0  0
    4.8052    2.0584   24.0129 H   0  0  0  0  0  0  0  0  0  0  0  0
    5.3952    0.5058   23.4310 H   0  0  0  0  0  0  0  0  0  0  0  0
  1  2  1  0
  2  3  2  0
  3  4  1  0
  4  5  1  0
  5  6  2  0
  6  7  1  0
  7  8  1  0
  8  9  1  0
  9 10  1  0
 10 11  1  0
 11 12  1  0
 12 13  1  0
 12 14  1  0
 11 15  1  0
 11 16  1  0
 10 17  1  0
 10 18  1  0
  9 19  1  0
  9 20  1  0
  8 21  1  0
  7 22  2  0
 22 23  1  0
 23 24  1  0
 24 25  2  0
 25 26  1  0
 26 27  2  0
 27 28  1  0
 28 29  2  0
 29 30  1  0
 27 31  1  0
 26 32  1  0
 25 33  1  0
  4 34  1  0
  4 35  1  0
  3 36  1  0
 36 37  2  0
 37 38  1  0
 38 39  1  0
 37 40  1  0
  1 41  1  0
  1 42  1  0
  1 43  1  0
 38  2  1  0
 23  5  1  0
 29 24  1  0
 12  8  1  0
M  END
>  <cnnaffinity>  (1) 
-6.08154

>  <filename>  (1) 
Cc1[nH]cnc1Cc1nc(C2CCCC2)nn1-c1cccnc1

$$$$
