
     RDKit          3D

 46 49  0  0  0  0  0  0  0  0999 V2000
    7.7287    2.7997   22.0025 C   0  0  0  0  0  0  0  0  0  0  0  0
    9.1068    2.4037   22.4340 C   0  0  0  0  0  0  0  0  0  0  0  0
    9.9452    1.4233   21.9723 C   0  0  0  0  0  0  0  0  0  0  0  0
    9.6478    0.4263   20.9070 C   0  0  0  0  0  0  0  0  0  0  0  0
    8.6325   -0.5502   21.3850 C   0  0  0  0  0  0  0  0  0  0  0  0
    8.8479   -1.3991   22.3664 N   0  0  0  0  0  0  0  0  0  0  0  0
    7.6542   -2.0286   22.5035 C   0  0  0  0  0  0  0  0  0  0  0  0
    7.4118   -3.0507   23.5713 C   0  0  0  0  0  0  0  0  0  0  0  0
    6.8660   -4.3780   22.9756 C   0  0  0  0  0  0  0  0  0  0  0  0
    6.5759   -5.4111   24.0768 C   0  0  0  0  0  0  0  0  0  0  0  0
    5.6594   -4.8456   25.1504 C   0  0  0  0  0  0  0  0  0  0  0  0
    5.4919   -5.7767   26.1405 F   0  0  0  0  0  0  0  0  0  0  0  0
    4.4118   -4.6294   24.6039 F   0  0  0  0  0  0  0  0  0  0  0  0
    6.1691   -3.5472   25.7566 C   0  0  0  0  0  0  0  0  0  0  0  0
    6.4583   -2.4950   24.6727 C   0  0  0  0  0  0  0  0  0  0  0  0
    5.5145   -2.1882   24.2025 H   0  0  0  0  0  0  0  0  0  0  0  0
    6.8890   -1.5919   25.1274 H   0  0  0  0  0  0  0  0  0  0  0  0
    7.0810   -3.7860   26.3214 H   0  0  0  0  0  0  0  0  0  0  0  0
    5.4191   -3.1953   26.4728 H   0  0  0  0  0  0  0  0  0  0  0  0
    6.1006   -6.3106   23.6730 H   0  0  0  0  0  0  0  0  0  0  0  0
    7.5063   -5.7184   24.5747 H   0  0  0  0  0  0  0  0  0  0  0  0
    5.9465   -4.1577   22.4122 H   0  0  0  0  0  0  0  0  0  0  0  0
    7.5834   -4.7908   22.2537 H   0  0  0  0  0  0  0  0  0  0  0  0
    8.4009   -3.2279   24.0188 H   0  0  0  0  0  0  0  0  0  0  0  0
    6.7144   -1.6259   21.6632 N   0  0  0  0  0  0  0  0  0  0  0  0
    7.3539   -0.6843   20.9252 N   0  0  0  0  0  0  0  0  0  0  0  0
    6.6549   -0.0051   19.8910 C   0  0  0  0  0  0  0  0  0  0  0  0
    5.4382    0.6303   20.1556 C   0  0  0  0  0  0  0  0  0  0  0  0
    4.8057    1.3079   19.1068 C   0  0  0  0  0  0  0  0  0  0  0  0
    5.3945    1.2965   17.8360 C   0  0  0  0  0  0  0  0  0  0  0  0
    6.5460    0.6626   17.5688 N   0  0  0  0  0  0  0  0  0  0  0  0
    7.1587    0.0369   18.5804 C   0  0  0  0  0  0  0  0  0  0  0  0
    8.1045   -0.4492   18.3474 H   0  0  0  0  0  0  0  0  0  0  0  0
    4.9282    1.8084   16.9972 H   0  0  0  0  0  0  0  0  0  0  0  0
    3.8736    1.8449   19.2565 H   0  0  0  0  0  0  0  0  0  0  0  0
    5.0110    0.5893   21.1591 H   0  0  0  0  0  0  0  0  0  0  0  0
   10.5599   -0.1299   20.6898 H   0  0  0  0  0  0  0  0  0  0  0  0
    9.2689    0.9196   20.0108 H   0  0  0  0  0  0  0  0  0  0  0  0
   11.0946    1.3622   22.7127 N   0  0  0  0  0  0  0  0  0  0  0  0
   10.9698    2.2935   23.6194 C   0  0  0  0  0  0  0  0  0  0  0  0
    9.7839    2.9553   23.5020 N   0  0  0  0  0  0  0  0  0  0  0  0
    9.4664    3.7283   24.0614 H   0  0  0  0  0  0  0  0  0  0  0  0
   11.6876    2.5208   24.4013 H   0  0  0  0  0  0  0  0  0  0  0  0
    7.4445    3.8124   22.3027 H   0  0  0  0  0  0  0  0  0  0  0  0
    7.6535    2.7260   20.9173 H   0  0  0  0  0  0  0  0  0  0  0  0
    6.9691    2.1130   22.3928 H   0  0  0  0  0  0  0  0  0  0  0  0
  1  2  1  0
  2  3  2  0
  3  4  1  0
  4  5  1  0
  5  6  2  0
  6  7  1  0
  7  8  1  0
  8  9  1  0
  9 10  1  0
 10 11  1  0
 11 12  1  0
 11 13  1  0
 11 14  1  0
 14 15  1  0
 15 16  1  0
 15 17  1  0
 14 18  1  0
 14 19  1  0
 10 20  1  0
 10 21  1  0
  9 22  1  0
  9 23  1  0
  8 24  1  0
  7 25  2  0
 25 26  1  0
 26 27  1  0
 27 28  2  0
 28 29  1  0
 29 30  2  0
 30 31  1  0
 31 32  2  0
 32 33  1  0
 30 34  1  0
 29 35  1  0
 28 36  1  0
  4 37  1  0
  4 38  1  0
  3 39  1  0
 39 40  2  0
 40 41  1  0
 41 42  1  0
 40 43  1  0
  1 44  1  0
  1 45  1  0
  1 46  1  0
 41  2  1  0
 26  5  1  0
 32 27  1  0
 15  8  1  0
M  END
>  <cnnaffinity>  (1) 
-6.12845

>  <filename>  (1) 
Cc1[nH]cnc1Cc1nc(C2CCC(F)(F)CC2)nn1-c1cccnc1

$$$$
