
     RDKit          3D

 43 46  0  0  0  0  0  0  0  0999 V2000
   12.0696    1.1881   24.0075 C   0  0  0  0  0  0  0  0  0  0  0  0
   11.9259    0.3449   22.7836 C   0  0  0  0  0  0  0  0  0  0  0  0
   11.0705    0.3196   21.7104 C   0  0  0  0  0  0  0  0  0  0  0  0
    9.9960    1.2688   21.3086 C   0  0  0  0  0  0  0  0  0  0  0  0
    8.8579    1.1494   22.2453 C   0  0  0  0  0  0  0  0  0  0  0  0
    8.8189    1.8070   23.3775 N   0  0  0  0  0  0  0  0  0  0  0  0
    7.6576    1.3842   23.9570 C   0  0  0  0  0  0  0  0  0  0  0  0
    7.2289    1.9114   25.2757 C   0  0  0  0  0  0  0  0  0  0  0  0
    6.0824    1.4479   25.9565 C   0  0  0  0  0  0  0  0  0  0  0  0
    5.7281    2.0037   27.1911 C   0  0  0  0  0  0  0  0  0  0  0  0
    6.5004    3.0196   27.7648 C   0  0  0  0  0  0  0  0  0  0  0  0
    7.6436    3.4730   27.1022 C   0  0  0  0  0  0  0  0  0  0  0  0
    8.0089    2.9192   25.8777 C   0  0  0  0  0  0  0  0  0  0  0  0
    8.9097    3.2615   25.3744 H   0  0  0  0  0  0  0  0  0  0  0  0
    8.2547    4.2571   27.5362 H   0  0  0  0  0  0  0  0  0  0  0  0
    6.2148    3.4556   28.7194 H   0  0  0  0  0  0  0  0  0  0  0  0
    4.8480    1.6401   27.7152 H   0  0  0  0  0  0  0  0  0  0  0  0
    5.4773    0.6526   25.5255 H   0  0  0  0  0  0  0  0  0  0  0  0
    7.0096    0.4830   23.2370 N   0  0  0  0  0  0  0  0  0  0  0  0
    7.7952    0.3278   22.1422 N   0  0  0  0  0  0  0  0  0  0  0  0
    7.4295   -0.6003   21.0737 C   0  0  0  0  0  0  0  0  0  0  0  0
    6.7052    0.0484   19.9058 C   0  0  0  0  0  0  0  0  0  0  0  0
    5.4867    0.7062   20.1110 C   0  0  0  0  0  0  0  0  0  0  0  0
    4.8692    1.3249   19.0219 C   0  0  0  0  0  0  0  0  0  0  0  0
    5.4791    1.2550   17.7666 C   0  0  0  0  0  0  0  0  0  0  0  0
    6.6304    0.6054   17.5414 N   0  0  0  0  0  0  0  0  0  0  0  0
    7.2149    0.0238   18.5973 C   0  0  0  0  0  0  0  0  0  0  0  0
    8.1444   -0.5046   18.3821 H   0  0  0  0  0  0  0  0  0  0  0  0
    5.0271    1.7430   16.9049 H   0  0  0  0  0  0  0  0  0  0  0  0
    3.9387    1.8686   19.1335 H   0  0  0  0  0  0  0  0  0  0  0  0
    5.0388    0.7295   21.1061 H   0  0  0  0  0  0  0  0  0  0  0  0
    8.3495   -1.0906   20.7319 H   0  0  0  0  0  0  0  0  0  0  0  0
    6.7937   -1.3535   21.5512 H   0  0  0  0  0  0  0  0  0  0  0  0
   10.3181    2.3130   21.3594 H   0  0  0  0  0  0  0  0  0  0  0  0
    9.6933    1.0389   20.2881 H   0  0  0  0  0  0  0  0  0  0  0  0
   11.2375   -0.8321   20.9890 N   0  0  0  0  0  0  0  0  0  0  0  0
   12.2327   -1.4703   21.5474 C   0  0  0  0  0  0  0  0  0  0  0  0
   12.6823   -0.7967   22.6350 N   0  0  0  0  0  0  0  0  0  0  0  0
   13.4466   -1.0498   23.2339 H   0  0  0  0  0  0  0  0  0  0  0  0
   12.6716   -2.3981   21.2020 H   0  0  0  0  0  0  0  0  0  0  0  0
   12.0020    2.2524   23.7802 H   0  0  0  0  0  0  0  0  0  0  0  0
   13.0193    1.0054   24.5249 H   0  0  0  0  0  0  0  0  0  0  0  0
   11.2556    0.9743   24.7068 H   0  0  0  0  0  0  0  0  0  0  0  0
  1  2  1  0
  2  3  2  0
  3  4  1  0
  4  5  1  0
  5  6  2  0
  6  7  1  0
  7  8  1  0
  8  9  2  0
  9 10  1  0
 10 11  2  0
 11 12  1  0
 12 13  2  0
 13 14  1  0
 12 15  1  0
 11 16  1  0
 10 17  1  0
  9 18  1  0
  7 19  2  0
 19 20  1  0
 20 21  1  0
 21 22  1  0
 22 23  2  0
 23 24  1  0
 24 25  2  0
 25 26  1  0
 26 27  2  0
 27 28  1  0
 25 29  1  0
 24 30  1  0
 23 31  1  0
 21 32  1  0
 21 33  1  0
  4 34  1  0
  4 35  1  0
  3 36  1  0
 36 37  2  0
 37 38  1  0
 38 39  1  0
 37 40  1  0
  1 41  1  0
  1 42  1  0
  1 43  1  0
 38  2  1  0
 20  5  1  0
 27 22  1  0
 13  8  1  0
M  END
>  <cnnaffinity>  (1) 
-6.34518

>  <filename>  (1) 
Cc1[nH]cnc1Cc1nc(-c2ccccc2)nn1Cc1cccnc1

$$$$
