
     RDKit          3D

 43 46  0  0  0  0  0  0  0  0999 V2000
   12.0564    1.2590   24.0251 C   0  0  0  0  0  0  0  0  0  0  0  0
   11.9405    0.3940   22.8107 C   0  0  0  0  0  0  0  0  0  0  0  0
   11.0702    0.3459   21.7480 C   0  0  0  0  0  0  0  0  0  0  0  0
    9.9811    1.2754   21.3394 C   0  0  0  0  0  0  0  0  0  0  0  0
    8.8381    1.1359   22.2709 C   0  0  0  0  0  0  0  0  0  0  0  0
    8.7848    1.7844   23.4064 N   0  0  0  0  0  0  0  0  0  0  0  0
    7.6259    1.3435   23.9751 C   0  0  0  0  0  0  0  0  0  0  0  0
    7.1645    1.8882   25.2819 C   0  0  0  0  0  0  0  0  0  0  0  0
    7.8332    3.0168   25.8004 C   0  0  0  0  0  0  0  0  0  0  0  0
    7.3990    3.5776   26.9933 C   0  0  0  0  0  0  0  0  0  0  0  0
    8.0273    4.6674   27.4515 F   0  0  0  0  0  0  0  0  0  0  0  0
    6.3255    3.0702   27.7141 C   0  0  0  0  0  0  0  0  0  0  0  0
    5.7003    1.9404   27.1940 C   0  0  0  0  0  0  0  0  0  0  0  0
    4.6692    1.4281   27.8785 F   0  0  0  0  0  0  0  0  0  0  0  0
    6.0917    1.3241   26.0070 C   0  0  0  0  0  0  0  0  0  0  0  0
    5.5602    0.4350   25.6742 H   0  0  0  0  0  0  0  0  0  0  0  0
    5.9873    3.5378   28.6313 H   0  0  0  0  0  0  0  0  0  0  0  0
    8.6743    3.4590   25.2746 H   0  0  0  0  0  0  0  0  0  0  0  0
    6.9905    0.4388   23.2490 N   0  0  0  0  0  0  0  0  0  0  0  0
    7.7862    0.2995   22.1582 N   0  0  0  0  0  0  0  0  0  0  0  0
    7.4395   -0.6143   21.0709 C   0  0  0  0  0  0  0  0  0  0  0  0
    6.7199    0.0423   19.8999 C   0  0  0  0  0  0  0  0  0  0  0  0
    5.5018    0.7040   20.1079 C   0  0  0  0  0  0  0  0  0  0  0  0
    4.8855    1.3265   19.0198 C   0  0  0  0  0  0  0  0  0  0  0  0
    5.4952    1.2557   17.7641 C   0  0  0  0  0  0  0  0  0  0  0  0
    6.6445    0.6027   17.5345 N   0  0  0  0  0  0  0  0  0  0  0  0
    7.2287    0.0169   18.5890 C   0  0  0  0  0  0  0  0  0  0  0  0
    8.1618   -0.5078   18.3737 H   0  0  0  0  0  0  0  0  0  0  0  0
    5.0408    1.7404   16.9018 H   0  0  0  0  0  0  0  0  0  0  0  0
    3.9543    1.8719   19.1313 H   0  0  0  0  0  0  0  0  0  0  0  0
    5.0567    0.7359   21.1056 H   0  0  0  0  0  0  0  0  0  0  0  0
    6.8116   -1.3839   21.5327 H   0  0  0  0  0  0  0  0  0  0  0  0
    8.3741   -1.0836   20.7392 H   0  0  0  0  0  0  0  0  0  0  0  0
   10.3107    2.3183   21.3921 H   0  0  0  0  0  0  0  0  0  0  0  0
    9.6813    1.0224   20.3206 H   0  0  0  0  0  0  0  0  0  0  0  0
   11.2415   -0.8016   21.0272 N   0  0  0  0  0  0  0  0  0  0  0  0
   12.2433   -1.4262   21.5865 C   0  0  0  0  0  0  0  0  0  0  0  0
   12.7094   -0.7421   22.6626 N   0  0  0  0  0  0  0  0  0  0  0  0
   13.4292   -1.0451   23.2972 H   0  0  0  0  0  0  0  0  0  0  0  0
   12.6857   -2.3505   21.2477 H   0  0  0  0  0  0  0  0  0  0  0  0
   11.2277    1.0444   24.7105 H   0  0  0  0  0  0  0  0  0  0  0  0
   11.9673    2.3165   23.7654 H   0  0  0  0  0  0  0  0  0  0  0  0
   13.0042    1.1022   24.5570 H   0  0  0  0  0  0  0  0  0  0  0  0
  1  2  1  0
  2  3  2  0
  3  4  1  0
  4  5  1  0
  5  6  2  0
  6  7  1  0
  7  8  1  0
  8  9  2  0
  9 10  1  0
 10 11  1  0
 10 12  2  0
 12 13  1  0
 13 14  1  0
 13 15  2  0
 15 16  1  0
 12 17  1  0
  9 18  1  0
  7 19  2  0
 19 20  1  0
 20 21  1  0
 21 22  1  0
 22 23  2  0
 23 24  1  0
 24 25  2  0
 25 26  1  0
 26 27  2  0
 27 28  1  0
 25 29  1  0
 24 30  1  0
 23 31  1  0
 21 32  1  0
 21 33  1  0
  4 34  1  0
  4 35  1  0
  3 36  1  0
 36 37  2  0
 37 38  1  0
 38 39  1  0
 37 40  1  0
  1 41  1  0
  1 42  1  0
  1 43  1  0
 38  2  1  0
 20  5  1  0
 27 22  1  0
 15  8  1  0
M  END
>  <cnnaffinity>  (1) 
-6.44595

>  <filename>  (1) 
Cc1[nH]cnc1Cc1nc(-c2cc(F)cc(F)c2)nn1Cc1cccnc1

$$$$
