
     RDKit          3D

 49 52  0  0  0  0  0  0  0  0999 V2000
    7.7331    2.7995   22.0207 C   0  0  0  0  0  0  0  0  0  0  0  0
    9.1112    2.3964   22.4449 C   0  0  0  0  0  0  0  0  0  0  0  0
    9.9431    1.4094   21.9812 C   0  0  0  0  0  0  0  0  0  0  0  0
    9.6315    0.4247   20.9077 C   0  0  0  0  0  0  0  0  0  0  0  0
    8.6195   -0.5545   21.3844 C   0  0  0  0  0  0  0  0  0  0  0  0
    8.8447   -1.4024   22.3583 N   0  0  0  0  0  0  0  0  0  0  0  0
    7.6465   -2.0300   22.5067 C   0  0  0  0  0  0  0  0  0  0  0  0
    7.4197   -3.0505   23.5793 C   0  0  0  0  0  0  0  0  0  0  0  0
    7.5045   -2.4037   24.9903 C   0  0  0  0  0  0  0  0  0  0  0  0
    7.2807   -3.4496   26.0941 C   0  0  0  0  0  0  0  0  0  0  0  0
    8.2536   -4.6400   25.9813 C   0  0  0  0  0  0  0  0  0  0  0  0
    7.9973   -5.6818   27.0785 C   0  0  0  0  0  0  0  0  0  0  0  0
    8.0850   -5.2419   28.0796 H   0  0  0  0  0  0  0  0  0  0  0  0
    8.7074   -6.5145   27.0125 H   0  0  0  0  0  0  0  0  0  0  0  0
    6.9860   -6.1039   26.9890 H   0  0  0  0  0  0  0  0  0  0  0  0
    8.1741   -5.2685   24.5752 C   0  0  0  0  0  0  0  0  0  0  0  0
    8.4094   -4.2383   23.4586 C   0  0  0  0  0  0  0  0  0  0  0  0
    9.4396   -3.8479   23.5074 H   0  0  0  0  0  0  0  0  0  0  0  0
    8.3083   -4.7168   22.4755 H   0  0  0  0  0  0  0  0  0  0  0  0
    7.1783   -5.7294   24.4479 H   0  0  0  0  0  0  0  0  0  0  0  0
    8.9041   -6.0861   24.4949 H   0  0  0  0  0  0  0  0  0  0  0  0
    9.2775   -4.2407   26.1051 H   0  0  0  0  0  0  0  0  0  0  0  0
    6.2448   -3.8293   26.0372 H   0  0  0  0  0  0  0  0  0  0  0  0
    7.3816   -2.9824   27.0838 H   0  0  0  0  0  0  0  0  0  0  0  0
    8.4954   -1.9313   25.1020 H   0  0  0  0  0  0  0  0  0  0  0  0
    6.7657   -1.5955   25.0819 H   0  0  0  0  0  0  0  0  0  0  0  0
    6.3946   -3.4150   23.4199 H   0  0  0  0  0  0  0  0  0  0  0  0
    6.7058   -1.6292   21.6803 N   0  0  0  0  0  0  0  0  0  0  0  0
    7.3389   -0.6899   20.9256 N   0  0  0  0  0  0  0  0  0  0  0  0
    6.6475   -0.0056   19.8916 C   0  0  0  0  0  0  0  0  0  0  0  0
    5.4341    0.6386   20.1551 C   0  0  0  0  0  0  0  0  0  0  0  0
    4.8074    1.3141   19.1031 C   0  0  0  0  0  0  0  0  0  0  0  0
    5.3940    1.2985   17.8325 C   0  0  0  0  0  0  0  0  0  0  0  0
    6.5464    0.6648   17.5675 N   0  0  0  0  0  0  0  0  0  0  0  0
    7.1571    0.0391   18.5816 C   0  0  0  0  0  0  0  0  0  0  0  0
    8.1042   -0.4444   18.3517 H   0  0  0  0  0  0  0  0  0  0  0  0
    4.9279    1.8050   16.9910 H   0  0  0  0  0  0  0  0  0  0  0  0
    3.8756    1.8449   19.2524 H   0  0  0  0  0  0  0  0  0  0  0  0
    5.0116    0.5918   21.1598 H   0  0  0  0  0  0  0  0  0  0  0  0
   10.5437   -0.1251   20.6770 H   0  0  0  0  0  0  0  0  0  0  0  0
    9.2485    0.9307   20.0217 H   0  0  0  0  0  0  0  0  0  0  0  0
   11.0952    1.3399   22.7177 N   0  0  0  0  0  0  0  0  0  0  0  0
   10.9784    2.2732   23.6283 C   0  0  0  0  0  0  0  0  0  0  0  0
    9.7960    2.9409   23.5104 N   0  0  0  0  0  0  0  0  0  0  0  0
    9.4718    3.7112   24.0779 H   0  0  0  0  0  0  0  0  0  0  0  0
   11.6946    2.5020   24.4068 H   0  0  0  0  0  0  0  0  0  0  0  0
    6.9729    2.1027   22.3967 H   0  0  0  0  0  0  0  0  0  0  0  0
    7.4458    3.8091   22.3369 H   0  0  0  0  0  0  0  0  0  0  0  0
    7.6563    2.7390   20.9340 H   0  0  0  0  0  0  0  0  0  0  0  0
  1  2  1  0
  2  3  2  0
  3  4  1  0
  4  5  1  0
  5  6  2  0
  6  7  1  0
  7  8  1  0
  8  9  1  0
  9 10  1  0
 10 11  1  0
 11 12  1  0
 12 13  1  0
 12 14  1  0
 12 15  1  0
 11 16  1  0
 16 17  1  0
 17 18  1  0
 17 19  1  0
 16 20  1  0
 16 21  1  0
 11 22  1  0
 10 23  1  0
 10 24  1  0
  9 25  1  0
  9 26  1  0
  8 27  1  0
  7 28  2  0
 28 29  1  0
 29 30  1  0
 30 31  2  0
 31 32  1  0
 32 33  2  0
 33 34  1  0
 34 35  2  0
 35 36  1  0
 33 37  1  0
 32 38  1  0
 31 39  1  0
  4 40  1  0
  4 41  1  0
  3 42  1  0
 42 43  2  0
 43 44  1  0
 44 45  1  0
 43 46  1  0
  1 47  1  0
  1 48  1  0
  1 49  1  0
 44  2  1  0
 29  5  1  0
 35 30  1  0
 17  8  1  0
M  END
>  <cnnaffinity>  (1) 
-6.34665

>  <filename>  (1) 
Cc1[nH]cnc1Cc1nc(C2CCC(C)CC2)nn1-c1cccnc1

$$$$
