
     RDKit          3D

 46 49  0  0  0  0  0  0  0  0999 V2000
    9.4352    1.1638   25.4314 C   0  0  0  0  0  0  0  0  0  0  0  0
    9.6951    1.7674   24.0880 C   0  0  0  0  0  0  0  0  0  0  0  0
    8.8229    1.8420   23.0451 C   0  0  0  0  0  0  0  0  0  0  0  0
    7.4045    1.2545   23.0393 C   0  0  0  0  0  0  0  0  0  0  0  0
    7.3659   -0.1423   22.4731 C   0  0  0  0  0  0  0  0  0  0  0  0
    7.7934   -1.1745   23.1737 N   0  0  0  0  0  0  0  0  0  0  0  0
    7.9114   -2.1624   22.2516 C   0  0  0  0  0  0  0  0  0  0  0  0
    8.4543   -3.5221   22.5876 C   0  0  0  0  0  0  0  0  0  0  0  0
    8.4733   -3.8752   24.0917 C   0  0  0  0  0  0  0  0  0  0  0  0
    8.3279   -5.4143   24.1750 C   0  0  0  0  0  0  0  0  0  0  0  0
    8.0735   -5.9175   22.7302 C   0  0  0  0  0  0  0  0  0  0  0  0
    7.6794   -4.6745   21.9228 C   0  0  0  0  0  0  0  0  0  0  0  0
    7.9228   -4.7674   20.8587 H   0  0  0  0  0  0  0  0  0  0  0  0
    6.5997   -4.4845   22.0133 H   0  0  0  0  0  0  0  0  0  0  0  0
    7.3037   -6.6992   22.6819 H   0  0  0  0  0  0  0  0  0  0  0  0
    8.9946   -6.3633   22.3312 H   0  0  0  0  0  0  0  0  0  0  0  0
    9.2303   -5.8822   24.5901 H   0  0  0  0  0  0  0  0  0  0  0  0
    7.4963   -5.6730   24.8436 H   0  0  0  0  0  0  0  0  0  0  0  0
    9.3965   -3.5182   24.5615 H   0  0  0  0  0  0  0  0  0  0  0  0
    7.6394   -3.3779   24.5991 H   0  0  0  0  0  0  0  0  0  0  0  0
    9.4874   -3.5254   22.2158 H   0  0  0  0  0  0  0  0  0  0  0  0
    7.5766   -1.8073   21.0226 N   0  0  0  0  0  0  0  0  0  0  0  0
    7.1850   -0.5100   21.1708 N   0  0  0  0  0  0  0  0  0  0  0  0
    6.6006    0.1637   20.0574 C   0  0  0  0  0  0  0  0  0  0  0  0
    5.4133    0.8991   20.1588 C   0  0  0  0  0  0  0  0  0  0  0  0
    4.8759    1.4520   18.9883 C   0  0  0  0  0  0  0  0  0  0  0  0
    5.5422    1.2607   17.7760 C   0  0  0  0  0  0  0  0  0  0  0  0
    6.6742    0.5442   17.6685 N   0  0  0  0  0  0  0  0  0  0  0  0
    7.1789    0.0065   18.7851 C   0  0  0  0  0  0  0  0  0  0  0  0
    8.0895   -0.5787   18.6806 H   0  0  0  0  0  0  0  0  0  0  0  0
    5.1615    1.7010   16.8546 H   0  0  0  0  0  0  0  0  0  0  0  0
    3.9570    2.0266   19.0089 H   0  0  0  0  0  0  0  0  0  0  0  0
    4.8995    1.0035   21.1150 H   0  0  0  0  0  0  0  0  0  0  0  0
    6.9949    1.1669   24.0545 H   0  0  0  0  0  0  0  0  0  0  0  0
    6.7279    1.8970   22.4665 H   0  0  0  0  0  0  0  0  0  0  0  0
    9.3195    2.3406   21.7495 C   0  0  0  0  0  0  0  0  0  0  0  0
    8.6996    2.3277   20.7042 O   0  0  0  0  0  0  0  0  0  0  0  0
   10.6094    2.8239   21.7286 N   0  0  0  0  0  0  0  0  0  0  0  0
   11.4456    2.8851   22.7871 C   0  0  0  0  0  0  0  0  0  0  0  0
   12.5302    3.4133   22.7652 O   0  0  0  0  0  0  0  0  0  0  0  0
   10.9663    2.2736   23.9151 N   0  0  0  0  0  0  0  0  0  0  0  0
   11.6365    2.3379   24.6577 H   0  0  0  0  0  0  0  0  0  0  0  0
   10.8686    3.3501   20.9163 H   0  0  0  0  0  0  0  0  0  0  0  0
    9.1006    0.1271   25.3169 H   0  0  0  0  0  0  0  0  0  0  0  0
    8.6478    1.7090   25.9593 H   0  0  0  0  0  0  0  0  0  0  0  0
   10.3282    1.1772   26.0664 H   0  0  0  0  0  0  0  0  0  0  0  0
  1  2  1  0
  2  3  2  0
  3  4  1  0
  4  5  1  0
  5  6  2  0
  6  7  1  0
  7  8  1  0
  8  9  1  0
  9 10  1  0
 10 11  1  0
 11 12  1  0
 12 13  1  0
 12 14  1  0
 11 15  1  0
 11 16  1  0
 10 17  1  0
 10 18  1  0
  9 19  1  0
  9 20  1  0
  8 21  1  0
  7 22  2  0
 22 23  1  0
 23 24  1  0
 24 25  2  0
 25 26  1  0
 26 27  2  0
 27 28  1  0
 28 29  2  0
 29 30  1  0
 27 31  1  0
 26 32  1  0
 25 33  1  0
  4 34  1  0
  4 35  1  0
  3 36  1  0
 36 37  2  0
 36 38  1  0
 38 39  1  0
 39 40  2  0
 39 41  1  0
 41 42  1  0
 38 43  1  0
  1 44  1  0
  1 45  1  0
  1 46  1  0
 41  2  1  0
 23  5  1  0
 29 24  1  0
 12  8  1  0
M  END
>  <cnnaffinity>  (1) 
-6.22325

>  <filename>  (1) 
Cc1[nH]c(=O)[nH]c(=O)c1Cc1nc(C2CCCC2)nn1-c1cccnc1

$$$$
