
     RDKit          3D

 47 50  0  0  0  0  0  0  0  0999 V2000
    8.2629    2.5535   21.7709 C   0  0  0  0  0  0  0  0  0  0  0  0
    9.5702    2.0533   22.2740 C   0  0  0  0  0  0  0  0  0  0  0  0
   10.2482    0.9922   21.7632 C   0  0  0  0  0  0  0  0  0  0  0  0
    9.6347    0.0671   20.7177 C   0  0  0  0  0  0  0  0  0  0  0  0
    8.4979   -0.7867   21.2268 C   0  0  0  0  0  0  0  0  0  0  0  0
    8.6635   -1.5955   22.2553 N   0  0  0  0  0  0  0  0  0  0  0  0
    7.4323   -2.1177   22.4645 C   0  0  0  0  0  0  0  0  0  0  0  0
    7.2151   -3.1119   23.5714 C   0  0  0  0  0  0  0  0  0  0  0  0
    6.8795   -4.5125   22.9866 C   0  0  0  0  0  0  0  0  0  0  0  0
    6.3659   -5.4802   24.0194 C   0  0  0  0  0  0  0  0  0  0  0  0
    6.0935   -5.1485   25.2820 C   0  0  0  0  0  0  0  0  0  0  0  0
    6.1345   -3.7259   25.7905 C   0  0  0  0  0  0  0  0  0  0  0  0
    6.1846   -2.6813   24.6524 C   0  0  0  0  0  0  0  0  0  0  0  0
    5.1923   -2.5815   24.1913 H   0  0  0  0  0  0  0  0  0  0  0  0
    6.4501   -1.7044   25.0821 H   0  0  0  0  0  0  0  0  0  0  0  0
    7.0139   -3.6182   26.4445 H   0  0  0  0  0  0  0  0  0  0  0  0
    5.2675   -3.5445   26.4401 H   0  0  0  0  0  0  0  0  0  0  0  0
    5.8563   -5.9266   26.0091 H   0  0  0  0  0  0  0  0  0  0  0  0
    6.2039   -6.4977   23.6693 H   0  0  0  0  0  0  0  0  0  0  0  0
    7.7771   -4.9399   22.5140 H   0  0  0  0  0  0  0  0  0  0  0  0
    6.1333   -4.4094   22.1858 H   0  0  0  0  0  0  0  0  0  0  0  0
    8.1937   -3.1672   24.0672 H   0  0  0  0  0  0  0  0  0  0  0  0
    6.5093   -1.7040   21.6121 N   0  0  0  0  0  0  0  0  0  0  0  0
    7.1985   -0.8591   20.7925 N   0  0  0  0  0  0  0  0  0  0  0  0
    6.5028   -0.1585   19.7572 C   0  0  0  0  0  0  0  0  0  0  0  0
    5.3288    0.5507   20.0405 C   0  0  0  0  0  0  0  0  0  0  0  0
    4.7614    1.3305   19.0258 C   0  0  0  0  0  0  0  0  0  0  0  0
    5.3569    1.3425   17.7604 C   0  0  0  0  0  0  0  0  0  0  0  0
    6.4291    0.5988   17.4554 N   0  0  0  0  0  0  0  0  0  0  0  0
    6.9778   -0.1388   18.4311 C   0  0  0  0  0  0  0  0  0  0  0  0
    7.8262   -0.7572   18.1430 H   0  0  0  0  0  0  0  0  0  0  0  0
    4.9568    1.9572   16.9565 H   0  0  0  0  0  0  0  0  0  0  0  0
    3.8840    1.9409   19.2024 H   0  0  0  0  0  0  0  0  0  0  0  0
    4.8779    0.4789   21.0306 H   0  0  0  0  0  0  0  0  0  0  0  0
    9.3032    0.6115   19.8241 H   0  0  0  0  0  0  0  0  0  0  0  0
   10.4189   -0.6333   20.4116 H   0  0  0  0  0  0  0  0  0  0  0  0
   11.5998    0.6946   22.2903 C   0  0  0  0  0  0  0  0  0  0  0  0
   12.3679   -0.1454   21.8729 O   0  0  0  0  0  0  0  0  0  0  0  0
   12.0362    1.4675   23.3453 N   0  0  0  0  0  0  0  0  0  0  0  0
   11.4491    2.6292   23.7085 C   0  0  0  0  0  0  0  0  0  0  0  0
   11.9880    3.4804   24.3678 O   0  0  0  0  0  0  0  0  0  0  0  0
   10.1571    2.7826   23.2827 N   0  0  0  0  0  0  0  0  0  0  0  0
    9.8572    3.7091   23.5308 H   0  0  0  0  0  0  0  0  0  0  0  0
   13.0169    1.3907   23.5321 H   0  0  0  0  0  0  0  0  0  0  0  0
    8.4003    2.8516   20.7325 H   0  0  0  0  0  0  0  0  0  0  0  0
    7.8724    3.4003   22.3470 H   0  0  0  0  0  0  0  0  0  0  0  0
    7.5121    1.7589   21.7516 H   0  0  0  0  0  0  0  0  0  0  0  0
  1  2  1  0
  2  3  2  0
  3  4  1  0
  4  5  1  0
  5  6  2  0
  6  7  1  0
  7  8  1  0
  8  9  1  0
  9 10  1  0
 10 11  2  0
 11 12  1  0
 12 13  1  0
 13 14  1  0
 13 15  1  0
 12 16  1  0
 12 17  1  0
 11 18  1  0
 10 19  1  0
  9 20  1  0
  9 21  1  0
  8 22  1  0
  7 23  2  0
 23 24  1  0
 24 25  1  0
 25 26  2  0
 26 27  1  0
 27 28  2  0
 28 29  1  0
 29 30  2  0
 30 31  1  0
 28 32  1  0
 27 33  1  0
 26 34  1  0
  4 35  1  0
  4 36  1  0
  3 37  1  0
 37 38  2  0
 37 39  1  0
 39 40  1  0
 40 41  2  0
 40 42  1  0
 42 43  1  0
 39 44  1  0
  1 45  1  0
  1 46  1  0
  1 47  1  0
 42  2  1  0
 24  5  1  0
 30 25  1  0
 13  8  1  0
M  END
>  <cnnaffinity>  (1) 
-6.51132

>  <filename>  (1) 
Cc1[nH]c(=O)[nH]c(=O)c1Cc1nc(C2CC=CCC2)nn1-c1cccnc1

$$$$
