
     RDKit          3D

 41 44  0  0  0  0  0  0  0  0999 V2000
   12.4030   -1.3106   21.4094 C   0  0  0  0  0  0  0  0  0  0  0  0
   11.8708   -0.0273   21.9489 C   0  0  0  0  0  0  0  0  0  0  0  0
   10.7304    0.6506   21.6302 C   0  0  0  0  0  0  0  0  0  0  0  0
    9.6672    0.2225   20.6838 C   0  0  0  0  0  0  0  0  0  0  0  0
    8.6359   -0.6139   21.3479 C   0  0  0  0  0  0  0  0  0  0  0  0
    8.8555   -1.4708   22.3186 N   0  0  0  0  0  0  0  0  0  0  0  0
    7.6209   -1.9878   22.5507 C   0  0  0  0  0  0  0  0  0  0  0  0
    7.3912   -2.9738   23.6392 C   0  0  0  0  0  0  0  0  0  0  0  0
    8.2366   -4.2606   23.5317 C   0  0  0  0  0  0  0  0  0  0  0  0
    8.3797   -4.7111   24.9882 C   0  0  0  0  0  0  0  0  0  0  0  0
    8.1144   -3.5752   25.7964 O   0  0  0  0  0  0  0  0  0  0  0  0
    7.7701   -2.4379   25.0306 C   0  0  0  0  0  0  0  0  0  0  0  0
    6.9334   -1.9364   25.5363 H   0  0  0  0  0  0  0  0  0  0  0  0
    8.6166   -1.7318   24.9878 H   0  0  0  0  0  0  0  0  0  0  0  0
    9.3875   -5.0920   25.2109 H   0  0  0  0  0  0  0  0  0  0  0  0
    7.6624   -5.5027   25.2518 H   0  0  0  0  0  0  0  0  0  0  0  0
    9.2184   -4.0312   23.1026 H   0  0  0  0  0  0  0  0  0  0  0  0
    7.7623   -5.0238   22.9096 H   0  0  0  0  0  0  0  0  0  0  0  0
    6.3280   -3.2171   23.6264 H   0  0  0  0  0  0  0  0  0  0  0  0
    6.6727   -1.5449   21.7584 N   0  0  0  0  0  0  0  0  0  0  0  0
    7.3346   -0.6834   20.9390 N   0  0  0  0  0  0  0  0  0  0  0  0
    6.6507    0.0029   19.9009 C   0  0  0  0  0  0  0  0  0  0  0  0
    5.4359    0.6454   20.1668 C   0  0  0  0  0  0  0  0  0  0  0  0
    4.8124    1.3111   19.1090 C   0  0  0  0  0  0  0  0  0  0  0  0
    5.4018    1.2950   17.8373 C   0  0  0  0  0  0  0  0  0  0  0  0
    6.5605    0.6716   17.5772 N   0  0  0  0  0  0  0  0  0  0  0  0
    7.1662    0.0510   18.5935 C   0  0  0  0  0  0  0  0  0  0  0  0
    8.1131   -0.4294   18.3651 H   0  0  0  0  0  0  0  0  0  0  0  0
    4.9207    1.7841   16.9933 H   0  0  0  0  0  0  0  0  0  0  0  0
    3.8803    1.8410   19.2594 H   0  0  0  0  0  0  0  0  0  0  0  0
    5.0162    0.6100   21.1761 H   0  0  0  0  0  0  0  0  0  0  0  0
   10.0604   -0.4128   19.8819 H   0  0  0  0  0  0  0  0  0  0  0  0
    9.2146    1.1047   20.2329 H   0  0  0  0  0  0  0  0  0  0  0  0
   10.5914    1.7737   22.4059 N   0  0  0  0  0  0  0  0  0  0  0  0
   11.6399    1.7932   23.1890 C   0  0  0  0  0  0  0  0  0  0  0  0
   12.4475    0.7194   22.9507 N   0  0  0  0  0  0  0  0  0  0  0  0
   13.3065    0.5023   23.4183 H   0  0  0  0  0  0  0  0  0  0  0  0
   11.8744    2.5429   23.9381 H   0  0  0  0  0  0  0  0  0  0  0  0
   13.2948   -1.6522   21.9451 H   0  0  0  0  0  0  0  0  0  0  0  0
   12.6495   -1.2281   20.3460 H   0  0  0  0  0  0  0  0  0  0  0  0
   11.6186   -2.0737   21.4687 H   0  0  0  0  0  0  0  0  0  0  0  0
  1  2  1  0
  2  3  2  0
  3  4  1  0
  4  5  1  0
  5  6  2  0
  6  7  1  0
  7  8  1  0
  8  9  1  0
  9 10  1  0
 10 11  1  0
 11 12  1  0
 12 13  1  0
 12 14  1  0
 10 15  1  0
 10 16  1  0
  9 17  1  0
  9 18  1  0
  8 19  1  0
  7 20  2  0
 20 21  1  0
 21 22  1  0
 22 23  2  0
 23 24  1  0
 24 25  2  0
 25 26  1  0
 26 27  2  0
 27 28  1  0
 25 29  1  0
 24 30  1  0
 23 31  1  0
  4 32  1  0
  4 33  1  0
  3 34  1  0
 34 35  2  0
 35 36  1  0
 36 37  1  0
 35 38  1  0
  1 39  1  0
  1 40  1  0
  1 41  1  0
 36  2  1  0
 21  5  1  0
 27 22  1  0
 12  8  1  0
M  END
>  <cnnaffinity>  (1) 
-6.0125

>  <filename>  (1) 
Cc1[nH]cnc1Cc1nc(C2CCOC2)nn1-c1cccnc1

$$$$
