
     RDKit          3D

 43 46  0  0  0  0  0  0  0  0999 V2000
    9.6045    1.3509   25.4548 C   0  0  0  0  0  0  0  0  0  0  0  0
    8.1588    1.0435   25.2454 C   0  0  0  0  0  0  0  0  0  0  0  0
    7.2979    1.3583   24.2269 C   0  0  0  0  0  0  0  0  0  0  0  0
    7.6076    2.0523   22.9364 C   0  0  0  0  0  0  0  0  0  0  0  0
    8.5717    1.1681   22.2104 C   0  0  0  0  0  0  0  0  0  0  0  0
    9.8840    1.2185   22.3751 N   0  0  0  0  0  0  0  0  0  0  0  0
   10.3105    0.0181   21.9072 C   0  0  0  0  0  0  0  0  0  0  0  0
   11.6930   -0.4817   21.8469 C   0  0  0  0  0  0  0  0  0  0  0  0
   11.9045   -1.6711   21.1200 C   0  0  0  0  0  0  0  0  0  0  0  0
   13.1762   -2.0073   20.6869 C   0  0  0  0  0  0  0  0  0  0  0  0
   14.2671   -1.2501   21.0939 C   0  0  0  0  0  0  0  0  0  0  0  0
   14.1036   -0.1908   21.9899 C   0  0  0  0  0  0  0  0  0  0  0  0
   12.8148    0.1879   22.3712 C   0  0  0  0  0  0  0  0  0  0  0  0
   12.6803    1.5150   23.4941 Cl  0  0  0  0  0  0  0  0  0  0  0  0
   14.9473    0.3583   22.3896 H   0  0  0  0  0  0  0  0  0  0  0  0
   15.2109   -1.5130   20.6487 H   0  0  0  0  0  0  0  0  0  0  0  0
   13.3584   -2.8337   20.0081 H   0  0  0  0  0  0  0  0  0  0  0  0
   11.0270   -2.2687   20.8733 H   0  0  0  0  0  0  0  0  0  0  0  0
    9.3270   -0.7509   21.4615 N   0  0  0  0  0  0  0  0  0  0  0  0
    8.2243   -0.0078   21.6517 N   0  0  0  0  0  0  0  0  0  0  0  0
    6.9228   -0.5477   21.2761 C   0  0  0  0  0  0  0  0  0  0  0  0
    6.3548    0.1259   20.0509 C   0  0  0  0  0  0  0  0  0  0  0  0
    5.1362    0.8054   20.0759 C   0  0  0  0  0  0  0  0  0  0  0  0
    4.6924    1.4298   18.9087 C   0  0  0  0  0  0  0  0  0  0  0  0
    5.4884    1.3532   17.7627 C   0  0  0  0  0  0  0  0  0  0  0  0
    6.6669    0.7120   17.7186 N   0  0  0  0  0  0  0  0  0  0  0  0
    7.0852    0.1295   18.8478 C   0  0  0  0  0  0  0  0  0  0  0  0
    8.0588   -0.3590   18.8045 H   0  0  0  0  0  0  0  0  0  0  0  0
    5.1712    1.8378   16.8424 H   0  0  0  0  0  0  0  0  0  0  0  0
    3.7640    1.9865   18.8839 H   0  0  0  0  0  0  0  0  0  0  0  0
    4.5657    0.8695   21.0056 H   0  0  0  0  0  0  0  0  0  0  0  0
    7.1029   -1.6129   21.0988 H   0  0  0  0  0  0  0  0  0  0  0  0
    6.2559   -0.4515   22.1411 H   0  0  0  0  0  0  0  0  0  0  0  0
    8.0931    3.0155   23.1067 H   0  0  0  0  0  0  0  0  0  0  0  0
    6.6796    2.2017   22.3785 H   0  0  0  0  0  0  0  0  0  0  0  0
    6.1103    0.6887   24.3689 N   0  0  0  0  0  0  0  0  0  0  0  0
    6.2318   -0.0232   25.4582 C   0  0  0  0  0  0  0  0  0  0  0  0
    7.4506    0.1567   26.0323 N   0  0  0  0  0  0  0  0  0  0  0  0
    7.8110   -0.3254   26.8395 H   0  0  0  0  0  0  0  0  0  0  0  0
    5.4848   -0.7019   25.8514 H   0  0  0  0  0  0  0  0  0  0  0  0
    9.8613    1.4632   26.5058 H   0  0  0  0  0  0  0  0  0  0  0  0
   10.2274    0.5558   25.0301 H   0  0  0  0  0  0  0  0  0  0  0  0
    9.8731    2.2669   24.9240 H   0  0  0  0  0  0  0  0  0  0  0  0
  1  2  1  0
  2  3  2  0
  3  4  1  0
  4  5  1  0
  5  6  2  0
  6  7  1  0
  7  8  1  0
  8  9  2  0
  9 10  1  0
 10 11  2  0
 11 12  1  0
 12 13  2  0
 13 14  1  0
 12 15  1  0
 11 16  1  0
 10 17  1  0
  9 18  1  0
  7 19  2  0
 19 20  1  0
 20 21  1  0
 21 22  1  0
 22 23  2  0
 23 24  1  0
 24 25  2  0
 25 26  1  0
 26 27  2  0
 27 28  1  0
 25 29  1  0
 24 30  1  0
 23 31  1  0
 21 32  1  0
 21 33  1  0
  4 34  1  0
  4 35  1  0
  3 36  1  0
 36 37  2  0
 37 38  1  0
 38 39  1  0
 37 40  1  0
  1 41  1  0
  1 42  1  0
  1 43  1  0
 38  2  1  0
 20  5  1  0
 27 22  1  0
 13  8  1  0
M  END
>  <cnnaffinity>  (1) 
-6.72303

>  <filename>  (1) 
Cc1[nH]cnc1Cc1nc(-c2ccccc2Cl)nn1Cc1cccnc1

$$$$
