
     RDKit          3D

 42 45  0  0  0  0  0  0  0  0999 V2000
   12.0488    1.2151   24.0440 C   0  0  0  0  0  0  0  0  0  0  0  0
   11.9226    0.3709   22.8152 C   0  0  0  0  0  0  0  0  0  0  0  0
   11.0487    0.3543   21.7547 C   0  0  0  0  0  0  0  0  0  0  0  0
    9.9725    1.3078   21.3675 C   0  0  0  0  0  0  0  0  0  0  0  0
    8.8274    1.1516   22.2930 C   0  0  0  0  0  0  0  0  0  0  0  0
    8.7707    1.7795   23.4423 N   0  0  0  0  0  0  0  0  0  0  0  0
    7.6145    1.3199   23.9955 C   0  0  0  0  0  0  0  0  0  0  0  0
    7.1734    1.8059   25.3035 C   0  0  0  0  0  0  0  0  0  0  0  0
    6.0202    1.3615   25.9849 C   0  0  0  0  0  0  0  0  0  0  0  0
    5.7620    1.9481   27.2165 C   0  0  0  0  0  0  0  0  0  0  0  0
    4.6838    1.5807   27.9216 F   0  0  0  0  0  0  0  0  0  0  0  0
    6.6204    2.9260   27.7372 C   0  0  0  0  0  0  0  0  0  0  0  0
    7.7168    3.3347   27.0898 N   0  0  0  0  0  0  0  0  0  0  0  0
    7.9853    2.7796   25.9045 C   0  0  0  0  0  0  0  0  0  0  0  0
    8.8800    3.1220   25.3966 H   0  0  0  0  0  0  0  0  0  0  0  0
    6.4050    3.3825   28.6996 H   0  0  0  0  0  0  0  0  0  0  0  0
    5.3525    0.5929   25.5941 H   0  0  0  0  0  0  0  0  0  0  0  0
    6.9848    0.4270   23.2573 N   0  0  0  0  0  0  0  0  0  0  0  0
    7.7855    0.3072   22.1648 N   0  0  0  0  0  0  0  0  0  0  0  0
    7.4498   -0.5996   21.0658 C   0  0  0  0  0  0  0  0  0  0  0  0
    6.7245    0.0579   19.8979 C   0  0  0  0  0  0  0  0  0  0  0  0
    5.5057    0.7162   20.1114 C   0  0  0  0  0  0  0  0  0  0  0  0
    4.8813    1.3325   19.0235 C   0  0  0  0  0  0  0  0  0  0  0  0
    5.4834    1.2573   17.7649 C   0  0  0  0  0  0  0  0  0  0  0  0
    6.6330    0.6078   17.5304 N   0  0  0  0  0  0  0  0  0  0  0  0
    7.2261    0.0301   18.5842 C   0  0  0  0  0  0  0  0  0  0  0  0
    8.1620   -0.4865   18.3662 H   0  0  0  0  0  0  0  0  0  0  0  0
    5.0222    1.7376   16.9043 H   0  0  0  0  0  0  0  0  0  0  0  0
    3.9508    1.8765   19.1391 H   0  0  0  0  0  0  0  0  0  0  0  0
    5.0699    0.7520   21.1129 H   0  0  0  0  0  0  0  0  0  0  0  0
    6.8299   -1.3789   21.5199 H   0  0  0  0  0  0  0  0  0  0  0  0
    8.3876   -1.0625   20.7326 H   0  0  0  0  0  0  0  0  0  0  0  0
    9.6810    1.0913   20.3395 H   0  0  0  0  0  0  0  0  0  0  0  0
   10.3016    2.3495   21.4548 H   0  0  0  0  0  0  0  0  0  0  0  0
   11.2032   -0.7847   21.0137 N   0  0  0  0  0  0  0  0  0  0  0  0
   12.2003   -1.4321   21.5590 C   0  0  0  0  0  0  0  0  0  0  0  0
   12.6688   -0.7765   22.6501 N   0  0  0  0  0  0  0  0  0  0  0  0
   13.4095   -1.0747   23.2595 H   0  0  0  0  0  0  0  0  0  0  0  0
   12.6350   -2.3503   21.1966 H   0  0  0  0  0  0  0  0  0  0  0  0
   13.0026    1.0531   24.5636 H   0  0  0  0  0  0  0  0  0  0  0  0
   11.9565    2.2775   23.8035 H   0  0  0  0  0  0  0  0  0  0  0  0
   11.2305    0.9870   24.7390 H   0  0  0  0  0  0  0  0  0  0  0  0
  1  2  1  0
  2  3  2  0
  3  4  1  0
  4  5  1  0
  5  6  2  0
  6  7  1  0
  7  8  1  0
  8  9  2  0
  9 10  1  0
 10 11  1  0
 10 12  2  0
 12 13  1  0
 13 14  2  0
 14 15  1  0
 12 16  1  0
  9 17  1  0
  7 18  2  0
 18 19  1  0
 19 20  1  0
 20 21  1  0
 21 22  2  0
 22 23  1  0
 23 24  2  0
 24 25  1  0
 25 26  2  0
 26 27  1  0
 24 28  1  0
 23 29  1  0
 22 30  1  0
 20 31  1  0
 20 32  1  0
  4 33  1  0
  4 34  1  0
  3 35  1  0
 35 36  2  0
 36 37  1  0
 37 38  1  0
 36 39  1  0
  1 40  1  0
  1 41  1  0
  1 42  1  0
 37  2  1  0
 19  5  1  0
 26 21  1  0
 14  8  1  0
M  END
>  <cnnaffinity>  (1) 
-6.64284

>  <filename>  (1) 
Cc1[nH]cnc1Cc1nc(-c2cncc(F)c2)nn1Cc1cccnc1

$$$$
