
     RDKit          3D

 52 55  0  0  0  0  0  0  0  0999 V2000
    8.2859    2.5377   21.7468 C   0  0  0  0  0  0  0  0  0  0  0  0
    9.6000    2.0059   22.1875 C   0  0  0  0  0  0  0  0  0  0  0  0
   10.2267    0.9237   21.6637 C   0  0  0  0  0  0  0  0  0  0  0  0
    9.5598    0.0160   20.6458 C   0  0  0  0  0  0  0  0  0  0  0  0
    8.4318   -0.8113   21.2053 C   0  0  0  0  0  0  0  0  0  0  0  0
    8.6353   -1.6100   22.2298 N   0  0  0  0  0  0  0  0  0  0  0  0
    7.4150   -2.1518   22.4716 C   0  0  0  0  0  0  0  0  0  0  0  0
    7.2453   -3.1164   23.6170 C   0  0  0  0  0  0  0  0  0  0  0  0
    7.4763   -2.4415   25.0046 C   0  0  0  0  0  0  0  0  0  0  0  0
    7.3462   -3.4522   26.1589 C   0  0  0  0  0  0  0  0  0  0  0  0
    8.2845   -4.6652   26.0033 C   0  0  0  0  0  0  0  0  0  0  0  0
    8.0593   -5.6899   27.1227 C   0  0  0  0  0  0  0  0  0  0  0  0
    8.2231   -5.2503   28.1143 H   0  0  0  0  0  0  0  0  0  0  0  0
    8.7284   -6.5521   27.0165 H   0  0  0  0  0  0  0  0  0  0  0  0
    7.0272   -6.0682   27.0923 H   0  0  0  0  0  0  0  0  0  0  0  0
    8.1048   -5.3145   24.6177 C   0  0  0  0  0  0  0  0  0  0  0  0
    8.2382   -4.3049   23.4710 C   0  0  0  0  0  0  0  0  0  0  0  0
    9.2626   -3.8948   23.4686 H   0  0  0  0  0  0  0  0  0  0  0  0
    8.0989   -4.8011   22.5019 H   0  0  0  0  0  0  0  0  0  0  0  0
    7.1155   -5.8003   24.5768 H   0  0  0  0  0  0  0  0  0  0  0  0
    8.8484   -6.1133   24.4906 H   0  0  0  0  0  0  0  0  0  0  0  0
    9.3242   -4.2934   26.0656 H   0  0  0  0  0  0  0  0  0  0  0  0
    6.3060   -3.8153   26.2271 H   0  0  0  0  0  0  0  0  0  0  0  0
    7.5577   -2.9524   27.1147 H   0  0  0  0  0  0  0  0  0  0  0  0
    6.7771   -1.6083   25.1597 H   0  0  0  0  0  0  0  0  0  0  0  0
    8.4913   -2.0077   25.0189 H   0  0  0  0  0  0  0  0  0  0  0  0
    6.2069   -3.4740   23.5539 H   0  0  0  0  0  0  0  0  0  0  0  0
    6.4684   -1.7487   21.6446 N   0  0  0  0  0  0  0  0  0  0  0  0
    7.1265   -0.9004   20.8029 N   0  0  0  0  0  0  0  0  0  0  0  0
    6.4301   -0.2011   19.7693 C   0  0  0  0  0  0  0  0  0  0  0  0
    5.2696    0.5348   20.0422 C   0  0  0  0  0  0  0  0  0  0  0  0
    4.7420    1.3398   19.0238 C   0  0  0  0  0  0  0  0  0  0  0  0
    5.3647    1.3468   17.7697 C   0  0  0  0  0  0  0  0  0  0  0  0
    6.4255    0.5811   17.4768 N   0  0  0  0  0  0  0  0  0  0  0  0
    6.9311   -0.1824   18.4540 C   0  0  0  0  0  0  0  0  0  0  0  0
    7.7788   -0.8147   18.1935 H   0  0  0  0  0  0  0  0  0  0  0  0
    4.9874    1.9623   16.9555 H   0  0  0  0  0  0  0  0  0  0  0  0
    3.8701    1.9664   19.1830 H   0  0  0  0  0  0  0  0  0  0  0  0
    4.8032    0.4714   21.0271 H   0  0  0  0  0  0  0  0  0  0  0  0
   10.3107   -0.7076   20.3212 H   0  0  0  0  0  0  0  0  0  0  0  0
    9.2312    0.5536   19.7485 H   0  0  0  0  0  0  0  0  0  0  0  0
   11.5726    0.5724   22.1563 C   0  0  0  0  0  0  0  0  0  0  0  0
   12.2825   -0.3252   21.7526 O   0  0  0  0  0  0  0  0  0  0  0  0
   12.0587    1.3378   23.1865 N   0  0  0  0  0  0  0  0  0  0  0  0
   11.4688    2.4379   23.6866 C   0  0  0  0  0  0  0  0  0  0  0  0
   11.9413    3.1352   24.5490 O   0  0  0  0  0  0  0  0  0  0  0  0
   10.2497    2.7325   23.1499 N   0  0  0  0  0  0  0  0  0  0  0  0
    9.8645    3.5388   23.6003 H   0  0  0  0  0  0  0  0  0  0  0  0
   12.9786    1.1001   23.4950 H   0  0  0  0  0  0  0  0  0  0  0  0
    8.4125    2.8969   20.7292 H   0  0  0  0  0  0  0  0  0  0  0  0
    7.5190    1.7603   21.7028 H   0  0  0  0  0  0  0  0  0  0  0  0
    7.9272    3.3546   22.3792 H   0  0  0  0  0  0  0  0  0  0  0  0
  1  2  1  0
  2  3  2  0
  3  4  1  0
  4  5  1  0
  5  6  2  0
  6  7  1  0
  7  8  1  0
  8  9  1  0
  9 10  1  0
 10 11  1  0
 11 12  1  0
 12 13  1  0
 12 14  1  0
 12 15  1  0
 11 16  1  0
 16 17  1  0
 17 18  1  0
 17 19  1  0
 16 20  1  0
 16 21  1  0
 11 22  1  0
 10 23  1  0
 10 24  1  0
  9 25  1  0
  9 26  1  0
  8 27  1  0
  7 28  2  0
 28 29  1  0
 29 30  1  0
 30 31  2  0
 31 32  1  0
 32 33  2  0
 33 34  1  0
 34 35  2  0
 35 36  1  0
 33 37  1  0
 32 38  1  0
 31 39  1  0
  4 40  1  0
  4 41  1  0
  3 42  1  0
 42 43  2  0
 42 44  1  0
 44 45  1  0
 45 46  2  0
 45 47  1  0
 47 48  1  0
 44 49  1  0
  1 50  1  0
  1 51  1  0
  1 52  1  0
 47  2  1  0
 29  5  1  0
 35 30  1  0
 17  8  1  0
M  END
>  <cnnaffinity>  (1) 
-6.61675

>  <filename>  (1) 
Cc1[nH]c(=O)[nH]c(=O)c1Cc1nc(C2CCC(C)CC2)nn1-c1cccnc1

$$$$
