
     RDKit          3D

 38 41  0  0  0  0  0  0  0  0999 V2000
   10.5133    0.8430   23.8296 C   0  0  0  0  0  0  0  0  0  0  0  0
    9.6380    1.6087   22.8746 C   0  0  0  0  0  0  0  0  0  0  0  0
    8.6909    1.2126   21.9369 C   0  0  0  0  0  0  0  0  0  0  0  0
    8.2888   -0.1707   21.7469 C   0  0  0  0  0  0  0  0  0  0  0  0
    8.6940   -1.1786   22.4937 N   0  0  0  0  0  0  0  0  0  0  0  0
    8.0291   -2.2537   22.0089 C   0  0  0  0  0  0  0  0  0  0  0  0
    8.1534   -3.5715   22.6968 C   0  0  0  0  0  0  0  0  0  0  0  0
    9.0331   -3.6541   23.7938 C   0  0  0  0  0  0  0  0  0  0  0  0
    9.0835   -4.8171   24.5431 C   0  0  0  0  0  0  0  0  0  0  0  0
    9.9002   -4.8652   25.6028 F   0  0  0  0  0  0  0  0  0  0  0  0
    8.3039   -5.9264   24.2515 C   0  0  0  0  0  0  0  0  0  0  0  0
    7.4681   -5.8404   23.1391 C   0  0  0  0  0  0  0  0  0  0  0  0
    6.7119   -6.8932   22.8022 F   0  0  0  0  0  0  0  0  0  0  0  0
    7.3684   -4.6921   22.3551 C   0  0  0  0  0  0  0  0  0  0  0  0
    6.6677   -4.6709   21.5262 H   0  0  0  0  0  0  0  0  0  0  0  0
    8.3505   -6.7790   24.9093 H   0  0  0  0  0  0  0  0  0  0  0  0
    9.6409   -2.8086   24.0898 H   0  0  0  0  0  0  0  0  0  0  0  0
    7.2541   -1.9909   20.9721 N   0  0  0  0  0  0  0  0  0  0  0  0
    7.4039   -0.6520   20.8091 N   0  0  0  0  0  0  0  0  0  0  0  0
    6.6520    0.0043   19.7766 C   0  0  0  0  0  0  0  0  0  0  0  0
    5.4410    0.6550   20.0474 C   0  0  0  0  0  0  0  0  0  0  0  0
    4.8154    1.3413   19.0001 C   0  0  0  0  0  0  0  0  0  0  0  0
    5.3853    1.3028   17.7240 C   0  0  0  0  0  0  0  0  0  0  0  0
    6.5059    0.6155   17.4474 N   0  0  0  0  0  0  0  0  0  0  0  0
    7.1137   -0.0258   18.4501 C   0  0  0  0  0  0  0  0  0  0  0  0
    8.0168   -0.5734   18.1911 H   0  0  0  0  0  0  0  0  0  0  0  0
    4.9233    1.8256   16.8878 H   0  0  0  0  0  0  0  0  0  0  0  0
    3.8970    1.8960   19.1593 H   0  0  0  0  0  0  0  0  0  0  0  0
    5.0097    0.6361   21.0502 H   0  0  0  0  0  0  0  0  0  0  0  0
    8.1797    2.4001   21.3149 C   0  0  0  0  0  0  0  0  0  0  0  0
    8.7939    3.4606   21.9004 C   0  0  0  0  0  0  0  0  0  0  0  0
    9.6900    2.9645   22.8129 N   0  0  0  0  0  0  0  0  0  0  0  0
   10.2715    3.5341   23.4041 H   0  0  0  0  0  0  0  0  0  0  0  0
    8.7161    4.5302   21.7208 H   0  0  0  0  0  0  0  0  0  0  0  0
    7.3985    2.4147   20.5714 H   0  0  0  0  0  0  0  0  0  0  0  0
   11.0435    0.0471   23.2974 H   0  0  0  0  0  0  0  0  0  0  0  0
   11.2461    1.4940   24.3291 H   0  0  0  0  0  0  0  0  0  0  0  0
    9.9077    0.3551   24.6011 H   0  0  0  0  0  0  0  0  0  0  0  0
  1  2  1  0
  2  3  2  0
  3  4  1  0
  4  5  2  0
  5  6  1  0
  6  7  1  0
  7  8  2  0
  8  9  1  0
  9 10  1  0
  9 11  2  0
 11 12  1  0
 12 13  1  0
 12 14  2  0
 14 15  1  0
 11 16  1  0
  8 17  1  0
  6 18  2  0
 18 19  1  0
 19 20  1  0
 20 21  2  0
 21 22  1  0
 22 23  2  0
 23 24  1  0
 24 25  2  0
 25 26  1  0
 23 27  1  0
 22 28  1  0
 21 29  1  0
  3 30  1  0
 30 31  2  0
 31 32  1  0
 32 33  1  0
 31 34  1  0
 30 35  1  0
  1 36  1  0
  1 37  1  0
  1 38  1  0
 32  2  1  0
 19  4  1  0
 25 20  1  0
 14  7  1  0
M  END
>  <cnnaffinity>  (1) 
-6.18959

>  <filename>  (1) 
Cc1[nH]ccc1-c1nc(-c2cc(F)cc(F)c2)nn1-c1cccnc1

$$$$
