
     RDKit          3D

 45 48  0  0  0  0  0  0  0  0999 V2000
   12.0619    1.1580   23.9804 C   0  0  0  0  0  0  0  0  0  0  0  0
   11.9028    0.3205   22.7518 C   0  0  0  0  0  0  0  0  0  0  0  0
   11.0208    0.3180   21.6965 C   0  0  0  0  0  0  0  0  0  0  0  0
    9.9610    1.2773   21.2916 C   0  0  0  0  0  0  0  0  0  0  0  0
    8.8301    1.1603   22.2335 C   0  0  0  0  0  0  0  0  0  0  0  0
    8.8043    1.8030   23.3753 N   0  0  0  0  0  0  0  0  0  0  0  0
    7.6645    1.3480   23.9712 C   0  0  0  0  0  0  0  0  0  0  0  0
    7.2383    1.8565   25.2856 C   0  0  0  0  0  0  0  0  0  0  0  0
    7.9977    2.8731   25.8971 C   0  0  0  0  0  0  0  0  0  0  0  0
    7.6041    3.4300   27.1056 C   0  0  0  0  0  0  0  0  0  0  0  0
    6.4421    2.9768   27.7375 C   0  0  0  0  0  0  0  0  0  0  0  0
    6.0006    3.5985   28.8997 N   0  0  0  0  0  0  0  0  0  0  0  0
    5.4787    2.9749   29.4942 H   0  0  0  0  0  0  0  0  0  0  0  0
    6.7609    4.0109   29.4160 H   0  0  0  0  0  0  0  0  0  0  0  0
    5.7071    1.9283   27.1718 C   0  0  0  0  0  0  0  0  0  0  0  0
    6.0920    1.3753   25.9524 C   0  0  0  0  0  0  0  0  0  0  0  0
    5.4946    0.5792   25.5151 H   0  0  0  0  0  0  0  0  0  0  0  0
    4.8332    1.5711   27.7090 H   0  0  0  0  0  0  0  0  0  0  0  0
    8.1765    4.2269   27.5683 H   0  0  0  0  0  0  0  0  0  0  0  0
    8.8944    3.2316   25.4001 H   0  0  0  0  0  0  0  0  0  0  0  0
    7.0209    0.4395   23.2570 N   0  0  0  0  0  0  0  0  0  0  0  0
    7.7878    0.3101   22.1476 N   0  0  0  0  0  0  0  0  0  0  0  0
    7.4211   -0.6114   21.0730 C   0  0  0  0  0  0  0  0  0  0  0  0
    6.7010    0.0430   19.9028 C   0  0  0  0  0  0  0  0  0  0  0  0
    5.4825    0.7020   20.1120 C   0  0  0  0  0  0  0  0  0  0  0  0
    4.8643    1.3246   19.0253 C   0  0  0  0  0  0  0  0  0  0  0  0
    5.4782    1.2590   17.7712 C   0  0  0  0  0  0  0  0  0  0  0  0
    6.6273    0.6084   17.5403 N   0  0  0  0  0  0  0  0  0  0  0  0
    7.2126    0.0198   18.5929 C   0  0  0  0  0  0  0  0  0  0  0  0
    8.1480   -0.5009   18.3780 H   0  0  0  0  0  0  0  0  0  0  0  0
    5.0256    1.7490   16.9123 H   0  0  0  0  0  0  0  0  0  0  0  0
    3.9320    1.8657   19.1376 H   0  0  0  0  0  0  0  0  0  0  0  0
    5.0396    0.7358   21.1102 H   0  0  0  0  0  0  0  0  0  0  0  0
    8.3449   -1.1043   20.7451 H   0  0  0  0  0  0  0  0  0  0  0  0
    6.7846   -1.3624   21.5522 H   0  0  0  0  0  0  0  0  0  0  0  0
    9.6454    1.0309   20.2762 H   0  0  0  0  0  0  0  0  0  0  0  0
   10.3279    2.3077   21.3345 H   0  0  0  0  0  0  0  0  0  0  0  0
   11.1668   -0.8105   20.9420 N   0  0  0  0  0  0  0  0  0  0  0  0
   12.1660   -1.4647   21.4714 C   0  0  0  0  0  0  0  0  0  0  0  0
   12.6474   -0.8275   22.5671 N   0  0  0  0  0  0  0  0  0  0  0  0
   13.4236   -1.1215   23.1381 H   0  0  0  0  0  0  0  0  0  0  0  0
   12.5936   -2.3708   21.0831 H   0  0  0  0  0  0  0  0  0  0  0  0
   11.2584    0.9332   24.6924 H   0  0  0  0  0  0  0  0  0  0  0  0
   13.0262    0.9781   24.4740 H   0  0  0  0  0  0  0  0  0  0  0  0
   11.9816    2.2215   23.7445 H   0  0  0  0  0  0  0  0  0  0  0  0
  1  2  1  0
  2  3  2  0
  3  4  1  0
  4  5  1  0
  5  6  2  0
  6  7  1  0
  7  8  1  0
  8  9  2  0
  9 10  1  0
 10 11  2  0
 11 12  1  0
 12 13  1  0
 12 14  1  0
 11 15  1  0
 15 16  2  0
 16 17  1  0
 15 18  1  0
 10 19  1  0
  9 20  1  0
  7 21  2  0
 21 22  1  0
 22 23  1  0
 23 24  1  0
 24 25  2  0
 25 26  1  0
 26 27  2  0
 27 28  1  0
 28 29  2  0
 29 30  1  0
 27 31  1  0
 26 32  1  0
 25 33  1  0
 23 34  1  0
 23 35  1  0
  4 36  1  0
  4 37  1  0
  3 38  1  0
 38 39  2  0
 39 40  1  0
 40 41  1  0
 39 42  1  0
  1 43  1  0
  1 44  1  0
  1 45  1  0
 40  2  1  0
 22  5  1  0
 29 24  1  0
 16  8  1  0
M  END
>  <cnnaffinity>  (1) 
-5.77676

>  <filename>  (1) 
Cc1[nH]cnc1Cc1nc(-c2ccc(N)cc2)nn1Cc1cccnc1

$$$$
