
     RDKit          3D

 43 46  0  0  0  0  0  0  0  0999 V2000
   11.9782    0.4864   23.4050 C   0  0  0  0  0  0  0  0  0  0  0  0
   11.9258   -0.1733   22.0019 C   0  0  0  0  0  0  0  0  0  0  0  0
   10.6680   -0.2932   21.1804 C   0  0  0  0  0  0  0  0  0  0  0  0
    9.9246    1.0648   21.0438 C   0  0  0  0  0  0  0  0  0  0  0  0
    8.8890    1.1467   22.0473 C   0  0  0  0  0  0  0  0  0  0  0  0
    8.8540    1.9063   23.0983 N   0  0  0  0  0  0  0  0  0  0  0  0
    7.7782    1.4271   23.7781 C   0  0  0  0  0  0  0  0  0  0  0  0
    7.3933    1.9608   25.0989 C   0  0  0  0  0  0  0  0  0  0  0  0
    6.2193    1.5098   25.7309 C   0  0  0  0  0  0  0  0  0  0  0  0
    5.8701    2.0482   26.9655 C   0  0  0  0  0  0  0  0  0  0  0  0
    4.7441    1.6197   27.5570 F   0  0  0  0  0  0  0  0  0  0  0  0
    6.6424    3.0148   27.6023 C   0  0  0  0  0  0  0  0  0  0  0  0
    7.8101    3.4594   26.9737 C   0  0  0  0  0  0  0  0  0  0  0  0
    8.1946    2.9343   25.7353 C   0  0  0  0  0  0  0  0  0  0  0  0
    9.1061    3.2862   25.2572 H   0  0  0  0  0  0  0  0  0  0  0  0
    8.4177    4.2281   27.4417 H   0  0  0  0  0  0  0  0  0  0  0  0
    6.3148    3.3933   28.5653 H   0  0  0  0  0  0  0  0  0  0  0  0
    5.5809    0.7563   25.2763 H   0  0  0  0  0  0  0  0  0  0  0  0
    7.1570    0.4288   23.1604 N   0  0  0  0  0  0  0  0  0  0  0  0
    7.8990    0.2342   22.0464 N   0  0  0  0  0  0  0  0  0  0  0  0
    7.4123   -0.6678   21.0072 C   0  0  0  0  0  0  0  0  0  0  0  0
    6.6480    0.0034   19.8797 C   0  0  0  0  0  0  0  0  0  0  0  0
    5.4381    0.6455   20.1390 C   0  0  0  0  0  0  0  0  0  0  0  0
    4.7979    1.3081   19.0885 C   0  0  0  0  0  0  0  0  0  0  0  0
    5.3898    1.2976   17.8203 C   0  0  0  0  0  0  0  0  0  0  0  0
    6.5449    0.6738   17.5495 N   0  0  0  0  0  0  0  0  0  0  0  0
    7.1502    0.0507   18.5670 C   0  0  0  0  0  0  0  0  0  0  0  0
    8.1058   -0.4243   18.3363 H   0  0  0  0  0  0  0  0  0  0  0  0
    4.9172    1.8068   16.9817 H   0  0  0  0  0  0  0  0  0  0  0  0
    3.8708    1.8458   19.2422 H   0  0  0  0  0  0  0  0  0  0  0  0
    5.0301    0.6395   21.1551 H   0  0  0  0  0  0  0  0  0  0  0  0
    6.7651   -1.3712   21.5417 H   0  0  0  0  0  0  0  0  0  0  0  0
    8.2288   -1.2404   20.6038 H   0  0  0  0  0  0  0  0  0  0  0  0
    9.3904    1.0823   20.1337 H   0  0  0  0  0  0  0  0  0  0  0  0
   10.4746    1.9787   20.9750 H   0  0  0  0  0  0  0  0  0  0  0  0
   10.6681   -0.2931   21.1804 N   0  0  0  0  0  0  0  0  0  0  0  0
   12.1537   -2.0499   20.6593 C   0  0  0  0  0  0  0  0  0  0  0  0
   12.4052   -1.4253   21.8108 N   0  0  0  0  0  0  0  0  0  0  0  0
   13.0727   -1.7628   22.4947 H   0  0  0  0  0  0  0  0  0  0  0  0
   12.9254   -2.7044   20.1861 H   0  0  0  0  0  0  0  0  0  0  0  0
   11.1667    0.2329   24.0785 H   0  0  0  0  0  0  0  0  0  0  0  0
   11.9600    1.5588   23.2474 H   0  0  0  0  0  0  0  0  0  0  0  0
   12.9403    0.2520   23.8693 H   0  0  0  0  0  0  0  0  0  0  0  0
  1  2  1  0
  2  3  2  0
  3  4  1  0
  4  5  1  0
  5  6  2  0
  6  7  1  0
  7  8  1  0
  8  9  2  0
  9 10  1  0
 10 11  1  0
 10 12  2  0
 12 13  1  0
 13 14  2  0
 14 15  1  0
 13 16  1  0
 12 17  1  0
  9 18  1  0
  7 19  2  0
 19 20  1  0
 20 21  1  0
 21 22  1  0
 22 23  2  0
 23 24  1  0
 24 25  2  0
 25 26  1  0
 26 27  2  0
 27 28  1  0
 25 29  1  0
 24 30  1  0
 23 31  1  0
 21 32  1  0
 21 33  1  0
  4 34  1  0
  4 35  1  0
  3 36  1  0
 36 37  2  0
 37 38  1  0
 38 39  1  0
 37 40  1  0
  1 41  1  0
  1 42  1  0
  1 43  1  0
 38  2  1  0
 20  5  1  0
 27 22  1  0
 14  8  1  0
M  END
>  <cnnaffinity>  (1) 
-6.24209

>  <filename>  (1) 
Cc1[nH]cnc1Cc1nc(-c2cccc(F)c2)nn1Cc1cccnc1

$$$$
