
     RDKit          3D

 44 47  0  0  0  0  0  0  0  0999 V2000
   11.2737    3.1855   24.1734 C   0  0  0  0  0  0  0  0  0  0  0  0
   11.4188    2.1438   23.1142 C   0  0  0  0  0  0  0  0  0  0  0  0
   10.4557    1.8249   22.2123 C   0  0  0  0  0  0  0  0  0  0  0  0
   10.7038    0.6293   21.4795 C   0  0  0  0  0  0  0  0  0  0  0  0
    9.6486    0.0790   20.5574 C   0  0  0  0  0  0  0  0  0  0  0  0
    8.6039   -0.7221   21.2643 C   0  0  0  0  0  0  0  0  0  0  0  0
    8.8040   -1.5666   22.2524 N   0  0  0  0  0  0  0  0  0  0  0  0
    7.5572   -2.0521   22.5087 C   0  0  0  0  0  0  0  0  0  0  0  0
    7.3590   -2.9613   23.7021 C   0  0  0  0  0  0  0  0  0  0  0  0
    6.8868   -2.1929   24.9722 C   0  0  0  0  0  0  0  0  0  0  0  0
    5.9958   -3.2152   25.6827 C   0  0  0  0  0  0  0  0  0  0  0  0
    5.4345   -4.0266   24.5147 C   0  0  0  0  0  0  0  0  0  0  0  0
    6.4350   -4.0243   23.5015 O   0  0  0  0  0  0  0  0  0  0  0  0
    5.2286   -5.0693   24.7795 H   0  0  0  0  0  0  0  0  0  0  0  0
    4.5134   -3.5759   24.1151 H   0  0  0  0  0  0  0  0  0  0  0  0
    6.5846   -3.8529   26.3547 H   0  0  0  0  0  0  0  0  0  0  0  0
    5.1998   -2.7447   26.2705 H   0  0  0  0  0  0  0  0  0  0  0  0
    7.7363   -1.8537   25.5782 H   0  0  0  0  0  0  0  0  0  0  0  0
    6.3042   -1.3071   24.6818 H   0  0  0  0  0  0  0  0  0  0  0  0
    8.3519   -3.4004   23.8614 H   0  0  0  0  0  0  0  0  0  0  0  0
    6.6060   -1.5640   21.7372 N   0  0  0  0  0  0  0  0  0  0  0  0
    7.2860   -0.7399   20.9022 N   0  0  0  0  0  0  0  0  0  0  0  0
    6.6136   -0.0342   19.8668 C   0  0  0  0  0  0  0  0  0  0  0  0
    5.4131    0.6294   20.1341 C   0  0  0  0  0  0  0  0  0  0  0  0
    4.8018    1.3204   19.0860 C   0  0  0  0  0  0  0  0  0  0  0  0
    5.3945    1.3146   17.8162 C   0  0  0  0  0  0  0  0  0  0  0  0
    6.5359    0.6628   17.5482 N   0  0  0  0  0  0  0  0  0  0  0  0
    7.1243    0.0101   18.5553 C   0  0  0  0  0  0  0  0  0  0  0  0
    8.0582   -0.4935   18.3164 H   0  0  0  0  0  0  0  0  0  0  0  0
    4.9372    1.8424   16.9826 H   0  0  0  0  0  0  0  0  0  0  0  0
    3.8729    1.8569   19.2384 H   0  0  0  0  0  0  0  0  0  0  0  0
    4.9873    0.5943   21.1386 H   0  0  0  0  0  0  0  0  0  0  0  0
   10.0593   -0.5688   19.7768 H   0  0  0  0  0  0  0  0  0  0  0  0
    9.1622    0.9160   20.0529 H   0  0  0  0  0  0  0  0  0  0  0  0
   11.8604    0.0202   21.8519 C   0  0  0  0  0  0  0  0  0  0  0  0
   12.3258   -1.3358   21.4024 C   0  0  0  0  0  0  0  0  0  0  0  0
   13.2694   -1.6425   21.8622 H   0  0  0  0  0  0  0  0  0  0  0  0
   11.5377   -2.0693   21.6331 H   0  0  0  0  0  0  0  0  0  0  0  0
   12.4527   -1.3487   20.3136 H   0  0  0  0  0  0  0  0  0  0  0  0
   12.6978    0.9725   23.0498 S   0  0  0  0  0  0  0  0  0  0  0  0
    9.5461    2.3999   22.0864 H   0  0  0  0  0  0  0  0  0  0  0  0
   10.5108    3.9027   23.8566 H   0  0  0  0  0  0  0  0  0  0  0  0
   10.8816    2.6649   25.0553 H   0  0  0  0  0  0  0  0  0  0  0  0
   12.1763    3.7432   24.4308 H   0  0  0  0  0  0  0  0  0  0  0  0
  1  2  1  0
  2  3  2  0
  3  4  1  0
  4  5  1  0
  5  6  1  0
  6  7  2  0
  7  8  1  0
  8  9  1  0
  9 10  1  0
 10 11  1  0
 11 12  1  0
 12 13  1  0
 12 14  1  0
 12 15  1  0
 11 16  1  0
 11 17  1  0
 10 18  1  0
 10 19  1  0
  9 20  1  0
  8 21  2  0
 21 22  1  0
 22 23  1  0
 23 24  2  0
 24 25  1  0
 25 26  2  0
 26 27  1  0
 27 28  2  0
 28 29  1  0
 26 30  1  0
 25 31  1  0
 24 32  1  0
  5 33  1  0
  5 34  1  0
  4 35  2  0
 35 36  1  0
 36 37  1  0
 36 38  1  0
 36 39  1  0
 35 40  1  0
  3 41  1  0
  1 42  1  0
  1 43  1  0
  1 44  1  0
 40  2  1  0
 22  6  1  0
 28 23  1  0
 13  9  1  0
M  END
>  <cnnaffinity>  (1) 
-6.50529

>  <filename>  (1) 
Cc1cc(Cc2nc(C3CCCO3)nn2-c2cccnc2)c(C)s1

$$$$
