
     RDKit          3D

 42 45  0  0  0  0  0  0  0  0999 V2000
    8.2681    2.7531   22.0448 C   0  0  0  0  0  0  0  0  0  0  0  0
    9.6269    2.2945   22.5052 C   0  0  0  0  0  0  0  0  0  0  0  0
   10.2741    2.9504   23.5568 C   0  0  0  0  0  0  0  0  0  0  0  0
   11.5194    2.4949   23.9947 C   0  0  0  0  0  0  0  0  0  0  0  0
   12.1513    1.4512   23.4522 N   0  0  0  0  0  0  0  0  0  0  0  0
   11.5380    0.8319   22.4365 C   0  0  0  0  0  0  0  0  0  0  0  0
   10.2944    1.2040   21.9108 C   0  0  0  0  0  0  0  0  0  0  0  0
    9.6273    0.3661   20.8378 C   0  0  0  0  0  0  0  0  0  0  0  0
    8.5895   -0.5549   21.3862 C   0  0  0  0  0  0  0  0  0  0  0  0
    8.8190   -1.4035   22.3624 N   0  0  0  0  0  0  0  0  0  0  0  0
    7.6180   -2.0101   22.5287 C   0  0  0  0  0  0  0  0  0  0  0  0
    7.4394   -3.0540   23.5570 C   0  0  2  0  0  0  0  0  0  0  0  0
    8.3405   -4.2714   23.5525 C   0  0  0  0  0  0  0  0  0  0  0  0
    6.8898   -4.4003   23.1628 C   0  0  1  0  0  0  0  0  0  0  0  0
    5.9273   -5.1052   24.0901 C   0  0  0  0  0  0  0  0  0  0  0  0
    4.8938   -4.7747   23.9294 H   0  0  0  0  0  0  0  0  0  0  0  0
    6.1843   -4.9095   25.1393 H   0  0  0  0  0  0  0  0  0  0  0  0
    5.9687   -6.1883   23.9316 H   0  0  0  0  0  0  0  0  0  0  0  0
    6.6695   -4.5042   22.0961 H   0  0  0  0  0  0  0  0  0  0  0  0
    9.1187   -4.3174   22.7900 H   0  0  0  0  0  0  0  0  0  0  0  0
    8.6511   -4.6858   24.5122 H   0  0  0  0  0  0  0  0  0  0  0  0
    7.1502   -2.6229   24.5197 H   0  0  0  0  0  0  0  0  0  0  0  0
    6.6596   -1.5898   21.7179 N   0  0  0  0  0  0  0  0  0  0  0  0
    7.3101   -0.6855   20.9416 N   0  0  0  0  0  0  0  0  0  0  0  0
    6.6345   -0.0121   19.8891 C   0  0  0  0  0  0  0  0  0  0  0  0
    5.4291    0.6379   20.1543 C   0  0  0  0  0  0  0  0  0  0  0  0
    4.8043    1.3157   19.1028 C   0  0  0  0  0  0  0  0  0  0  0  0
    5.3955    1.2985   17.8341 C   0  0  0  0  0  0  0  0  0  0  0  0
    6.5472    0.6641   17.5695 N   0  0  0  0  0  0  0  0  0  0  0  0
    7.1525    0.0319   18.5831 C   0  0  0  0  0  0  0  0  0  0  0  0
    8.1040   -0.4448   18.3506 H   0  0  0  0  0  0  0  0  0  0  0  0
    4.9284    1.8042   16.9917 H   0  0  0  0  0  0  0  0  0  0  0  0
    3.8734    1.8502   19.2549 H   0  0  0  0  0  0  0  0  0  0  0  0
    5.0143    0.6010   21.1630 H   0  0  0  0  0  0  0  0  0  0  0  0
   10.3550   -0.2942   20.3607 H   0  0  0  0  0  0  0  0  0  0  0  0
    9.1697    1.0021   20.0797 H   0  0  0  0  0  0  0  0  0  0  0  0
   12.0600   -0.0354   22.0203 H   0  0  0  0  0  0  0  0  0  0  0  0
   12.0309    2.9917   24.8196 H   0  0  0  0  0  0  0  0  0  0  0  0
    9.8057    3.8041   24.0360 H   0  0  0  0  0  0  0  0  0  0  0  0
    7.5158    1.9589   22.1119 H   0  0  0  0  0  0  0  0  0  0  0  0
    7.9164    3.6047   22.6318 H   0  0  0  0  0  0  0  0  0  0  0  0
    8.3152    3.0557   20.9995 H   0  0  0  0  0  0  0  0  0  0  0  0
  1  2  1  0
  2  3  2  0
  3  4  1  0
  4  5  2  0
  5  6  1  0
  6  7  2  0
  7  8  1  0
  8  9  1  0
  9 10  2  0
 10 11  1  0
 11 12  1  0
 12 13  1  0
 13 14  1  0
 14 15  1  0
 15 16  1  0
 15 17  1  0
 15 18  1  0
 14 19  1  6
 13 20  1  0
 13 21  1  0
 12 22  1  1
 11 23  2  0
 23 24  1  0
 24 25  1  0
 25 26  2  0
 26 27  1  0
 27 28  2  0
 28 29  1  0
 29 30  2  0
 30 31  1  0
 28 32  1  0
 27 33  1  0
 26 34  1  0
  8 35  1  0
  8 36  1  0
  6 37  1  0
  4 38  1  0
  3 39  1  0
  1 40  1  0
  1 41  1  0
  1 42  1  0
  7  2  1  0
 24  9  1  0
 30 25  1  0
 14 12  1  0
M  END
>  <cnnaffinity>  (1) 
-6.06164

>  <filename>  (1) 
Cc1ccncc1Cc1nc([C@@H]2C[C@H]2C)nn1-c1cccnc1

$$$$
