
     RDKit          3D

 46 49  0  0  0  0  0  0  0  0999 V2000
   11.9697    2.7033   24.1640 C   0  0  0  0  0  0  0  0  0  0  0  0
   11.6903    1.6588   23.1473 C   0  0  0  0  0  0  0  0  0  0  0  0
   10.6148    1.6612   22.3769 N   0  0  0  0  0  0  0  0  0  0  0  0
   10.7543    0.5810   21.5787 N   0  0  0  0  0  0  0  0  0  0  0  0
    9.6692    0.2204   20.6955 C   0  0  0  0  0  0  0  0  0  0  0  0
    8.6382   -0.6108   21.3628 C   0  0  0  0  0  0  0  0  0  0  0  0
    8.8503   -1.4759   22.3249 N   0  0  0  0  0  0  0  0  0  0  0  0
    7.6120   -1.9811   22.5650 C   0  0  0  0  0  0  0  0  0  0  0  0
    7.3852   -2.9391   23.6858 C   0  0  0  0  0  0  0  0  0  0  0  0
    7.7200   -2.3571   25.0803 C   0  0  0  0  0  0  0  0  0  0  0  0
    8.0173   -3.5763   25.9736 C   0  0  0  0  0  0  0  0  0  0  0  0
    8.3465   -4.7574   25.0245 C   0  0  0  0  0  0  0  0  0  0  0  0
    8.2481   -4.2150   23.5875 C   0  0  0  0  0  0  0  0  0  0  0  0
    7.8129   -4.9405   22.8915 H   0  0  0  0  0  0  0  0  0  0  0  0
    9.2431   -3.9618   23.2023 H   0  0  0  0  0  0  0  0  0  0  0  0
    7.6424   -5.5817   25.1841 H   0  0  0  0  0  0  0  0  0  0  0  0
    9.3407   -5.1722   25.2200 H   0  0  0  0  0  0  0  0  0  0  0  0
    7.1559   -3.8237   26.6044 H   0  0  0  0  0  0  0  0  0  0  0  0
    8.8407   -3.3657   26.6638 H   0  0  0  0  0  0  0  0  0  0  0  0
    6.9001   -1.7415   25.4681 H   0  0  0  0  0  0  0  0  0  0  0  0
    8.5987   -1.7033   25.0099 H   0  0  0  0  0  0  0  0  0  0  0  0
    6.3247   -3.2001   23.6441 H   0  0  0  0  0  0  0  0  0  0  0  0
    6.6713   -1.5338   21.7604 N   0  0  0  0  0  0  0  0  0  0  0  0
    7.3394   -0.6769   20.9431 N   0  0  0  0  0  0  0  0  0  0  0  0
    6.6569    0.0091   19.9039 C   0  0  0  0  0  0  0  0  0  0  0  0
    5.4381    0.6474   20.1653 C   0  0  0  0  0  0  0  0  0  0  0  0
    4.8130    1.3113   19.1085 C   0  0  0  0  0  0  0  0  0  0  0  0
    5.4018    1.2958   17.8366 C   0  0  0  0  0  0  0  0  0  0  0  0
    6.5613    0.6730   17.5766 N   0  0  0  0  0  0  0  0  0  0  0  0
    7.1697    0.0532   18.5938 C   0  0  0  0  0  0  0  0  0  0  0  0
    8.1127   -0.4340   18.3614 H   0  0  0  0  0  0  0  0  0  0  0  0
    4.9233    1.7854   16.9927 H   0  0  0  0  0  0  0  0  0  0  0  0
    3.8810    1.8398   19.2592 H   0  0  0  0  0  0  0  0  0  0  0  0
    5.0164    0.6090   21.1730 H   0  0  0  0  0  0  0  0  0  0  0  0
    9.2492    1.1427   20.2995 H   0  0  0  0  0  0  0  0  0  0  0  0
   10.0484   -0.3802   19.8676 H   0  0  0  0  0  0  0  0  0  0  0  0
   11.8847   -0.1251   21.8655 C   0  0  0  0  0  0  0  0  0  0  0  0
   12.2847   -1.3849   21.1766 C   0  0  0  0  0  0  0  0  0  0  0  0
   12.5617   -1.2211   20.1311 H   0  0  0  0  0  0  0  0  0  0  0  0
   13.1612   -1.7976   21.6802 H   0  0  0  0  0  0  0  0  0  0  0  0
   11.4765   -2.1241   21.2030 H   0  0  0  0  0  0  0  0  0  0  0  0
   12.5182    0.5510   22.8767 C   0  0  0  0  0  0  0  0  0  0  0  0
   13.4576    0.2876   23.3461 H   0  0  0  0  0  0  0  0  0  0  0  0
   11.0680    3.2049   24.5148 H   0  0  0  0  0  0  0  0  0  0  0  0
   12.4450    2.2023   25.0067 H   0  0  0  0  0  0  0  0  0  0  0  0
   12.6594    3.4519   23.7593 H   0  0  0  0  0  0  0  0  0  0  0  0
  1  2  1  0
  2  3  2  0
  3  4  1  0
  4  5  1  0
  5  6  1  0
  6  7  2  0
  7  8  1  0
  8  9  1  0
  9 10  1  0
 10 11  1  0
 11 12  1  0
 12 13  1  0
 13 14  1  0
 13 15  1  0
 12 16  1  0
 12 17  1  0
 11 18  1  0
 11 19  1  0
 10 20  1  0
 10 21  1  0
  9 22  1  0
  8 23  2  0
 23 24  1  0
 24 25  1  0
 25 26  2  0
 26 27  1  0
 27 28  2  0
 28 29  1  0
 29 30  2  0
 30 31  1  0
 28 32  1  0
 27 33  1  0
 26 34  1  0
  5 35  1  0
  5 36  1  0
  4 37  1  0
 37 38  1  0
 38 39  1  0
 38 40  1  0
 38 41  1  0
 37 42  2  0
 42 43  1  0
  1 44  1  0
  1 45  1  0
  1 46  1  0
 42  2  1  0
 24  6  1  0
 30 25  1  0
 13  9  1  0
M  END
>  <cnnaffinity>  (1) 
-6.48204

>  <filename>  (1) 
Cc1cc(C)n(Cc2nc(C3CCCC3)nn2-c2cccnc2)n1

$$$$
