
     RDKit          3D

 31 33  0  0  0  0  0  0  0  0999 V2000
    5.1562    1.7583   16.9128 H   0  0  0  0  0  0  0  0  0  0  0  0
    5.5562    1.2400   17.7815 C   0  0  0  0  0  0  0  0  0  0  0  0
    6.7023    0.5666   17.5942 N   0  0  0  0  0  0  0  0  0  0  0  0
    7.2315   -0.0625   18.6475 C   0  0  0  0  0  0  0  0  0  0  0  0
    8.1562   -0.6143   18.4747 H   0  0  0  0  0  0  0  0  0  0  0  0
    6.6586   -0.0305   19.9270 C   0  0  0  0  0  0  0  0  0  0  0  0
    7.3850   -0.6716   21.0167 C   0  0  0  0  0  0  0  0  0  0  0  0
    8.3971   -1.5111   20.9129 N   0  0  0  0  0  0  0  0  0  0  0  0
    8.6606   -1.8170   22.2001 C   0  0  0  0  0  0  0  0  0  0  0  0
    9.6403   -2.6878   22.4638 O   0  0  0  0  0  0  0  0  0  0  0  0
    9.6934   -3.4058   23.6541 C   0  0  0  0  0  0  0  0  0  0  0  0
   10.9719   -3.8592   23.9868 C   0  0  0  0  0  0  0  0  0  0  0  0
   11.8077   -3.5487   23.3725 H   0  0  0  0  0  0  0  0  0  0  0  0
   11.1378   -4.7442   25.0483 C   0  0  0  0  0  0  0  0  0  0  0  0
   12.1259   -5.1184   25.3009 H   0  0  0  0  0  0  0  0  0  0  0  0
   10.0312   -5.1350   25.8012 C   0  0  0  0  0  0  0  0  0  0  0  0
   10.1489   -5.8649   26.5983 H   0  0  0  0  0  0  0  0  0  0  0  0
    8.7604   -4.6016   25.5357 C   0  0  0  0  0  0  0  0  0  0  0  0
    7.6263   -4.9342   26.4807 C   0  0  0  0  0  0  0  0  0  0  0  0
    7.2198   -5.9401   26.3263 H   0  0  0  0  0  0  0  0  0  0  0  0
    6.7947   -4.2281   26.4101 H   0  0  0  0  0  0  0  0  0  0  0  0
    7.9749   -4.9077   27.5180 H   0  0  0  0  0  0  0  0  0  0  0  0
    8.5783   -3.7532   24.4281 C   0  0  0  0  0  0  0  0  0  0  0  0
    7.5987   -3.3420   24.1841 H   0  0  0  0  0  0  0  0  0  0  0  0
    7.9215   -1.2011   23.1086 N   0  0  0  0  0  0  0  0  0  0  0  0
    7.0957   -0.4706   22.3151 N   0  0  0  0  0  0  0  0  0  0  0  0
    6.3626    0.0966   22.7121 H   0  0  0  0  0  0  0  0  0  0  0  0
    5.4301    0.6300   20.0988 C   0  0  0  0  0  0  0  0  0  0  0  0
    4.9118    0.6294   21.0622 H   0  0  0  0  0  0  0  0  0  0  0  0
    4.8765    1.2860   19.0050 C   0  0  0  0  0  0  0  0  0  0  0  0
    3.9475    1.8403   19.0928 H   0  0  0  0  0  0  0  0  0  0  0  0
  1  2  1  0
  2  3  2  0
  3  4  1  0
  4  5  1  0
  4  6  2  0
  6  7  1  0
  7  8  2  0
  8  9  1  0
  9 10  1  0
 10 11  1  0
 11 12  2  0
 12 13  1  0
 12 14  1  0
 14 15  1  0
 14 16  2  0
 16 17  1  0
 16 18  1  0
 18 19  1  0
 19 20  1  0
 19 21  1  0
 19 22  1  0
 18 23  2  0
 23 24  1  0
  9 25  2  0
 25 26  1  0
 26 27  1  0
  6 28  1  0
 28 29  1  0
 28 30  2  0
 30 31  1  0
 30  2  1  0
 26  7  1  0
 23 11  1  0
M  END
>  <cnnaffinity>  (1) 
-5.20653

>  <filename>  (1) 
Cc1cccc(Oc2n[nH]c(-c3cccnc3)n2)c1

$$$$
