
     RDKit          3D

 45 48  0  0  0  0  0  0  0  0999 V2000
    8.8108    3.0105   25.8745 C   0  0  0  0  0  0  0  0  0  0  0  0
    7.3664    2.6151   26.0581 C   0  0  0  0  0  0  0  0  0  0  0  0
    6.6984    3.1095   27.1895 C   0  0  0  0  0  0  0  0  0  0  0  0
    5.3499    2.8468   27.4295 C   0  0  0  0  0  0  0  0  0  0  0  0
    4.6299    2.0734   26.5161 C   0  0  0  0  0  0  0  0  0  0  0  0
    5.2694    1.5495   25.3908 C   0  0  0  0  0  0  0  0  0  0  0  0
    6.6416    1.8011   25.1445 C   0  0  0  0  0  0  0  0  0  0  0  0
    7.2919    1.2512   23.9184 C   0  0  0  0  0  0  0  0  0  0  0  0
    6.6852    0.3889   23.1127 N   0  0  0  0  0  0  0  0  0  0  0  0
    7.5762    0.2049   22.1098 N   0  0  0  0  0  0  0  0  0  0  0  0
    7.2926   -0.6778   20.9853 C   0  0  0  0  0  0  0  0  0  0  0  0
    6.6476    0.0113   19.7969 C   0  0  0  0  0  0  0  0  0  0  0  0
    5.4420    0.7037   19.9652 C   0  0  0  0  0  0  0  0  0  0  0  0
    4.8856    1.3539   18.8640 C   0  0  0  0  0  0  0  0  0  0  0  0
    5.5432    1.2788   17.6322 C   0  0  0  0  0  0  0  0  0  0  0  0
    6.6812    0.5916   17.4429 N   0  0  0  0  0  0  0  0  0  0  0  0
    7.2061   -0.0211   18.5114 C   0  0  0  0  0  0  0  0  0  0  0  0
    8.1267   -0.5820   18.3344 H   0  0  0  0  0  0  0  0  0  0  0  0
    5.1389    1.7816   16.7554 H   0  0  0  0  0  0  0  0  0  0  0  0
    3.9712    1.9328   18.9516 H   0  0  0  0  0  0  0  0  0  0  0  0
    4.9711    0.7304   20.9503 H   0  0  0  0  0  0  0  0  0  0  0  0
    6.6346   -1.4543   21.3829 H   0  0  0  0  0  0  0  0  0  0  0  0
    8.2198   -1.1730   20.6750 H   0  0  0  0  0  0  0  0  0  0  0  0
    8.6506    0.9931   22.3186 C   0  0  0  0  0  0  0  0  0  0  0  0
    9.7510    1.2399   21.3436 C   0  0  0  0  0  0  0  0  0  0  0  0
   11.0494    0.6070   21.7626 C   0  0  0  0  0  0  0  0  0  0  0  0
   11.3882   -0.6847   21.3306 C   0  0  0  0  0  0  0  0  0  0  0  0
   12.6202   -1.2493   21.6800 C   0  0  0  0  0  0  0  0  0  0  0  0
   13.4426   -0.4793   22.5006 C   0  0  0  0  0  0  0  0  0  0  0  0
   14.6364   -0.9393   22.8951 F   0  0  0  0  0  0  0  0  0  0  0  0
   13.0285    0.7875   22.9243 C   0  0  0  0  0  0  0  0  0  0  0  0
   11.8543    1.3244   22.5547 N   0  0  0  0  0  0  0  0  0  0  0  0
   13.6800    1.3654   23.5742 H   0  0  0  0  0  0  0  0  0  0  0  0
   12.9483   -2.2206   21.3158 H   0  0  0  0  0  0  0  0  0  0  0  0
   10.7000   -1.2220   20.6890 H   0  0  0  0  0  0  0  0  0  0  0  0
    9.4431    0.8760   20.3604 H   0  0  0  0  0  0  0  0  0  0  0  0
    9.8903    2.3203   21.2768 H   0  0  0  0  0  0  0  0  0  0  0  0
    8.5298    1.6157   23.4633 N   0  0  0  0  0  0  0  0  0  0  0  0
    4.7042    0.9426   24.6850 H   0  0  0  0  0  0  0  0  0  0  0  0
    3.5713    1.8881   26.6838 H   0  0  0  0  0  0  0  0  0  0  0  0
    4.8684    3.2539   28.3150 H   0  0  0  0  0  0  0  0  0  0  0  0
    7.2577    3.7276   27.8887 H   0  0  0  0  0  0  0  0  0  0  0  0
    9.1449    3.6416   26.6977 H   0  0  0  0  0  0  0  0  0  0  0  0
    9.4701    2.1425   25.8229 H   0  0  0  0  0  0  0  0  0  0  0  0
    8.9565    3.5666   24.9468 H   0  0  0  0  0  0  0  0  0  0  0  0
  1  2  1  0
  2  3  2  0
  3  4  1  0
  4  5  2  0
  5  6  1  0
  6  7  2  0
  7  8  1  0
  8  9  2  0
  9 10  1  0
 10 11  1  0
 11 12  1  0
 12 13  2  0
 13 14  1  0
 14 15  2  0
 15 16  1  0
 16 17  2  0
 17 18  1  0
 15 19  1  0
 14 20  1  0
 13 21  1  0
 11 22  1  0
 11 23  1  0
 10 24  1  0
 24 25  1  0
 25 26  1  0
 26 27  2  0
 27 28  1  0
 28 29  2  0
 29 30  1  0
 29 31  1  0
 31 32  2  0
 31 33  1  0
 28 34  1  0
 27 35  1  0
 25 36  1  0
 25 37  1  0
 24 38  2  0
  6 39  1  0
  5 40  1  0
  4 41  1  0
  3 42  1  0
  1 43  1  0
  1 44  1  0
  1 45  1  0
  7  2  1  0
 38  8  1  0
 17 12  1  0
 32 26  1  0
M  END
>  <cnnaffinity>  (1) 
-6.15459

>  <filename>  (1) 
Cc1ccccc1-c1nc(Cc2ccc(F)cn2)n(Cc2cccnc2)n1

$$$$
