
     RDKit          3D

 49 52  0  0  0  0  0  0  0  0999 V2000
    7.4071    2.2921   21.4324 C   0  0  0  0  0  0  0  0  0  0  0  0
    8.7918    1.9729   21.9026 C   0  0  0  0  0  0  0  0  0  0  0  0
    9.4526    2.5071   22.9884 C   0  0  0  0  0  0  0  0  0  0  0  0
   10.7083    1.8583   23.0008 C   0  0  0  0  0  0  0  0  0  0  0  0
   11.7883    2.0429   24.0335 C   0  0  0  0  0  0  0  0  0  0  0  0
   11.9341    3.3559   24.3171 F   0  0  0  0  0  0  0  0  0  0  0  0
   12.9757    1.5573   23.6570 F   0  0  0  0  0  0  0  0  0  0  0  0
   11.4513    1.4421   25.1946 F   0  0  0  0  0  0  0  0  0  0  0  0
   10.8011    0.9784   22.0183 N   0  0  0  0  0  0  0  0  0  0  0  0
    9.6464    1.0566   21.3472 N   0  0  0  0  0  0  0  0  0  0  0  0
    9.3585    0.0293   20.3486 C   0  0  0  0  0  0  0  0  0  0  0  0
    8.3354   -0.9234   20.8574 C   0  0  0  0  0  0  0  0  0  0  0  0
    8.5614   -1.7185   21.8799 N   0  0  0  0  0  0  0  0  0  0  0  0
    7.3243   -2.1825   22.1961 C   0  0  0  0  0  0  0  0  0  0  0  0
    7.1088   -2.9762   23.4438 C   0  0  0  0  0  0  0  0  0  0  0  0
    6.8721   -2.0602   24.6632 C   0  0  0  0  0  0  0  0  0  0  0  0
    8.0237   -1.0958   24.9927 C   0  0  0  0  0  0  0  0  0  0  0  0
    7.6720   -0.6308   26.4069 C   0  0  0  0  0  0  0  0  0  0  0  0
    7.2733   -1.9393   27.1051 C   0  0  0  0  0  0  0  0  0  0  0  0
    6.5679   -2.7741   26.0055 C   0  0  0  0  0  0  0  0  0  0  0  0
    6.9183   -3.8118   26.0262 H   0  0  0  0  0  0  0  0  0  0  0  0
    5.4850   -2.8260   26.1644 H   0  0  0  0  0  0  0  0  0  0  0  0
    8.1807   -2.4575   27.4455 H   0  0  0  0  0  0  0  0  0  0  0  0
    6.6337   -1.7813   27.9799 H   0  0  0  0  0  0  0  0  0  0  0  0
    6.8175    0.0618   26.3723 H   0  0  0  0  0  0  0  0  0  0  0  0
    8.4898   -0.1067   26.9098 H   0  0  0  0  0  0  0  0  0  0  0  0
    8.1155   -0.2838   24.2606 H   0  0  0  0  0  0  0  0  0  0  0  0
    8.9793   -1.6441   25.0024 H   0  0  0  0  0  0  0  0  0  0  0  0
    5.9998   -1.4313   24.4289 H   0  0  0  0  0  0  0  0  0  0  0  0
    6.2496   -3.6317   23.2903 H   0  0  0  0  0  0  0  0  0  0  0  0
    7.9970   -3.6020   23.5910 H   0  0  0  0  0  0  0  0  0  0  0  0
    6.3579   -1.7657   21.3965 N   0  0  0  0  0  0  0  0  0  0  0  0
    7.0177   -0.9783   20.4991 N   0  0  0  0  0  0  0  0  0  0  0  0
    6.3206   -0.2491   19.5011 C   0  0  0  0  0  0  0  0  0  0  0  0
    5.1712    0.4817   19.8272 C   0  0  0  0  0  0  0  0  0  0  0  0
    4.6555    1.3616   18.8738 C   0  0  0  0  0  0  0  0  0  0  0  0
    5.2620    1.4379   17.6146 C   0  0  0  0  0  0  0  0  0  0  0  0
    6.3023    0.6663   17.2607 N   0  0  0  0  0  0  0  0  0  0  0  0
    6.8056   -0.1639   18.1835 C   0  0  0  0  0  0  0  0  0  0  0  0
    7.6407   -0.7853   17.8616 H   0  0  0  0  0  0  0  0  0  0  0  0
    4.8999    2.1379   16.8653 H   0  0  0  0  0  0  0  0  0  0  0  0
    3.8131    2.0039   19.1026 H   0  0  0  0  0  0  0  0  0  0  0  0
    4.7337    0.3862   20.8232 H   0  0  0  0  0  0  0  0  0  0  0  0
   10.2825   -0.5313   20.2222 H   0  0  0  0  0  0  0  0  0  0  0  0
    9.0903    0.5003   19.4053 H   0  0  0  0  0  0  0  0  0  0  0  0
    9.0739    3.2738   23.6481 H   0  0  0  0  0  0  0  0  0  0  0  0
    7.1789    3.3461   21.6226 H   0  0  0  0  0  0  0  0  0  0  0  0
    7.2960    2.0966   20.3617 H   0  0  0  0  0  0  0  0  0  0  0  0
    6.6633    1.6951   21.9806 H   0  0  0  0  0  0  0  0  0  0  0  0
  1  2  1  0
  2  3  2  0
  3  4  1  0
  4  5  1  0
  5  6  1  0
  5  7  1  0
  5  8  1  0
  4  9  2  0
  9 10  1  0
 10 11  1  0
 11 12  1  0
 12 13  2  0
 13 14  1  0
 14 15  1  0
 15 16  1  0
 16 17  1  0
 17 18  1  0
 18 19  1  0
 19 20  1  0
 20 21  1  0
 20 22  1  0
 19 23  1  0
 19 24  1  0
 18 25  1  0
 18 26  1  0
 17 27  1  0
 17 28  1  0
 16 29  1  0
 15 30  1  0
 15 31  1  0
 14 32  2  0
 32 33  1  0
 33 34  1  0
 34 35  2  0
 35 36  1  0
 36 37  2  0
 37 38  1  0
 38 39  2  0
 39 40  1  0
 37 41  1  0
 36 42  1  0
 35 43  1  0
 11 44  1  0
 11 45  1  0
  3 46  1  0
  1 47  1  0
  1 48  1  0
  1 49  1  0
 10  2  1  0
 33 12  1  0
 39 34  1  0
 20 16  1  0
M  END
>  <cnnaffinity>  (1) 
-6.80508

>  <filename>  (1) 
Cc1cc(C(F)(F)F)nn1Cc1nc(CC2CCCC2)nn1-c1cccnc1

$$$$
