
     RDKit          3D

 46 49  0  0  0  0  0  0  0  0999 V2000
    8.0925    2.6452   22.1171 C   0  0  0  0  0  0  0  0  0  0  0  0
    9.4894    2.2786   22.5565 C   0  0  0  0  0  0  0  0  0  0  0  0
   10.0880    2.9760   23.6071 C   0  0  0  0  0  0  0  0  0  0  0  0
   11.3727    2.6146   24.0160 C   0  0  0  0  0  0  0  0  0  0  0  0
   12.0136    1.5691   23.3576 C   0  0  0  0  0  0  0  0  0  0  0  0
   11.4661    0.8862   22.3425 N   0  0  0  0  0  0  0  0  0  0  0  0
   10.2379    1.2325   21.9543 C   0  0  0  0  0  0  0  0  0  0  0  0
    9.6389    0.4074   20.8494 C   0  0  0  0  0  0  0  0  0  0  0  0
    8.6332   -0.5312   21.3842 C   0  0  0  0  0  0  0  0  0  0  0  0
    8.8766   -1.3880   22.3527 N   0  0  0  0  0  0  0  0  0  0  0  0
    7.6825   -2.0034   22.5219 C   0  0  0  0  0  0  0  0  0  0  0  0
    7.4277   -3.0174   23.6067 C   0  0  0  0  0  0  0  0  0  0  0  0
    6.8574   -4.3426   23.0439 C   0  0  0  0  0  0  0  0  0  0  0  0
    6.4628   -5.2894   24.1770 C   0  0  0  0  0  0  0  0  0  0  0  0
    5.5525   -4.6801   25.0765 O   0  0  0  0  0  0  0  0  0  0  0  0
    6.1129   -3.5438   25.7135 C   0  0  0  0  0  0  0  0  0  0  0  0
    6.4840   -2.4577   24.7055 C   0  0  0  0  0  0  0  0  0  0  0  0
    6.9478   -1.6092   25.2247 H   0  0  0  0  0  0  0  0  0  0  0  0
    5.5663   -2.0917   24.2364 H   0  0  0  0  0  0  0  0  0  0  0  0
    7.0073   -3.8433   26.2881 H   0  0  0  0  0  0  0  0  0  0  0  0
    5.3628   -3.1821   26.4221 H   0  0  0  0  0  0  0  0  0  0  0  0
    7.3645   -5.6150   24.7266 H   0  0  0  0  0  0  0  0  0  0  0  0
    5.9652   -6.1814   23.7876 H   0  0  0  0  0  0  0  0  0  0  0  0
    5.9694   -4.1202   22.4396 H   0  0  0  0  0  0  0  0  0  0  0  0
    7.5901   -4.8315   22.3900 H   0  0  0  0  0  0  0  0  0  0  0  0
    8.4062   -3.2130   24.0607 H   0  0  0  0  0  0  0  0  0  0  0  0
    6.7265   -1.5995   21.7003 N   0  0  0  0  0  0  0  0  0  0  0  0
    7.3550   -0.6782   20.9291 N   0  0  0  0  0  0  0  0  0  0  0  0
    6.6490   -0.0031   19.8972 C   0  0  0  0  0  0  0  0  0  0  0  0
    5.4369    0.6401   20.1663 C   0  0  0  0  0  0  0  0  0  0  0  0
    4.8115    1.3101   19.1097 C   0  0  0  0  0  0  0  0  0  0  0  0
    5.3981    1.2965   17.8377 C   0  0  0  0  0  0  0  0  0  0  0  0
    6.5546    0.6706   17.5736 N   0  0  0  0  0  0  0  0  0  0  0  0
    7.1612    0.0451   18.5877 C   0  0  0  0  0  0  0  0  0  0  0  0
    8.1116   -0.4329   18.3634 H   0  0  0  0  0  0  0  0  0  0  0  0
    4.9198    1.7872   16.9937 H   0  0  0  0  0  0  0  0  0  0  0  0
    3.8805    1.8401   19.2610 H   0  0  0  0  0  0  0  0  0  0  0  0
    5.0146    0.6121   21.1756 H   0  0  0  0  0  0  0  0  0  0  0  0
   10.4115   -0.2269   20.4257 H   0  0  0  0  0  0  0  0  0  0  0  0
    9.1880    1.0400   20.0871 H   0  0  0  0  0  0  0  0  0  0  0  0
   13.0114    1.2578   23.6564 H   0  0  0  0  0  0  0  0  0  0  0  0
   11.8698    3.1346   24.8193 H   0  0  0  0  0  0  0  0  0  0  0  0
    9.5428    3.7904   24.0914 H   0  0  0  0  0  0  0  0  0  0  0  0
    7.3759    1.8411   22.3153 H   0  0  0  0  0  0  0  0  0  0  0  0
    7.7377    3.5384   22.6353 H   0  0  0  0  0  0  0  0  0  0  0  0
    8.0390    2.8430   21.0453 H   0  0  0  0  0  0  0  0  0  0  0  0
  1  2  1  0
  2  3  2  0
  3  4  1  0
  4  5  2  0
  5  6  1  0
  6  7  2  0
  7  8  1  0
  8  9  1  0
  9 10  2  0
 10 11  1  0
 11 12  1  0
 12 13  1  0
 13 14  1  0
 14 15  1  0
 15 16  1  0
 16 17  1  0
 17 18  1  0
 17 19  1  0
 16 20  1  0
 16 21  1  0
 14 22  1  0
 14 23  1  0
 13 24  1  0
 13 25  1  0
 12 26  1  0
 11 27  2  0
 27 28  1  0
 28 29  1  0
 29 30  2  0
 30 31  1  0
 31 32  2  0
 32 33  1  0
 33 34  2  0
 34 35  1  0
 32 36  1  0
 31 37  1  0
 30 38  1  0
  8 39  1  0
  8 40  1  0
  5 41  1  0
  4 42  1  0
  3 43  1  0
  1 44  1  0
  1 45  1  0
  1 46  1  0
  7  2  1  0
 28  9  1  0
 34 29  1  0
 17 12  1  0
M  END
>  <cnnaffinity>  (1) 
-6.03646

>  <filename>  (1) 
Cc1cccnc1Cc1nc(C2CCOCC2)nn1-c1cccnc1

$$$$
