
     RDKit          3D

 46 49  0  0  0  0  0  0  0  0999 V2000
   14.1971    0.4272   23.7397 C   0  0  0  0  0  0  0  0  0  0  0  0
   13.1412   -0.0297   22.7904 C   0  0  0  0  0  0  0  0  0  0  0  0
   13.2581   -1.1830   22.0707 C   0  0  0  0  0  0  0  0  0  0  0  0
   12.2332   -1.5705   21.1702 C   0  0  0  0  0  0  0  0  0  0  0  0
   11.1187   -0.8074   21.0313 C   0  0  0  0  0  0  0  0  0  0  0  0
   11.0190    0.4206   21.6245 N   0  0  0  0  0  0  0  0  0  0  0  0
    9.8999    1.3157   21.2637 C   0  0  0  0  0  0  0  0  0  0  0  0
    8.7028    1.2239   22.1679 C   0  0  0  0  0  0  0  0  0  0  0  0
    8.5278    1.9743   23.2311 N   0  0  0  0  0  0  0  0  0  0  0  0
    7.5107    1.3620   23.8925 C   0  0  0  0  0  0  0  0  0  0  0  0
    7.0758    1.8282   25.2225 C   0  0  0  0  0  0  0  0  0  0  0  0
    5.9363    1.3041   25.8675 C   0  0  0  0  0  0  0  0  0  0  0  0
    5.5548    1.7845   27.1203 C   0  0  0  0  0  0  0  0  0  0  0  0
    6.3208    2.7779   27.7270 C   0  0  0  0  0  0  0  0  0  0  0  0
    5.9463    3.2477   28.9261 F   0  0  0  0  0  0  0  0  0  0  0  0
    7.4636    3.3004   27.1271 C   0  0  0  0  0  0  0  0  0  0  0  0
    7.8385    2.8175   25.8775 C   0  0  0  0  0  0  0  0  0  0  0  0
    8.7372    3.2000   25.3958 H   0  0  0  0  0  0  0  0  0  0  0  0
    8.0359    4.0699   27.6314 H   0  0  0  0  0  0  0  0  0  0  0  0
    4.6784    1.4038   27.6328 H   0  0  0  0  0  0  0  0  0  0  0  0
    5.3565    0.5127   25.3954 H   0  0  0  0  0  0  0  0  0  0  0  0
    7.0122    0.3212   23.2476 N   0  0  0  0  0  0  0  0  0  0  0  0
    7.7736    0.2379   22.1328 N   0  0  0  0  0  0  0  0  0  0  0  0
    7.3603   -0.6656   21.0560 C   0  0  0  0  0  0  0  0  0  0  0  0
    6.6655    0.0288   19.8999 C   0  0  0  0  0  0  0  0  0  0  0  0
    5.4474    0.6827   20.1270 C   0  0  0  0  0  0  0  0  0  0  0  0
    4.8222    1.3251   19.0583 C   0  0  0  0  0  0  0  0  0  0  0  0
    5.4356    1.2932   17.8022 C   0  0  0  0  0  0  0  0  0  0  0  0
    6.5864    0.6495   17.5579 N   0  0  0  0  0  0  0  0  0  0  0  0
    7.1727    0.0318   18.5922 C   0  0  0  0  0  0  0  0  0  0  0  0
    8.0891   -0.5117   18.3559 H   0  0  0  0  0  0  0  0  0  0  0  0
    4.9781    1.7979   16.9535 H   0  0  0  0  0  0  0  0  0  0  0  0
    3.8820    1.8490   19.1870 H   0  0  0  0  0  0  0  0  0  0  0  0
    5.0010    0.6839   21.1244 H   0  0  0  0  0  0  0  0  0  0  0  0
    8.2194   -1.2520   20.7164 H   0  0  0  0  0  0  0  0  0  0  0  0
    6.6635   -1.3648   21.5273 H   0  0  0  0  0  0  0  0  0  0  0  0
   10.2664    2.3416   21.3041 H   0  0  0  0  0  0  0  0  0  0  0  0
    9.5889    1.1083   20.2367 H   0  0  0  0  0  0  0  0  0  0  0  0
   11.9937    0.8688   22.5687 C   0  0  0  0  0  0  0  0  0  0  0  0
   11.8630    1.9481   23.1295 O   0  0  0  0  0  0  0  0  0  0  0  0
   10.2863   -1.0968   20.3903 H   0  0  0  0  0  0  0  0  0  0  0  0
   12.3894   -2.4078   20.5171 H   0  0  0  0  0  0  0  0  0  0  0  0
   14.1361   -1.8255   22.1828 H   0  0  0  0  0  0  0  0  0  0  0  0
   13.8136    0.6312   24.7448 H   0  0  0  0  0  0  0  0  0  0  0  0
   14.6382    1.3593   23.3781 H   0  0  0  0  0  0  0  0  0  0  0  0
   14.9852   -0.3244   23.8206 H   0  0  0  0  0  0  0  0  0  0  0  0
  1  2  1  0
  2  3  2  0
  3  4  1  0
  4  5  2  0
  5  6  1  0
  6  7  1  0
  7  8  1  0
  8  9  2  0
  9 10  1  0
 10 11  1  0
 11 12  2  0
 12 13  1  0
 13 14  2  0
 14 15  1  0
 14 16  1  0
 16 17  2  0
 17 18  1  0
 16 19  1  0
 13 20  1  0
 12 21  1  0
 10 22  2  0
 22 23  1  0
 23 24  1  0
 24 25  1  0
 25 26  2  0
 26 27  1  0
 27 28  2  0
 28 29  1  0
 29 30  2  0
 30 31  1  0
 28 32  1  0
 27 33  1  0
 26 34  1  0
 24 35  1  0
 24 36  1  0
  7 37  1  0
  7 38  1  0
  6 39  1  0
 39 40  2  0
  5 41  1  0
  4 42  1  0
  3 43  1  0
  1 44  1  0
  1 45  1  0
  1 46  1  0
 39  2  1  0
 23  8  1  0
 30 25  1  0
 17 11  1  0
M  END
>  <cnnaffinity>  (1) 
-6.31226

>  <filename>  (1) 
Cc1cccn(Cc2nc(-c3ccc(F)cc3)nn2Cc2cccnc2)c1=O

$$$$
