
     RDKit          3D

 45 48  0  0  0  0  0  0  0  0999 V2000
    6.1277    3.5291   29.0946 C   0  0  0  0  0  0  0  0  0  0  0  0
    6.4498    2.9928   27.7265 C   0  0  0  0  0  0  0  0  0  0  0  0
    5.7520    1.9124   27.1596 C   0  0  0  0  0  0  0  0  0  0  0  0
    6.1104    1.3618   25.9265 C   0  0  0  0  0  0  0  0  0  0  0  0
    7.1968    1.8934   25.2054 C   0  0  0  0  0  0  0  0  0  0  0  0
    7.6260    1.3499   23.8929 C   0  0  0  0  0  0  0  0  0  0  0  0
    7.0112    0.3970   23.2092 N   0  0  0  0  0  0  0  0  0  0  0  0
    7.7765    0.2613   22.0990 N   0  0  0  0  0  0  0  0  0  0  0  0
    7.3929   -0.6591   21.0276 C   0  0  0  0  0  0  0  0  0  0  0  0
    6.6739    0.0149   19.8737 C   0  0  0  0  0  0  0  0  0  0  0  0
    5.4593    0.6744   20.0975 C   0  0  0  0  0  0  0  0  0  0  0  0
    4.8356    1.3185   19.0255 C   0  0  0  0  0  0  0  0  0  0  0  0
    5.4490    1.2829   17.7693 C   0  0  0  0  0  0  0  0  0  0  0  0
    6.5941    0.6277   17.5280 N   0  0  0  0  0  0  0  0  0  0  0  0
    7.1798    0.0131   18.5651 C   0  0  0  0  0  0  0  0  0  0  0  0
    8.0986   -0.5282   18.3302 H   0  0  0  0  0  0  0  0  0  0  0  0
    4.9987    1.7955   16.9183 H   0  0  0  0  0  0  0  0  0  0  0  0
    3.9030    1.8577   19.1519 H   0  0  0  0  0  0  0  0  0  0  0  0
    5.0193    0.6837   21.0965 H   0  0  0  0  0  0  0  0  0  0  0  0
    6.7441   -1.4056   21.4957 H   0  0  0  0  0  0  0  0  0  0  0  0
    8.2959   -1.1735   20.6784 H   0  0  0  0  0  0  0  0  0  0  0  0
    8.8016    1.1346   22.1654 C   0  0  0  0  0  0  0  0  0  0  0  0
    9.9388    1.2384   21.2115 C   0  0  0  0  0  0  0  0  0  0  0  0
   11.0439    0.3130   21.6222 C   0  0  0  0  0  0  0  0  0  0  0  0
   11.8857    0.2792   22.6902 C   0  0  0  0  0  0  0  0  0  0  0  0
   12.1560    1.0567   23.9342 C   0  0  0  0  0  0  0  0  0  0  0  0
   11.3839    0.8321   24.6794 H   0  0  0  0  0  0  0  0  0  0  0  0
   13.1221    0.7547   24.3462 H   0  0  0  0  0  0  0  0  0  0  0  0
   12.1490    2.1321   23.7513 H   0  0  0  0  0  0  0  0  0  0  0  0
   12.5901   -0.8963   22.6035 O   0  0  0  0  0  0  0  0  0  0  0  0
   12.1205   -1.5094   21.5082 C   0  0  0  0  0  0  0  0  0  0  0  0
   11.1847   -0.8627   20.9032 N   0  0  0  0  0  0  0  0  0  0  0  0
   12.5604   -2.4593   21.2506 H   0  0  0  0  0  0  0  0  0  0  0  0
    9.6109    0.9630   20.2073 H   0  0  0  0  0  0  0  0  0  0  0  0
   10.2380    2.2905   21.1975 H   0  0  0  0  0  0  0  0  0  0  0  0
    8.7456    1.8265   23.2753 N   0  0  0  0  0  0  0  0  0  0  0  0
    7.9013    2.9867   25.7548 C   0  0  0  0  0  0  0  0  0  0  0  0
    7.5124    3.5147   26.9730 C   0  0  0  0  0  0  0  0  0  0  0  0
    8.1995    4.5730   27.4471 F   0  0  0  0  0  0  0  0  0  0  0  0
    8.7588    3.4242   25.2504 H   0  0  0  0  0  0  0  0  0  0  0  0
    5.5660    0.5087   25.5274 H   0  0  0  0  0  0  0  0  0  0  0  0
    4.9053    1.4957   27.7032 H   0  0  0  0  0  0  0  0  0  0  0  0
    5.1240    3.2310   29.4097 H   0  0  0  0  0  0  0  0  0  0  0  0
    6.1894    4.6206   29.1216 H   0  0  0  0  0  0  0  0  0  0  0  0
    6.8401    3.1447   29.8330 H   0  0  0  0  0  0  0  0  0  0  0  0
  1  2  1  0
  2  3  2  0
  3  4  1  0
  4  5  2  0
  5  6  1  0
  6  7  2  0
  7  8  1  0
  8  9  1  0
  9 10  1  0
 10 11  2  0
 11 12  1  0
 12 13  2  0
 13 14  1  0
 14 15  2  0
 15 16  1  0
 13 17  1  0
 12 18  1  0
 11 19  1  0
  9 20  1  0
  9 21  1  0
  8 22  1  0
 22 23  1  0
 23 24  1  0
 24 25  2  0
 25 26  1  0
 26 27  1  0
 26 28  1  0
 26 29  1  0
 25 30  1  0
 30 31  1  0
 31 32  2  0
 31 33  1  0
 23 34  1  0
 23 35  1  0
 22 36  2  0
  5 37  1  0
 37 38  2  0
 38 39  1  0
 37 40  1  0
  4 41  1  0
  3 42  1  0
  1 43  1  0
  1 44  1  0
  1 45  1  0
 38  2  1  0
 36  6  1  0
 15 10  1  0
 32 24  1  0
M  END
>  <cnnaffinity>  (1) 
-6.27055

>  <filename>  (1) 
Cc1ccc(-c2nc(Cc3ncoc3C)n(Cc3cccnc3)n2)cc1F

$$$$
