
     RDKit          3D

 42 45  0  0  0  0  0  0  0  0999 V2000
    9.6010    2.2842   21.0660 C   0  0  0  0  0  0  0  0  0  0  0  0
    9.7403    2.2643   22.5519 C   0  0  0  0  0  0  0  0  0  0  0  0
   10.9277    2.7078   23.1311 C   0  0  0  0  0  0  0  0  0  0  0  0
   11.0966    2.5819   24.5044 C   0  0  0  0  0  0  0  0  0  0  0  0
   10.1722    2.0747   25.3223 N   0  0  0  0  0  0  0  0  0  0  0  0
    9.0219    1.6778   24.7629 C   0  0  0  0  0  0  0  0  0  0  0  0
    8.7310    1.7638   23.3952 C   0  0  0  0  0  0  0  0  0  0  0  0
    7.4392    1.2032   22.8020 C   0  0  0  0  0  0  0  0  0  0  0  0
    7.6153   -0.1757   22.2197 C   0  0  0  0  0  0  0  0  0  0  0  0
    8.1385   -1.1866   22.8911 N   0  0  0  0  0  0  0  0  0  0  0  0
    8.1674   -2.1866   21.9785 C   0  0  0  0  0  0  0  0  0  0  0  0
    8.7226   -3.5392   22.2262 C   0  0  0  0  0  0  0  0  0  0  0  0
    7.7504   -4.5263   22.8463 C   0  0  0  0  0  0  0  0  0  0  0  0
    8.0059   -5.9903   22.6683 C   0  0  0  0  0  0  0  0  0  0  0  0
    6.9069   -5.3159   21.8908 C   0  0  0  0  0  0  0  0  0  0  0  0
    7.0893   -5.1125   20.8366 H   0  0  0  0  0  0  0  0  0  0  0  0
    5.8684   -5.5272   22.1296 H   0  0  0  0  0  0  0  0  0  0  0  0
    8.9123   -6.2983   22.1560 H   0  0  0  0  0  0  0  0  0  0  0  0
    7.7234   -6.6377   23.4895 H   0  0  0  0  0  0  0  0  0  0  0  0
    7.3049   -4.2368   23.7984 H   0  0  0  0  0  0  0  0  0  0  0  0
    9.6322   -3.4339   22.8191 H   0  0  0  0  0  0  0  0  0  0  0  0
    8.9763   -3.8893   21.2256 H   0  0  0  0  0  0  0  0  0  0  0  0
    7.7037   -1.8673   20.7899 N   0  0  0  0  0  0  0  0  0  0  0  0
    7.3188   -0.5800   20.9469 N   0  0  0  0  0  0  0  0  0  0  0  0
    6.6276    0.0570   19.8889 C   0  0  0  0  0  0  0  0  0  0  0  0
    5.4020    0.6871   20.1215 C   0  0  0  0  0  0  0  0  0  0  0  0
    4.7847    1.3246   19.0423 C   0  0  0  0  0  0  0  0  0  0  0  0
    5.4108    1.2995   17.7940 C   0  0  0  0  0  0  0  0  0  0  0  0
    6.5574    0.6357   17.5540 N   0  0  0  0  0  0  0  0  0  0  0  0
    7.1424    0.0124   18.5828 C   0  0  0  0  0  0  0  0  0  0  0  0
    8.0543   -0.5458   18.3690 H   0  0  0  0  0  0  0  0  0  0  0  0
    4.9854    1.8398   16.9511 H   0  0  0  0  0  0  0  0  0  0  0  0
    3.8526    1.8594   19.1772 H   0  0  0  0  0  0  0  0  0  0  0  0
    4.9524    0.6540   21.1147 H   0  0  0  0  0  0  0  0  0  0  0  0
    6.6612    1.1362   23.5692 H   0  0  0  0  0  0  0  0  0  0  0  0
    7.0563    1.8744   22.0277 H   0  0  0  0  0  0  0  0  0  0  0  0
    8.2915    1.2446   25.4465 H   0  0  0  0  0  0  0  0  0  0  0  0
   12.0271    2.8940   24.9633 H   0  0  0  0  0  0  0  0  0  0  0  0
   11.7156    3.1232   22.5103 H   0  0  0  0  0  0  0  0  0  0  0  0
    8.8074    2.9625   20.7436 H   0  0  0  0  0  0  0  0  0  0  0  0
    9.3597    1.2901   20.6769 H   0  0  0  0  0  0  0  0  0  0  0  0
   10.5308    2.6068   20.5940 H   0  0  0  0  0  0  0  0  0  0  0  0
  1  2  1  0
  2  3  2  0
  3  4  1  0
  4  5  2  0
  5  6  1  0
  6  7  2  0
  7  8  1  0
  8  9  1  0
  9 10  2  0
 10 11  1  0
 11 12  1  0
 12 13  1  0
 13 14  1  0
 14 15  1  0
 15 16  1  0
 15 17  1  0
 14 18  1  0
 14 19  1  0
 13 20  1  0
 12 21  1  0
 12 22  1  0
 11 23  2  0
 23 24  1  0
 24 25  1  0
 25 26  2  0
 26 27  1  0
 27 28  2  0
 28 29  1  0
 29 30  2  0
 30 31  1  0
 28 32  1  0
 27 33  1  0
 26 34  1  0
  8 35  1  0
  8 36  1  0
  6 37  1  0
  4 38  1  0
  3 39  1  0
  1 40  1  0
  1 41  1  0
  1 42  1  0
  7  2  1  0
 24  9  1  0
 30 25  1  0
 15 13  1  0
M  END
>  <cnnaffinity>  (1) 
-6.04558

>  <filename>  (1) 
Cc1ccncc1Cc1nc(CC2CC2)nn1-c1cccnc1

$$$$
