
     RDKit          3D

 49 52  0  0  0  0  0  0  0  0999 V2000
    9.1131    2.9749   25.6618 C   0  0  0  0  0  0  0  0  0  0  0  0
    7.7001    2.5667   25.9952 C   0  0  0  0  0  0  0  0  0  0  0  0
    7.1513    3.0060   27.2104 C   0  0  0  0  0  0  0  0  0  0  0  0
    5.8407    2.7074   27.5812 C   0  0  0  0  0  0  0  0  0  0  0  0
    5.0537    1.9381   26.7224 C   0  0  0  0  0  0  0  0  0  0  0  0
    5.5737    1.4593   25.5210 C   0  0  0  0  0  0  0  0  0  0  0  0
    6.8987    1.7591   25.1413 C   0  0  0  0  0  0  0  0  0  0  0  0
    7.4282    1.2530   23.8470 C   0  0  0  0  0  0  0  0  0  0  0  0
    6.9072    0.2344   23.1761 N   0  0  0  0  0  0  0  0  0  0  0  0
    7.6843    0.1489   22.0669 N   0  0  0  0  0  0  0  0  0  0  0  0
    7.3270   -0.7520   20.9736 C   0  0  0  0  0  0  0  0  0  0  0  0
    6.6298   -0.0502   19.8224 C   0  0  0  0  0  0  0  0  0  0  0  0
    5.4344    0.6348   20.0663 C   0  0  0  0  0  0  0  0  0  0  0  0
    4.8300    1.3221   19.0124 C   0  0  0  0  0  0  0  0  0  0  0  0
    5.4359    1.2966   17.7514 C   0  0  0  0  0  0  0  0  0  0  0  0
    6.5669    0.6235   17.4919 N   0  0  0  0  0  0  0  0  0  0  0  0
    7.1387   -0.0272   18.5143 C   0  0  0  0  0  0  0  0  0  0  0  0
    8.0570   -0.5644   18.2683 H   0  0  0  0  0  0  0  0  0  0  0  0
    4.9889    1.8288   16.9115 H   0  0  0  0  0  0  0  0  0  0  0  0
    3.9175    1.8889   19.1594 H   0  0  0  0  0  0  0  0  0  0  0  0
    5.0120    0.6362   21.0754 H   0  0  0  0  0  0  0  0  0  0  0  0
    8.2255   -1.2661   20.6179 H   0  0  0  0  0  0  0  0  0  0  0  0
    6.6769   -1.5162   21.4089 H   0  0  0  0  0  0  0  0  0  0  0  0
    8.6064    1.1374   22.0919 C   0  0  0  0  0  0  0  0  0  0  0  0
    9.6235    1.4972   21.0500 C   0  0  0  0  0  0  0  0  0  0  0  0
   11.0508    1.3188   21.5181 C   0  0  0  0  0  0  0  0  0  0  0  0
   11.6928    0.1240   21.7837 C   0  0  0  0  0  0  0  0  0  0  0  0
   11.2078   -1.2887   21.6550 C   0  0  0  0  0  0  0  0  0  0  0  0
   10.4348   -1.3440   20.8837 H   0  0  0  0  0  0  0  0  0  0  0  0
   11.9907   -2.0021   21.3699 H   0  0  0  0  0  0  0  0  0  0  0  0
   10.7659   -1.6329   22.5972 H   0  0  0  0  0  0  0  0  0  0  0  0
   12.9130    0.4510   22.2976 N   0  0  0  0  0  0  0  0  0  0  0  0
   14.0837   -0.4007   22.3654 C   0  0  0  0  0  0  0  0  0  0  0  0
   14.5528   -0.4632   21.3783 H   0  0  0  0  0  0  0  0  0  0  0  0
   14.7808    0.0300   23.0803 H   0  0  0  0  0  0  0  0  0  0  0  0
   13.7918   -1.3972   22.6963 H   0  0  0  0  0  0  0  0  0  0  0  0
   13.1012    1.7785   22.3767 N   0  0  0  0  0  0  0  0  0  0  0  0
   11.9822    2.3073   21.9140 C   0  0  0  0  0  0  0  0  0  0  0  0
   11.8761    3.3852   21.8702 H   0  0  0  0  0  0  0  0  0  0  0  0
    9.4505    2.5578   20.8342 H   0  0  0  0  0  0  0  0  0  0  0  0
    9.4310    0.9387   20.1248 H   0  0  0  0  0  0  0  0  0  0  0  0
    8.4803    1.8275   23.2018 N   0  0  0  0  0  0  0  0  0  0  0  0
    4.9578    0.8493   24.8595 H   0  0  0  0  0  0  0  0  0  0  0  0
    4.0299    1.7107   26.9949 H   0  0  0  0  0  0  0  0  0  0  0  0
    5.4374    3.0826   28.5211 H   0  0  0  0  0  0  0  0  0  0  0  0
    7.7677    3.6064   27.8747 H   0  0  0  0  0  0  0  0  0  0  0  0
    9.4808    3.6937   26.3945 H   0  0  0  0  0  0  0  0  0  0  0  0
    9.7798    2.1052   25.6543 H   0  0  0  0  0  0  0  0  0  0  0  0
    9.1734    3.4298   24.6706 H   0  0  0  0  0  0  0  0  0  0  0  0
  1  2  1  0
  2  3  2  0
  3  4  1  0
  4  5  2  0
  5  6  1  0
  6  7  2  0
  7  8  1  0
  8  9  2  0
  9 10  1  0
 10 11  1  0
 11 12  1  0
 12 13  2  0
 13 14  1  0
 14 15  2  0
 15 16  1  0
 16 17  2  0
 17 18  1  0
 15 19  1  0
 14 20  1  0
 13 21  1  0
 11 22  1  0
 11 23  1  0
 10 24  1  0
 24 25  1  0
 25 26  1  0
 26 27  2  0
 27 28  1  0
 28 29  1  0
 28 30  1  0
 28 31  1  0
 27 32  1  0
 32 33  1  0
 33 34  1  0
 33 35  1  0
 33 36  1  0
 32 37  1  0
 37 38  2  0
 38 39  1  0
 25 40  1  0
 25 41  1  0
 24 42  2  0
  6 43  1  0
  5 44  1  0
  4 45  1  0
  3 46  1  0
  1 47  1  0
  1 48  1  0
  1 49  1  0
  7  2  1  0
 42  8  1  0
 17 12  1  0
 38 26  1  0
M  END
>  <cnnaffinity>  (1) 
-6.37098

>  <filename>  (1) 
Cc1ccccc1-c1nc(Cc2cnn(C)c2C)n(Cc2cccnc2)n1

$$$$
