
     RDKit          3D

 47 50  0  0  0  0  0  0  0  0999 V2000
   12.1355   -1.0814   21.5501 C   0  0  0  0  0  0  0  0  0  0  0  0
   11.7485    0.2647   22.1035 C   0  0  0  0  0  0  0  0  0  0  0  0
   12.5611    0.8585   23.0724 C   0  0  0  0  0  0  0  0  0  0  0  0
   12.1345    1.9981   23.7467 C   0  0  0  0  0  0  0  0  0  0  0  0
   10.9154    2.5957   23.4300 C   0  0  0  0  0  0  0  0  0  0  0  0
   10.1045    2.0639   22.4186 C   0  0  0  0  0  0  0  0  0  0  0  0
    8.7562    2.6999   22.1362 C   0  0  0  0  0  0  0  0  0  0  0  0
    7.9502    1.9602   22.1818 H   0  0  0  0  0  0  0  0  0  0  0  0
    8.7044    3.1644   21.1455 H   0  0  0  0  0  0  0  0  0  0  0  0
    8.5211    3.4789   22.8660 H   0  0  0  0  0  0  0  0  0  0  0  0
   10.5440    0.9085   21.7333 C   0  0  0  0  0  0  0  0  0  0  0  0
    9.6222    0.2544   20.7230 C   0  0  0  0  0  0  0  0  0  0  0  0
    8.5648   -0.5712   21.3822 C   0  0  0  0  0  0  0  0  0  0  0  0
    8.7542   -1.3732   22.4108 N   0  0  0  0  0  0  0  0  0  0  0  0
    7.5443   -1.9707   22.5758 C   0  0  0  0  0  0  0  0  0  0  0  0
    7.4109   -3.0773   23.5971 C   0  0  0  0  0  0  0  0  0  0  0  0
    7.5088   -4.5065   22.9837 C   0  0  0  0  0  0  0  0  0  0  0  0
    6.5682   -5.3243   23.8727 C   0  0  0  0  0  0  0  0  0  0  0  0
    5.5307   -4.2877   24.2996 C   0  0  0  0  0  0  0  0  0  0  0  0
    6.2035   -3.0379   24.3428 O   0  0  0  0  0  0  0  0  0  0  0  0
    5.1266   -4.4782   25.2986 H   0  0  0  0  0  0  0  0  0  0  0  0
    4.7002   -4.2262   23.5813 H   0  0  0  0  0  0  0  0  0  0  0  0
    6.1071   -6.1635   23.3425 H   0  0  0  0  0  0  0  0  0  0  0  0
    7.0967   -5.7205   24.7482 H   0  0  0  0  0  0  0  0  0  0  0  0
    8.5385   -4.8840   22.9919 H   0  0  0  0  0  0  0  0  0  0  0  0
    7.1513   -4.5028   21.9453 H   0  0  0  0  0  0  0  0  0  0  0  0
    8.2430   -2.9030   24.2909 H   0  0  0  0  0  0  0  0  0  0  0  0
    6.6250   -1.6068   21.6996 N   0  0  0  0  0  0  0  0  0  0  0  0
    7.2869   -0.7130   20.9203 N   0  0  0  0  0  0  0  0  0  0  0  0
    6.6177   -0.0315   19.8647 C   0  0  0  0  0  0  0  0  0  0  0  0
    5.4092    0.6230   20.1270 C   0  0  0  0  0  0  0  0  0  0  0  0
    4.7968    1.3139   19.0805 C   0  0  0  0  0  0  0  0  0  0  0  0
    5.3937    1.3078   17.8152 C   0  0  0  0  0  0  0  0  0  0  0  0
    6.5380    0.6570   17.5472 N   0  0  0  0  0  0  0  0  0  0  0  0
    7.1319    0.0085   18.5564 C   0  0  0  0  0  0  0  0  0  0  0  0
    8.0676   -0.4999   18.3186 H   0  0  0  0  0  0  0  0  0  0  0  0
    4.9351    1.8406   16.9862 H   0  0  0  0  0  0  0  0  0  0  0  0
    3.8703    1.8553   19.2411 H   0  0  0  0  0  0  0  0  0  0  0  0
    4.9825    0.5742   21.1286 H   0  0  0  0  0  0  0  0  0  0  0  0
    9.1591    1.0042   20.0809 H   0  0  0  0  0  0  0  0  0  0  0  0
   10.1661   -0.4359   20.0727 H   0  0  0  0  0  0  0  0  0  0  0  0
   10.5662    3.4667   23.9858 H   0  0  0  0  0  0  0  0  0  0  0  0
   12.7293    2.3776   24.5571 H   0  0  0  0  0  0  0  0  0  0  0  0
   13.5216    0.4061   23.3136 H   0  0  0  0  0  0  0  0  0  0  0  0
   13.1279   -1.3813   21.8872 H   0  0  0  0  0  0  0  0  0  0  0  0
   12.1541   -1.0840   20.4608 H   0  0  0  0  0  0  0  0  0  0  0  0
   11.4142   -1.8373   21.8779 H   0  0  0  0  0  0  0  0  0  0  0  0
  1  2  1  0
  2  3  2  0
  3  4  1  0
  4  5  2  0
  5  6  1  0
  6  7  1  0
  7  8  1  0
  7  9  1  0
  7 10  1  0
  6 11  2  0
 11 12  1  0
 12 13  1  0
 13 14  2  0
 14 15  1  0
 15 16  1  0
 16 17  1  0
 17 18  1  0
 18 19  1  0
 19 20  1  0
 19 21  1  0
 19 22  1  0
 18 23  1  0
 18 24  1  0
 17 25  1  0
 17 26  1  0
 16 27  1  0
 15 28  2  0
 28 29  1  0
 29 30  1  0
 30 31  2  0
 31 32  1  0
 32 33  2  0
 33 34  1  0
 34 35  2  0
 35 36  1  0
 33 37  1  0
 32 38  1  0
 31 39  1  0
 12 40  1  0
 12 41  1  0
  5 42  1  0
  4 43  1  0
  3 44  1  0
  1 45  1  0
  1 46  1  0
  1 47  1  0
 11  2  1  0
 29 13  1  0
 35 30  1  0
 20 16  1  0
M  END
>  <cnnaffinity>  (1) 
-6.47783

>  <filename>  (1) 
Cc1cccc(C)c1Cc1nc(C2CCCO2)nn1-c1cccnc1

$$$$
