
     RDKit          3D

 40 43  0  0  0  0  0  0  0  0999 V2000
   10.4853   -3.7103   24.4681 C   0  0  0  0  0  0  0  0  0  0  0  0
   10.2091   -2.4083   23.8204 C   0  0  0  0  0  0  0  0  0  0  0  0
   10.9746   -0.0460   24.7720 C   0  0  0  0  0  0  0  0  0  0  0  0
   10.3756   -0.9149   23.9299 C   0  0  0  0  0  0  0  0  0  0  0  0
    9.6424   -0.7353   22.7504 N   0  0  0  0  0  0  0  0  0  0  0  0
    9.6001   -2.1001   22.6638 N   0  0  0  0  0  0  0  0  0  0  0  0
    8.8909   -2.7630   21.6108 C   0  0  0  0  0  0  0  0  0  0  0  0
    7.6838   -1.9565   21.2403 C   0  0  0  0  0  0  0  0  0  0  0  0
    7.3775   -1.5957   20.0230 N   0  0  0  0  0  0  0  0  0  0  0  0
    6.3317   -0.7527   20.1921 C   0  0  0  0  0  0  0  0  0  0  0  0
    5.8212    0.0388   19.0818 C   0  0  0  0  0  0  0  0  0  0  0  0
    4.7382    0.9186   19.2127 C   0  0  0  0  0  0  0  0  0  0  0  0
    4.5070    1.8211   18.1811 C   0  0  0  0  0  0  0  0  0  0  0  0
    5.3456    1.7996   17.0615 C   0  0  0  0  0  0  0  0  0  0  0  0
    6.3319    0.9055   16.8932 N   0  0  0  0  0  0  0  0  0  0  0  0
    6.5518    0.0416   17.8856 C   0  0  0  0  0  0  0  0  0  0  0  0
    7.3641   -0.6658   17.7282 H   0  0  0  0  0  0  0  0  0  0  0  0
    5.2049    2.5201   16.2588 H   0  0  0  0  0  0  0  0  0  0  0  0
    3.7166    2.5612   18.2429 H   0  0  0  0  0  0  0  0  0  0  0  0
    4.1333    0.9156   20.1213 H   0  0  0  0  0  0  0  0  0  0  0  0
    5.9491   -0.5977   21.4454 N   0  0  0  0  0  0  0  0  0  0  0  0
    6.8050   -1.4029   22.1230 N   0  0  0  0  0  0  0  0  0  0  0  0
    6.8491   -1.4544   23.5511 C   0  0  0  0  0  0  0  0  0  0  0  0
    7.0078   -0.2737   24.2740 C   0  0  0  0  0  0  0  0  0  0  0  0
    7.3518   -0.3571   25.6160 C   0  0  0  0  0  0  0  0  0  0  0  0
    7.5246    0.7558   26.3377 F   0  0  0  0  0  0  0  0  0  0  0  0
    7.5376   -1.5897   26.2488 C   0  0  0  0  0  0  0  0  0  0  0  0
    7.8993   -1.6523   27.5321 F   0  0  0  0  0  0  0  0  0  0  0  0
    7.2729   -2.7460   25.5197 C   0  0  0  0  0  0  0  0  0  0  0  0
    7.4451   -3.9350   26.1143 F   0  0  0  0  0  0  0  0  0  0  0  0
    6.8507   -2.6940   24.2008 C   0  0  0  0  0  0  0  0  0  0  0  0
    6.5403   -3.6054   23.7042 H   0  0  0  0  0  0  0  0  0  0  0  0
    6.8573    0.7007   23.8196 H   0  0  0  0  0  0  0  0  0  0  0  0
    8.6223   -3.7808   21.9194 H   0  0  0  0  0  0  0  0  0  0  0  0
    9.5309   -2.7984   20.7247 H   0  0  0  0  0  0  0  0  0  0  0  0
   10.9161    1.0271   24.5925 H   0  0  0  0  0  0  0  0  0  0  0  0
   11.4972   -0.4405   25.6389 H   0  0  0  0  0  0  0  0  0  0  0  0
   10.1514   -3.6866   25.5106 H   0  0  0  0  0  0  0  0  0  0  0  0
    9.9779   -4.5387   23.9552 H   0  0  0  0  0  0  0  0  0  0  0  0
   11.5632   -3.9163   24.4705 H   0  0  0  0  0  0  0  0  0  0  0  0
  1  2  1  0
  2  3  2  0
  3  4  1  0
  4  5  2  0
  5  6  1  0
  6  7  1  0
  7  8  1  0
  8  9  2  0
  9 10  1  0
 10 11  1  0
 11 12  2  0
 12 13  1  0
 13 14  2  0
 14 15  1  0
 15 16  2  0
 16 17  1  0
 14 18  1  0
 13 19  1  0
 12 20  1  0
 10 21  2  0
 21 22  1  0
 22 23  1  0
 23 24  2  0
 24 25  1  0
 25 26  1  0
 25 27  2  0
 27 28  1  0
 27 29  1  0
 29 30  1  0
 29 31  2  0
 31 32  1  0
 24 33  1  0
  7 34  1  0
  7 35  1  0
  4 36  1  0
  3 37  1  0
  1 38  1  0
  1 39  1  0
  1 40  1  0
  6  2  1  0
 22  8  1  0
 31 23  1  0
 16 11  1  0
M  END
>  <cnnaffinity>  (1) 
-6.24744

>  <filename>  (1) 
Cc1ccnn1Cc1nc(-c2cccnc2)nn1-c1cc(F)c(F)c(F)c1

$$$$
