
     RDKit          3D

 49 52  0  0  0  0  0  0  0  0999 V2000
    6.0025    3.2718   29.0853 C   0  0  0  0  0  0  0  0  0  0  0  0
    6.4138    2.7793   27.7221 C   0  0  0  0  0  0  0  0  0  0  0  0
    7.5283    3.3163   27.0602 C   0  0  0  0  0  0  0  0  0  0  0  0
    7.9228    2.8356   25.8150 C   0  0  0  0  0  0  0  0  0  0  0  0
    7.1977    1.7953   25.1958 C   0  0  0  0  0  0  0  0  0  0  0  0
    7.6246    1.2965   23.8775 C   0  0  0  0  0  0  0  0  0  0  0  0
    7.0673    0.2815   23.2342 N   0  0  0  0  0  0  0  0  0  0  0  0
    7.7713    0.2183   22.0810 N   0  0  0  0  0  0  0  0  0  0  0  0
    7.3613   -0.7001   21.0223 C   0  0  0  0  0  0  0  0  0  0  0  0
    6.6487   -0.0112   19.8742 C   0  0  0  0  0  0  0  0  0  0  0  0
    5.4405    0.6520   20.1204 C   0  0  0  0  0  0  0  0  0  0  0  0
    4.8125    1.3108   19.0630 C   0  0  0  0  0  0  0  0  0  0  0  0
    5.4139    1.2963   17.8012 C   0  0  0  0  0  0  0  0  0  0  0  0
    6.5617    0.6533   17.5424 N   0  0  0  0  0  0  0  0  0  0  0  0
    7.1521    0.0199   18.5648 C   0  0  0  0  0  0  0  0  0  0  0  0
    8.0822   -0.4969   18.3180 H   0  0  0  0  0  0  0  0  0  0  0  0
    4.9536    1.8214   16.9643 H   0  0  0  0  0  0  0  0  0  0  0  0
    3.8815    1.8454   19.2078 H   0  0  0  0  0  0  0  0  0  0  0  0
    5.0142    0.6595   21.1260 H   0  0  0  0  0  0  0  0  0  0  0  0
    6.6919   -1.4174   21.5068 H   0  0  0  0  0  0  0  0  0  0  0  0
    8.2347   -1.2610   20.6695 H   0  0  0  0  0  0  0  0  0  0  0  0
    8.7184    1.1857   22.0865 C   0  0  0  0  0  0  0  0  0  0  0  0
    9.7285    1.4884   21.0236 C   0  0  0  0  0  0  0  0  0  0  0  0
   11.1548    1.2418   21.4698 C   0  0  0  0  0  0  0  0  0  0  0  0
   11.7333    0.0019   21.6749 C   0  0  0  0  0  0  0  0  0  0  0  0
   11.1701   -1.3814   21.5804 C   0  0  0  0  0  0  0  0  0  0  0  0
   10.4199   -1.4426   20.7895 H   0  0  0  0  0  0  0  0  0  0  0  0
   10.6574   -1.6660   22.5085 H   0  0  0  0  0  0  0  0  0  0  0  0
   11.9541   -2.1164   21.3673 H   0  0  0  0  0  0  0  0  0  0  0  0
   12.9750    0.2420   22.1832 N   0  0  0  0  0  0  0  0  0  0  0  0
   14.0592   -0.7010   22.3668 C   0  0  0  0  0  0  0  0  0  0  0  0
   13.6573   -1.6780   22.6249 H   0  0  0  0  0  0  0  0  0  0  0  0
   14.6433   -0.8098   21.4515 H   0  0  0  0  0  0  0  0  0  0  0  0
   14.6860   -0.3310   23.1733 H   0  0  0  0  0  0  0  0  0  0  0  0
   13.2221    1.5480   22.3586 N   0  0  0  0  0  0  0  0  0  0  0  0
   12.1268    2.1591   21.9351 C   0  0  0  0  0  0  0  0  0  0  0  0
   12.0519    3.2442   21.9742 H   0  0  0  0  0  0  0  0  0  0  0  0
    9.4826    0.9148   20.1216 H   0  0  0  0  0  0  0  0  0  0  0  0
    9.5799    2.5480   20.7865 H   0  0  0  0  0  0  0  0  0  0  0  0
    8.6412    1.8837   23.1968 N   0  0  0  0  0  0  0  0  0  0  0  0
    6.0691    1.2608   25.8458 C   0  0  0  0  0  0  0  0  0  0  0  0
    5.6927    1.7534   27.0920 C   0  0  0  0  0  0  0  0  0  0  0  0
    4.8216    1.3354   27.5917 H   0  0  0  0  0  0  0  0  0  0  0  0
    5.4970    0.4661   25.3693 H   0  0  0  0  0  0  0  0  0  0  0  0
    8.7878    3.2598   25.3064 H   0  0  0  0  0  0  0  0  0  0  0  0
    8.0900    4.1242   27.5256 H   0  0  0  0  0  0  0  0  0  0  0  0
    6.2664    4.3239   29.2296 H   0  0  0  0  0  0  0  0  0  0  0  0
    6.4928    2.6957   29.8789 H   0  0  0  0  0  0  0  0  0  0  0  0
    4.9220    3.1712   29.2279 H   0  0  0  0  0  0  0  0  0  0  0  0
  1  2  1  0
  2  3  2  0
  3  4  1  0
  4  5  2  0
  5  6  1  0
  6  7  2  0
  7  8  1  0
  8  9  1  0
  9 10  1  0
 10 11  2  0
 11 12  1  0
 12 13  2  0
 13 14  1  0
 14 15  2  0
 15 16  1  0
 13 17  1  0
 12 18  1  0
 11 19  1  0
  9 20  1  0
  9 21  1  0
  8 22  1  0
 22 23  1  0
 23 24  1  0
 24 25  2  0
 25 26  1  0
 26 27  1  0
 26 28  1  0
 26 29  1  0
 25 30  1  0
 30 31  1  0
 31 32  1  0
 31 33  1  0
 31 34  1  0
 30 35  1  0
 35 36  2  0
 36 37  1  0
 23 38  1  0
 23 39  1  0
 22 40  2  0
  5 41  1  0
 41 42  2  0
 42 43  1  0
 41 44  1  0
  4 45  1  0
  3 46  1  0
  1 47  1  0
  1 48  1  0
  1 49  1  0
 42  2  1  0
 40  6  1  0
 15 10  1  0
 36 24  1  0
M  END
>  <cnnaffinity>  (1) 
-6.32248

>  <filename>  (1) 
Cc1ccc(-c2nc(Cc3cnn(C)c3C)n(Cc3cccnc3)n2)cc1

$$$$
