
     RDKit          3D

 42 45  0  0  0  0  0  0  0  0999 V2000
    4.9399   -5.4182   27.0563 C   0  0  0  0  0  0  0  0  0  0  0  0
    5.0558   -4.1753   26.1995 C   0  0  0  0  0  0  0  0  0  0  0  0
    5.0191   -2.8913   26.7780 C   0  0  0  0  0  0  0  0  0  0  0  0
    5.3188   -1.7728   26.0005 C   0  0  0  0  0  0  0  0  0  0  0  0
    5.5969   -1.8975   24.6351 C   0  0  0  0  0  0  0  0  0  0  0  0
    5.4259   -3.1477   24.0163 C   0  0  0  0  0  0  0  0  0  0  0  0
    5.4256   -3.4197   22.6705 O   0  0  0  0  0  0  0  0  0  0  0  0
    5.7270   -2.4889   21.6412 C   0  0  0  0  0  0  0  0  0  0  0  0
    7.0377   -1.7602   21.7323 C   0  0  0  0  0  0  0  0  0  0  0  0
    8.0456   -2.0596   22.5103 N   0  0  0  0  0  0  0  0  0  0  0  0
    9.0104   -1.1783   22.1533 C   0  0  0  0  0  0  0  0  0  0  0  0
   10.3232   -1.2477   22.8618 C   0  0  0  0  0  0  0  0  0  0  0  0
   10.1498   -1.2145   24.4079 C   0  0  0  0  0  0  0  0  0  0  0  0
   10.4592   -3.0112   24.5471 S   0  0  0  0  0  0  0  0  0  0  0  0
   10.8477   -2.7063   22.7946 C   0  0  0  0  0  0  0  0  0  0  0  0
   11.9039   -2.8323   22.5461 H   0  0  0  0  0  0  0  0  0  0  0  0
   10.2230   -3.3239   22.1544 H   0  0  0  0  0  0  0  0  0  0  0  0
   10.9046   -0.6257   24.9353 H   0  0  0  0  0  0  0  0  0  0  0  0
    9.1492   -0.9243   24.7465 H   0  0  0  0  0  0  0  0  0  0  0  0
   10.9852   -0.4826   22.4507 H   0  0  0  0  0  0  0  0  0  0  0  0
    8.6914   -0.3792   21.1645 N   0  0  0  0  0  0  0  0  0  0  0  0
    7.3916   -0.7222   20.9106 N   0  0  0  0  0  0  0  0  0  0  0  0
    6.6624   -0.0215   19.9086 C   0  0  0  0  0  0  0  0  0  0  0  0
    5.4456    0.6322   20.1611 C   0  0  0  0  0  0  0  0  0  0  0  0
    4.8286    1.2961   19.0928 C   0  0  0  0  0  0  0  0  0  0  0  0
    5.4359    1.2829   17.8363 C   0  0  0  0  0  0  0  0  0  0  0  0
    6.6090    0.6696   17.5964 N   0  0  0  0  0  0  0  0  0  0  0  0
    7.2101    0.0575   18.6180 C   0  0  0  0  0  0  0  0  0  0  0  0
    8.1756   -0.4044   18.4197 H   0  0  0  0  0  0  0  0  0  0  0  0
    4.9754    1.7862   16.9883 H   0  0  0  0  0  0  0  0  0  0  0  0
    3.8959    1.8308   19.2339 H   0  0  0  0  0  0  0  0  0  0  0  0
    5.0185    0.6728   21.1640 H   0  0  0  0  0  0  0  0  0  0  0  0
    5.7348   -3.0947   20.7328 H   0  0  0  0  0  0  0  0  0  0  0  0
    4.9443   -1.7428   21.5021 H   0  0  0  0  0  0  0  0  0  0  0  0
    5.2172   -4.2822   24.8149 C   0  0  0  0  0  0  0  0  0  0  0  0
    5.1708   -5.2465   24.3149 H   0  0  0  0  0  0  0  0  0  0  0  0
    5.9027   -1.0228   24.0645 H   0  0  0  0  0  0  0  0  0  0  0  0
    5.3424   -0.7846   26.4510 H   0  0  0  0  0  0  0  0  0  0  0  0
    4.7774   -2.7781   27.8336 H   0  0  0  0  0  0  0  0  0  0  0  0
    5.3214   -5.2449   28.0711 H   0  0  0  0  0  0  0  0  0  0  0  0
    3.8916   -5.7213   27.1450 H   0  0  0  0  0  0  0  0  0  0  0  0
    5.4985   -6.2634   26.6300 H   0  0  0  0  0  0  0  0  0  0  0  0
  1  2  1  0
  2  3  2  0
  3  4  1  0
  4  5  2  0
  5  6  1  0
  6  7  1  0
  7  8  1  0
  8  9  1  0
  9 10  2  0
 10 11  1  0
 11 12  1  0
 12 13  1  0
 13 14  1  0
 14 15  1  0
 15 16  1  0
 15 17  1  0
 13 18  1  0
 13 19  1  0
 12 20  1  0
 11 21  2  0
 21 22  1  0
 22 23  1  0
 23 24  2  0
 24 25  1  0
 25 26  2  0
 26 27  1  0
 27 28  2  0
 28 29  1  0
 26 30  1  0
 25 31  1  0
 24 32  1  0
  8 33  1  0
  8 34  1  0
  6 35  2  0
 35 36  1  0
  5 37  1  0
  4 38  1  0
  3 39  1  0
  1 40  1  0
  1 41  1  0
  1 42  1  0
 35  2  1  0
 22  9  1  0
 28 23  1  0
 15 12  1  0
M  END
>  <cnnaffinity>  (1) 
-5.82295

>  <filename>  (1) 
Cc1cccc(OCc2nc(C3CSC3)nn2-c2cccnc2)c1

$$$$
