
     RDKit          3D

 41 44  0  0  0  0  0  0  0  0999 V2000
    4.7660    0.2393   26.7395 C   0  0  0  0  0  0  0  0  0  0  0  0
    5.1858    0.8963   25.4547 C   0  0  0  0  0  0  0  0  0  0  0  0
    6.3111    0.6339   24.7383 C   0  0  0  0  0  0  0  0  0  0  0  0
    6.4556    1.4339   23.5603 C   0  0  0  0  0  0  0  0  0  0  0  0
    7.6329    1.3003   22.6130 C   0  0  0  0  0  0  0  0  0  0  0  0
    7.7948   -0.1010   22.1102 C   0  0  0  0  0  0  0  0  0  0  0  0
    8.4063   -1.0535   22.7887 N   0  0  0  0  0  0  0  0  0  0  0  0
    8.2597   -2.1444   21.9985 C   0  0  0  0  0  0  0  0  0  0  0  0
    8.8450   -3.4540   22.3928 C   0  0  0  0  0  0  0  0  0  0  0  0
    8.8602   -3.8195   23.8941 C   0  0  0  0  0  0  0  0  0  0  0  0
    8.7275   -5.3657   23.8759 C   0  0  0  0  0  0  0  0  0  0  0  0
    8.7048   -5.7575   22.5131 O   0  0  0  0  0  0  0  0  0  0  0  0
    8.1430   -4.6776   21.7997 C   0  0  0  0  0  0  0  0  0  0  0  0
    7.0559   -4.6171   21.9602 H   0  0  0  0  0  0  0  0  0  0  0  0
    8.3105   -4.8211   20.7325 H   0  0  0  0  0  0  0  0  0  0  0  0
    7.7936   -5.6636   24.3753 H   0  0  0  0  0  0  0  0  0  0  0  0
    9.5641   -5.8835   24.3541 H   0  0  0  0  0  0  0  0  0  0  0  0
    9.7718   -3.4663   24.3875 H   0  0  0  0  0  0  0  0  0  0  0  0
    7.9943   -3.3795   24.4014 H   0  0  0  0  0  0  0  0  0  0  0  0
    9.8781   -3.3871   22.0535 H   0  0  0  0  0  0  0  0  0  0  0  0
    7.6521   -1.9187   20.8479 N   0  0  0  0  0  0  0  0  0  0  0  0
    7.3202   -0.6034   20.9364 N   0  0  0  0  0  0  0  0  0  0  0  0
    6.6160    0.0316   19.8755 C   0  0  0  0  0  0  0  0  0  0  0  0
    5.4149    0.7026   20.1159 C   0  0  0  0  0  0  0  0  0  0  0  0
    4.7932    1.3473   19.0441 C   0  0  0  0  0  0  0  0  0  0  0  0
    5.4022    1.3084   17.7852 C   0  0  0  0  0  0  0  0  0  0  0  0
    6.5406    0.6332   17.5428 N   0  0  0  0  0  0  0  0  0  0  0  0
    7.1213   -0.0063   18.5628 C   0  0  0  0  0  0  0  0  0  0  0  0
    8.0363   -0.5529   18.3441 H   0  0  0  0  0  0  0  0  0  0  0  0
    4.9580    1.8347   16.9425 H   0  0  0  0  0  0  0  0  0  0  0  0
    3.8591    1.8808   19.1786 H   0  0  0  0  0  0  0  0  0  0  0  0
    4.9926    0.7049   21.1219 H   0  0  0  0  0  0  0  0  0  0  0  0
    8.5633    1.5355   23.1433 H   0  0  0  0  0  0  0  0  0  0  0  0
    7.5575    2.0082   21.7808 H   0  0  0  0  0  0  0  0  0  0  0  0
    5.4087    2.2842   23.4015 C   0  0  0  0  0  0  0  0  0  0  0  0
    4.2474    2.1305   24.6735 S   0  0  0  0  0  0  0  0  0  0  0  0
    5.2439    2.9834   22.5951 H   0  0  0  0  0  0  0  0  0  0  0  0
    7.0241   -0.1381   25.0182 H   0  0  0  0  0  0  0  0  0  0  0  0
    4.1798   -0.6686   26.5502 H   0  0  0  0  0  0  0  0  0  0  0  0
    4.1627    0.8949   27.3720 H   0  0  0  0  0  0  0  0  0  0  0  0
    5.6467   -0.0696   27.3119 H   0  0  0  0  0  0  0  0  0  0  0  0
  1  2  1  0
  2  3  2  0
  3  4  1  0
  4  5  1  0
  5  6  1  0
  6  7  2  0
  7  8  1  0
  8  9  1  0
  9 10  1  0
 10 11  1  0
 11 12  1  0
 12 13  1  0
 13 14  1  0
 13 15  1  0
 11 16  1  0
 11 17  1  0
 10 18  1  0
 10 19  1  0
  9 20  1  0
  8 21  2  0
 21 22  1  0
 22 23  1  0
 23 24  2  0
 24 25  1  0
 25 26  2  0
 26 27  1  0
 27 28  2  0
 28 29  1  0
 26 30  1  0
 25 31  1  0
 24 32  1  0
  5 33  1  0
  5 34  1  0
  4 35  2  0
 35 36  1  0
 35 37  1  0
  3 38  1  0
  1 39  1  0
  1 40  1  0
  1 41  1  0
 36  2  1  0
 22  6  1  0
 28 23  1  0
 13  9  1  0
M  END
>  <cnnaffinity>  (1) 
-5.87898

>  <filename>  (1) 
Cc1cc(Cc2nc(C3CCOC3)nn2-c2cccnc2)cs1

$$$$
