
     RDKit          3D

 41 44  0  0  0  0  0  0  0  0999 V2000
   12.5895    1.3883   23.4010 C   0  0  0  0  0  0  0  0  0  0  0  0
   11.2755    2.1215   23.3599 C   0  0  0  0  0  0  0  0  0  0  0  0
   11.0097    3.1805   24.2374 C   0  0  0  0  0  0  0  0  0  0  0  0
    9.7173    3.6970   24.3921 C   0  0  0  0  0  0  0  0  0  0  0  0
    8.6834    3.1913   23.6097 C   0  0  0  0  0  0  0  0  0  0  0  0
    8.9397    2.2154   22.6371 C   0  0  0  0  0  0  0  0  0  0  0  0
   10.2353    1.7009   22.4932 C   0  0  0  0  0  0  0  0  0  0  0  0
   10.5859    0.7511   21.5672 O   0  0  0  0  0  0  0  0  0  0  0  0
    9.6088    0.1857   20.7199 C   0  0  0  0  0  0  0  0  0  0  0  0
    8.5446   -0.6318   21.4003 C   0  0  0  0  0  0  0  0  0  0  0  0
    8.7311   -1.4398   22.4177 N   0  0  0  0  0  0  0  0  0  0  0  0
    7.5191   -2.0300   22.5693 C   0  0  0  0  0  0  0  0  0  0  0  0
    7.2896   -3.0464   23.6291 C   0  0  0  0  0  0  0  0  0  0  0  0
    6.7308   -4.4119   23.3234 C   0  0  0  0  0  0  0  0  0  0  0  0
    8.1742   -4.2666   23.7037 C   0  0  0  0  0  0  0  0  0  0  0  0
    8.4978   -4.5973   24.6886 H   0  0  0  0  0  0  0  0  0  0  0  0
    8.9207   -4.3872   22.9207 H   0  0  0  0  0  0  0  0  0  0  0  0
    6.4967   -4.6439   22.2867 H   0  0  0  0  0  0  0  0  0  0  0  0
    6.0499   -4.8552   24.0471 H   0  0  0  0  0  0  0  0  0  0  0  0
    7.0104   -2.5985   24.5807 H   0  0  0  0  0  0  0  0  0  0  0  0
    6.5996   -1.6397   21.7085 N   0  0  0  0  0  0  0  0  0  0  0  0
    7.2659   -0.7528   20.9250 N   0  0  0  0  0  0  0  0  0  0  0  0
    6.5871   -0.0657   19.8769 C   0  0  0  0  0  0  0  0  0  0  0  0
    5.3840    0.6090   20.1279 C   0  0  0  0  0  0  0  0  0  0  0  0
    4.7963    1.3179   19.0752 C   0  0  0  0  0  0  0  0  0  0  0  0
    5.4089    1.3048   17.8156 C   0  0  0  0  0  0  0  0  0  0  0  0
    6.5340    0.6222   17.5557 N   0  0  0  0  0  0  0  0  0  0  0  0
    7.0985   -0.0498   18.5656 C   0  0  0  0  0  0  0  0  0  0  0  0
    8.0030   -0.6081   18.3301 H   0  0  0  0  0  0  0  0  0  0  0  0
    4.9735    1.8503   16.9816 H   0  0  0  0  0  0  0  0  0  0  0  0
    3.8773    1.8771   19.2171 H   0  0  0  0  0  0  0  0  0  0  0  0
    4.9364    0.5672   21.1223 H   0  0  0  0  0  0  0  0  0  0  0  0
   10.1797   -0.5047   20.0994 H   0  0  0  0  0  0  0  0  0  0  0  0
    9.1715    0.9580   20.0805 H   0  0  0  0  0  0  0  0  0  0  0  0
    8.1251    1.8622   22.0108 H   0  0  0  0  0  0  0  0  0  0  0  0
    7.6683    3.5540   23.7546 H   0  0  0  0  0  0  0  0  0  0  0  0
    9.4950    4.4655   25.1318 H   0  0  0  0  0  0  0  0  0  0  0  0
   11.8329    3.5758   24.8291 H   0  0  0  0  0  0  0  0  0  0  0  0
   13.1338    1.4883   22.4574 H   0  0  0  0  0  0  0  0  0  0  0  0
   12.4184    0.3176   23.5612 H   0  0  0  0  0  0  0  0  0  0  0  0
   13.2102    1.7623   24.2200 H   0  0  0  0  0  0  0  0  0  0  0  0
  1  2  1  0
  2  3  2  0
  3  4  1  0
  4  5  2  0
  5  6  1  0
  6  7  2  0
  7  8  1  0
  8  9  1  0
  9 10  1  0
 10 11  2  0
 11 12  1  0
 12 13  1  0
 13 14  1  0
 14 15  1  0
 15 16  1  0
 15 17  1  0
 14 18  1  0
 14 19  1  0
 13 20  1  0
 12 21  2  0
 21 22  1  0
 22 23  1  0
 23 24  2  0
 24 25  1  0
 25 26  2  0
 26 27  1  0
 27 28  2  0
 28 29  1  0
 26 30  1  0
 25 31  1  0
 24 32  1  0
  9 33  1  0
  9 34  1  0
  6 35  1  0
  5 36  1  0
  4 37  1  0
  3 38  1  0
  1 39  1  0
  1 40  1  0
  1 41  1  0
  7  2  1  0
 22 10  1  0
 28 23  1  0
 15 13  1  0
M  END
>  <cnnaffinity>  (1) 
-5.97034

>  <filename>  (1) 
Cc1ccccc1OCc1nc(C2CC2)nn1-c1cccnc1

$$$$
