
     RDKit          3D

 42 45  0  0  0  0  0  0  0  0999 V2000
    7.8357   -4.6463   21.3825 C   0  0  0  0  0  0  0  0  0  0  0  0
    8.3718   -4.7445   22.7980 C   0  0  0  0  0  0  0  0  0  0  0  0
    7.9096   -5.7424   23.6661 C   0  0  0  0  0  0  0  0  0  0  0  0
    8.5004   -5.8952   24.9230 C   0  0  0  0  0  0  0  0  0  0  0  0
    9.5475   -5.0425   25.2783 C   0  0  0  0  0  0  0  0  0  0  0  0
    9.9777   -4.0480   24.4829 N   0  0  0  0  0  0  0  0  0  0  0  0
    9.3558   -3.8561   23.3159 C   0  0  0  0  0  0  0  0  0  0  0  0
    9.7608   -2.6087   22.5477 C   0  0  0  0  0  0  0  0  0  0  0  0
    8.6200   -1.7301   22.1378 C   0  0  0  0  0  0  0  0  0  0  0  0
    8.3665   -1.3335   20.9117 N   0  0  0  0  0  0  0  0  0  0  0  0
    7.2075   -0.6269   21.0362 C   0  0  0  0  0  0  0  0  0  0  0  0
    6.5573    0.0336   19.9024 C   0  0  0  0  0  0  0  0  0  0  0  0
    5.3447    0.7351   20.0333 C   0  0  0  0  0  0  0  0  0  0  0  0
    4.8257    1.3588   18.9027 C   0  0  0  0  0  0  0  0  0  0  0  0
    5.5233    1.2610   17.6926 C   0  0  0  0  0  0  0  0  0  0  0  0
    6.6739    0.5843   17.5550 N   0  0  0  0  0  0  0  0  0  0  0  0
    7.1750   -0.0104   18.6441 C   0  0  0  0  0  0  0  0  0  0  0  0
    8.1123   -0.5445   18.4987 H   0  0  0  0  0  0  0  0  0  0  0  0
    5.1412    1.7500   16.7984 H   0  0  0  0  0  0  0  0  0  0  0  0
    3.9085    1.9365   18.9504 H   0  0  0  0  0  0  0  0  0  0  0  0
    4.8390    0.7883   21.0013 H   0  0  0  0  0  0  0  0  0  0  0  0
    6.7239   -0.5918   22.2637 N   0  0  0  0  0  0  0  0  0  0  0  0
    7.6624   -1.2696   22.9783 N   0  0  0  0  0  0  0  0  0  0  0  0
    7.5315   -1.5874   24.3697 C   0  0  0  0  0  0  0  0  0  0  0  0
    8.5172   -1.2430   25.2481 C   0  0  0  0  0  0  0  0  0  0  0  0
    8.5187   -1.7935   26.5824 C   0  0  0  0  0  0  0  0  0  0  0  0
    9.3821   -1.6562   27.4317 O   0  0  0  0  0  0  0  0  0  0  0  0
    7.4129   -2.5798   26.9021 N   0  0  0  0  0  0  0  0  0  0  0  0
    6.3839   -2.8807   26.0489 C   0  0  0  0  0  0  0  0  0  0  0  0
    6.4176   -2.3904   24.7826 C   0  0  0  0  0  0  0  0  0  0  0  0
    5.6293   -2.5994   24.0681 H   0  0  0  0  0  0  0  0  0  0  0  0
    5.5750   -3.5018   26.4332 H   0  0  0  0  0  0  0  0  0  0  0  0
    7.5332   -2.9428   27.8358 H   0  0  0  0  0  0  0  0  0  0  0  0
    9.3890   -0.6730   24.9721 H   0  0  0  0  0  0  0  0  0  0  0  0
   10.2546   -2.8799   21.6136 H   0  0  0  0  0  0  0  0  0  0  0  0
   10.4797   -2.0506   23.1551 H   0  0  0  0  0  0  0  0  0  0  0  0
   10.0519   -5.1481   26.2406 H   0  0  0  0  0  0  0  0  0  0  0  0
    8.1907   -6.6921   25.5922 H   0  0  0  0  0  0  0  0  0  0  0  0
    7.1118   -6.4164   23.3381 H   0  0  0  0  0  0  0  0  0  0  0  0
    7.6885   -5.6403   20.9413 H   0  0  0  0  0  0  0  0  0  0  0  0
    6.8820   -4.1014   21.3557 H   0  0  0  0  0  0  0  0  0  0  0  0
    8.5271   -4.0933   20.7408 H   0  0  0  0  0  0  0  0  0  0  0  0
  1  2  1  0
  2  3  2  0
  3  4  1  0
  4  5  2  0
  5  6  1  0
  6  7  2  0
  7  8  1  0
  8  9  1  0
  9 10  2  0
 10 11  1  0
 11 12  1  0
 12 13  2  0
 13 14  1  0
 14 15  2  0
 15 16  1  0
 16 17  2  0
 17 18  1  0
 15 19  1  0
 14 20  1  0
 13 21  1  0
 11 22  2  0
 22 23  1  0
 23 24  1  0
 24 25  2  0
 25 26  1  0
 26 27  2  0
 26 28  1  0
 28 29  1  0
 29 30  2  0
 30 31  1  0
 29 32  1  0
 28 33  1  0
 25 34  1  0
  8 35  1  0
  8 36  1  0
  5 37  1  0
  4 38  1  0
  3 39  1  0
  1 40  1  0
  1 41  1  0
  1 42  1  0
  7  2  1  0
 23  9  1  0
 30 24  1  0
 17 12  1  0
M  END
>  <cnnaffinity>  (1) 
-6.173

>  <filename>  (1) 
Cc1cccnc1Cc1nc(-c2cccnc2)nn1-c1cc[nH]c(=O)c1

$$$$
