
     RDKit          3D

 49 52  0  0  0  0  0  0  0  0999 V2000
    9.2206   -4.7651   27.1391 C   0  0  0  0  0  0  0  0  0  0  0  0
    8.9994   -3.4779   26.3333 C   0  0  0  0  0  0  0  0  0  0  0  0
    9.6227   -3.5738   24.9136 C   0  0  0  0  0  0  0  0  0  0  0  0
    8.6083   -4.0709   23.8640 C   0  0  0  0  0  0  0  0  0  0  0  0
    7.4093   -3.0813   23.7110 C   0  0  0  0  0  0  0  0  0  0  0  0
    7.6729   -2.0953   22.6105 C   0  0  0  0  0  0  0  0  0  0  0  0
    6.8072   -1.7260   21.6949 N   0  0  0  0  0  0  0  0  0  0  0  0
    7.4620   -0.7147   21.0421 N   0  0  0  0  0  0  0  0  0  0  0  0
    6.7819   -0.0564   19.9608 C   0  0  0  0  0  0  0  0  0  0  0  0
    5.5613    0.5886   20.2022 C   0  0  0  0  0  0  0  0  0  0  0  0
    4.9350    1.2602   19.1490 C   0  0  0  0  0  0  0  0  0  0  0  0
    5.5349    1.2487   17.8844 C   0  0  0  0  0  0  0  0  0  0  0  0
    6.6773    0.5895   17.6330 N   0  0  0  0  0  0  0  0  0  0  0  0
    7.2749   -0.0554   18.6445 C   0  0  0  0  0  0  0  0  0  0  0  0
    8.1828   -0.6046   18.3897 H   0  0  0  0  0  0  0  0  0  0  0  0
    5.0774    1.7737   17.0450 H   0  0  0  0  0  0  0  0  0  0  0  0
    4.0005    1.7933   19.2954 H   0  0  0  0  0  0  0  0  0  0  0  0
    5.1317    0.5595   21.2039 H   0  0  0  0  0  0  0  0  0  0  0  0
    8.6752   -0.5263   21.6503 C   0  0  0  0  0  0  0  0  0  0  0  0
    9.6360    0.5982   21.4790 C   0  0  0  0  0  0  0  0  0  0  0  0
    9.0194    1.8697   21.9304 C   0  0  0  0  0  0  0  0  0  0  0  0
    9.0799    2.3302   23.1608 N   0  0  0  0  0  0  0  0  0  0  0  0
    8.3688    3.4719   23.1519 N   0  0  0  0  0  0  0  0  0  0  0  0
    8.1321    4.1627   24.4074 C   0  0  0  0  0  0  0  0  0  0  0  0
    7.0621    4.1638   24.6326 H   0  0  0  0  0  0  0  0  0  0  0  0
    8.6635    3.6037   25.1821 H   0  0  0  0  0  0  0  0  0  0  0  0
    8.5093    5.1867   24.3579 H   0  0  0  0  0  0  0  0  0  0  0  0
    7.8457    3.7142   21.9281 C   0  0  0  0  0  0  0  0  0  0  0  0
    6.9203    5.1188   21.6008 Cl  0  0  0  0  0  0  0  0  0  0  0  0
    8.2264    2.6713   21.1186 C   0  0  0  0  0  0  0  0  0  0  0  0
    7.9599    2.4052   20.1162 H   0  0  0  0  0  0  0  0  0  0  0  0
    9.9210    0.6870   20.4323 H   0  0  0  0  0  0  0  0  0  0  0  0
   10.5140    0.3755   22.0895 H   0  0  0  0  0  0  0  0  0  0  0  0
    8.8426   -1.4073   22.5975 N   0  0  0  0  0  0  0  0  0  0  0  0
    7.1399   -2.2860   25.0353 C   0  0  0  0  0  0  0  0  0  0  0  0
    7.4885   -3.1099   26.2798 C   0  0  0  0  0  0  0  0  0  0  0  0
    7.2096   -2.5597   27.1872 H   0  0  0  0  0  0  0  0  0  0  0  0
    6.8807   -4.0263   26.2790 H   0  0  0  0  0  0  0  0  0  0  0  0
    7.7572   -1.3739   25.0512 H   0  0  0  0  0  0  0  0  0  0  0  0
    6.0972   -1.9496   25.0552 H   0  0  0  0  0  0  0  0  0  0  0  0
    6.5090   -3.6345   23.4227 H   0  0  0  0  0  0  0  0  0  0  0  0
    8.2244   -5.0558   24.1660 H   0  0  0  0  0  0  0  0  0  0  0  0
    9.1084   -4.2146   22.8994 H   0  0  0  0  0  0  0  0  0  0  0  0
    9.9747   -2.5837   24.5972 H   0  0  0  0  0  0  0  0  0  0  0  0
   10.5095   -4.2200   24.9335 H   0  0  0  0  0  0  0  0  0  0  0  0
    9.5164   -2.6577   26.8518 H   0  0  0  0  0  0  0  0  0  0  0  0
    8.7654   -4.7005   28.1323 H   0  0  0  0  0  0  0  0  0  0  0  0
    8.7741   -5.6286   26.6282 H   0  0  0  0  0  0  0  0  0  0  0  0
   10.2877   -4.9754   27.2712 H   0  0  0  0  0  0  0  0  0  0  0  0
  1  2  1  0
  2  3  1  0
  3  4  1  0
  4  5  1  0
  5  6  1  0
  6  7  2  0
  7  8  1  0
  8  9  1  0
  9 10  2  0
 10 11  1  0
 11 12  2  0
 12 13  1  0
 13 14  2  0
 14 15  1  0
 12 16  1  0
 11 17  1  0
 10 18  1  0
  8 19  1  0
 19 20  1  0
 20 21  1  0
 21 22  2  0
 22 23  1  0
 23 24  1  0
 24 25  1  0
 24 26  1  0
 24 27  1  0
 23 28  1  0
 28 29  1  0
 28 30  2  0
 30 31  1  0
 20 32  1  0
 20 33  1  0
 19 34  2  0
  5 35  1  0
 35 36  1  0
 36 37  1  0
 36 38  1  0
 35 39  1  0
 35 40  1  0
  5 41  1  0
  4 42  1  0
  4 43  1  0
  3 44  1  0
  3 45  1  0
  2 46  1  0
  1 47  1  0
  1 48  1  0
  1 49  1  0
 36  2  1  0
 34  6  1  0
 14  9  1  0
 30 21  1  0
M  END
>  <cnnaffinity>  (1) 
-6.2

>  <filename>  (1) 
CC1CCC(c2nc(Cc3cc(Cl)n(C)n3)n(-c3cccnc3)n2)CC1

$$$$
