
     RDKit          3D

 46 49  0  0  0  0  0  0  0  0999 V2000
   11.3697    2.8342   23.0092 C   0  0  0  0  0  0  0  0  0  0  0  0
   10.0757    2.3588   23.6339 C   0  0  0  0  0  0  0  0  0  0  0  0
   10.0141    2.1612   25.0214 C   0  0  0  0  0  0  0  0  0  0  0  0
    8.7928    1.9688   25.6756 C   0  0  0  0  0  0  0  0  0  0  0  0
    7.6140    1.9056   24.9248 C   0  0  0  0  0  0  0  0  0  0  0  0
    7.6881    1.9493   23.5276 C   0  0  0  0  0  0  0  0  0  0  0  0
    8.9053    2.1567   22.8607 C   0  0  0  0  0  0  0  0  0  0  0  0
    8.9781    2.0276   21.3468 C   0  0  0  0  0  0  0  0  0  0  0  0
    9.4908    0.6241   20.9189 C   0  0  0  0  0  0  0  0  0  0  0  0
    8.6108   -0.4936   21.3839 C   0  0  0  0  0  0  0  0  0  0  0  0
    8.8554   -1.3261   22.3727 N   0  0  0  0  0  0  0  0  0  0  0  0
    7.6708   -1.9800   22.5270 C   0  0  0  0  0  0  0  0  0  0  0  0
    7.4756   -2.9941   23.5915 C   0  0  2  0  0  0  0  0  0  0  0  0
    8.4314   -4.1531   23.7346 C   0  0  0  0  0  0  0  0  0  0  0  0
    7.0231   -4.3953   23.2675 C   0  0  1  0  0  0  0  0  0  0  0  0
    6.0253   -5.0879   24.1671 C   0  0  0  0  0  0  0  0  0  0  0  0
    6.2070   -4.8467   25.2213 H   0  0  0  0  0  0  0  0  0  0  0  0
    4.9972   -4.7920   23.9291 H   0  0  0  0  0  0  0  0  0  0  0  0
    6.0989   -6.1753   24.0604 H   0  0  0  0  0  0  0  0  0  0  0  0
    6.9102   -4.6193   22.2054 H   0  0  0  0  0  0  0  0  0  0  0  0
    8.7030   -4.4677   24.7420 H   0  0  0  0  0  0  0  0  0  0  0  0
    9.2426   -4.2231   23.0120 H   0  0  0  0  0  0  0  0  0  0  0  0
    7.0984   -2.5479   24.5146 H   0  0  0  0  0  0  0  0  0  0  0  0
    6.7169   -1.6096   21.6917 N   0  0  0  0  0  0  0  0  0  0  0  0
    7.3360   -0.6733   20.9272 N   0  0  0  0  0  0  0  0  0  0  0  0
    6.6360   -0.0109   19.8813 C   0  0  0  0  0  0  0  0  0  0  0  0
    5.4224    0.6358   20.1344 C   0  0  0  0  0  0  0  0  0  0  0  0
    4.8090    1.3216   19.0816 C   0  0  0  0  0  0  0  0  0  0  0  0
    5.4124    1.3136   17.8183 C   0  0  0  0  0  0  0  0  0  0  0  0
    6.5589    0.6655   17.5600 N   0  0  0  0  0  0  0  0  0  0  0  0
    7.1483    0.0205   18.5735 C   0  0  0  0  0  0  0  0  0  0  0  0
    8.0740   -0.5054   18.3431 H   0  0  0  0  0  0  0  0  0  0  0  0
    4.9558    1.8348   16.9795 H   0  0  0  0  0  0  0  0  0  0  0  0
    3.8786    1.8589   19.2291 H   0  0  0  0  0  0  0  0  0  0  0  0
    4.9817    0.5879   21.1313 H   0  0  0  0  0  0  0  0  0  0  0  0
   10.4810    0.4556   21.3554 H   0  0  0  0  0  0  0  0  0  0  0  0
    9.5881    0.5816   19.8312 H   0  0  0  0  0  0  0  0  0  0  0  0
    7.9909    2.2150   20.9023 H   0  0  0  0  0  0  0  0  0  0  0  0
    9.6510    2.7867   20.9338 H   0  0  0  0  0  0  0  0  0  0  0  0
    6.7929    1.8028   22.9220 H   0  0  0  0  0  0  0  0  0  0  0  0
    6.6470    1.8197   25.4107 H   0  0  0  0  0  0  0  0  0  0  0  0
    8.7829    1.8546   26.7571 H   0  0  0  0  0  0  0  0  0  0  0  0
   10.9506    2.1471   25.5719 H   0  0  0  0  0  0  0  0  0  0  0  0
   11.2110    3.8047   22.5243 H   0  0  0  0  0  0  0  0  0  0  0  0
   11.7721    2.1552   22.2480 H   0  0  0  0  0  0  0  0  0  0  0  0
   12.1534    2.9711   23.7601 H   0  0  0  0  0  0  0  0  0  0  0  0
  1  2  1  0
  2  3  2  0
  3  4  1  0
  4  5  2  0
  5  6  1  0
  6  7  2  0
  7  8  1  0
  8  9  1  0
  9 10  1  0
 10 11  2  0
 11 12  1  0
 12 13  1  0
 13 14  1  0
 14 15  1  0
 15 16  1  0
 16 17  1  0
 16 18  1  0
 16 19  1  0
 15 20  1  6
 14 21  1  0
 14 22  1  0
 13 23  1  1
 12 24  2  0
 24 25  1  0
 25 26  1  0
 26 27  2  0
 27 28  1  0
 28 29  2  0
 29 30  1  0
 30 31  2  0
 31 32  1  0
 29 33  1  0
 28 34  1  0
 27 35  1  0
  9 36  1  0
  9 37  1  0
  8 38  1  0
  8 39  1  0
  6 40  1  0
  5 41  1  0
  4 42  1  0
  3 43  1  0
  1 44  1  0
  1 45  1  0
  1 46  1  0
  7  2  1  0
 25 10  1  0
 31 26  1  0
 15 13  1  0
M  END
>  <cnnaffinity>  (1) 
-6.06126

>  <filename>  (1) 
Cc1ccccc1CCc1nc([C@@H]2C[C@H]2C)nn1-c1cccnc1

$$$$
