
     RDKit          3D

 47 51  0  0  0  0  0  0  0  0999 V2000
    6.8693   -5.9081   26.7333 C   0  0  0  0  0  0  0  0  0  0  0  0
    7.0973   -4.8988   25.6455 C   0  0  0  0  0  0  0  0  0  0  0  0
    6.0806   -4.5926   24.7288 C   0  0  0  0  0  0  0  0  0  0  0  0
    6.2736   -3.6349   23.7363 C   0  0  0  0  0  0  0  0  0  0  0  0
    7.5018   -2.9484   23.6339 C   0  0  0  0  0  0  0  0  0  0  0  0
    7.6967   -1.9343   22.5773 C   0  0  0  0  0  0  0  0  0  0  0  0
    6.7610   -1.6076   21.6984 N   0  0  0  0  0  0  0  0  0  0  0  0
    7.3691   -0.6624   20.9413 N   0  0  0  0  0  0  0  0  0  0  0  0
    6.6569    0.0025   19.9023 C   0  0  0  0  0  0  0  0  0  0  0  0
    5.4439    0.6491   20.1620 C   0  0  0  0  0  0  0  0  0  0  0  0
    4.8059    1.3121   19.1115 C   0  0  0  0  0  0  0  0  0  0  0  0
    5.3985    1.2920   17.8439 C   0  0  0  0  0  0  0  0  0  0  0  0
    6.5708    0.6853   17.5874 N   0  0  0  0  0  0  0  0  0  0  0  0
    7.1810    0.0604   18.5998 C   0  0  0  0  0  0  0  0  0  0  0  0
    8.1303   -0.4383   18.3819 H   0  0  0  0  0  0  0  0  0  0  0  0
    4.9048    1.7720   17.0048 H   0  0  0  0  0  0  0  0  0  0  0  0
    3.8722    1.8449   19.2684 H   0  0  0  0  0  0  0  0  0  0  0  0
    5.0116    0.6204   21.1610 H   0  0  0  0  0  0  0  0  0  0  0  0
    8.6301   -0.4709   21.4138 C   0  0  0  0  0  0  0  0  0  0  0  0
    9.5789    0.5084   20.9358 C   0  0  0  0  0  0  0  0  0  0  0  0
    9.0131    1.8842   21.2430 C   0  0  0  0  0  0  0  0  0  0  0  0
    8.5978    2.8125   20.5172 C   0  0  0  0  0  0  0  0  0  0  0  0
    8.1553    3.7235   22.1845 N   0  0  0  0  0  0  0  0  0  0  0  0
    8.1547    3.7230   22.1844 C   0  0  0  0  0  0  0  0  0  0  0  0
    7.8366    4.6185   23.3980 C   0  0  0  0  0  0  0  0  0  0  0  0
    8.3039    6.0364   23.4841 C   0  0  0  0  0  0  0  0  0  0  0  0
    8.8224    5.0042   24.4637 C   0  0  0  0  0  0  0  0  0  0  0  0
    9.8121    4.5752   24.2017 H   0  0  0  0  0  0  0  0  0  0  0  0
    8.4967    5.0883   25.4558 H   0  0  0  0  0  0  0  0  0  0  0  0
    8.9521    6.2350   22.6116 H   0  0  0  0  0  0  0  0  0  0  0  0
    7.6153    6.7633   23.8407 H   0  0  0  0  0  0  0  0  0  0  0  0
    6.7578    4.4008   23.8035 H   0  0  0  0  0  0  0  0  0  0  0  0
    8.8065    2.3666   22.5584 N   0  0  0  0  0  0  0  0  0  0  0  0
    8.9528    2.0261   23.4234 H   0  0  0  0  0  0  0  0  0  0  0  0
    8.3358    2.4934   19.4187 H   0  0  0  0  0  0  0  0  0  0  0  0
    9.6878    0.5194   19.8401 H   0  0  0  0  0  0  0  0  0  0  0  0
   10.5181    0.4877   21.4328 H   0  0  0  0  0  0  0  0  0  0  0  0
    8.8618   -1.2480   22.4320 N   0  0  0  0  0  0  0  0  0  0  0  0
    8.5216   -3.2474   24.5616 C   0  0  0  0  0  0  0  0  0  0  0  0
    8.3155   -4.2088   25.5513 C   0  0  0  0  0  0  0  0  0  0  0  0
    9.1096   -4.4207   26.2655 H   0  0  0  0  0  0  0  0  0  0  0  0
    9.4776   -2.7304   24.5153 H   0  0  0  0  0  0  0  0  0  0  0  0
    5.4686   -3.4146   23.0384 H   0  0  0  0  0  0  0  0  0  0  0  0
    5.1225   -5.1028   24.7965 H   0  0  0  0  0  0  0  0  0  0  0  0
    7.8044   -6.4017   27.0127 H   0  0  0  0  0  0  0  0  0  0  0  0
    6.1592   -6.6762   26.4142 H   0  0  0  0  0  0  0  0  0  0  0  0
    6.4636   -5.4063   27.6188 H   0  0  0  0  0  0  0  0  0  0  0  0
  1  2  1  0
  2  3  2  0
  3  4  1  0
  4  5  2  0
  5  6  1  0
  6  7  2  0
  7  8  1  0
  8  9  1  0
  9 10  2  0
 10 11  1  0
 11 12  2  0
 12 13  1  0
 13 14  2  0
 14 15  1  0
 12 16  1  0
 11 17  1  0
 10 18  1  0
  8 19  1  0
 19 20  1  0
 20 21  1  0
 21 22  2  0
 22 23  1  0
 23 24  2  0
 24 25  1  0
 25 26  1  0
 26 27  1  0
 27 28  1  0
 27 29  1  0
 26 30  1  0
 26 31  1  0
 25 32  1  0
 24 33  1  0
 33 34  1  0
 22 35  1  0
 20 36  1  0
 20 37  1  0
 19 38  2  0
  5 39  1  0
 39 40  2  0
 40 41  1  0
 39 42  1  0
  4 43  1  0
  3 44  1  0
  1 45  1  0
  1 46  1  0
  1 47  1  0
 40  2  1  0
 38  6  1  0
 14  9  1  0
 33 21  1  0
 27 25  1  0
M  END
>  <cnnaffinity>  (1) 
-6.04288

>  <filename>  (1) 
Cc1ccc(-c2nc(Cc3cnc(C4CC4)[nH]3)n(-c3cccnc3)n2)cc1

$$$$
