
     RDKit          3D

 46 49  0  0  0  0  0  0  0  0999 V2000
    6.0093    3.3759   29.0376 C   0  0  0  0  0  0  0  0  0  0  0  0
    6.4459    2.8721   27.6898 C   0  0  0  0  0  0  0  0  0  0  0  0
    7.5672    3.3879   27.0200 C   0  0  0  0  0  0  0  0  0  0  0  0
    7.9615    2.8973   25.7775 C   0  0  0  0  0  0  0  0  0  0  0  0
    7.2326    1.8670   25.1592 C   0  0  0  0  0  0  0  0  0  0  0  0
    7.6748    1.3449   23.8511 C   0  0  0  0  0  0  0  0  0  0  0  0
    7.0872    0.3417   23.2157 N   0  0  0  0  0  0  0  0  0  0  0  0
    7.8087    0.2212   22.0783 N   0  0  0  0  0  0  0  0  0  0  0  0
    7.3755   -0.7007   21.0224 C   0  0  0  0  0  0  0  0  0  0  0  0
    6.6516   -0.0098   19.8740 C   0  0  0  0  0  0  0  0  0  0  0  0
    5.4397    0.6515   20.1214 C   0  0  0  0  0  0  0  0  0  0  0  0
    4.8044    1.3117   19.0687 C   0  0  0  0  0  0  0  0  0  0  0  0
    5.4063    1.2976   17.8086 C   0  0  0  0  0  0  0  0  0  0  0  0
    6.5545    0.6591   17.5438 N   0  0  0  0  0  0  0  0  0  0  0  0
    7.1530    0.0248   18.5615 C   0  0  0  0  0  0  0  0  0  0  0  0
    8.0918   -0.4738   18.3070 H   0  0  0  0  0  0  0  0  0  0  0  0
    4.9460    1.8245   16.9756 H   0  0  0  0  0  0  0  0  0  0  0  0
    3.8714    1.8449   19.2101 H   0  0  0  0  0  0  0  0  0  0  0  0
    5.0177    0.6695   21.1289 H   0  0  0  0  0  0  0  0  0  0  0  0
    8.2444   -1.2729   20.6718 H   0  0  0  0  0  0  0  0  0  0  0  0
    6.7128   -1.4161   21.5230 H   0  0  0  0  0  0  0  0  0  0  0  0
    8.7802    1.1661   22.0732 C   0  0  0  0  0  0  0  0  0  0  0  0
    9.8281    1.3829   21.0309 C   0  0  0  0  0  0  0  0  0  0  0  0
   11.2235    1.0563   21.5218 C   0  0  0  0  0  0  0  0  0  0  0  0
   12.1521    1.9815   21.9239 C   0  0  0  0  0  0  0  0  0  0  0  0
   13.1927    1.2946   22.4485 N   0  0  0  0  0  0  0  0  0  0  0  0
   13.0019   -0.0347   22.4239 N   0  0  0  0  0  0  0  0  0  0  0  0
   11.8022   -0.1951   21.8729 C   0  0  0  0  0  0  0  0  0  0  0  0
   11.1890   -1.5446   21.7275 C   0  0  0  0  0  0  0  0  0  0  0  0
   10.5073   -1.7451   22.5631 H   0  0  0  0  0  0  0  0  0  0  0  0
   10.6118   -1.6185   20.8030 H   0  0  0  0  0  0  0  0  0  0  0  0
   11.9533   -2.3185   21.7200 H   0  0  0  0  0  0  0  0  0  0  0  0
   14.0662    1.6641   22.7861 H   0  0  0  0  0  0  0  0  0  0  0  0
   12.1205    3.0627   21.8788 H   0  0  0  0  0  0  0  0  0  0  0  0
    9.5662    0.8288   20.1255 H   0  0  0  0  0  0  0  0  0  0  0  0
    9.7721    2.4489   20.7806 H   0  0  0  0  0  0  0  0  0  0  0  0
    8.7238    1.8825   23.1753 N   0  0  0  0  0  0  0  0  0  0  0  0
    6.0957    1.3437   25.8042 C   0  0  0  0  0  0  0  0  0  0  0  0
    5.7324    1.8480   27.0420 C   0  0  0  0  0  0  0  0  0  0  0  0
    4.6409    1.3313   27.6416 F   0  0  0  0  0  0  0  0  0  0  0  0
    5.5102    0.5462   25.3575 H   0  0  0  0  0  0  0  0  0  0  0  0
    8.8375    3.2941   25.2730 H   0  0  0  0  0  0  0  0  0  0  0  0
    8.1443    4.1929   27.4705 H   0  0  0  0  0  0  0  0  0  0  0  0
    6.5179    4.3086   29.3026 H   0  0  0  0  0  0  0  0  0  0  0  0
    4.9305    3.5620   29.0406 H   0  0  0  0  0  0  0  0  0  0  0  0
    6.2201    2.6350   29.8181 H   0  0  0  0  0  0  0  0  0  0  0  0
  1  2  1  0
  2  3  2  0
  3  4  1  0
  4  5  2  0
  5  6  1  0
  6  7  2  0
  7  8  1  0
  8  9  1  0
  9 10  1  0
 10 11  2  0
 11 12  1  0
 12 13  2  0
 13 14  1  0
 14 15  2  0
 15 16  1  0
 13 17  1  0
 12 18  1  0
 11 19  1  0
  9 20  1  0
  9 21  1  0
  8 22  1  0
 22 23  1  0
 23 24  1  0
 24 25  2  0
 25 26  1  0
 26 27  1  0
 27 28  2  0
 28 29  1  0
 29 30  1  0
 29 31  1  0
 29 32  1  0
 26 33  1  0
 25 34  1  0
 23 35  1  0
 23 36  1  0
 22 37  2  0
  5 38  1  0
 38 39  2  0
 39 40  1  0
 38 41  1  0
  4 42  1  0
  3 43  1  0
  1 44  1  0
  1 45  1  0
  1 46  1  0
 39  2  1  0
 37  6  1  0
 15 10  1  0
 28 24  1  0
M  END
>  <cnnaffinity>  (1) 
-6.28904

>  <filename>  (1) 
Cc1ccc(-c2nc(Cc3c[nH]nc3C)n(Cc3cccnc3)n2)cc1F

$$$$
