
     RDKit          3D

 46 49  0  0  0  0  0  0  0  0999 V2000
   14.5347    0.8515   22.8101 C   0  0  0  0  0  0  0  0  0  0  0  0
   13.4935   -0.0514   22.2207 C   0  0  0  0  0  0  0  0  0  0  0  0
   13.8590   -1.1538   21.4369 C   0  0  0  0  0  0  0  0  0  0  0  0
   12.8984   -1.9571   20.8421 C   0  0  0  0  0  0  0  0  0  0  0  0
   11.5511   -1.7278   21.1056 C   0  0  0  0  0  0  0  0  0  0  0  0
   11.1620   -0.5809   21.8033 C   0  0  0  0  0  0  0  0  0  0  0  0
    9.7375   -0.2141   21.8230 C   0  0  0  0  0  0  0  0  0  0  0  0
    8.7748   -1.0435   21.4543 N   0  0  0  0  0  0  0  0  0  0  0  0
    7.6507   -0.3204   21.6468 N   0  0  0  0  0  0  0  0  0  0  0  0
    6.3942   -0.7961   21.0745 C   0  0  0  0  0  0  0  0  0  0  0  0
    5.9671    0.0015   19.8610 C   0  0  0  0  0  0  0  0  0  0  0  0
    4.8013    0.7697   19.8387 C   0  0  0  0  0  0  0  0  0  0  0  0
    4.5189    1.5339   18.7033 C   0  0  0  0  0  0  0  0  0  0  0  0
    5.4122    1.4959   17.6302 C   0  0  0  0  0  0  0  0  0  0  0  0
    6.5275    0.7509   17.6241 N   0  0  0  0  0  0  0  0  0  0  0  0
    6.7937    0.0353   18.7235 C   0  0  0  0  0  0  0  0  0  0  0  0
    7.7190   -0.5411   18.7009 H   0  0  0  0  0  0  0  0  0  0  0  0
    5.2283    2.0972   16.7401 H   0  0  0  0  0  0  0  0  0  0  0  0
    3.6361    2.1596   18.6456 H   0  0  0  0  0  0  0  0  0  0  0  0
    4.1296    0.7796   20.6993 H   0  0  0  0  0  0  0  0  0  0  0  0
    5.6323   -0.7634   21.8518 H   0  0  0  0  0  0  0  0  0  0  0  0
    6.5599   -1.8474   20.8203 H   0  0  0  0  0  0  0  0  0  0  0  0
    7.9805    0.8931   22.1387 C   0  0  0  0  0  0  0  0  0  0  0  0
    6.9996    1.7600   22.8887 C   0  0  0  0  0  0  0  0  0  0  0  0
    6.8209    1.2410   24.3100 C   0  0  0  0  0  0  0  0  0  0  0  0
    7.8664    1.0643   25.1920 C   0  0  0  0  0  0  0  0  0  0  0  0
    7.3889    0.3926   26.2602 N   0  0  0  0  0  0  0  0  0  0  0  0
    8.1704   -0.1048   27.3703 C   0  0  0  0  0  0  0  0  0  0  0  0
    7.7220   -1.0338   27.7270 H   0  0  0  0  0  0  0  0  0  0  0  0
    8.2103    0.6252   28.1825 H   0  0  0  0  0  0  0  0  0  0  0  0
    9.1867   -0.3066   27.0225 H   0  0  0  0  0  0  0  0  0  0  0  0
    6.0793    0.1491   26.1574 N   0  0  0  0  0  0  0  0  0  0  0  0
    5.7221    0.6581   24.9806 C   0  0  0  0  0  0  0  0  0  0  0  0
    4.6898    0.5764   24.6593 H   0  0  0  0  0  0  0  0  0  0  0  0
    8.9201    1.3012   25.0838 H   0  0  0  0  0  0  0  0  0  0  0  0
    6.0457    1.8147   22.3530 H   0  0  0  0  0  0  0  0  0  0  0  0
    7.4318    2.7654   22.8969 H   0  0  0  0  0  0  0  0  0  0  0  0
    9.2953    1.0095   22.2104 N   0  0  0  0  0  0  0  0  0  0  0  0
   12.1372    0.2437   22.3820 C   0  0  0  0  0  0  0  0  0  0  0  0
   11.8417    1.1446   22.9232 H   0  0  0  0  0  0  0  0  0  0  0  0
   10.7597   -2.3575   20.7145 H   0  0  0  0  0  0  0  0  0  0  0  0
   13.2325   -2.7260   20.1548 H   0  0  0  0  0  0  0  0  0  0  0  0
   14.8927   -1.3866   21.2237 H   0  0  0  0  0  0  0  0  0  0  0  0
   15.4346    0.8653   22.1927 H   0  0  0  0  0  0  0  0  0  0  0  0
   14.8070    0.5029   23.8089 H   0  0  0  0  0  0  0  0  0  0  0  0
   14.1792    1.8820   22.8853 H   0  0  0  0  0  0  0  0  0  0  0  0
  1  2  1  0
  2  3  2  0
  3  4  1  0
  4  5  2  0
  5  6  1  0
  6  7  1  0
  7  8  2  0
  8  9  1  0
  9 10  1  0
 10 11  1  0
 11 12  2  0
 12 13  1  0
 13 14  2  0
 14 15  1  0
 15 16  2  0
 16 17  1  0
 14 18  1  0
 13 19  1  0
 12 20  1  0
 10 21  1  0
 10 22  1  0
  9 23  1  0
 23 24  1  0
 24 25  1  0
 25 26  2  0
 26 27  1  0
 27 28  1  0
 28 29  1  0
 28 30  1  0
 28 31  1  0
 27 32  1  0
 32 33  2  0
 33 34  1  0
 26 35  1  0
 24 36  1  0
 24 37  1  0
 23 38  2  0
  6 39  2  0
 39 40  1  0
  5 41  1  0
  4 42  1  0
  3 43  1  0
  1 44  1  0
  1 45  1  0
  1 46  1  0
 39  2  1  0
 38  7  1  0
 16 11  1  0
 33 25  1  0
M  END
>  <cnnaffinity>  (1) 
-6.36296

>  <filename>  (1) 
Cc1cccc(-c2nc(Cc3cnn(C)c3)n(Cc3cccnc3)n2)c1

$$$$
