
     RDKit          3D

 49 52  0  0  0  0  0  0  0  0999 V2000
   12.6617    4.2944   20.5151 C   0  0  0  0  0  0  0  0  0  0  0  0
   12.0583    3.3337   21.4906 C   0  0  0  0  0  0  0  0  0  0  0  0
   11.0893    2.5008   21.1352 N   0  0  0  0  0  0  0  0  0  0  0  0
   10.6996    1.8870   22.2663 N   0  0  0  0  0  0  0  0  0  0  0  0
    9.4324    1.1284   22.3400 C   0  0  0  0  0  0  0  0  0  0  0  0
    8.2136    2.0623   22.2851 C   0  0  0  0  0  0  0  0  0  0  0  0
    8.1585    2.7239   23.1560 H   0  0  0  0  0  0  0  0  0  0  0  0
    7.2894    1.4776   22.2464 H   0  0  0  0  0  0  0  0  0  0  0  0
    8.2551    2.6868   21.3849 H   0  0  0  0  0  0  0  0  0  0  0  0
    9.3578    0.0386   21.2373 C   0  0  0  0  0  0  0  0  0  0  0  0
    8.3466   -1.0121   21.5621 C   0  0  0  0  0  0  0  0  0  0  0  0
    8.5260   -1.8695   22.5480 N   0  0  0  0  0  0  0  0  0  0  0  0
    7.3617   -2.5638   22.5902 C   0  0  0  0  0  0  0  0  0  0  0  0
    7.1673   -3.5930   23.6774 C   0  0  0  0  0  0  0  0  0  0  0  0
    6.2906   -3.0545   24.8634 C   0  0  0  0  0  0  0  0  0  0  0  0
    4.9627   -3.8477   24.7920 C   0  0  0  0  0  0  0  0  0  0  0  0
    4.9585   -4.5166   23.4138 C   0  0  0  0  0  0  0  0  0  0  0  0
    6.4336   -4.8741   23.2196 C   0  0  0  0  0  0  0  0  0  0  0  0
    6.7088   -5.1903   22.2058 H   0  0  0  0  0  0  0  0  0  0  0  0
    6.6961   -5.6979   23.9010 H   0  0  0  0  0  0  0  0  0  0  0  0
    4.6625   -3.8020   22.6367 H   0  0  0  0  0  0  0  0  0  0  0  0
    4.2920   -5.3839   23.3694 H   0  0  0  0  0  0  0  0  0  0  0  0
    4.9604   -4.6296   25.5631 H   0  0  0  0  0  0  0  0  0  0  0  0
    4.0826   -3.2232   24.9754 H   0  0  0  0  0  0  0  0  0  0  0  0
    6.8020   -3.2175   25.8200 H   0  0  0  0  0  0  0  0  0  0  0  0
    6.1319   -1.9713   24.7856 H   0  0  0  0  0  0  0  0  0  0  0  0
    8.1865   -3.8095   24.0101 H   0  0  0  0  0  0  0  0  0  0  0  0
    6.4709   -2.1926   21.6839 N   0  0  0  0  0  0  0  0  0  0  0  0
    7.1211   -1.2153   20.9974 N   0  0  0  0  0  0  0  0  0  0  0  0
    6.4703   -0.4779   19.9672 C   0  0  0  0  0  0  0  0  0  0  0  0
    5.3335    0.2920   20.2314 C   0  0  0  0  0  0  0  0  0  0  0  0
    4.8568    1.1283   19.2126 C   0  0  0  0  0  0  0  0  0  0  0  0
    5.5130    1.1386   17.9762 C   0  0  0  0  0  0  0  0  0  0  0  0
    6.5632    0.3526   17.7006 N   0  0  0  0  0  0  0  0  0  0  0  0
    7.0195   -0.4456   18.6745 C   0  0  0  0  0  0  0  0  0  0  0  0
    7.8708   -1.0773   18.4253 H   0  0  0  0  0  0  0  0  0  0  0  0
    5.1849    1.8020   17.1764 H   0  0  0  0  0  0  0  0  0  0  0  0
    4.0045    1.7793   19.3681 H   0  0  0  0  0  0  0  0  0  0  0  0
    4.8617    0.2582   21.2156 H   0  0  0  0  0  0  0  0  0  0  0  0
   10.3252   -0.4651   21.1583 H   0  0  0  0  0  0  0  0  0  0  0  0
    9.1541    0.5147   20.2763 H   0  0  0  0  0  0  0  0  0  0  0  0
    9.4633    0.6327   23.3170 H   0  0  0  0  0  0  0  0  0  0  0  0
   11.4356    2.2953   23.3307 C   0  0  0  0  0  0  0  0  0  0  0  0
   12.3301    3.2369   22.8728 C   0  0  0  0  0  0  0  0  0  0  0  0
   13.0530    3.8270   23.4163 H   0  0  0  0  0  0  0  0  0  0  0  0
   11.2622    1.8882   24.3152 H   0  0  0  0  0  0  0  0  0  0  0  0
   13.7478    4.1969   20.4778 H   0  0  0  0  0  0  0  0  0  0  0  0
   12.4705    5.3239   20.8310 H   0  0  0  0  0  0  0  0  0  0  0  0
   12.2515    4.1706   19.5097 H   0  0  0  0  0  0  0  0  0  0  0  0
  1  2  1  0
  2  3  2  0
  3  4  1  0
  4  5  1  0
  5  6  1  0
  6  7  1  0
  6  8  1  0
  6  9  1  0
  5 10  1  0
 10 11  1  0
 11 12  2  0
 12 13  1  0
 13 14  1  0
 14 15  1  0
 15 16  1  0
 16 17  1  0
 17 18  1  0
 18 19  1  0
 18 20  1  0
 17 21  1  0
 17 22  1  0
 16 23  1  0
 16 24  1  0
 15 25  1  0
 15 26  1  0
 14 27  1  0
 13 28  2  0
 28 29  1  0
 29 30  1  0
 30 31  2  0
 31 32  1  0
 32 33  2  0
 33 34  1  0
 34 35  2  0
 35 36  1  0
 33 37  1  0
 32 38  1  0
 31 39  1  0
 10 40  1  0
 10 41  1  0
  5 42  1  0
  4 43  1  0
 43 44  2  0
 44 45  1  0
 43 46  1  0
  1 47  1  0
  1 48  1  0
  1 49  1  0
 44  2  1  0
 29 11  1  0
 35 30  1  0
 18 14  1  0
M  END
>  <cnnaffinity>  (1) 
-6.22823

>  <filename>  (1) 
Cc1ccn(C(C)Cc2nc(C3CCCC3)nn2-c2cccnc2)n1

$$$$
