
     RDKit          3D

 43 46  0  0  0  0  0  0  0  0999 V2000
   12.2358   -1.2789   21.1401 C   0  0  0  0  0  0  0  0  0  0  0  0
   11.9169   -0.0078   21.8824 C   0  0  0  0  0  0  0  0  0  0  0  0
   12.7826    0.4750   22.8702 C   0  0  0  0  0  0  0  0  0  0  0  0
   12.4435    1.6227   23.5846 C   0  0  0  0  0  0  0  0  0  0  0  0
   11.3130    2.3076   23.4006 N   0  0  0  0  0  0  0  0  0  0  0  0
   10.4984    1.8521   22.4440 C   0  0  0  0  0  0  0  0  0  0  0  0
   10.7443    0.7320   21.6373 C   0  0  0  0  0  0  0  0  0  0  0  0
    9.6734    0.2472   20.6801 C   0  0  0  0  0  0  0  0  0  0  0  0
    8.6505   -0.6165   21.3296 C   0  0  0  0  0  0  0  0  0  0  0  0
    8.8759   -1.4851   22.2947 N   0  0  0  0  0  0  0  0  0  0  0  0
    7.6464   -2.0102   22.5221 C   0  0  0  0  0  0  0  0  0  0  0  0
    7.4010   -2.9163   23.6941 C   0  0  0  0  0  0  0  0  0  0  0  0
    6.9298   -2.1545   24.9631 C   0  0  0  0  0  0  0  0  0  0  0  0
    6.0046   -3.1715   25.6376 C   0  0  0  0  0  0  0  0  0  0  0  0
    5.4697   -4.0058   24.4647 C   0  0  0  0  0  0  0  0  0  0  0  0
    6.4080   -3.8858   23.4073 O   0  0  0  0  0  0  0  0  0  0  0  0
    4.4912   -3.6511   24.1109 H   0  0  0  0  0  0  0  0  0  0  0  0
    5.3874   -5.0720   24.7031 H   0  0  0  0  0  0  0  0  0  0  0  0
    5.1913   -2.6956   26.1917 H   0  0  0  0  0  0  0  0  0  0  0  0
    6.5620   -3.8033   26.3380 H   0  0  0  0  0  0  0  0  0  0  0  0
    7.7733   -1.8441   25.5898 H   0  0  0  0  0  0  0  0  0  0  0  0
    6.3811   -1.2471   24.6792 H   0  0  0  0  0  0  0  0  0  0  0  0
    8.3546   -3.4262   23.8850 H   0  0  0  0  0  0  0  0  0  0  0  0
    6.6874   -1.5417   21.7443 N   0  0  0  0  0  0  0  0  0  0  0  0
    7.3441   -0.6763   20.9372 N   0  0  0  0  0  0  0  0  0  0  0  0
    6.6524    0.0080   19.8997 C   0  0  0  0  0  0  0  0  0  0  0  0
    5.4364    0.6445   20.1650 C   0  0  0  0  0  0  0  0  0  0  0  0
    4.8116    1.3111   19.1091 C   0  0  0  0  0  0  0  0  0  0  0  0
    5.3993    1.2960   17.8374 C   0  0  0  0  0  0  0  0  0  0  0  0
    6.5576    0.6725   17.5763 N   0  0  0  0  0  0  0  0  0  0  0  0
    7.1655    0.0511   18.5914 C   0  0  0  0  0  0  0  0  0  0  0  0
    8.1124   -0.4310   18.3612 H   0  0  0  0  0  0  0  0  0  0  0  0
    4.9216    1.7858   16.9935 H   0  0  0  0  0  0  0  0  0  0  0  0
    3.8806    1.8401   19.2596 H   0  0  0  0  0  0  0  0  0  0  0  0
    5.0178    0.6073   21.1739 H   0  0  0  0  0  0  0  0  0  0  0  0
    9.1776    1.1028   20.2186 H   0  0  0  0  0  0  0  0  0  0  0  0
   10.0593   -0.3912   19.8765 H   0  0  0  0  0  0  0  0  0  0  0  0
    9.5623    2.3951   22.3164 H   0  0  0  0  0  0  0  0  0  0  0  0
   13.1121    2.0107   24.3461 H   0  0  0  0  0  0  0  0  0  0  0  0
   13.7114   -0.0399   23.0760 H   0  0  0  0  0  0  0  0  0  0  0  0
   13.1268   -1.7579   21.5533 H   0  0  0  0  0  0  0  0  0  0  0  0
   12.4413   -1.1029   20.0812 H   0  0  0  0  0  0  0  0  0  0  0  0
   11.3965   -1.9825   21.1779 H   0  0  0  0  0  0  0  0  0  0  0  0
  1  2  1  0
  2  3  2  0
  3  4  1  0
  4  5  2  0
  5  6  1  0
  6  7  2  0
  7  8  1  0
  8  9  1  0
  9 10  2  0
 10 11  1  0
 11 12  1  0
 12 13  1  0
 13 14  1  0
 14 15  1  0
 15 16  1  0
 15 17  1  0
 15 18  1  0
 14 19  1  0
 14 20  1  0
 13 21  1  0
 13 22  1  0
 12 23  1  0
 11 24  2  0
 24 25  1  0
 25 26  1  0
 26 27  2  0
 27 28  1  0
 28 29  2  0
 29 30  1  0
 30 31  2  0
 31 32  1  0
 29 33  1  0
 28 34  1  0
 27 35  1  0
  8 36  1  0
  8 37  1  0
  6 38  1  0
  4 39  1  0
  3 40  1  0
  1 41  1  0
  1 42  1  0
  1 43  1  0
  7  2  1  0
 25  9  1  0
 31 26  1  0
 16 12  1  0
M  END
>  <cnnaffinity>  (1) 
-6.36687

>  <filename>  (1) 
Cc1ccncc1Cc1nc(C2CCCO2)nn1-c1cccnc1

$$$$
