
     RDKit          3D

 42 45  0  0  0  0  0  0  0  0999 V2000
    8.3349    2.7622   22.0511 C   0  0  0  0  0  0  0  0  0  0  0  0
    9.6870    2.2720   22.5023 C   0  0  0  0  0  0  0  0  0  0  0  0
   10.3397    2.9200   23.5558 C   0  0  0  0  0  0  0  0  0  0  0  0
   11.5816    2.4758   24.0160 C   0  0  0  0  0  0  0  0  0  0  0  0
   12.1961    1.3681   23.4331 C   0  0  0  0  0  0  0  0  0  0  0  0
   11.5592    0.7205   22.3724 C   0  0  0  0  0  0  0  0  0  0  0  0
   10.3299    1.1762   21.8868 C   0  0  0  0  0  0  0  0  0  0  0  0
    9.6281    0.3793   20.8088 C   0  0  0  0  0  0  0  0  0  0  0  0
    8.6232   -0.5688   21.3694 C   0  0  0  0  0  0  0  0  0  0  0  0
    8.8524   -1.4403   22.3240 N   0  0  0  0  0  0  0  0  0  0  0  0
    7.6307   -2.0276   22.5193 C   0  0  0  0  0  0  0  0  0  0  0  0
    7.3923   -3.0644   23.5899 C   0  0  0  0  0  0  0  0  0  0  0  0
    8.4447   -3.4653   24.4496 C   0  0  0  0  0  0  0  0  0  0  0  0
    8.1973   -4.4293   25.4305 C   0  0  0  0  0  0  0  0  0  0  0  0
    6.9105   -4.9619   25.5277 C   0  0  0  0  0  0  0  0  0  0  0  0
    5.9313   -4.5083   24.6402 C   0  0  0  0  0  0  0  0  0  0  0  0
    6.1548   -3.5954   23.6933 N   0  0  0  0  0  0  0  0  0  0  0  0
    4.9148   -4.8871   24.6717 H   0  0  0  0  0  0  0  0  0  0  0  0
    6.6538   -5.7124   26.2676 H   0  0  0  0  0  0  0  0  0  0  0  0
    8.9850   -4.7607   26.1080 H   0  0  0  0  0  0  0  0  0  0  0  0
    9.4324   -3.0264   24.3455 H   0  0  0  0  0  0  0  0  0  0  0  0
    6.6912   -1.5823   21.6949 N   0  0  0  0  0  0  0  0  0  0  0  0
    7.3387   -0.6860   20.9274 N   0  0  0  0  0  0  0  0  0  0  0  0
    6.6502    0.0046   19.8925 C   0  0  0  0  0  0  0  0  0  0  0  0
    5.4378    0.6449   20.1661 C   0  0  0  0  0  0  0  0  0  0  0  0
    4.8126    1.3127   19.1094 C   0  0  0  0  0  0  0  0  0  0  0  0
    5.4018    1.2971   17.8373 C   0  0  0  0  0  0  0  0  0  0  0  0
    6.5578    0.6724   17.5712 N   0  0  0  0  0  0  0  0  0  0  0  0
    7.1629    0.0497   18.5859 C   0  0  0  0  0  0  0  0  0  0  0  0
    8.1122   -0.4322   18.3668 H   0  0  0  0  0  0  0  0  0  0  0  0
    4.9171    1.7850   16.9938 H   0  0  0  0  0  0  0  0  0  0  0  0
    3.8789    1.8409   19.2626 H   0  0  0  0  0  0  0  0  0  0  0  0
    5.0161    0.6047   21.1752 H   0  0  0  0  0  0  0  0  0  0  0  0
   10.3247   -0.2821   20.2935 H   0  0  0  0  0  0  0  0  0  0  0  0
    9.1582    1.0442   20.0801 H   0  0  0  0  0  0  0  0  0  0  0  0
   12.0010   -0.1649   21.9185 H   0  0  0  0  0  0  0  0  0  0  0  0
   13.1574    1.0111   23.7910 H   0  0  0  0  0  0  0  0  0  0  0  0
   12.0518    3.0014   24.8328 H   0  0  0  0  0  0  0  0  0  0  0  0
    9.8614    3.7835   24.0121 H   0  0  0  0  0  0  0  0  0  0  0  0
    7.9850    3.6037   22.6532 H   0  0  0  0  0  0  0  0  0  0  0  0
    8.3834    3.1015   21.0171 H   0  0  0  0  0  0  0  0  0  0  0  0
    7.5681    1.9803   22.0877 H   0  0  0  0  0  0  0  0  0  0  0  0
  1  2  1  0
  2  3  2  0
  3  4  1  0
  4  5  2  0
  5  6  1  0
  6  7  2  0
  7  8  1  0
  8  9  1  0
  9 10  2  0
 10 11  1  0
 11 12  1  0
 12 13  2  0
 13 14  1  0
 14 15  2  0
 15 16  1  0
 16 17  2  0
 16 18  1  0
 15 19  1  0
 14 20  1  0
 13 21  1  0
 11 22  2  0
 22 23  1  0
 23 24  1  0
 24 25  2  0
 25 26  1  0
 26 27  2  0
 27 28  1  0
 28 29  2  0
 29 30  1  0
 27 31  1  0
 26 32  1  0
 25 33  1  0
  8 34  1  0
  8 35  1  0
  6 36  1  0
  5 37  1  0
  4 38  1  0
  3 39  1  0
  1 40  1  0
  1 41  1  0
  1 42  1  0
  7  2  1  0
 23  9  1  0
 29 24  1  0
 17 12  1  0
M  END
>  <cnnaffinity>  (1) 
-6.16837

>  <filename>  (1) 
Cc1ccccc1Cc1nc(-c2ccccn2)nn1-c1cccnc1

$$$$
