
     RDKit          3D

 45 48  0  0  0  0  0  0  0  0999 V2000
    8.8485    3.4224   25.5211 C   0  0  0  0  0  0  0  0  0  0  0  0
    8.7644    3.1679   24.0403 C   0  0  0  0  0  0  0  0  0  0  0  0
    8.0081    4.0205   23.2165 C   0  0  0  0  0  0  0  0  0  0  0  0
    7.7649    3.7863   21.9234 N   0  0  0  0  0  0  0  0  0  0  0  0
    8.2973    2.6816   21.3785 C   0  0  0  0  0  0  0  0  0  0  0  0
    9.1246    1.7906   22.0736 C   0  0  0  0  0  0  0  0  0  0  0  0
    9.6364    0.5094   21.4259 C   0  0  0  0  0  0  0  0  0  0  0  0
    8.6956   -0.6445   21.6278 C   0  0  0  0  0  0  0  0  0  0  0  0
    8.8579   -1.5777   22.5443 N   0  0  0  0  0  0  0  0  0  0  0  0
    7.6121   -2.1110   22.6630 C   0  0  0  0  0  0  0  0  0  0  0  0
    7.3502   -3.0319   23.7967 C   0  0  0  0  0  0  0  0  0  0  0  0
    6.0756   -2.9920   24.6044 C   0  0  0  0  0  0  0  0  0  0  0  0
    7.3529   -2.4656   25.2117 C   0  0  0  0  0  0  0  0  0  0  0  0
    8.0299   -3.2925   26.2907 C   0  0  0  0  0  0  0  0  0  0  0  0
    9.1035   -3.0698   26.3307 H   0  0  0  0  0  0  0  0  0  0  0  0
    7.9147   -4.3689   26.1165 H   0  0  0  0  0  0  0  0  0  0  0  0
    7.6089   -3.0685   27.2796 H   0  0  0  0  0  0  0  0  0  0  0  0
    7.5378   -0.9617   25.3843 C   0  0  0  0  0  0  0  0  0  0  0  0
    8.6058   -0.7124   25.3197 H   0  0  0  0  0  0  0  0  0  0  0  0
    7.0273   -0.3939   24.5972 H   0  0  0  0  0  0  0  0  0  0  0  0
    7.1668   -0.6130   26.3547 H   0  0  0  0  0  0  0  0  0  0  0  0
    5.6819   -3.9383   24.9795 H   0  0  0  0  0  0  0  0  0  0  0  0
    5.3166   -2.2708   24.3001 H   0  0  0  0  0  0  0  0  0  0  0  0
    7.8629   -3.9810   23.6474 H   0  0  0  0  0  0  0  0  0  0  0  0
    6.7252   -1.6497   21.8050 N   0  0  0  0  0  0  0  0  0  0  0  0
    7.4325   -0.7163   21.1032 N   0  0  0  0  0  0  0  0  0  0  0  0
    6.7878   -0.0266   20.0271 C   0  0  0  0  0  0  0  0  0  0  0  0
    5.5594    0.6136   20.2414 C   0  0  0  0  0  0  0  0  0  0  0  0
    4.9541    1.2624   19.1610 C   0  0  0  0  0  0  0  0  0  0  0  0
    5.5734    1.2320   17.9094 C   0  0  0  0  0  0  0  0  0  0  0  0
    6.7276    0.5874   17.6842 N   0  0  0  0  0  0  0  0  0  0  0  0
    7.3169   -0.0192   18.7246 C   0  0  0  0  0  0  0  0  0  0  0  0
    8.2465   -0.5426   18.5026 H   0  0  0  0  0  0  0  0  0  0  0  0
    5.1281    1.7465   17.0590 H   0  0  0  0  0  0  0  0  0  0  0  0
    4.0192    1.7946   19.2808 H   0  0  0  0  0  0  0  0  0  0  0  0
    5.1008    0.5883   21.2291 H   0  0  0  0  0  0  0  0  0  0  0  0
    9.7925    0.6657   20.3568 H   0  0  0  0  0  0  0  0  0  0  0  0
   10.5945    0.2089   21.8632 H   0  0  0  0  0  0  0  0  0  0  0  0
    9.3677    2.0642   23.4230 C   0  0  0  0  0  0  0  0  0  0  0  0
   10.0389    1.4204   23.9982 H   0  0  0  0  0  0  0  0  0  0  0  0
    8.0574    2.4411   20.3395 H   0  0  0  0  0  0  0  0  0  0  0  0
    7.5764    4.9253   23.6531 H   0  0  0  0  0  0  0  0  0  0  0  0
    7.9479    3.0555   26.0282 H   0  0  0  0  0  0  0  0  0  0  0  0
    8.9284    4.4910   25.7436 H   0  0  0  0  0  0  0  0  0  0  0  0
    9.6936    2.9040   25.9747 H   0  0  0  0  0  0  0  0  0  0  0  0
  1  2  1  0
  2  3  2  0
  3  4  1  0
  4  5  2  0
  5  6  1  0
  6  7  1  0
  7  8  1  0
  8  9  2  0
  9 10  1  0
 10 11  1  0
 11 12  1  0
 12 13  1  0
 13 14  1  0
 14 15  1  0
 14 16  1  0
 14 17  1  0
 13 18  1  0
 18 19  1  0
 18 20  1  0
 18 21  1  0
 12 22  1  0
 12 23  1  0
 11 24  1  0
 10 25  2  0
 25 26  1  0
 26 27  1  0
 27 28  2  0
 28 29  1  0
 29 30  2  0
 30 31  1  0
 31 32  2  0
 32 33  1  0
 30 34  1  0
 29 35  1  0
 28 36  1  0
  7 37  1  0
  7 38  1  0
  6 39  2  0
 39 40  1  0
  5 41  1  0
  3 42  1  0
  1 43  1  0
  1 44  1  0
  1 45  1  0
 39  2  1  0
 26  8  1  0
 32 27  1  0
 13 11  1  0
M  END
>  <cnnaffinity>  (1) 
-6.04413

>  <filename>  (1) 
Cc1cncc(Cc2nc(C3CC3(C)C)nn2-c2cccnc2)c1

$$$$
