
     RDKit          3D

 59 62  0  0  0  0  0  0  0  0999 V2000
    7.9175   -5.4466   27.2663 C   0  0  0  0  0  0  0  0  0  0  0  0
    8.1775   -4.4497   26.1309 C   0  0  0  0  0  0  0  0  0  0  0  0
    8.2389   -5.1663   24.7667 C   0  0  0  0  0  0  0  0  0  0  0  0
    8.4783   -4.1966   23.6009 C   0  0  0  0  0  0  0  0  0  0  0  0
    7.4073   -3.0800   23.5647 C   0  0  0  0  0  0  0  0  0  0  0  0
    7.6524   -2.1115   22.4440 C   0  0  0  0  0  0  0  0  0  0  0  0
    6.7176   -1.7173   21.6021 N   0  0  0  0  0  0  0  0  0  0  0  0
    7.3509   -0.7687   20.8595 N   0  0  0  0  0  0  0  0  0  0  0  0
    6.6475   -0.0919   19.8180 C   0  0  0  0  0  0  0  0  0  0  0  0
    5.4544    0.5818   20.0989 C   0  0  0  0  0  0  0  0  0  0  0  0
    4.8420    1.3082   19.0710 C   0  0  0  0  0  0  0  0  0  0  0  0
    5.4294    1.3135   17.7994 C   0  0  0  0  0  0  0  0  0  0  0  0
    6.5422    0.6237   17.5066 N   0  0  0  0  0  0  0  0  0  0  0  0
    7.1272   -0.0665   18.4943 C   0  0  0  0  0  0  0  0  0  0  0  0
    8.0159   -0.6334   18.2231 H   0  0  0  0  0  0  0  0  0  0  0  0
    4.9850    1.8849   16.9859 H   0  0  0  0  0  0  0  0  0  0  0  0
    3.9329    1.8752   19.2437 H   0  0  0  0  0  0  0  0  0  0  0  0
    5.0414    0.5386   21.1095 H   0  0  0  0  0  0  0  0  0  0  0  0
    8.6210   -0.6067   21.3427 C   0  0  0  0  0  0  0  0  0  0  0  0
    9.6109    0.4273   20.9327 C   0  0  0  0  0  0  0  0  0  0  0  0
    9.6201    1.7191   21.7869 C   0  0  0  0  0  0  0  0  0  0  0  0
    8.4757    2.6474   21.4202 C   0  0  0  0  0  0  0  0  0  0  0  0
    8.4512    3.5280   22.0665 H   0  0  0  0  0  0  0  0  0  0  0  0
    7.4978    2.1581   21.4176 H   0  0  0  0  0  0  0  0  0  0  0  0
    8.7092    2.9566   20.4047 H   0  0  0  0  0  0  0  0  0  0  0  0
    9.7820    1.4275   23.2153 N   0  0  0  0  0  0  0  0  0  0  0  0
   11.0986    0.8625   23.5512 C   0  0  0  0  0  0  0  0  0  0  0  0
   11.3960    0.9039   25.0443 C   0  0  0  0  0  0  0  0  0  0  0  0
   10.2813    0.1857   25.8016 C   0  0  0  0  0  0  0  0  0  0  0  0
    8.9714    0.9333   25.5001 C   0  0  0  0  0  0  0  0  0  0  0  0
    8.6800    1.1614   24.0126 C   0  0  0  0  0  0  0  0  0  0  0  0
    7.5303    1.1654   23.6055 O   0  0  0  0  0  0  0  0  0  0  0  0
    9.0456    1.9364   25.9428 H   0  0  0  0  0  0  0  0  0  0  0  0
    8.0762    0.4696   25.9205 H   0  0  0  0  0  0  0  0  0  0  0  0
   10.2236   -0.8697   25.4777 H   0  0  0  0  0  0  0  0  0  0  0  0
   10.4963    0.1783   26.8779 H   0  0  0  0  0  0  0  0  0  0  0  0
   12.3734    0.4473   25.2361 H   0  0  0  0  0  0  0  0  0  0  0  0
   11.4551    1.9441   25.3903 H   0  0  0  0  0  0  0  0  0  0  0  0
   11.8660    1.4164   22.9997 H   0  0  0  0  0  0  0  0  0  0  0  0
   11.1421   -0.1814   23.1980 H   0  0  0  0  0  0  0  0  0  0  0  0
   10.5401    2.2561   21.4992 H   0  0  0  0  0  0  0  0  0  0  0  0
    9.4444    0.6957   19.8903 H   0  0  0  0  0  0  0  0  0  0  0  0
   10.5915   -0.0522   20.9978 H   0  0  0  0  0  0  0  0  0  0  0  0
    8.8579   -1.4972   22.2824 N   0  0  0  0  0  0  0  0  0  0  0  0
    7.3434   -2.3455   24.9352 C   0  0  0  0  0  0  0  0  0  0  0  0
    7.1200   -3.3260   26.0985 C   0  0  0  0  0  0  0  0  0  0  0  0
    6.1193   -3.7818   26.0063 H   0  0  0  0  0  0  0  0  0  0  0  0
    7.1294   -2.7856   27.0562 H   0  0  0  0  0  0  0  0  0  0  0  0
    8.2974   -1.8152   25.0936 H   0  0  0  0  0  0  0  0  0  0  0  0
    6.5564   -1.5753   24.9158 H   0  0  0  0  0  0  0  0  0  0  0  0
    6.4216   -3.5238   23.3620 H   0  0  0  0  0  0  0  0  0  0  0  0
    9.4720   -3.7332   23.7041 H   0  0  0  0  0  0  0  0  0  0  0  0
    8.4841   -4.7376   22.6460 H   0  0  0  0  0  0  0  0  0  0  0  0
    9.0294   -5.9298   24.7854 H   0  0  0  0  0  0  0  0  0  0  0  0
    7.2881   -5.7019   24.6030 H   0  0  0  0  0  0  0  0  0  0  0  0
    9.1614   -3.9754   26.3038 H   0  0  0  0  0  0  0  0  0  0  0  0
    7.9024   -4.9519   28.2439 H   0  0  0  0  0  0  0  0  0  0  0  0
    6.9488   -5.9461   27.1304 H   0  0  0  0  0  0  0  0  0  0  0  0
    8.6881   -6.2258   27.2958 H   0  0  0  0  0  0  0  0  0  0  0  0
  1  2  1  0
  2  3  1  0
  3  4  1  0
  4  5  1  0
  5  6  1  0
  6  7  2  0
  7  8  1  0
  8  9  1  0
  9 10  2  0
 10 11  1  0
 11 12  2  0
 12 13  1  0
 13 14  2  0
 14 15  1  0
 12 16  1  0
 11 17  1  0
 10 18  1  0
  8 19  1  0
 19 20  1  0
 20 21  1  0
 21 22  1  0
 22 23  1  0
 22 24  1  0
 22 25  1  0
 21 26  1  0
 26 27  1  0
 27 28  1  0
 28 29  1  0
 29 30  1  0
 30 31  1  0
 31 32  2  0
 30 33  1  0
 30 34  1  0
 29 35  1  0
 29 36  1  0
 28 37  1  0
 28 38  1  0
 27 39  1  0
 27 40  1  0
 21 41  1  0
 20 42  1  0
 20 43  1  0
 19 44  2  0
  5 45  1  0
 45 46  1  0
 46 47  1  0
 46 48  1  0
 45 49  1  0
 45 50  1  0
  5 51  1  0
  4 52  1  0
  4 53  1  0
  3 54  1  0
  3 55  1  0
  2 56  1  0
  1 57  1  0
  1 58  1  0
  1 59  1  0
 46  2  1  0
 44  6  1  0
 14  9  1  0
 31 26  1  0
M  END
>  <cnnaffinity>  (1) 
-6.37484

>  <filename>  (1) 
CC1CCC(c2nc(CC(C)N3CCCCC3=O)n(-c3cccnc3)n2)CC1

$$$$
