
     RDKit          3D

 43 46  0  0  0  0  0  0  0  0999 V2000
   12.3775    2.1757   24.3192 C   0  0  0  0  0  0  0  0  0  0  0  0
   11.1737    2.0589   23.4651 C   0  0  0  0  0  0  0  0  0  0  0  0
   11.1291    1.1542   22.5064 N   0  0  0  0  0  0  0  0  0  0  0  0
    9.9419    1.3225   21.9053 N   0  0  0  0  0  0  0  0  0  0  0  0
    9.5894    0.3682   20.8739 C   0  0  0  0  0  0  0  0  0  0  0  0
    8.5891   -0.5983   21.3825 C   0  0  0  0  0  0  0  0  0  0  0  0
    8.8076   -1.4312   22.3679 N   0  0  0  0  0  0  0  0  0  0  0  0
    7.6091   -2.0511   22.5267 C   0  0  0  0  0  0  0  0  0  0  0  0
    7.3947   -3.0763   23.5668 C   0  0  0  0  0  0  0  0  0  0  0  0
    8.4533   -3.4429   24.4273 C   0  0  0  0  0  0  0  0  0  0  0  0
    8.2254   -4.4008   25.4132 C   0  0  0  0  0  0  0  0  0  0  0  0
    9.5195   -4.8447   26.4910 Cl  0  0  0  0  0  0  0  0  0  0  0  0
    6.9734   -5.0058   25.5622 C   0  0  0  0  0  0  0  0  0  0  0  0
    5.9292   -4.6330   24.7065 C   0  0  0  0  0  0  0  0  0  0  0  0
    6.1278   -3.6735   23.7150 C   0  0  0  0  0  0  0  0  0  0  0  0
    5.3156   -3.3584   23.0595 H   0  0  0  0  0  0  0  0  0  0  0  0
    4.9491   -5.0871   24.8182 H   0  0  0  0  0  0  0  0  0  0  0  0
    6.8294   -5.7494   26.3403 H   0  0  0  0  0  0  0  0  0  0  0  0
    9.4332   -2.9740   24.3395 H   0  0  0  0  0  0  0  0  0  0  0  0
    6.6708   -1.6465   21.6816 N   0  0  0  0  0  0  0  0  0  0  0  0
    7.3125   -0.7267   20.9233 N   0  0  0  0  0  0  0  0  0  0  0  0
    6.6350   -0.0343   19.8827 C   0  0  0  0  0  0  0  0  0  0  0  0
    5.4276    0.6205   20.1449 C   0  0  0  0  0  0  0  0  0  0  0  0
    4.8074    1.3063   19.0974 C   0  0  0  0  0  0  0  0  0  0  0  0
    5.4063    1.2967   17.8324 C   0  0  0  0  0  0  0  0  0  0  0  0
    6.5488    0.6449   17.5634 N   0  0  0  0  0  0  0  0  0  0  0  0
    7.1502    0.0009   18.5728 C   0  0  0  0  0  0  0  0  0  0  0  0
    8.0835   -0.5102   18.3331 H   0  0  0  0  0  0  0  0  0  0  0  0
    4.9480    1.8303   17.0045 H   0  0  0  0  0  0  0  0  0  0  0  0
    3.8800    1.8477   19.2535 H   0  0  0  0  0  0  0  0  0  0  0  0
    4.9979    0.5734   21.1473 H   0  0  0  0  0  0  0  0  0  0  0  0
   10.5099   -0.1686   20.6517 H   0  0  0  0  0  0  0  0  0  0  0  0
    9.2560    0.8791   19.9731 H   0  0  0  0  0  0  0  0  0  0  0  0
    9.1955    2.3010   22.4964 C   0  0  0  0  0  0  0  0  0  0  0  0
    7.8208    2.6995   22.0488 C   0  0  0  0  0  0  0  0  0  0  0  0
    7.0623    1.9879   22.3918 H   0  0  0  0  0  0  0  0  0  0  0  0
    7.5531    3.6850   22.4382 H   0  0  0  0  0  0  0  0  0  0  0  0
    7.7518    2.7318   20.9603 H   0  0  0  0  0  0  0  0  0  0  0  0
    9.9805    2.8064   23.5136 C   0  0  0  0  0  0  0  0  0  0  0  0
    9.7603    3.6139   24.1997 H   0  0  0  0  0  0  0  0  0  0  0  0
   12.9468    1.2462   24.3253 H   0  0  0  0  0  0  0  0  0  0  0  0
   12.0810    2.4193   25.3351 H   0  0  0  0  0  0  0  0  0  0  0  0
   13.0375    2.9629   23.9461 H   0  0  0  0  0  0  0  0  0  0  0  0
  1  2  1  0
  2  3  2  0
  3  4  1  0
  4  5  1  0
  5  6  1  0
  6  7  2  0
  7  8  1  0
  8  9  1  0
  9 10  2  0
 10 11  1  0
 11 12  1  0
 11 13  2  0
 13 14  1  0
 14 15  2  0
 15 16  1  0
 14 17  1  0
 13 18  1  0
 10 19  1  0
  8 20  2  0
 20 21  1  0
 21 22  1  0
 22 23  2  0
 23 24  1  0
 24 25  2  0
 25 26  1  0
 26 27  2  0
 27 28  1  0
 25 29  1  0
 24 30  1  0
 23 31  1  0
  5 32  1  0
  5 33  1  0
  4 34  1  0
 34 35  1  0
 35 36  1  0
 35 37  1  0
 35 38  1  0
 34 39  2  0
 39 40  1  0
  1 41  1  0
  1 42  1  0
  1 43  1  0
 39  2  1  0
 21  6  1  0
 27 22  1  0
 15  9  1  0
M  END
>  <cnnaffinity>  (1) 
-6.24654

>  <filename>  (1) 
Cc1cc(C)n(Cc2nc(-c3cccc(Cl)c3)nn2-c2cccnc2)n1

$$$$
