
     RDKit          3D

 46 49  0  0  0  0  0  0  0  0999 V2000
    2.4946    2.6731   26.8287 C   0  0  0  0  0  0  0  0  0  0  0  0
    3.9256    2.7350   26.4024 C   0  0  0  0  0  0  0  0  0  0  0  0
    4.9090    3.6049   26.7734 C   0  0  0  0  0  0  0  0  0  0  0  0
    6.0490    3.1726   26.1222 N   0  0  0  0  0  0  0  0  0  0  0  0
    5.7101    2.0633   25.4070 C   0  0  0  0  0  0  0  0  0  0  0  0
    6.6973    1.2499   24.6369 C   0  0  0  0  0  0  0  0  0  0  0  0
    6.9703    1.6524   23.1587 C   0  0  0  0  0  0  0  0  0  0  0  0
    7.9888    0.7668   22.5171 C   0  0  0  0  0  0  0  0  0  0  0  0
    9.2911    0.8845   22.6978 N   0  0  0  0  0  0  0  0  0  0  0  0
    9.7981   -0.1946   22.0599 C   0  0  0  0  0  0  0  0  0  0  0  0
   11.2387   -0.5001   21.9115 C   0  0  0  0  0  0  0  0  0  0  0  0
   12.2643    0.2859   22.4816 C   0  0  0  0  0  0  0  0  0  0  0  0
   13.5851   -0.0905   22.2534 C   0  0  0  0  0  0  0  0  0  0  0  0
   14.5724    0.6409   22.7869 F   0  0  0  0  0  0  0  0  0  0  0  0
   13.9225   -1.1840   21.4621 C   0  0  0  0  0  0  0  0  0  0  0  0
   12.9048   -1.9129   20.8576 C   0  0  0  0  0  0  0  0  0  0  0  0
   11.5734   -1.6158   21.1281 C   0  0  0  0  0  0  0  0  0  0  0  0
   10.7715   -2.2318   20.7257 H   0  0  0  0  0  0  0  0  0  0  0  0
   13.1750   -2.6897   20.1508 H   0  0  0  0  0  0  0  0  0  0  0  0
   14.9500   -1.4721   21.3286 H   0  0  0  0  0  0  0  0  0  0  0  0
   12.0722    1.1759   23.0737 H   0  0  0  0  0  0  0  0  0  0  0  0
    8.8765   -0.9511   21.4727 N   0  0  0  0  0  0  0  0  0  0  0  0
    7.7179   -0.3344   21.7779 N   0  0  0  0  0  0  0  0  0  0  0  0
    6.4781   -0.7630   21.1365 C   0  0  0  0  0  0  0  0  0  0  0  0
    6.1057    0.0436   19.9038 C   0  0  0  0  0  0  0  0  0  0  0  0
    4.9106    0.7624   19.7935 C   0  0  0  0  0  0  0  0  0  0  0  0
    4.6661    1.4982   18.6311 C   0  0  0  0  0  0  0  0  0  0  0  0
    5.6242    1.4844   17.6154 C   0  0  0  0  0  0  0  0  0  0  0  0
    6.7640    0.7794   17.6870 N   0  0  0  0  0  0  0  0  0  0  0  0
    6.9923    0.0933   18.8126 C   0  0  0  0  0  0  0  0  0  0  0  0
    7.9334   -0.4550   18.8527 H   0  0  0  0  0  0  0  0  0  0  0  0
    5.4687    2.0604   16.7049 H   0  0  0  0  0  0  0  0  0  0  0  0
    3.7674    2.0938   18.5118 H   0  0  0  0  0  0  0  0  0  0  0  0
    4.1817    0.7554   20.6070 H   0  0  0  0  0  0  0  0  0  0  0  0
    5.6789   -0.7236   21.8775 H   0  0  0  0  0  0  0  0  0  0  0  0
    6.6360   -1.8170   20.8899 H   0  0  0  0  0  0  0  0  0  0  0  0
    7.3677    2.6715   23.1073 H   0  0  0  0  0  0  0  0  0  0  0  0
    6.0463    1.6342   22.5722 H   0  0  0  0  0  0  0  0  0  0  0  0
    7.6507    1.2653   25.1769 H   0  0  0  0  0  0  0  0  0  0  0  0
    6.3247    0.2202   24.6764 H   0  0  0  0  0  0  0  0  0  0  0  0
    4.4402    1.7814   25.5518 N   0  0  0  0  0  0  0  0  0  0  0  0
    6.9780    3.5599   26.1810 H   0  0  0  0  0  0  0  0  0  0  0  0
    4.8828    4.4543   27.4445 H   0  0  0  0  0  0  0  0  0  0  0  0
    2.3589    1.9052   27.5988 H   0  0  0  0  0  0  0  0  0  0  0  0
    2.1542    3.6290   27.2338 H   0  0  0  0  0  0  0  0  0  0  0  0
    1.8609    2.3993   25.9817 H   0  0  0  0  0  0  0  0  0  0  0  0
  1  2  1  0
  2  3  2  0
  3  4  1  0
  4  5  1  0
  5  6  1  0
  6  7  1  0
  7  8  1  0
  8  9  2  0
  9 10  1  0
 10 11  1  0
 11 12  2  0
 12 13  1  0
 13 14  1  0
 13 15  2  0
 15 16  1  0
 16 17  2  0
 17 18  1  0
 16 19  1  0
 15 20  1  0
 12 21  1  0
 10 22  2  0
 22 23  1  0
 23 24  1  0
 24 25  1  0
 25 26  2  0
 26 27  1  0
 27 28  2  0
 28 29  1  0
 29 30  2  0
 30 31  1  0
 28 32  1  0
 27 33  1  0
 26 34  1  0
 24 35  1  0
 24 36  1  0
  7 37  1  0
  7 38  1  0
  6 39  1  0
  6 40  1  0
  5 41  2  0
  4 42  1  0
  3 43  1  0
  1 44  1  0
  1 45  1  0
  1 46  1  0
 41  2  1  0
 23  8  1  0
 30 25  1  0
 17 11  1  0
M  END
>  <cnnaffinity>  (1) 
-6.56088

>  <filename>  (1) 
Cc1c[nH]c(CCc2nc(-c3cccc(F)c3)nn2Cc2cccnc2)n1

$$$$
