
     RDKit          3D

 47 50  0  0  0  0  0  0  0  0999 V2000
    8.9240    2.7436   22.3559 C   0  0  0  0  0  0  0  0  0  0  0  0
   10.2154    2.0080   22.5618 C   0  0  0  0  0  0  0  0  0  0  0  0
   11.2618    2.2555   23.4173 C   0  0  0  0  0  0  0  0  0  0  0  0
   12.1958    1.1853   23.2779 C   0  0  0  0  0  0  0  0  0  0  0  0
   11.6955    0.3120   22.3450 C   0  0  0  0  0  0  0  0  0  0  0  0
   12.1463   -1.0639   21.9635 C   0  0  0  0  0  0  0  0  0  0  0  0
   11.9520   -1.2805   20.9104 H   0  0  0  0  0  0  0  0  0  0  0  0
   13.2164   -1.1915   22.1526 H   0  0  0  0  0  0  0  0  0  0  0  0
   11.5984   -1.8195   22.5430 H   0  0  0  0  0  0  0  0  0  0  0  0
   10.5167    0.8555   21.8613 N   0  0  0  0  0  0  0  0  0  0  0  0
    9.6639    0.2604   20.8595 C   0  0  0  0  0  0  0  0  0  0  0  0
    8.6075   -0.6059   21.4364 C   0  0  0  0  0  0  0  0  0  0  0  0
    8.8054   -1.4565   22.4206 N   0  0  0  0  0  0  0  0  0  0  0  0
    7.5994   -2.0421   22.5662 C   0  0  0  0  0  0  0  0  0  0  0  0
    7.3497   -3.0237   23.6611 C   0  0  0  0  0  0  0  0  0  0  0  0
    6.7001   -4.3306   23.1775 C   0  0  0  0  0  0  0  0  0  0  0  0
    6.0390   -4.9329   24.4274 C   0  0  0  0  0  0  0  0  0  0  0  0
    5.8007   -3.7600   25.4144 C   0  0  0  0  0  0  0  0  0  0  0  0
    6.3932   -2.5001   24.7558 C   0  0  0  0  0  0  0  0  0  0  0  0
    6.9086   -1.8400   25.4646 H   0  0  0  0  0  0  0  0  0  0  0  0
    5.6019   -1.9038   24.2906 H   0  0  0  0  0  0  0  0  0  0  0  0
    4.7368   -3.6156   25.6310 H   0  0  0  0  0  0  0  0  0  0  0  0
    6.2868   -3.9671   26.3742 H   0  0  0  0  0  0  0  0  0  0  0  0
    6.6946   -5.6829   24.8847 H   0  0  0  0  0  0  0  0  0  0  0  0
    5.1081   -5.4480   24.1690 H   0  0  0  0  0  0  0  0  0  0  0  0
    5.9488   -4.0869   22.4154 H   0  0  0  0  0  0  0  0  0  0  0  0
    7.4369   -4.9971   22.7115 H   0  0  0  0  0  0  0  0  0  0  0  0
    8.3321   -3.2250   24.1075 H   0  0  0  0  0  0  0  0  0  0  0  0
    6.6763   -1.6418   21.7058 N   0  0  0  0  0  0  0  0  0  0  0  0
    7.3409   -0.7299   20.9489 N   0  0  0  0  0  0  0  0  0  0  0  0
    6.6671   -0.0432   19.8977 C   0  0  0  0  0  0  0  0  0  0  0  0
    5.4561    0.6092   20.1551 C   0  0  0  0  0  0  0  0  0  0  0  0
    4.8394    1.2931   19.1033 C   0  0  0  0  0  0  0  0  0  0  0  0
    5.4346    1.2798   17.8358 C   0  0  0  0  0  0  0  0  0  0  0  0
    6.5775    0.6271   17.5732 N   0  0  0  0  0  0  0  0  0  0  0  0
    7.1744   -0.0122   18.5863 C   0  0  0  0  0  0  0  0  0  0  0  0
    8.1025   -0.5303   18.3465 H   0  0  0  0  0  0  0  0  0  0  0  0
    4.9823    1.8165   17.0041 H   0  0  0  0  0  0  0  0  0  0  0  0
    3.9175    1.8423   19.2567 H   0  0  0  0  0  0  0  0  0  0  0  0
    5.0293    0.5699   21.1573 H   0  0  0  0  0  0  0  0  0  0  0  0
   10.2724   -0.3881   20.2310 H   0  0  0  0  0  0  0  0  0  0  0  0
    9.2396    1.0465   20.2380 H   0  0  0  0  0  0  0  0  0  0  0  0
   13.1065    1.0192   23.8451 H   0  0  0  0  0  0  0  0  0  0  0  0
   11.3370    3.1193   24.0764 H   0  0  0  0  0  0  0  0  0  0  0  0
    8.8255    3.5355   23.1042 H   0  0  0  0  0  0  0  0  0  0  0  0
    8.8613    3.2067   21.3604 H   0  0  0  0  0  0  0  0  0  0  0  0
    8.0588    2.0751   22.4609 H   0  0  0  0  0  0  0  0  0  0  0  0
  1  2  1  0
  2  3  2  0
  3  4  1  0
  4  5  2  0
  5  6  1  0
  6  7  1  0
  6  8  1  0
  6  9  1  0
  5 10  1  0
 10 11  1  0
 11 12  1  0
 12 13  2  0
 13 14  1  0
 14 15  1  0
 15 16  1  0
 16 17  1  0
 17 18  1  0
 18 19  1  0
 19 20  1  0
 19 21  1  0
 18 22  1  0
 18 23  1  0
 17 24  1  0
 17 25  1  0
 16 26  1  0
 16 27  1  0
 15 28  1  0
 14 29  2  0
 29 30  1  0
 30 31  1  0
 31 32  2  0
 32 33  1  0
 33 34  2  0
 34 35  1  0
 35 36  2  0
 36 37  1  0
 34 38  1  0
 33 39  1  0
 32 40  1  0
 11 41  1  0
 11 42  1  0
  4 43  1  0
  3 44  1  0
  1 45  1  0
  1 46  1  0
  1 47  1  0
 10  2  1  0
 30 12  1  0
 36 31  1  0
 19 15  1  0
M  END
>  <cnnaffinity>  (1) 
-6.65179

>  <filename>  (1) 
Cc1ccc(C)n1Cc1nc(C2CCCC2)nn1-c1cccnc1

$$$$
