
     RDKit          3D

 44 48  0  0  0  0  0  0  0  0999 V2000
   12.2016   -1.3117   21.1779 C   0  0  0  0  0  0  0  0  0  0  0  0
   11.9124   -0.0156   21.8948 C   0  0  0  0  0  0  0  0  0  0  0  0
   12.8214    0.4561   22.8530 C   0  0  0  0  0  0  0  0  0  0  0  0
   12.5570    1.6113   23.5928 C   0  0  0  0  0  0  0  0  0  0  0  0
   11.3737    2.3177   23.3791 C   0  0  0  0  0  0  0  0  0  0  0  0
   10.4714    1.8717   22.4081 C   0  0  0  0  0  0  0  0  0  0  0  0
   10.7314    0.7245   21.6512 C   0  0  0  0  0  0  0  0  0  0  0  0
    9.6588    0.2385   20.6931 C   0  0  0  0  0  0  0  0  0  0  0  0
    8.6152   -0.5981   21.3536 C   0  0  0  0  0  0  0  0  0  0  0  0
    8.8285   -1.4504   22.3291 N   0  0  0  0  0  0  0  0  0  0  0  0
    7.6007   -1.9906   22.5477 C   0  0  0  0  0  0  0  0  0  0  0  0
    7.4865   -2.9086   23.7025 C   0  0  0  0  0  0  0  0  0  0  0  0
    8.2994   -4.1576   23.6549 C   0  0  0  0  0  0  0  0  0  0  0  0
    6.7472   -4.2576   23.7671 C   0  0  0  0  0  0  0  0  0  0  0  0
    6.0707   -5.5659   24.1549 C   0  0  0  0  0  0  0  0  0  0  0  0
    5.3118   -4.2794   24.2780 C   0  0  0  0  0  0  0  0  0  0  0  0
    4.5212   -4.1067   23.5455 H   0  0  0  0  0  0  0  0  0  0  0  0
    5.1230   -3.8469   25.2672 H   0  0  0  0  0  0  0  0  0  0  0  0
    6.4307   -6.0515   25.0663 H   0  0  0  0  0  0  0  0  0  0  0  0
    5.7701   -6.2322   23.3478 H   0  0  0  0  0  0  0  0  0  0  0  0
    8.8950   -4.4915   24.5116 H   0  0  0  0  0  0  0  0  0  0  0  0
    8.7536   -4.3853   22.6924 H   0  0  0  0  0  0  0  0  0  0  0  0
    7.4988   -2.3457   24.6365 H   0  0  0  0  0  0  0  0  0  0  0  0
    6.6484   -1.5583   21.7465 N   0  0  0  0  0  0  0  0  0  0  0  0
    7.3097   -0.6734   20.9476 N   0  0  0  0  0  0  0  0  0  0  0  0
    6.6357    0.0011   19.8881 C   0  0  0  0  0  0  0  0  0  0  0  0
    5.4200    0.6466   20.1369 C   0  0  0  0  0  0  0  0  0  0  0  0
    4.7975    1.3203   19.0837 C   0  0  0  0  0  0  0  0  0  0  0  0
    5.3959    1.3071   17.8178 C   0  0  0  0  0  0  0  0  0  0  0  0
    6.5459    0.6649   17.5601 N   0  0  0  0  0  0  0  0  0  0  0  0
    7.1494    0.0340   18.5754 C   0  0  0  0  0  0  0  0  0  0  0  0
    8.0878   -0.4656   18.3319 H   0  0  0  0  0  0  0  0  0  0  0  0
    4.9335    1.8267   16.9811 H   0  0  0  0  0  0  0  0  0  0  0  0
    3.8671    1.8542   19.2375 H   0  0  0  0  0  0  0  0  0  0  0  0
    4.9959    0.6015   21.1398 H   0  0  0  0  0  0  0  0  0  0  0  0
   10.0750   -0.4023   19.9093 H   0  0  0  0  0  0  0  0  0  0  0  0
    9.1791    1.0902   20.2080 H   0  0  0  0  0  0  0  0  0  0  0  0
    9.5402    2.4108   22.2425 H   0  0  0  0  0  0  0  0  0  0  0  0
   11.1441    3.1998   23.9688 H   0  0  0  0  0  0  0  0  0  0  0  0
   13.2623    1.9328   24.3511 H   0  0  0  0  0  0  0  0  0  0  0  0
   13.7362   -0.1070   23.0304 H   0  0  0  0  0  0  0  0  0  0  0  0
   11.3424   -1.9855   21.2525 H   0  0  0  0  0  0  0  0  0  0  0  0
   13.0729   -1.8242   21.5935 H   0  0  0  0  0  0  0  0  0  0  0  0
   12.4194   -1.1548   20.1189 H   0  0  0  0  0  0  0  0  0  0  0  0
  1  2  1  0
  2  3  2  0
  3  4  1  0
  4  5  2  0
  5  6  1  0
  6  7  2  0
  7  8  1  0
  8  9  1  0
  9 10  2  0
 10 11  1  0
 11 12  1  0
 12 13  1  0
 13 14  1  0
 14 15  1  0
 15 16  1  0
 16 17  1  0
 16 18  1  0
 15 19  1  0
 15 20  1  0
 13 21  1  0
 13 22  1  0
 12 23  1  0
 11 24  2  0
 24 25  1  0
 25 26  1  0
 26 27  2  0
 27 28  1  0
 28 29  2  0
 29 30  1  0
 30 31  2  0
 31 32  1  0
 29 33  1  0
 28 34  1  0
 27 35  1  0
  8 36  1  0
  8 37  1  0
  6 38  1  0
  5 39  1  0
  4 40  1  0
  3 41  1  0
  1 42  1  0
  1 43  1  0
  1 44  1  0
  7  2  1  0
 25  9  1  0
 31 26  1  0
 14 12  1  0
 16 14  1  0
M  END
>  <cnnaffinity>  (1) 
-6.71828

>  <filename>  (1) 
Cc1ccccc1Cc1nc(C2CC23CC3)nn1-c1cccnc1

$$$$
