
     RDKit          3D

 43 46  0  0  0  0  0  0  0  0999 V2000
    5.2698   -0.9045   26.3465 C   0  0  0  0  0  0  0  0  0  0  0  0
    6.2127    0.0140   25.6274 C   0  0  0  0  0  0  0  0  0  0  0  0
    6.0940    0.5751   24.3723 C   0  0  0  0  0  0  0  0  0  0  0  0
    7.2128    1.3106   24.1423 N   0  0  0  0  0  0  0  0  0  0  0  0
    7.7146    1.8103   22.8705 C   0  0  0  0  0  0  0  0  0  0  0  0
    8.6955    0.8412   22.3158 C   0  0  0  0  0  0  0  0  0  0  0  0
    9.9942    0.8910   22.5337 N   0  0  0  0  0  0  0  0  0  0  0  0
   10.4230   -0.3059   22.0771 C   0  0  0  0  0  0  0  0  0  0  0  0
   11.8328   -0.7056   21.9912 C   0  0  0  0  0  0  0  0  0  0  0  0
   12.9214    0.0961   22.3897 C   0  0  0  0  0  0  0  0  0  0  0  0
   14.1856   -0.1723   21.8491 C   0  0  0  0  0  0  0  0  0  0  0  0
   14.2969   -1.1791   20.8784 C   0  0  0  0  0  0  0  0  0  0  0  0
   15.3054   -1.1952   19.9991 F   0  0  0  0  0  0  0  0  0  0  0  0
   13.2958   -2.1033   20.6542 C   0  0  0  0  0  0  0  0  0  0  0  0
   12.0749   -1.8788   21.2611 C   0  0  0  0  0  0  0  0  0  0  0  0
   11.2059   -2.4976   21.0983 H   0  0  0  0  0  0  0  0  0  0  0  0
   13.4671   -2.8894   19.9231 H   0  0  0  0  0  0  0  0  0  0  0  0
   15.0426    0.4581   22.0552 H   0  0  0  0  0  0  0  0  0  0  0  0
   12.7680    0.9532   23.0508 H   0  0  0  0  0  0  0  0  0  0  0  0
    9.4600   -1.0625   21.5597 N   0  0  0  0  0  0  0  0  0  0  0  0
    8.3563   -0.3142   21.7026 N   0  0  0  0  0  0  0  0  0  0  0  0
    7.0868   -0.7880   21.1572 C   0  0  0  0  0  0  0  0  0  0  0  0
    6.5286    0.0401   20.0171 C   0  0  0  0  0  0  0  0  0  0  0  0
    5.3016    0.7062   20.1101 C   0  0  0  0  0  0  0  0  0  0  0  0
    4.8137    1.3797   18.9873 C   0  0  0  0  0  0  0  0  0  0  0  0
    5.5737    1.3643   17.8140 C   0  0  0  0  0  0  0  0  0  0  0  0
    6.7605    0.7461   17.7076 N   0  0  0  0  0  0  0  0  0  0  0  0
    7.2216    0.1127   18.7931 C   0  0  0  0  0  0  0  0  0  0  0  0
    8.1853   -0.3859   18.6797 H   0  0  0  0  0  0  0  0  0  0  0  0
    5.2107    1.8630   16.9173 H   0  0  0  0  0  0  0  0  0  0  0  0
    3.8687    1.9092   19.0098 H   0  0  0  0  0  0  0  0  0  0  0  0
    4.7254    0.6915   21.0404 H   0  0  0  0  0  0  0  0  0  0  0  0
    7.2918   -1.8118   20.8290 H   0  0  0  0  0  0  0  0  0  0  0  0
    6.3673   -0.8586   21.9783 H   0  0  0  0  0  0  0  0  0  0  0  0
    8.2342    2.7513   23.0564 H   0  0  0  0  0  0  0  0  0  0  0  0
    6.8757    1.9481   22.1854 H   0  0  0  0  0  0  0  0  0  0  0  0
    8.0548    1.2635   25.1793 N   0  0  0  0  0  0  0  0  0  0  0  0
    7.4670    0.4915   26.0781 C   0  0  0  0  0  0  0  0  0  0  0  0
    7.9869    0.2642   27.0051 H   0  0  0  0  0  0  0  0  0  0  0  0
    5.2884    0.5617   23.6467 H   0  0  0  0  0  0  0  0  0  0  0  0
    5.4971   -0.9347   27.4167 H   0  0  0  0  0  0  0  0  0  0  0  0
    4.2310   -0.5771   26.2380 H   0  0  0  0  0  0  0  0  0  0  0  0
    5.3347   -1.9340   25.9711 H   0  0  0  0  0  0  0  0  0  0  0  0
  1  2  1  0
  2  3  2  0
  3  4  1  0
  4  5  1  0
  5  6  1  0
  6  7  2  0
  7  8  1  0
  8  9  1  0
  9 10  2  0
 10 11  1  0
 11 12  2  0
 12 13  1  0
 12 14  1  0
 14 15  2  0
 15 16  1  0
 14 17  1  0
 11 18  1  0
 10 19  1  0
  8 20  2  0
 20 21  1  0
 21 22  1  0
 22 23  1  0
 23 24  2  0
 24 25  1  0
 25 26  2  0
 26 27  1  0
 27 28  2  0
 28 29  1  0
 26 30  1  0
 25 31  1  0
 24 32  1  0
 22 33  1  0
 22 34  1  0
  5 35  1  0
  5 36  1  0
  4 37  1  0
 37 38  2  0
 38 39  1  0
  3 40  1  0
  1 41  1  0
  1 42  1  0
  1 43  1  0
 38  2  1  0
 21  6  1  0
 28 23  1  0
 15  9  1  0
M  END
>  <cnnaffinity>  (1) 
-6.47212

>  <filename>  (1) 
Cc1cnn(Cc2nc(-c3ccc(F)cc3)nn2Cc2cccnc2)c1

$$$$
