
     RDKit          3D

 47 50  0  0  0  0  0  0  0  0999 V2000
   11.9075    2.1434   22.5351 C   0  0  0  0  0  0  0  0  0  0  0  0
   10.6443    2.1122   23.3783 C   0  0  0  0  0  0  0  0  0  0  0  0
   10.7401    2.0963   24.7752 C   0  0  0  0  0  0  0  0  0  0  0  0
    9.5981    2.0843   25.5736 C   0  0  0  0  0  0  0  0  0  0  0  0
    8.3363    2.0643   24.9924 C   0  0  0  0  0  0  0  0  0  0  0  0
    8.1768    2.0366   23.6014 C   0  0  0  0  0  0  0  0  0  0  0  0
    6.7771    1.8973   23.0407 C   0  0  0  0  0  0  0  0  0  0  0  0
    6.7008    2.2868   22.0205 H   0  0  0  0  0  0  0  0  0  0  0  0
    6.0629    2.4255   23.6840 H   0  0  0  0  0  0  0  0  0  0  0  0
    6.4765    0.8378   23.0288 H   0  0  0  0  0  0  0  0  0  0  0  0
    9.3485    2.0559   22.8096 C   0  0  0  0  0  0  0  0  0  0  0  0
    9.2209    1.9321   21.4309 O   0  0  0  0  0  0  0  0  0  0  0  0
    9.5516    0.6160   20.9702 C   0  0  0  0  0  0  0  0  0  0  0  0
    8.6121   -0.4697   21.4254 C   0  0  0  0  0  0  0  0  0  0  0  0
    8.8453   -1.3552   22.3748 N   0  0  0  0  0  0  0  0  0  0  0  0
    7.6507   -1.9924   22.5176 C   0  0  0  0  0  0  0  0  0  0  0  0
    7.4397   -3.0493   23.5451 C   0  0  2  0  0  0  0  0  0  0  0  0
    8.3931   -4.2128   23.6677 C   0  0  0  0  0  0  0  0  0  0  0  0
    6.9835   -4.4536   23.2084 C   0  0  1  0  0  0  0  0  0  0  0  0
    5.9741   -5.1524   24.0989 C   0  0  0  0  0  0  0  0  0  0  0  0
    6.1428   -4.9519   25.1655 H   0  0  0  0  0  0  0  0  0  0  0  0
    4.9529   -4.8329   23.8546 H   0  0  0  0  0  0  0  0  0  0  0  0
    6.0328   -6.2389   23.9663 H   0  0  0  0  0  0  0  0  0  0  0  0
    6.8711   -4.6850   22.1472 H   0  0  0  0  0  0  0  0  0  0  0  0
    8.6683   -4.5208   24.6754 H   0  0  0  0  0  0  0  0  0  0  0  0
    9.1965   -4.2828   22.9362 H   0  0  0  0  0  0  0  0  0  0  0  0
    7.0689   -2.6276   24.4833 H   0  0  0  0  0  0  0  0  0  0  0  0
    6.7015   -1.5585   21.7074 N   0  0  0  0  0  0  0  0  0  0  0  0
    7.3351   -0.6149   20.9613 N   0  0  0  0  0  0  0  0  0  0  0  0
    6.6397    0.0200   19.8970 C   0  0  0  0  0  0  0  0  0  0  0  0
    5.4144    0.6494   20.1354 C   0  0  0  0  0  0  0  0  0  0  0  0
    4.8040    1.3207   19.0706 C   0  0  0  0  0  0  0  0  0  0  0  0
    5.4126    1.3049   17.8101 C   0  0  0  0  0  0  0  0  0  0  0  0
    6.5519    0.6438   17.5590 N   0  0  0  0  0  0  0  0  0  0  0  0
    7.1396    0.0131   18.5825 C   0  0  0  0  0  0  0  0  0  0  0  0
    8.0469   -0.5399   18.3547 H   0  0  0  0  0  0  0  0  0  0  0  0
    4.9653    1.8222   16.9639 H   0  0  0  0  0  0  0  0  0  0  0  0
    3.8705    1.8511   19.2081 H   0  0  0  0  0  0  0  0  0  0  0  0
    4.9686    0.6133   21.1322 H   0  0  0  0  0  0  0  0  0  0  0  0
   10.5504    0.3311   21.3195 H   0  0  0  0  0  0  0  0  0  0  0  0
    9.5626    0.6910   19.8840 H   0  0  0  0  0  0  0  0  0  0  0  0
    7.4534    2.0665   25.6250 H   0  0  0  0  0  0  0  0  0  0  0  0
    9.6832    2.0782   26.6469 H   0  0  0  0  0  0  0  0  0  0  0  0
   11.7166    2.0950   25.2475 H   0  0  0  0  0  0  0  0  0  0  0  0
   11.6972    2.5261   21.5307 H   0  0  0  0  0  0  0  0  0  0  0  0
   12.6827    2.7678   22.9967 H   0  0  0  0  0  0  0  0  0  0  0  0
   12.3485    1.1405   22.4352 H   0  0  0  0  0  0  0  0  0  0  0  0
  1  2  1  0
  2  3  2  0
  3  4  1  0
  4  5  2  0
  5  6  1  0
  6  7  1  0
  7  8  1  0
  7  9  1  0
  7 10  1  0
  6 11  2  0
 11 12  1  0
 12 13  1  0
 13 14  1  0
 14 15  2  0
 15 16  1  0
 16 17  1  0
 17 18  1  0
 18 19  1  0
 19 20  1  0
 20 21  1  0
 20 22  1  0
 20 23  1  0
 19 24  1  6
 18 25  1  0
 18 26  1  0
 17 27  1  1
 16 28  2  0
 28 29  1  0
 29 30  1  0
 30 31  2  0
 31 32  1  0
 32 33  2  0
 33 34  1  0
 34 35  2  0
 35 36  1  0
 33 37  1  0
 32 38  1  0
 31 39  1  0
 13 40  1  0
 13 41  1  0
  5 42  1  0
  4 43  1  0
  3 44  1  0
  1 45  1  0
  1 46  1  0
  1 47  1  0
 11  2  1  0
 29 14  1  0
 35 30  1  0
 19 17  1  0
M  END
>  <cnnaffinity>  (1) 
-6.0803

>  <filename>  (1) 
Cc1cccc(C)c1OCc1nc([C@@H]2C[C@H]2C)nn1-c1cccnc1

$$$$
