
     RDKit          3D

 46 49  0  0  0  0  0  0  0  0999 V2000
    5.4128   -6.0310   26.4772 C   0  0  0  0  0  0  0  0  0  0  0  0
    5.6215   -5.0216   25.3426 C   0  0  0  0  0  0  0  0  0  0  0  0
    6.5819   -5.5649   24.2693 C   0  0  0  0  0  0  0  0  0  0  0  0
    6.8468   -4.5683   23.1347 C   0  0  0  0  0  0  0  0  0  0  0  0
    7.3787   -3.2346   23.6987 C   0  0  0  0  0  0  0  0  0  0  0  0
    7.7198   -2.2387   22.6308 C   0  0  0  0  0  0  0  0  0  0  0  0
    6.8731   -1.8447   21.6978 N   0  0  0  0  0  0  0  0  0  0  0  0
    7.5630   -0.8682   21.0470 N   0  0  0  0  0  0  0  0  0  0  0  0
    6.9141   -0.1357   20.0019 C   0  0  0  0  0  0  0  0  0  0  0  0
    5.7047    0.5273   20.2611 C   0  0  0  0  0  0  0  0  0  0  0  0
    5.0916    1.2245   19.2149 C   0  0  0  0  0  0  0  0  0  0  0  0
    5.6853    1.2100   17.9450 C   0  0  0  0  0  0  0  0  0  0  0  0
    6.8379    0.5720   17.6862 N   0  0  0  0  0  0  0  0  0  0  0  0
    7.4398   -0.0715   18.6976 C   0  0  0  0  0  0  0  0  0  0  0  0
    8.3810   -0.5672   18.4532 H   0  0  0  0  0  0  0  0  0  0  0  0
    5.2059    1.7158   17.1060 H   0  0  0  0  0  0  0  0  0  0  0  0
    4.1602    1.7621   19.3688 H   0  0  0  0  0  0  0  0  0  0  0  0
    5.2714    0.4978   21.2649 H   0  0  0  0  0  0  0  0  0  0  0  0
    8.7890   -0.7331   21.6360 C   0  0  0  0  0  0  0  0  0  0  0  0
    9.7531    0.3693   21.3088 C   0  0  0  0  0  0  0  0  0  0  0  0
    9.3059    1.6820   21.9019 C   0  0  0  0  0  0  0  0  0  0  0  0
    8.3538    2.5669   21.4687 C   0  0  0  0  0  0  0  0  0  0  0  0
    8.0187    3.4645   22.4507 N   0  0  0  0  0  0  0  0  0  0  0  0
    8.7527    3.1297   23.4775 C   0  0  0  0  0  0  0  0  0  0  0  0
    9.5529    2.0587   23.2043 N   0  0  0  0  0  0  0  0  0  0  0  0
   10.2116    1.6480   23.8525 H   0  0  0  0  0  0  0  0  0  0  0  0
    8.7303    3.6034   24.4524 H   0  0  0  0  0  0  0  0  0  0  0  0
    7.8350    2.5102   20.5243 H   0  0  0  0  0  0  0  0  0  0  0  0
    9.7981    0.4574   20.2217 H   0  0  0  0  0  0  0  0  0  0  0  0
   10.7311    0.0617   21.6912 H   0  0  0  0  0  0  0  0  0  0  0  0
    8.9199   -1.5992   22.6187 N   0  0  0  0  0  0  0  0  0  0  0  0
    6.3757   -2.6597   24.7350 C   0  0  0  0  0  0  0  0  0  0  0  0
    6.1269   -3.6654   25.8660 C   0  0  0  0  0  0  0  0  0  0  0  0
    5.4174   -3.2504   26.5923 H   0  0  0  0  0  0  0  0  0  0  0  0
    7.0660   -3.8243   26.4188 H   0  0  0  0  0  0  0  0  0  0  0  0
    6.7449   -1.7081   25.1389 H   0  0  0  0  0  0  0  0  0  0  0  0
    5.4268   -2.4402   24.2241 H   0  0  0  0  0  0  0  0  0  0  0  0
    8.3267   -3.4267   24.2215 H   0  0  0  0  0  0  0  0  0  0  0  0
    5.9173   -4.3716   22.5785 H   0  0  0  0  0  0  0  0  0  0  0  0
    7.5618   -4.9939   22.4189 H   0  0  0  0  0  0  0  0  0  0  0  0
    6.1808   -6.4923   23.8477 H   0  0  0  0  0  0  0  0  0  0  0  0
    7.5389   -5.8232   24.7517 H   0  0  0  0  0  0  0  0  0  0  0  0
    4.6474   -4.8461   24.8560 H   0  0  0  0  0  0  0  0  0  0  0  0
    4.6788   -5.6683   27.2061 H   0  0  0  0  0  0  0  0  0  0  0  0
    6.3517   -6.2160   27.0157 H   0  0  0  0  0  0  0  0  0  0  0  0
    5.0571   -6.9947   26.0944 H   0  0  0  0  0  0  0  0  0  0  0  0
  1  2  1  0
  2  3  1  0
  3  4  1  0
  4  5  1  0
  5  6  1  0
  6  7  2  0
  7  8  1  0
  8  9  1  0
  9 10  2  0
 10 11  1  0
 11 12  2  0
 12 13  1  0
 13 14  2  0
 14 15  1  0
 12 16  1  0
 11 17  1  0
 10 18  1  0
  8 19  1  0
 19 20  1  0
 20 21  1  0
 21 22  2  0
 22 23  1  0
 23 24  2  0
 24 25  1  0
 25 26  1  0
 24 27  1  0
 22 28  1  0
 20 29  1  0
 20 30  1  0
 19 31  2  0
  5 32  1  0
 32 33  1  0
 33 34  1  0
 33 35  1  0
 32 36  1  0
 32 37  1  0
  5 38  1  0
  4 39  1  0
  4 40  1  0
  3 41  1  0
  3 42  1  0
  2 43  1  0
  1 44  1  0
  1 45  1  0
  1 46  1  0
 33  2  1  0
 31  6  1  0
 14  9  1  0
 25 21  1  0
M  END
>  <cnnaffinity>  (1) 
-6.32122

>  <filename>  (1) 
CC1CCC(c2nc(Cc3cnc[nH]3)n(-c3cccnc3)n2)CC1

$$$$
