
     RDKit          3D

 44 47  0  0  0  0  0  0  0  0999 V2000
    6.7580   -5.8538   26.7772 C   0  0  0  0  0  0  0  0  0  0  0  0
    6.9929   -4.8274   25.7000 C   0  0  0  0  0  0  0  0  0  0  0  0
    5.9958   -4.5431   24.7558 C   0  0  0  0  0  0  0  0  0  0  0  0
    6.2063   -3.6131   23.7435 C   0  0  0  0  0  0  0  0  0  0  0  0
    7.4410   -2.9405   23.6502 C   0  0  0  0  0  0  0  0  0  0  0  0
    7.6683   -1.9642   22.5685 C   0  0  0  0  0  0  0  0  0  0  0  0
    6.7335   -1.5981   21.7050 N   0  0  0  0  0  0  0  0  0  0  0  0
    7.3640   -0.6816   20.9332 N   0  0  0  0  0  0  0  0  0  0  0  0
    6.6563   -0.0002   19.8986 C   0  0  0  0  0  0  0  0  0  0  0  0
    5.4397    0.6380   20.1667 C   0  0  0  0  0  0  0  0  0  0  0  0
    4.8132    1.3085   19.1093 C   0  0  0  0  0  0  0  0  0  0  0  0
    5.4009    1.2966   17.8364 C   0  0  0  0  0  0  0  0  0  0  0  0
    6.5579    0.6716   17.5728 N   0  0  0  0  0  0  0  0  0  0  0  0
    7.1654    0.0495   18.5892 C   0  0  0  0  0  0  0  0  0  0  0  0
    8.1105   -0.4350   18.3622 H   0  0  0  0  0  0  0  0  0  0  0  0
    4.9227    1.7884   16.9915 H   0  0  0  0  0  0  0  0  0  0  0  0
    3.8810    1.8396   19.2587 H   0  0  0  0  0  0  0  0  0  0  0  0
    5.0221    0.6083   21.1789 H   0  0  0  0  0  0  0  0  0  0  0  0
    8.6370   -0.5154   21.3991 C   0  0  0  0  0  0  0  0  0  0  0  0
    9.5186    0.6155   20.9715 C   0  0  0  0  0  0  0  0  0  0  0  0
    9.0607    2.0101   21.5077 C   0  0  0  0  0  0  0  0  0  0  0  0
    8.9801    2.0716   23.0062 C   0  0  0  0  0  0  0  0  0  0  0  0
    7.7869    1.8509   23.5700 N   0  0  0  0  0  0  0  0  0  0  0  0
    7.7523    1.7717   24.8972 C   0  0  0  0  0  0  0  0  0  0  0  0
    8.8809    1.9555   25.6702 C   0  0  0  0  0  0  0  0  0  0  0  0
    8.7472    1.9370   26.9970 F   0  0  0  0  0  0  0  0  0  0  0  0
   10.0795    2.1641   24.9994 C   0  0  0  0  0  0  0  0  0  0  0  0
   10.1293    2.2406   23.6693 N   0  0  0  0  0  0  0  0  0  0  0  0
   11.0325    2.2366   25.5172 H   0  0  0  0  0  0  0  0  0  0  0  0
    6.8081    1.5628   25.4005 H   0  0  0  0  0  0  0  0  0  0  0  0
    9.7612    2.7777   21.1836 H   0  0  0  0  0  0  0  0  0  0  0  0
    8.0717    2.2551   21.1219 H   0  0  0  0  0  0  0  0  0  0  0  0
    9.5605    0.6419   19.8800 H   0  0  0  0  0  0  0  0  0  0  0  0
   10.5297    0.3891   21.3219 H   0  0  0  0  0  0  0  0  0  0  0  0
    8.8662   -1.3422   22.3947 N   0  0  0  0  0  0  0  0  0  0  0  0
    8.4517   -3.2221   24.5932 C   0  0  0  0  0  0  0  0  0  0  0  0
    8.2206   -4.1560   25.6003 C   0  0  0  0  0  0  0  0  0  0  0  0
    8.9996   -4.3791   26.3253 H   0  0  0  0  0  0  0  0  0  0  0  0
    9.4136   -2.7145   24.5369 H   0  0  0  0  0  0  0  0  0  0  0  0
    5.4220   -3.3959   23.0208 H   0  0  0  0  0  0  0  0  0  0  0  0
    5.0434   -5.0610   24.8224 H   0  0  0  0  0  0  0  0  0  0  0  0
    7.0551   -6.8488   26.4359 H   0  0  0  0  0  0  0  0  0  0  0  0
    5.7034   -5.9195   27.0613 H   0  0  0  0  0  0  0  0  0  0  0  0
    7.3336   -5.6421   27.6832 H   0  0  0  0  0  0  0  0  0  0  0  0
  1  2  1  0
  2  3  2  0
  3  4  1  0
  4  5  2  0
  5  6  1  0
  6  7  2  0
  7  8  1  0
  8  9  1  0
  9 10  2  0
 10 11  1  0
 11 12  2  0
 12 13  1  0
 13 14  2  0
 14 15  1  0
 12 16  1  0
 11 17  1  0
 10 18  1  0
  8 19  1  0
 19 20  1  0
 20 21  1  0
 21 22  1  0
 22 23  2  0
 23 24  1  0
 24 25  2  0
 25 26  1  0
 25 27  1  0
 27 28  2  0
 27 29  1  0
 24 30  1  0
 21 31  1  0
 21 32  1  0
 20 33  1  0
 20 34  1  0
 19 35  2  0
  5 36  1  0
 36 37  2  0
 37 38  1  0
 36 39  1  0
  4 40  1  0
  3 41  1  0
  1 42  1  0
  1 43  1  0
  1 44  1  0
 37  2  1  0
 35  6  1  0
 14  9  1  0
 28 22  1  0
M  END
>  <cnnaffinity>  (1) 
-6.23223

>  <filename>  (1) 
Cc1ccc(-c2nc(CCc3ncc(F)cn3)n(-c3cccnc3)n2)cc1

$$$$
