
     RDKit          3D

 41 44  0  0  0  0  0  0  0  0999 V2000
    8.1583    2.6830   22.1004 C   0  0  0  0  0  0  0  0  0  0  0  0
    9.5407    2.2777   22.5475 C   0  0  0  0  0  0  0  0  0  0  0  0
   10.1563    2.9629   23.5957 C   0  0  0  0  0  0  0  0  0  0  0  0
   11.4284    2.5665   24.0100 C   0  0  0  0  0  0  0  0  0  0  0  0
   12.0422    1.5019   23.3556 C   0  0  0  0  0  0  0  0  0  0  0  0
   11.4792    0.8316   22.3404 N   0  0  0  0  0  0  0  0  0  0  0  0
   10.2619    1.2111   21.9481 C   0  0  0  0  0  0  0  0  0  0  0  0
    9.6398    0.3980   20.8464 C   0  0  0  0  0  0  0  0  0  0  0  0
    8.6340   -0.5413   21.3895 C   0  0  0  0  0  0  0  0  0  0  0  0
    8.8543   -1.4030   22.3519 N   0  0  0  0  0  0  0  0  0  0  0  0
    7.6412   -2.0167   22.5195 C   0  0  0  0  0  0  0  0  0  0  0  0
    7.3977   -3.0660   23.5856 C   0  0  0  0  0  0  0  0  0  0  0  0
    8.4457   -3.4615   24.4514 C   0  0  0  0  0  0  0  0  0  0  0  0
    8.1980   -4.4278   25.4300 C   0  0  0  0  0  0  0  0  0  0  0  0
    6.9147   -4.9692   25.5200 C   0  0  0  0  0  0  0  0  0  0  0  0
    5.9395   -4.5199   24.6258 C   0  0  0  0  0  0  0  0  0  0  0  0
    6.1633   -3.6054   23.6819 N   0  0  0  0  0  0  0  0  0  0  0  0
    4.9224   -4.9069   24.6529 H   0  0  0  0  0  0  0  0  0  0  0  0
    6.6580   -5.7224   26.2579 H   0  0  0  0  0  0  0  0  0  0  0  0
    8.9857   -4.7548   26.1121 H   0  0  0  0  0  0  0  0  0  0  0  0
    9.4281   -3.0141   24.3507 H   0  0  0  0  0  0  0  0  0  0  0  0
    6.7075   -1.5833   21.6852 N   0  0  0  0  0  0  0  0  0  0  0  0
    7.3533   -0.6740   20.9272 N   0  0  0  0  0  0  0  0  0  0  0  0
    6.6548    0.0081   19.8934 C   0  0  0  0  0  0  0  0  0  0  0  0
    5.4397    0.6449   20.1648 C   0  0  0  0  0  0  0  0  0  0  0  0
    4.8121    1.3120   19.1088 C   0  0  0  0  0  0  0  0  0  0  0  0
    5.3989    1.2973   17.8363 C   0  0  0  0  0  0  0  0  0  0  0  0
    6.5550    0.6719   17.5690 N   0  0  0  0  0  0  0  0  0  0  0  0
    7.1627    0.0485   18.5839 C   0  0  0  0  0  0  0  0  0  0  0  0
    8.1114   -0.4342   18.3641 H   0  0  0  0  0  0  0  0  0  0  0  0
    4.9184    1.7870   16.9933 H   0  0  0  0  0  0  0  0  0  0  0  0
    3.8801    1.8398   19.2617 H   0  0  0  0  0  0  0  0  0  0  0  0
    5.0186    0.6045   21.1744 H   0  0  0  0  0  0  0  0  0  0  0  0
    9.1847    1.0430   20.0944 H   0  0  0  0  0  0  0  0  0  0  0  0
   10.4002   -0.2367   20.4008 H   0  0  0  0  0  0  0  0  0  0  0  0
   13.0288    1.1632   23.6587 H   0  0  0  0  0  0  0  0  0  0  0  0
   11.9307    3.0741   24.8176 H   0  0  0  0  0  0  0  0  0  0  0  0
    9.6342    3.7942   24.0762 H   0  0  0  0  0  0  0  0  0  0  0  0
    7.4244    1.8838   22.2484 H   0  0  0  0  0  0  0  0  0  0  0  0
    8.1353    2.9238   21.0375 H   0  0  0  0  0  0  0  0  0  0  0  0
    7.8079    3.5631   22.6440 H   0  0  0  0  0  0  0  0  0  0  0  0
  1  2  1  0
  2  3  2  0
  3  4  1  0
  4  5  2  0
  5  6  1  0
  6  7  2  0
  7  8  1  0
  8  9  1  0
  9 10  2  0
 10 11  1  0
 11 12  1  0
 12 13  2  0
 13 14  1  0
 14 15  2  0
 15 16  1  0
 16 17  2  0
 16 18  1  0
 15 19  1  0
 14 20  1  0
 13 21  1  0
 11 22  2  0
 22 23  1  0
 23 24  1  0
 24 25  2  0
 25 26  1  0
 26 27  2  0
 27 28  1  0
 28 29  2  0
 29 30  1  0
 27 31  1  0
 26 32  1  0
 25 33  1  0
  8 34  1  0
  8 35  1  0
  5 36  1  0
  4 37  1  0
  3 38  1  0
  1 39  1  0
  1 40  1  0
  1 41  1  0
  7  2  1  0
 23  9  1  0
 29 24  1  0
 17 12  1  0
M  END
>  <cnnaffinity>  (1) 
-5.99187

>  <filename>  (1) 
Cc1cccnc1Cc1nc(-c2ccccn2)nn1-c1cccnc1

$$$$
