
     RDKit          3D

 46 48  0  0  0  0  0  0  0  0999 V2000
    8.5238    2.5604   22.0093 C   0  0  0  0  0  0  0  0  0  0  0  0
    9.8372    1.9493   22.4651 C   0  0  0  0  0  0  0  0  0  0  0  0
   10.5588    2.5512   23.5067 C   0  0  0  0  0  0  0  0  0  0  0  0
   11.7581    1.9878   23.9547 C   0  0  0  0  0  0  0  0  0  0  0  0
   12.2413    0.8102   23.3871 C   0  0  0  0  0  0  0  0  0  0  0  0
   11.5212    0.1530   22.3810 C   0  0  0  0  0  0  0  0  0  0  0  0
   11.9602   -1.2201   21.9293 C   0  0  0  0  0  0  0  0  0  0  0  0
   12.9343   -1.4770   22.3508 H   0  0  0  0  0  0  0  0  0  0  0  0
   12.0468   -1.2800   20.8422 H   0  0  0  0  0  0  0  0  0  0  0  0
   11.2313   -1.9805   22.2375 H   0  0  0  0  0  0  0  0  0  0  0  0
   10.3609    0.7789   21.8673 C   0  0  0  0  0  0  0  0  0  0  0  0
    9.5542    0.1063   20.7739 C   0  0  0  0  0  0  0  0  0  0  0  0
    8.4975   -0.7721   21.3621 C   0  0  0  0  0  0  0  0  0  0  0  0
    8.6431   -1.5510   22.4208 N   0  0  0  0  0  0  0  0  0  0  0  0
    7.4086   -2.0974   22.5835 C   0  0  0  0  0  0  0  0  0  0  0  0
    7.1094   -2.9534   23.7655 C   0  0  0  0  0  0  0  0  0  0  0  0
    6.7457   -2.1564   25.0426 C   0  0  0  0  0  0  0  0  0  0  0  0
    7.7265   -1.0298   25.4052 C   0  0  0  0  0  0  0  0  0  0  0  0
    9.0752   -1.4431   25.3899 O   0  0  0  0  0  0  0  0  0  0  0  0
    9.3185   -1.4627   24.4448 H   0  0  0  0  0  0  0  0  0  0  0  0
    7.4946   -0.6733   26.4173 H   0  0  0  0  0  0  0  0  0  0  0  0
    7.5839   -0.1787   24.7180 H   0  0  0  0  0  0  0  0  0  0  0  0
    6.6948   -2.8720   25.8728 H   0  0  0  0  0  0  0  0  0  0  0  0
    5.7428   -1.7162   24.9339 H   0  0  0  0  0  0  0  0  0  0  0  0
    8.0134   -3.5429   23.9538 H   0  0  0  0  0  0  0  0  0  0  0  0
    6.3117   -3.6502   23.4984 H   0  0  0  0  0  0  0  0  0  0  0  0
    6.5167   -1.7291   21.6921 N   0  0  0  0  0  0  0  0  0  0  0  0
    7.2260   -0.8948   20.8823 N   0  0  0  0  0  0  0  0  0  0  0  0
    6.5777   -0.1941   19.8328 C   0  0  0  0  0  0  0  0  0  0  0  0
    5.4151    0.5351   20.0999 C   0  0  0  0  0  0  0  0  0  0  0  0
    4.8556    1.2900   19.0667 C   0  0  0  0  0  0  0  0  0  0  0  0
    5.4601    1.2614   17.8023 C   0  0  0  0  0  0  0  0  0  0  0  0
    6.5493    0.5272   17.5276 N   0  0  0  0  0  0  0  0  0  0  0  0
    7.0920   -0.1821   18.5246 C   0  0  0  0  0  0  0  0  0  0  0  0
    7.9910   -0.7512   18.2915 H   0  0  0  0  0  0  0  0  0  0  0  0
    5.0446    1.8314   16.9745 H   0  0  0  0  0  0  0  0  0  0  0  0
    3.9646    1.8866   19.2264 H   0  0  0  0  0  0  0  0  0  0  0  0
    4.9861    0.4980   21.1018 H   0  0  0  0  0  0  0  0  0  0  0  0
   10.1699   -0.5308   20.1357 H   0  0  0  0  0  0  0  0  0  0  0  0
    9.0968    0.8611   20.1264 H   0  0  0  0  0  0  0  0  0  0  0  0
   13.1877    0.3790   23.7133 H   0  0  0  0  0  0  0  0  0  0  0  0
   12.3093    2.4490   24.7648 H   0  0  0  0  0  0  0  0  0  0  0  0
   10.1627    3.4504   23.9757 H   0  0  0  0  0  0  0  0  0  0  0  0
    7.7086    1.8278   22.0399 H   0  0  0  0  0  0  0  0  0  0  0  0
    8.5832    2.9351   20.9812 H   0  0  0  0  0  0  0  0  0  0  0  0
    8.2334    3.4021   22.6403 H   0  0  0  0  0  0  0  0  0  0  0  0
  1  2  1  0
  2  3  2  0
  3  4  1  0
  4  5  2  0
  5  6  1  0
  6  7  1  0
  7  8  1  0
  7  9  1  0
  7 10  1  0
  6 11  2  0
 11 12  1  0
 12 13  1  0
 13 14  2  0
 14 15  1  0
 15 16  1  0
 16 17  1  0
 17 18  1  0
 18 19  1  0
 19 20  1  0
 18 21  1  0
 18 22  1  0
 17 23  1  0
 17 24  1  0
 16 25  1  0
 16 26  1  0
 15 27  2  0
 27 28  1  0
 28 29  1  0
 29 30  2  0
 30 31  1  0
 31 32  2  0
 32 33  1  0
 33 34  2  0
 34 35  1  0
 32 36  1  0
 31 37  1  0
 30 38  1  0
 12 39  1  0
 12 40  1  0
  5 41  1  0
  4 42  1  0
  3 43  1  0
  1 44  1  0
  1 45  1  0
  1 46  1  0
 11  2  1  0
 28 13  1  0
 34 29  1  0
M  END
>  <cnnaffinity>  (1) 
-6.05216

>  <filename>  (1) 
Cc1cccc(C)c1Cc1nc(CCCO)nn1-c1cccnc1

$$$$
