
     RDKit          3D

 43 46  0  0  0  0  0  0  0  0999 V2000
   12.1610    2.1787   24.5843 C   0  0  0  0  0  0  0  0  0  0  0  0
   11.1184    2.0359   23.5607 C   0  0  0  0  0  0  0  0  0  0  0  0
   11.1446    1.1522   22.5833 N   0  0  0  0  0  0  0  0  0  0  0  0
    9.9959    1.3576   21.9144 N   0  0  0  0  0  0  0  0  0  0  0  0
    9.6057    0.4296   20.8828 C   0  0  0  0  0  0  0  0  0  0  0  0
    8.6237   -0.5614   21.3872 C   0  0  0  0  0  0  0  0  0  0  0  0
    8.8577   -1.4214   22.3467 N   0  0  0  0  0  0  0  0  0  0  0  0
    7.6543   -2.0308   22.5252 C   0  0  0  0  0  0  0  0  0  0  0  0
    7.4263   -3.0512   23.5747 C   0  0  0  0  0  0  0  0  0  0  0  0
    6.1563   -3.6492   23.7141 C   0  0  0  0  0  0  0  0  0  0  0  0
    5.9367   -4.6118   24.6995 C   0  0  0  0  0  0  0  0  0  0  0  0
    6.9724   -4.9895   25.5617 C   0  0  0  0  0  0  0  0  0  0  0  0
    8.2342   -4.3970   25.4350 C   0  0  0  0  0  0  0  0  0  0  0  0
    8.4662   -3.4325   24.4508 C   0  0  0  0  0  0  0  0  0  0  0  0
    9.4492   -2.9709   24.3586 H   0  0  0  0  0  0  0  0  0  0  0  0
    9.0386   -4.6888   26.1061 H   0  0  0  0  0  0  0  0  0  0  0  0
    6.7952   -5.7396   26.3294 H   0  0  0  0  0  0  0  0  0  0  0  0
    4.9540   -5.0646   24.7949 H   0  0  0  0  0  0  0  0  0  0  0  0
    5.3511   -3.3452   23.0465 H   0  0  0  0  0  0  0  0  0  0  0  0
    6.7071   -1.6070   21.6971 N   0  0  0  0  0  0  0  0  0  0  0  0
    7.3451   -0.6907   20.9338 N   0  0  0  0  0  0  0  0  0  0  0  0
    6.6520   -0.0004   19.8999 C   0  0  0  0  0  0  0  0  0  0  0  0
    5.4399    0.6416   20.1648 C   0  0  0  0  0  0  0  0  0  0  0  0
    4.8121    1.3112   19.1094 C   0  0  0  0  0  0  0  0  0  0  0  0
    5.3987    1.2960   17.8382 C   0  0  0  0  0  0  0  0  0  0  0  0
    6.5553    0.6698   17.5761 N   0  0  0  0  0  0  0  0  0  0  0  0
    7.1651    0.0468   18.5915 C   0  0  0  0  0  0  0  0  0  0  0  0
    8.1126   -0.4367   18.3629 H   0  0  0  0  0  0  0  0  0  0  0  0
    4.9215    1.7882   16.9942 H   0  0  0  0  0  0  0  0  0  0  0  0
    3.8795    1.8402   19.2594 H   0  0  0  0  0  0  0  0  0  0  0  0
    5.0138    0.6063   21.1714 H   0  0  0  0  0  0  0  0  0  0  0  0
    9.2066    1.0030   20.0517 H   0  0  0  0  0  0  0  0  0  0  0  0
   10.5019   -0.1082   20.5883 H   0  0  0  0  0  0  0  0  0  0  0  0
    9.2342    2.3391   22.4722 C   0  0  0  0  0  0  0  0  0  0  0  0
    7.8676    2.7253   22.0317 C   0  0  0  0  0  0  0  0  0  0  0  0
    7.6136    3.6939   22.4641 H   0  0  0  0  0  0  0  0  0  0  0  0
    7.1256    1.9954   22.3676 H   0  0  0  0  0  0  0  0  0  0  0  0
    7.8023    2.7811   20.9483 H   0  0  0  0  0  0  0  0  0  0  0  0
    9.9489    2.8170   23.5368 C   0  0  0  0  0  0  0  0  0  0  0  0
    9.6705    3.6227   24.2042 H   0  0  0  0  0  0  0  0  0  0  0  0
   13.1536    1.8849   24.2434 H   0  0  0  0  0  0  0  0  0  0  0  0
   11.8840    1.5832   25.4515 H   0  0  0  0  0  0  0  0  0  0  0  0
   12.1152    3.2323   24.8535 H   0  0  0  0  0  0  0  0  0  0  0  0
  1  2  1  0
  2  3  2  0
  3  4  1  0
  4  5  1  0
  5  6  1  0
  6  7  2  0
  7  8  1  0
  8  9  1  0
  9 10  2  0
 10 11  1  0
 11 12  2  0
 12 13  1  0
 13 14  2  0
 14 15  1  0
 13 16  1  0
 12 17  1  0
 11 18  1  0
 10 19  1  0
  8 20  2  0
 20 21  1  0
 21 22  1  0
 22 23  2  0
 23 24  1  0
 24 25  2  0
 25 26  1  0
 26 27  2  0
 27 28  1  0
 25 29  1  0
 24 30  1  0
 23 31  1  0
  5 32  1  0
  5 33  1  0
  4 34  1  0
 34 35  1  0
 35 36  1  0
 35 37  1  0
 35 38  1  0
 34 39  2  0
 39 40  1  0
  1 41  1  0
  1 42  1  0
  1 43  1  0
 39  2  1  0
 21  6  1  0
 27 22  1  0
 14  9  1  0
M  END
>  <cnnaffinity>  (1) 
-5.83126

>  <filename>  (1) 
Cc1cc(C)n(Cc2nc(-c3ccccc3)nn2-c2cccnc2)n1

$$$$
