
     RDKit          3D

 44 46  0  0  0  0  0  0  0  0999 V2000
    9.6024    2.2895   21.0752 C   0  0  0  0  0  0  0  0  0  0  0  0
    9.7378    2.2513   22.5618 C   0  0  0  0  0  0  0  0  0  0  0  0
   10.9206    2.6948   23.1517 C   0  0  0  0  0  0  0  0  0  0  0  0
   11.0770    2.5600   24.5251 C   0  0  0  0  0  0  0  0  0  0  0  0
   10.1492    2.0506   25.3375 N   0  0  0  0  0  0  0  0  0  0  0  0
    9.0058    1.6516   24.7660 C   0  0  0  0  0  0  0  0  0  0  0  0
    8.7247    1.7403   23.3974 C   0  0  0  0  0  0  0  0  0  0  0  0
    7.4338    1.1853   22.7966 C   0  0  0  0  0  0  0  0  0  0  0  0
    7.6018   -0.2004   22.2229 C   0  0  0  0  0  0  0  0  0  0  0  0
    8.1419   -1.2085   22.8878 N   0  0  0  0  0  0  0  0  0  0  0  0
    8.1765   -2.2049   21.9717 C   0  0  0  0  0  0  0  0  0  0  0  0
    8.7695   -3.5494   22.1925 C   0  0  0  0  0  0  0  0  0  0  0  0
    7.8383   -4.5806   22.8664 C   0  0  0  0  0  0  0  0  0  0  0  0
    7.3394   -4.1170   24.2389 C   0  0  0  0  0  0  0  0  0  0  0  0
    6.7137   -4.8795   24.7162 H   0  0  0  0  0  0  0  0  0  0  0  0
    8.1728   -3.9022   24.9177 H   0  0  0  0  0  0  0  0  0  0  0  0
    6.7426   -3.2006   24.1536 H   0  0  0  0  0  0  0  0  0  0  0  0
    6.6876   -4.9067   21.9080 C   0  0  0  0  0  0  0  0  0  0  0  0
    7.0735   -5.2369   20.9354 H   0  0  0  0  0  0  0  0  0  0  0  0
    6.0301   -5.6975   22.2812 H   0  0  0  0  0  0  0  0  0  0  0  0
    6.0709   -4.0200   21.7241 H   0  0  0  0  0  0  0  0  0  0  0  0
    8.4407   -5.4915   23.0047 H   0  0  0  0  0  0  0  0  0  0  0  0
    9.7193   -3.4273   22.7273 H   0  0  0  0  0  0  0  0  0  0  0  0
    8.9710   -3.8932   21.1799 H   0  0  0  0  0  0  0  0  0  0  0  0
    7.6963   -1.8844   20.7858 N   0  0  0  0  0  0  0  0  0  0  0  0
    7.3048   -0.6001   20.9519 N   0  0  0  0  0  0  0  0  0  0  0  0
    6.6253    0.0472   19.8967 C   0  0  0  0  0  0  0  0  0  0  0  0
    5.4010    0.6785   20.1276 C   0  0  0  0  0  0  0  0  0  0  0  0
    4.7846    1.3173   19.0501 C   0  0  0  0  0  0  0  0  0  0  0  0
    5.4160    1.2933   17.8020 C   0  0  0  0  0  0  0  0  0  0  0  0
    6.5638    0.6301   17.5649 N   0  0  0  0  0  0  0  0  0  0  0  0
    7.1485    0.0071   18.5932 C   0  0  0  0  0  0  0  0  0  0  0  0
    8.0651   -0.5440   18.3815 H   0  0  0  0  0  0  0  0  0  0  0  0
    4.9900    1.8330   16.9610 H   0  0  0  0  0  0  0  0  0  0  0  0
    3.8548    1.8587   19.1866 H   0  0  0  0  0  0  0  0  0  0  0  0
    4.9543    0.6472   21.1230 H   0  0  0  0  0  0  0  0  0  0  0  0
    6.6447    1.1343   23.5557 H   0  0  0  0  0  0  0  0  0  0  0  0
    7.0688    1.8519   22.0095 H   0  0  0  0  0  0  0  0  0  0  0  0
    8.2633    1.2219   25.4409 H   0  0  0  0  0  0  0  0  0  0  0  0
   12.0079    2.8654   24.9889 H   0  0  0  0  0  0  0  0  0  0  0  0
   11.7129    3.1192   22.5399 H   0  0  0  0  0  0  0  0  0  0  0  0
    8.8152    2.9758   20.7548 H   0  0  0  0  0  0  0  0  0  0  0  0
   10.5324    2.6123   20.6050 H   0  0  0  0  0  0  0  0  0  0  0  0
    9.3572    1.3026   20.6727 H   0  0  0  0  0  0  0  0  0  0  0  0
  1  2  1  0
  2  3  2  0
  3  4  1  0
  4  5  2  0
  5  6  1  0
  6  7  2  0
  7  8  1  0
  8  9  1  0
  9 10  2  0
 10 11  1  0
 11 12  1  0
 12 13  1  0
 13 14  1  0
 14 15  1  0
 14 16  1  0
 14 17  1  0
 13 18  1  0
 18 19  1  0
 18 20  1  0
 18 21  1  0
 13 22  1  0
 12 23  1  0
 12 24  1  0
 11 25  2  0
 25 26  1  0
 26 27  1  0
 27 28  2  0
 28 29  1  0
 29 30  2  0
 30 31  1  0
 31 32  2  0
 32 33  1  0
 30 34  1  0
 29 35  1  0
 28 36  1  0
  8 37  1  0
  8 38  1  0
  6 39  1  0
  4 40  1  0
  3 41  1  0
  1 42  1  0
  1 43  1  0
  1 44  1  0
  7  2  1  0
 26  9  1  0
 32 27  1  0
M  END
>  <cnnaffinity>  (1) 
-5.99018

>  <filename>  (1) 
Cc1ccncc1Cc1nc(CC(C)C)nn1-c1cccnc1

$$$$
