
     RDKit          3D

 43 46  0  0  0  0  0  0  0  0999 V2000
    9.7010    1.4059   24.8109 C   0  0  0  0  0  0  0  0  0  0  0  0
    8.2322    1.4686   25.1297 C   0  0  0  0  0  0  0  0  0  0  0  0
    7.8079    1.4199   26.4587 C   0  0  0  0  0  0  0  0  0  0  0  0
    6.4384    1.3909   26.7206 C   0  0  0  0  0  0  0  0  0  0  0  0
    5.9156    1.2850   28.3745 Cl  0  0  0  0  0  0  0  0  0  0  0  0
    5.4919    1.4136   25.7998 N   0  0  0  0  0  0  0  0  0  0  0  0
    5.9053    1.4646   24.5257 C   0  0  0  0  0  0  0  0  0  0  0  0
    7.2406    1.5092   24.1182 C   0  0  0  0  0  0  0  0  0  0  0  0
    7.6012    1.4033   22.6416 C   0  0  0  0  0  0  0  0  0  0  0  0
    7.7174   -0.0351   22.1896 C   0  0  0  0  0  0  0  0  0  0  0  0
    8.2971   -0.9834   22.9016 N   0  0  0  0  0  0  0  0  0  0  0  0
    8.2775   -2.0608   22.0832 C   0  0  0  0  0  0  0  0  0  0  0  0
    8.8351   -3.3676   22.5273 C   0  0  0  0  0  0  0  0  0  0  0  0
    8.1197   -4.0570   23.7117 C   0  0  0  0  0  0  0  0  0  0  0  0
    9.2234   -4.9401   24.2922 C   0  0  0  0  0  0  0  0  0  0  0  0
   10.4469   -4.2839   24.0000 O   0  0  0  0  0  0  0  0  0  0  0  0
   10.2665   -3.2221   23.0783 C   0  0  0  0  0  0  0  0  0  0  0  0
   11.0546   -3.2626   22.3154 H   0  0  0  0  0  0  0  0  0  0  0  0
   10.3865   -2.2591   23.5942 H   0  0  0  0  0  0  0  0  0  0  0  0
    9.1949   -5.9409   23.8327 H   0  0  0  0  0  0  0  0  0  0  0  0
    9.1691   -5.0713   25.3811 H   0  0  0  0  0  0  0  0  0  0  0  0
    7.7905   -3.3311   24.4596 H   0  0  0  0  0  0  0  0  0  0  0  0
    7.2465   -4.6336   23.4007 H   0  0  0  0  0  0  0  0  0  0  0  0
    8.7943   -4.0321   21.6617 H   0  0  0  0  0  0  0  0  0  0  0  0
    7.7484   -1.8501   20.9001 N   0  0  0  0  0  0  0  0  0  0  0  0
    7.3441   -0.5517   20.9817 N   0  0  0  0  0  0  0  0  0  0  0  0
    6.6272    0.0434   19.9092 C   0  0  0  0  0  0  0  0  0  0  0  0
    5.4109    0.7052   20.1026 C   0  0  0  0  0  0  0  0  0  0  0  0
    4.8162    1.3238   18.9962 C   0  0  0  0  0  0  0  0  0  0  0  0
    5.4533    1.2473   17.7542 C   0  0  0  0  0  0  0  0  0  0  0  0
    6.5965    0.5678   17.5555 N   0  0  0  0  0  0  0  0  0  0  0  0
    7.1555   -0.0357   18.6096 C   0  0  0  0  0  0  0  0  0  0  0  0
    8.0674   -0.6010   18.4360 H   0  0  0  0  0  0  0  0  0  0  0  0
    5.0307    1.7484   16.8850 H   0  0  0  0  0  0  0  0  0  0  0  0
    3.8939    1.8821   19.0975 H   0  0  0  0  0  0  0  0  0  0  0  0
    4.9279    0.7229   21.0812 H   0  0  0  0  0  0  0  0  0  0  0  0
    6.8688    1.9337   22.0279 H   0  0  0  0  0  0  0  0  0  0  0  0
    8.5639    1.8950   22.4420 H   0  0  0  0  0  0  0  0  0  0  0  0
    5.1081    1.4521   23.7816 H   0  0  0  0  0  0  0  0  0  0  0  0
    8.5186    1.3772   27.2752 H   0  0  0  0  0  0  0  0  0  0  0  0
    9.9058    0.5412   24.1732 H   0  0  0  0  0  0  0  0  0  0  0  0
   10.0494    2.2982   24.2816 H   0  0  0  0  0  0  0  0  0  0  0  0
   10.2995    1.3026   25.7188 H   0  0  0  0  0  0  0  0  0  0  0  0
  1  2  1  0
  2  3  2  0
  3  4  1  0
  4  5  1  0
  4  6  2  0
  6  7  1  0
  7  8  2  0
  8  9  1  0
  9 10  1  0
 10 11  2  0
 11 12  1  0
 12 13  1  0
 13 14  1  0
 14 15  1  0
 15 16  1  0
 16 17  1  0
 17 18  1  0
 17 19  1  0
 15 20  1  0
 15 21  1  0
 14 22  1  0
 14 23  1  0
 13 24  1  0
 12 25  2  0
 25 26  1  0
 26 27  1  0
 27 28  2  0
 28 29  1  0
 29 30  2  0
 30 31  1  0
 31 32  2  0
 32 33  1  0
 30 34  1  0
 29 35  1  0
 28 36  1  0
  9 37  1  0
  9 38  1  0
  7 39  1  0
  3 40  1  0
  1 41  1  0
  1 42  1  0
  1 43  1  0
  8  2  1  0
 26 10  1  0
 32 27  1  0
 17 13  1  0
M  END
>  <cnnaffinity>  (1) 
-6.05668

>  <filename>  (1) 
Cc1cc(Cl)ncc1Cc1nc(C2CCOC2)nn1-c1cccnc1

$$$$
