
     RDKit          3D

 42 45  0  0  0  0  0  0  0  0999 V2000
    7.8615   -0.3546   27.5309 C   0  0  0  0  0  0  0  0  0  0  0  0
    7.2457    0.2586   26.3156 C   0  0  0  0  0  0  0  0  0  0  0  0
    6.0308   -0.0286   25.7698 C   0  0  0  0  0  0  0  0  0  0  0  0
    5.8189    0.6313   24.5249 C   0  0  0  0  0  0  0  0  0  0  0  0
    6.8760    1.3862   24.1281 C   0  0  0  0  0  0  0  0  0  0  0  0
    7.1951    1.8457   22.7263 C   0  0  0  0  0  0  0  0  0  0  0  0
    8.2306    0.9260   22.1349 C   0  0  0  0  0  0  0  0  0  0  0  0
    9.5009    1.0940   22.3867 N   0  0  0  0  0  0  0  0  0  0  0  0
   10.0767   -0.0636   21.9750 C   0  0  0  0  0  0  0  0  0  0  0  0
   11.5175   -0.2188   22.1816 C   0  0  0  0  0  0  0  0  0  0  0  0
   12.3354   -1.1838   21.5660 C   0  0  0  0  0  0  0  0  0  0  0  0
   13.7097   -0.9775   21.6686 C   0  0  0  0  0  0  0  0  0  0  0  0
   14.5729   -1.7758   21.0327 F   0  0  0  0  0  0  0  0  0  0  0  0
   14.2139    0.1062   22.4042 C   0  0  0  0  0  0  0  0  0  0  0  0
   13.4262    0.9403   23.0868 N   0  0  0  0  0  0  0  0  0  0  0  0
   12.1068    0.7818   22.9778 C   0  0  0  0  0  0  0  0  0  0  0  0
   11.4723    1.4937   23.4981 H   0  0  0  0  0  0  0  0  0  0  0  0
   15.2710    0.3329   22.4118 H   0  0  0  0  0  0  0  0  0  0  0  0
   11.9330   -2.0072   20.9747 H   0  0  0  0  0  0  0  0  0  0  0  0
    9.2331   -0.9254   21.4400 N   0  0  0  0  0  0  0  0  0  0  0  0
    8.0383   -0.2831   21.5664 N   0  0  0  0  0  0  0  0  0  0  0  0
    6.7977   -0.8413   21.0459 C   0  0  0  0  0  0  0  0  0  0  0  0
    6.2486   -0.0326   19.8927 C   0  0  0  0  0  0  0  0  0  0  0  0
    5.0462    0.6772   19.9556 C   0  0  0  0  0  0  0  0  0  0  0  0
    4.6488    1.4224   18.8426 C   0  0  0  0  0  0  0  0  0  0  0  0
    5.4704    1.4289   17.7123 C   0  0  0  0  0  0  0  0  0  0  0  0
    6.6245    0.7479   17.6298 N   0  0  0  0  0  0  0  0  0  0  0  0
    6.9961    0.0467   18.7060 C   0  0  0  0  0  0  0  0  0  0  0  0
    7.9414   -0.4927   18.6293 H   0  0  0  0  0  0  0  0  0  0  0  0
    5.1855    1.9970   16.8296 H   0  0  0  0  0  0  0  0  0  0  0  0
    3.7351    2.0049   18.8467 H   0  0  0  0  0  0  0  0  0  0  0  0
    4.4411    0.6656   20.8657 H   0  0  0  0  0  0  0  0  0  0  0  0
    7.0285   -1.8663   20.7444 H   0  0  0  0  0  0  0  0  0  0  0  0
    6.0690   -0.8972   21.8633 H   0  0  0  0  0  0  0  0  0  0  0  0
    7.6270    2.8500   22.7284 H   0  0  0  0  0  0  0  0  0  0  0  0
    6.2895    1.8650   22.1164 H   0  0  0  0  0  0  0  0  0  0  0  0
    8.0951    1.4291   25.3666 S   0  0  0  0  0  0  0  0  0  0  0  0
    4.9184    0.5396   23.9310 H   0  0  0  0  0  0  0  0  0  0  0  0
    5.3307   -0.7121   26.2403 H   0  0  0  0  0  0  0  0  0  0  0  0
    8.2859   -1.3351   27.2777 H   0  0  0  0  0  0  0  0  0  0  0  0
    7.0850   -0.5194   28.2840 H   0  0  0  0  0  0  0  0  0  0  0  0
    8.6601    0.2566   27.9584 H   0  0  0  0  0  0  0  0  0  0  0  0
  1  2  1  0
  2  3  2  0
  3  4  1  0
  4  5  2  0
  5  6  1  0
  6  7  1  0
  7  8  2  0
  8  9  1  0
  9 10  1  0
 10 11  2  0
 11 12  1  0
 12 13  1  0
 12 14  2  0
 14 15  1  0
 15 16  2  0
 16 17  1  0
 14 18  1  0
 11 19  1  0
  9 20  2  0
 20 21  1  0
 21 22  1  0
 22 23  1  0
 23 24  2  0
 24 25  1  0
 25 26  2  0
 26 27  1  0
 27 28  2  0
 28 29  1  0
 26 30  1  0
 25 31  1  0
 24 32  1  0
 22 33  1  0
 22 34  1  0
  6 35  1  0
  6 36  1  0
  5 37  1  0
  4 38  1  0
  3 39  1  0
  1 40  1  0
  1 41  1  0
  1 42  1  0
 37  2  1  0
 21  7  1  0
 28 23  1  0
 16 10  1  0
M  END
>  <cnnaffinity>  (1) 
-6.73487

>  <filename>  (1) 
Cc1ccc(Cc2nc(-c3cncc(F)c3)nn2Cc2cccnc2)s1

$$$$
