
     RDKit          3D

 45 48  0  0  0  0  0  0  0  0999 V2000
   11.2771    2.9330   23.1743 C   0  0  0  0  0  0  0  0  0  0  0  0
    9.9963    2.4124   23.7889 C   0  0  0  0  0  0  0  0  0  0  0  0
    9.9461    2.1060   25.1603 C   0  0  0  0  0  0  0  0  0  0  0  0
    8.7504    1.7228   25.7841 C   0  0  0  0  0  0  0  0  0  0  0  0
    7.5978    1.5226   25.0183 C   0  0  0  0  0  0  0  0  0  0  0  0
    7.6471    1.7167   23.6370 C   0  0  0  0  0  0  0  0  0  0  0  0
    8.8302    2.1638   23.0258 C   0  0  0  0  0  0  0  0  0  0  0  0
    8.8750    2.2380   21.2352 S   0  0  0  0  0  0  0  0  0  0  0  0
    9.5254    0.5543   20.9073 C   0  0  0  0  0  0  0  0  0  0  0  0
    8.6217   -0.5274   21.3822 C   0  0  0  0  0  0  0  0  0  0  0  0
    8.8567   -1.3468   22.3859 N   0  0  0  0  0  0  0  0  0  0  0  0
    7.6448   -1.9370   22.5832 C   0  0  0  0  0  0  0  0  0  0  0  0
    7.4082   -2.8848   23.7109 C   0  0  0  0  0  0  0  0  0  0  0  0
    8.4225   -4.0483   23.7885 C   0  0  0  0  0  0  0  0  0  0  0  0
    8.4550   -4.3820   25.2880 C   0  0  0  0  0  0  0  0  0  0  0  0
    7.9341   -3.2587   25.9825 O   0  0  0  0  0  0  0  0  0  0  0  0
    7.5859   -2.2191   25.0921 C   0  0  0  0  0  0  0  0  0  0  0  0
    8.3723   -1.4432   25.0707 H   0  0  0  0  0  0  0  0  0  0  0  0
    6.6689   -1.7475   25.4690 H   0  0  0  0  0  0  0  0  0  0  0  0
    7.8411   -5.2596   25.5280 H   0  0  0  0  0  0  0  0  0  0  0  0
    9.4698   -4.5875   25.6513 H   0  0  0  0  0  0  0  0  0  0  0  0
    8.1425   -4.9028   23.1607 H   0  0  0  0  0  0  0  0  0  0  0  0
    9.4096   -3.7014   23.4541 H   0  0  0  0  0  0  0  0  0  0  0  0
    6.3763   -3.2459   23.6147 H   0  0  0  0  0  0  0  0  0  0  0  0
    6.7013   -1.5581   21.7510 N   0  0  0  0  0  0  0  0  0  0  0  0
    7.3441   -0.6774   20.9375 N   0  0  0  0  0  0  0  0  0  0  0  0
    6.6582   -0.0057   19.8897 C   0  0  0  0  0  0  0  0  0  0  0  0
    5.4474    0.6410   20.1505 C   0  0  0  0  0  0  0  0  0  0  0  0
    4.8095    1.3106   19.1030 C   0  0  0  0  0  0  0  0  0  0  0  0
    5.3980    1.2924   17.8339 C   0  0  0  0  0  0  0  0  0  0  0  0
    6.5501    0.6576   17.5710 N   0  0  0  0  0  0  0  0  0  0  0  0
    7.1653    0.0329   18.5806 C   0  0  0  0  0  0  0  0  0  0  0  0
    8.1063   -0.4629   18.3398 H   0  0  0  0  0  0  0  0  0  0  0  0
    4.9310    1.8031   16.9948 H   0  0  0  0  0  0  0  0  0  0  0  0
    3.8768    1.8422   19.2591 H   0  0  0  0  0  0  0  0  0  0  0  0
    5.0264    0.5984   21.1552 H   0  0  0  0  0  0  0  0  0  0  0  0
    9.6296    0.4868   19.8277 H   0  0  0  0  0  0  0  0  0  0  0  0
   10.5032    0.4250   21.3800 H   0  0  0  0  0  0  0  0  0  0  0  0
    6.8010    1.4522   23.0030 H   0  0  0  0  0  0  0  0  0  0  0  0
    6.6868    1.1449   25.4796 H   0  0  0  0  0  0  0  0  0  0  0  0
    8.7223    1.5864   26.8618 H   0  0  0  0  0  0  0  0  0  0  0  0
   10.8737    2.1245   25.7265 H   0  0  0  0  0  0  0  0  0  0  0  0
   11.9580    3.3107   23.9402 H   0  0  0  0  0  0  0  0  0  0  0  0
   11.8007    2.1365   22.6321 H   0  0  0  0  0  0  0  0  0  0  0  0
   11.0942    3.7361   22.4502 H   0  0  0  0  0  0  0  0  0  0  0  0
  1  2  1  0
  2  3  2  0
  3  4  1  0
  4  5  2  0
  5  6  1  0
  6  7  2  0
  7  8  1  0
  8  9  1  0
  9 10  1  0
 10 11  2  0
 11 12  1  0
 12 13  1  0
 13 14  1  0
 14 15  1  0
 15 16  1  0
 16 17  1  0
 17 18  1  0
 17 19  1  0
 15 20  1  0
 15 21  1  0
 14 22  1  0
 14 23  1  0
 13 24  1  0
 12 25  2  0
 25 26  1  0
 26 27  1  0
 27 28  2  0
 28 29  1  0
 29 30  2  0
 30 31  1  0
 31 32  2  0
 32 33  1  0
 30 34  1  0
 29 35  1  0
 28 36  1  0
  9 37  1  0
  9 38  1  0
  6 39  1  0
  5 40  1  0
  4 41  1  0
  3 42  1  0
  1 43  1  0
  1 44  1  0
  1 45  1  0
  7  2  1  0
 26 10  1  0
 32 27  1  0
 17 13  1  0
M  END
>  <cnnaffinity>  (1) 
-6.02236

>  <filename>  (1) 
Cc1ccccc1SCc1nc(C2CCOC2)nn1-c1cccnc1

$$$$
