
     RDKit          3D

 53 56  0  0  0  0  0  0  0  0999 V2000
    8.9603    2.6414   22.1968 C   0  0  0  0  0  0  0  0  0  0  0  0
   10.2593    1.9140   22.4523 C   0  0  0  0  0  0  0  0  0  0  0  0
   11.1806    2.4389   23.3722 C   0  0  0  0  0  0  0  0  0  0  0  0
   12.3956    1.7956   23.6075 C   0  0  0  0  0  0  0  0  0  0  0  0
   12.6725    0.5916   22.9619 C   0  0  0  0  0  0  0  0  0  0  0  0
   11.7501    0.0130   22.0808 C   0  0  0  0  0  0  0  0  0  0  0  0
   12.0386   -1.3541   21.5142 C   0  0  0  0  0  0  0  0  0  0  0  0
   12.9935   -1.7449   21.8691 H   0  0  0  0  0  0  0  0  0  0  0  0
   12.1004   -1.3271   20.4279 H   0  0  0  0  0  0  0  0  0  0  0  0
   11.2525   -2.0604   21.8031 H   0  0  0  0  0  0  0  0  0  0  0  0
   10.5667    0.7169   21.7651 C   0  0  0  0  0  0  0  0  0  0  0  0
    9.5642    0.1438   20.7719 C   0  0  0  0  0  0  0  0  0  0  0  0
    8.4686   -0.6577   21.4199 C   0  0  0  0  0  0  0  0  0  0  0  0
    8.5760   -1.3115   22.5607 N   0  0  0  0  0  0  0  0  0  0  0  0
    7.4122   -1.9909   22.6657 C   0  0  0  0  0  0  0  0  0  0  0  0
    7.0764   -2.8298   23.8894 C   0  0  0  0  0  0  0  0  0  0  0  0
    5.9130   -3.7745   23.5918 C   0  0  0  0  0  0  0  0  0  0  0  0
    6.3456   -4.7458   22.4954 N   0  0  0  0  0  4  0  0  0  0  0  0
    5.2776   -5.7388   22.2151 C   0  0  0  0  0  0  0  0  0  0  0  0
    5.5887   -6.4558   21.4486 H   0  0  0  0  0  0  0  0  0  0  0  0
    5.0528   -6.3120   23.1276 H   0  0  0  0  0  0  0  0  0  0  0  0
    4.3498   -5.2568   21.8942 H   0  0  0  0  0  0  0  0  0  0  0  0
    7.6054   -5.4856   22.9464 C   0  0  0  0  0  0  0  0  0  0  0  0
    8.6876   -4.5407   23.4652 C   0  0  0  0  0  0  0  0  0  0  0  0
    8.1703   -3.5997   24.4042 O   0  0  0  0  0  0  0  0  0  0  0  0
    9.1910   -4.0234   22.6378 H   0  0  0  0  0  0  0  0  0  0  0  0
    9.4363   -5.1116   24.0153 H   0  0  0  0  0  0  0  0  0  0  0  0
    7.3423   -6.1598   23.7727 H   0  0  0  0  0  0  0  0  0  0  0  0
    7.9864   -6.0923   22.1195 H   0  0  0  0  0  0  0  0  0  0  0  0
    6.5294   -4.1411   21.6523 H   0  0  0  0  0  0  0  0  0  0  0  0
    5.0108   -3.2375   23.2884 H   0  0  0  0  0  0  0  0  0  0  0  0
    5.7004   -4.3410   24.5028 H   0  0  0  0  0  0  0  0  0  0  0  0
    6.8210   -2.1482   24.7026 H   0  0  0  0  0  0  0  0  0  0  0  0
    6.5887   -1.8341   21.6370 N   0  0  0  0  0  0  0  0  0  0  0  0
    7.2523   -0.9335   20.8405 N   0  0  0  0  0  0  0  0  0  0  0  0
    6.5557   -0.2114   19.8136 C   0  0  0  0  0  0  0  0  0  0  0  0
    5.3799    0.4973   20.1013 C   0  0  0  0  0  0  0  0  0  0  0  0
    4.8077    1.2758   19.0892 C   0  0  0  0  0  0  0  0  0  0  0  0
    5.4142    1.2983   17.8245 C   0  0  0  0  0  0  0  0  0  0  0  0
    6.5170    0.5928   17.5296 N   0  0  0  0  0  0  0  0  0  0  0  0
    7.0697   -0.1392   18.5030 C   0  0  0  0  0  0  0  0  0  0  0  0
    7.9700   -0.6972   18.2437 H   0  0  0  0  0  0  0  0  0  0  0  0
    4.9931    1.9014   17.0218 H   0  0  0  0  0  0  0  0  0  0  0  0
    3.9171    1.8732   19.2681 H   0  0  0  0  0  0  0  0  0  0  0  0
    4.9517    0.4485   21.1039 H   0  0  0  0  0  0  0  0  0  0  0  0
    9.1284    0.9475   20.1730 H   0  0  0  0  0  0  0  0  0  0  0  0
   10.0574   -0.5294   20.0646 H   0  0  0  0  0  0  0  0  0  0  0  0
   13.6238    0.0960   23.1320 H   0  0  0  0  0  0  0  0  0  0  0  0
   13.1212    2.2016   24.3045 H   0  0  0  0  0  0  0  0  0  0  0  0
   10.9444    3.3663   23.8924 H   0  0  0  0  0  0  0  0  0  0  0  0
    8.1106    1.9604   22.3057 H   0  0  0  0  0  0  0  0  0  0  0  0
    8.9274    3.0431   21.1773 H   0  0  0  0  0  0  0  0  0  0  0  0
    8.8169    3.4723   22.8931 H   0  0  0  0  0  0  0  0  0  0  0  0
  1  2  1  0
  2  3  2  0
  3  4  1  0
  4  5  2  0
  5  6  1  0
  6  7  1  0
  7  8  1  0
  7  9  1  0
  7 10  1  0
  6 11  2  0
 11 12  1  0
 12 13  1  0
 13 14  2  0
 14 15  1  0
 15 16  1  0
 16 17  1  0
 17 18  1  0
 18 19  1  0
 19 20  1  0
 19 21  1  0
 19 22  1  0
 18 23  1  0
 23 24  1  0
 24 25  1  0
 24 26  1  0
 24 27  1  0
 23 28  1  0
 23 29  1  0
 18 30  1  0
 17 31  1  0
 17 32  1  0
 16 33  1  0
 15 34  2  0
 34 35  1  0
 35 36  1  0
 36 37  2  0
 37 38  1  0
 38 39  2  0
 39 40  1  0
 40 41  2  0
 41 42  1  0
 39 43  1  0
 38 44  1  0
 37 45  1  0
 12 46  1  0
 12 47  1  0
  5 48  1  0
  4 49  1  0
  3 50  1  0
  1 51  1  0
  1 52  1  0
  1 53  1  0
 11  2  1  0
 35 13  1  0
 41 36  1  0
 25 16  1  0
M  CHG  1  18   1
M  END
>  <cnnaffinity>  (1) 
-6.46142

>  <filename>  (1) 
Cc1cccc(C)c1Cc1nc(C2C[NH+](C)CCO2)nn1-c1cccnc1

$$$$
