
     RDKit          3D

 47 50  0  0  0  0  0  0  0  0999 V2000
    9.6246   -4.0899   26.5185 C   0  0  0  0  0  0  0  0  0  0  0  0
    8.2178   -4.5739   26.1384 C   0  0  0  0  0  0  0  0  0  0  0  0
    8.2258   -5.2541   24.7508 C   0  0  0  0  0  0  0  0  0  0  0  0
    8.4315   -4.2456   23.6118 C   0  0  0  0  0  0  0  0  0  0  0  0
    7.3535   -3.1351   23.6297 C   0  0  0  0  0  0  0  0  0  0  0  0
    7.6344   -2.1446   22.5494 C   0  0  0  0  0  0  0  0  0  0  0  0
    6.7474   -1.7001   21.6910 N   0  0  0  0  0  0  0  0  0  0  0  0
    7.4390   -0.7502   20.9968 N   0  0  0  0  0  0  0  0  0  0  0  0
    6.7764   -0.0558   19.9362 C   0  0  0  0  0  0  0  0  0  0  0  0
    5.5552    0.5883   20.1832 C   0  0  0  0  0  0  0  0  0  0  0  0
    4.9270    1.2636   19.1322 C   0  0  0  0  0  0  0  0  0  0  0  0
    5.5265    1.2520   17.8671 C   0  0  0  0  0  0  0  0  0  0  0  0
    6.6723    0.6004   17.6112 N   0  0  0  0  0  0  0  0  0  0  0  0
    7.2774   -0.0363   18.6243 C   0  0  0  0  0  0  0  0  0  0  0  0
    8.1911   -0.5772   18.3744 H   0  0  0  0  0  0  0  0  0  0  0  0
    5.0694    1.7742   17.0259 H   0  0  0  0  0  0  0  0  0  0  0  0
    3.9930    1.8001   19.2792 H   0  0  0  0  0  0  0  0  0  0  0  0
    5.1249    0.5448   21.1833 H   0  0  0  0  0  0  0  0  0  0  0  0
    8.6950   -0.6539   21.5335 C   0  0  0  0  0  0  0  0  0  0  0  0
    9.6789    0.4436   21.2955 C   0  0  0  0  0  0  0  0  0  0  0  0
    9.1972    1.7353   21.8950 C   0  0  0  0  0  0  0  0  0  0  0  0
    9.3686    2.1842   23.1740 C   0  0  0  0  0  0  0  0  0  0  0  0
    8.6290    3.3335   23.3117 N   0  0  0  0  0  0  0  0  0  0  0  0
    7.9777    3.6171   22.1377 C   0  0  0  0  0  0  0  0  0  0  0  0
    8.3190    2.6261   21.2466 C   0  0  0  0  0  0  0  0  0  0  0  0
    8.0035    2.4052   20.2391 H   0  0  0  0  0  0  0  0  0  0  0  0
    7.3417    4.4936   22.0734 H   0  0  0  0  0  0  0  0  0  0  0  0
    8.5505    3.8941   24.1430 H   0  0  0  0  0  0  0  0  0  0  0  0
    9.9540    1.7538   23.9740 H   0  0  0  0  0  0  0  0  0  0  0  0
    9.8155    0.5390   20.2184 H   0  0  0  0  0  0  0  0  0  0  0  0
   10.6264    0.1291   21.7417 H   0  0  0  0  0  0  0  0  0  0  0  0
    8.8613   -1.5627   22.4611 N   0  0  0  0  0  0  0  0  0  0  0  0
    7.3300   -2.4291   25.0181 C   0  0  0  0  0  0  0  0  0  0  0  0
    7.1702   -3.4340   26.1720 C   0  0  0  0  0  0  0  0  0  0  0  0
    6.1629   -3.8759   26.1185 H   0  0  0  0  0  0  0  0  0  0  0  0
    7.2254   -2.9024   27.1334 H   0  0  0  0  0  0  0  0  0  0  0  0
    8.2709   -1.8672   25.1428 H   0  0  0  0  0  0  0  0  0  0  0  0
    6.5256   -1.6799   25.0495 H   0  0  0  0  0  0  0  0  0  0  0  0
    6.3611   -3.5553   23.4124 H   0  0  0  0  0  0  0  0  0  0  0  0
    8.4421   -4.7511   22.6373 H   0  0  0  0  0  0  0  0  0  0  0  0
    9.4170   -3.7625   23.7110 H   0  0  0  0  0  0  0  0  0  0  0  0
    7.2706   -5.7788   24.5944 H   0  0  0  0  0  0  0  0  0  0  0  0
    9.0174   -6.0158   24.7220 H   0  0  0  0  0  0  0  0  0  0  0  0
    7.9123   -5.3229   26.8840 H   0  0  0  0  0  0  0  0  0  0  0  0
    9.6187   -3.6278   27.5081 H   0  0  0  0  0  0  0  0  0  0  0  0
   10.3409   -4.9207   26.5285 H   0  0  0  0  0  0  0  0  0  0  0  0
    9.9941   -3.3509   25.7975 H   0  0  0  0  0  0  0  0  0  0  0  0
  1  2  1  0
  2  3  1  0
  3  4  1  0
  4  5  1  0
  5  6  1  0
  6  7  2  0
  7  8  1  0
  8  9  1  0
  9 10  2  0
 10 11  1  0
 11 12  2  0
 12 13  1  0
 13 14  2  0
 14 15  1  0
 12 16  1  0
 11 17  1  0
 10 18  1  0
  8 19  1  0
 19 20  1  0
 20 21  1  0
 21 22  2  0
 22 23  1  0
 23 24  1  0
 24 25  2  0
 25 26  1  0
 24 27  1  0
 23 28  1  0
 22 29  1  0
 20 30  1  0
 20 31  1  0
 19 32  2  0
  5 33  1  0
 33 34  1  0
 34 35  1  0
 34 36  1  0
 33 37  1  0
 33 38  1  0
  5 39  1  0
  4 40  1  0
  4 41  1  0
  3 42  1  0
  3 43  1  0
  2 44  1  0
  1 45  1  0
  1 46  1  0
  1 47  1  0
 34  2  1  0
 32  6  1  0
 14  9  1  0
 25 21  1  0
M  END
>  <cnnaffinity>  (1) 
-6.33811

>  <filename>  (1) 
CC1CCC(c2nc(Cc3cc[nH]c3)n(-c3cccnc3)n2)CC1

$$$$
