
     RDKit          3D

 49 52  0  0  0  0  0  0  0  0999 V2000
    6.3445    4.0318   28.7286 C   0  0  0  0  0  0  0  0  0  0  0  0
    6.7361    3.4034   27.4157 C   0  0  0  0  0  0  0  0  0  0  0  0
    7.9518    3.6918   26.7762 C   0  0  0  0  0  0  0  0  0  0  0  0
    8.3138    3.0875   25.5691 C   0  0  0  0  0  0  0  0  0  0  0  0
    7.4435    2.1705   24.9471 C   0  0  0  0  0  0  0  0  0  0  0  0
    7.8164    1.5393   23.6524 C   0  0  0  0  0  0  0  0  0  0  0  0
    7.1634    0.5106   23.1335 N   0  0  0  0  0  0  0  0  0  0  0  0
    7.8657    0.2238   22.0162 N   0  0  0  0  0  0  0  0  0  0  0  0
    7.3448   -0.7124   21.0217 C   0  0  0  0  0  0  0  0  0  0  0  0
    6.6439   -0.0207   19.8724 C   0  0  0  0  0  0  0  0  0  0  0  0
    5.4463    0.6605   20.1185 C   0  0  0  0  0  0  0  0  0  0  0  0
    4.8241    1.3199   19.0604 C   0  0  0  0  0  0  0  0  0  0  0  0
    5.4294    1.2895   17.8007 C   0  0  0  0  0  0  0  0  0  0  0  0
    6.5743    0.6379   17.5438 N   0  0  0  0  0  0  0  0  0  0  0  0
    7.1543   -0.0011   18.5668 C   0  0  0  0  0  0  0  0  0  0  0  0
    8.0771   -0.5374   18.3309 H   0  0  0  0  0  0  0  0  0  0  0  0
    4.9764    1.8055   16.9583 H   0  0  0  0  0  0  0  0  0  0  0  0
    3.8929    1.8579   19.2013 H   0  0  0  0  0  0  0  0  0  0  0  0
    5.0299    0.6725   21.1281 H   0  0  0  0  0  0  0  0  0  0  0  0
    6.6508   -1.3544   21.5704 H   0  0  0  0  0  0  0  0  0  0  0  0
    8.1708   -1.3343   20.6586 H   0  0  0  0  0  0  0  0  0  0  0  0
    8.8825    1.1028   21.8936 C   0  0  0  0  0  0  0  0  0  0  0  0
    9.9680    0.8832   20.8931 C   0  0  0  0  0  0  0  0  0  0  0  0
   10.8408   -0.3332   21.2876 C   0  0  0  0  0  0  0  0  0  0  0  0
   11.5357   -0.0590   22.5943 C   0  0  0  0  0  0  0  0  0  0  0  0
   11.0920   -0.5223   23.8000 C   0  0  0  0  0  0  0  0  0  0  0  0
   11.8341   -0.2616   24.9357 N   0  0  0  0  0  0  0  0  0  0  0  0
   13.1107    0.3031   24.8908 C   0  0  0  0  0  0  0  0  0  0  0  0
   13.8444    0.1163   25.8427 O   0  0  0  0  0  0  0  0  0  0  0  0
   13.4242    1.0308   23.6744 C   0  0  0  0  0  0  0  0  0  0  0  0
   12.6599    0.8402   22.5722 C   0  0  0  0  0  0  0  0  0  0  0  0
   12.8753    1.3970   21.6602 H   0  0  0  0  0  0  0  0  0  0  0  0
   14.3080    1.6470   23.6731 H   0  0  0  0  0  0  0  0  0  0  0  0
   11.8021   -0.8293   25.7752 H   0  0  0  0  0  0  0  0  0  0  0  0
   10.1682   -1.0863   23.9165 H   0  0  0  0  0  0  0  0  0  0  0  0
   10.2316   -1.2433   21.3484 H   0  0  0  0  0  0  0  0  0  0  0  0
   11.5882   -0.5409   20.5132 H   0  0  0  0  0  0  0  0  0  0  0  0
   10.5912    1.7808   20.8511 H   0  0  0  0  0  0  0  0  0  0  0  0
    9.5326    0.7409   19.9014 H   0  0  0  0  0  0  0  0  0  0  0  0
    8.8757    1.9544   22.9000 N   0  0  0  0  0  0  0  0  0  0  0  0
    6.2160    1.8602   25.5775 C   0  0  0  0  0  0  0  0  0  0  0  0
    5.8950    2.4769   26.7790 C   0  0  0  0  0  0  0  0  0  0  0  0
    4.7177    2.1718   27.3618 F   0  0  0  0  0  0  0  0  0  0  0  0
    5.5117    1.1476   25.1557 H   0  0  0  0  0  0  0  0  0  0  0  0
    9.2694    3.3329   25.1095 H   0  0  0  0  0  0  0  0  0  0  0  0
    8.6225    4.4147   27.2355 H   0  0  0  0  0  0  0  0  0  0  0  0
    7.0100    4.8591   28.9930 H   0  0  0  0  0  0  0  0  0  0  0  0
    5.3214    4.4200   28.6917 H   0  0  0  0  0  0  0  0  0  0  0  0
    6.3774    3.2998   29.5435 H   0  0  0  0  0  0  0  0  0  0  0  0
  1  2  1  0
  2  3  2  0
  3  4  1  0
  4  5  2  0
  5  6  1  0
  6  7  2  0
  7  8  1  0
  8  9  1  0
  9 10  1  0
 10 11  2  0
 11 12  1  0
 12 13  2  0
 13 14  1  0
 14 15  2  0
 15 16  1  0
 13 17  1  0
 12 18  1  0
 11 19  1  0
  9 20  1  0
  9 21  1  0
  8 22  1  0
 22 23  1  0
 23 24  1  0
 24 25  1  0
 25 26  2  0
 26 27  1  0
 27 28  1  0
 28 29  2  0
 28 30  1  0
 30 31  2  0
 31 32  1  0
 30 33  1  0
 27 34  1  0
 26 35  1  0
 24 36  1  0
 24 37  1  0
 23 38  1  0
 23 39  1  0
 22 40  2  0
  5 41  1  0
 41 42  2  0
 42 43  1  0
 41 44  1  0
  4 45  1  0
  3 46  1  0
  1 47  1  0
  1 48  1  0
  1 49  1  0
 42  2  1  0
 40  6  1  0
 15 10  1  0
 31 25  1  0
M  END
>  <cnnaffinity>  (1) 
-6.22174

>  <filename>  (1) 
Cc1ccc(-c2nc(CCc3ccc(=O)[nH]c3)n(Cc3cccnc3)n2)cc1F

$$$$
