
     RDKit          3D

 48 50  0  0  0  0  0  0  0  0999 V2000
   10.4229    3.4450   23.8310 C   0  0  0  0  0  0  0  0  0  0  0  0
   10.8357    2.2763   22.9672 C   0  0  0  0  0  0  0  0  0  0  0  0
   12.1112    1.7152   23.1377 C   0  0  0  0  0  0  0  0  0  0  0  0
   12.5079    0.5733   22.4383 C   0  0  0  0  0  0  0  0  0  0  0  0
   11.6206   -0.0181   21.5320 C   0  0  0  0  0  0  0  0  0  0  0  0
   10.3660    0.5574   21.3124 C   0  0  0  0  0  0  0  0  0  0  0  0
    9.9548    1.6939   22.0272 C   0  0  0  0  0  0  0  0  0  0  0  0
    8.5248    2.1738   21.8582 C   0  0  0  0  0  0  0  0  0  0  0  0
    7.5310    1.3309   22.7034 C   0  0  0  0  0  0  0  0  0  0  0  0
    7.5070   -0.1197   22.3020 C   0  0  0  0  0  0  0  0  0  0  0  0
    7.9273   -1.1573   23.0092 N   0  0  0  0  0  0  0  0  0  0  0  0
    8.1267   -2.1164   22.0624 C   0  0  0  0  0  0  0  0  0  0  0  0
    8.7073   -3.4657   22.3462 C   0  0  0  0  0  0  0  0  0  0  0  0
    7.9200   -4.2893   23.3783 C   0  0  0  0  0  0  0  0  0  0  0  0
    8.7033   -5.5353   23.7977 C   0  0  0  0  0  0  0  0  0  0  0  0
    8.1792   -6.0881   24.5861 H   0  0  0  0  0  0  0  0  0  0  0  0
    8.8497   -6.2199   22.9513 H   0  0  0  0  0  0  0  0  0  0  0  0
    9.6929   -5.2697   24.1899 H   0  0  0  0  0  0  0  0  0  0  0  0
    6.5457   -4.6446   22.8065 C   0  0  0  0  0  0  0  0  0  0  0  0
    5.9304   -5.1755   23.5413 H   0  0  0  0  0  0  0  0  0  0  0  0
    6.6489   -5.2938   21.9252 H   0  0  0  0  0  0  0  0  0  0  0  0
    6.0062   -3.7440   22.4900 H   0  0  0  0  0  0  0  0  0  0  0  0
    7.7788   -3.6577   24.2673 H   0  0  0  0  0  0  0  0  0  0  0  0
    8.7343   -3.9945   21.3906 H   0  0  0  0  0  0  0  0  0  0  0  0
    9.7415   -3.3254   22.6822 H   0  0  0  0  0  0  0  0  0  0  0  0
    7.8114   -1.7580   20.8364 N   0  0  0  0  0  0  0  0  0  0  0  0
    7.3432   -0.4946   20.9960 N   0  0  0  0  0  0  0  0  0  0  0  0
    6.6473    0.1201   19.9240 C   0  0  0  0  0  0  0  0  0  0  0  0
    5.4388    0.8027   20.1214 C   0  0  0  0  0  0  0  0  0  0  0  0
    4.8389    1.3964   19.0043 C   0  0  0  0  0  0  0  0  0  0  0  0
    5.4673    1.3016   17.7594 C   0  0  0  0  0  0  0  0  0  0  0  0
    6.6093    0.6183   17.5619 N   0  0  0  0  0  0  0  0  0  0  0  0
    7.1658    0.0205   18.6206 C   0  0  0  0  0  0  0  0  0  0  0  0
    8.0590   -0.5759   18.4299 H   0  0  0  0  0  0  0  0  0  0  0  0
    5.0322    1.7715   16.8798 H   0  0  0  0  0  0  0  0  0  0  0  0
    3.8966    1.9254   19.0954 H   0  0  0  0  0  0  0  0  0  0  0  0
    4.9736    0.8406   21.1065 H   0  0  0  0  0  0  0  0  0  0  0  0
    7.8203    1.3757   23.7586 H   0  0  0  0  0  0  0  0  0  0  0  0
    6.5347    1.7685   22.6164 H   0  0  0  0  0  0  0  0  0  0  0  0
    8.4261    3.2360   22.1084 H   0  0  0  0  0  0  0  0  0  0  0  0
    8.2347    2.1036   20.8039 H   0  0  0  0  0  0  0  0  0  0  0  0
    9.6576    0.1056   20.6121 H   0  0  0  0  0  0  0  0  0  0  0  0
   11.8940   -0.9249   21.0019 H   0  0  0  0  0  0  0  0  0  0  0  0
   13.5033    0.1696   22.6146 H   0  0  0  0  0  0  0  0  0  0  0  0
   12.8048    2.1777   23.8357 H   0  0  0  0  0  0  0  0  0  0  0  0
   11.2495    3.8019   24.4525 H   0  0  0  0  0  0  0  0  0  0  0  0
   10.0620    4.2946   23.2385 H   0  0  0  0  0  0  0  0  0  0  0  0
    9.6105    3.1434   24.5043 H   0  0  0  0  0  0  0  0  0  0  0  0
  1  2  1  0
  2  3  2  0
  3  4  1  0
  4  5  2  0
  5  6  1  0
  6  7  2  0
  7  8  1  0
  8  9  1  0
  9 10  1  0
 10 11  2  0
 11 12  1  0
 12 13  1  0
 13 14  1  0
 14 15  1  0
 15 16  1  0
 15 17  1  0
 15 18  1  0
 14 19  1  0
 19 20  1  0
 19 21  1  0
 19 22  1  0
 14 23  1  0
 13 24  1  0
 13 25  1  0
 12 26  2  0
 26 27  1  0
 27 28  1  0
 28 29  2  0
 29 30  1  0
 30 31  2  0
 31 32  1  0
 32 33  2  0
 33 34  1  0
 31 35  1  0
 30 36  1  0
 29 37  1  0
  9 38  1  0
  9 39  1  0
  8 40  1  0
  8 41  1  0
  6 42  1  0
  5 43  1  0
  4 44  1  0
  3 45  1  0
  1 46  1  0
  1 47  1  0
  1 48  1  0
  7  2  1  0
 27 10  1  0
 33 28  1  0
M  END
>  <cnnaffinity>  (1) 
-6.13773

>  <filename>  (1) 
Cc1ccccc1CCc1nc(CC(C)C)nn1-c1cccnc1

$$$$
