
     RDKit          3D

 39 42  0  0  0  0  0  0  0  0999 V2000
   11.0021   -4.4148   24.9192 C   0  0  0  0  0  0  0  0  0  0  0  0
    9.7846   -4.6685   24.0859 C   0  0  0  0  0  0  0  0  0  0  0  0
    8.8589   -5.6521   24.2077 C   0  0  0  0  0  0  0  0  0  0  0  0
    7.8982   -5.5221   23.2810 O   0  0  0  0  0  0  0  0  0  0  0  0
    8.1796   -4.4189   22.5114 N   0  0  0  0  0  0  0  0  0  0  0  0
    9.2773   -3.8976   22.9951 C   0  0  0  0  0  0  0  0  0  0  0  0
    9.8168   -2.6085   22.4003 C   0  0  0  0  0  0  0  0  0  0  0  0
    8.7178   -1.6835   21.9893 C   0  0  0  0  0  0  0  0  0  0  0  0
    8.4705   -1.2251   20.7841 N   0  0  0  0  0  0  0  0  0  0  0  0
    7.2798   -0.5786   20.9396 C   0  0  0  0  0  0  0  0  0  0  0  0
    6.5657    0.0859   19.8539 C   0  0  0  0  0  0  0  0  0  0  0  0
    5.3352    0.7465   20.0421 C   0  0  0  0  0  0  0  0  0  0  0  0
    4.7717    1.3783   18.9383 C   0  0  0  0  0  0  0  0  0  0  0  0
    5.4418    1.3215   17.7103 C   0  0  0  0  0  0  0  0  0  0  0  0
    6.5990    0.6708   17.5214 N   0  0  0  0  0  0  0  0  0  0  0  0
    7.1442    0.0637   18.5798 C   0  0  0  0  0  0  0  0  0  0  0  0
    8.0827   -0.4648   18.4083 H   0  0  0  0  0  0  0  0  0  0  0  0
    5.0290    1.8177   16.8373 H   0  0  0  0  0  0  0  0  0  0  0  0
    3.8385    1.9233   19.0170 H   0  0  0  0  0  0  0  0  0  0  0  0
    4.8549    0.7658   21.0252 H   0  0  0  0  0  0  0  0  0  0  0  0
    6.7919   -0.6152   22.1632 N   0  0  0  0  0  0  0  0  0  0  0  0
    7.7422   -1.2889   22.8461 N   0  0  0  0  0  0  0  0  0  0  0  0
    7.5917   -1.6667   24.2084 C   0  0  0  0  0  0  0  0  0  0  0  0
    6.4153   -2.3143   24.5966 C   0  0  0  0  0  0  0  0  0  0  0  0
    6.3610   -2.9137   25.8476 C   0  0  0  0  0  0  0  0  0  0  0  0
    4.9175   -3.7618   26.3164 Cl  0  0  0  0  0  0  0  0  0  0  0  0
    7.4436   -2.8441   26.7231 C   0  0  0  0  0  0  0  0  0  0  0  0
    8.5756   -2.1122   26.3613 C   0  0  0  0  0  0  0  0  0  0  0  0
    8.6534   -1.5093   25.1068 C   0  0  0  0  0  0  0  0  0  0  0  0
    9.5161   -0.9153   24.8335 H   0  0  0  0  0  0  0  0  0  0  0  0
    9.4011   -2.0228   27.0607 H   0  0  0  0  0  0  0  0  0  0  0  0
    7.4036   -3.3664   27.6624 H   0  0  0  0  0  0  0  0  0  0  0  0
    5.5741   -2.3996   23.9178 H   0  0  0  0  0  0  0  0  0  0  0  0
   10.4758   -2.1179   23.1228 H   0  0  0  0  0  0  0  0  0  0  0  0
   10.4128   -2.8012   21.5127 H   0  0  0  0  0  0  0  0  0  0  0  0
    8.7494   -6.4919   24.8832 H   0  0  0  0  0  0  0  0  0  0  0  0
   11.3451   -5.3191   25.4252 H   0  0  0  0  0  0  0  0  0  0  0  0
   11.8362   -4.0236   24.3308 H   0  0  0  0  0  0  0  0  0  0  0  0
   10.7582   -3.6786   25.6857 H   0  0  0  0  0  0  0  0  0  0  0  0
  1  2  1  0
  2  3  2  0
  3  4  1  0
  4  5  1  0
  5  6  2  0
  6  7  1  0
  7  8  1  0
  8  9  2  0
  9 10  1  0
 10 11  1  0
 11 12  2  0
 12 13  1  0
 13 14  2  0
 14 15  1  0
 15 16  2  0
 16 17  1  0
 14 18  1  0
 13 19  1  0
 12 20  1  0
 10 21  2  0
 21 22  1  0
 22 23  1  0
 23 24  2  0
 24 25  1  0
 25 26  1  0
 25 27  2  0
 27 28  1  0
 28 29  2  0
 29 30  1  0
 28 31  1  0
 27 32  1  0
 24 33  1  0
  7 34  1  0
  7 35  1  0
  3 36  1  0
  1 37  1  0
  1 38  1  0
  1 39  1  0
  6  2  1  0
 22  8  1  0
 29 23  1  0
 16 11  1  0
M  END
>  <cnnaffinity>  (1) 
-6.40717

>  <filename>  (1) 
Cc1conc1Cc1nc(-c2cccnc2)nn1-c1cccc(Cl)c1

$$$$
