
     RDKit          3D

 46 49  0  0  0  0  0  0  0  0999 V2000
   16.0212   -0.2779   19.6613 C   0  0  0  0  0  0  0  0  0  0  0  0
   14.7077   -0.7444   20.5866 C   0  0  0  0  0  0  0  0  0  0  0  0
   13.7923   -1.7688   20.4264 C   0  0  0  0  0  0  0  0  0  0  0  0
   12.4709   -1.3920   20.7997 C   0  0  0  0  0  0  0  0  0  0  0  0
   12.1448   -0.4357   21.7812 C   0  0  0  0  0  0  0  0  0  0  0  0
   10.6957   -0.0509   21.8677 C   0  0  0  0  0  0  0  0  0  0  0  0
    9.7629   -0.7862   21.2659 N   0  0  0  0  0  0  0  0  0  0  0  0
    8.6153   -0.1051   21.4813 N   0  0  0  0  0  0  0  0  0  0  0  0
    7.3259   -0.6691   21.0613 C   0  0  0  0  0  0  0  0  0  0  0  0
    6.5993    0.0645   19.9449 C   0  0  0  0  0  0  0  0  0  0  0  0
    5.3587    0.6969   20.1174 C   0  0  0  0  0  0  0  0  0  0  0  0
    4.7636    1.3414   19.0278 C   0  0  0  0  0  0  0  0  0  0  0  0
    5.4259    1.3228   17.7970 C   0  0  0  0  0  0  0  0  0  0  0  0
    6.5978    0.6995   17.6014 N   0  0  0  0  0  0  0  0  0  0  0  0
    7.1572    0.0932   18.6549 C   0  0  0  0  0  0  0  0  0  0  0  0
    8.0970   -0.4206   18.4643 H   0  0  0  0  0  0  0  0  0  0  0  0
    4.9962    1.8190   16.9281 H   0  0  0  0  0  0  0  0  0  0  0  0
    3.8170    1.8645   19.1172 H   0  0  0  0  0  0  0  0  0  0  0  0
    4.8547    0.6878   21.0881 H   0  0  0  0  0  0  0  0  0  0  0  0
    7.5535   -1.6951   20.7562 H   0  0  0  0  0  0  0  0  0  0  0  0
    6.6802   -0.7284   21.9452 H   0  0  0  0  0  0  0  0  0  0  0  0
    8.8947    1.0019   22.2017 C   0  0  0  0  0  0  0  0  0  0  0  0
    7.8441    1.8184   22.8894 C   0  0  0  0  0  0  0  0  0  0  0  0
    7.6245    1.1839   24.2264 C   0  0  0  0  0  0  0  0  0  0  0  0
    8.5124    1.1472   25.2591 C   0  0  0  0  0  0  0  0  0  0  0  0
    7.9631    0.2748   26.1750 N   0  0  0  0  0  0  0  0  0  0  0  0
    6.7811   -0.1680   25.6598 C   0  0  0  0  0  0  0  0  0  0  0  0
    5.9179   -1.1507   26.3727 C   0  0  0  0  0  0  0  0  0  0  0  0
    6.2776   -2.1734   26.2139 H   0  0  0  0  0  0  0  0  0  0  0  0
    5.9116   -0.9600   27.4500 H   0  0  0  0  0  0  0  0  0  0  0  0
    4.8967   -1.0844   25.9939 H   0  0  0  0  0  0  0  0  0  0  0  0
    6.5601    0.3575   24.4730 N   0  0  0  0  0  0  0  0  0  0  0  0
    8.3654   -0.0336   27.0428 H   0  0  0  0  0  0  0  0  0  0  0  0
    9.5054    1.5710   25.3069 H   0  0  0  0  0  0  0  0  0  0  0  0
    6.8988    1.8384   22.3394 H   0  0  0  0  0  0  0  0  0  0  0  0
    8.2116    2.8413   22.9902 H   0  0  0  0  0  0  0  0  0  0  0  0
   10.1931    1.0728   22.4518 N   0  0  0  0  0  0  0  0  0  0  0  0
   13.2283    0.2777   22.3196 C   0  0  0  0  0  0  0  0  0  0  0  0
   14.4811    0.1251   21.7215 C   0  0  0  0  0  0  0  0  0  0  0  0
   15.2748    0.7903   22.0373 H   0  0  0  0  0  0  0  0  0  0  0  0
   13.1185    1.0265   23.0974 H   0  0  0  0  0  0  0  0  0  0  0  0
   12.0314   -0.9536   19.9261 H   0  0  0  0  0  0  0  0  0  0  0  0
   13.9725   -2.6357   19.7972 H   0  0  0  0  0  0  0  0  0  0  0  0
   16.3871    0.6008   20.1658 H   0  0  0  0  0  0  0  0  0  0  0  0
   15.9524    0.1556   18.6533 H   0  0  0  0  0  0  0  0  0  0  0  0
   16.8139   -1.0219   19.6624 H   0  0  0  0  0  0  0  0  0  0  0  0
  1  2  1  0
  2  3  2  0
  3  4  1  0
  4  5  2  0
  5  6  1  0
  6  7  2  0
  7  8  1  0
  8  9  1  0
  9 10  1  0
 10 11  2  0
 11 12  1  0
 12 13  2  0
 13 14  1  0
 14 15  2  0
 15 16  1  0
 13 17  1  0
 12 18  1  0
 11 19  1  0
  9 20  1  0
  9 21  1  0
  8 22  1  0
 22 23  1  0
 23 24  1  0
 24 25  2  0
 25 26  1  0
 26 27  1  0
 27 28  1  0
 28 29  1  0
 28 30  1  0
 28 31  1  0
 27 32  2  0
 26 33  1  0
 25 34  1  0
 23 35  1  0
 23 36  1  0
 22 37  2  0
  5 38  1  0
 38 39  2  0
 39 40  1  0
 38 41  1  0
  4 42  1  0
  3 43  1  0
  1 44  1  0
  1 45  1  0
  1 46  1  0
 39  2  1  0
 37  6  1  0
 15 10  1  0
 32 24  1  0
M  END
>  <cnnaffinity>  (1) 
-6.47299

>  <filename>  (1) 
Cc1ccc(-c2nc(Cc3c[nH]c(C)n3)n(Cc3cccnc3)n2)cc1

$$$$
