
     RDKit          3D

 44 47  0  0  0  0  0  0  0  0999 V2000
    8.3084    2.7548   22.0513 C   0  0  0  0  0  0  0  0  0  0  0  0
    9.6650    2.2765   22.5027 C   0  0  0  0  0  0  0  0  0  0  0  0
   10.3234    2.9195   23.5558 C   0  0  0  0  0  0  0  0  0  0  0  0
   11.5654    2.4454   23.9872 C   0  0  0  0  0  0  0  0  0  0  0  0
   12.1804    1.3982   23.4344 N   0  0  0  0  0  0  0  0  0  0  0  0
   11.5572    0.7904   22.4178 C   0  0  0  0  0  0  0  0  0  0  0  0
   10.3125    1.1778   21.9026 C   0  0  0  0  0  0  0  0  0  0  0  0
    9.6245    0.3435   20.8388 C   0  0  0  0  0  0  0  0  0  0  0  0
    8.5958   -0.5859   21.3905 C   0  0  0  0  0  0  0  0  0  0  0  0
    8.8331   -1.4531   22.3479 N   0  0  0  0  0  0  0  0  0  0  0  0
    7.6299   -2.0533   22.5331 C   0  0  0  0  0  0  0  0  0  0  0  0
    7.4168   -3.0644   23.5781 C   0  0  0  0  0  0  0  0  0  0  0  0
    8.4667   -3.4610   24.4388 C   0  0  0  0  0  0  0  0  0  0  0  0
    8.2439   -4.4175   25.4223 C   0  0  0  0  0  0  0  0  0  0  0  0
    6.9705   -4.9945   25.5705 C   0  0  0  0  0  0  0  0  0  0  0  0
    6.7485   -5.9318   26.5347 N   0  0  0  0  0  0  0  0  0  0  0  0
    5.8387   -6.3391   26.6320 H   0  0  0  0  0  0  0  0  0  0  0  0
    7.5003   -6.2257   27.1296 H   0  0  0  0  0  0  0  0  0  0  0  0
    5.9216   -4.5986   24.7232 C   0  0  0  0  0  0  0  0  0  0  0  0
    6.1403   -3.6428   23.7424 C   0  0  0  0  0  0  0  0  0  0  0  0
    5.3259   -3.3233   23.0914 H   0  0  0  0  0  0  0  0  0  0  0  0
    4.9474   -5.0557   24.8622 H   0  0  0  0  0  0  0  0  0  0  0  0
    9.0327   -4.7420   26.0956 H   0  0  0  0  0  0  0  0  0  0  0  0
    9.4567   -3.0138   24.3353 H   0  0  0  0  0  0  0  0  0  0  0  0
    6.6763   -1.6281   21.7127 N   0  0  0  0  0  0  0  0  0  0  0  0
    7.3132   -0.7095   20.9491 N   0  0  0  0  0  0  0  0  0  0  0  0
    6.6353   -0.0230   19.8992 C   0  0  0  0  0  0  0  0  0  0  0  0
    5.4309    0.6336   20.1597 C   0  0  0  0  0  0  0  0  0  0  0  0
    4.8080    1.3129   19.1075 C   0  0  0  0  0  0  0  0  0  0  0  0
    5.3968    1.2964   17.8373 C   0  0  0  0  0  0  0  0  0  0  0  0
    6.5476    0.6602   17.5770 N   0  0  0  0  0  0  0  0  0  0  0  0
    7.1517    0.0264   18.5900 C   0  0  0  0  0  0  0  0  0  0  0  0
    8.1023   -0.4473   18.3535 H   0  0  0  0  0  0  0  0  0  0  0  0
    4.9312    1.8035   16.9942 H   0  0  0  0  0  0  0  0  0  0  0  0
    3.8775    1.8473   19.2562 H   0  0  0  0  0  0  0  0  0  0  0  0
    5.0117    0.6013   21.1663 H   0  0  0  0  0  0  0  0  0  0  0  0
    9.1659    0.9906   20.0895 H   0  0  0  0  0  0  0  0  0  0  0  0
   10.3458   -0.3118   20.3454 H   0  0  0  0  0  0  0  0  0  0  0  0
   12.0666   -0.0813   21.9977 H   0  0  0  0  0  0  0  0  0  0  0  0
   12.0836    2.9296   24.8137 H   0  0  0  0  0  0  0  0  0  0  0  0
    9.8685    3.7746   24.0421 H   0  0  0  0  0  0  0  0  0  0  0  0
    7.9654    3.5998   22.6548 H   0  0  0  0  0  0  0  0  0  0  0  0
    8.3548    3.0765   21.0099 H   0  0  0  0  0  0  0  0  0  0  0  0
    7.5486    1.9651   22.1070 H   0  0  0  0  0  0  0  0  0  0  0  0
  1  2  1  0
  2  3  2  0
  3  4  1  0
  4  5  2  0
  5  6  1  0
  6  7  2  0
  7  8  1  0
  8  9  1  0
  9 10  2  0
 10 11  1  0
 11 12  1  0
 12 13  2  0
 13 14  1  0
 14 15  2  0
 15 16  1  0
 16 17  1  0
 16 18  1  0
 15 19  1  0
 19 20  2  0
 20 21  1  0
 19 22  1  0
 14 23  1  0
 13 24  1  0
 11 25  2  0
 25 26  1  0
 26 27  1  0
 27 28  2  0
 28 29  1  0
 29 30  2  0
 30 31  1  0
 31 32  2  0
 32 33  1  0
 30 34  1  0
 29 35  1  0
 28 36  1  0
  8 37  1  0
  8 38  1  0
  6 39  1  0
  4 40  1  0
  3 41  1  0
  1 42  1  0
  1 43  1  0
  1 44  1  0
  7  2  1  0
 26  9  1  0
 32 27  1  0
 20 12  1  0
M  END
>  <cnnaffinity>  (1) 
-6.064

>  <filename>  (1) 
Cc1ccncc1Cc1nc(-c2ccc(N)cc2)nn1-c1cccnc1

$$$$
