
     RDKit          3D

 54 57  0  0  0  0  0  0  0  0999 V2000
    5.8026    7.1038   23.8396 C   0  0  0  0  0  0  0  0  0  0  0  0
    6.4301    5.8595   23.2402 C   0  0  0  0  0  0  0  0  0  0  0  0
    5.7592    5.1305   22.2523 C   0  0  0  0  0  0  0  0  0  0  0  0
    6.3068    3.9797   21.6779 C   0  0  0  0  0  0  0  0  0  0  0  0
    7.5681    3.5247   22.0891 C   0  0  0  0  0  0  0  0  0  0  0  0
    8.0298    2.3840   21.4869 O   0  0  0  0  0  0  0  0  0  0  0  0
    9.3189    1.8685   21.8021 C   0  0  0  0  0  0  0  0  0  0  0  0
    9.5204    0.5881   20.9916 C   0  0  0  0  0  0  0  0  0  0  0  0
    8.5990   -0.4994   21.4116 C   0  0  0  0  0  0  0  0  0  0  0  0
    8.8312   -1.3425   22.3950 N   0  0  0  0  0  0  0  0  0  0  0  0
    7.6473   -2.0056   22.5195 C   0  0  0  0  0  0  0  0  0  0  0  0
    7.4285   -3.0481   23.5778 C   0  0  0  0  0  0  0  0  0  0  0  0
    7.5687   -2.4698   25.0092 C   0  0  0  0  0  0  0  0  0  0  0  0
    7.3661   -3.5671   26.0861 C   0  0  0  0  0  0  0  0  0  0  0  0
    7.3713   -4.8813   25.5552 O   0  0  0  0  0  0  0  0  0  0  0  0
    8.4757   -5.1025   24.7026 C   0  0  0  0  0  0  0  0  0  0  0  0
    8.3736   -4.2695   23.4038 C   0  0  0  0  0  0  0  0  0  0  0  0
    7.9955   -4.8955   22.5877 H   0  0  0  0  0  0  0  0  0  0  0  0
    9.3768   -3.9345   23.1165 H   0  0  0  0  0  0  0  0  0  0  0  0
    8.4940   -6.1740   24.4915 H   0  0  0  0  0  0  0  0  0  0  0  0
    9.4087   -4.8584   25.2394 H   0  0  0  0  0  0  0  0  0  0  0  0
    6.3980   -3.4681   26.5832 H   0  0  0  0  0  0  0  0  0  0  0  0
    8.1495   -3.4839   26.8595 H   0  0  0  0  0  0  0  0  0  0  0  0
    6.8456   -1.6622   25.1679 H   0  0  0  0  0  0  0  0  0  0  0  0
    8.5635   -2.0191   25.1166 H   0  0  0  0  0  0  0  0  0  0  0  0
    6.3978   -3.3877   23.4497 H   0  0  0  0  0  0  0  0  0  0  0  0
    6.7157   -1.6335   21.6663 N   0  0  0  0  0  0  0  0  0  0  0  0
    7.3396   -0.6776   20.9286 N   0  0  0  0  0  0  0  0  0  0  0  0
    6.6540    0.0103   19.8962 C   0  0  0  0  0  0  0  0  0  0  0  0
    5.4357    0.6434   20.1623 C   0  0  0  0  0  0  0  0  0  0  0  0
    4.8082    1.3076   19.1059 C   0  0  0  0  0  0  0  0  0  0  0  0
    5.3980    1.2948   17.8363 C   0  0  0  0  0  0  0  0  0  0  0  0
    6.5557    0.6701   17.5710 N   0  0  0  0  0  0  0  0  0  0  0  0
    7.1663    0.0544   18.5896 C   0  0  0  0  0  0  0  0  0  0  0  0
    8.1123   -0.4319   18.3621 H   0  0  0  0  0  0  0  0  0  0  0  0
    4.9203    1.7874   16.9941 H   0  0  0  0  0  0  0  0  0  0  0  0
    3.8785    1.8426   19.2556 H   0  0  0  0  0  0  0  0  0  0  0  0
    5.0201    0.6141   21.1742 H   0  0  0  0  0  0  0  0  0  0  0  0
   10.5390    0.2262   21.1365 H   0  0  0  0  0  0  0  0  0  0  0  0
    9.4036    0.8028   19.9311 H   0  0  0  0  0  0  0  0  0  0  0  0
    9.3815    1.6266   22.8712 H   0  0  0  0  0  0  0  0  0  0  0  0
   10.1048    2.5974   21.5592 H   0  0  0  0  0  0  0  0  0  0  0  0
    8.2566    4.2491   23.0741 C   0  0  0  0  0  0  0  0  0  0  0  0
    7.7039    5.4062   23.6492 C   0  0  0  0  0  0  0  0  0  0  0  0
    8.4734    6.1567   24.7114 C   0  0  0  0  0  0  0  0  0  0  0  0
    8.5953    7.2172   24.4630 H   0  0  0  0  0  0  0  0  0  0  0  0
    9.4703    5.7383   24.8580 H   0  0  0  0  0  0  0  0  0  0  0  0
    7.9638    6.1304   25.6817 H   0  0  0  0  0  0  0  0  0  0  0  0
    9.2380    3.9215   23.4021 H   0  0  0  0  0  0  0  0  0  0  0  0
    5.7742    3.4392   20.9041 H   0  0  0  0  0  0  0  0  0  0  0  0
    4.7834    5.4875   21.9263 H   0  0  0  0  0  0  0  0  0  0  0  0
    5.7509    7.0563   24.9341 H   0  0  0  0  0  0  0  0  0  0  0  0
    6.3743    8.0099   23.6029 H   0  0  0  0  0  0  0  0  0  0  0  0
    4.7842    7.2673   23.4764 H   0  0  0  0  0  0  0  0  0  0  0  0
  1  2  1  0
  2  3  2  0
  3  4  1  0
  4  5  2  0
  5  6  1  0
  6  7  1  0
  7  8  1  0
  8  9  1  0
  9 10  2  0
 10 11  1  0
 11 12  1  0
 12 13  1  0
 13 14  1  0
 14 15  1  0
 15 16  1  0
 16 17  1  0
 17 18  1  0
 17 19  1  0
 16 20  1  0
 16 21  1  0
 14 22  1  0
 14 23  1  0
 13 24  1  0
 13 25  1  0
 12 26  1  0
 11 27  2  0
 27 28  1  0
 28 29  1  0
 29 30  2  0
 30 31  1  0
 31 32  2  0
 32 33  1  0
 33 34  2  0
 34 35  1  0
 32 36  1  0
 31 37  1  0
 30 38  1  0
  8 39  1  0
  8 40  1  0
  7 41  1  0
  7 42  1  0
  5 43  1  0
 43 44  2  0
 44 45  1  0
 45 46  1  0
 45 47  1  0
 45 48  1  0
 43 49  1  0
  4 50  1  0
  3 51  1  0
  1 52  1  0
  1 53  1  0
  1 54  1  0
 44  2  1  0
 28  9  1  0
 34 29  1  0
 17 12  1  0
M  END
>  <cnnaffinity>  (1) 
-6.01646

>  <filename>  (1) 
Cc1ccc(OCCc2nc(C3CCOCC3)nn2-c2cccnc2)cc1C

$$$$
