
     RDKit          3D

 38 41  0  0  0  0  0  0  0  0999 V2000
    5.0285    1.8434   16.8571 H   0  0  0  0  0  0  0  0  0  0  0  0
    5.4448    1.2920   17.6980 C   0  0  0  0  0  0  0  0  0  0  0  0
    6.5829    0.6195   17.4660 N   0  0  0  0  0  0  0  0  0  0  0  0
    7.1452   -0.0274   18.4924 C   0  0  0  0  0  0  0  0  0  0  0  0
    8.0636   -0.5670   18.2686 H   0  0  0  0  0  0  0  0  0  0  0  0
    6.6202   -0.0297   19.7982 C   0  0  0  0  0  0  0  0  0  0  0  0
    7.3768   -0.6354   20.9104 C   0  0  0  0  0  0  0  0  0  0  0  0
    8.5626   -1.2275   20.6899 N   0  0  0  0  0  0  0  0  0  0  0  0
    8.9540   -1.5857   21.9310 N   0  0  0  0  0  0  0  0  0  0  0  0
   10.0495   -2.2420   22.4789 C   0  0  0  0  0  0  0  0  0  0  0  0
   10.8489   -2.6093   21.8563 H   0  0  0  0  0  0  0  0  0  0  0  0
    9.8373   -2.2432   23.8181 C   0  0  0  0  0  0  0  0  0  0  0  0
   10.4248   -2.6774   24.6113 H   0  0  0  0  0  0  0  0  0  0  0  0
    8.6246   -1.6141   24.1108 N   0  0  0  0  0  0  0  0  0  0  0  0
    8.2963   -0.9202   25.3599 C   0  0  0  0  0  0  0  0  0  0  0  0
    8.8151   -1.4331   26.1784 H   0  0  0  0  0  0  0  0  0  0  0  0
    7.2181   -1.0008   25.5360 H   0  0  0  0  0  0  0  0  0  0  0  0
    8.6897    0.5469   25.2973 C   0  0  0  0  0  0  0  0  0  0  0  0
   10.0454    0.9016   25.2581 C   0  0  0  0  0  0  0  0  0  0  0  0
   10.8171    0.1496   25.4098 H   0  0  0  0  0  0  0  0  0  0  0  0
   10.4367    2.2222   25.0461 C   0  0  0  0  0  0  0  0  0  0  0  0
   11.4990    2.4543   24.9910 H   0  0  0  0  0  0  0  0  0  0  0  0
    9.4808    3.2451   24.9247 C   0  0  0  0  0  0  0  0  0  0  0  0
    9.8842    4.6944   24.7804 C   0  0  0  0  0  0  0  0  0  0  0  0
    9.0440    5.3534   25.0150 H   0  0  0  0  0  0  0  0  0  0  0  0
   10.2279    4.9418   23.7688 H   0  0  0  0  0  0  0  0  0  0  0  0
   10.6940    4.9557   25.4666 H   0  0  0  0  0  0  0  0  0  0  0  0
    8.1256    2.8865   24.9538 C   0  0  0  0  0  0  0  0  0  0  0  0
    7.3716    3.6585   24.8229 H   0  0  0  0  0  0  0  0  0  0  0  0
    7.7294    1.5545   25.1305 C   0  0  0  0  0  0  0  0  0  0  0  0
    6.6688    1.2968   25.1406 H   0  0  0  0  0  0  0  0  0  0  0  0
    8.0831   -1.2323   22.8995 C   0  0  0  0  0  0  0  0  0  0  0  0
    7.0036   -0.6287   22.2767 C   0  0  0  0  0  0  0  0  0  0  0  0
    6.0840   -0.2738   22.7083 H   0  0  0  0  0  0  0  0  0  0  0  0
    5.3952    0.6275   20.0023 C   0  0  0  0  0  0  0  0  0  0  0  0
    4.9138    0.6073   20.9796 H   0  0  0  0  0  0  0  0  0  0  0  0
    4.8058    1.3076   18.9408 C   0  0  0  0  0  0  0  0  0  0  0  0
    3.8798    1.8584   19.0658 H   0  0  0  0  0  0  0  0  0  0  0  0
  1  2  1  0
  2  3  2  0
  3  4  1  0
  4  5  1  0
  4  6  2  0
  6  7  1  0
  7  8  2  0
  8  9  1  0
  9 10  1  0
 10 11  1  0
 10 12  2  0
 12 13  1  0
 12 14  1  0
 14 15  1  0
 15 16  1  0
 15 17  1  0
 15 18  1  0
 18 19  2  0
 19 20  1  0
 19 21  1  0
 21 22  1  0
 21 23  2  0
 23 24  1  0
 24 25  1  0
 24 26  1  0
 24 27  1  0
 23 28  1  0
 28 29  1  0
 28 30  2  0
 30 31  1  0
 14 32  1  0
 32 33  2  0
 33 34  1  0
  6 35  1  0
 35 36  1  0
 35 37  2  0
 37 38  1  0
 37  2  1  0
 33  7  1  0
 32  9  1  0
 30 18  1  0
M  END
>  <cnnaffinity>  (1) 
-5.66194

>  <filename>  (1) 
Cc1ccc(Cn2ccn3nc(-c4cccnc4)cc23)cc1

$$$$
