
     RDKit          3D

 45 48  0  0  0  0  0  0  0  0999 V2000
    4.9329    4.5360   27.8041 C   0  0  0  0  0  0  0  0  0  0  0  0
    5.2018    3.4851   26.7823 C   0  0  0  0  0  0  0  0  0  0  0  0
    6.3423    3.1197   26.1532 C   0  0  0  0  0  0  0  0  0  0  0  0
    5.9434    2.0484   25.3066 C   0  0  0  0  0  0  0  0  0  0  0  0
    6.8309    1.2081   24.4487 C   0  0  0  0  0  0  0  0  0  0  0  0
    7.1309    1.6826   22.9992 C   0  0  0  0  0  0  0  0  0  0  0  0
    8.1471    0.7638   22.4101 C   0  0  0  0  0  0  0  0  0  0  0  0
    9.4225    0.8157   22.7451 N   0  0  0  0  0  0  0  0  0  0  0  0
    9.9259   -0.3370   22.2484 C   0  0  0  0  0  0  0  0  0  0  0  0
   11.3739   -0.6301   22.2095 C   0  0  0  0  0  0  0  0  0  0  0  0
   12.3290    0.3475   22.5516 C   0  0  0  0  0  0  0  0  0  0  0  0
   13.6442    0.1539   22.1466 C   0  0  0  0  0  0  0  0  0  0  0  0
   14.5590    1.0733   22.4796 F   0  0  0  0  0  0  0  0  0  0  0  0
   14.0059   -0.9501   21.3709 C   0  0  0  0  0  0  0  0  0  0  0  0
   13.0749   -1.9478   21.1310 C   0  0  0  0  0  0  0  0  0  0  0  0
   11.7781   -1.8348   21.6146 C   0  0  0  0  0  0  0  0  0  0  0  0
   11.0209   -2.6022   21.5033 H   0  0  0  0  0  0  0  0  0  0  0  0
   13.3935   -2.7486   20.4756 H   0  0  0  0  0  0  0  0  0  0  0  0
   14.9140   -1.0154   20.8071 H   0  0  0  0  0  0  0  0  0  0  0  0
   12.0373    1.2701   23.0458 H   0  0  0  0  0  0  0  0  0  0  0  0
    9.0257   -1.1007   21.6416 N   0  0  0  0  0  0  0  0  0  0  0  0
    7.8963   -0.3683   21.7210 N   0  0  0  0  0  0  0  0  0  0  0  0
    6.6807   -0.8119   21.0523 C   0  0  0  0  0  0  0  0  0  0  0  0
    6.2351    0.0502   19.8835 C   0  0  0  0  0  0  0  0  0  0  0  0
    5.0198    0.7456   19.8963 C   0  0  0  0  0  0  0  0  0  0  0  0
    4.6397    1.4596   18.7585 C   0  0  0  0  0  0  0  0  0  0  0  0
    5.4916    1.4597   17.6511 C   0  0  0  0  0  0  0  0  0  0  0  0
    6.6655    0.8093   17.6202 N   0  0  0  0  0  0  0  0  0  0  0  0
    7.0273    0.1418   18.7234 C   0  0  0  0  0  0  0  0  0  0  0  0
    7.9963   -0.3582   18.6766 H   0  0  0  0  0  0  0  0  0  0  0  0
    5.2159    2.0000   16.7474 H   0  0  0  0  0  0  0  0  0  0  0  0
    3.7145    2.0238   18.7258 H   0  0  0  0  0  0  0  0  0  0  0  0
    4.3820    0.7326   20.7850 H   0  0  0  0  0  0  0  0  0  0  0  0
    6.8949   -1.8331   20.7309 H   0  0  0  0  0  0  0  0  0  0  0  0
    5.8853   -0.8835   21.8002 H   0  0  0  0  0  0  0  0  0  0  0  0
    6.2350    1.7245   22.3726 H   0  0  0  0  0  0  0  0  0  0  0  0
    7.5838    2.6771   22.9933 H   0  0  0  0  0  0  0  0  0  0  0  0
    7.8015    1.1362   24.9560 H   0  0  0  0  0  0  0  0  0  0  0  0
    6.4239    0.1899   24.4065 H   0  0  0  0  0  0  0  0  0  0  0  0
    4.6632    1.8073   25.4193 N   0  0  0  0  0  0  0  0  0  0  0  0
    4.1902    2.7205   26.3448 O   0  0  0  0  0  0  0  0  0  0  0  0
    7.3282    3.5458   26.2592 H   0  0  0  0  0  0  0  0  0  0  0  0
    4.8565    5.5177   27.3265 H   0  0  0  0  0  0  0  0  0  0  0  0
    4.0204    4.3389   28.3692 H   0  0  0  0  0  0  0  0  0  0  0  0
    5.7783    4.5904   28.4935 H   0  0  0  0  0  0  0  0  0  0  0  0
  1  2  1  0
  2  3  2  0
  3  4  1  0
  4  5  1  0
  5  6  1  0
  6  7  1  0
  7  8  2  0
  8  9  1  0
  9 10  1  0
 10 11  2  0
 11 12  1  0
 12 13  1  0
 12 14  2  0
 14 15  1  0
 15 16  2  0
 16 17  1  0
 15 18  1  0
 14 19  1  0
 11 20  1  0
  9 21  2  0
 21 22  1  0
 22 23  1  0
 23 24  1  0
 24 25  2  0
 25 26  1  0
 26 27  2  0
 27 28  1  0
 28 29  2  0
 29 30  1  0
 27 31  1  0
 26 32  1  0
 25 33  1  0
 23 34  1  0
 23 35  1  0
  6 36  1  0
  6 37  1  0
  5 38  1  0
  5 39  1  0
  4 40  2  0
 40 41  1  0
  3 42  1  0
  1 43  1  0
  1 44  1  0
  1 45  1  0
 41  2  1  0
 22  7  1  0
 29 24  1  0
 16 10  1  0
M  END
>  <cnnaffinity>  (1) 
-6.50606

>  <filename>  (1) 
Cc1cc(CCc2nc(-c3cccc(F)c3)nn2Cc2cccnc2)no1

$$$$
