
     RDKit          3D

 45 48  0  0  0  0  0  0  0  0999 V2000
    8.2707    2.7382   22.0679 C   0  0  0  0  0  0  0  0  0  0  0  0
    9.6353    2.2659   22.5056 C   0  0  0  0  0  0  0  0  0  0  0  0
   10.3148    2.8940   23.5573 C   0  0  0  0  0  0  0  0  0  0  0  0
   11.5120    2.5292   24.0314 N   0  0  0  0  0  0  0  0  0  0  0  0
   12.0951    1.4799   23.4478 C   0  0  0  0  0  0  0  0  0  0  0  0
   11.5267    0.7799   22.3856 C   0  0  0  0  0  0  0  0  0  0  0  0
   10.2906    1.1869   21.8890 C   0  0  0  0  0  0  0  0  0  0  0  0
    9.6214    0.3782   20.8092 C   0  0  0  0  0  0  0  0  0  0  0  0
    8.6205   -0.5644   21.3670 C   0  0  0  0  0  0  0  0  0  0  0  0
    8.8650   -1.4406   22.3239 N   0  0  0  0  0  0  0  0  0  0  0  0
    7.6605   -2.0326   22.5026 C   0  0  0  0  0  0  0  0  0  0  0  0
    7.3985   -3.0452   23.5814 C   0  0  0  0  0  0  0  0  0  0  0  0
    6.4210   -2.5224   24.6490 C   0  0  0  0  0  0  0  0  0  0  0  0
    6.2770   -3.2646   25.4408 H   0  0  0  0  0  0  0  0  0  0  0  0
    5.4494   -2.3119   24.1931 H   0  0  0  0  0  0  0  0  0  0  0  0
    6.7934   -1.5984   25.1041 H   0  0  0  0  0  0  0  0  0  0  0  0
    6.9260   -4.3599   22.9769 C   0  0  0  0  0  0  0  0  0  0  0  0
    7.2368   -5.6454   23.6738 C   0  0  0  0  0  0  0  0  0  0  0  0
    7.9424   -5.2882   22.3924 C   0  0  0  0  0  0  0  0  0  0  0  0
    7.7043   -5.8478   21.4910 H   0  0  0  0  0  0  0  0  0  0  0  0
    8.9825   -4.9836   22.4650 H   0  0  0  0  0  0  0  0  0  0  0  0
    7.8059   -5.5891   24.5999 H   0  0  0  0  0  0  0  0  0  0  0  0
    6.4973   -6.4380   23.6468 H   0  0  0  0  0  0  0  0  0  0  0  0
    5.9667   -4.2930   22.4665 H   0  0  0  0  0  0  0  0  0  0  0  0
    8.3715   -3.2173   24.0542 H   0  0  0  0  0  0  0  0  0  0  0  0
    6.7025   -1.6047   21.6981 N   0  0  0  0  0  0  0  0  0  0  0  0
    7.3383   -0.6888   20.9283 N   0  0  0  0  0  0  0  0  0  0  0  0
    6.6457   -0.0031   19.8967 C   0  0  0  0  0  0  0  0  0  0  0  0
    5.4357    0.6424   20.1648 C   0  0  0  0  0  0  0  0  0  0  0  0
    4.8111    1.3125   19.1102 C   0  0  0  0  0  0  0  0  0  0  0  0
    5.3987    1.2968   17.8388 C   0  0  0  0  0  0  0  0  0  0  0  0
    6.5561    0.6721   17.5757 N   0  0  0  0  0  0  0  0  0  0  0  0
    7.1628    0.0457   18.5892 C   0  0  0  0  0  0  0  0  0  0  0  0
    8.1138   -0.4332   18.3649 H   0  0  0  0  0  0  0  0  0  0  0  0
    4.9188    1.7858   16.9952 H   0  0  0  0  0  0  0  0  0  0  0  0
    3.8801    1.8412   19.2614 H   0  0  0  0  0  0  0  0  0  0  0  0
    5.0142    0.6108   21.1736 H   0  0  0  0  0  0  0  0  0  0  0  0
    9.1610    1.0381   20.0730 H   0  0  0  0  0  0  0  0  0  0  0  0
   10.3453   -0.2705   20.3196 H   0  0  0  0  0  0  0  0  0  0  0  0
   12.0275   -0.0812   21.9606 H   0  0  0  0  0  0  0  0  0  0  0  0
   13.0635    1.1844   23.8410 H   0  0  0  0  0  0  0  0  0  0  0  0
    9.8471    3.7489   24.0426 H   0  0  0  0  0  0  0  0  0  0  0  0
    7.5148    1.9473   22.1403 H   0  0  0  0  0  0  0  0  0  0  0  0
    8.2962    3.0423   21.0218 H   0  0  0  0  0  0  0  0  0  0  0  0
    7.9199    3.5928   22.6525 H   0  0  0  0  0  0  0  0  0  0  0  0
  1  2  1  0
  2  3  2  0
  3  4  1  0
  4  5  2  0
  5  6  1  0
  6  7  2  0
  7  8  1  0
  8  9  1  0
  9 10  2  0
 10 11  1  0
 11 12  1  0
 12 13  1  0
 13 14  1  0
 13 15  1  0
 13 16  1  0
 12 17  1  0
 17 18  1  0
 18 19  1  0
 19 20  1  0
 19 21  1  0
 18 22  1  0
 18 23  1  0
 17 24  1  0
 12 25  1  0
 11 26  2  0
 26 27  1  0
 27 28  1  0
 28 29  2  0
 29 30  1  0
 30 31  2  0
 31 32  1  0
 32 33  2  0
 33 34  1  0
 31 35  1  0
 30 36  1  0
 29 37  1  0
  8 38  1  0
  8 39  1  0
  6 40  1  0
  5 41  1  0
  3 42  1  0
  1 43  1  0
  1 44  1  0
  1 45  1  0
  7  2  1  0
 27  9  1  0
 33 28  1  0
 19 17  1  0
M  END
>  <cnnaffinity>  (1) 
-6.34993

>  <filename>  (1) 
Cc1cnccc1Cc1nc(C(C)C2CC2)nn1-c1cccnc1

$$$$
