
     RDKit          3D

 46 49  0  0  0  0  0  0  0  0999 V2000
    7.7698    2.3841   21.8486 C   0  0  0  0  0  0  0  0  0  0  0  0
    9.2258    2.0426   21.9576 C   0  0  0  0  0  0  0  0  0  0  0  0
   10.1543    2.6082   22.8046 C   0  0  0  0  0  0  0  0  0  0  0  0
   11.3670    1.9536   22.5022 C   0  0  0  0  0  0  0  0  0  0  0  0
   12.6989    2.1495   23.1905 C   0  0  0  0  0  0  0  0  0  0  0  0
   13.6905    1.4661   22.6150 F   0  0  0  0  0  0  0  0  0  0  0  0
   13.0423    3.4547   23.2291 F   0  0  0  0  0  0  0  0  0  0  0  0
   12.6333    1.7399   24.4729 F   0  0  0  0  0  0  0  0  0  0  0  0
   11.1894    1.0307   21.5665 N   0  0  0  0  0  0  0  0  0  0  0  0
    9.8938    1.0875   21.2383 N   0  0  0  0  0  0  0  0  0  0  0  0
    9.3536    0.0443   20.3752 C   0  0  0  0  0  0  0  0  0  0  0  0
    8.3496   -0.8094   21.0724 C   0  0  0  0  0  0  0  0  0  0  0  0
    8.6203   -1.5724   22.1096 N   0  0  0  0  0  0  0  0  0  0  0  0
    7.4210   -2.1541   22.3914 C   0  0  0  0  0  0  0  0  0  0  0  0
    7.2317   -3.1394   23.5148 C   0  0  0  0  0  0  0  0  0  0  0  0
    6.3304   -2.6662   24.6815 C   0  0  0  0  0  0  0  0  0  0  0  0
    5.8428   -3.9461   25.3936 C   0  0  0  0  0  0  0  0  0  0  0  0
    6.1018   -5.1184   24.4201 C   0  0  0  0  0  0  0  0  0  0  0  0
    6.5954   -4.4881   23.1062 C   0  0  0  0  0  0  0  0  0  0  0  0
    5.7551   -4.2978   22.4282 H   0  0  0  0  0  0  0  0  0  0  0  0
    7.3040   -5.1352   22.5783 H   0  0  0  0  0  0  0  0  0  0  0  0
    6.8588   -5.7906   24.8416 H   0  0  0  0  0  0  0  0  0  0  0  0
    5.2066   -5.7304   24.2629 H   0  0  0  0  0  0  0  0  0  0  0  0
    4.7829   -3.8607   25.6573 H   0  0  0  0  0  0  0  0  0  0  0  0
    6.3794   -4.1089   26.3354 H   0  0  0  0  0  0  0  0  0  0  0  0
    6.8672   -1.9941   25.3580 H   0  0  0  0  0  0  0  0  0  0  0  0
    5.4791   -2.1075   24.2864 H   0  0  0  0  0  0  0  0  0  0  0  0
    8.2397   -3.3166   23.9014 H   0  0  0  0  0  0  0  0  0  0  0  0
    6.4357   -1.7940   21.5806 N   0  0  0  0  0  0  0  0  0  0  0  0
    7.0415   -0.9516   20.7077 N   0  0  0  0  0  0  0  0  0  0  0  0
    6.3110   -0.2773   19.6895 C   0  0  0  0  0  0  0  0  0  0  0  0
    5.1653    0.4714   19.9786 C   0  0  0  0  0  0  0  0  0  0  0  0
    4.6758    1.3284   18.9851 C   0  0  0  0  0  0  0  0  0  0  0  0
    5.2972    1.3479   17.7302 C   0  0  0  0  0  0  0  0  0  0  0  0
    6.3129    0.5287   17.4095 N   0  0  0  0  0  0  0  0  0  0  0  0
    6.7818   -0.2824   18.3637 C   0  0  0  0  0  0  0  0  0  0  0  0
    7.5751   -0.9671   18.0662 H   0  0  0  0  0  0  0  0  0  0  0  0
    4.9608    2.0351   16.9572 H   0  0  0  0  0  0  0  0  0  0  0  0
    3.8345    1.9856   19.1764 H   0  0  0  0  0  0  0  0  0  0  0  0
    4.6813    0.3816   20.9520 H   0  0  0  0  0  0  0  0  0  0  0  0
    8.9547    0.4887   19.4642 H   0  0  0  0  0  0  0  0  0  0  0  0
   10.1903   -0.5960   20.1028 H   0  0  0  0  0  0  0  0  0  0  0  0
    9.9556    3.3551   23.5665 H   0  0  0  0  0  0  0  0  0  0  0  0
    7.3599    2.2730   20.8385 H   0  0  0  0  0  0  0  0  0  0  0  0
    7.6169    3.4182   22.1732 H   0  0  0  0  0  0  0  0  0  0  0  0
    7.1849    1.7433   22.5159 H   0  0  0  0  0  0  0  0  0  0  0  0
  1  2  1  0
  2  3  2  0
  3  4  1  0
  4  5  1  0
  5  6  1  0
  5  7  1  0
  5  8  1  0
  4  9  2  0
  9 10  1  0
 10 11  1  0
 11 12  1  0
 12 13  2  0
 13 14  1  0
 14 15  1  0
 15 16  1  0
 16 17  1  0
 17 18  1  0
 18 19  1  0
 19 20  1  0
 19 21  1  0
 18 22  1  0
 18 23  1  0
 17 24  1  0
 17 25  1  0
 16 26  1  0
 16 27  1  0
 15 28  1  0
 14 29  2  0
 29 30  1  0
 30 31  1  0
 31 32  2  0
 32 33  1  0
 33 34  2  0
 34 35  1  0
 35 36  2  0
 36 37  1  0
 34 38  1  0
 33 39  1  0
 32 40  1  0
 11 41  1  0
 11 42  1  0
  3 43  1  0
  1 44  1  0
  1 45  1  0
  1 46  1  0
 10  2  1  0
 30 12  1  0
 36 31  1  0
 19 15  1  0
M  END
>  <cnnaffinity>  (1) 
-6.79458

>  <filename>  (1) 
Cc1cc(C(F)(F)F)nn1Cc1nc(C2CCCC2)nn1-c1cccnc1

$$$$
