
     RDKit          3D

 44 47  0  0  0  0  0  0  0  0999 V2000
    2.3038    2.6696   26.0481 C   0  0  0  0  0  0  0  0  0  0  0  0
    3.6314    2.9177   25.3798 C   0  0  0  0  0  0  0  0  0  0  0  0
    4.2170    4.1979   25.3871 C   0  0  0  0  0  0  0  0  0  0  0  0
    5.4377    4.4240   24.7543 C   0  0  0  0  0  0  0  0  0  0  0  0
    6.0925    3.3869   24.0886 C   0  0  0  0  0  0  0  0  0  0  0  0
    5.4928    2.1252   24.0527 C   0  0  0  0  0  0  0  0  0  0  0  0
    5.9820    1.0639   23.3619 O   0  0  0  0  0  0  0  0  0  0  0  0
    7.2650    1.1728   22.7586 C   0  0  0  0  0  0  0  0  0  0  0  0
    7.5888   -0.1639   22.2155 C   0  0  0  0  0  0  0  0  0  0  0  0
    8.1968   -1.1000   22.9048 N   0  0  0  0  0  0  0  0  0  0  0  0
    8.3245   -2.1022   21.9985 C   0  0  0  0  0  0  0  0  0  0  0  0
    9.0669   -3.3300   22.3277 C   0  0  0  0  0  0  0  0  0  0  0  0
   10.4438   -3.0451   23.0065 C   0  0  0  0  0  0  0  0  0  0  0  0
   10.0467   -3.9661   24.1751 C   0  0  0  0  0  0  0  0  0  0  0  0
    8.6353   -4.1596   23.5729 C   0  0  0  0  0  0  0  0  0  0  0  0
    7.8247   -3.6817   24.1350 H   0  0  0  0  0  0  0  0  0  0  0  0
    8.3547   -5.1996   23.3656 H   0  0  0  0  0  0  0  0  0  0  0  0
   10.6296   -4.8866   24.2602 H   0  0  0  0  0  0  0  0  0  0  0  0
   10.0444   -3.4677   25.1476 H   0  0  0  0  0  0  0  0  0  0  0  0
   10.5050   -1.9984   23.3325 H   0  0  0  0  0  0  0  0  0  0  0  0
   11.3422   -3.2898   22.4382 H   0  0  0  0  0  0  0  0  0  0  0  0
    9.0402   -3.8958   21.4020 H   0  0  0  0  0  0  0  0  0  0  0  0
    7.8376   -1.8433   20.8028 N   0  0  0  0  0  0  0  0  0  0  0  0
    7.3249   -0.5947   20.9527 N   0  0  0  0  0  0  0  0  0  0  0  0
    6.6198    0.0443   19.9074 C   0  0  0  0  0  0  0  0  0  0  0  0
    5.4076    0.6994   20.1516 C   0  0  0  0  0  0  0  0  0  0  0  0
    4.7873    1.3347   19.0734 C   0  0  0  0  0  0  0  0  0  0  0  0
    5.4031    1.3003   17.8175 C   0  0  0  0  0  0  0  0  0  0  0  0
    6.5552    0.6457   17.5798 N   0  0  0  0  0  0  0  0  0  0  0  0
    7.1399    0.0188   18.6027 C   0  0  0  0  0  0  0  0  0  0  0  0
    8.0671   -0.5161   18.4049 H   0  0  0  0  0  0  0  0  0  0  0  0
    4.9559    1.8127   16.9694 H   0  0  0  0  0  0  0  0  0  0  0  0
    3.8502    1.8647   19.2015 H   0  0  0  0  0  0  0  0  0  0  0  0
    4.9756    0.7010   21.1518 H   0  0  0  0  0  0  0  0  0  0  0  0
    8.0256    1.4187   23.5109 H   0  0  0  0  0  0  0  0  0  0  0  0
    7.2618    1.9413   21.9743 H   0  0  0  0  0  0  0  0  0  0  0  0
    4.2891    1.8788   24.7217 C   0  0  0  0  0  0  0  0  0  0  0  0
    3.9064    0.8611   24.7126 H   0  0  0  0  0  0  0  0  0  0  0  0
    7.0492    3.5497   23.6054 H   0  0  0  0  0  0  0  0  0  0  0  0
    5.8922    5.4119   24.7649 H   0  0  0  0  0  0  0  0  0  0  0  0
    3.7146    5.0150   25.8966 H   0  0  0  0  0  0  0  0  0  0  0  0
    1.4754    2.8240   25.3475 H   0  0  0  0  0  0  0  0  0  0  0  0
    2.1534    3.3468   26.8929 H   0  0  0  0  0  0  0  0  0  0  0  0
    2.2295    1.6439   26.4215 H   0  0  0  0  0  0  0  0  0  0  0  0
  1  2  1  0
  2  3  2  0
  3  4  1  0
  4  5  2  0
  5  6  1  0
  6  7  1  0
  7  8  1  0
  8  9  1  0
  9 10  2  0
 10 11  1  0
 11 12  1  0
 12 13  1  0
 13 14  1  0
 14 15  1  0
 15 16  1  0
 15 17  1  0
 14 18  1  0
 14 19  1  0
 13 20  1  0
 13 21  1  0
 12 22  1  0
 11 23  2  0
 23 24  1  0
 24 25  1  0
 25 26  2  0
 26 27  1  0
 27 28  2  0
 28 29  1  0
 29 30  2  0
 30 31  1  0
 28 32  1  0
 27 33  1  0
 26 34  1  0
  8 35  1  0
  8 36  1  0
  6 37  2  0
 37 38  1  0
  5 39  1  0
  4 40  1  0
  3 41  1  0
  1 42  1  0
  1 43  1  0
  1 44  1  0
 37  2  1  0
 24  9  1  0
 30 25  1  0
 15 12  1  0
M  END
>  <cnnaffinity>  (1) 
-5.8004

>  <filename>  (1) 
Cc1cccc(OCc2nc(C3CCC3)nn2-c2cccnc2)c1

$$$$
