
     RDKit          3D

 33 35  0  0  0  0  0  0  0  0999 V2000
    5.1057    1.8106   16.8656 H   0  0  0  0  0  0  0  0  0  0  0  0
    5.5051    1.3012   17.7408 C   0  0  0  0  0  0  0  0  0  0  0  0
    6.6692    0.6518   17.5665 N   0  0  0  0  0  0  0  0  0  0  0  0
    7.1989    0.0398   18.6329 C   0  0  0  0  0  0  0  0  0  0  0  0
    8.1636   -0.4445   18.5113 H   0  0  0  0  0  0  0  0  0  0  0  0
    6.5889   -0.0039   19.9002 C   0  0  0  0  0  0  0  0  0  0  0  0
    7.2588   -0.7066   20.9570 N   0  0  0  0  0  0  0  0  0  0  0  0
    8.6128   -0.5250   21.0162 N   0  0  0  0  0  0  0  0  0  0  0  0
    9.2957   -1.1271   21.9610 C   0  0  0  0  0  0  0  0  0  0  0  0
   10.7118   -0.6514   22.0822 C   0  0  0  0  0  0  0  0  0  0  0  0
   10.9234    0.7143   22.3225 C   0  0  0  0  0  0  0  0  0  0  0  0
   10.0543    1.3732   22.3474 H   0  0  0  0  0  0  0  0  0  0  0  0
   12.2192    1.1907   22.5214 C   0  0  0  0  0  0  0  0  0  0  0  0
   12.3794    2.2509   22.6787 H   0  0  0  0  0  0  0  0  0  0  0  0
   13.3076    0.3189   22.4320 C   0  0  0  0  0  0  0  0  0  0  0  0
   14.3235    0.6720   22.6109 H   0  0  0  0  0  0  0  0  0  0  0  0
   13.1205   -1.0276   22.0905 C   0  0  0  0  0  0  0  0  0  0  0  0
   14.3227   -1.8835   21.8220 C   0  0  0  0  0  0  0  0  0  0  0  0
   14.7020   -1.7317   20.8019 H   0  0  0  0  0  0  0  0  0  0  0  0
   15.1121   -1.6188   22.5292 H   0  0  0  0  0  0  0  0  0  0  0  0
   14.1295   -2.9515   21.9350 H   0  0  0  0  0  0  0  0  0  0  0  0
   11.8124   -1.5110   21.9510 C   0  0  0  0  0  0  0  0  0  0  0  0
   11.6460   -2.5620   21.7296 H   0  0  0  0  0  0  0  0  0  0  0  0
    8.7002   -2.1625   22.8845 C   0  0  0  0  0  0  0  0  0  0  0  0
    9.3421   -2.8809   23.6414 O   0  0  0  0  0  0  0  0  0  0  0  0
    7.2466   -2.2209   22.7978 C   0  0  0  0  0  0  0  0  0  0  0  0
    6.7437   -2.8485   23.5237 H   0  0  0  0  0  0  0  0  0  0  0  0
    6.6002   -1.5159   21.8497 C   0  0  0  0  0  0  0  0  0  0  0  0
    5.5245   -1.5685   21.7089 H   0  0  0  0  0  0  0  0  0  0  0  0
    5.3697    0.6721   20.0734 C   0  0  0  0  0  0  0  0  0  0  0  0
    4.8857    0.7089   21.0506 H   0  0  0  0  0  0  0  0  0  0  0  0
    4.8327    1.3446   18.9669 C   0  0  0  0  0  0  0  0  0  0  0  0
    3.9143    1.9161   19.0453 H   0  0  0  0  0  0  0  0  0  0  0  0
  1  2  1  0
  2  3  2  0
  3  4  1  0
  4  5  1  0
  4  6  2  0
  6  7  1  0
  7  8  1  0
  8  9  2  0
  9 10  1  0
 10 11  2  0
 11 12  1  0
 11 13  1  0
 13 14  1  0
 13 15  2  0
 15 16  1  0
 15 17  1  0
 17 18  1  0
 18 19  1  0
 18 20  1  0
 18 21  1  0
 17 22  2  0
 22 23  1  0
  9 24  1  0
 24 25  2  0
 24 26  1  0
 26 27  1  0
 26 28  2  0
 28 29  1  0
  6 30  1  0
 30 31  1  0
 30 32  2  0
 32 33  1  0
 32  2  1  0
 28  7  1  0
 22 10  1  0
M  END
>  <cnnaffinity>  (1) 
-5.5319

>  <filename>  (1) 
Cc1cccc(-c2nn(-c3cccnc3)ccc2=O)c1

$$$$
