
     RDKit          3D

 48 51  0  0  0  0  0  0  0  0999 V2000
    7.2800    6.0108   26.5340 C   0  0  0  0  0  0  0  0  0  0  0  0
    7.7612    4.9406   25.5764 C   0  0  0  0  0  0  0  0  0  0  0  0
    8.1685    3.6781   26.0371 C   0  0  0  0  0  0  0  0  0  0  0  0
    8.5844    2.6775   25.1571 C   0  0  0  0  0  0  0  0  0  0  0  0
    8.6043    2.9209   23.7700 C   0  0  0  0  0  0  0  0  0  0  0  0
    9.0322    1.8884   22.9890 O   0  0  0  0  0  0  0  0  0  0  0  0
    9.0492    1.9970   21.5689 C   0  0  0  0  0  0  0  0  0  0  0  0
    9.4995    0.6433   21.0151 C   0  0  0  0  0  0  0  0  0  0  0  0
    8.6084   -0.4660   21.4504 C   0  0  0  0  0  0  0  0  0  0  0  0
    8.8289   -1.2934   22.4469 N   0  0  0  0  0  0  0  0  0  0  0  0
    7.6466   -1.9563   22.5619 C   0  0  0  0  0  0  0  0  0  0  0  0
    7.4225   -2.9365   23.6569 C   0  0  0  0  0  0  0  0  0  0  0  0
    8.5146   -4.0180   23.7985 C   0  0  0  0  0  0  0  0  0  0  0  0
    8.4643   -4.3711   25.2887 C   0  0  0  0  0  0  0  0  0  0  0  0
    7.8451   -3.2772   25.9491 O   0  0  0  0  0  0  0  0  0  0  0  0
    7.4229   -2.2739   25.0480 C   0  0  0  0  0  0  0  0  0  0  0  0
    6.4236   -1.9400   25.3586 H   0  0  0  0  0  0  0  0  0  0  0  0
    8.1012   -1.4020   25.0953 H   0  0  0  0  0  0  0  0  0  0  0  0
    9.4635   -4.5346   25.7168 H   0  0  0  0  0  0  0  0  0  0  0  0
    7.8738   -5.2793   25.4826 H   0  0  0  0  0  0  0  0  0  0  0  0
    9.4927   -3.6015   23.5310 H   0  0  0  0  0  0  0  0  0  0  0  0
    8.3317   -4.8888   23.1630 H   0  0  0  0  0  0  0  0  0  0  0  0
    6.4479   -3.3949   23.4780 H   0  0  0  0  0  0  0  0  0  0  0  0
    6.7250   -1.6127   21.6921 N   0  0  0  0  0  0  0  0  0  0  0  0
    7.3541   -0.6630   20.9442 N   0  0  0  0  0  0  0  0  0  0  0  0
    6.6596    0.0123   19.9017 C   0  0  0  0  0  0  0  0  0  0  0  0
    5.4395    0.6460   20.1649 C   0  0  0  0  0  0  0  0  0  0  0  0
    4.8123    1.3114   19.1085 C   0  0  0  0  0  0  0  0  0  0  0  0
    5.4007    1.2964   17.8373 C   0  0  0  0  0  0  0  0  0  0  0  0
    6.5591    0.6721   17.5758 N   0  0  0  0  0  0  0  0  0  0  0  0
    7.1693    0.0522   18.5918 C   0  0  0  0  0  0  0  0  0  0  0  0
    8.1132   -0.4372   18.3645 H   0  0  0  0  0  0  0  0  0  0  0  0
    4.9211    1.7863   16.9930 H   0  0  0  0  0  0  0  0  0  0  0  0
    3.8795    1.8400   19.2590 H   0  0  0  0  0  0  0  0  0  0  0  0
    5.0153    0.6074   21.1724 H   0  0  0  0  0  0  0  0  0  0  0  0
    9.5265    0.7026   19.9258 H   0  0  0  0  0  0  0  0  0  0  0  0
   10.5137    0.4156   21.3447 H   0  0  0  0  0  0  0  0  0  0  0  0
    8.0496    2.2500   21.1853 H   0  0  0  0  0  0  0  0  0  0  0  0
    9.7472    2.7839   21.2508 H   0  0  0  0  0  0  0  0  0  0  0  0
    8.2004    4.1747   23.2923 C   0  0  0  0  0  0  0  0  0  0  0  0
    7.7852    5.1635   24.1962 C   0  0  0  0  0  0  0  0  0  0  0  0
    7.4645    6.1320   23.8173 H   0  0  0  0  0  0  0  0  0  0  0  0
    8.2071    4.3852   22.2268 H   0  0  0  0  0  0  0  0  0  0  0  0
    8.8891    1.7045   25.5307 H   0  0  0  0  0  0  0  0  0  0  0  0
    8.1461    3.4874   27.1085 H   0  0  0  0  0  0  0  0  0  0  0  0
    6.1976    5.9414   26.6974 H   0  0  0  0  0  0  0  0  0  0  0  0
    7.7556    5.9333   27.5178 H   0  0  0  0  0  0  0  0  0  0  0  0
    7.4774    7.0194   26.1539 H   0  0  0  0  0  0  0  0  0  0  0  0
  1  2  1  0
  2  3  2  0
  3  4  1  0
  4  5  2  0
  5  6  1  0
  6  7  1  0
  7  8  1  0
  8  9  1  0
  9 10  2  0
 10 11  1  0
 11 12  1  0
 12 13  1  0
 13 14  1  0
 14 15  1  0
 15 16  1  0
 16 17  1  0
 16 18  1  0
 14 19  1  0
 14 20  1  0
 13 21  1  0
 13 22  1  0
 12 23  1  0
 11 24  2  0
 24 25  1  0
 25 26  1  0
 26 27  2  0
 27 28  1  0
 28 29  2  0
 29 30  1  0
 30 31  2  0
 31 32  1  0
 29 33  1  0
 28 34  1  0
 27 35  1  0
  8 36  1  0
  8 37  1  0
  7 38  1  0
  7 39  1  0
  5 40  1  0
 40 41  2  0
 41 42  1  0
 40 43  1  0
  4 44  1  0
  3 45  1  0
  1 46  1  0
  1 47  1  0
  1 48  1  0
 41  2  1  0
 25  9  1  0
 31 26  1  0
 16 12  1  0
M  END
>  <cnnaffinity>  (1) 
-5.95595

>  <filename>  (1) 
Cc1ccc(OCCc2nc(C3CCOC3)nn2-c2cccnc2)cc1

$$$$
