
     RDKit          3D

 49 52  0  0  0  0  0  0  0  0999 V2000
   11.8549   -1.3978   21.8085 C   0  0  0  0  0  0  0  0  0  0  0  0
   10.6362   -2.2315   22.0384 C   0  0  0  0  0  0  0  0  0  0  0  0
   10.2844   -2.6446   23.2489 N   0  0  0  0  0  0  0  0  0  0  0  0
    9.1937   -3.4063   23.0468 N   0  0  0  0  0  0  0  0  0  0  0  0
    8.8289   -3.5102   21.7471 C   0  0  0  0  0  0  0  0  0  0  0  0
    7.7918   -4.5731   21.2830 C   0  0  0  0  0  0  0  0  0  0  0  0
    6.7745   -4.1415   20.4206 C   0  0  0  0  0  0  0  0  0  0  0  0
    5.8806   -2.9913   20.7793 C   0  0  0  0  0  0  0  0  0  0  0  0
    4.8565   -3.5454   21.6313 N   0  0  0  0  0  0  0  0  0  0  0  0
    5.1908   -3.1098   22.8331 C   0  0  0  0  0  0  0  0  0  0  0  0
    4.3744   -3.4829   24.0222 C   0  0  0  0  0  0  0  0  0  0  0  0
    4.1498   -2.5923   25.0913 C   0  0  0  0  0  0  0  0  0  0  0  0
    3.1896   -2.9040   26.0535 C   0  0  0  0  0  0  0  0  0  0  0  0
    2.4612   -4.1046   26.0104 C   0  0  0  0  0  0  0  0  0  0  0  0
    1.3693   -4.4184   26.9942 C   0  0  0  0  0  0  0  0  0  0  0  0
    0.4987   -4.8298   26.4760 H   0  0  0  0  0  0  0  0  0  0  0  0
    1.6904   -5.1670   27.7246 H   0  0  0  0  0  0  0  0  0  0  0  0
    1.0540   -3.5229   27.5379 H   0  0  0  0  0  0  0  0  0  0  0  0
    2.7793   -5.0055   24.9816 C   0  0  0  0  0  0  0  0  0  0  0  0
    2.1154   -6.1757   24.9129 F   0  0  0  0  0  0  0  0  0  0  0  0
    3.7071   -4.7208   23.9961 C   0  0  0  0  0  0  0  0  0  0  0  0
    3.8813   -5.4370   23.1963 H   0  0  0  0  0  0  0  0  0  0  0  0
    2.9783   -2.1817   26.8413 H   0  0  0  0  0  0  0  0  0  0  0  0
    4.6971   -1.6506   25.1427 H   0  0  0  0  0  0  0  0  0  0  0  0
    6.1825   -2.2155   22.9052 N   0  0  0  0  0  0  0  0  0  0  0  0
    6.4834   -1.9492   21.6315 N   0  0  0  0  0  0  0  0  0  0  0  0
    7.1026   -0.6931   21.2541 C   0  0  0  0  0  0  0  0  0  0  0  0
    6.4900   -0.0042   20.0524 C   0  0  0  0  0  0  0  0  0  0  0  0
    5.2858    0.7004   20.1847 C   0  0  0  0  0  0  0  0  0  0  0  0
    4.7503    1.3266   19.0561 C   0  0  0  0  0  0  0  0  0  0  0  0
    5.4377    1.2328   17.8422 C   0  0  0  0  0  0  0  0  0  0  0  0
    6.5927    0.5665   17.6944 N   0  0  0  0  0  0  0  0  0  0  0  0
    7.0942   -0.0303   18.7840 C   0  0  0  0  0  0  0  0  0  0  0  0
    8.0381   -0.5587   18.6337 H   0  0  0  0  0  0  0  0  0  0  0  0
    5.0594    1.7341   16.9518 H   0  0  0  0  0  0  0  0  0  0  0  0
    3.8258    1.8933   19.1062 H   0  0  0  0  0  0  0  0  0  0  0  0
    4.8023    0.7698   21.1634 H   0  0  0  0  0  0  0  0  0  0  0  0
    8.1696   -0.8556   21.0889 H   0  0  0  0  0  0  0  0  0  0  0  0
    7.0154   -0.0669   22.1462 H   0  0  0  0  0  0  0  0  0  0  0  0
    6.4066   -4.7122   19.5823 H   0  0  0  0  0  0  0  0  0  0  0  0
    5.5032   -2.5922   19.7850 H   0  0  0  0  0  0  0  0  0  0  0  0
    7.3358   -4.9429   22.2390 H   0  0  0  0  0  0  0  0  0  0  0  0
    8.3758   -5.4337   20.8750 H   0  0  0  0  0  0  0  0  0  0  0  0
    9.7087   -2.6863   21.0724 C   0  0  0  0  0  0  0  0  0  0  0  0
    9.6687   -2.3491   20.0538 H   0  0  0  0  0  0  0  0  0  0  0  0
    8.6005   -3.6284   23.8314 H   0  0  0  0  0  0  0  0  0  0  0  0
   12.4621   -1.7958   20.9893 H   0  0  0  0  0  0  0  0  0  0  0  0
   11.5750   -0.3728   21.5466 H   0  0  0  0  0  0  0  0  0  0  0  0
   12.4739   -1.3636   22.7063 H   0  0  0  0  0  0  0  0  0  0  0  0
  1  2  1  0
  2  3  2  0
  3  4  1  0
  4  5  1  0
  5  6  1  0
  6  7  1  0
  7  8  1  0
  8  9  2  0
  9 10  1  0
 10 11  1  0
 11 12  2  0
 12 13  1  0
 13 14  2  0
 14 15  1  0
 15 16  1  0
 15 17  1  0
 15 18  1  0
 14 19  1  0
 19 20  1  0
 19 21  2  0
 21 22  1  0
 13 23  1  0
 12 24  1  0
 10 25  2  0
 25 26  1  0
 26 27  1  0
 27 28  1  0
 28 29  2  0
 29 30  1  0
 30 31  2  0
 31 32  1  0
 32 33  2  0
 33 34  1  0
 31 35  1  0
 30 36  1  0
 29 37  1  0
 27 38  1  0
 27 39  1  0
  7 40  1  0
  7 41  1  0
  6 42  1  0
  6 43  1  0
  5 44  2  0
 44 45  1  0
  4 46  1  0
  1 47  1  0
  1 48  1  0
  1 49  1  0
 44  2  1  0
 26  8  1  0
 33 28  1  0
 21 11  1  0
M  END
>  <cnnaffinity>  (1) 
-5.96027

>  <filename>  (1) 
Cc1cc(CCc2nc(-c3ccc(C)c(F)c3)nn2Cc2cccnc2)[nH]n1

$$$$
