
     RDKit          3D

 44 47  0  0  0  0  0  0  0  0999 V2000
   12.6365    1.4264   23.3886 C   0  0  0  0  0  0  0  0  0  0  0  0
   12.7918    0.3062   22.3924 C   0  0  0  0  0  0  0  0  0  0  0  0
   14.0747   -0.0933   21.9813 C   0  0  0  0  0  0  0  0  0  0  0  0
   14.2471   -1.1852   21.1195 C   0  0  0  0  0  0  0  0  0  0  0  0
   13.1654   -1.9637   20.7391 C   0  0  0  0  0  0  0  0  0  0  0  0
   11.8947   -1.6081   21.1545 C   0  0  0  0  0  0  0  0  0  0  0  0
   11.6852   -0.4127   21.8632 C   0  0  0  0  0  0  0  0  0  0  0  0
   10.2926    0.0671   21.9339 C   0  0  0  0  0  0  0  0  0  0  0  0
    9.3170   -0.6662   21.4122 N   0  0  0  0  0  0  0  0  0  0  0  0
    8.2000    0.0151   21.7210 N   0  0  0  0  0  0  0  0  0  0  0  0
    6.9018   -0.5067   21.3056 C   0  0  0  0  0  0  0  0  0  0  0  0
    6.3279    0.1804   20.0865 C   0  0  0  0  0  0  0  0  0  0  0  0
    5.1013    0.8526   20.0730 C   0  0  0  0  0  0  0  0  0  0  0  0
    4.7028    1.4916   18.8943 C   0  0  0  0  0  0  0  0  0  0  0  0
    5.5298    1.4080   17.7706 C   0  0  0  0  0  0  0  0  0  0  0  0
    6.6952    0.7412   17.7550 N   0  0  0  0  0  0  0  0  0  0  0  0
    7.0753    0.1589   18.8963 C   0  0  0  0  0  0  0  0  0  0  0  0
    8.0344   -0.3581   18.8853 H   0  0  0  0  0  0  0  0  0  0  0  0
    5.2448    1.8869   16.8358 H   0  0  0  0  0  0  0  0  0  0  0  0
    3.7798    2.0592   18.8360 H   0  0  0  0  0  0  0  0  0  0  0  0
    4.4725    0.8847   20.9672 H   0  0  0  0  0  0  0  0  0  0  0  0
    6.2178   -0.4561   22.1577 H   0  0  0  0  0  0  0  0  0  0  0  0
    7.0824   -1.5644   21.0938 H   0  0  0  0  0  0  0  0  0  0  0  0
    8.5376    1.1502   22.3614 C   0  0  0  0  0  0  0  0  0  0  0  0
    7.5254    2.0130   23.0540 C   0  0  0  0  0  0  0  0  0  0  0  0
    7.1985    1.3987   24.3997 C   0  0  0  0  0  0  0  0  0  0  0  0
    8.1316    1.2921   25.3959 C   0  0  0  0  0  0  0  0  0  0  0  0
    7.6317    0.4809   26.3750 N   0  0  0  0  0  0  0  0  0  0  0  0
    6.3750    0.0614   26.0250 C   0  0  0  0  0  0  0  0  0  0  0  0
    6.0728    0.6326   24.8092 C   0  0  0  0  0  0  0  0  0  0  0  0
    5.1369    0.5309   24.2728 H   0  0  0  0  0  0  0  0  0  0  0  0
    5.8147   -0.6232   26.6492 H   0  0  0  0  0  0  0  0  0  0  0  0
    8.1596    0.1732   27.1752 H   0  0  0  0  0  0  0  0  0  0  0  0
    9.1286    1.7056   25.4195 H   0  0  0  0  0  0  0  0  0  0  0  0
    7.9679    3.0073   23.1744 H   0  0  0  0  0  0  0  0  0  0  0  0
    6.6325    2.1183   22.4277 H   0  0  0  0  0  0  0  0  0  0  0  0
    9.8482    1.2185   22.5068 N   0  0  0  0  0  0  0  0  0  0  0  0
   11.0324   -2.2166   20.8964 H   0  0  0  0  0  0  0  0  0  0  0  0
   13.3301   -2.8096   20.0789 H   0  0  0  0  0  0  0  0  0  0  0  0
   15.1842   -1.4671   20.6720 H   0  0  0  0  0  0  0  0  0  0  0  0
   14.9331    0.4946   22.3003 H   0  0  0  0  0  0  0  0  0  0  0  0
   12.0132    1.0957   24.2239 H   0  0  0  0  0  0  0  0  0  0  0  0
   12.1281    2.2872   22.9469 H   0  0  0  0  0  0  0  0  0  0  0  0
   13.6046    1.7361   23.7962 H   0  0  0  0  0  0  0  0  0  0  0  0
  1  2  1  0
  2  3  2  0
  3  4  1  0
  4  5  2  0
  5  6  1  0
  6  7  2  0
  7  8  1  0
  8  9  2  0
  9 10  1  0
 10 11  1  0
 11 12  1  0
 12 13  2  0
 13 14  1  0
 14 15  2  0
 15 16  1  0
 16 17  2  0
 17 18  1  0
 15 19  1  0
 14 20  1  0
 13 21  1  0
 11 22  1  0
 11 23  1  0
 10 24  1  0
 24 25  1  0
 25 26  1  0
 26 27  2  0
 27 28  1  0
 28 29  1  0
 29 30  2  0
 30 31  1  0
 29 32  1  0
 28 33  1  0
 27 34  1  0
 25 35  1  0
 25 36  1  0
 24 37  2  0
  6 38  1  0
  5 39  1  0
  4 40  1  0
  3 41  1  0
  1 42  1  0
  1 43  1  0
  1 44  1  0
  7  2  1  0
 37  8  1  0
 17 12  1  0
 30 26  1  0
M  END
>  <cnnaffinity>  (1) 
-6.46988

>  <filename>  (1) 
Cc1ccccc1-c1nc(Cc2cc[nH]c2)n(Cc2cccnc2)n1

$$$$
