
     RDKit          3D

 46 49  0  0  0  0  0  0  0  0999 V2000
    4.4692   -0.4969   26.9927 C   0  0  0  0  0  0  0  0  0  0  0  0
    5.2426    0.4067   26.0788 C   0  0  0  0  0  0  0  0  0  0  0  0
    4.9551    0.6648   24.7605 C   0  0  0  0  0  0  0  0  0  0  0  0
    5.9367    1.4526   24.2572 N   0  0  0  0  0  0  0  0  0  0  0  0
    6.2363    1.6308   22.8460 C   0  0  0  0  0  0  0  0  0  0  0  0
    7.2787    0.6622   22.3922 C   0  0  0  0  0  0  0  0  0  0  0  0
    8.5552    0.7948   22.6792 N   0  0  0  0  0  0  0  0  0  0  0  0
    9.1292   -0.2858   22.0960 C   0  0  0  0  0  0  0  0  0  0  0  0
   10.5796   -0.5405   22.0815 C   0  0  0  0  0  0  0  0  0  0  0  0
   11.0832   -1.5461   21.2405 C   0  0  0  0  0  0  0  0  0  0  0  0
   12.4493   -1.7772   21.1680 C   0  0  0  0  0  0  0  0  0  0  0  0
   13.2995   -1.0457   21.9856 C   0  0  0  0  0  0  0  0  0  0  0  0
   14.6014   -1.3754   21.9673 F   0  0  0  0  0  0  0  0  0  0  0  0
   12.8592   -0.0072   22.8210 C   0  0  0  0  0  0  0  0  0  0  0  0
   13.8255    0.8432   23.6149 C   0  0  0  0  0  0  0  0  0  0  0  0
   14.7283    0.2829   23.8547 H   0  0  0  0  0  0  0  0  0  0  0  0
   14.1320    1.7466   23.0707 H   0  0  0  0  0  0  0  0  0  0  0  0
   13.3810    1.1604   24.5613 H   0  0  0  0  0  0  0  0  0  0  0  0
   11.4761    0.2097   22.8668 C   0  0  0  0  0  0  0  0  0  0  0  0
   11.0845    0.9715   23.5414 H   0  0  0  0  0  0  0  0  0  0  0  0
   12.8757   -2.4810   20.4627 H   0  0  0  0  0  0  0  0  0  0  0  0
   10.3842   -2.1416   20.6609 H   0  0  0  0  0  0  0  0  0  0  0  0
    8.2633   -1.0688   21.4650 N   0  0  0  0  0  0  0  0  0  0  0  0
    7.0716   -0.4575   21.6628 N   0  0  0  0  0  0  0  0  0  0  0  0
    5.9376   -0.8326   20.8214 C   0  0  0  0  0  0  0  0  0  0  0  0
    5.7669    0.0835   19.6271 C   0  0  0  0  0  0  0  0  0  0  0  0
    4.6637    0.9241   19.4471 C   0  0  0  0  0  0  0  0  0  0  0  0
    4.5997    1.7128   18.2960 C   0  0  0  0  0  0  0  0  0  0  0  0
    5.6306    1.6165   17.3603 C   0  0  0  0  0  0  0  0  0  0  0  0
    6.7142    0.8425   17.5291 N   0  0  0  0  0  0  0  0  0  0  0  0
    6.7807    0.1253   18.6561 C   0  0  0  0  0  0  0  0  0  0  0  0
    7.6880   -0.4606   18.8063 H   0  0  0  0  0  0  0  0  0  0  0  0
    5.5846    2.1837   16.4320 H   0  0  0  0  0  0  0  0  0  0  0  0
    3.7791    2.4025   18.1226 H   0  0  0  0  0  0  0  0  0  0  0  0
    3.8658    0.9715   20.1902 H   0  0  0  0  0  0  0  0  0  0  0  0
    5.0236   -0.8459   21.4097 H   0  0  0  0  0  0  0  0  0  0  0  0
    6.1383   -1.8660   20.5198 H   0  0  0  0  0  0  0  0  0  0  0  0
    6.6373    2.6342   22.7010 H   0  0  0  0  0  0  0  0  0  0  0  0
    5.3097    1.5292   22.2735 H   0  0  0  0  0  0  0  0  0  0  0  0
    6.8419    1.7638   25.1951 N   0  0  0  0  0  0  0  0  0  0  0  0
    6.4278    1.1547   26.2949 C   0  0  0  0  0  0  0  0  0  0  0  0
    6.9899    1.2654   27.2179 H   0  0  0  0  0  0  0  0  0  0  0  0
    4.0941    0.4277   24.1596 H   0  0  0  0  0  0  0  0  0  0  0  0
    5.0917   -1.2794   27.4419 H   0  0  0  0  0  0  0  0  0  0  0  0
    3.6752   -0.9990   26.4323 H   0  0  0  0  0  0  0  0  0  0  0  0
    3.9988    0.0511   27.8153 H   0  0  0  0  0  0  0  0  0  0  0  0
  1  2  1  0
  2  3  2  0
  3  4  1  0
  4  5  1  0
  5  6  1  0
  6  7  2  0
  7  8  1  0
  8  9  1  0
  9 10  2  0
 10 11  1  0
 11 12  2  0
 12 13  1  0
 12 14  1  0
 14 15  1  0
 15 16  1  0
 15 17  1  0
 15 18  1  0
 14 19  2  0
 19 20  1  0
 11 21  1  0
 10 22  1  0
  8 23  2  0
 23 24  1  0
 24 25  1  0
 25 26  1  0
 26 27  2  0
 27 28  1  0
 28 29  2  0
 29 30  1  0
 30 31  2  0
 31 32  1  0
 29 33  1  0
 28 34  1  0
 27 35  1  0
 25 36  1  0
 25 37  1  0
  5 38  1  0
  5 39  1  0
  4 40  1  0
 40 41  2  0
 41 42  1  0
  3 43  1  0
  1 44  1  0
  1 45  1  0
  1 46  1  0
 41  2  1  0
 24  6  1  0
 31 26  1  0
 19  9  1  0
M  END
>  <cnnaffinity>  (1) 
-6.2539

>  <filename>  (1) 
Cc1cnn(Cc2nc(-c3ccc(F)c(C)c3)nn2Cc2cccnc2)c1

$$$$
