
     RDKit          3D

 43 46  0  0  0  0  0  0  0  0999 V2000
    9.3449    1.2449   25.2213 C   0  0  0  0  0  0  0  0  0  0  0  0
    7.8830    1.0008   24.9837 C   0  0  0  0  0  0  0  0  0  0  0  0
    7.0169    0.2500   25.7488 C   0  0  0  0  0  0  0  0  0  0  0  0
    5.8035    0.2452   25.0355 C   0  0  0  0  0  0  0  0  0  0  0  0
    5.9087    0.9277   23.9026 N   0  0  0  0  0  0  0  0  0  0  0  0
    7.1634    1.4111   23.8948 N   0  0  0  0  0  0  0  0  0  0  0  0
    7.6579    1.9942   22.6487 C   0  0  0  0  0  0  0  0  0  0  0  0
    8.6209    1.0507   22.0216 C   0  0  0  0  0  0  0  0  0  0  0  0
    9.9295    1.1323   22.1783 N   0  0  0  0  0  0  0  0  0  0  0  0
   10.3502   -0.1148   21.8537 C   0  0  0  0  0  0  0  0  0  0  0  0
   11.7488   -0.5555   21.8245 C   0  0  0  0  0  0  0  0  0  0  0  0
   12.8190    0.2359   22.2692 C   0  0  0  0  0  0  0  0  0  0  0  0
   14.1034   -0.1252   21.8713 C   0  0  0  0  0  0  0  0  0  0  0  0
   15.1065    0.6821   22.2349 F   0  0  0  0  0  0  0  0  0  0  0  0
   14.3463   -1.2192   21.0299 C   0  0  0  0  0  0  0  0  0  0  0  0
   13.2827   -2.0418   20.6938 C   0  0  0  0  0  0  0  0  0  0  0  0
   12.0048   -1.7544   21.1439 C   0  0  0  0  0  0  0  0  0  0  0  0
   11.1547   -2.3821   20.9285 H   0  0  0  0  0  0  0  0  0  0  0  0
   13.4443   -2.8696   20.0093 H   0  0  0  0  0  0  0  0  0  0  0  0
   15.2733   -1.4035   20.5082 H   0  0  0  0  0  0  0  0  0  0  0  0
   12.6801    1.1364   22.8609 H   0  0  0  0  0  0  0  0  0  0  0  0
    9.3776   -0.9262   21.4622 N   0  0  0  0  0  0  0  0  0  0  0  0
    8.2711   -0.1678   21.5584 N   0  0  0  0  0  0  0  0  0  0  0  0
    6.9995   -0.7078   21.0906 C   0  0  0  0  0  0  0  0  0  0  0  0
    6.3756    0.0565   19.9453 C   0  0  0  0  0  0  0  0  0  0  0  0
    5.1917    0.7866   20.0971 C   0  0  0  0  0  0  0  0  0  0  0  0
    4.6754    1.4649   18.9869 C   0  0  0  0  0  0  0  0  0  0  0  0
    5.3673    1.3873   17.7735 C   0  0  0  0  0  0  0  0  0  0  0  0
    6.5009    0.6881   17.6084 N   0  0  0  0  0  0  0  0  0  0  0  0
    6.9850    0.0484   18.6792 C   0  0  0  0  0  0  0  0  0  0  0  0
    7.9096   -0.5076   18.5255 H   0  0  0  0  0  0  0  0  0  0  0  0
    4.9997    1.9080   16.8914 H   0  0  0  0  0  0  0  0  0  0  0  0
    3.7704    2.0595   19.0500 H   0  0  0  0  0  0  0  0  0  0  0  0
    4.7065    0.8366   21.0778 H   0  0  0  0  0  0  0  0  0  0  0  0
    6.3173   -0.7473   21.9419 H   0  0  0  0  0  0  0  0  0  0  0  0
    7.2247   -1.7349   20.7877 H   0  0  0  0  0  0  0  0  0  0  0  0
    8.1708    2.9368   22.8552 H   0  0  0  0  0  0  0  0  0  0  0  0
    6.7997    2.1652   22.0023 H   0  0  0  0  0  0  0  0  0  0  0  0
    4.8740   -0.2516   25.2811 H   0  0  0  0  0  0  0  0  0  0  0  0
    7.2569   -0.2438   26.6808 H   0  0  0  0  0  0  0  0  0  0  0  0
    9.6886    2.1951   24.8045 H   0  0  0  0  0  0  0  0  0  0  0  0
    9.9318    0.4541   24.7395 H   0  0  0  0  0  0  0  0  0  0  0  0
    9.5604    1.2127   26.2905 H   0  0  0  0  0  0  0  0  0  0  0  0
  1  2  1  0
  2  3  2  0
  3  4  1  0
  4  5  2  0
  5  6  1  0
  6  7  1  0
  7  8  1  0
  8  9  2  0
  9 10  1  0
 10 11  1  0
 11 12  2  0
 12 13  1  0
 13 14  1  0
 13 15  2  0
 15 16  1  0
 16 17  2  0
 17 18  1  0
 16 19  1  0
 15 20  1  0
 12 21  1  0
 10 22  2  0
 22 23  1  0
 23 24  1  0
 24 25  1  0
 25 26  2  0
 26 27  1  0
 27 28  2  0
 28 29  1  0
 29 30  2  0
 30 31  1  0
 28 32  1  0
 27 33  1  0
 26 34  1  0
 24 35  1  0
 24 36  1  0
  7 37  1  0
  7 38  1  0
  4 39  1  0
  3 40  1  0
  1 41  1  0
  1 42  1  0
  1 43  1  0
  6  2  1  0
 23  8  1  0
 30 25  1  0
 17 11  1  0
M  END
>  <cnnaffinity>  (1) 
-6.50556

>  <filename>  (1) 
Cc1ccnn1Cc1nc(-c2cccc(F)c2)nn1Cc1cccnc1

$$$$
