
     RDKit          3D

 45 47  0  0  0  0  0  0  0  0999 V2000
    9.4545    2.1819   21.1252 C   0  0  0  0  0  0  0  0  0  0  0  0
    9.5952    1.9552   22.6079 C   0  0  0  0  0  0  0  0  0  0  0  0
   10.8594    2.1134   23.1992 C   0  0  0  0  0  0  0  0  0  0  0  0
   11.0403    1.9644   24.5789 C   0  0  0  0  0  0  0  0  0  0  0  0
    9.9427    1.6499   25.3812 C   0  0  0  0  0  0  0  0  0  0  0  0
    8.6733    1.5122   24.8064 C   0  0  0  0  0  0  0  0  0  0  0  0
    8.4913    1.6135   23.4206 C   0  0  0  0  0  0  0  0  0  0  0  0
    7.1542    1.2112   22.8065 C   0  0  0  0  0  0  0  0  0  0  0  0
    7.1919   -0.1301   22.2004 N   0  0  0  0  0  0  0  0  0  0  0  0
    7.6738   -1.1625   22.9412 N   0  0  0  0  0  0  0  0  0  0  0  0
    7.9276   -2.0895   22.0429 C   0  0  0  0  0  0  0  0  0  0  0  0
    8.5506   -3.4022   22.3656 C   0  0  0  0  0  0  0  0  0  0  0  0
    7.5572   -4.5223   22.7464 C   0  0  0  0  0  0  0  0  0  0  0  0
    8.2985   -5.8606   22.8573 C   0  0  0  0  0  0  0  0  0  0  0  0
    8.9160   -6.0535   21.9720 H   0  0  0  0  0  0  0  0  0  0  0  0
    8.9559   -5.8786   23.7375 H   0  0  0  0  0  0  0  0  0  0  0  0
    7.5985   -6.6978   22.9481 H   0  0  0  0  0  0  0  0  0  0  0  0
    6.7897   -4.1971   24.0318 C   0  0  0  0  0  0  0  0  0  0  0  0
    7.4719   -4.1665   24.8932 H   0  0  0  0  0  0  0  0  0  0  0  0
    6.0283   -4.9609   24.2356 H   0  0  0  0  0  0  0  0  0  0  0  0
    6.2935   -3.2213   23.9765 H   0  0  0  0  0  0  0  0  0  0  0  0
    6.8274   -4.6072   21.9232 H   0  0  0  0  0  0  0  0  0  0  0  0
    9.3077   -3.2632   23.1493 H   0  0  0  0  0  0  0  0  0  0  0  0
    9.0608   -3.6711   21.4427 H   0  0  0  0  0  0  0  0  0  0  0  0
    7.6118   -1.7437   20.7684 N   0  0  0  0  0  0  0  0  0  0  0  0
    7.1082   -0.5295   20.9037 C   0  0  0  0  0  0  0  0  0  0  0  0
    6.4587    0.2190   19.8246 C   0  0  0  0  0  0  0  0  0  0  0  0
    5.2528    0.9312   19.9455 C   0  0  0  0  0  0  0  0  0  0  0  0
    4.7288    1.5257   18.7956 C   0  0  0  0  0  0  0  0  0  0  0  0
    5.4203    1.3980   17.5847 C   0  0  0  0  0  0  0  0  0  0  0  0
    6.5564    0.6960   17.4557 N   0  0  0  0  0  0  0  0  0  0  0  0
    7.0449    0.1163   18.5547 C   0  0  0  0  0  0  0  0  0  0  0  0
    7.9514   -0.4702   18.4228 H   0  0  0  0  0  0  0  0  0  0  0  0
    5.0523    1.8792   16.6800 H   0  0  0  0  0  0  0  0  0  0  0  0
    3.8148    2.1045   18.8222 H   0  0  0  0  0  0  0  0  0  0  0  0
    4.7169    0.9954   20.8974 H   0  0  0  0  0  0  0  0  0  0  0  0
    6.8472    1.9235   22.0366 H   0  0  0  0  0  0  0  0  0  0  0  0
    6.3861    1.1881   23.5835 H   0  0  0  0  0  0  0  0  0  0  0  0
    7.8105    1.3194   25.4438 H   0  0  0  0  0  0  0  0  0  0  0  0
   10.0652    1.4791   26.4440 H   0  0  0  0  0  0  0  0  0  0  0  0
   12.0195    2.1157   25.0284 H   0  0  0  0  0  0  0  0  0  0  0  0
   11.7032    2.3521   22.5523 H   0  0  0  0  0  0  0  0  0  0  0  0
    8.6980    2.9423   20.9060 H   0  0  0  0  0  0  0  0  0  0  0  0
   10.4009    2.5203   20.6942 H   0  0  0  0  0  0  0  0  0  0  0  0
    9.1548    1.2671   20.6012 H   0  0  0  0  0  0  0  0  0  0  0  0
  1  2  1  0
  2  3  2  0
  3  4  1  0
  4  5  2  0
  5  6  1  0
  6  7  2  0
  7  8  1  0
  8  9  1  0
  9 10  1  0
 10 11  2  0
 11 12  1  0
 12 13  1  0
 13 14  1  0
 14 15  1  0
 14 16  1  0
 14 17  1  0
 13 18  1  0
 18 19  1  0
 18 20  1  0
 18 21  1  0
 13 22  1  0
 12 23  1  0
 12 24  1  0
 11 25  1  0
 25 26  2  0
 26 27  1  0
 27 28  2  0
 28 29  1  0
 29 30  2  0
 30 31  1  0
 31 32  2  0
 32 33  1  0
 30 34  1  0
 29 35  1  0
 28 36  1  0
  8 37  1  0
  8 38  1  0
  6 39  1  0
  5 40  1  0
  4 41  1  0
  3 42  1  0
  1 43  1  0
  1 44  1  0
  1 45  1  0
  7  2  1  0
 26  9  1  0
 32 27  1  0
M  END
>  <cnnaffinity>  (1) 
-5.67664

>  <filename>  (1) 
Cc1ccccc1Cn1nc(CC(C)C)nc1-c1cccnc1

$$$$
