
     RDKit          3D

 44 47  0  0  0  0  0  0  0  0999 V2000
   13.3848    3.5132   22.5138 C   0  0  0  0  0  0  0  0  0  0  0  0
   12.0586    2.8157   22.7116 C   0  0  0  0  0  0  0  0  0  0  0  0
   11.1758    2.5868   21.6501 C   0  0  0  0  0  0  0  0  0  0  0  0
    9.8676    2.1212   21.8771 C   0  0  0  0  0  0  0  0  0  0  0  0
    9.4374    1.9166   23.1902 C   0  0  0  0  0  0  0  0  0  0  0  0
    8.1344    1.6893   23.5700 O   0  0  0  0  0  0  0  0  0  0  0  0
    7.1733    1.1641   22.6837 C   0  0  0  0  0  0  0  0  0  0  0  0
    7.4736   -0.2270   22.2033 C   0  0  0  0  0  0  0  0  0  0  0  0
    8.0311   -1.1909   22.9080 N   0  0  0  0  0  0  0  0  0  0  0  0
    8.1590   -2.1944   22.0062 C   0  0  0  0  0  0  0  0  0  0  0  0
    8.8279   -3.4678   22.3642 C   0  0  0  0  0  0  0  0  0  0  0  0
    8.1586   -4.7930   22.1030 C   0  0  0  0  0  0  0  0  0  0  0  0
    8.3470   -4.3182   23.5144 C   0  0  0  0  0  0  0  0  0  0  0  0
    9.1131   -4.7999   24.1200 H   0  0  0  0  0  0  0  0  0  0  0  0
    7.4809   -3.9797   24.0800 H   0  0  0  0  0  0  0  0  0  0  0  0
    7.1555   -4.7548   21.6828 H   0  0  0  0  0  0  0  0  0  0  0  0
    8.7470   -5.6339   21.7467 H   0  0  0  0  0  0  0  0  0  0  0  0
    9.9097   -3.3689   22.2739 H   0  0  0  0  0  0  0  0  0  0  0  0
    7.7201   -1.9147   20.7923 N   0  0  0  0  0  0  0  0  0  0  0  0
    7.2340   -0.6542   20.9280 N   0  0  0  0  0  0  0  0  0  0  0  0
    6.5652   -0.0113   19.8533 C   0  0  0  0  0  0  0  0  0  0  0  0
    5.3499    0.6629   20.0398 C   0  0  0  0  0  0  0  0  0  0  0  0
    4.7946    1.3370   18.9493 C   0  0  0  0  0  0  0  0  0  0  0  0
    5.4553    1.2971   17.7171 C   0  0  0  0  0  0  0  0  0  0  0  0
    6.5894    0.6034   17.5188 N   0  0  0  0  0  0  0  0  0  0  0  0
    7.1203   -0.0459   18.5583 C   0  0  0  0  0  0  0  0  0  0  0  0
    8.0353   -0.6031   18.3722 H   0  0  0  0  0  0  0  0  0  0  0  0
    5.0541    1.8313   16.8581 H   0  0  0  0  0  0  0  0  0  0  0  0
    3.8764    1.9010   19.0525 H   0  0  0  0  0  0  0  0  0  0  0  0
    4.8526    0.6564   21.0103 H   0  0  0  0  0  0  0  0  0  0  0  0
    7.0095    1.8537   21.8464 H   0  0  0  0  0  0  0  0  0  0  0  0
    6.2593    1.1308   23.2840 H   0  0  0  0  0  0  0  0  0  0  0  0
   10.3568    1.9619   24.2634 C   0  0  0  0  0  0  0  0  0  0  0  0
    9.8874    1.6171   25.6592 C   0  0  0  0  0  0  0  0  0  0  0  0
    9.2872    2.4449   26.0598 H   0  0  0  0  0  0  0  0  0  0  0  0
    9.2372    0.7309   25.6489 H   0  0  0  0  0  0  0  0  0  0  0  0
   10.7218    1.4380   26.3414 H   0  0  0  0  0  0  0  0  0  0  0  0
   11.6568    2.3897   23.9967 C   0  0  0  0  0  0  0  0  0  0  0  0
   12.3730    2.3422   24.8141 H   0  0  0  0  0  0  0  0  0  0  0  0
    9.1910    1.9335   21.0521 H   0  0  0  0  0  0  0  0  0  0  0  0
   11.4943    2.7921   20.6290 H   0  0  0  0  0  0  0  0  0  0  0  0
   13.5107    4.3163   23.2507 H   0  0  0  0  0  0  0  0  0  0  0  0
   13.4581    3.9825   21.5249 H   0  0  0  0  0  0  0  0  0  0  0  0
   14.2253    2.8186   22.6422 H   0  0  0  0  0  0  0  0  0  0  0  0
  1  2  1  0
  2  3  2  0
  3  4  1  0
  4  5  2  0
  5  6  1  0
  6  7  1  0
  7  8  1  0
  8  9  2  0
  9 10  1  0
 10 11  1  0
 11 12  1  0
 12 13  1  0
 13 14  1  0
 13 15  1  0
 12 16  1  0
 12 17  1  0
 11 18  1  0
 10 19  2  0
 19 20  1  0
 20 21  1  0
 21 22  2  0
 22 23  1  0
 23 24  2  0
 24 25  1  0
 25 26  2  0
 26 27  1  0
 24 28  1  0
 23 29  1  0
 22 30  1  0
  7 31  1  0
  7 32  1  0
  5 33  1  0
 33 34  1  0
 34 35  1  0
 34 36  1  0
 34 37  1  0
 33 38  2  0
 38 39  1  0
  4 40  1  0
  3 41  1  0
  1 42  1  0
  1 43  1  0
  1 44  1  0
 38  2  1  0
 20  8  1  0
 26 21  1  0
 13 11  1  0
M  END
>  <cnnaffinity>  (1) 
-5.64126

>  <filename>  (1) 
Cc1ccc(OCc2nc(C3CC3)nn2-c2cccnc2)c(C)c1

$$$$
