
     RDKit          3D

 43 46  0  0  0  0  0  0  0  0999 V2000
    6.8066   -6.0471   26.8101 C   0  0  0  0  0  0  0  0  0  0  0  0
    6.9696   -5.0186   25.7280 C   0  0  0  0  0  0  0  0  0  0  0  0
    5.9490   -4.7340   24.8058 C   0  0  0  0  0  0  0  0  0  0  0  0
    6.1457   -3.8162   23.7712 C   0  0  0  0  0  0  0  0  0  0  0  0
    7.3894   -3.1653   23.6459 C   0  0  0  0  0  0  0  0  0  0  0  0
    7.6631   -2.1395   22.6255 C   0  0  0  0  0  0  0  0  0  0  0  0
    6.8459   -1.7788   21.6549 N   0  0  0  0  0  0  0  0  0  0  0  0
    7.5251   -0.7776   21.0281 N   0  0  0  0  0  0  0  0  0  0  0  0
    6.8541   -0.0814   19.9632 C   0  0  0  0  0  0  0  0  0  0  0  0
    5.6445    0.5819   20.2244 C   0  0  0  0  0  0  0  0  0  0  0  0
    5.0236    1.2610   19.1727 C   0  0  0  0  0  0  0  0  0  0  0  0
    5.6081    1.2264   17.9007 C   0  0  0  0  0  0  0  0  0  0  0  0
    6.7440    0.5644   17.6331 N   0  0  0  0  0  0  0  0  0  0  0  0
    7.3466   -0.0740   18.6465 C   0  0  0  0  0  0  0  0  0  0  0  0
    8.2562   -0.6183   18.3963 H   0  0  0  0  0  0  0  0  0  0  0  0
    5.1422    1.7437   17.0644 H   0  0  0  0  0  0  0  0  0  0  0  0
    4.0899    1.7977   19.3199 H   0  0  0  0  0  0  0  0  0  0  0  0
    5.1958    0.5422   21.2214 H   0  0  0  0  0  0  0  0  0  0  0  0
    8.7086   -0.5768   21.6950 C   0  0  0  0  0  0  0  0  0  0  0  0
    9.7210    0.4930   21.5027 C   0  0  0  0  0  0  0  0  0  0  0  0
    9.1321    1.7864   21.9358 C   0  0  0  0  0  0  0  0  0  0  0  0
    9.2362    2.2385   23.1593 N   0  0  0  0  0  0  0  0  0  0  0  0
    8.4615    3.3499   23.1936 N   0  0  0  0  0  0  0  0  0  0  0  0
    8.2529    4.1167   24.4024 C   0  0  0  0  0  0  0  0  0  0  0  0
    7.0215    3.8468   24.9202 F   0  0  0  0  0  0  0  0  0  0  0  0
    9.1903    3.8000   25.3124 F   0  0  0  0  0  0  0  0  0  0  0  0
    8.2918    5.1855   24.1792 H   0  0  0  0  0  0  0  0  0  0  0  0
    7.8851    3.5943   21.9792 C   0  0  0  0  0  0  0  0  0  0  0  0
    8.3026    2.5900   21.1547 C   0  0  0  0  0  0  0  0  0  0  0  0
    8.0890    2.3519   20.1291 H   0  0  0  0  0  0  0  0  0  0  0  0
    7.2356    4.4478   21.8071 H   0  0  0  0  0  0  0  0  0  0  0  0
   10.0259    0.5259   20.4592 H   0  0  0  0  0  0  0  0  0  0  0  0
   10.5678    0.2519   22.1507 H   0  0  0  0  0  0  0  0  0  0  0  0
    8.8180   -1.4235   22.6761 N   0  0  0  0  0  0  0  0  0  0  0  0
    8.4118   -3.4552   24.5692 C   0  0  0  0  0  0  0  0  0  0  0  0
    8.1983   -4.3631   25.5936 C   0  0  0  0  0  0  0  0  0  0  0  0
    8.9948   -4.5642   26.3054 H   0  0  0  0  0  0  0  0  0  0  0  0
    9.3689   -2.9481   24.4810 H   0  0  0  0  0  0  0  0  0  0  0  0
    5.3409   -3.5947   23.0714 H   0  0  0  0  0  0  0  0  0  0  0  0
    4.9925   -5.2403   24.9128 H   0  0  0  0  0  0  0  0  0  0  0  0
    7.4672   -5.8472   27.6593 H   0  0  0  0  0  0  0  0  0  0  0  0
    5.7815   -6.1215   27.1809 H   0  0  0  0  0  0  0  0  0  0  0  0
    7.0834   -7.0229   26.4132 H   0  0  0  0  0  0  0  0  0  0  0  0
  1  2  1  0
  2  3  2  0
  3  4  1  0
  4  5  2  0
  5  6  1  0
  6  7  2  0
  7  8  1  0
  8  9  1  0
  9 10  2  0
 10 11  1  0
 11 12  2  0
 12 13  1  0
 13 14  2  0
 14 15  1  0
 12 16  1  0
 11 17  1  0
 10 18  1  0
  8 19  1  0
 19 20  1  0
 20 21  1  0
 21 22  2  0
 22 23  1  0
 23 24  1  0
 24 25  1  0
 24 26  1  0
 24 27  1  0
 23 28  1  0
 28 29  2  0
 29 30  1  0
 28 31  1  0
 20 32  1  0
 20 33  1  0
 19 34  2  0
  5 35  1  0
 35 36  2  0
 36 37  1  0
 35 38  1  0
  4 39  1  0
  3 40  1  0
  1 41  1  0
  1 42  1  0
  1 43  1  0
 36  2  1  0
 34  6  1  0
 14  9  1  0
 29 21  1  0
M  END
>  <cnnaffinity>  (1) 
-5.99022

>  <filename>  (1) 
Cc1ccc(-c2nc(Cc3ccn(C(F)F)n3)n(-c3cccnc3)n2)cc1

$$$$
