
     RDKit          3D

 45 48  0  0  0  0  0  0  0  0999 V2000
   16.0439   -0.2366   19.6458 C   0  0  0  0  0  0  0  0  0  0  0  0
   14.7589   -0.8136   20.5102 C   0  0  0  0  0  0  0  0  0  0  0  0
   13.9641   -1.9166   20.2750 C   0  0  0  0  0  0  0  0  0  0  0  0
   12.5976   -1.6145   20.5446 C   0  0  0  0  0  0  0  0  0  0  0  0
   12.1839   -0.8496   21.6564 C   0  0  0  0  0  0  0  0  0  0  0  0
   10.7567   -0.4975   21.8623 C   0  0  0  0  0  0  0  0  0  0  0  0
    9.7562   -1.0764   21.2144 N   0  0  0  0  0  0  0  0  0  0  0  0
    8.6823   -0.3477   21.5920 N   0  0  0  0  0  0  0  0  0  0  0  0
    7.3376   -0.7252   21.1865 C   0  0  0  0  0  0  0  0  0  0  0  0
    6.7513    0.0941   20.0521 C   0  0  0  0  0  0  0  0  0  0  0  0
    5.5082    0.7271   20.1719 C   0  0  0  0  0  0  0  0  0  0  0  0
    4.9384    1.3195   19.0420 C   0  0  0  0  0  0  0  0  0  0  0  0
    5.6511    1.2862   17.8396 C   0  0  0  0  0  0  0  0  0  0  0  0
    6.8658    0.7275   17.7157 N   0  0  0  0  0  0  0  0  0  0  0  0
    7.4005    0.1645   18.8076 C   0  0  0  0  0  0  0  0  0  0  0  0
    8.3896   -0.2784   18.6893 H   0  0  0  0  0  0  0  0  0  0  0  0
    5.2279    1.7233   16.9357 H   0  0  0  0  0  0  0  0  0  0  0  0
    3.9710    1.8082   19.0821 H   0  0  0  0  0  0  0  0  0  0  0  0
    4.9900    0.7501   21.1351 H   0  0  0  0  0  0  0  0  0  0  0  0
    7.3887   -1.7908   20.9305 H   0  0  0  0  0  0  0  0  0  0  0  0
    6.7037   -0.6190   22.0729 H   0  0  0  0  0  0  0  0  0  0  0  0
    9.0830    0.6580   22.3962 C   0  0  0  0  0  0  0  0  0  0  0  0
    8.1901    1.6850   23.0130 C   0  0  0  0  0  0  0  0  0  0  0  0
    7.7622    1.1935   24.3576 C   0  0  0  0  0  0  0  0  0  0  0  0
    8.3433    1.2704   25.5743 C   0  0  0  0  0  0  0  0  0  0  0  0
    7.6346    0.4666   26.4235 O   0  0  0  0  0  0  0  0  0  0  0  0
    6.6534   -0.0663   25.6619 C   0  0  0  0  0  0  0  0  0  0  0  0
    5.7890   -1.0767   26.3270 C   0  0  0  0  0  0  0  0  0  0  0  0
    5.8505   -0.9594   27.4087 H   0  0  0  0  0  0  0  0  0  0  0  0
    6.1454   -2.0766   26.0604 H   0  0  0  0  0  0  0  0  0  0  0  0
    4.7560   -0.9848   25.9977 H   0  0  0  0  0  0  0  0  0  0  0  0
    6.6816    0.3252   24.4279 N   0  0  0  0  0  0  0  0  0  0  0  0
    9.2234    1.7572   25.9694 H   0  0  0  0  0  0  0  0  0  0  0  0
    8.7434    2.6254   23.0748 H   0  0  0  0  0  0  0  0  0  0  0  0
    7.3078    1.8406   22.3858 H   0  0  0  0  0  0  0  0  0  0  0  0
   10.3717    0.5778   22.6177 N   0  0  0  0  0  0  0  0  0  0  0  0
   13.1967   -0.1047   22.2915 C   0  0  0  0  0  0  0  0  0  0  0  0
   14.4486   -0.0351   21.6993 C   0  0  0  0  0  0  0  0  0  0  0  0
   15.1702    0.6771   22.0948 H   0  0  0  0  0  0  0  0  0  0  0  0
   12.9725    0.5011   23.1669 H   0  0  0  0  0  0  0  0  0  0  0  0
   12.3410   -0.9735   19.6895 H   0  0  0  0  0  0  0  0  0  0  0  0
   14.2988   -2.7710   19.6856 H   0  0  0  0  0  0  0  0  0  0  0  0
   16.3366    0.6698   20.1549 H   0  0  0  0  0  0  0  0  0  0  0  0
   16.8691   -0.9431   19.6568 H   0  0  0  0  0  0  0  0  0  0  0  0
   15.9423    0.1625   18.6200 H   0  0  0  0  0  0  0  0  0  0  0  0
  1  2  1  0
  2  3  2  0
  3  4  1  0
  4  5  2  0
  5  6  1  0
  6  7  2  0
  7  8  1  0
  8  9  1  0
  9 10  1  0
 10 11  2  0
 11 12  1  0
 12 13  2  0
 13 14  1  0
 14 15  2  0
 15 16  1  0
 13 17  1  0
 12 18  1  0
 11 19  1  0
  9 20  1  0
  9 21  1  0
  8 22  1  0
 22 23  1  0
 23 24  1  0
 24 25  2  0
 25 26  1  0
 26 27  1  0
 27 28  1  0
 28 29  1  0
 28 30  1  0
 28 31  1  0
 27 32  2  0
 25 33  1  0
 23 34  1  0
 23 35  1  0
 22 36  2  0
  5 37  1  0
 37 38  2  0
 38 39  1  0
 37 40  1  0
  4 41  1  0
  3 42  1  0
  1 43  1  0
  1 44  1  0
  1 45  1  0
 38  2  1  0
 36  6  1  0
 15 10  1  0
 32 24  1  0
M  END
>  <cnnaffinity>  (1) 
-6.44197

>  <filename>  (1) 
Cc1ccc(-c2nc(Cc3coc(C)n3)n(Cc3cccnc3)n2)cc1

$$$$
