
     RDKit          3D

 45 48  0  0  0  0  0  0  0  0999 V2000
    2.6967    2.6582   26.6354 C   0  0  0  0  0  0  0  0  0  0  0  0
    4.0999    2.5774   26.1410 C   0  0  0  0  0  0  0  0  0  0  0  0
    4.9933    3.4735   26.4773 N   0  0  0  0  0  0  0  0  0  0  0  0
    6.1740    3.0722   25.8805 O   0  0  0  0  0  0  0  0  0  0  0  0
    5.9653    1.9370   25.2014 C   0  0  0  0  0  0  0  0  0  0  0  0
    7.1123    1.2975   24.5081 C   0  0  0  0  0  0  0  0  0  0  0  0
    7.4177    1.8218   23.0758 C   0  0  0  0  0  0  0  0  0  0  0  0
    8.4034    0.9368   22.3955 C   0  0  0  0  0  0  0  0  0  0  0  0
    9.7128    1.0043   22.5619 N   0  0  0  0  0  0  0  0  0  0  0  0
   10.1647   -0.1133   21.9469 C   0  0  0  0  0  0  0  0  0  0  0  0
   11.5759   -0.5164   21.8103 C   0  0  0  0  0  0  0  0  0  0  0  0
   12.6529    0.2445   22.3106 C   0  0  0  0  0  0  0  0  0  0  0  0
   13.9648   -0.1413   22.0202 C   0  0  0  0  0  0  0  0  0  0  0  0
   14.1892   -1.2655   21.2164 C   0  0  0  0  0  0  0  0  0  0  0  0
   13.1295   -2.0183   20.7326 C   0  0  0  0  0  0  0  0  0  0  0  0
   11.8289   -1.6925   21.0877 C   0  0  0  0  0  0  0  0  0  0  0  0
   10.9708   -2.2993   20.8036 H   0  0  0  0  0  0  0  0  0  0  0  0
   13.3406   -2.8441   20.0635 H   0  0  0  0  0  0  0  0  0  0  0  0
   15.1595   -1.6134   20.9248 H   0  0  0  0  0  0  0  0  0  0  0  0
   14.7943    0.4649   22.3720 H   0  0  0  0  0  0  0  0  0  0  0  0
   12.4765    1.1490   22.8893 H   0  0  0  0  0  0  0  0  0  0  0  0
    9.2005   -0.8542   21.4161 N   0  0  0  0  0  0  0  0  0  0  0  0
    8.0748   -0.1893   21.7187 N   0  0  0  0  0  0  0  0  0  0  0  0
    6.8121   -0.6716   21.1641 C   0  0  0  0  0  0  0  0  0  0  0  0
    6.3232    0.1184   19.9676 C   0  0  0  0  0  0  0  0  0  0  0  0
    5.1111    0.8138   19.9750 C   0  0  0  0  0  0  0  0  0  0  0  0
    4.7061    1.4848   18.8201 C   0  0  0  0  0  0  0  0  0  0  0  0
    5.5316    1.4361   17.6944 C   0  0  0  0  0  0  0  0  0  0  0  0
    6.7057    0.7878   17.6676 N   0  0  0  0  0  0  0  0  0  0  0  0
    7.0895    0.1657   18.7887 C   0  0  0  0  0  0  0  0  0  0  0  0
    8.0572   -0.3318   18.7468 H   0  0  0  0  0  0  0  0  0  0  0  0
    5.2404    1.9412   16.7757 H   0  0  0  0  0  0  0  0  0  0  0  0
    3.7838    2.0532   18.7853 H   0  0  0  0  0  0  0  0  0  0  0  0
    4.4925    0.8361   20.8739 H   0  0  0  0  0  0  0  0  0  0  0  0
    6.0565   -0.6894   21.9558 H   0  0  0  0  0  0  0  0  0  0  0  0
    7.0030   -1.7146   20.8897 H   0  0  0  0  0  0  0  0  0  0  0  0
    7.8629    2.8188   23.1214 H   0  0  0  0  0  0  0  0  0  0  0  0
    6.5126    1.8942   22.4606 H   0  0  0  0  0  0  0  0  0  0  0  0
    8.0123    1.4006   25.1227 H   0  0  0  0  0  0  0  0  0  0  0  0
    6.8887    0.2247   24.4554 H   0  0  0  0  0  0  0  0  0  0  0  0
    4.6649    1.5721   25.3099 C   0  0  0  0  0  0  0  0  0  0  0  0
    4.1800    0.7194   24.8611 H   0  0  0  0  0  0  0  0  0  0  0  0
    1.9971    2.6208   25.7969 H   0  0  0  0  0  0  0  0  0  0  0  0
    2.4790    1.8042   27.2839 H   0  0  0  0  0  0  0  0  0  0  0  0
    2.5379    3.5799   27.1987 H   0  0  0  0  0  0  0  0  0  0  0  0
  1  2  1  0
  2  3  2  0
  3  4  1  0
  4  5  1  0
  5  6  1  0
  6  7  1  0
  7  8  1  0
  8  9  2  0
  9 10  1  0
 10 11  1  0
 11 12  2  0
 12 13  1  0
 13 14  2  0
 14 15  1  0
 15 16  2  0
 16 17  1  0
 15 18  1  0
 14 19  1  0
 13 20  1  0
 12 21  1  0
 10 22  2  0
 22 23  1  0
 23 24  1  0
 24 25  1  0
 25 26  2  0
 26 27  1  0
 27 28  2  0
 28 29  1  0
 29 30  2  0
 30 31  1  0
 28 32  1  0
 27 33  1  0
 26 34  1  0
 24 35  1  0
 24 36  1  0
  7 37  1  0
  7 38  1  0
  6 39  1  0
  6 40  1  0
  5 41  2  0
 41 42  1  0
  1 43  1  0
  1 44  1  0
  1 45  1  0
 41  2  1  0
 23  8  1  0
 30 25  1  0
 16 11  1  0
M  END
>  <cnnaffinity>  (1) 
-6.34118

>  <filename>  (1) 
Cc1cc(CCc2nc(-c3ccccc3)nn2Cc2cccnc2)on1

$$$$
