
     RDKit          3D

 35 38  0  0  0  0  0  0  0  0999 V2000
    6.9323    3.5220   23.2989 C   0  0  0  0  0  0  0  0  0  0  0  0
    6.2135    3.0878   24.5514 C   0  0  0  0  0  0  0  0  0  0  0  0
    5.4489    4.0032   25.3034 C   0  0  0  0  0  0  0  0  0  0  0  0
    5.2350    5.6477   24.7520 Cl  0  0  0  0  0  0  0  0  0  0  0  0
    4.8151    3.6558   26.4970 C   0  0  0  0  0  0  0  0  0  0  0  0
    4.9308    2.3478   26.9643 C   0  0  0  0  0  0  0  0  0  0  0  0
    5.6529    1.4042   26.2364 C   0  0  0  0  0  0  0  0  0  0  0  0
    6.2711    1.7464   25.0174 C   0  0  0  0  0  0  0  0  0  0  0  0
    6.9774    0.6642   24.2379 C   0  0  0  0  0  0  0  0  0  0  0  0
    6.7440    0.5940   22.9302 N   0  0  0  0  0  0  0  0  0  0  0  0
    7.3773   -0.4089   22.2697 N   0  0  0  0  0  0  0  0  0  0  0  0
    7.3991   -0.6946   20.9228 C   0  0  0  0  0  0  0  0  0  0  0  0
    6.6481    0.0203   19.8938 C   0  0  0  0  0  0  0  0  0  0  0  0
    5.4305    0.6577   20.1621 C   0  0  0  0  0  0  0  0  0  0  0  0
    4.8017    1.3075   19.1041 C   0  0  0  0  0  0  0  0  0  0  0  0
    5.4034    1.2915   17.8383 C   0  0  0  0  0  0  0  0  0  0  0  0
    6.5678    0.6779   17.5714 N   0  0  0  0  0  0  0  0  0  0  0  0
    7.1696    0.0581   18.5869 C   0  0  0  0  0  0  0  0  0  0  0  0
    8.1176   -0.4335   18.3723 H   0  0  0  0  0  0  0  0  0  0  0  0
    4.9176    1.7792   16.9980 H   0  0  0  0  0  0  0  0  0  0  0  0
    3.8715    1.8432   19.2587 H   0  0  0  0  0  0  0  0  0  0  0  0
    5.0134    0.6382   21.1736 H   0  0  0  0  0  0  0  0  0  0  0  0
    8.2098   -1.7066   20.7052 N   0  0  0  0  0  0  0  0  0  0  0  0
    8.7326   -2.1172   21.8804 N   0  0  0  0  0  0  0  0  0  0  0  0
    8.2507   -1.3304   22.8246 C   0  0  0  0  0  0  0  0  0  0  0  0
    8.4925   -1.2552   24.2287 C   0  0  0  0  0  0  0  0  0  0  0  0
    7.8477   -0.2716   24.9223 C   0  0  0  0  0  0  0  0  0  0  0  0
    8.0155   -0.1578   25.9891 H   0  0  0  0  0  0  0  0  0  0  0  0
    9.1767   -1.9797   24.6629 H   0  0  0  0  0  0  0  0  0  0  0  0
    5.7080    0.3839   26.6126 H   0  0  0  0  0  0  0  0  0  0  0  0
    4.4479    2.0684   27.8960 H   0  0  0  0  0  0  0  0  0  0  0  0
    4.2417    4.4027   27.0406 H   0  0  0  0  0  0  0  0  0  0  0  0
    6.3008    3.3211   22.4297 H   0  0  0  0  0  0  0  0  0  0  0  0
    7.1687    4.5873   23.3090 H   0  0  0  0  0  0  0  0  0  0  0  0
    7.8512    2.9525   23.1473 H   0  0  0  0  0  0  0  0  0  0  0  0
  1  2  1  0
  2  3  2  0
  3  4  1  0
  3  5  1  0
  5  6  2  0
  6  7  1  0
  7  8  2  0
  8  9  1  0
  9 10  2  0
 10 11  1  0
 11 12  1  0
 12 13  1  0
 13 14  2  0
 14 15  1  0
 15 16  2  0
 16 17  1  0
 17 18  2  0
 18 19  1  0
 16 20  1  0
 15 21  1  0
 14 22  1  0
 12 23  2  0
 23 24  1  0
 24 25  2  0
 25 26  1  0
 26 27  2  0
 27 28  1  0
 26 29  1  0
  7 30  1  0
  6 31  1  0
  5 32  1  0
  1 33  1  0
  1 34  1  0
  1 35  1  0
  8  2  1  0
 27  9  1  0
 25 11  1  0
 18 13  1  0
M  END
>  <cnnaffinity>  (1) 
-5.49667

>  <filename>  (1) 
Cc1c(Cl)cccc1-c1ccc2nnc(-c3cccnc3)n2n1

$$$$
