
     RDKit          3D

 46 49  0  0  0  0  0  0  0  0999 V2000
   11.0725    3.1777   24.1731 C   0  0  0  0  0  0  0  0  0  0  0  0
   11.4511    2.0134   23.3045 C   0  0  0  0  0  0  0  0  0  0  0  0
   12.5809    1.2486   23.4254 C   0  0  0  0  0  0  0  0  0  0  0  0
   12.8023    0.1254   22.5670 C   0  0  0  0  0  0  0  0  0  0  0  0
   11.8664   -0.2035   21.6367 C   0  0  0  0  0  0  0  0  0  0  0  0
   10.7165    0.5295   21.4843 N   0  0  0  0  0  0  0  0  0  0  0  0
    9.6205    0.0453   20.6272 C   0  0  0  0  0  0  0  0  0  0  0  0
    8.5507   -0.7365   21.3581 C   0  0  0  0  0  0  0  0  0  0  0  0
    8.7335   -1.4791   22.4271 N   0  0  0  0  0  0  0  0  0  0  0  0
    7.5097   -2.0332   22.6569 C   0  0  0  0  0  0  0  0  0  0  0  0
    7.2395   -2.9560   23.8206 C   0  0  0  0  0  0  0  0  0  0  0  0
    8.3089   -4.0698   23.9705 C   0  0  0  0  0  0  0  0  0  0  0  0
    9.4592   -3.4412   24.7934 C   0  0  0  0  0  0  0  0  0  0  0  0
    8.8604   -2.1965   25.4897 C   0  0  0  0  0  0  0  0  0  0  0  0
    7.3501   -2.2215   25.1824 C   0  0  0  0  0  0  0  0  0  0  0  0
    6.8119   -2.7974   25.9487 H   0  0  0  0  0  0  0  0  0  0  0  0
    6.9029   -1.2191   25.1633 H   0  0  0  0  0  0  0  0  0  0  0  0
    9.3053   -1.2926   25.0611 H   0  0  0  0  0  0  0  0  0  0  0  0
    9.0568   -2.1767   26.5697 H   0  0  0  0  0  0  0  0  0  0  0  0
   10.2770   -3.1442   24.1306 H   0  0  0  0  0  0  0  0  0  0  0  0
    9.8696   -4.1620   25.5136 H   0  0  0  0  0  0  0  0  0  0  0  0
    8.6492   -4.4725   23.0080 H   0  0  0  0  0  0  0  0  0  0  0  0
    7.8656   -4.9089   24.5229 H   0  0  0  0  0  0  0  0  0  0  0  0
    6.2388   -3.3667   23.6556 H   0  0  0  0  0  0  0  0  0  0  0  0
    6.5868   -1.6733   21.7850 N   0  0  0  0  0  0  0  0  0  0  0  0
    7.2575   -0.8528   20.9250 N   0  0  0  0  0  0  0  0  0  0  0  0
    6.5789   -0.1584   19.8772 C   0  0  0  0  0  0  0  0  0  0  0  0
    5.4023    0.5546   20.1358 C   0  0  0  0  0  0  0  0  0  0  0  0
    4.8336    1.2940   19.0936 C   0  0  0  0  0  0  0  0  0  0  0  0
    5.4522    1.2960   17.8371 C   0  0  0  0  0  0  0  0  0  0  0  0
    6.5583    0.5886   17.5683 N   0  0  0  0  0  0  0  0  0  0  0  0
    7.0970   -0.1229   18.5670 C   0  0  0  0  0  0  0  0  0  0  0  0
    7.9919   -0.6885   18.3168 H   0  0  0  0  0  0  0  0  0  0  0  0
    5.0319    1.8732   17.0152 H   0  0  0  0  0  0  0  0  0  0  0  0
    3.9279    1.8689   19.2455 H   0  0  0  0  0  0  0  0  0  0  0  0
    4.9567    0.5250   21.1307 H   0  0  0  0  0  0  0  0  0  0  0  0
   10.0247   -0.6188   19.8556 H   0  0  0  0  0  0  0  0  0  0  0  0
    9.1828    0.9144   20.1313 H   0  0  0  0  0  0  0  0  0  0  0  0
   10.4475    1.6730   22.2827 C   0  0  0  0  0  0  0  0  0  0  0  0
    9.4079    2.3006   22.1051 O   0  0  0  0  0  0  0  0  0  0  0  0
   11.9853   -1.0374   20.9401 H   0  0  0  0  0  0  0  0  0  0  0  0
   13.7100   -0.4631   22.6393 H   0  0  0  0  0  0  0  0  0  0  0  0
   13.3437    1.4943   24.1664 H   0  0  0  0  0  0  0  0  0  0  0  0
   10.3466    2.8541   24.9299 H   0  0  0  0  0  0  0  0  0  0  0  0
   11.9193    3.6528   24.6722 H   0  0  0  0  0  0  0  0  0  0  0  0
   10.5554    3.9369   23.5753 H   0  0  0  0  0  0  0  0  0  0  0  0
  1  2  1  0
  2  3  2  0
  3  4  1  0
  4  5  2  0
  5  6  1  0
  6  7  1  0
  7  8  1  0
  8  9  2  0
  9 10  1  0
 10 11  1  0
 11 12  1  0
 12 13  1  0
 13 14  1  0
 14 15  1  0
 15 16  1  0
 15 17  1  0
 14 18  1  0
 14 19  1  0
 13 20  1  0
 13 21  1  0
 12 22  1  0
 12 23  1  0
 11 24  1  0
 10 25  2  0
 25 26  1  0
 26 27  1  0
 27 28  2  0
 28 29  1  0
 29 30  2  0
 30 31  1  0
 31 32  2  0
 32 33  1  0
 30 34  1  0
 29 35  1  0
 28 36  1  0
  7 37  1  0
  7 38  1  0
  6 39  1  0
 39 40  2  0
  5 41  1  0
  4 42  1  0
  3 43  1  0
  1 44  1  0
  1 45  1  0
  1 46  1  0
 39  2  1  0
 26  8  1  0
 32 27  1  0
 15 11  1  0
M  END
>  <cnnaffinity>  (1) 
-6.65256

>  <filename>  (1) 
Cc1cccn(Cc2nc(C3CCCC3)nn2-c2cccnc2)c1=O

$$$$
