
     RDKit          3D

 42 45  0  0  0  0  0  0  0  0999 V2000
   16.0234   -0.3223   19.6552 C   0  0  0  0  0  0  0  0  0  0  0  0
   14.7193   -0.7872   20.5357 C   0  0  0  0  0  0  0  0  0  0  0  0
   14.4423    0.0926   21.6455 C   0  0  0  0  0  0  0  0  0  0  0  0
   13.1588    0.2866   22.1404 C   0  0  0  0  0  0  0  0  0  0  0  0
   12.1109   -0.5027   21.6307 C   0  0  0  0  0  0  0  0  0  0  0  0
   10.6777   -0.1284   21.7417 C   0  0  0  0  0  0  0  0  0  0  0  0
    9.7145   -0.9041   21.2598 N   0  0  0  0  0  0  0  0  0  0  0  0
    8.5913   -0.1942   21.4838 N   0  0  0  0  0  0  0  0  0  0  0  0
    7.2922   -0.7083   21.0571 C   0  0  0  0  0  0  0  0  0  0  0  0
    6.5932    0.0625   19.9472 C   0  0  0  0  0  0  0  0  0  0  0  0
    5.3557    0.7006   20.1161 C   0  0  0  0  0  0  0  0  0  0  0  0
    4.7692    1.3513   19.0259 C   0  0  0  0  0  0  0  0  0  0  0  0
    5.4360    1.3328   17.7977 C   0  0  0  0  0  0  0  0  0  0  0  0
    6.6119    0.7134   17.6071 N   0  0  0  0  0  0  0  0  0  0  0  0
    7.1646    0.1030   18.6624 C   0  0  0  0  0  0  0  0  0  0  0  0
    8.1113   -0.4019   18.4741 H   0  0  0  0  0  0  0  0  0  0  0  0
    5.0104    1.8352   16.9299 H   0  0  0  0  0  0  0  0  0  0  0  0
    3.8231    1.8760   19.1132 H   0  0  0  0  0  0  0  0  0  0  0  0
    4.8454    0.6865   21.0831 H   0  0  0  0  0  0  0  0  0  0  0  0
    7.4971   -1.7304   20.7311 H   0  0  0  0  0  0  0  0  0  0  0  0
    6.6453   -0.7744   21.9378 H   0  0  0  0  0  0  0  0  0  0  0  0
    8.9127    0.9477   22.1268 C   0  0  0  0  0  0  0  0  0  0  0  0
    7.8669    1.7957   22.8092 C   0  0  0  0  0  0  0  0  0  0  0  0
    7.4311    1.1844   24.1330 C   0  0  0  0  0  0  0  0  0  0  0  0
    6.2711    0.5688   24.5013 C   0  0  0  0  0  0  0  0  0  0  0  0
    6.2664   -0.0755   25.7188 N   0  0  0  0  0  0  0  0  0  0  0  0
    7.4220    0.0650   26.2900 C   0  0  0  0  0  0  0  0  0  0  0  0
    8.5723    1.0067   25.4155 S   0  0  0  0  0  0  0  0  0  0  0  0
    7.6966   -0.3781   27.2419 H   0  0  0  0  0  0  0  0  0  0  0  0
    5.3638    0.5546   23.9049 H   0  0  0  0  0  0  0  0  0  0  0  0
    8.2966    2.7915   22.9599 H   0  0  0  0  0  0  0  0  0  0  0  0
    6.9986    1.9082   22.1514 H   0  0  0  0  0  0  0  0  0  0  0  0
   10.2202    1.0398   22.2715 N   0  0  0  0  0  0  0  0  0  0  0  0
   12.4770   -1.6229   20.8653 C   0  0  0  0  0  0  0  0  0  0  0  0
   13.7631   -1.7867   20.3224 C   0  0  0  0  0  0  0  0  0  0  0  0
   13.9808   -2.7007   19.7791 H   0  0  0  0  0  0  0  0  0  0  0  0
   11.6793   -2.3160   20.6737 H   0  0  0  0  0  0  0  0  0  0  0  0
   12.9832    1.0952   22.8440 H   0  0  0  0  0  0  0  0  0  0  0  0
   15.2290    0.7482   22.0151 H   0  0  0  0  0  0  0  0  0  0  0  0
   15.9519    0.1342   18.6582 H   0  0  0  0  0  0  0  0  0  0  0  0
   16.8229   -1.0608   19.6335 H   0  0  0  0  0  0  0  0  0  0  0  0
   16.4244    0.5467   20.1529 H   0  0  0  0  0  0  0  0  0  0  0  0
  1  2  1  0
  2  3  2  0
  3  4  1  0
  4  5  2  0
  5  6  1  0
  6  7  2  0
  7  8  1  0
  8  9  1  0
  9 10  1  0
 10 11  2  0
 11 12  1  0
 12 13  2  0
 13 14  1  0
 14 15  2  0
 15 16  1  0
 13 17  1  0
 12 18  1  0
 11 19  1  0
  9 20  1  0
  9 21  1  0
  8 22  1  0
 22 23  1  0
 23 24  1  0
 24 25  2  0
 25 26  1  0
 26 27  2  0
 27 28  1  0
 27 29  1  0
 25 30  1  0
 23 31  1  0
 23 32  1  0
 22 33  2  0
  5 34  1  0
 34 35  2  0
 35 36  1  0
 34 37  1  0
  4 38  1  0
  3 39  1  0
  1 40  1  0
  1 41  1  0
  1 42  1  0
 35  2  1  0
 33  6  1  0
 15 10  1  0
 28 24  1  0
M  END
>  <cnnaffinity>  (1) 
-6.48298

>  <filename>  (1) 
Cc1ccc(-c2nc(Cc3cncs3)n(Cc3cccnc3)n2)cc1

$$$$
