
     RDKit          3D

 42 45  0  0  0  0  0  0  0  0999 V2000
   12.9053    1.8675   24.1256 C   0  0  0  0  0  0  0  0  0  0  0  0
   11.9107    1.5187   23.0554 C   0  0  0  0  0  0  0  0  0  0  0  0
   12.1616    0.4775   22.1534 C   0  0  0  0  0  0  0  0  0  0  0  0
   11.3210    0.1022   21.1858 N   0  0  0  0  0  0  0  0  0  0  0  0
   10.1649    0.7627   21.0883 C   0  0  0  0  0  0  0  0  0  0  0  0
    9.7598    1.7887   21.9585 C   0  0  0  0  0  0  0  0  0  0  0  0
    8.3317    2.2756   21.9284 C   0  0  0  0  0  0  0  0  0  0  0  0
    7.3765    1.3407   22.7250 C   0  0  0  0  0  0  0  0  0  0  0  0
    7.4649   -0.1021   22.3090 C   0  0  0  0  0  0  0  0  0  0  0  0
    7.9693   -1.0792   23.0394 N   0  0  0  0  0  0  0  0  0  0  0  0
    8.1997   -2.0618   22.1268 C   0  0  0  0  0  0  0  0  0  0  0  0
    8.9033   -3.3305   22.4580 C   0  0  0  0  0  0  0  0  0  0  0  0
    8.5167   -4.1810   23.6419 C   0  0  0  0  0  0  0  0  0  0  0  0
    8.2397   -4.6712   22.2466 C   0  0  0  0  0  0  0  0  0  0  0  0
    8.8066   -5.5148   21.8575 H   0  0  0  0  0  0  0  0  0  0  0  0
    7.2037   -4.6721   21.9121 H   0  0  0  0  0  0  0  0  0  0  0  0
    7.6708   -3.8540   24.2458 H   0  0  0  0  0  0  0  0  0  0  0  0
    9.3137   -4.6610   24.2130 H   0  0  0  0  0  0  0  0  0  0  0  0
    9.9732   -3.2262   22.2720 H   0  0  0  0  0  0  0  0  0  0  0  0
    7.8622   -1.7621   20.8859 N   0  0  0  0  0  0  0  0  0  0  0  0
    7.3126   -0.5245   21.0144 N   0  0  0  0  0  0  0  0  0  0  0  0
    6.6208    0.0719   19.9248 C   0  0  0  0  0  0  0  0  0  0  0  0
    5.4094    0.7490   20.1174 C   0  0  0  0  0  0  0  0  0  0  0  0
    4.8216    1.3679   19.0112 C   0  0  0  0  0  0  0  0  0  0  0  0
    5.4565    1.2908   17.7675 C   0  0  0  0  0  0  0  0  0  0  0  0
    6.5910    0.5954   17.5668 N   0  0  0  0  0  0  0  0  0  0  0  0
    7.1421   -0.0204   18.6197 C   0  0  0  0  0  0  0  0  0  0  0  0
    8.0363   -0.6127   18.4154 H   0  0  0  0  0  0  0  0  0  0  0  0
    5.0374    1.7922   16.8983 H   0  0  0  0  0  0  0  0  0  0  0  0
    3.8907    1.9157   19.1123 H   0  0  0  0  0  0  0  0  0  0  0  0
    4.9377    0.7725   21.1012 H   0  0  0  0  0  0  0  0  0  0  0  0
    7.6253    1.3687   23.7897 H   0  0  0  0  0  0  0  0  0  0  0  0
    6.3484    1.6960   22.6207 H   0  0  0  0  0  0  0  0  0  0  0  0
    7.9776    2.3118   20.8913 H   0  0  0  0  0  0  0  0  0  0  0  0
    8.2622    3.2962   22.3269 H   0  0  0  0  0  0  0  0  0  0  0  0
   10.6778    2.1781   22.9385 C   0  0  0  0  0  0  0  0  0  0  0  0
   10.4293    2.9870   23.6268 H   0  0  0  0  0  0  0  0  0  0  0  0
    9.4862    0.4294   20.3043 H   0  0  0  0  0  0  0  0  0  0  0  0
   13.0871   -0.0867   22.2356 H   0  0  0  0  0  0  0  0  0  0  0  0
   13.5676    2.6863   23.8203 H   0  0  0  0  0  0  0  0  0  0  0  0
   13.5412    1.0128   24.3860 H   0  0  0  0  0  0  0  0  0  0  0  0
   12.3682    2.1805   25.0247 H   0  0  0  0  0  0  0  0  0  0  0  0
  1  2  1  0
  2  3  2  0
  3  4  1  0
  4  5  2  0
  5  6  1  0
  6  7  1  0
  7  8  1  0
  8  9  1  0
  9 10  2  0
 10 11  1  0
 11 12  1  0
 12 13  1  0
 13 14  1  0
 14 15  1  0
 14 16  1  0
 13 17  1  0
 13 18  1  0
 12 19  1  0
 11 20  2  0
 20 21  1  0
 21 22  1  0
 22 23  2  0
 23 24  1  0
 24 25  2  0
 25 26  1  0
 26 27  2  0
 27 28  1  0
 25 29  1  0
 24 30  1  0
 23 31  1  0
  8 32  1  0
  8 33  1  0
  7 34  1  0
  7 35  1  0
  6 36  2  0
 36 37  1  0
  5 38  1  0
  3 39  1  0
  1 40  1  0
  1 41  1  0
  1 42  1  0
 36  2  1  0
 21  9  1  0
 27 22  1  0
 14 12  1  0
M  END
>  <cnnaffinity>  (1) 
-5.57892

>  <filename>  (1) 
Cc1cncc(CCc2nc(C3CC3)nn2-c2cccnc2)c1

$$$$
