
     RDKit          3D

 46 49  0  0  0  0  0  0  0  0999 V2000
   12.6972    1.4942   23.3045 C   0  0  0  0  0  0  0  0  0  0  0  0
   12.8478    0.3313   22.3558 C   0  0  0  0  0  0  0  0  0  0  0  0
   14.1259   -0.1010   21.9667 C   0  0  0  0  0  0  0  0  0  0  0  0
   14.2786   -1.2016   21.1146 C   0  0  0  0  0  0  0  0  0  0  0  0
   13.1870   -1.9623   20.7349 C   0  0  0  0  0  0  0  0  0  0  0  0
   11.9271   -1.5921   21.1543 C   0  0  0  0  0  0  0  0  0  0  0  0
   11.7323   -0.3818   21.8387 C   0  0  0  0  0  0  0  0  0  0  0  0
   10.3390    0.1032   21.8756 C   0  0  0  0  0  0  0  0  0  0  0  0
    9.3574   -0.6692   21.4189 N   0  0  0  0  0  0  0  0  0  0  0  0
    8.2474    0.0562   21.6368 N   0  0  0  0  0  0  0  0  0  0  0  0
    6.9349   -0.4811   21.2946 C   0  0  0  0  0  0  0  0  0  0  0  0
    6.3264    0.1698   20.0750 C   0  0  0  0  0  0  0  0  0  0  0  0
    5.1104    0.8591   20.1084 C   0  0  0  0  0  0  0  0  0  0  0  0
    4.6652    1.4864   18.9414 C   0  0  0  0  0  0  0  0  0  0  0  0
    5.4427    1.3792   17.7845 C   0  0  0  0  0  0  0  0  0  0  0  0
    6.5942    0.6939   17.7228 N   0  0  0  0  0  0  0  0  0  0  0  0
    7.0182    0.1165   18.8526 C   0  0  0  0  0  0  0  0  0  0  0  0
    7.9639   -0.4213   18.7974 H   0  0  0  0  0  0  0  0  0  0  0  0
    5.1245    1.8554   16.8602 H   0  0  0  0  0  0  0  0  0  0  0  0
    3.7482    2.0640   18.9187 H   0  0  0  0  0  0  0  0  0  0  0  0
    4.5304    0.9203   21.0346 H   0  0  0  0  0  0  0  0  0  0  0  0
    7.1032   -1.5512   21.1364 H   0  0  0  0  0  0  0  0  0  0  0  0
    6.2880   -0.3613   22.1675 H   0  0  0  0  0  0  0  0  0  0  0  0
    8.5922    1.2378   22.1816 C   0  0  0  0  0  0  0  0  0  0  0  0
    7.6066    2.1447   22.8331 C   0  0  0  0  0  0  0  0  0  0  0  0
    7.1466    1.4675   24.0885 C   0  0  0  0  0  0  0  0  0  0  0  0
    7.9096    1.0431   25.1447 C   0  0  0  0  0  0  0  0  0  0  0  0
    9.3580    1.2203   25.4612 C   0  0  0  0  0  0  0  0  0  0  0  0
    9.5501    1.3083   26.5326 H   0  0  0  0  0  0  0  0  0  0  0  0
    9.9346    0.3741   25.0687 H   0  0  0  0  0  0  0  0  0  0  0  0
    9.7321    2.1164   24.9606 H   0  0  0  0  0  0  0  0  0  0  0  0
    7.0715    0.2269   25.8754 N   0  0  0  0  0  0  0  0  0  0  0  0
    5.8687    0.1998   25.2437 C   0  0  0  0  0  0  0  0  0  0  0  0
    5.8849    0.9342   24.1610 N   0  0  0  0  0  0  0  0  0  0  0  0
    5.0309   -0.3895   25.5965 H   0  0  0  0  0  0  0  0  0  0  0  0
    7.3360   -0.3012   26.6915 H   0  0  0  0  0  0  0  0  0  0  0  0
    8.1129    3.0909   23.0358 H   0  0  0  0  0  0  0  0  0  0  0  0
    6.7507    2.3271   22.1804 H   0  0  0  0  0  0  0  0  0  0  0  0
    9.8997    1.3050   22.3375 N   0  0  0  0  0  0  0  0  0  0  0  0
   11.0498   -2.1803   20.9010 H   0  0  0  0  0  0  0  0  0  0  0  0
   13.3358   -2.8055   20.0700 H   0  0  0  0  0  0  0  0  0  0  0  0
   15.2123   -1.4911   20.6686 H   0  0  0  0  0  0  0  0  0  0  0  0
   14.9910    0.4660   22.2966 H   0  0  0  0  0  0  0  0  0  0  0  0
   12.1875    2.3285   22.8156 H   0  0  0  0  0  0  0  0  0  0  0  0
   12.0797    1.2278   24.1682 H   0  0  0  0  0  0  0  0  0  0  0  0
   13.6596    1.8327   23.7018 H   0  0  0  0  0  0  0  0  0  0  0  0
  1  2  1  0
  2  3  2  0
  3  4  1  0
  4  5  2  0
  5  6  1  0
  6  7  2  0
  7  8  1  0
  8  9  2  0
  9 10  1  0
 10 11  1  0
 11 12  1  0
 12 13  2  0
 13 14  1  0
 14 15  2  0
 15 16  1  0
 16 17  2  0
 17 18  1  0
 15 19  1  0
 14 20  1  0
 13 21  1  0
 11 22  1  0
 11 23  1  0
 10 24  1  0
 24 25  1  0
 25 26  1  0
 26 27  2  0
 27 28  1  0
 28 29  1  0
 28 30  1  0
 28 31  1  0
 27 32  1  0
 32 33  1  0
 33 34  2  0
 33 35  1  0
 32 36  1  0
 25 37  1  0
 25 38  1  0
 24 39  2  0
  6 40  1  0
  5 41  1  0
  4 42  1  0
  3 43  1  0
  1 44  1  0
  1 45  1  0
  1 46  1  0
  7  2  1  0
 39  8  1  0
 17 12  1  0
 34 26  1  0
M  END
>  <cnnaffinity>  (1) 
-6.65002

>  <filename>  (1) 
Cc1ccccc1-c1nc(Cc2nc[nH]c2C)n(Cc2cccnc2)n1

$$$$
