
     RDKit          3D

 44 47  0  0  0  0  0  0  0  0999 V2000
   13.6897    0.3516   23.6396 C   0  0  0  0  0  0  0  0  0  0  0  0
   12.4385    0.6654   22.8658 C   0  0  0  0  0  0  0  0  0  0  0  0
   11.8536   -0.0237   21.8294 C   0  0  0  0  0  0  0  0  0  0  0  0
   10.6904    0.6076   21.5237 N   0  0  0  0  0  0  0  0  0  0  0  0
    9.6193    0.1690   20.6627 C   0  0  0  0  0  0  0  0  0  0  0  0
    8.5876   -0.6209   21.3882 C   0  0  0  0  0  0  0  0  0  0  0  0
    8.7806   -1.4356   22.3968 N   0  0  0  0  0  0  0  0  0  0  0  0
    7.5535   -1.9898   22.5905 C   0  0  0  0  0  0  0  0  0  0  0  0
    7.3373   -2.9665   23.7023 C   0  0  0  0  0  0  0  0  0  0  0  0
    7.5264   -2.2564   25.0679 C   0  0  0  0  0  0  0  0  0  0  0  0
    7.5633   -3.2235   26.2197 C   0  0  0  0  0  0  0  0  0  0  0  0
    7.7565   -4.5338   26.0720 C   0  0  0  0  0  0  0  0  0  0  0  0
    7.9724   -5.1977   24.7329 C   0  0  0  0  0  0  0  0  0  0  0  0
    8.2894   -4.1864   23.6187 C   0  0  0  0  0  0  0  0  0  0  0  0
    9.3198   -3.8253   23.7307 H   0  0  0  0  0  0  0  0  0  0  0  0
    8.2256   -4.6729   22.6380 H   0  0  0  0  0  0  0  0  0  0  0  0
    7.0642   -5.7584   24.4716 H   0  0  0  0  0  0  0  0  0  0  0  0
    8.7698   -5.9474   24.8168 H   0  0  0  0  0  0  0  0  0  0  0  0
    7.7374   -5.1786   26.9496 H   0  0  0  0  0  0  0  0  0  0  0  0
    7.4313   -2.8029   27.2148 H   0  0  0  0  0  0  0  0  0  0  0  0
    8.4703   -1.6931   25.0403 H   0  0  0  0  0  0  0  0  0  0  0  0
    6.7353   -1.5126   25.2246 H   0  0  0  0  0  0  0  0  0  0  0  0
    6.3038   -3.3167   23.6269 H   0  0  0  0  0  0  0  0  0  0  0  0
    6.6229   -1.5716   21.7597 N   0  0  0  0  0  0  0  0  0  0  0  0
    7.2944   -0.7036   20.9558 N   0  0  0  0  0  0  0  0  0  0  0  0
    6.6295   -0.0213   19.9028 C   0  0  0  0  0  0  0  0  0  0  0  0
    5.4160    0.6321   20.1498 C   0  0  0  0  0  0  0  0  0  0  0  0
    4.8082    1.3142   19.0944 C   0  0  0  0  0  0  0  0  0  0  0  0
    5.4179    1.3027   17.8346 C   0  0  0  0  0  0  0  0  0  0  0  0
    6.5676    0.6573   17.5823 N   0  0  0  0  0  0  0  0  0  0  0  0
    7.1557    0.0136   18.5979 C   0  0  0  0  0  0  0  0  0  0  0  0
    8.0937   -0.4899   18.3661 H   0  0  0  0  0  0  0  0  0  0  0  0
    4.9620    1.8224   16.9962 H   0  0  0  0  0  0  0  0  0  0  0  0
    3.8780    1.8522   19.2405 H   0  0  0  0  0  0  0  0  0  0  0  0
    4.9841    0.6000   21.1499 H   0  0  0  0  0  0  0  0  0  0  0  0
   10.0327   -0.4493   19.8644 H   0  0  0  0  0  0  0  0  0  0  0  0
    9.1730    1.0591   20.2195 H   0  0  0  0  0  0  0  0  0  0  0  0
   10.4812    1.6764   22.3002 N   0  0  0  0  0  0  0  0  0  0  0  0
   11.5313    1.7326   23.1031 C   0  0  0  0  0  0  0  0  0  0  0  0
   11.5944    2.5207   23.8512 H   0  0  0  0  0  0  0  0  0  0  0  0
   12.1871   -0.8860   21.2553 H   0  0  0  0  0  0  0  0  0  0  0  0
   14.3280    1.2357   23.7273 H   0  0  0  0  0  0  0  0  0  0  0  0
   13.4369    0.0379   24.6623 H   0  0  0  0  0  0  0  0  0  0  0  0
   14.2830   -0.4477   23.1819 H   0  0  0  0  0  0  0  0  0  0  0  0
  1  2  1  0
  2  3  2  0
  3  4  1  0
  4  5  1  0
  5  6  1  0
  6  7  2  0
  7  8  1  0
  8  9  1  0
  9 10  1  0
 10 11  1  0
 11 12  2  0
 12 13  1  0
 13 14  1  0
 14 15  1  0
 14 16  1  0
 13 17  1  0
 13 18  1  0
 12 19  1  0
 11 20  1  0
 10 21  1  0
 10 22  1  0
  9 23  1  0
  8 24  2  0
 24 25  1  0
 25 26  1  0
 26 27  2  0
 27 28  1  0
 28 29  2  0
 29 30  1  0
 30 31  2  0
 31 32  1  0
 29 33  1  0
 28 34  1  0
 27 35  1  0
  5 36  1  0
  5 37  1  0
  4 38  1  0
 38 39  2  0
 39 40  1  0
  3 41  1  0
  1 42  1  0
  1 43  1  0
  1 44  1  0
 39  2  1  0
 25  6  1  0
 31 26  1  0
 14  9  1  0
M  END
>  <cnnaffinity>  (1) 
-6.4978

>  <filename>  (1) 
Cc1cnn(Cc2nc(C3CC=CCC3)nn2-c2cccnc2)c1

$$$$
