
     RDKit          3D

 49 52  0  0  0  0  0  0  0  0999 V2000
    8.0818   -5.4542   27.3471 C   0  0  0  0  0  0  0  0  0  0  0  0
    8.2907   -4.4478   26.2136 C   0  0  0  0  0  0  0  0  0  0  0  0
    8.3476   -5.1671   24.8520 C   0  0  0  0  0  0  0  0  0  0  0  0
    8.4927   -4.1932   23.6826 C   0  0  0  0  0  0  0  0  0  0  0  0
    7.3718   -3.1272   23.6717 C   0  0  0  0  0  0  0  0  0  0  0  0
    7.6404   -2.1395   22.5848 C   0  0  0  0  0  0  0  0  0  0  0  0
    6.7827   -1.7419   21.6745 N   0  0  0  0  0  0  0  0  0  0  0  0
    7.4694   -0.7613   21.0120 N   0  0  0  0  0  0  0  0  0  0  0  0
    6.8010   -0.0943   19.9366 C   0  0  0  0  0  0  0  0  0  0  0  0
    5.5846    0.5544   20.1876 C   0  0  0  0  0  0  0  0  0  0  0  0
    4.9642    1.2363   19.1396 C   0  0  0  0  0  0  0  0  0  0  0  0
    5.5617    1.2360   17.8732 C   0  0  0  0  0  0  0  0  0  0  0  0
    6.6983    0.5710   17.6125 N   0  0  0  0  0  0  0  0  0  0  0  0
    7.2920   -0.0864   18.6186 C   0  0  0  0  0  0  0  0  0  0  0  0
    8.1884   -0.6448   18.3555 H   0  0  0  0  0  0  0  0  0  0  0  0
    5.1097    1.7826   17.0446 H   0  0  0  0  0  0  0  0  0  0  0  0
    4.0343    1.7714   19.2961 H   0  0  0  0  0  0  0  0  0  0  0  0
    5.1538    0.5077   21.1891 H   0  0  0  0  0  0  0  0  0  0  0  0
    8.6912   -0.6012   21.6192 C   0  0  0  0  0  0  0  0  0  0  0  0
    9.6948    0.4891   21.4501 C   0  0  0  0  0  0  0  0  0  0  0  0
    9.1263    1.7902   21.8828 C   0  0  0  0  0  0  0  0  0  0  0  0
    9.2665    2.2756   23.1049 N   0  0  0  0  0  0  0  0  0  0  0  0
    8.5110    3.3846   23.1224 N   0  0  0  0  0  0  0  0  0  0  0  0
    8.3216    4.1202   24.3610 C   0  0  0  0  0  0  0  0  0  0  0  0
    7.3223    3.9131   24.7660 H   0  0  0  0  0  0  0  0  0  0  0  0
    8.4407    5.1929   24.1725 H   0  0  0  0  0  0  0  0  0  0  0  0
    9.0831    3.7759   25.0623 H   0  0  0  0  0  0  0  0  0  0  0  0
    7.8666    3.5939   21.9499 C   0  0  0  0  0  0  0  0  0  0  0  0
    8.2605    2.5738   21.1125 C   0  0  0  0  0  0  0  0  0  0  0  0
    7.9735    2.3288   20.1018 H   0  0  0  0  0  0  0  0  0  0  0  0
    7.1620    4.4105   21.8269 H   0  0  0  0  0  0  0  0  0  0  0  0
   10.0043    0.5344   20.4098 H   0  0  0  0  0  0  0  0  0  0  0  0
   10.5479    0.2339   22.0815 H   0  0  0  0  0  0  0  0  0  0  0  0
    8.8371   -1.4937   22.5605 N   0  0  0  0  0  0  0  0  0  0  0  0
    7.3238   -2.3901   25.0404 C   0  0  0  0  0  0  0  0  0  0  0  0
    7.1945   -3.3648   26.2147 C   0  0  0  0  0  0  0  0  0  0  0  0
    6.2082   -3.8535   26.1715 H   0  0  0  0  0  0  0  0  0  0  0  0
    7.2265   -2.8073   27.1612 H   0  0  0  0  0  0  0  0  0  0  0  0
    8.2553   -1.8107   25.1460 H   0  0  0  0  0  0  0  0  0  0  0  0
    6.5030   -1.6592   25.0516 H   0  0  0  0  0  0  0  0  0  0  0  0
    6.3954   -3.5890   23.4655 H   0  0  0  0  0  0  0  0  0  0  0  0
    8.5141   -4.7291   22.7248 H   0  0  0  0  0  0  0  0  0  0  0  0
    9.4545   -3.6641   23.7655 H   0  0  0  0  0  0  0  0  0  0  0  0
    9.1856   -5.8777   24.8458 H   0  0  0  0  0  0  0  0  0  0  0  0
    7.4287   -5.7608   24.7221 H   0  0  0  0  0  0  0  0  0  0  0  0
    9.2605   -3.9400   26.3625 H   0  0  0  0  0  0  0  0  0  0  0  0
    7.1262   -5.9788   27.2168 H   0  0  0  0  0  0  0  0  0  0  0  0
    8.8727   -6.2109   27.3548 H   0  0  0  0  0  0  0  0  0  0  0  0
    8.0636   -4.9674   28.3280 H   0  0  0  0  0  0  0  0  0  0  0  0
  1  2  1  0
  2  3  1  0
  3  4  1  0
  4  5  1  0
  5  6  1  0
  6  7  2  0
  7  8  1  0
  8  9  1  0
  9 10  2  0
 10 11  1  0
 11 12  2  0
 12 13  1  0
 13 14  2  0
 14 15  1  0
 12 16  1  0
 11 17  1  0
 10 18  1  0
  8 19  1  0
 19 20  1  0
 20 21  1  0
 21 22  2  0
 22 23  1  0
 23 24  1  0
 24 25  1  0
 24 26  1  0
 24 27  1  0
 23 28  1  0
 28 29  2  0
 29 30  1  0
 28 31  1  0
 20 32  1  0
 20 33  1  0
 19 34  2  0
  5 35  1  0
 35 36  1  0
 36 37  1  0
 36 38  1  0
 35 39  1  0
 35 40  1  0
  5 41  1  0
  4 42  1  0
  4 43  1  0
  3 44  1  0
  3 45  1  0
  2 46  1  0
  1 47  1  0
  1 48  1  0
  1 49  1  0
 36  2  1  0
 34  6  1  0
 14  9  1  0
 29 21  1  0
M  END
>  <cnnaffinity>  (1) 
-6.26061

>  <filename>  (1) 
CC1CCC(c2nc(Cc3ccn(C)n3)n(-c3cccnc3)n2)CC1

$$$$
