
     RDKit          3D

 48 51  0  0  0  0  0  0  0  0999 V2000
    6.2162    4.9197   27.3641 C   0  0  0  0  0  0  0  0  0  0  0  0
    5.8223    3.7248   26.5290 C   0  0  0  0  0  0  0  0  0  0  0  0
    4.4812    3.3346   26.3857 C   0  0  0  0  0  0  0  0  0  0  0  0
    4.1352    2.2393   25.5870 C   0  0  0  0  0  0  0  0  0  0  0  0
    5.1268    1.5405   24.8950 C   0  0  0  0  0  0  0  0  0  0  0  0
    6.4723    1.9274   24.9953 C   0  0  0  0  0  0  0  0  0  0  0  0
    7.5296    1.2508   24.1622 C   0  0  0  0  0  0  0  0  0  0  0  0
    7.6499    1.8374   22.7275 C   0  0  0  0  0  0  0  0  0  0  0  0
    8.6409    1.0453   21.9431 C   0  0  0  0  0  0  0  0  0  0  0  0
    9.9489    1.1765   22.0794 N   0  0  0  0  0  0  0  0  0  0  0  0
   10.4270   -0.0104   21.6339 C   0  0  0  0  0  0  0  0  0  0  0  0
   11.8590   -0.4122   21.7389 C   0  0  0  0  0  0  0  0  0  0  0  0
   12.8535    0.4062   22.3057 C   0  0  0  0  0  0  0  0  0  0  0  0
   14.1706   -0.0536   22.3403 C   0  0  0  0  0  0  0  0  0  0  0  0
   14.5592   -1.2388   21.8559 N   0  0  0  0  0  0  0  0  0  0  0  0
   13.6228   -2.0070   21.2984 C   0  0  0  0  0  0  0  0  0  0  0  0
   12.2731   -1.6633   21.2568 C   0  0  0  0  0  0  0  0  0  0  0  0
   11.5260   -2.3291   20.8569 H   0  0  0  0  0  0  0  0  0  0  0  0
   13.9673   -2.9258   20.8457 H   0  0  0  0  0  0  0  0  0  0  0  0
   14.9558    0.5877   22.7284 H   0  0  0  0  0  0  0  0  0  0  0  0
   12.6473    1.3948   22.6979 H   0  0  0  0  0  0  0  0  0  0  0  0
    9.4947   -0.8373   21.1844 N   0  0  0  0  0  0  0  0  0  0  0  0
    8.3549   -0.1463   21.3721 N   0  0  0  0  0  0  0  0  0  0  0  0
    7.0737   -0.7266   20.9946 C   0  0  0  0  0  0  0  0  0  0  0  0
    6.3861    0.0103   19.8671 C   0  0  0  0  0  0  0  0  0  0  0  0
    5.1775    0.6984   20.0151 C   0  0  0  0  0  0  0  0  0  0  0  0
    4.6633    1.4044   18.9220 C   0  0  0  0  0  0  0  0  0  0  0  0
    5.3759    1.3875   17.7194 C   0  0  0  0  0  0  0  0  0  0  0  0
    6.5231    0.7109   17.5488 N   0  0  0  0  0  0  0  0  0  0  0  0
    7.0076    0.0562   18.6096 C   0  0  0  0  0  0  0  0  0  0  0  0
    7.9569   -0.4570   18.4664 H   0  0  0  0  0  0  0  0  0  0  0  0
    5.0097    1.9364   16.8524 H   0  0  0  0  0  0  0  0  0  0  0  0
    3.7502    1.9883   18.9946 H   0  0  0  0  0  0  0  0  0  0  0  0
    4.6579    0.7109   20.9763 H   0  0  0  0  0  0  0  0  0  0  0  0
    7.2991   -1.7546   20.6992 H   0  0  0  0  0  0  0  0  0  0  0  0
    6.4285   -0.7651   21.8816 H   0  0  0  0  0  0  0  0  0  0  0  0
    7.9934    2.8717   22.7853 H   0  0  0  0  0  0  0  0  0  0  0  0
    6.6736    1.8506   22.2338 H   0  0  0  0  0  0  0  0  0  0  0  0
    8.5117    1.3231   24.6512 H   0  0  0  0  0  0  0  0  0  0  0  0
    7.3149    0.1747   24.0818 H   0  0  0  0  0  0  0  0  0  0  0  0
    6.8028    2.9971   25.8396 C   0  0  0  0  0  0  0  0  0  0  0  0
    7.8483    3.2778   25.9658 H   0  0  0  0  0  0  0  0  0  0  0  0
    4.8605    0.6936   24.2631 H   0  0  0  0  0  0  0  0  0  0  0  0
    3.0932    1.9405   25.4946 H   0  0  0  0  0  0  0  0  0  0  0  0
    3.7064    3.8861   26.9138 H   0  0  0  0  0  0  0  0  0  0  0  0
    6.2139    5.8375   26.7639 H   0  0  0  0  0  0  0  0  0  0  0  0
    7.2246    4.8001   27.7719 H   0  0  0  0  0  0  0  0  0  0  0  0
    5.5334    5.0765   28.2044 H   0  0  0  0  0  0  0  0  0  0  0  0
  1  2  1  0
  2  3  2  0
  3  4  1  0
  4  5  2  0
  5  6  1  0
  6  7  1  0
  7  8  1  0
  8  9  1  0
  9 10  2  0
 10 11  1  0
 11 12  1  0
 12 13  2  0
 13 14  1  0
 14 15  2  0
 15 16  1  0
 16 17  2  0
 17 18  1  0
 16 19  1  0
 14 20  1  0
 13 21  1  0
 11 22  2  0
 22 23  1  0
 23 24  1  0
 24 25  1  0
 25 26  2  0
 26 27  1  0
 27 28  2  0
 28 29  1  0
 29 30  2  0
 30 31  1  0
 28 32  1  0
 27 33  1  0
 26 34  1  0
 24 35  1  0
 24 36  1  0
  8 37  1  0
  8 38  1  0
  7 39  1  0
  7 40  1  0
  6 41  2  0
 41 42  1  0
  5 43  1  0
  4 44  1  0
  3 45  1  0
  1 46  1  0
  1 47  1  0
  1 48  1  0
 41  2  1  0
 23  9  1  0
 30 25  1  0
 17 12  1  0
M  END
>  <cnnaffinity>  (1) 
-6.51866

>  <filename>  (1) 
Cc1cccc(CCc2nc(-c3ccncc3)nn2Cc2cccnc2)c1

$$$$
