
     RDKit          3D

 41 44  0  0  0  0  0  0  0  0999 V2000
    9.4601   -1.2788   27.3808 C   0  0  0  0  0  0  0  0  0  0  0  0
    8.3721   -1.6954   26.4222 C   0  0  0  0  0  0  0  0  0  0  0  0
    7.2542   -2.4979   26.7352 C   0  0  0  0  0  0  0  0  0  0  0  0
    6.2977   -2.8161   25.8476 N   0  0  0  0  0  0  0  0  0  0  0  0
    6.4155   -2.3737   24.5928 C   0  0  0  0  0  0  0  0  0  0  0  0
    7.5271   -1.6407   24.1664 C   0  0  0  0  0  0  0  0  0  0  0  0
    7.6936   -1.3185   22.7983 N   0  0  0  0  0  0  0  0  0  0  0  0
    6.7486   -0.6455   22.1132 N   0  0  0  0  0  0  0  0  0  0  0  0
    7.2509   -0.6017   20.8941 C   0  0  0  0  0  0  0  0  0  0  0  0
    6.5518    0.0775   19.8148 C   0  0  0  0  0  0  0  0  0  0  0  0
    5.3268    0.7467   20.0054 C   0  0  0  0  0  0  0  0  0  0  0  0
    4.7660    1.3923   18.9101 C   0  0  0  0  0  0  0  0  0  0  0  0
    5.4352    1.3381   17.6812 C   0  0  0  0  0  0  0  0  0  0  0  0
    6.5907    0.6816   17.4920 N   0  0  0  0  0  0  0  0  0  0  0  0
    7.1344    0.0674   18.5454 C   0  0  0  0  0  0  0  0  0  0  0  0
    8.0745   -0.4584   18.3745 H   0  0  0  0  0  0  0  0  0  0  0  0
    5.0271    1.8382   16.8074 H   0  0  0  0  0  0  0  0  0  0  0  0
    3.8321    1.9424   18.9888 H   0  0  0  0  0  0  0  0  0  0  0  0
    4.8409    0.7563   20.9855 H   0  0  0  0  0  0  0  0  0  0  0  0
    8.4432   -1.2436   20.7431 N   0  0  0  0  0  0  0  0  0  0  0  0
    8.6832   -1.7038   21.9511 C   0  0  0  0  0  0  0  0  0  0  0  0
    9.8026   -2.5849   22.4130 C   0  0  0  0  0  0  0  0  0  0  0  0
    9.3631   -3.8684   23.1218 C   0  0  0  0  0  0  0  0  0  0  0  0
    8.3935   -4.7535   22.6115 C   0  0  0  0  0  0  0  0  0  0  0  0
    7.4822   -4.4326   21.1691 Cl  0  0  0  0  0  0  0  0  0  0  0  0
    8.1273   -5.9654   23.2637 C   0  0  0  0  0  0  0  0  0  0  0  0
    8.7422   -6.3382   24.3862 N   0  0  0  0  0  0  0  0  0  0  0  0
    9.6395   -5.5061   24.9197 C   0  0  0  0  0  0  0  0  0  0  0  0
    9.9493   -4.2798   24.3298 C   0  0  0  0  0  0  0  0  0  0  0  0
   10.8561   -3.5005   24.9512 F   0  0  0  0  0  0  0  0  0  0  0  0
   10.1304   -5.8301   25.8339 H   0  0  0  0  0  0  0  0  0  0  0  0
    7.3884   -6.6468   22.8529 H   0  0  0  0  0  0  0  0  0  0  0  0
   10.4376   -2.0184   23.0975 H   0  0  0  0  0  0  0  0  0  0  0  0
   10.4131   -2.7967   21.5348 H   0  0  0  0  0  0  0  0  0  0  0  0
    8.4885   -1.2672   25.1002 C   0  0  0  0  0  0  0  0  0  0  0  0
    9.3391   -0.6516   24.8104 H   0  0  0  0  0  0  0  0  0  0  0  0
    5.6163   -2.6299   23.8988 H   0  0  0  0  0  0  0  0  0  0  0  0
    7.1058   -2.8984   27.7341 H   0  0  0  0  0  0  0  0  0  0  0  0
   10.1208   -2.1106   27.6238 H   0  0  0  0  0  0  0  0  0  0  0  0
    9.0699   -0.8806   28.3171 H   0  0  0  0  0  0  0  0  0  0  0  0
   10.0909   -0.5039   26.9293 H   0  0  0  0  0  0  0  0  0  0  0  0
  1  2  1  0
  2  3  2  0
  3  4  1  0
  4  5  2  0
  5  6  1  0
  6  7  1  0
  7  8  1  0
  8  9  2  0
  9 10  1  0
 10 11  2  0
 11 12  1  0
 12 13  2  0
 13 14  1  0
 14 15  2  0
 15 16  1  0
 13 17  1  0
 12 18  1  0
 11 19  1  0
  9 20  1  0
 20 21  2  0
 21 22  1  0
 22 23  1  0
 23 24  2  0
 24 25  1  0
 24 26  1  0
 26 27  2  0
 27 28  1  0
 28 29  2  0
 29 30  1  0
 28 31  1  0
 26 32  1  0
 22 33  1  0
 22 34  1  0
  6 35  2  0
 35 36  1  0
  5 37  1  0
  3 38  1  0
  1 39  1  0
  1 40  1  0
  1 41  1  0
 35  2  1  0
 21  7  1  0
 29 23  1  0
 15 10  1  0
M  END
>  <cnnaffinity>  (1) 
-6.81718

>  <filename>  (1) 
Cc1cncc(-n2nc(-c3cccnc3)nc2Cc2c(F)cncc2Cl)c1

$$$$
