
     RDKit          3D

 44 48  0  0  0  0  0  0  0  0999 V2000
    9.3768    2.3239   21.1331 C   0  0  0  0  0  0  0  0  0  0  0  0
    9.5435    2.0116   22.5932 C   0  0  0  0  0  0  0  0  0  0  0  0
   10.8409    1.9494   23.1230 C   0  0  0  0  0  0  0  0  0  0  0  0
   11.0022    1.7881   24.4923 C   0  0  0  0  0  0  0  0  0  0  0  0
   12.2416    1.7008   25.0001 F   0  0  0  0  0  0  0  0  0  0  0  0
    9.9207    1.7056   25.3586 C   0  0  0  0  0  0  0  0  0  0  0  0
    8.6286    1.6782   24.8141 C   0  0  0  0  0  0  0  0  0  0  0  0
    8.4284    1.7709   23.4326 C   0  0  0  0  0  0  0  0  0  0  0  0
    7.0709    1.4118   22.8143 C   0  0  0  0  0  0  0  0  0  0  0  0
    7.1177    0.0348   22.2031 C   0  0  0  0  0  0  0  0  0  0  0  0
    7.4606   -1.0301   22.9006 N   0  0  0  0  0  0  0  0  0  0  0  0
    7.6218   -1.9932   21.9561 C   0  0  0  0  0  0  0  0  0  0  0  0
    8.1218   -3.3494   22.2255 C   0  0  0  0  0  0  0  0  0  0  0  0
    8.9272   -3.6285   23.5002 C   0  0  0  0  0  0  0  0  0  0  0  0
    7.5734   -4.2267   23.3097 C   0  0  0  0  0  0  0  0  0  0  0  0
    6.3694   -4.4572   24.1537 C   0  0  0  0  0  0  0  0  0  0  0  0
    6.9537   -5.5701   23.2841 C   0  0  0  0  0  0  0  0  0  0  0  0
    7.4997   -6.3792   23.7624 H   0  0  0  0  0  0  0  0  0  0  0  0
    6.4037   -5.8205   22.3760 H   0  0  0  0  0  0  0  0  0  0  0  0
    5.4365   -3.9843   23.8546 H   0  0  0  0  0  0  0  0  0  0  0  0
    6.5541   -4.5243   25.2286 H   0  0  0  0  0  0  0  0  0  0  0  0
    8.9724   -2.8152   24.2244 H   0  0  0  0  0  0  0  0  0  0  0  0
    9.8111   -4.2672   23.4500 H   0  0  0  0  0  0  0  0  0  0  0  0
    8.3928   -3.8598   21.3023 H   0  0  0  0  0  0  0  0  0  0  0  0
    7.3776   -1.6007   20.7218 N   0  0  0  0  0  0  0  0  0  0  0  0
    7.0027   -0.2985   20.8766 N   0  0  0  0  0  0  0  0  0  0  0  0
    6.4400    0.3861   19.7602 C   0  0  0  0  0  0  0  0  0  0  0  0
    5.2606    1.1389   19.8390 C   0  0  0  0  0  0  0  0  0  0  0  0
    4.7217    1.6380   18.6441 C   0  0  0  0  0  0  0  0  0  0  0  0
    5.3970    1.4104   17.4403 C   0  0  0  0  0  0  0  0  0  0  0  0
    6.5524    0.7266   17.3653 N   0  0  0  0  0  0  0  0  0  0  0  0
    7.0487    0.2232   18.4998 C   0  0  0  0  0  0  0  0  0  0  0  0
    7.9690   -0.3523   18.4218 H   0  0  0  0  0  0  0  0  0  0  0  0
    5.0032    1.7856   16.4975 H   0  0  0  0  0  0  0  0  0  0  0  0
    3.7919    2.1975   18.6344 H   0  0  0  0  0  0  0  0  0  0  0  0
    4.7531    1.2941   20.7944 H   0  0  0  0  0  0  0  0  0  0  0  0
    6.7812    2.1494   22.0613 H   0  0  0  0  0  0  0  0  0  0  0  0
    6.3014    1.3920   23.5939 H   0  0  0  0  0  0  0  0  0  0  0  0
    7.7722    1.5488   25.4750 H   0  0  0  0  0  0  0  0  0  0  0  0
   10.1071    1.6446   26.4220 H   0  0  0  0  0  0  0  0  0  0  0  0
   11.7118    2.0447   22.4769 H   0  0  0  0  0  0  0  0  0  0  0  0
    8.6886    3.1622   20.9842 H   0  0  0  0  0  0  0  0  0  0  0  0
    8.9760    1.4577   20.5948 H   0  0  0  0  0  0  0  0  0  0  0  0
   10.3391    2.5854   20.6886 H   0  0  0  0  0  0  0  0  0  0  0  0
  1  2  1  0
  2  3  2  0
  3  4  1  0
  4  5  1  0
  4  6  2  0
  6  7  1  0
  7  8  2  0
  8  9  1  0
  9 10  1  0
 10 11  2  0
 11 12  1  0
 12 13  1  0
 13 14  1  0
 14 15  1  0
 15 16  1  0
 16 17  1  0
 17 18  1  0
 17 19  1  0
 16 20  1  0
 16 21  1  0
 14 22  1  0
 14 23  1  0
 13 24  1  0
 12 25  2  0
 25 26  1  0
 26 27  1  0
 27 28  2  0
 28 29  1  0
 29 30  2  0
 30 31  1  0
 31 32  2  0
 32 33  1  0
 30 34  1  0
 29 35  1  0
 28 36  1  0
  9 37  1  0
  9 38  1  0
  7 39  1  0
  6 40  1  0
  3 41  1  0
  1 42  1  0
  1 43  1  0
  1 44  1  0
  8  2  1  0
 26 10  1  0
 32 27  1  0
 15 13  1  0
 17 15  1  0
M  END
>  <cnnaffinity>  (1) 
-6.53458

>  <filename>  (1) 
Cc1cc(F)ccc1Cc1nc(C2CC23CC3)nn1-c1cccnc1

$$$$
