
     RDKit          3D

 44 47  0  0  0  0  0  0  0  0999 V2000
   12.2304   -1.2759   21.1340 C   0  0  0  0  0  0  0  0  0  0  0  0
   11.9133   -0.0025   21.8902 C   0  0  0  0  0  0  0  0  0  0  0  0
   12.7994    0.4653   22.8751 C   0  0  0  0  0  0  0  0  0  0  0  0
   12.5140    1.6111   23.6259 C   0  0  0  0  0  0  0  0  0  0  0  0
   11.3237    2.3083   23.4102 C   0  0  0  0  0  0  0  0  0  0  0  0
   10.4387    1.8582   22.4259 C   0  0  0  0  0  0  0  0  0  0  0  0
   10.7321    0.7301   21.6471 C   0  0  0  0  0  0  0  0  0  0  0  0
    9.6737    0.2442   20.6771 C   0  0  0  0  0  0  0  0  0  0  0  0
    8.6528   -0.6070   21.3361 C   0  0  0  0  0  0  0  0  0  0  0  0
    8.8790   -1.4796   22.2971 N   0  0  0  0  0  0  0  0  0  0  0  0
    7.6500   -2.0084   22.5214 C   0  0  0  0  0  0  0  0  0  0  0  0
    7.4010   -2.9123   23.6957 C   0  0  0  0  0  0  0  0  0  0  0  0
    6.9288   -2.1492   24.9639 C   0  0  0  0  0  0  0  0  0  0  0  0
    6.0017   -3.1646   25.6392 C   0  0  0  0  0  0  0  0  0  0  0  0
    5.4664   -3.9993   24.4674 C   0  0  0  0  0  0  0  0  0  0  0  0
    6.4074   -3.8825   23.4117 O   0  0  0  0  0  0  0  0  0  0  0  0
    4.4887   -3.6436   24.1109 H   0  0  0  0  0  0  0  0  0  0  0  0
    5.3815   -5.0656   24.7063 H   0  0  0  0  0  0  0  0  0  0  0  0
    6.5572   -3.7962   26.3413 H   0  0  0  0  0  0  0  0  0  0  0  0
    5.1886   -2.6878   26.1927 H   0  0  0  0  0  0  0  0  0  0  0  0
    6.3814   -1.2414   24.6786 H   0  0  0  0  0  0  0  0  0  0  0  0
    7.7717   -1.8380   25.5911 H   0  0  0  0  0  0  0  0  0  0  0  0
    8.3543   -3.4219   23.8868 H   0  0  0  0  0  0  0  0  0  0  0  0
    6.6910   -1.5410   21.7437 N   0  0  0  0  0  0  0  0  0  0  0  0
    7.3460   -0.6725   20.9395 N   0  0  0  0  0  0  0  0  0  0  0  0
    6.6533    0.0085   19.9002 C   0  0  0  0  0  0  0  0  0  0  0  0
    5.4366    0.6441   20.1654 C   0  0  0  0  0  0  0  0  0  0  0  0
    4.8117    1.3107   19.1092 C   0  0  0  0  0  0  0  0  0  0  0  0
    5.3996    1.2961   17.8367 C   0  0  0  0  0  0  0  0  0  0  0  0
    6.5578    0.6722   17.5746 N   0  0  0  0  0  0  0  0  0  0  0  0
    7.1652    0.0512   18.5904 C   0  0  0  0  0  0  0  0  0  0  0  0
    8.1119   -0.4311   18.3612 H   0  0  0  0  0  0  0  0  0  0  0  0
    4.9216    1.7861   16.9929 H   0  0  0  0  0  0  0  0  0  0  0  0
    3.8802    1.8400   19.2598 H   0  0  0  0  0  0  0  0  0  0  0  0
    5.0179    0.6069   21.1745 H   0  0  0  0  0  0  0  0  0  0  0  0
    9.1798    1.1017   20.2190 H   0  0  0  0  0  0  0  0  0  0  0  0
   10.0580   -0.3977   19.8759 H   0  0  0  0  0  0  0  0  0  0  0  0
    9.4926    2.3723   22.2604 H   0  0  0  0  0  0  0  0  0  0  0  0
   11.0834    3.1955   23.9920 H   0  0  0  0  0  0  0  0  0  0  0  0
   13.2234    1.9511   24.3734 H   0  0  0  0  0  0  0  0  0  0  0  0
   13.7232   -0.0844   23.0444 H   0  0  0  0  0  0  0  0  0  0  0  0
   12.4358   -1.1022   20.0746 H   0  0  0  0  0  0  0  0  0  0  0  0
   11.3928   -1.9816   21.1646 H   0  0  0  0  0  0  0  0  0  0  0  0
   13.1205   -1.7654   21.5364 H   0  0  0  0  0  0  0  0  0  0  0  0
  1  2  1  0
  2  3  2  0
  3  4  1  0
  4  5  2  0
  5  6  1  0
  6  7  2  0
  7  8  1  0
  8  9  1  0
  9 10  2  0
 10 11  1  0
 11 12  1  0
 12 13  1  0
 13 14  1  0
 14 15  1  0
 15 16  1  0
 15 17  1  0
 15 18  1  0
 14 19  1  0
 14 20  1  0
 13 21  1  0
 13 22  1  0
 12 23  1  0
 11 24  2  0
 24 25  1  0
 25 26  1  0
 26 27  2  0
 27 28  1  0
 28 29  2  0
 29 30  1  0
 30 31  2  0
 31 32  1  0
 29 33  1  0
 28 34  1  0
 27 35  1  0
  8 36  1  0
  8 37  1  0
  6 38  1  0
  5 39  1  0
  4 40  1  0
  3 41  1  0
  1 42  1  0
  1 43  1  0
  1 44  1  0
  7  2  1  0
 25  9  1  0
 31 26  1  0
 16 12  1  0
M  END
>  <cnnaffinity>  (1) 
-6.35662

>  <filename>  (1) 
Cc1ccccc1Cc1nc(C2CCCO2)nn1-c1cccnc1

$$$$
