
     RDKit          3D

 49 52  0  0  0  0  0  0  0  0999 V2000
    7.3520    5.0532   22.2443 C   0  0  0  0  0  0  0  0  0  0  0  0
    8.0252    3.7112   22.3395 C   0  0  0  0  0  0  0  0  0  0  0  0
    8.1920    2.6769   21.4387 C   0  0  0  0  0  0  0  0  0  0  0  0
    9.1233    1.7991   22.0181 C   0  0  0  0  0  0  0  0  0  0  0  0
    9.6683    0.5435   21.4367 C   0  0  0  0  0  0  0  0  0  0  0  0
    8.6741   -0.5391   21.6464 C   0  0  0  0  0  0  0  0  0  0  0  0
    8.8124   -1.3946   22.6216 N   0  0  0  0  0  0  0  0  0  0  0  0
    7.6483   -2.0973   22.5928 C   0  0  0  0  0  0  0  0  0  0  0  0
    7.3662   -3.1339   23.6321 C   0  0  0  0  0  0  0  0  0  0  0  0
    7.3181   -2.4731   25.0356 C   0  0  0  0  0  0  0  0  0  0  0  0
    7.1833   -3.4952   26.1711 C   0  0  0  0  0  0  0  0  0  0  0  0
    8.2479   -4.6121   26.1073 C   0  0  0  0  0  0  0  0  0  0  0  0
    9.6538   -4.1185   26.4812 C   0  0  0  0  0  0  0  0  0  0  0  0
    9.6657   -3.6437   27.4646 H   0  0  0  0  0  0  0  0  0  0  0  0
   10.3724   -4.9454   26.5014 H   0  0  0  0  0  0  0  0  0  0  0  0
   10.0322   -3.3792   25.7680 H   0  0  0  0  0  0  0  0  0  0  0  0
    8.2349   -5.2718   24.7120 C   0  0  0  0  0  0  0  0  0  0  0  0
    8.4300   -4.2541   23.5811 C   0  0  0  0  0  0  0  0  0  0  0  0
    9.4218   -3.7855   23.6614 H   0  0  0  0  0  0  0  0  0  0  0  0
    8.4043   -4.7584   22.6071 H   0  0  0  0  0  0  0  0  0  0  0  0
    7.2728   -5.7844   24.5657 H   0  0  0  0  0  0  0  0  0  0  0  0
    9.0129   -6.0441   24.6596 H   0  0  0  0  0  0  0  0  0  0  0  0
    7.9698   -5.3755   26.8469 H   0  0  0  0  0  0  0  0  0  0  0  0
    6.1845   -3.9540   26.1310 H   0  0  0  0  0  0  0  0  0  0  0  0
    7.2414   -2.9771   27.1378 H   0  0  0  0  0  0  0  0  0  0  0  0
    6.4954   -1.7467   25.0811 H   0  0  0  0  0  0  0  0  0  0  0  0
    8.2456   -1.8971   25.1686 H   0  0  0  0  0  0  0  0  0  0  0  0
    6.3832   -3.5533   23.3926 H   0  0  0  0  0  0  0  0  0  0  0  0
    6.8138   -1.7381   21.6480 N   0  0  0  0  0  0  0  0  0  0  0  0
    7.4760   -0.7234   21.0169 N   0  0  0  0  0  0  0  0  0  0  0  0
    6.8053   -0.0438   19.9494 C   0  0  0  0  0  0  0  0  0  0  0  0
    5.5813    0.5937   20.1887 C   0  0  0  0  0  0  0  0  0  0  0  0
    4.9615    1.2529   19.1257 C   0  0  0  0  0  0  0  0  0  0  0  0
    5.5542    1.2172   17.8586 C   0  0  0  0  0  0  0  0  0  0  0  0
    6.7019    0.5703   17.6105 N   0  0  0  0  0  0  0  0  0  0  0  0
    7.3085   -0.0423   18.6360 C   0  0  0  0  0  0  0  0  0  0  0  0
    8.2240   -0.5771   18.3917 H   0  0  0  0  0  0  0  0  0  0  0  0
    5.0860    1.7297   17.0202 H   0  0  0  0  0  0  0  0  0  0  0  0
    4.0296    1.7863   19.2668 H   0  0  0  0  0  0  0  0  0  0  0  0
    5.1286    0.5536   21.1819 H   0  0  0  0  0  0  0  0  0  0  0  0
    9.8812    0.6662   20.3750 H   0  0  0  0  0  0  0  0  0  0  0  0
   10.5719    0.2530   21.9775 H   0  0  0  0  0  0  0  0  0  0  0  0
    9.4472    2.1862   23.2368 N   0  0  0  0  0  0  0  0  0  0  0  0
    8.7768    3.3392   23.4066 N   0  0  0  0  0  0  0  0  0  0  0  0
    8.9033    3.8472   24.2666 H   0  0  0  0  0  0  0  0  0  0  0  0
    7.6458    2.4749   20.5343 H   0  0  0  0  0  0  0  0  0  0  0  0
    7.0876    5.4458   23.2346 H   0  0  0  0  0  0  0  0  0  0  0  0
    8.0006    5.7783   21.7325 H   0  0  0  0  0  0  0  0  0  0  0  0
    6.4350    4.9942   21.6530 H   0  0  0  0  0  0  0  0  0  0  0  0
  1  2  1  0
  2  3  2  0
  3  4  1  0
  4  5  1  0
  5  6  1  0
  6  7  2  0
  7  8  1  0
  8  9  1  0
  9 10  1  0
 10 11  1  0
 11 12  1  0
 12 13  1  0
 13 14  1  0
 13 15  1  0
 13 16  1  0
 12 17  1  0
 17 18  1  0
 18 19  1  0
 18 20  1  0
 17 21  1  0
 17 22  1  0
 12 23  1  0
 11 24  1  0
 11 25  1  0
 10 26  1  0
 10 27  1  0
  9 28  1  0
  8 29  2  0
 29 30  1  0
 30 31  1  0
 31 32  2  0
 32 33  1  0
 33 34  2  0
 34 35  1  0
 35 36  2  0
 36 37  1  0
 34 38  1  0
 33 39  1  0
 32 40  1  0
  5 41  1  0
  5 42  1  0
  4 43  2  0
 43 44  1  0
 44 45  1  0
  3 46  1  0
  1 47  1  0
  1 48  1  0
  1 49  1  0
 44  2  1  0
 30  6  1  0
 36 31  1  0
 18  9  1  0
M  END
>  <cnnaffinity>  (1) 
-6.29736

>  <filename>  (1) 
Cc1cc(Cc2nc(C3CCC(C)CC3)nn2-c2cccnc2)n[nH]1

$$$$
