
     RDKit          3D

 45 48  0  0  0  0  0  0  0  0999 V2000
    8.2412    2.8327   25.4405 C   0  0  0  0  0  0  0  0  0  0  0  0
    7.4170    1.5741   25.5729 C   0  0  0  0  0  0  0  0  0  0  0  0
    7.4525    0.8253   26.7537 C   0  0  0  0  0  0  0  0  0  0  0  0
    6.6461   -0.3127   26.8714 C   0  0  0  0  0  0  0  0  0  0  0  0
    5.8493   -0.6757   25.7847 C   0  0  0  0  0  0  0  0  0  0  0  0
    5.8488   -0.0117   24.6171 N   0  0  0  0  0  0  0  0  0  0  0  0
    6.6115    1.0796   24.5120 C   0  0  0  0  0  0  0  0  0  0  0  0
    6.6546    1.6552   23.1176 C   0  0  0  0  0  0  0  0  0  0  0  0
    7.7216    0.8933   22.4107 C   0  0  0  0  0  0  0  0  0  0  0  0
    8.9961    1.1045   22.6437 N   0  0  0  0  0  0  0  0  0  0  0  0
    9.6192    0.0531   22.0510 C   0  0  0  0  0  0  0  0  0  0  0  0
   11.0933   -0.0988   22.1406 C   0  0  0  0  0  0  0  0  0  0  0  0
   11.7822   -1.1600   21.5234 C   0  0  0  0  0  0  0  0  0  0  0  0
   13.1643   -1.2403   21.6641 C   0  0  0  0  0  0  0  0  0  0  0  0
   13.8271   -2.2080   21.0153 F   0  0  0  0  0  0  0  0  0  0  0  0
   13.9010   -0.3322   22.4158 C   0  0  0  0  0  0  0  0  0  0  0  0
   13.1962    0.6998   23.0171 C   0  0  0  0  0  0  0  0  0  0  0  0
   13.8579    1.5776   23.7753 F   0  0  0  0  0  0  0  0  0  0  0  0
   11.8266    0.8551   22.8729 C   0  0  0  0  0  0  0  0  0  0  0  0
   11.3689    1.7346   23.3072 H   0  0  0  0  0  0  0  0  0  0  0  0
   14.9725   -0.4042   22.5252 H   0  0  0  0  0  0  0  0  0  0  0  0
   11.2509   -1.9091   20.9461 H   0  0  0  0  0  0  0  0  0  0  0  0
    8.7905   -0.7854   21.4478 N   0  0  0  0  0  0  0  0  0  0  0  0
    7.5731   -0.2403   21.6926 N   0  0  0  0  0  0  0  0  0  0  0  0
    6.3630   -0.7608   21.0614 C   0  0  0  0  0  0  0  0  0  0  0  0
    5.9626   -0.0139   19.8047 C   0  0  0  0  0  0  0  0  0  0  0  0
    4.7812    0.7259   19.6847 C   0  0  0  0  0  0  0  0  0  0  0  0
    4.5637    1.4718   18.5228 C   0  0  0  0  0  0  0  0  0  0  0  0
    5.5295    1.4410   17.5152 C   0  0  0  0  0  0  0  0  0  0  0  0
    6.6401    0.6935   17.5872 N   0  0  0  0  0  0  0  0  0  0  0  0
    6.8356   -0.0131   18.7059 C   0  0  0  0  0  0  0  0  0  0  0  0
    7.7468   -0.6082   18.7444 H   0  0  0  0  0  0  0  0  0  0  0  0
    5.4076    2.0239   16.6027 H   0  0  0  0  0  0  0  0  0  0  0  0
    3.6771    2.0801   18.3861 H   0  0  0  0  0  0  0  0  0  0  0  0
    4.0374    0.7301   20.4836 H   0  0  0  0  0  0  0  0  0  0  0  0
    5.5675   -0.6972   21.8021 H   0  0  0  0  0  0  0  0  0  0  0  0
    6.5366   -1.8228   20.8671 H   0  0  0  0  0  0  0  0  0  0  0  0
    5.6810    1.5259   22.6460 H   0  0  0  0  0  0  0  0  0  0  0  0
    6.9259    2.7151   23.1108 H   0  0  0  0  0  0  0  0  0  0  0  0
    5.1873   -1.5346   25.8330 H   0  0  0  0  0  0  0  0  0  0  0  0
    6.6337   -0.9059   27.7799 H   0  0  0  0  0  0  0  0  0  0  0  0
    8.1173    1.1355   27.5646 H   0  0  0  0  0  0  0  0  0  0  0  0
    7.6328    3.6925   25.1430 H   0  0  0  0  0  0  0  0  0  0  0  0
    9.0150    2.7089   24.6775 H   0  0  0  0  0  0  0  0  0  0  0  0
    8.7314    3.0963   26.3812 H   0  0  0  0  0  0  0  0  0  0  0  0
  1  2  1  0
  2  3  2  0
  3  4  1  0
  4  5  2  0
  5  6  1  0
  6  7  2  0
  7  8  1  0
  8  9  1  0
  9 10  2  0
 10 11  1  0
 11 12  1  0
 12 13  2  0
 13 14  1  0
 14 15  1  0
 14 16  2  0
 16 17  1  0
 17 18  1  0
 17 19  2  0
 19 20  1  0
 16 21  1  0
 13 22  1  0
 11 23  2  0
 23 24  1  0
 24 25  1  0
 25 26  1  0
 26 27  2  0
 27 28  1  0
 28 29  2  0
 29 30  1  0
 30 31  2  0
 31 32  1  0
 29 33  1  0
 28 34  1  0
 27 35  1  0
 25 36  1  0
 25 37  1  0
  8 38  1  0
  8 39  1  0
  5 40  1  0
  4 41  1  0
  3 42  1  0
  1 43  1  0
  1 44  1  0
  1 45  1  0
  7  2  1  0
 24  9  1  0
 31 26  1  0
 19 12  1  0
M  END
>  <cnnaffinity>  (1) 
-6.57406

>  <filename>  (1) 
Cc1cccnc1Cc1nc(-c2cc(F)cc(F)c2)nn1Cc1cccnc1

$$$$
