
     RDKit          3D

 43 46  0  0  0  0  0  0  0  0999 V2000
   13.6427    0.4901   23.7604 C   0  0  0  0  0  0  0  0  0  0  0  0
   12.4322    0.9095   22.9934 C   0  0  0  0  0  0  0  0  0  0  0  0
   11.8637    2.0484   23.3172 N   0  0  0  0  0  0  0  0  0  0  0  0
   10.4795    2.2516   22.4261 S   0  0  0  0  0  0  0  0  0  0  0  0
   10.6288    0.7676   21.5770 C   0  0  0  0  0  0  0  0  0  0  0  0
    9.5850    0.1942   20.6705 C   0  0  0  0  0  0  0  0  0  0  0  0
    8.5610   -0.6465   21.3602 C   0  0  0  0  0  0  0  0  0  0  0  0
    8.7674   -1.4706   22.3619 N   0  0  0  0  0  0  0  0  0  0  0  0
    7.5386   -2.0229   22.5693 C   0  0  0  0  0  0  0  0  0  0  0  0
    7.3392   -3.0379   23.6502 C   0  0  0  0  0  0  0  0  0  0  0  0
    8.0800   -4.3644   23.3247 C   0  0  0  0  0  0  0  0  0  0  0  0
    8.1086   -5.3060   24.5025 C   0  0  0  0  0  0  0  0  0  0  0  0
    7.8480   -4.9242   25.7579 C   0  0  0  0  0  0  0  0  0  0  0  0
    7.5161   -3.5015   26.1406 C   0  0  0  0  0  0  0  0  0  0  0  0
    7.8299   -2.5024   25.0175 C   0  0  0  0  0  0  0  0  0  0  0  0
    8.9149   -2.3397   24.9514 H   0  0  0  0  0  0  0  0  0  0  0  0
    7.3780   -1.5271   25.2337 H   0  0  0  0  0  0  0  0  0  0  0  0
    8.0552   -3.2295   27.0573 H   0  0  0  0  0  0  0  0  0  0  0  0
    6.4486   -3.4421   26.3995 H   0  0  0  0  0  0  0  0  0  0  0  0
    7.8470   -5.6664   26.5546 H   0  0  0  0  0  0  0  0  0  0  0  0
    8.3811   -6.3397   24.3022 H   0  0  0  0  0  0  0  0  0  0  0  0
    7.6205   -4.8658   22.4630 H   0  0  0  0  0  0  0  0  0  0  0  0
    9.1129   -4.1320   23.0244 H   0  0  0  0  0  0  0  0  0  0  0  0
    6.2634   -3.2411   23.7040 H   0  0  0  0  0  0  0  0  0  0  0  0
    6.6022   -1.6046   21.7437 N   0  0  0  0  0  0  0  0  0  0  0  0
    7.2682   -0.7350   20.9385 N   0  0  0  0  0  0  0  0  0  0  0  0
    6.6007   -0.0483   19.8865 C   0  0  0  0  0  0  0  0  0  0  0  0
    5.3978    0.6181   20.1395 C   0  0  0  0  0  0  0  0  0  0  0  0
    4.7994    1.3132   19.0872 C   0  0  0  0  0  0  0  0  0  0  0  0
    5.4059    1.3043   17.8252 C   0  0  0  0  0  0  0  0  0  0  0  0
    6.5458    0.6461   17.5680 N   0  0  0  0  0  0  0  0  0  0  0  0
    7.1246   -0.0084   18.5803 C   0  0  0  0  0  0  0  0  0  0  0  0
    8.0644   -0.5096   18.3487 H   0  0  0  0  0  0  0  0  0  0  0  0
    4.9590    1.8389   16.9898 H   0  0  0  0  0  0  0  0  0  0  0  0
    3.8781    1.8638   19.2356 H   0  0  0  0  0  0  0  0  0  0  0  0
    4.9679    0.5929   21.1423 H   0  0  0  0  0  0  0  0  0  0  0  0
   10.0738   -0.4696   19.9492 H   0  0  0  0  0  0  0  0  0  0  0  0
    9.0835    0.9858   20.1115 H   0  0  0  0  0  0  0  0  0  0  0  0
   11.7944    0.1717   21.9522 C   0  0  0  0  0  0  0  0  0  0  0  0
   12.2034   -0.7243   21.4944 H   0  0  0  0  0  0  0  0  0  0  0  0
   13.3415    0.0054   24.6952 H   0  0  0  0  0  0  0  0  0  0  0  0
   14.2107    1.3784   24.0158 H   0  0  0  0  0  0  0  0  0  0  0  0
   14.2825   -0.2048   23.2118 H   0  0  0  0  0  0  0  0  0  0  0  0
  1  2  1  0
  2  3  2  0
  3  4  1  0
  4  5  1  0
  5  6  1  0
  6  7  1  0
  7  8  2  0
  8  9  1  0
  9 10  1  0
 10 11  1  0
 11 12  1  0
 12 13  2  0
 13 14  1  0
 14 15  1  0
 15 16  1  0
 15 17  1  0
 14 18  1  0
 14 19  1  0
 13 20  1  0
 12 21  1  0
 11 22  1  0
 11 23  1  0
 10 24  1  0
  9 25  2  0
 25 26  1  0
 26 27  1  0
 27 28  2  0
 28 29  1  0
 29 30  2  0
 30 31  1  0
 31 32  2  0
 32 33  1  0
 30 34  1  0
 29 35  1  0
 28 36  1  0
  6 37  1  0
  6 38  1  0
  5 39  2  0
 39 40  1  0
  1 41  1  0
  1 42  1  0
  1 43  1  0
 39  2  1  0
 26  7  1  0
 32 27  1  0
 15 10  1  0
M  END
>  <cnnaffinity>  (1) 
-6.58976

>  <filename>  (1) 
Cc1cc(Cc2nc(C3CC=CCC3)nn2-c2cccnc2)sn1

$$$$
