
     RDKit          3D

 43 46  0  0  0  0  0  0  0  0999 V2000
    9.3474   -4.9131   26.2993 C   0  0  0  0  0  0  0  0  0  0  0  0
    8.2271   -4.4773   25.3795 C   0  0  0  0  0  0  0  0  0  0  0  0
    6.9613   -5.0738   25.4660 C   0  0  0  0  0  0  0  0  0  0  0  0
    5.9280   -4.6903   24.6040 C   0  0  0  0  0  0  0  0  0  0  0  0
    6.1439   -3.7058   23.6427 C   0  0  0  0  0  0  0  0  0  0  0  0
    7.4115   -3.0972   23.5330 C   0  0  0  0  0  0  0  0  0  0  0  0
    7.6469   -2.0583   22.5055 C   0  0  0  0  0  0  0  0  0  0  0  0
    6.7049   -1.6296   21.6806 N   0  0  0  0  0  0  0  0  0  0  0  0
    7.3383   -0.6966   20.9304 N   0  0  0  0  0  0  0  0  0  0  0  0
    6.6465    0.0000   19.8984 C   0  0  0  0  0  0  0  0  0  0  0  0
    5.4310    0.6361   20.1662 C   0  0  0  0  0  0  0  0  0  0  0  0
    4.8096    1.3063   19.1065 C   0  0  0  0  0  0  0  0  0  0  0  0
    5.3979    1.2961   17.8353 C   0  0  0  0  0  0  0  0  0  0  0  0
    6.5531    0.6680   17.5717 N   0  0  0  0  0  0  0  0  0  0  0  0
    7.1604    0.0482   18.5895 C   0  0  0  0  0  0  0  0  0  0  0  0
    8.1072   -0.4338   18.3617 H   0  0  0  0  0  0  0  0  0  0  0  0
    4.9254    1.7913   16.9910 H   0  0  0  0  0  0  0  0  0  0  0  0
    3.8822    1.8405   19.2582 H   0  0  0  0  0  0  0  0  0  0  0  0
    5.0133    0.6009   21.1760 H   0  0  0  0  0  0  0  0  0  0  0  0
    8.6242   -0.5830   21.3713 C   0  0  0  0  0  0  0  0  0  0  0  0
    9.6216    0.4203   20.8933 C   0  0  0  0  0  0  0  0  0  0  0  0
    9.8935    1.4699   21.9301 C   0  0  0  0  0  0  0  0  0  0  0  0
    9.1293    2.5587   22.2864 C   0  0  0  0  0  0  0  0  0  0  0  0
    7.6411    3.0337   21.5811 Cl  0  0  0  0  0  0  0  0  0  0  0  0
    9.7336    3.1021   23.4301 C   0  0  0  0  0  0  0  0  0  0  0  0
   10.7866    2.3770   23.7893 N   0  0  0  0  0  0  0  0  0  0  0  0
   10.8524    1.3932   22.8795 N   0  0  0  0  0  0  0  0  0  0  0  0
   11.8635    0.3683   22.9715 C   0  0  0  0  0  0  0  0  0  0  0  0
   12.5156    0.4044   22.0983 H   0  0  0  0  0  0  0  0  0  0  0  0
   12.4450    0.5745   23.8616 H   0  0  0  0  0  0  0  0  0  0  0  0
   11.3944   -0.6174   23.0284 H   0  0  0  0  0  0  0  0  0  0  0  0
    9.4232    3.9901   23.9624 H   0  0  0  0  0  0  0  0  0  0  0  0
   10.5306   -0.1316   20.6303 H   0  0  0  0  0  0  0  0  0  0  0  0
    9.2350    0.9251   20.0101 H   0  0  0  0  0  0  0  0  0  0  0  0
    8.8514   -1.4473   22.3323 N   0  0  0  0  0  0  0  0  0  0  0  0
    8.4415   -3.4915   24.4093 C   0  0  0  0  0  0  0  0  0  0  0  0
    9.4253   -3.0289   24.3375 H   0  0  0  0  0  0  0  0  0  0  0  0
    5.3434   -3.3918   22.9743 H   0  0  0  0  0  0  0  0  0  0  0  0
    4.9526   -5.1608   24.6856 H   0  0  0  0  0  0  0  0  0  0  0  0
    6.7966   -5.8430   26.2190 H   0  0  0  0  0  0  0  0  0  0  0  0
    8.9694   -5.2823   27.2573 H   0  0  0  0  0  0  0  0  0  0  0  0
    9.9316   -5.7270   25.8565 H   0  0  0  0  0  0  0  0  0  0  0  0
   10.0454   -4.0978   26.5123 H   0  0  0  0  0  0  0  0  0  0  0  0
  1  2  1  0
  2  3  2  0
  3  4  1  0
  4  5  2  0
  5  6  1  0
  6  7  1  0
  7  8  2  0
  8  9  1  0
  9 10  1  0
 10 11  2  0
 11 12  1  0
 12 13  2  0
 13 14  1  0
 14 15  2  0
 15 16  1  0
 13 17  1  0
 12 18  1  0
 11 19  1  0
  9 20  1  0
 20 21  1  0
 21 22  1  0
 22 23  2  0
 23 24  1  0
 23 25  1  0
 25 26  2  0
 26 27  1  0
 27 28  1  0
 28 29  1  0
 28 30  1  0
 28 31  1  0
 25 32  1  0
 21 33  1  0
 21 34  1  0
 20 35  2  0
  6 36  2  0
 36 37  1  0
  5 38  1  0
  4 39  1  0
  3 40  1  0
  1 41  1  0
  1 42  1  0
  1 43  1  0
 36  2  1  0
 35  7  1  0
 15 10  1  0
 27 22  1  0
M  END
>  <cnnaffinity>  (1) 
-6.32482

>  <filename>  (1) 
Cc1cccc(-c2nc(Cc3c(Cl)cnn3C)n(-c3cccnc3)n2)c1

$$$$
