
     RDKit          3D

 42 45  0  0  0  0  0  0  0  0999 V2000
   12.6024    1.4431   23.3845 C   0  0  0  0  0  0  0  0  0  0  0  0
   12.7768    0.3000   22.4157 C   0  0  0  0  0  0  0  0  0  0  0  0
   14.0615   -0.1054   22.0225 C   0  0  0  0  0  0  0  0  0  0  0  0
   14.2447   -1.1957   21.1658 C   0  0  0  0  0  0  0  0  0  0  0  0
   13.1627   -1.9575   20.7526 C   0  0  0  0  0  0  0  0  0  0  0  0
   11.8897   -1.6076   21.1612 C   0  0  0  0  0  0  0  0  0  0  0  0
   11.6757   -0.4154   21.8681 C   0  0  0  0  0  0  0  0  0  0  0  0
   10.2782    0.0477   21.9407 C   0  0  0  0  0  0  0  0  0  0  0  0
    9.3033   -0.6896   21.4219 N   0  0  0  0  0  0  0  0  0  0  0  0
    8.1862   -0.0013   21.7161 N   0  0  0  0  0  0  0  0  0  0  0  0
    6.8924   -0.5186   21.2733 C   0  0  0  0  0  0  0  0  0  0  0  0
    6.3292    0.1909   20.0626 C   0  0  0  0  0  0  0  0  0  0  0  0
    5.1021    0.8642   20.0570 C   0  0  0  0  0  0  0  0  0  0  0  0
    4.6956    1.4970   18.8790 C   0  0  0  0  0  0  0  0  0  0  0  0
    5.5171    1.4108   17.7520 C   0  0  0  0  0  0  0  0  0  0  0  0
    6.6849    0.7488   17.7300 N   0  0  0  0  0  0  0  0  0  0  0  0
    7.0740    0.1733   18.8711 C   0  0  0  0  0  0  0  0  0  0  0  0
    8.0299   -0.3500   18.8545 H   0  0  0  0  0  0  0  0  0  0  0  0
    5.2282    1.8839   16.8180 H   0  0  0  0  0  0  0  0  0  0  0  0
    3.7714    2.0620   18.8221 H   0  0  0  0  0  0  0  0  0  0  0  0
    4.4726    0.8934   20.9501 H   0  0  0  0  0  0  0  0  0  0  0  0
    6.1996   -0.4810   22.1165 H   0  0  0  0  0  0  0  0  0  0  0  0
    7.0809   -1.5748   21.0545 H   0  0  0  0  0  0  0  0  0  0  0  0
    8.5273    1.1251   22.3741 C   0  0  0  0  0  0  0  0  0  0  0  0
    7.5573    2.0047   23.0840 C   0  0  0  0  0  0  0  0  0  0  0  0
    7.2545    1.3499   24.3981 C   0  0  0  0  0  0  0  0  0  0  0  0
    6.1971    0.5482   24.6885 C   0  0  0  0  0  0  0  0  0  0  0  0
    6.4035   -0.1626   26.2455 S   0  0  0  0  0  0  0  0  0  0  0  0
    7.8977    0.6975   26.3949 C   0  0  0  0  0  0  0  0  0  0  0  0
    8.2076    1.4405   25.3825 N   0  0  0  0  0  0  0  0  0  0  0  0
    8.5222    0.5925   27.2765 H   0  0  0  0  0  0  0  0  0  0  0  0
    5.3198    0.3730   24.0865 H   0  0  0  0  0  0  0  0  0  0  0  0
    8.0508    2.9627   23.2639 H   0  0  0  0  0  0  0  0  0  0  0  0
    6.6637    2.1418   22.4690 H   0  0  0  0  0  0  0  0  0  0  0  0
    9.8315    1.1933   22.5144 N   0  0  0  0  0  0  0  0  0  0  0  0
   11.0258   -2.2123   20.8969 H   0  0  0  0  0  0  0  0  0  0  0  0
   13.3231   -2.7939   20.0838 H   0  0  0  0  0  0  0  0  0  0  0  0
   15.1871   -1.4771   20.7322 H   0  0  0  0  0  0  0  0  0  0  0  0
   14.9130    0.4690   22.3797 H   0  0  0  0  0  0  0  0  0  0  0  0
   11.9090    1.1577   24.1844 H   0  0  0  0  0  0  0  0  0  0  0  0
   12.1566    2.3061   22.8794 H   0  0  0  0  0  0  0  0  0  0  0  0
   13.5555    1.7365   23.8406 H   0  0  0  0  0  0  0  0  0  0  0  0
  1  2  1  0
  2  3  2  0
  3  4  1  0
  4  5  2  0
  5  6  1  0
  6  7  2  0
  7  8  1  0
  8  9  2  0
  9 10  1  0
 10 11  1  0
 11 12  1  0
 12 13  2  0
 13 14  1  0
 14 15  2  0
 15 16  1  0
 16 17  2  0
 17 18  1  0
 15 19  1  0
 14 20  1  0
 13 21  1  0
 11 22  1  0
 11 23  1  0
 10 24  1  0
 24 25  1  0
 25 26  1  0
 26 27  2  0
 27 28  1  0
 28 29  1  0
 29 30  2  0
 29 31  1  0
 27 32  1  0
 25 33  1  0
 25 34  1  0
 24 35  2  0
  6 36  1  0
  5 37  1  0
  4 38  1  0
  3 39  1  0
  1 40  1  0
  1 41  1  0
  1 42  1  0
  7  2  1  0
 35  8  1  0
 17 12  1  0
 30 26  1  0
M  END
>  <cnnaffinity>  (1) 
-6.54907

>  <filename>  (1) 
Cc1ccccc1-c1nc(Cc2cscn2)n(Cc2cccnc2)n1

$$$$
