
     RDKit          3D

 46 49  0  0  0  0  0  0  0  0999 V2000
    8.3156    2.7489   22.0776 C   0  0  0  0  0  0  0  0  0  0  0  0
    9.6730    2.2522   22.5081 C   0  0  0  0  0  0  0  0  0  0  0  0
   10.3667    2.8644   23.5596 C   0  0  0  0  0  0  0  0  0  0  0  0
   11.5608    2.4810   24.0257 N   0  0  0  0  0  0  0  0  0  0  0  0
   12.1245    1.4259   23.4315 C   0  0  0  0  0  0  0  0  0  0  0  0
   11.5404    0.7402   22.3691 C   0  0  0  0  0  0  0  0  0  0  0  0
   10.3087    1.1665   21.8819 C   0  0  0  0  0  0  0  0  0  0  0  0
    9.6185    0.3735   20.8030 C   0  0  0  0  0  0  0  0  0  0  0  0
    8.6148   -0.5710   21.3636 C   0  0  0  0  0  0  0  0  0  0  0  0
    8.8574   -1.4349   22.3258 N   0  0  0  0  0  0  0  0  0  0  0  0
    7.6455   -2.0191   22.5222 C   0  0  0  0  0  0  0  0  0  0  0  0
    7.4346   -3.0417   23.5957 C   0  0  0  0  0  0  0  0  0  0  0  0
    8.2623   -4.3261   23.3323 C   0  0  0  0  0  0  0  0  0  0  0  0
    8.2394   -5.2801   24.5014 C   0  0  0  0  0  0  0  0  0  0  0  0
    7.8932   -4.9156   25.7391 C   0  0  0  0  0  0  0  0  0  0  0  0
    7.4172   -3.5235   26.0856 C   0  0  0  0  0  0  0  0  0  0  0  0
    7.7560   -2.4857   25.0023 C   0  0  0  0  0  0  0  0  0  0  0  0
    8.8220   -2.2258   25.0435 H   0  0  0  0  0  0  0  0  0  0  0  0
    7.2003   -1.5589   25.1870 H   0  0  0  0  0  0  0  0  0  0  0  0
    7.8283   -3.2083   27.0520 H   0  0  0  0  0  0  0  0  0  0  0  0
    6.3277   -3.5594   26.2304 H   0  0  0  0  0  0  0  0  0  0  0  0
    7.9391   -5.6437   26.5496 H   0  0  0  0  0  0  0  0  0  0  0  0
    8.5405   -6.3084   24.3071 H   0  0  0  0  0  0  0  0  0  0  0  0
    9.3051   -4.0462   23.1272 H   0  0  0  0  0  0  0  0  0  0  0  0
    7.9032   -4.8303   22.4269 H   0  0  0  0  0  0  0  0  0  0  0  0
    6.3704   -3.2918   23.5567 H   0  0  0  0  0  0  0  0  0  0  0  0
    6.6935   -1.6040   21.7149 N   0  0  0  0  0  0  0  0  0  0  0  0
    7.3295   -0.6935   20.9307 N   0  0  0  0  0  0  0  0  0  0  0  0
    6.6465   -0.0024   19.8970 C   0  0  0  0  0  0  0  0  0  0  0  0
    5.4365    0.6461   20.1646 C   0  0  0  0  0  0  0  0  0  0  0  0
    4.8109    1.3141   19.1091 C   0  0  0  0  0  0  0  0  0  0  0  0
    5.4004    1.2966   17.8386 C   0  0  0  0  0  0  0  0  0  0  0  0
    6.5587    0.6728   17.5762 N   0  0  0  0  0  0  0  0  0  0  0  0
    7.1654    0.0478   18.5908 C   0  0  0  0  0  0  0  0  0  0  0  0
    8.1153   -0.4323   18.3673 H   0  0  0  0  0  0  0  0  0  0  0  0
    4.9171    1.7839   16.9948 H   0  0  0  0  0  0  0  0  0  0  0  0
    3.8785    1.8421   19.2618 H   0  0  0  0  0  0  0  0  0  0  0  0
    5.0140    0.6106   21.1722 H   0  0  0  0  0  0  0  0  0  0  0  0
   10.3309   -0.2731   20.2935 H   0  0  0  0  0  0  0  0  0  0  0  0
    9.1578    1.0470   20.0795 H   0  0  0  0  0  0  0  0  0  0  0  0
   12.0284   -0.1251   21.9353 H   0  0  0  0  0  0  0  0  0  0  0  0
   13.0895    1.1133   23.8157 H   0  0  0  0  0  0  0  0  0  0  0  0
    9.9135    3.7222   24.0512 H   0  0  0  0  0  0  0  0  0  0  0  0
    7.9707    3.5924   22.6815 H   0  0  0  0  0  0  0  0  0  0  0  0
    7.5527    1.9634   22.1309 H   0  0  0  0  0  0  0  0  0  0  0  0
    8.3456    3.0811   21.0394 H   0  0  0  0  0  0  0  0  0  0  0  0
  1  2  1  0
  2  3  2  0
  3  4  1  0
  4  5  2  0
  5  6  1  0
  6  7  2  0
  7  8  1  0
  8  9  1  0
  9 10  2  0
 10 11  1  0
 11 12  1  0
 12 13  1  0
 13 14  1  0
 14 15  2  0
 15 16  1  0
 16 17  1  0
 17 18  1  0
 17 19  1  0
 16 20  1  0
 16 21  1  0
 15 22  1  0
 14 23  1  0
 13 24  1  0
 13 25  1  0
 12 26  1  0
 11 27  2  0
 27 28  1  0
 28 29  1  0
 29 30  2  0
 30 31  1  0
 31 32  2  0
 32 33  1  0
 33 34  2  0
 34 35  1  0
 32 36  1  0
 31 37  1  0
 30 38  1  0
  8 39  1  0
  8 40  1  0
  6 41  1  0
  5 42  1  0
  3 43  1  0
  1 44  1  0
  1 45  1  0
  1 46  1  0
  7  2  1  0
 28  9  1  0
 34 29  1  0
 17 12  1  0
M  END
>  <cnnaffinity>  (1) 
-6.51901

>  <filename>  (1) 
Cc1cnccc1Cc1nc(C2CC=CCC2)nn1-c1cccnc1

$$$$
