
     RDKit          3D

 45 48  0  0  0  0  0  0  0  0999 V2000
    9.6414    2.1910   21.1586 C   0  0  0  0  0  0  0  0  0  0  0  0
    9.7625    2.2065   22.6527 C   0  0  0  0  0  0  0  0  0  0  0  0
   10.9535    2.6274   23.2451 C   0  0  0  0  0  0  0  0  0  0  0  0
   11.1096    2.5220   24.6233 C   0  0  0  0  0  0  0  0  0  0  0  0
   10.1473    2.0787   25.4390 N   0  0  0  0  0  0  0  0  0  0  0  0
    8.9866    1.7280   24.8764 C   0  0  0  0  0  0  0  0  0  0  0  0
    8.7174    1.7887   23.4996 C   0  0  0  0  0  0  0  0  0  0  0  0
    7.3903    1.2921   22.9234 C   0  0  0  0  0  0  0  0  0  0  0  0
    7.5030   -0.0927   22.3482 C   0  0  0  0  0  0  0  0  0  0  0  0
    7.9631   -1.0977   23.0739 N   0  0  0  0  0  0  0  0  0  0  0  0
    8.0724   -2.1013   22.1792 C   0  0  0  0  0  0  0  0  0  0  0  0
    8.5525   -3.4586   22.5276 C   0  0  0  0  0  0  0  0  0  0  0  0
    8.2144   -4.1969   23.8000 C   0  0  0  0  0  0  0  0  0  0  0  0
    7.5684   -4.6064   22.5043 C   0  0  0  0  0  0  0  0  0  0  0  0
    6.1140   -4.2324   22.2826 C   0  0  0  0  0  0  0  0  0  0  0  0
    5.8769   -3.2864   22.7806 H   0  0  0  0  0  0  0  0  0  0  0  0
    5.4325   -4.9945   22.6683 H   0  0  0  0  0  0  0  0  0  0  0  0
    5.9197   -4.0853   21.2144 H   0  0  0  0  0  0  0  0  0  0  0  0
    8.0232   -5.8851   21.8298 C   0  0  0  0  0  0  0  0  0  0  0  0
    7.3254   -6.7044   22.0305 H   0  0  0  0  0  0  0  0  0  0  0  0
    8.1023   -5.7615   20.7419 H   0  0  0  0  0  0  0  0  0  0  0  0
    9.0035   -6.2204   22.1824 H   0  0  0  0  0  0  0  0  0  0  0  0
    8.9837   -4.8587   24.1953 H   0  0  0  0  0  0  0  0  0  0  0  0
    7.6392   -3.6903   24.5716 H   0  0  0  0  0  0  0  0  0  0  0  0
    9.5578   -3.5954   22.1569 H   0  0  0  0  0  0  0  0  0  0  0  0
    7.7092   -1.8025   20.9459 N   0  0  0  0  0  0  0  0  0  0  0  0
    7.2721   -0.5178   21.0652 N   0  0  0  0  0  0  0  0  0  0  0  0
    6.5946    0.0688   19.9589 C   0  0  0  0  0  0  0  0  0  0  0  0
    5.3850    0.7574   20.1115 C   0  0  0  0  0  0  0  0  0  0  0  0
    4.8348    1.3704   18.9788 C   0  0  0  0  0  0  0  0  0  0  0  0
    5.5018    1.2643   17.7540 C   0  0  0  0  0  0  0  0  0  0  0  0
    6.6193    0.5331   17.5878 N   0  0  0  0  0  0  0  0  0  0  0  0
    7.1301   -0.0735   18.6653 C   0  0  0  0  0  0  0  0  0  0  0  0
    7.9964   -0.7101   18.5038 H   0  0  0  0  0  0  0  0  0  0  0  0
    5.1237    1.7742   16.8693 H   0  0  0  0  0  0  0  0  0  0  0  0
    3.9099    1.9351   19.0450 H   0  0  0  0  0  0  0  0  0  0  0  0
    4.8841    0.7804   21.0806 H   0  0  0  0  0  0  0  0  0  0  0  0
    6.6585    1.2343   23.7338 H   0  0  0  0  0  0  0  0  0  0  0  0
    6.9984    1.9815   22.1690 H   0  0  0  0  0  0  0  0  0  0  0  0
    8.2190    1.3750   25.5715 H   0  0  0  0  0  0  0  0  0  0  0  0
   12.0464    2.8114   25.0889 H   0  0  0  0  0  0  0  0  0  0  0  0
   11.7576    3.0203   22.6347 H   0  0  0  0  0  0  0  0  0  0  0  0
   10.6038    2.4206   20.6927 H   0  0  0  0  0  0  0  0  0  0  0  0
    9.3140    1.2051   20.8074 H   0  0  0  0  0  0  0  0  0  0  0  0
    8.9079    2.9303   20.8188 H   0  0  0  0  0  0  0  0  0  0  0  0
  1  2  1  0
  2  3  2  0
  3  4  1  0
  4  5  2  0
  5  6  1  0
  6  7  2  0
  7  8  1  0
  8  9  1  0
  9 10  2  0
 10 11  1  0
 11 12  1  0
 12 13  1  0
 13 14  1  0
 14 15  1  0
 15 16  1  0
 15 17  1  0
 15 18  1  0
 14 19  1  0
 19 20  1  0
 19 21  1  0
 19 22  1  0
 13 23  1  0
 13 24  1  0
 12 25  1  0
 11 26  2  0
 26 27  1  0
 27 28  1  0
 28 29  2  0
 29 30  1  0
 30 31  2  0
 31 32  1  0
 32 33  2  0
 33 34  1  0
 31 35  1  0
 30 36  1  0
 29 37  1  0
  8 38  1  0
  8 39  1  0
  6 40  1  0
  4 41  1  0
  3 42  1  0
  1 43  1  0
  1 44  1  0
  1 45  1  0
  7  2  1  0
 27  9  1  0
 33 28  1  0
 14 12  1  0
M  END
>  <cnnaffinity>  (1) 
-6.08997

>  <filename>  (1) 
Cc1ccncc1Cc1nc(C2CC2(C)C)nn1-c1cccnc1

$$$$
