
     RDKit          3D

 48 51  0  0  0  0  0  0  0  0999 V2000
   14.6073    0.8768   22.7555 C   0  0  0  0  0  0  0  0  0  0  0  0
   13.5867   -0.0406   22.1454 C   0  0  0  0  0  0  0  0  0  0  0  0
   13.9461   -1.1826   21.4010 C   0  0  0  0  0  0  0  0  0  0  0  0
   12.9673   -1.9829   20.8165 C   0  0  0  0  0  0  0  0  0  0  0  0
   11.6281   -1.7274   21.0802 C   0  0  0  0  0  0  0  0  0  0  0  0
   11.2480   -0.5551   21.7328 C   0  0  0  0  0  0  0  0  0  0  0  0
    9.8289   -0.1851   21.7533 C   0  0  0  0  0  0  0  0  0  0  0  0
    8.8521   -1.0210   21.4394 N   0  0  0  0  0  0  0  0  0  0  0  0
    7.7435   -0.2551   21.5520 N   0  0  0  0  0  0  0  0  0  0  0  0
    6.4724   -0.7544   21.0304 C   0  0  0  0  0  0  0  0  0  0  0  0
    5.9880    0.0110   19.8184 C   0  0  0  0  0  0  0  0  0  0  0  0
    4.8186    0.7781   19.8288 C   0  0  0  0  0  0  0  0  0  0  0  0
    4.5027    1.5388   18.6997 C   0  0  0  0  0  0  0  0  0  0  0  0
    5.3626    1.4894   17.5985 C   0  0  0  0  0  0  0  0  0  0  0  0
    6.4704    0.7335   17.5549 N   0  0  0  0  0  0  0  0  0  0  0  0
    6.7643    0.0192   18.6471 C   0  0  0  0  0  0  0  0  0  0  0  0
    7.6717   -0.5827   18.5988 H   0  0  0  0  0  0  0  0  0  0  0  0
    5.1518    2.0743   16.7060 H   0  0  0  0  0  0  0  0  0  0  0  0
    3.6249    2.1746   18.6664 H   0  0  0  0  0  0  0  0  0  0  0  0
    4.1751    0.7943   20.7125 H   0  0  0  0  0  0  0  0  0  0  0  0
    5.7298   -0.7161   21.8297 H   0  0  0  0  0  0  0  0  0  0  0  0
    6.6515   -1.8094   20.8039 H   0  0  0  0  0  0  0  0  0  0  0  0
    8.1015    0.9974   21.9174 C   0  0  0  0  0  0  0  0  0  0  0  0
    7.1698    1.9842   22.5758 C   0  0  0  0  0  0  0  0  0  0  0  0
    6.9704    1.5375   24.0224 C   0  0  0  0  0  0  0  0  0  0  0  0
    5.8495    0.7990   24.4137 C   0  0  0  0  0  0  0  0  0  0  0  0
    5.8778    0.1124   25.6293 C   0  0  0  0  0  0  0  0  0  0  0  0
    7.0346    0.1773   26.4242 C   0  0  0  0  0  0  0  0  0  0  0  0
    7.1755   -0.6339   27.6786 C   0  0  0  0  0  0  0  0  0  0  0  0
    6.8302   -1.6621   27.5286 H   0  0  0  0  0  0  0  0  0  0  0  0
    8.2230   -0.6551   27.9926 H   0  0  0  0  0  0  0  0  0  0  0  0
    6.5809   -0.1951   28.4852 H   0  0  0  0  0  0  0  0  0  0  0  0
    8.0780    0.9571   26.1041 N   0  0  0  0  0  0  0  0  0  0  0  0
    8.0374    1.6060   24.9386 C   0  0  0  0  0  0  0  0  0  0  0  0
    8.9446    2.1512   24.6702 H   0  0  0  0  0  0  0  0  0  0  0  0
    5.0471   -0.5038   25.9540 H   0  0  0  0  0  0  0  0  0  0  0  0
    4.9834    0.7335   23.7509 H   0  0  0  0  0  0  0  0  0  0  0  0
    7.6376    2.9713   22.5131 H   0  0  0  0  0  0  0  0  0  0  0  0
    6.2186    2.0436   22.0387 H   0  0  0  0  0  0  0  0  0  0  0  0
    9.4158    1.0820   22.0026 N   0  0  0  0  0  0  0  0  0  0  0  0
   12.2334    0.2781   22.2704 C   0  0  0  0  0  0  0  0  0  0  0  0
   11.9342    1.1961   22.7698 H   0  0  0  0  0  0  0  0  0  0  0  0
   10.8238   -2.3729   20.7548 H   0  0  0  0  0  0  0  0  0  0  0  0
   13.2675   -2.7830   20.1455 H   0  0  0  0  0  0  0  0  0  0  0  0
   14.9745   -1.4741   21.2571 H   0  0  0  0  0  0  0  0  0  0  0  0
   15.5148    0.8973   22.1468 H   0  0  0  0  0  0  0  0  0  0  0  0
   14.8426    0.5529   23.7757 H   0  0  0  0  0  0  0  0  0  0  0  0
   14.2371    1.9070   22.8094 H   0  0  0  0  0  0  0  0  0  0  0  0
  1  2  1  0
  2  3  2  0
  3  4  1  0
  4  5  2  0
  5  6  1  0
  6  7  1  0
  7  8  2  0
  8  9  1  0
  9 10  1  0
 10 11  1  0
 11 12  2  0
 12 13  1  0
 13 14  2  0
 14 15  1  0
 15 16  2  0
 16 17  1  0
 14 18  1  0
 13 19  1  0
 12 20  1  0
 10 21  1  0
 10 22  1  0
  9 23  1  0
 23 24  1  0
 24 25  1  0
 25 26  2  0
 26 27  1  0
 27 28  2  0
 28 29  1  0
 29 30  1  0
 29 31  1  0
 29 32  1  0
 28 33  1  0
 33 34  2  0
 34 35  1  0
 27 36  1  0
 26 37  1  0
 24 38  1  0
 24 39  1  0
 23 40  2  0
  6 41  2  0
 41 42  1  0
  5 43  1  0
  4 44  1  0
  3 45  1  0
  1 46  1  0
  1 47  1  0
  1 48  1  0
 41  2  1  0
 40  7  1  0
 16 11  1  0
 34 25  1  0
M  END
>  <cnnaffinity>  (1) 
-6.50837

>  <filename>  (1) 
Cc1cccc(-c2nc(Cc3ccc(C)nc3)n(Cc3cccnc3)n2)c1

$$$$
