
     RDKit          3D

 49 52  0  0  0  0  0  0  0  0999 V2000
    9.1416   -5.0047   26.9373 C   0  0  0  0  0  0  0  0  0  0  0  0
    8.9888   -3.6916   26.1577 C   0  0  0  0  0  0  0  0  0  0  0  0
    9.5822   -3.7960   24.7244 C   0  0  0  0  0  0  0  0  0  0  0  0
    8.5135   -4.1269   23.6707 C   0  0  0  0  0  0  0  0  0  0  0  0
    7.3984   -3.0411   23.6025 C   0  0  0  0  0  0  0  0  0  0  0  0
    7.6430   -2.0440   22.5074 C   0  0  0  0  0  0  0  0  0  0  0  0
    6.6957   -1.6290   21.6929 N   0  0  0  0  0  0  0  0  0  0  0  0
    7.3305   -0.6947   20.9272 N   0  0  0  0  0  0  0  0  0  0  0  0
    6.6428    0.0005   19.8962 C   0  0  0  0  0  0  0  0  0  0  0  0
    5.4291    0.6404   20.1640 C   0  0  0  0  0  0  0  0  0  0  0  0
    4.8090    1.3085   19.1044 C   0  0  0  0  0  0  0  0  0  0  0  0
    5.3971    1.2970   17.8336 C   0  0  0  0  0  0  0  0  0  0  0  0
    6.5534    0.6691   17.5701 N   0  0  0  0  0  0  0  0  0  0  0  0
    7.1593    0.0491   18.5883 C   0  0  0  0  0  0  0  0  0  0  0  0
    8.1073   -0.4332   18.3630 H   0  0  0  0  0  0  0  0  0  0  0  0
    4.9236    1.7913   16.9901 H   0  0  0  0  0  0  0  0  0  0  0  0
    3.8811    1.8412   19.2578 H   0  0  0  0  0  0  0  0  0  0  0  0
    5.0117    0.6022   21.1734 H   0  0  0  0  0  0  0  0  0  0  0  0
    8.6165   -0.5789   21.3655 C   0  0  0  0  0  0  0  0  0  0  0  0
    9.6185    0.4244   20.8944 C   0  0  0  0  0  0  0  0  0  0  0  0
    9.8862    1.4681   21.9380 C   0  0  0  0  0  0  0  0  0  0  0  0
    9.1227    2.5594   22.2895 C   0  0  0  0  0  0  0  0  0  0  0  0
    7.6411    3.0429   21.5750 Cl  0  0  0  0  0  0  0  0  0  0  0  0
    9.7164    3.0958   23.4423 C   0  0  0  0  0  0  0  0  0  0  0  0
   10.7628    2.3652   23.8100 N   0  0  0  0  0  0  0  0  0  0  0  0
   10.8353    1.3842   22.8969 N   0  0  0  0  0  0  0  0  0  0  0  0
   11.8424    0.3557   22.9974 C   0  0  0  0  0  0  0  0  0  0  0  0
   12.4859    0.3711   22.1174 H   0  0  0  0  0  0  0  0  0  0  0  0
   12.4311    0.5709   23.8808 H   0  0  0  0  0  0  0  0  0  0  0  0
   11.3725   -0.6273   23.0770 H   0  0  0  0  0  0  0  0  0  0  0  0
    9.3991    3.9808   23.9755 H   0  0  0  0  0  0  0  0  0  0  0  0
   10.5312   -0.1203   20.6277 H   0  0  0  0  0  0  0  0  0  0  0  0
    9.2355    0.9340   20.0126 H   0  0  0  0  0  0  0  0  0  0  0  0
    8.8476   -1.4415   22.3306 N   0  0  0  0  0  0  0  0  0  0  0  0
    7.1947   -2.3066   24.9678 C   0  0  0  0  0  0  0  0  0  0  0  0
    7.5072   -3.2278   26.1499 C   0  0  0  0  0  0  0  0  0  0  0  0
    7.2701   -2.7327   27.0982 H   0  0  0  0  0  0  0  0  0  0  0  0
    6.8451   -4.1040   26.1042 H   0  0  0  0  0  0  0  0  0  0  0  0
    6.1708   -1.9237   25.0292 H   0  0  0  0  0  0  0  0  0  0  0  0
    7.8506   -1.4258   25.0175 H   0  0  0  0  0  0  0  0  0  0  0  0
    6.4589   -3.5254   23.3288 H   0  0  0  0  0  0  0  0  0  0  0  0
    8.9734   -4.2683   22.6882 H   0  0  0  0  0  0  0  0  0  0  0  0
    8.0545   -5.0916   23.9267 H   0  0  0  0  0  0  0  0  0  0  0  0
   10.0592   -2.8475   24.4452 H   0  0  0  0  0  0  0  0  0  0  0  0
   10.3796   -4.5483   24.7046 H   0  0  0  0  0  0  0  0  0  0  0  0
    9.5649   -2.9205   26.6853 H   0  0  0  0  0  0  0  0  0  0  0  0
    8.6236   -5.8278   26.4283 H   0  0  0  0  0  0  0  0  0  0  0  0
   10.1939   -5.2947   27.0322 H   0  0  0  0  0  0  0  0  0  0  0  0
    8.7199   -4.9295   27.9456 H   0  0  0  0  0  0  0  0  0  0  0  0
  1  2  1  0
  2  3  1  0
  3  4  1  0
  4  5  1  0
  5  6  1  0
  6  7  2  0
  7  8  1  0
  8  9  1  0
  9 10  2  0
 10 11  1  0
 11 12  2  0
 12 13  1  0
 13 14  2  0
 14 15  1  0
 12 16  1  0
 11 17  1  0
 10 18  1  0
  8 19  1  0
 19 20  1  0
 20 21  1  0
 21 22  2  0
 22 23  1  0
 22 24  1  0
 24 25  2  0
 25 26  1  0
 26 27  1  0
 27 28  1  0
 27 29  1  0
 27 30  1  0
 24 31  1  0
 20 32  1  0
 20 33  1  0
 19 34  2  0
  5 35  1  0
 35 36  1  0
 36 37  1  0
 36 38  1  0
 35 39  1  0
 35 40  1  0
  5 41  1  0
  4 42  1  0
  4 43  1  0
  3 44  1  0
  3 45  1  0
  2 46  1  0
  1 47  1  0
  1 48  1  0
  1 49  1  0
 36  2  1  0
 34  6  1  0
 14  9  1  0
 26 21  1  0
M  END
>  <cnnaffinity>  (1) 
-6.6131

>  <filename>  (1) 
CC1CCC(c2nc(Cc3c(Cl)cnn3C)n(-c3cccnc3)n2)CC1

$$$$
