
     RDKit          3D

 43 46  0  0  0  0  0  0  0  0999 V2000
   14.4744    0.7915   22.7192 C   0  0  0  0  0  0  0  0  0  0  0  0
   13.4012   -0.1466   22.2308 C   0  0  0  0  0  0  0  0  0  0  0  0
   12.0704    0.0231   22.6381 C   0  0  0  0  0  0  0  0  0  0  0  0
   11.0440   -0.7956   22.1375 C   0  0  0  0  0  0  0  0  0  0  0  0
    9.6276   -0.4384   22.2812 C   0  0  0  0  0  0  0  0  0  0  0  0
    8.6734   -1.2238   21.8085 N   0  0  0  0  0  0  0  0  0  0  0  0
    7.5575   -0.4758   21.9044 N   0  0  0  0  0  0  0  0  0  0  0  0
    6.3807   -0.9229   21.1614 C   0  0  0  0  0  0  0  0  0  0  0  0
    6.0431   -0.0716   19.9624 C   0  0  0  0  0  0  0  0  0  0  0  0
    4.9020    0.7348   19.9114 C   0  0  0  0  0  0  0  0  0  0  0  0
    4.6934    1.5274   18.7791 C   0  0  0  0  0  0  0  0  0  0  0  0
    5.6304    1.4758   17.7435 C   0  0  0  0  0  0  0  0  0  0  0  0
    6.7234    0.6957   17.7676 N   0  0  0  0  0  0  0  0  0  0  0  0
    6.9130   -0.0534   18.8594 C   0  0  0  0  0  0  0  0  0  0  0  0
    7.8059   -0.6820   18.8627 H   0  0  0  0  0  0  0  0  0  0  0  0
    5.4946    2.0771   16.8465 H   0  0  0  0  0  0  0  0  0  0  0  0
    3.8338    2.1837   18.6944 H   0  0  0  0  0  0  0  0  0  0  0  0
    4.1934    0.7397   20.7432 H   0  0  0  0  0  0  0  0  0  0  0  0
    6.6111   -1.9468   20.8495 H   0  0  0  0  0  0  0  0  0  0  0  0
    5.5466   -0.9776   21.8488 H   0  0  0  0  0  0  0  0  0  0  0  0
    7.8902    0.7179   22.4578 C   0  0  0  0  0  0  0  0  0  0  0  0
    6.9595    1.7752   22.9404 C   0  0  0  0  0  0  0  0  0  0  0  0
    6.5142    1.4425   24.2900 N   0  0  0  0  0  0  0  0  0  0  0  0
    5.4548    0.6647   24.6230 C   0  0  0  0  0  0  0  0  0  0  0  0
    5.6825    0.2324   25.9068 C   0  0  0  0  0  0  0  0  0  0  0  0
    4.7512   -0.9156   26.7890 Cl  0  0  0  0  0  0  0  0  0  0  0  0
    6.9078    0.8269   26.2883 C   0  0  0  0  0  0  0  0  0  0  0  0
    7.3976    1.5493   25.2949 N   0  0  0  0  0  0  0  0  0  0  0  0
    7.4477    0.7140   27.2218 H   0  0  0  0  0  0  0  0  0  0  0  0
    4.6053    0.5446   23.9652 H   0  0  0  0  0  0  0  0  0  0  0  0
    6.1041    1.9071   22.2744 H   0  0  0  0  0  0  0  0  0  0  0  0
    7.5380    2.6969   22.9956 H   0  0  0  0  0  0  0  0  0  0  0  0
    9.1855    0.7757   22.6814 N   0  0  0  0  0  0  0  0  0  0  0  0
   11.3486   -1.8505   21.2662 C   0  0  0  0  0  0  0  0  0  0  0  0
   12.6457   -1.9902   20.8027 C   0  0  0  0  0  0  0  0  0  0  0  0
   13.6404   -1.1733   21.3043 C   0  0  0  0  0  0  0  0  0  0  0  0
   14.8290   -1.3380   20.7041 F   0  0  0  0  0  0  0  0  0  0  0  0
   12.9227   -2.6427   19.9813 H   0  0  0  0  0  0  0  0  0  0  0  0
   10.5332   -2.4758   20.8996 H   0  0  0  0  0  0  0  0  0  0  0  0
   11.8166    0.8263   23.3345 H   0  0  0  0  0  0  0  0  0  0  0  0
   14.8000    0.5005   23.7197 H   0  0  0  0  0  0  0  0  0  0  0  0
   14.1077    1.8220   22.7797 H   0  0  0  0  0  0  0  0  0  0  0  0
   15.3415    0.7876   22.0571 H   0  0  0  0  0  0  0  0  0  0  0  0
  1  2  1  0
  2  3  2  0
  3  4  1  0
  4  5  1  0
  5  6  2  0
  6  7  1  0
  7  8  1  0
  8  9  1  0
  9 10  2  0
 10 11  1  0
 11 12  2  0
 12 13  1  0
 13 14  2  0
 14 15  1  0
 12 16  1  0
 11 17  1  0
 10 18  1  0
  8 19  1  0
  8 20  1  0
  7 21  1  0
 21 22  1  0
 22 23  1  0
 23 24  1  0
 24 25  2  0
 25 26  1  0
 25 27  1  0
 27 28  2  0
 27 29  1  0
 24 30  1  0
 22 31  1  0
 22 32  1  0
 21 33  2  0
  4 34  2  0
 34 35  1  0
 35 36  2  0
 36 37  1  0
 35 38  1  0
 34 39  1  0
  3 40  1  0
  1 41  1  0
  1 42  1  0
  1 43  1  0
 36  2  1  0
 33  5  1  0
 14  9  1  0
 28 23  1  0
M  END
>  <cnnaffinity>  (1) 
-6.53117

>  <filename>  (1) 
Cc1cc(-c2nc(Cn3cc(Cl)cn3)n(Cc3cccnc3)n2)ccc1F

$$$$
