
     RDKit          3D

 50 54  0  0  0  0  0  0  0  0999 V2000
   16.0241   -0.2627   19.6568 C   0  0  0  0  0  0  0  0  0  0  0  0
   14.7149   -0.7340   20.5668 C   0  0  0  0  0  0  0  0  0  0  0  0
   13.7474   -1.7215   20.3602 C   0  0  0  0  0  0  0  0  0  0  0  0
   12.4865   -1.5881   20.9717 C   0  0  0  0  0  0  0  0  0  0  0  0
   12.1589   -0.4902   21.7921 C   0  0  0  0  0  0  0  0  0  0  0  0
   10.7316   -0.0870   21.9262 C   0  0  0  0  0  0  0  0  0  0  0  0
    9.7734   -0.8221   21.3791 N   0  0  0  0  0  0  0  0  0  0  0  0
    8.6435   -0.1471   21.6467 N   0  0  0  0  0  0  0  0  0  0  0  0
    7.3796   -0.6826   21.1534 C   0  0  0  0  0  0  0  0  0  0  0  0
    6.7380    0.0946   20.0216 C   0  0  0  0  0  0  0  0  0  0  0  0
    5.4913    0.7129   20.1634 C   0  0  0  0  0  0  0  0  0  0  0  0
    4.9047    1.3315   19.0564 C   0  0  0  0  0  0  0  0  0  0  0  0
    5.5927    1.3143   17.8402 C   0  0  0  0  0  0  0  0  0  0  0  0
    6.7952    0.7384   17.6820 N   0  0  0  0  0  0  0  0  0  0  0  0
    7.3475    0.1574   18.7554 C   0  0  0  0  0  0  0  0  0  0  0  0
    8.3192   -0.3075   18.5938 H   0  0  0  0  0  0  0  0  0  0  0  0
    5.1575    1.7780   16.9551 H   0  0  0  0  0  0  0  0  0  0  0  0
    3.9420    1.8261   19.1279 H   0  0  0  0  0  0  0  0  0  0  0  0
    4.9721    0.6987   21.1236 H   0  0  0  0  0  0  0  0  0  0  0  0
    7.6180   -1.7016   20.8282 H   0  0  0  0  0  0  0  0  0  0  0  0
    6.6794   -0.7607   21.9916 H   0  0  0  0  0  0  0  0  0  0  0  0
    8.9573    0.9727   22.3396 C   0  0  0  0  0  0  0  0  0  0  0  0
    7.9068    1.8446   22.9698 C   0  0  0  0  0  0  0  0  0  0  0  0
    7.3464    1.1993   24.1503 N   0  0  0  0  0  0  0  0  0  0  0  0
    6.1279    0.6319   24.3356 C   0  0  0  0  0  0  0  0  0  0  0  0
    6.1394    0.0131   25.5729 C   0  0  0  0  0  0  0  0  0  0  0  0
    5.0710   -0.7209   26.2838 C   0  0  0  0  0  0  0  0  0  0  0  0
    5.3840   -1.9997   27.0240 C   0  0  0  0  0  0  0  0  0  0  0  0
    5.0743   -0.7558   27.7938 C   0  0  0  0  0  0  0  0  0  0  0  0
    4.1280   -0.6677   28.3150 H   0  0  0  0  0  0  0  0  0  0  0  0
    5.9045   -0.2596   28.2920 H   0  0  0  0  0  0  0  0  0  0  0  0
    6.4141   -2.3455   27.0039 H   0  0  0  0  0  0  0  0  0  0  0  0
    4.6485   -2.7964   26.9965 H   0  0  0  0  0  0  0  0  0  0  0  0
    4.0907   -0.6767   25.8102 H   0  0  0  0  0  0  0  0  0  0  0  0
    7.4531    0.2782   26.0473 C   0  0  0  0  0  0  0  0  0  0  0  0
    8.1545    0.9997   25.1958 N   0  0  0  0  0  0  0  0  0  0  0  0
    7.9236   -0.0585   26.9649 H   0  0  0  0  0  0  0  0  0  0  0  0
    5.3558    0.7223   23.5820 H   0  0  0  0  0  0  0  0  0  0  0  0
    7.0908    2.0530   22.2711 H   0  0  0  0  0  0  0  0  0  0  0  0
    8.3588    2.7850   23.2899 H   0  0  0  0  0  0  0  0  0  0  0  0
   10.2643    1.0530   22.5077 N   0  0  0  0  0  0  0  0  0  0  0  0
   13.2307    0.2648   22.3103 C   0  0  0  0  0  0  0  0  0  0  0  0
   14.4781    0.1128   21.7162 C   0  0  0  0  0  0  0  0  0  0  0  0
   15.2776    0.7638   22.0651 H   0  0  0  0  0  0  0  0  0  0  0  0
   13.0858    0.9974   23.1060 H   0  0  0  0  0  0  0  0  0  0  0  0
   11.6920   -2.2945   20.7876 H   0  0  0  0  0  0  0  0  0  0  0  0
   13.9235   -2.5981   19.7516 H   0  0  0  0  0  0  0  0  0  0  0  0
   16.8417   -0.9865   19.6860 H   0  0  0  0  0  0  0  0  0  0  0  0
   16.3561    0.6397   20.1472 H   0  0  0  0  0  0  0  0  0  0  0  0
   15.9357    0.1335   18.6320 H   0  0  0  0  0  0  0  0  0  0  0  0
  1  2  1  0
  2  3  2  0
  3  4  1  0
  4  5  2  0
  5  6  1  0
  6  7  2  0
  7  8  1  0
  8  9  1  0
  9 10  1  0
 10 11  2  0
 11 12  1  0
 12 13  2  0
 13 14  1  0
 14 15  2  0
 15 16  1  0
 13 17  1  0
 12 18  1  0
 11 19  1  0
  9 20  1  0
  9 21  1  0
  8 22  1  0
 22 23  1  0
 23 24  1  0
 24 25  1  0
 25 26  2  0
 26 27  1  0
 27 28  1  0
 28 29  1  0
 29 30  1  0
 29 31  1  0
 28 32  1  0
 28 33  1  0
 27 34  1  0
 26 35  1  0
 35 36  2  0
 35 37  1  0
 25 38  1  0
 23 39  1  0
 23 40  1  0
 22 41  2  0
  5 42  1  0
 42 43  2  0
 43 44  1  0
 42 45  1  0
  4 46  1  0
  3 47  1  0
  1 48  1  0
  1 49  1  0
  1 50  1  0
 43  2  1  0
 41  6  1  0
 15 10  1  0
 36 24  1  0
 29 27  1  0
M  END
>  <cnnaffinity>  (1) 
-6.58932

>  <filename>  (1) 
Cc1ccc(-c2nc(Cn3cc(C4CC4)cn3)n(Cc3cccnc3)n2)cc1

$$$$
