
     RDKit          3D

 45 48  0  0  0  0  0  0  0  0999 V2000
   13.8768    0.7267   23.6986 C   0  0  0  0  0  0  0  0  0  0  0  0
   12.8367   -0.0097   22.8812 C   0  0  0  0  0  0  0  0  0  0  0  0
   11.4803    0.3195   22.9253 C   0  0  0  0  0  0  0  0  0  0  0  0
   10.5207   -0.3439   22.1283 C   0  0  0  0  0  0  0  0  0  0  0  0
    9.0968    0.0300   22.1822 C   0  0  0  0  0  0  0  0  0  0  0  0
    8.1299   -0.6240   21.5534 N   0  0  0  0  0  0  0  0  0  0  0  0
    7.0117    0.0796   21.8694 N   0  0  0  0  0  0  0  0  0  0  0  0
    5.7521   -0.1941   21.1739 C   0  0  0  0  0  0  0  0  0  0  0  0
    5.6132    0.4495   19.8036 C   0  0  0  0  0  0  0  0  0  0  0  0
    4.5358    1.2849   19.4898 C   0  0  0  0  0  0  0  0  0  0  0  0
    4.4766    1.8546   18.2166 C   0  0  0  0  0  0  0  0  0  0  0  0
    5.4854    1.5532   17.2998 C   0  0  0  0  0  0  0  0  0  0  0  0
    6.5128    0.7330   17.5657 N   0  0  0  0  0  0  0  0  0  0  0  0
    6.5610    0.2021   18.7930 C   0  0  0  0  0  0  0  0  0  0  0  0
    7.3982   -0.4643   18.9928 H   0  0  0  0  0  0  0  0  0  0  0  0
    5.4708    1.9897   16.3048 H   0  0  0  0  0  0  0  0  0  0  0  0
    3.6751    2.5303   17.9378 H   0  0  0  0  0  0  0  0  0  0  0  0
    3.7559    1.4919   20.2257 H   0  0  0  0  0  0  0  0  0  0  0  0
    5.6663   -1.2825   21.1033 H   0  0  0  0  0  0  0  0  0  0  0  0
    4.9328    0.1528   21.8062 H   0  0  0  0  0  0  0  0  0  0  0  0
    7.3583    1.1053   22.6845 C   0  0  0  0  0  0  0  0  0  0  0  0
    6.4573    2.0176   23.4529 C   0  0  0  0  0  0  0  0  0  0  0  0
    6.2710    1.4858   24.8614 C   0  0  0  0  0  0  0  0  0  0  0  0
    5.1644    0.7175   25.2165 C   0  0  0  0  0  0  0  0  0  0  0  0
    5.0862    0.1971   26.5113 C   0  0  0  0  0  0  0  0  0  0  0  0
    6.0363    0.3784   27.4363 N   0  0  0  0  0  0  0  0  0  0  0  0
    7.1211    1.0792   27.0784 C   0  0  0  0  0  0  0  0  0  0  0  0
    7.2892    1.6367   25.8114 C   0  0  0  0  0  0  0  0  0  0  0  0
    8.2162    2.1293   25.5434 H   0  0  0  0  0  0  0  0  0  0  0  0
    7.8970    1.1998   27.8364 H   0  0  0  0  0  0  0  0  0  0  0  0
    4.2227   -0.3916   26.8213 H   0  0  0  0  0  0  0  0  0  0  0  0
    4.3735    0.5133   24.5060 H   0  0  0  0  0  0  0  0  0  0  0  0
    5.5004    2.1621   22.9421 H   0  0  0  0  0  0  0  0  0  0  0  0
    6.9680    2.9857   23.4942 H   0  0  0  0  0  0  0  0  0  0  0  0
    8.6624    1.1132   22.8675 N   0  0  0  0  0  0  0  0  0  0  0  0
   10.9403   -1.3536   21.2497 C   0  0  0  0  0  0  0  0  0  0  0  0
   12.2856   -1.7003   21.1849 C   0  0  0  0  0  0  0  0  0  0  0  0
   13.1955   -1.0480   22.0085 C   0  0  0  0  0  0  0  0  0  0  0  0
   14.4791   -1.4404   21.9436 F   0  0  0  0  0  0  0  0  0  0  0  0
   12.6648   -2.4389   20.4911 H   0  0  0  0  0  0  0  0  0  0  0  0
   10.1898   -1.8548   20.6449 H   0  0  0  0  0  0  0  0  0  0  0  0
   11.1471    1.1183   23.5857 H   0  0  0  0  0  0  0  0  0  0  0  0
   14.5584    1.2827   23.0446 H   0  0  0  0  0  0  0  0  0  0  0  0
   13.4078    1.4350   24.3898 H   0  0  0  0  0  0  0  0  0  0  0  0
   14.4883    0.0347   24.2847 H   0  0  0  0  0  0  0  0  0  0  0  0
  1  2  1  0
  2  3  2  0
  3  4  1  0
  4  5  1  0
  5  6  2  0
  6  7  1  0
  7  8  1  0
  8  9  1  0
  9 10  2  0
 10 11  1  0
 11 12  2  0
 12 13  1  0
 13 14  2  0
 14 15  1  0
 12 16  1  0
 11 17  1  0
 10 18  1  0
  8 19  1  0
  8 20  1  0
  7 21  1  0
 21 22  1  0
 22 23  1  0
 23 24  2  0
 24 25  1  0
 25 26  2  0
 26 27  1  0
 27 28  2  0
 28 29  1  0
 27 30  1  0
 25 31  1  0
 24 32  1  0
 22 33  1  0
 22 34  1  0
 21 35  2  0
  4 36  2  0
 36 37  1  0
 37 38  2  0
 38 39  1  0
 37 40  1  0
 36 41  1  0
  3 42  1  0
  1 43  1  0
  1 44  1  0
  1 45  1  0
 38  2  1  0
 35  5  1  0
 14  9  1  0
 28 23  1  0
M  END
>  <cnnaffinity>  (1) 
-6.3245

>  <filename>  (1) 
Cc1cc(-c2nc(Cc3ccncc3)n(Cc3cccnc3)n2)ccc1F

$$$$
