
     RDKit          3D

 43 46  0  0  0  0  0  0  0  0999 V2000
    9.6553    2.1427   21.0255 C   0  0  0  0  0  0  0  0  0  0  0  0
    9.7831    2.1619   22.5174 C   0  0  0  0  0  0  0  0  0  0  0  0
   10.9685    2.6109   23.1054 C   0  0  0  0  0  0  0  0  0  0  0  0
   11.1042    2.5437   24.4914 C   0  0  0  0  0  0  0  0  0  0  0  0
   10.0401    2.0470   25.2408 C   0  0  0  0  0  0  0  0  0  0  0  0
    8.8732    1.6684   24.7032 N   0  0  0  0  0  0  0  0  0  0  0  0
    8.7357    1.7381   23.3754 C   0  0  0  0  0  0  0  0  0  0  0  0
    7.3974    1.2907   22.8188 C   0  0  0  0  0  0  0  0  0  0  0  0
    7.5499   -0.0801   22.2491 C   0  0  0  0  0  0  0  0  0  0  0  0
    8.0993   -1.0308   22.9644 N   0  0  0  0  0  0  0  0  0  0  0  0
    8.2493   -2.0566   22.0952 C   0  0  0  0  0  0  0  0  0  0  0  0
    8.8916   -3.3065   22.5861 C   0  0  0  0  0  0  0  0  0  0  0  0
    8.1456   -4.0155   23.7391 C   0  0  0  0  0  0  0  0  0  0  0  0
    9.2698   -4.7775   24.4436 C   0  0  0  0  0  0  0  0  0  0  0  0
   10.4608   -4.0454   24.1951 O   0  0  0  0  0  0  0  0  0  0  0  0
   10.2534   -3.0157   23.2438 C   0  0  0  0  0  0  0  0  0  0  0  0
   11.0772   -3.0010   22.5219 H   0  0  0  0  0  0  0  0  0  0  0  0
   10.2530   -2.0382   23.7552 H   0  0  0  0  0  0  0  0  0  0  0  0
    9.1051   -4.8362   25.5244 H   0  0  0  0  0  0  0  0  0  0  0  0
    9.3898   -5.8139   24.0842 H   0  0  0  0  0  0  0  0  0  0  0  0
    7.7139   -3.2530   24.4060 H   0  0  0  0  0  0  0  0  0  0  0  0
    7.3472   -4.6817   23.3978 H   0  0  0  0  0  0  0  0  0  0  0  0
    8.9775   -3.9883   21.7417 H   0  0  0  0  0  0  0  0  0  0  0  0
    7.8212   -1.8150   20.8723 N   0  0  0  0  0  0  0  0  0  0  0  0
    7.3202   -0.5461   20.9788 N   0  0  0  0  0  0  0  0  0  0  0  0
    6.6156    0.0488   19.8946 C   0  0  0  0  0  0  0  0  0  0  0  0
    5.3983    0.7107   20.1100 C   0  0  0  0  0  0  0  0  0  0  0  0
    4.7972    1.3485   19.0215 C   0  0  0  0  0  0  0  0  0  0  0  0
    5.4240    1.3037   17.7743 C   0  0  0  0  0  0  0  0  0  0  0  0
    6.5647    0.6272   17.5523 N   0  0  0  0  0  0  0  0  0  0  0  0
    7.1316   -0.0038   18.5865 C   0  0  0  0  0  0  0  0  0  0  0  0
    8.0329   -0.5750   18.3711 H   0  0  0  0  0  0  0  0  0  0  0  0
    4.9919    1.8165   16.9178 H   0  0  0  0  0  0  0  0  0  0  0  0
    3.8609    1.8820   19.1365 H   0  0  0  0  0  0  0  0  0  0  0  0
    4.9344    0.7122   21.0978 H   0  0  0  0  0  0  0  0  0  0  0  0
    6.6964    1.2295   23.6533 H   0  0  0  0  0  0  0  0  0  0  0  0
    7.0112    1.9941   22.0782 H   0  0  0  0  0  0  0  0  0  0  0  0
   10.1245    1.9532   26.3203 H   0  0  0  0  0  0  0  0  0  0  0  0
   12.0093    2.8732   24.9750 H   0  0  0  0  0  0  0  0  0  0  0  0
   11.7802    3.0036   22.4871 H   0  0  0  0  0  0  0  0  0  0  0  0
    9.4772    1.1311   20.6413 H   0  0  0  0  0  0  0  0  0  0  0  0
    8.8220    2.7651   20.6794 H   0  0  0  0  0  0  0  0  0  0  0  0
   10.5756    2.5170   20.5702 H   0  0  0  0  0  0  0  0  0  0  0  0
  1  2  1  0
  2  3  2  0
  3  4  1  0
  4  5  2  0
  5  6  1  0
  6  7  2  0
  7  8  1  0
  8  9  1  0
  9 10  2  0
 10 11  1  0
 11 12  1  0
 12 13  1  0
 13 14  1  0
 14 15  1  0
 15 16  1  0
 16 17  1  0
 16 18  1  0
 14 19  1  0
 14 20  1  0
 13 21  1  0
 13 22  1  0
 12 23  1  0
 11 24  2  0
 24 25  1  0
 25 26  1  0
 26 27  2  0
 27 28  1  0
 28 29  2  0
 29 30  1  0
 30 31  2  0
 31 32  1  0
 29 33  1  0
 28 34  1  0
 27 35  1  0
  8 36  1  0
  8 37  1  0
  5 38  1  0
  4 39  1  0
  3 40  1  0
  1 41  1  0
  1 42  1  0
  1 43  1  0
  7  2  1  0
 25  9  1  0
 31 26  1  0
 16 12  1  0
M  END
>  <cnnaffinity>  (1) 
-6.36943

>  <filename>  (1) 
Cc1cccnc1Cc1nc(C2CCOC2)nn1-c1cccnc1

$$$$
