
     RDKit          3D

 51 53  0  0  0  0  0  0  0  0999 V2000
    7.4485    0.7859   25.6701 C   0  0  0  0  0  0  0  0  0  0  0  0
    8.6273    1.3483   24.9043 C   0  0  0  0  0  0  0  0  0  0  0  0
    9.8802    1.5179   25.5141 C   0  0  0  0  0  0  0  0  0  0  0  0
   10.9809    2.0070   24.8069 C   0  0  0  0  0  0  0  0  0  0  0  0
   10.8296    2.3449   23.4612 C   0  0  0  0  0  0  0  0  0  0  0  0
    9.6065    2.1447   22.8061 C   0  0  0  0  0  0  0  0  0  0  0  0
    9.5304    2.3802   21.3161 C   0  0  0  0  0  0  0  0  0  0  0  0
    8.7725    3.1239   21.0547 H   0  0  0  0  0  0  0  0  0  0  0  0
    9.2637    1.4557   20.7913 H   0  0  0  0  0  0  0  0  0  0  0  0
   10.4863    2.7316   20.9236 H   0  0  0  0  0  0  0  0  0  0  0  0
    8.4959    1.6680   23.5346 C   0  0  0  0  0  0  0  0  0  0  0  0
    7.2325    1.2879   22.7630 C   0  0  0  0  0  0  0  0  0  0  0  0
    7.4255   -0.0611   22.1286 C   0  0  0  0  0  0  0  0  0  0  0  0
    8.0106   -1.0808   22.7355 N   0  0  0  0  0  0  0  0  0  0  0  0
    8.2041   -1.9727   21.7397 C   0  0  0  0  0  0  0  0  0  0  0  0
    8.7803   -3.3071   22.0084 C   0  0  0  0  0  0  0  0  0  0  0  0
    7.7814   -4.1328   22.8233 C   0  0  0  0  0  0  0  0  0  0  0  0
    8.4221   -5.3286   23.4923 N   0  0  0  0  0  4  0  0  0  0  0  0
    7.6696   -5.7581   24.7149 C   0  0  0  0  0  0  0  0  0  0  0  0
    8.1897   -6.5931   25.1918 H   0  0  0  0  0  0  0  0  0  0  0  0
    7.5633   -4.9290   25.4274 H   0  0  0  0  0  0  0  0  0  0  0  0
    6.6574   -6.0976   24.4545 H   0  0  0  0  0  0  0  0  0  0  0  0
    8.5774   -6.4974   22.5592 C   0  0  0  0  0  0  0  0  0  0  0  0
    9.2345   -6.2405   21.7255 H   0  0  0  0  0  0  0  0  0  0  0  0
    7.6035   -6.8018   22.1509 H   0  0  0  0  0  0  0  0  0  0  0  0
    9.0073   -7.3501   23.0924 H   0  0  0  0  0  0  0  0  0  0  0  0
    9.3704   -5.0025   23.8011 H   0  0  0  0  0  0  0  0  0  0  0  0
    6.9643   -4.4750   22.1739 H   0  0  0  0  0  0  0  0  0  0  0  0
    7.3438   -3.5088   23.6123 H   0  0  0  0  0  0  0  0  0  0  0  0
    8.9816   -3.7476   21.0322 H   0  0  0  0  0  0  0  0  0  0  0  0
    9.7176   -3.1809   22.5616 H   0  0  0  0  0  0  0  0  0  0  0  0
    7.7348   -1.6138   20.5683 N   0  0  0  0  0  0  0  0  0  0  0  0
    7.1847   -0.3960   20.8220 N   0  0  0  0  0  0  0  0  0  0  0  0
    6.4853    0.2530   19.7705 C   0  0  0  0  0  0  0  0  0  0  0  0
    5.2742    0.9315   19.9505 C   0  0  0  0  0  0  0  0  0  0  0  0
    4.6814    1.5198   18.8265 C   0  0  0  0  0  0  0  0  0  0  0  0
    5.3200    1.4245   17.5867 C   0  0  0  0  0  0  0  0  0  0  0  0
    6.4687    0.7493   17.4087 N   0  0  0  0  0  0  0  0  0  0  0  0
    7.0222    0.1672   18.4734 C   0  0  0  0  0  0  0  0  0  0  0  0
    7.9389   -0.3946   18.3089 H   0  0  0  0  0  0  0  0  0  0  0  0
    4.9010    1.9000   16.7017 H   0  0  0  0  0  0  0  0  0  0  0  0
    3.7440    2.0590   18.8998 H   0  0  0  0  0  0  0  0  0  0  0  0
    4.8023    0.9905   20.9325 H   0  0  0  0  0  0  0  0  0  0  0  0
    7.0177    2.0302   21.9896 H   0  0  0  0  0  0  0  0  0  0  0  0
    6.3562    1.2448   23.4162 H   0  0  0  0  0  0  0  0  0  0  0  0
   11.6516    2.7731   22.8927 H   0  0  0  0  0  0  0  0  0  0  0  0
   11.9407    2.1327   25.3066 H   0  0  0  0  0  0  0  0  0  0  0  0
    9.9891    1.2622   26.5590 H   0  0  0  0  0  0  0  0  0  0  0  0
    7.6690    0.6310   26.7298 H   0  0  0  0  0  0  0  0  0  0  0  0
    6.5816    1.4540   25.6017 H   0  0  0  0  0  0  0  0  0  0  0  0
    7.1547   -0.1762   25.2322 H   0  0  0  0  0  0  0  0  0  0  0  0
  1  2  1  0
  2  3  2  0
  3  4  1  0
  4  5  2  0
  5  6  1  0
  6  7  1  0
  7  8  1  0
  7  9  1  0
  7 10  1  0
  6 11  2  0
 11 12  1  0
 12 13  1  0
 13 14  2  0
 14 15  1  0
 15 16  1  0
 16 17  1  0
 17 18  1  0
 18 19  1  0
 19 20  1  0
 19 21  1  0
 19 22  1  0
 18 23  1  0
 23 24  1  0
 23 25  1  0
 23 26  1  0
 18 27  1  0
 17 28  1  0
 17 29  1  0
 16 30  1  0
 16 31  1  0
 15 32  2  0
 32 33  1  0
 33 34  1  0
 34 35  2  0
 35 36  1  0
 36 37  2  0
 37 38  1  0
 38 39  2  0
 39 40  1  0
 37 41  1  0
 36 42  1  0
 35 43  1  0
 12 44  1  0
 12 45  1  0
  5 46  1  0
  4 47  1  0
  3 48  1  0
  1 49  1  0
  1 50  1  0
  1 51  1  0
 11  2  1  0
 33 13  1  0
 39 34  1  0
M  CHG  1  18   1
M  END
>  <cnnaffinity>  (1) 
-5.66886

>  <filename>  (1) 
Cc1cccc(C)c1Cc1nc(CC[NH+](C)C)nn1-c1cccnc1

$$$$
