
     RDKit          3D

 45 48  0  0  0  0  0  0  0  0999 V2000
    7.7320    5.1044   27.3598 C   0  0  0  0  0  0  0  0  0  0  0  0
    7.0828    3.8086   26.9274 C   0  0  0  0  0  0  0  0  0  0  0  0
    7.5025    3.1750   25.7598 C   0  0  0  0  0  0  0  0  0  0  0  0
    6.9258    1.9856   25.2844 C   0  0  0  0  0  0  0  0  0  0  0  0
    7.4569    1.4373   24.0257 C   0  0  0  0  0  0  0  0  0  0  0  0
    6.8619    0.5288   23.2711 N   0  0  0  0  0  0  0  0  0  0  0  0
    7.7169    0.3829   22.2313 N   0  0  0  0  0  0  0  0  0  0  0  0
    7.4206   -0.5346   21.1381 C   0  0  0  0  0  0  0  0  0  0  0  0
    6.7293    0.1073   19.9435 C   0  0  0  0  0  0  0  0  0  0  0  0
    5.5065    0.7689   20.1166 C   0  0  0  0  0  0  0  0  0  0  0  0
    4.8965    1.3553   19.0063 C   0  0  0  0  0  0  0  0  0  0  0  0
    5.5223    1.2553   17.7604 C   0  0  0  0  0  0  0  0  0  0  0  0
    6.6804    0.6068   17.5668 N   0  0  0  0  0  0  0  0  0  0  0  0
    7.2595    0.0572   18.6438 C   0  0  0  0  0  0  0  0  0  0  0  0
    8.2054   -0.4532   18.4539 H   0  0  0  0  0  0  0  0  0  0  0  0
    5.0714    1.7108   16.8795 H   0  0  0  0  0  0  0  0  0  0  0  0
    3.9669    1.9074   19.0965 H   0  0  0  0  0  0  0  0  0  0  0  0
    5.0592    0.8419   21.1102 H   0  0  0  0  0  0  0  0  0  0  0  0
    6.7878   -1.3118   21.5769 H   0  0  0  0  0  0  0  0  0  0  0  0
    8.3605   -1.0085   20.8343 H   0  0  0  0  0  0  0  0  0  0  0  0
    8.7742    1.2074   22.4000 C   0  0  0  0  0  0  0  0  0  0  0  0
    9.9529    1.3670   21.4893 C   0  0  0  0  0  0  0  0  0  0  0  0
   11.1854    0.5367   21.8430 C   0  0  0  0  0  0  0  0  0  0  0  0
   11.4511   -0.7087   21.2648 C   0  0  0  0  0  0  0  0  0  0  0  0
   12.6678   -1.3452   21.5358 C   0  0  0  0  0  0  0  0  0  0  0  0
   13.5452   -0.7443   22.4440 C   0  0  0  0  0  0  0  0  0  0  0  0
   13.2688    0.3961   23.0900 N   0  0  0  0  0  0  0  0  0  0  0  0
   12.1182    1.0054   22.7862 C   0  0  0  0  0  0  0  0  0  0  0  0
   11.9041    1.9165   23.3402 H   0  0  0  0  0  0  0  0  0  0  0  0
   14.5019   -1.2096   22.6754 H   0  0  0  0  0  0  0  0  0  0  0  0
   12.9375   -2.2776   21.0540 H   0  0  0  0  0  0  0  0  0  0  0  0
   10.7175   -1.1617   20.6016 H   0  0  0  0  0  0  0  0  0  0  0  0
    9.6297    1.1681   20.4648 H   0  0  0  0  0  0  0  0  0  0  0  0
   10.2196    2.4310   21.5306 H   0  0  0  0  0  0  0  0  0  0  0  0
    8.6401    1.8821   23.5170 N   0  0  0  0  0  0  0  0  0  0  0  0
    5.8948    1.3831   26.0305 C   0  0  0  0  0  0  0  0  0  0  0  0
    5.4707    1.9760   27.2189 C   0  0  0  0  0  0  0  0  0  0  0  0
    6.0584    3.1701   27.6415 C   0  0  0  0  0  0  0  0  0  0  0  0
    5.6280    3.7125   28.7958 F   0  0  0  0  0  0  0  0  0  0  0  0
    4.7004    1.5325   27.8414 H   0  0  0  0  0  0  0  0  0  0  0  0
    5.4300    0.4608   25.6855 H   0  0  0  0  0  0  0  0  0  0  0  0
    8.3227    3.5994   25.1861 H   0  0  0  0  0  0  0  0  0  0  0  0
    7.3043    5.9636   26.8301 H   0  0  0  0  0  0  0  0  0  0  0  0
    8.8021    5.0952   27.1265 H   0  0  0  0  0  0  0  0  0  0  0  0
    7.6285    5.2788   28.4315 H   0  0  0  0  0  0  0  0  0  0  0  0
  1  2  1  0
  2  3  2  0
  3  4  1  0
  4  5  1  0
  5  6  2  0
  6  7  1  0
  7  8  1  0
  8  9  1  0
  9 10  2  0
 10 11  1  0
 11 12  2  0
 12 13  1  0
 13 14  2  0
 14 15  1  0
 12 16  1  0
 11 17  1  0
 10 18  1  0
  8 19  1  0
  8 20  1  0
  7 21  1  0
 21 22  1  0
 22 23  1  0
 23 24  2  0
 24 25  1  0
 25 26  2  0
 26 27  1  0
 27 28  2  0
 28 29  1  0
 26 30  1  0
 25 31  1  0
 24 32  1  0
 22 33  1  0
 22 34  1  0
 21 35  2  0
  4 36  2  0
 36 37  1  0
 37 38  2  0
 38 39  1  0
 37 40  1  0
 36 41  1  0
  3 42  1  0
  1 43  1  0
  1 44  1  0
  1 45  1  0
 38  2  1  0
 35  5  1  0
 14  9  1  0
 28 23  1  0
M  END
>  <cnnaffinity>  (1) 
-6.41999

>  <filename>  (1) 
Cc1cc(-c2nc(Cc3cccnc3)n(Cc3cccnc3)n2)ccc1F

$$$$
