
     RDKit          3D

 45 47  0  0  0  0  0  0  0  0999 V2000
    9.1156    1.9973   21.0359 C   0  0  0  0  0  0  0  0  0  0  0  0
    9.2526    1.9980   22.5290 C   0  0  0  0  0  0  0  0  0  0  0  0
   10.4878    2.3743   23.0692 C   0  0  0  0  0  0  0  0  0  0  0  0
   10.7094    2.2135   24.4292 C   0  0  0  0  0  0  0  0  0  0  0  0
   11.9468    2.4196   24.8995 F   0  0  0  0  0  0  0  0  0  0  0  0
    9.7036    1.8090   25.2982 C   0  0  0  0  0  0  0  0  0  0  0  0
    8.4408    1.5258   24.7565 C   0  0  0  0  0  0  0  0  0  0  0  0
    8.2040    1.5922   23.3798 C   0  0  0  0  0  0  0  0  0  0  0  0
    6.8961    1.0709   22.7864 C   0  0  0  0  0  0  0  0  0  0  0  0
    7.1052   -0.2807   22.1710 C   0  0  0  0  0  0  0  0  0  0  0  0
    7.6865   -1.2740   22.8201 N   0  0  0  0  0  0  0  0  0  0  0  0
    7.8565   -2.2193   21.8664 C   0  0  0  0  0  0  0  0  0  0  0  0
    8.5610   -3.5058   22.1275 C   0  0  0  0  0  0  0  0  0  0  0  0
    7.7029   -4.5870   22.8268 C   0  0  0  0  0  0  0  0  0  0  0  0
    6.4830   -4.9512   21.9697 C   0  0  0  0  0  0  0  0  0  0  0  0
    5.8748   -5.7299   22.4468 H   0  0  0  0  0  0  0  0  0  0  0  0
    5.8399   -4.0759   21.8055 H   0  0  0  0  0  0  0  0  0  0  0  0
    6.7862   -5.3276   20.9855 H   0  0  0  0  0  0  0  0  0  0  0  0
    7.2832   -4.1493   24.2361 C   0  0  0  0  0  0  0  0  0  0  0  0
    6.7034   -4.9226   24.7531 H   0  0  0  0  0  0  0  0  0  0  0  0
    6.6675   -3.2458   24.1954 H   0  0  0  0  0  0  0  0  0  0  0  0
    8.1477   -3.9081   24.8648 H   0  0  0  0  0  0  0  0  0  0  0  0
    8.3465   -5.4765   22.9224 H   0  0  0  0  0  0  0  0  0  0  0  0
    9.4450   -3.2701   22.7317 H   0  0  0  0  0  0  0  0  0  0  0  0
    8.8890   -3.8508   21.1468 H   0  0  0  0  0  0  0  0  0  0  0  0
    7.4106   -1.8870   20.6727 N   0  0  0  0  0  0  0  0  0  0  0  0
    6.8917   -0.6435   20.8670 N   0  0  0  0  0  0  0  0  0  0  0  0
    6.3132    0.0392   19.7591 C   0  0  0  0  0  0  0  0  0  0  0  0
    5.1348    0.7888   19.8633 C   0  0  0  0  0  0  0  0  0  0  0  0
    4.6859    1.4707   18.7251 C   0  0  0  0  0  0  0  0  0  0  0  0
    5.4050    1.3670   17.5341 C   0  0  0  0  0  0  0  0  0  0  0  0
    6.5020    0.5999   17.4099 N   0  0  0  0  0  0  0  0  0  0  0  0
    6.9351   -0.0479   18.4973 C   0  0  0  0  0  0  0  0  0  0  0  0
    7.8338   -0.6493   18.3775 H   0  0  0  0  0  0  0  0  0  0  0  0
    5.0993    1.9253   16.6502 H   0  0  0  0  0  0  0  0  0  0  0  0
    3.8090    2.1049   18.7678 H   0  0  0  0  0  0  0  0  0  0  0  0
    4.5809    0.8310   20.8008 H   0  0  0  0  0  0  0  0  0  0  0  0
    6.5117    1.7653   22.0338 H   0  0  0  0  0  0  0  0  0  0  0  0
    6.1468    0.9641   23.5769 H   0  0  0  0  0  0  0  0  0  0  0  0
    7.6194    1.2417   25.4103 H   0  0  0  0  0  0  0  0  0  0  0  0
    9.9281    1.7063   26.3526 H   0  0  0  0  0  0  0  0  0  0  0  0
   11.2592    2.7985   22.4304 H   0  0  0  0  0  0  0  0  0  0  0  0
    8.8063    1.0189   20.6544 H   0  0  0  0  0  0  0  0  0  0  0  0
    8.3766    2.7198   20.6893 H   0  0  0  0  0  0  0  0  0  0  0  0
   10.0858    2.2383   20.6037 H   0  0  0  0  0  0  0  0  0  0  0  0
  1  2  1  0
  2  3  2  0
  3  4  1  0
  4  5  1  0
  4  6  2  0
  6  7  1  0
  7  8  2  0
  8  9  1  0
  9 10  1  0
 10 11  2  0
 11 12  1  0
 12 13  1  0
 13 14  1  0
 14 15  1  0
 15 16  1  0
 15 17  1  0
 15 18  1  0
 14 19  1  0
 19 20  1  0
 19 21  1  0
 19 22  1  0
 14 23  1  0
 13 24  1  0
 13 25  1  0
 12 26  2  0
 26 27  1  0
 27 28  1  0
 28 29  2  0
 29 30  1  0
 30 31  2  0
 31 32  1  0
 32 33  2  0
 33 34  1  0
 31 35  1  0
 30 36  1  0
 29 37  1  0
  9 38  1  0
  9 39  1  0
  7 40  1  0
  6 41  1  0
  3 42  1  0
  1 43  1  0
  1 44  1  0
  1 45  1  0
  8  2  1  0
 27 10  1  0
 33 28  1  0
M  END
>  <cnnaffinity>  (1) 
-6.39254

>  <filename>  (1) 
Cc1cc(F)ccc1Cc1nc(CC(C)C)nn1-c1cccnc1

$$$$
