
     RDKit          3D

 41 44  0  0  0  0  0  0  0  0999 V2000
    8.2974    2.7632   22.0494 C   0  0  0  0  0  0  0  0  0  0  0  0
    9.6499    2.2906   22.4966 C   0  0  0  0  0  0  0  0  0  0  0  0
   10.3048    2.9308   23.5467 C   0  0  0  0  0  0  0  0  0  0  0  0
   11.5452    2.4593   23.9690 C   0  0  0  0  0  0  0  0  0  0  0  0
   12.1678    1.4079   23.4367 N   0  0  0  0  0  0  0  0  0  0  0  0
   11.5402    0.8081   22.4197 C   0  0  0  0  0  0  0  0  0  0  0  0
   10.3105    1.2059   21.8891 C   0  0  0  0  0  0  0  0  0  0  0  0
    9.6280    0.3823   20.8147 C   0  0  0  0  0  0  0  0  0  0  0  0
    8.6190   -0.5708   21.3645 C   0  0  0  0  0  0  0  0  0  0  0  0
    8.8499   -1.4384   22.3244 N   0  0  0  0  0  0  0  0  0  0  0  0
    7.6309   -2.0261   22.5189 C   0  0  0  0  0  0  0  0  0  0  0  0
    7.3963   -3.0643   23.5912 C   0  0  0  0  0  0  0  0  0  0  0  0
    8.4492   -3.4612   24.4505 C   0  0  0  0  0  0  0  0  0  0  0  0
    8.2005   -4.4257   25.4304 C   0  0  0  0  0  0  0  0  0  0  0  0
    6.9156   -4.9615   25.5274 C   0  0  0  0  0  0  0  0  0  0  0  0
    5.9369   -4.5100   24.6393 C   0  0  0  0  0  0  0  0  0  0  0  0
    6.1611   -3.5972   23.6945 N   0  0  0  0  0  0  0  0  0  0  0  0
    4.9186   -4.8934   24.6723 H   0  0  0  0  0  0  0  0  0  0  0  0
    6.6611   -5.7125   26.2679 H   0  0  0  0  0  0  0  0  0  0  0  0
    8.9898   -4.7553   26.1086 H   0  0  0  0  0  0  0  0  0  0  0  0
    9.4346   -3.0202   24.3465 H   0  0  0  0  0  0  0  0  0  0  0  0
    6.6881   -1.5860   21.6971 N   0  0  0  0  0  0  0  0  0  0  0  0
    7.3342   -0.6881   20.9260 N   0  0  0  0  0  0  0  0  0  0  0  0
    6.6482    0.0037   19.8930 C   0  0  0  0  0  0  0  0  0  0  0  0
    5.4370    0.6460   20.1639 C   0  0  0  0  0  0  0  0  0  0  0  0
    4.8113    1.3139   19.1090 C   0  0  0  0  0  0  0  0  0  0  0  0
    5.3994    1.2973   17.8376 C   0  0  0  0  0  0  0  0  0  0  0  0
    6.5570    0.6731   17.5721 N   0  0  0  0  0  0  0  0  0  0  0  0
    7.1640    0.0485   18.5868 C   0  0  0  0  0  0  0  0  0  0  0  0
    8.1135   -0.4340   18.3662 H   0  0  0  0  0  0  0  0  0  0  0  0
    4.9175    1.7854   16.9948 H   0  0  0  0  0  0  0  0  0  0  0  0
    3.8793    1.8410   19.2620 H   0  0  0  0  0  0  0  0  0  0  0  0
    5.0165    0.6047   21.1728 H   0  0  0  0  0  0  0  0  0  0  0  0
    9.1607    1.0393   20.0765 H   0  0  0  0  0  0  0  0  0  0  0  0
   10.3378   -0.2706   20.3059 H   0  0  0  0  0  0  0  0  0  0  0  0
   12.0308   -0.0671   21.9967 H   0  0  0  0  0  0  0  0  0  0  0  0
   12.0569    2.9561   24.7822 H   0  0  0  0  0  0  0  0  0  0  0  0
    9.8497    3.7889   24.0244 H   0  0  0  0  0  0  0  0  0  0  0  0
    7.9529    3.6100   22.6468 H   0  0  0  0  0  0  0  0  0  0  0  0
    8.3476    3.0854   21.0106 H   0  0  0  0  0  0  0  0  0  0  0  0
    7.5413    1.9715   22.1056 H   0  0  0  0  0  0  0  0  0  0  0  0
  1  2  1  0
  2  3  2  0
  3  4  1  0
  4  5  2  0
  5  6  1  0
  6  7  2  0
  7  8  1  0
  8  9  1  0
  9 10  2  0
 10 11  1  0
 11 12  1  0
 12 13  2  0
 13 14  1  0
 14 15  2  0
 15 16  1  0
 16 17  2  0
 16 18  1  0
 15 19  1  0
 14 20  1  0
 13 21  1  0
 11 22  2  0
 22 23  1  0
 23 24  1  0
 24 25  2  0
 25 26  1  0
 26 27  2  0
 27 28  1  0
 28 29  2  0
 29 30  1  0
 27 31  1  0
 26 32  1  0
 25 33  1  0
  8 34  1  0
  8 35  1  0
  6 36  1  0
  4 37  1  0
  3 38  1  0
  1 39  1  0
  1 40  1  0
  1 41  1  0
  7  2  1  0
 23  9  1  0
 29 24  1  0
 17 12  1  0
M  END
>  <cnnaffinity>  (1) 
-6.03574

>  <filename>  (1) 
Cc1ccncc1Cc1nc(-c2ccccn2)nn1-c1cccnc1

$$$$
