
     RDKit          3D

 41 44  0  0  0  0  0  0  0  0999 V2000
    5.2649   -3.7377   26.3426 C   0  0  0  0  0  0  0  0  0  0  0  0
    6.4468   -2.8899   25.9113 C   0  0  0  0  0  0  0  0  0  0  0  0
    7.5575   -2.6682   26.7528 C   0  0  0  0  0  0  0  0  0  0  0  0
    8.5630   -1.8334   26.4590 N   0  0  0  0  0  0  0  0  0  0  0  0
    8.5570   -1.2345   25.2634 C   0  0  0  0  0  0  0  0  0  0  0  0
    7.5694   -1.4766   24.2931 C   0  0  0  0  0  0  0  0  0  0  0  0
    7.7426   -1.0168   22.9501 N   0  0  0  0  0  0  0  0  0  0  0  0
    6.7653   -0.3745   22.2604 N   0  0  0  0  0  0  0  0  0  0  0  0
    7.2686   -0.2692   21.0444 C   0  0  0  0  0  0  0  0  0  0  0  0
    6.5380    0.2891   19.8927 C   0  0  0  0  0  0  0  0  0  0  0  0
    5.2755    0.9015   19.9913 C   0  0  0  0  0  0  0  0  0  0  0  0
    4.7144    1.4436   18.8361 C   0  0  0  0  0  0  0  0  0  0  0  0
    5.4036    1.3334   17.6239 C   0  0  0  0  0  0  0  0  0  0  0  0
    6.5755    0.6931   17.5051 N   0  0  0  0  0  0  0  0  0  0  0  0
    7.1175    0.1844   18.6178 C   0  0  0  0  0  0  0  0  0  0  0  0
    8.0536   -0.3510   18.4839 H   0  0  0  0  0  0  0  0  0  0  0  0
    4.9914    1.7641   16.7122 H   0  0  0  0  0  0  0  0  0  0  0  0
    3.7621    1.9580   18.8602 H   0  0  0  0  0  0  0  0  0  0  0  0
    4.7502    0.9325   20.9472 H   0  0  0  0  0  0  0  0  0  0  0  0
    8.5134   -0.8136   20.9023 N   0  0  0  0  0  0  0  0  0  0  0  0
    8.7656   -1.3092   22.0957 C   0  0  0  0  0  0  0  0  0  0  0  0
    9.8268   -2.3094   22.4850 C   0  0  0  0  0  0  0  0  0  0  0  0
    9.2333   -3.7019   22.7988 C   0  0  0  0  0  0  0  0  0  0  0  0
    8.3160   -4.2809   21.9021 C   0  0  0  0  0  0  0  0  0  0  0  0
    7.8354   -5.5205   21.9701 N   0  0  0  0  0  0  0  0  0  0  0  0
    8.2305   -6.2718   23.0019 C   0  0  0  0  0  0  0  0  0  0  0  0
    9.0756   -5.8167   24.0081 C   0  0  0  0  0  0  0  0  0  0  0  0
    9.5835   -4.5173   23.8827 C   0  0  0  0  0  0  0  0  0  0  0  0
   10.7628   -4.0117   25.0495 Cl  0  0  0  0  0  0  0  0  0  0  0  0
    9.3710   -6.4434   24.8428 H   0  0  0  0  0  0  0  0  0  0  0  0
    7.8441   -7.2832   22.9911 H   0  0  0  0  0  0  0  0  0  0  0  0
    8.0147   -3.6974   21.0361 H   0  0  0  0  0  0  0  0  0  0  0  0
   10.5436   -2.3581   21.6519 H   0  0  0  0  0  0  0  0  0  0  0  0
   10.3878   -1.9366   23.3467 H   0  0  0  0  0  0  0  0  0  0  0  0
    6.4773   -2.2794   24.6483 C   0  0  0  0  0  0  0  0  0  0  0  0
    5.6756   -2.4411   23.9256 H   0  0  0  0  0  0  0  0  0  0  0  0
    9.3913   -0.5646   25.0493 H   0  0  0  0  0  0  0  0  0  0  0  0
    7.6355   -3.1868   27.7090 H   0  0  0  0  0  0  0  0  0  0  0  0
    4.3617   -3.4611   25.7848 H   0  0  0  0  0  0  0  0  0  0  0  0
    5.0476   -3.6066   27.4111 H   0  0  0  0  0  0  0  0  0  0  0  0
    5.4464   -4.8059   26.1618 H   0  0  0  0  0  0  0  0  0  0  0  0
  1  2  1  0
  2  3  2  0
  3  4  1  0
  4  5  2  0
  5  6  1  0
  6  7  1  0
  7  8  1  0
  8  9  2  0
  9 10  1  0
 10 11  2  0
 11 12  1  0
 12 13  2  0
 13 14  1  0
 14 15  2  0
 15 16  1  0
 13 17  1  0
 12 18  1  0
 11 19  1  0
  9 20  1  0
 20 21  2  0
 21 22  1  0
 22 23  1  0
 23 24  2  0
 24 25  1  0
 25 26  2  0
 26 27  1  0
 27 28  2  0
 28 29  1  0
 27 30  1  0
 26 31  1  0
 24 32  1  0
 22 33  1  0
 22 34  1  0
  6 35  2  0
 35 36  1  0
  5 37  1  0
  3 38  1  0
  1 39  1  0
  1 40  1  0
  1 41  1  0
 35  2  1  0
 21  7  1  0
 28 23  1  0
 15 10  1  0
M  END
>  <cnnaffinity>  (1) 
-6.63778

>  <filename>  (1) 
Cc1cncc(-n2nc(-c3cccnc3)nc2Cc2cnccc2Cl)c1

$$$$
