
     RDKit          3D

 45 48  0  0  0  0  0  0  0  0999 V2000
   11.9916    3.0317   22.1429 C   0  0  0  0  0  0  0  0  0  0  0  0
   12.1902    1.5343   22.0715 C   0  0  0  0  0  0  0  0  0  0  0  0
   13.3719    0.9637   22.5680 C   0  0  0  0  0  0  0  0  0  0  0  0
   13.5936   -0.4165   22.5105 C   0  0  0  0  0  0  0  0  0  0  0  0
   12.6173   -1.2523   21.9648 C   0  0  0  0  0  0  0  0  0  0  0  0
   11.4358   -0.6956   21.4695 C   0  0  0  0  0  0  0  0  0  0  0  0
   11.2171    0.6850   21.5002 C   0  0  0  0  0  0  0  0  0  0  0  0
    9.8746    1.2211   21.0187 C   0  0  0  0  0  0  0  0  0  0  0  0
    8.8137    1.1115   22.0704 C   0  0  0  0  0  0  0  0  0  0  0  0
    8.7664    1.8481   23.1617 N   0  0  0  0  0  0  0  0  0  0  0  0
    7.6819    1.3767   23.8232 C   0  0  0  0  0  0  0  0  0  0  0  0
    7.2820    1.9224   25.1203 C   0  0  0  0  0  0  0  0  0  0  0  0
    8.0259    2.9363   25.7592 C   0  0  0  0  0  0  0  0  0  0  0  0
    7.5398    3.3907   26.9733 C   0  0  0  0  0  0  0  0  0  0  0  0
    8.1463    4.4073   27.5911 F   0  0  0  0  0  0  0  0  0  0  0  0
    6.3872    2.8346   27.5417 C   0  0  0  0  0  0  0  0  0  0  0  0
    5.6864    1.8751   26.9329 N   0  0  0  0  0  0  0  0  0  0  0  0
    6.1245    1.4326   25.7490 C   0  0  0  0  0  0  0  0  0  0  0  0
    5.5196    0.6552   25.2964 H   0  0  0  0  0  0  0  0  0  0  0  0
    6.0310    3.1968   28.5050 H   0  0  0  0  0  0  0  0  0  0  0  0
    8.9355    3.3719   25.3374 H   0  0  0  0  0  0  0  0  0  0  0  0
    7.0459    0.4033   23.1927 N   0  0  0  0  0  0  0  0  0  0  0  0
    7.7975    0.2187   22.0789 N   0  0  0  0  0  0  0  0  0  0  0  0
    7.3762   -0.6919   21.0173 C   0  0  0  0  0  0  0  0  0  0  0  0
    6.6529    0.0063   19.8863 C   0  0  0  0  0  0  0  0  0  0  0  0
    5.4370    0.6467   20.1466 C   0  0  0  0  0  0  0  0  0  0  0  0
    4.8037    1.3094   19.0949 C   0  0  0  0  0  0  0  0  0  0  0  0
    5.3979    1.2973   17.8279 C   0  0  0  0  0  0  0  0  0  0  0  0
    6.5590    0.6811   17.5597 N   0  0  0  0  0  0  0  0  0  0  0  0
    7.1622    0.0600   18.5808 C   0  0  0  0  0  0  0  0  0  0  0  0
    8.1115   -0.4257   18.3493 H   0  0  0  0  0  0  0  0  0  0  0  0
    4.9171    1.7917   16.9871 H   0  0  0  0  0  0  0  0  0  0  0  0
    3.8757    1.8425   19.2497 H   0  0  0  0  0  0  0  0  0  0  0  0
    5.0278    0.6335   21.1627 H   0  0  0  0  0  0  0  0  0  0  0  0
    6.7309   -1.4296   21.5019 H   0  0  0  0  0  0  0  0  0  0  0  0
    8.2557   -1.2275   20.6429 H   0  0  0  0  0  0  0  0  0  0  0  0
    9.5628    0.6875   20.1159 H   0  0  0  0  0  0  0  0  0  0  0  0
    9.9590    2.2808   20.7545 H   0  0  0  0  0  0  0  0  0  0  0  0
   10.6667   -1.3422   21.0497 H   0  0  0  0  0  0  0  0  0  0  0  0
   12.7691   -2.3276   21.9218 H   0  0  0  0  0  0  0  0  0  0  0  0
   14.5223   -0.8334   22.8910 H   0  0  0  0  0  0  0  0  0  0  0  0
   14.1282    1.6270   22.9849 H   0  0  0  0  0  0  0  0  0  0  0  0
   11.9881    3.4854   21.1445 H   0  0  0  0  0  0  0  0  0  0  0  0
   12.7975    3.5126   22.7044 H   0  0  0  0  0  0  0  0  0  0  0  0
   11.0366    3.2856   22.6201 H   0  0  0  0  0  0  0  0  0  0  0  0
  1  2  1  0
  2  3  2  0
  3  4  1  0
  4  5  2  0
  5  6  1  0
  6  7  2  0
  7  8  1  0
  8  9  1  0
  9 10  2  0
 10 11  1  0
 11 12  1  0
 12 13  2  0
 13 14  1  0
 14 15  1  0
 14 16  2  0
 16 17  1  0
 17 18  2  0
 18 19  1  0
 16 20  1  0
 13 21  1  0
 11 22  2  0
 22 23  1  0
 23 24  1  0
 24 25  1  0
 25 26  2  0
 26 27  1  0
 27 28  2  0
 28 29  1  0
 29 30  2  0
 30 31  1  0
 28 32  1  0
 27 33  1  0
 26 34  1  0
 24 35  1  0
 24 36  1  0
  8 37  1  0
  8 38  1  0
  6 39  1  0
  5 40  1  0
  4 41  1  0
  3 42  1  0
  1 43  1  0
  1 44  1  0
  1 45  1  0
  7  2  1  0
 23  9  1  0
 30 25  1  0
 18 12  1  0
M  END
>  <cnnaffinity>  (1) 
-6.15919

>  <filename>  (1) 
Cc1ccccc1Cc1nc(-c2cncc(F)c2)nn1Cc1cccnc1

$$$$
