
     RDKit          3D

 46 49  0  0  0  0  0  0  0  0999 V2000
    5.8749   -1.3054   26.1483 C   0  0  0  0  0  0  0  0  0  0  0  0
    6.8011   -0.2431   25.6449 C   0  0  0  0  0  0  0  0  0  0  0  0
    6.6757    0.2597   24.4178 N   0  0  0  0  0  0  0  0  0  0  0  0
    7.6365    1.1855   24.3085 N   0  0  0  0  0  0  0  0  0  0  0  0
    7.9828    1.7204   23.0030 C   0  0  0  0  0  0  0  0  0  0  0  0
    8.9942    0.8266   22.3716 C   0  0  0  0  0  0  0  0  0  0  0  0
   10.2924    0.8685   22.5929 N   0  0  0  0  0  0  0  0  0  0  0  0
   10.7544   -0.2294   21.9329 C   0  0  0  0  0  0  0  0  0  0  0  0
   12.1907   -0.5716   21.7714 C   0  0  0  0  0  0  0  0  0  0  0  0
   13.2327    0.2362   22.2702 C   0  0  0  0  0  0  0  0  0  0  0  0
   14.4786    0.1196   21.6724 C   0  0  0  0  0  0  0  0  0  0  0  0
   14.7454   -0.7461   20.5424 C   0  0  0  0  0  0  0  0  0  0  0  0
   16.0246   -0.2911   19.6473 C   0  0  0  0  0  0  0  0  0  0  0  0
   15.9348    0.1261   18.6315 H   0  0  0  0  0  0  0  0  0  0  0  0
   16.3735    0.6092   20.1278 H   0  0  0  0  0  0  0  0  0  0  0  0
   16.8388   -1.0155   19.6457 H   0  0  0  0  0  0  0  0  0  0  0  0
   13.8347   -1.7895   20.4333 C   0  0  0  0  0  0  0  0  0  0  0  0
   14.1594   -2.9416   19.8341 F   0  0  0  0  0  0  0  0  0  0  0  0
   12.5544   -1.6681   20.9774 C   0  0  0  0  0  0  0  0  0  0  0  0
   11.7962   -2.3881   20.7526 H   0  0  0  0  0  0  0  0  0  0  0  0
   15.2527    0.8097   22.0072 H   0  0  0  0  0  0  0  0  0  0  0  0
   13.0623    0.9682   23.0574 H   0  0  0  0  0  0  0  0  0  0  0  0
    9.7977   -0.9284   21.3332 N   0  0  0  0  0  0  0  0  0  0  0  0
    8.6743   -0.2428   21.6195 N   0  0  0  0  0  0  0  0  0  0  0  0
    7.3732   -0.7189   21.1669 C   0  0  0  0  0  0  0  0  0  0  0  0
    6.7389    0.0673   20.0331 C   0  0  0  0  0  0  0  0  0  0  0  0
    5.5023    0.7065   20.1780 C   0  0  0  0  0  0  0  0  0  0  0  0
    4.9226    1.3273   19.0687 C   0  0  0  0  0  0  0  0  0  0  0  0
    5.6080    1.2955   17.8522 C   0  0  0  0  0  0  0  0  0  0  0  0
    6.8022    0.7035   17.6933 N   0  0  0  0  0  0  0  0  0  0  0  0
    7.3484    0.1168   18.7661 C   0  0  0  0  0  0  0  0  0  0  0  0
    8.3194   -0.3503   18.6053 H   0  0  0  0  0  0  0  0  0  0  0  0
    5.1743    1.7565   16.9656 H   0  0  0  0  0  0  0  0  0  0  0  0
    3.9632    1.8277   19.1361 H   0  0  0  0  0  0  0  0  0  0  0  0
    4.9961    0.7163   21.1469 H   0  0  0  0  0  0  0  0  0  0  0  0
    7.5501   -1.7531   20.8614 H   0  0  0  0  0  0  0  0  0  0  0  0
    6.7018   -0.7378   22.0341 H   0  0  0  0  0  0  0  0  0  0  0  0
    7.0729    1.7948   22.4047 H   0  0  0  0  0  0  0  0  0  0  0  0
    8.4079    2.7150   23.1392 H   0  0  0  0  0  0  0  0  0  0  0  0
    8.4120    1.2469   25.4142 C   0  0  0  0  0  0  0  0  0  0  0  0
    7.8976    0.3438   26.3130 C   0  0  0  0  0  0  0  0  0  0  0  0
    8.2575    0.1075   27.3065 H   0  0  0  0  0  0  0  0  0  0  0  0
    9.2885    1.8851   25.4210 H   0  0  0  0  0  0  0  0  0  0  0  0
    5.7564   -1.2265   27.2327 H   0  0  0  0  0  0  0  0  0  0  0  0
    6.2689   -2.3061   25.9364 H   0  0  0  0  0  0  0  0  0  0  0  0
    4.8914   -1.2195   25.6796 H   0  0  0  0  0  0  0  0  0  0  0  0
  1  2  1  0
  2  3  2  0
  3  4  1  0
  4  5  1  0
  5  6  1  0
  6  7  2  0
  7  8  1  0
  8  9  1  0
  9 10  2  0
 10 11  1  0
 11 12  2  0
 12 13  1  0
 13 14  1  0
 13 15  1  0
 13 16  1  0
 12 17  1  0
 17 18  1  0
 17 19  2  0
 19 20  1  0
 11 21  1  0
 10 22  1  0
  8 23  2  0
 23 24  1  0
 24 25  1  0
 25 26  1  0
 26 27  2  0
 27 28  1  0
 28 29  2  0
 29 30  1  0
 30 31  2  0
 31 32  1  0
 29 33  1  0
 28 34  1  0
 27 35  1  0
 25 36  1  0
 25 37  1  0
  5 38  1  0
  5 39  1  0
  4 40  1  0
 40 41  2  0
 41 42  1  0
 40 43  1  0
  1 44  1  0
  1 45  1  0
  1 46  1  0
 41  2  1  0
 24  6  1  0
 31 26  1  0
 19  9  1  0
M  END
>  <cnnaffinity>  (1) 
-6.62228

>  <filename>  (1) 
Cc1ccn(Cc2nc(-c3ccc(C)c(F)c3)nn2Cc2cccnc2)n1

$$$$
