
     RDKit          3D

 44 47  0  0  0  0  0  0  0  0999 V2000
   14.2535   -0.0351   22.8585 C   0  0  0  0  0  0  0  0  0  0  0  0
   12.8593    0.5363   22.7870 C   0  0  0  0  0  0  0  0  0  0  0  0
   12.5061    1.6444   23.5743 C   0  0  0  0  0  0  0  0  0  0  0  0
   11.3163    2.3401   23.3549 C   0  0  0  0  0  0  0  0  0  0  0  0
   10.4381    1.9038   22.3637 C   0  0  0  0  0  0  0  0  0  0  0  0
   10.6812    0.7217   21.6511 C   0  0  0  0  0  0  0  0  0  0  0  0
    9.6283    0.2079   20.6936 C   0  0  0  0  0  0  0  0  0  0  0  0
    8.5843   -0.6205   21.3593 C   0  0  0  0  0  0  0  0  0  0  0  0
    8.7895   -1.4365   22.3710 N   0  0  0  0  0  0  0  0  0  0  0  0
    7.5813   -2.0009   22.5612 C   0  0  0  0  0  0  0  0  0  0  0  0
    7.3638   -3.0023   23.6419 C   0  0  0  0  0  0  0  0  0  0  0  0
    6.7729   -4.3475   23.1695 C   0  0  0  0  0  0  0  0  0  0  0  0
    5.9905   -4.8305   24.3945 C   0  0  0  0  0  0  0  0  0  0  0  0
    5.7657   -3.7032   25.2265 O   0  0  0  0  0  0  0  0  0  0  0  0
    6.3498   -2.5326   24.6973 C   0  0  0  0  0  0  0  0  0  0  0  0
    5.5817   -1.8847   24.2554 H   0  0  0  0  0  0  0  0  0  0  0  0
    6.8224   -1.9761   25.5159 H   0  0  0  0  0  0  0  0  0  0  0  0
    5.0258   -5.2692   24.1122 H   0  0  0  0  0  0  0  0  0  0  0  0
    6.5465   -5.5821   24.9694 H   0  0  0  0  0  0  0  0  0  0  0  0
    7.5465   -5.0566   22.8560 H   0  0  0  0  0  0  0  0  0  0  0  0
    6.0991   -4.1793   22.3201 H   0  0  0  0  0  0  0  0  0  0  0  0
    8.3382   -3.1564   24.1181 H   0  0  0  0  0  0  0  0  0  0  0  0
    6.6327   -1.5993   21.7328 N   0  0  0  0  0  0  0  0  0  0  0  0
    7.2910   -0.7250   20.9278 N   0  0  0  0  0  0  0  0  0  0  0  0
    6.6095   -0.0415   19.8860 C   0  0  0  0  0  0  0  0  0  0  0  0
    5.4057    0.6206   20.1467 C   0  0  0  0  0  0  0  0  0  0  0  0
    4.7959    1.3113   19.0953 C   0  0  0  0  0  0  0  0  0  0  0  0
    5.3955    1.3017   17.8303 C   0  0  0  0  0  0  0  0  0  0  0  0
    6.5424    0.6563   17.5688 N   0  0  0  0  0  0  0  0  0  0  0  0
    7.1311    0.0076   18.5803 C   0  0  0  0  0  0  0  0  0  0  0  0
    8.0726   -0.4889   18.3494 H   0  0  0  0  0  0  0  0  0  0  0  0
    4.9381    1.8234   16.9925 H   0  0  0  0  0  0  0  0  0  0  0  0
    3.8720    1.8576   19.2469 H   0  0  0  0  0  0  0  0  0  0  0  0
    4.9809    0.5917   21.1492 H   0  0  0  0  0  0  0  0  0  0  0  0
   10.0641   -0.4368   19.9237 H   0  0  0  0  0  0  0  0  0  0  0  0
    9.1465    1.0544   20.2005 H   0  0  0  0  0  0  0  0  0  0  0  0
   11.8720    0.0273   21.9179 C   0  0  0  0  0  0  0  0  0  0  0  0
   12.1123   -1.5607   21.2225 Cl  0  0  0  0  0  0  0  0  0  0  0  0
    9.5339    2.4668   22.1356 H   0  0  0  0  0  0  0  0  0  0  0  0
   11.0867    3.2368   23.9245 H   0  0  0  0  0  0  0  0  0  0  0  0
   13.1782    1.9412   24.3763 H   0  0  0  0  0  0  0  0  0  0  0  0
   14.6882    0.1386   23.8440 H   0  0  0  0  0  0  0  0  0  0  0  0
   14.2733   -1.1084   22.6785 H   0  0  0  0  0  0  0  0  0  0  0  0
   14.9039    0.4444   22.1135 H   0  0  0  0  0  0  0  0  0  0  0  0
  1  2  1  0
  2  3  2  0
  3  4  1  0
  4  5  2  0
  5  6  1  0
  6  7  1  0
  7  8  1  0
  8  9  2  0
  9 10  1  0
 10 11  1  0
 11 12  1  0
 12 13  1  0
 13 14  1  0
 14 15  1  0
 15 16  1  0
 15 17  1  0
 13 18  1  0
 13 19  1  0
 12 20  1  0
 12 21  1  0
 11 22  1  0
 10 23  2  0
 23 24  1  0
 24 25  1  0
 25 26  2  0
 26 27  1  0
 27 28  2  0
 28 29  1  0
 29 30  2  0
 30 31  1  0
 28 32  1  0
 27 33  1  0
 26 34  1  0
  7 35  1  0
  7 36  1  0
  6 37  2  0
 37 38  1  0
  5 39  1  0
  4 40  1  0
  3 41  1  0
  1 42  1  0
  1 43  1  0
  1 44  1  0
 37  2  1  0
 24  8  1  0
 30 25  1  0
 15 11  1  0
M  END
>  <cnnaffinity>  (1) 
-6.66041

>  <filename>  (1) 
Cc1cccc(Cc2nc(C3CCOC3)nn2-c2cccnc2)c1Cl

$$$$
