
     RDKit          3D

 42 45  0  0  0  0  0  0  0  0999 V2000
    6.8696    1.3381   25.8705 C   0  0  0  0  0  0  0  0  0  0  0  0
    7.9865    1.7160   24.9456 C   0  0  0  0  0  0  0  0  0  0  0  0
    9.2518    2.0012   25.3496 C   0  0  0  0  0  0  0  0  0  0  0  0
   10.2511    2.3422   23.9958 S   0  0  0  0  0  0  0  0  0  0  0  0
    8.8817    2.0745   22.9581 C   0  0  0  0  0  0  0  0  0  0  0  0
    9.0409    2.0056   21.4634 C   0  0  0  0  0  0  0  0  0  0  0  0
    9.5266    0.6101   20.9509 C   0  0  0  0  0  0  0  0  0  0  0  0
    8.6559   -0.5245   21.3822 C   0  0  0  0  0  0  0  0  0  0  0  0
    8.8948   -1.3525   22.3825 N   0  0  0  0  0  0  0  0  0  0  0  0
    7.6884   -1.9412   22.5787 C   0  0  0  0  0  0  0  0  0  0  0  0
    7.4172   -2.8494   23.7297 C   0  0  0  0  0  0  0  0  0  0  0  0
    6.3460   -2.3395   24.7502 C   0  0  0  0  0  0  0  0  0  0  0  0
    5.4474   -3.5437   24.3886 C   0  0  0  0  0  0  0  0  0  0  0  0
    6.5210   -4.0809   23.4132 C   0  0  0  0  0  0  0  0  0  0  0  0
    6.2095   -4.1379   22.3648 H   0  0  0  0  0  0  0  0  0  0  0  0
    6.9610   -5.0433   23.6869 H   0  0  0  0  0  0  0  0  0  0  0  0
    5.2089   -4.2063   25.2248 H   0  0  0  0  0  0  0  0  0  0  0  0
    4.5014   -3.2746   23.9082 H   0  0  0  0  0  0  0  0  0  0  0  0
    5.9312   -1.3542   24.4976 H   0  0  0  0  0  0  0  0  0  0  0  0
    6.6835   -2.3093   25.7922 H   0  0  0  0  0  0  0  0  0  0  0  0
    8.3838   -3.0817   24.1788 H   0  0  0  0  0  0  0  0  0  0  0  0
    6.7462   -1.5752   21.7287 N   0  0  0  0  0  0  0  0  0  0  0  0
    7.3740   -0.6709   20.9384 N   0  0  0  0  0  0  0  0  0  0  0  0
    6.6595    0.0007   19.9025 C   0  0  0  0  0  0  0  0  0  0  0  0
    5.4404    0.6376   20.1686 C   0  0  0  0  0  0  0  0  0  0  0  0
    4.8136    1.3076   19.1110 C   0  0  0  0  0  0  0  0  0  0  0  0
    5.4007    1.2955   17.8387 C   0  0  0  0  0  0  0  0  0  0  0  0
    6.5594    0.6725   17.5769 N   0  0  0  0  0  0  0  0  0  0  0  0
    7.1679    0.0507   18.5928 C   0  0  0  0  0  0  0  0  0  0  0  0
    8.1130   -0.4344   18.3648 H   0  0  0  0  0  0  0  0  0  0  0  0
    4.9207    1.7861   16.9939 H   0  0  0  0  0  0  0  0  0  0  0  0
    3.8814    1.8390   19.2607 H   0  0  0  0  0  0  0  0  0  0  0  0
    5.0207    0.6096   21.1779 H   0  0  0  0  0  0  0  0  0  0  0  0
   10.5277    0.3894   21.3261 H   0  0  0  0  0  0  0  0  0  0  0  0
    9.5822    0.6250   19.8607 H   0  0  0  0  0  0  0  0  0  0  0  0
    8.0711    2.2431   21.0155 H   0  0  0  0  0  0  0  0  0  0  0  0
    9.7507    2.7705   21.1430 H   0  0  0  0  0  0  0  0  0  0  0  0
    7.7785    1.7954   23.5875 N   0  0  0  0  0  0  0  0  0  0  0  0
    9.6082    2.0444   26.3651 H   0  0  0  0  0  0  0  0  0  0  0  0
    6.7849    2.0519   26.6958 H   0  0  0  0  0  0  0  0  0  0  0  0
    7.0457    0.3574   26.3327 H   0  0  0  0  0  0  0  0  0  0  0  0
    5.9136    1.3023   25.3443 H   0  0  0  0  0  0  0  0  0  0  0  0
  1  2  1  0
  2  3  2  0
  3  4  1  0
  4  5  1  0
  5  6  1  0
  6  7  1  0
  7  8  1  0
  8  9  2  0
  9 10  1  0
 10 11  1  0
 11 12  1  0
 12 13  1  0
 13 14  1  0
 14 15  1  0
 14 16  1  0
 13 17  1  0
 13 18  1  0
 12 19  1  0
 12 20  1  0
 11 21  1  0
 10 22  2  0
 22 23  1  0
 23 24  1  0
 24 25  2  0
 25 26  1  0
 26 27  2  0
 27 28  1  0
 28 29  2  0
 29 30  1  0
 27 31  1  0
 26 32  1  0
 25 33  1  0
  7 34  1  0
  7 35  1  0
  6 36  1  0
  6 37  1  0
  5 38  2  0
  3 39  1  0
  1 40  1  0
  1 41  1  0
  1 42  1  0
 38  2  1  0
 23  8  1  0
 29 24  1  0
 14 11  1  0
M  END
>  <cnnaffinity>  (1) 
-6.083

>  <filename>  (1) 
Cc1csc(CCc2nc(C3CCC3)nn2-c2cccnc2)n1

$$$$
