
     RDKit          3D

 47 50  0  0  0  0  0  0  0  0999 V2000
    8.2886    2.7404   22.0580 C   0  0  0  0  0  0  0  0  0  0  0  0
    9.6530    2.2750   22.5083 C   0  0  0  0  0  0  0  0  0  0  0  0
   10.2923    2.9325   23.5654 C   0  0  0  0  0  0  0  0  0  0  0  0
   11.5423    2.5099   24.0282 C   0  0  0  0  0  0  0  0  0  0  0  0
   12.1754    1.4147   23.4431 C   0  0  0  0  0  0  0  0  0  0  0  0
   11.5517    0.7572   22.3790 C   0  0  0  0  0  0  0  0  0  0  0  0
   10.3128    1.1889   21.8942 C   0  0  0  0  0  0  0  0  0  0  0  0
    9.6263    0.3804   20.8126 C   0  0  0  0  0  0  0  0  0  0  0  0
    8.6204   -0.5600   21.3674 C   0  0  0  0  0  0  0  0  0  0  0  0
    8.8711   -1.4319   22.3254 N   0  0  0  0  0  0  0  0  0  0  0  0
    7.6685   -2.0184   22.5181 C   0  0  0  0  0  0  0  0  0  0  0  0
    7.4228   -3.0270   23.6054 C   0  0  0  0  0  0  0  0  0  0  0  0
    6.4778   -2.4693   24.7023 C   0  0  0  0  0  0  0  0  0  0  0  0
    6.1088   -3.5583   25.7067 C   0  0  0  0  0  0  0  0  0  0  0  0
    5.5537   -4.6951   25.0654 O   0  0  0  0  0  0  0  0  0  0  0  0
    6.4676   -5.3007   24.1669 C   0  0  0  0  0  0  0  0  0  0  0  0
    6.8610   -4.3518   23.0371 C   0  0  0  0  0  0  0  0  0  0  0  0
    7.5984   -4.8342   22.3832 H   0  0  0  0  0  0  0  0  0  0  0  0
    5.9751   -4.1286   22.4298 H   0  0  0  0  0  0  0  0  0  0  0  0
    5.9737   -6.1928   23.7742 H   0  0  0  0  0  0  0  0  0  0  0  0
    7.3700   -5.6235   24.7171 H   0  0  0  0  0  0  0  0  0  0  0  0
    7.0036   -3.8553   26.2820 H   0  0  0  0  0  0  0  0  0  0  0  0
    5.3560   -3.2002   26.4137 H   0  0  0  0  0  0  0  0  0  0  0  0
    6.9389   -1.6200   25.2229 H   0  0  0  0  0  0  0  0  0  0  0  0
    5.5611   -2.1045   24.2302 H   0  0  0  0  0  0  0  0  0  0  0  0
    8.4038   -3.2163   24.0578 H   0  0  0  0  0  0  0  0  0  0  0  0
    6.7065   -1.6036   21.7085 N   0  0  0  0  0  0  0  0  0  0  0  0
    7.3376   -0.6911   20.9300 N   0  0  0  0  0  0  0  0  0  0  0  0
    6.6427   -0.0072   19.8971 C   0  0  0  0  0  0  0  0  0  0  0  0
    5.4345    0.6409   20.1663 C   0  0  0  0  0  0  0  0  0  0  0  0
    4.8121    1.3120   19.1098 C   0  0  0  0  0  0  0  0  0  0  0  0
    5.3989    1.2972   17.8378 C   0  0  0  0  0  0  0  0  0  0  0  0
    6.5553    0.6706   17.5732 N   0  0  0  0  0  0  0  0  0  0  0  0
    7.1596    0.0437   18.5886 C   0  0  0  0  0  0  0  0  0  0  0  0
    8.1112   -0.4329   18.3640 H   0  0  0  0  0  0  0  0  0  0  0  0
    4.9200    1.7877   16.9941 H   0  0  0  0  0  0  0  0  0  0  0  0
    3.8809    1.8407   19.2611 H   0  0  0  0  0  0  0  0  0  0  0  0
    5.0126    0.6118   21.1751 H   0  0  0  0  0  0  0  0  0  0  0  0
    9.1606    1.0352   20.0749 H   0  0  0  0  0  0  0  0  0  0  0  0
   10.3349   -0.2813   20.3161 H   0  0  0  0  0  0  0  0  0  0  0  0
   12.0110   -0.1199   21.9252 H   0  0  0  0  0  0  0  0  0  0  0  0
   13.1429    1.0725   23.8019 H   0  0  0  0  0  0  0  0  0  0  0  0
   12.0061    3.0442   24.8449 H   0  0  0  0  0  0  0  0  0  0  0  0
    9.7938    3.7859   24.0213 H   0  0  0  0  0  0  0  0  0  0  0  0
    7.5316    1.9498   22.1202 H   0  0  0  0  0  0  0  0  0  0  0  0
    7.9353    3.5905   22.6460 H   0  0  0  0  0  0  0  0  0  0  0  0
    8.3225    3.0525   21.0149 H   0  0  0  0  0  0  0  0  0  0  0  0
  1  2  1  0
  2  3  2  0
  3  4  1  0
  4  5  2  0
  5  6  1  0
  6  7  2  0
  7  8  1  0
  8  9  1  0
  9 10  2  0
 10 11  1  0
 11 12  1  0
 12 13  1  0
 13 14  1  0
 14 15  1  0
 15 16  1  0
 16 17  1  0
 17 18  1  0
 17 19  1  0
 16 20  1  0
 16 21  1  0
 14 22  1  0
 14 23  1  0
 13 24  1  0
 13 25  1  0
 12 26  1  0
 11 27  2  0
 27 28  1  0
 28 29  1  0
 29 30  2  0
 30 31  1  0
 31 32  2  0
 32 33  1  0
 33 34  2  0
 34 35  1  0
 32 36  1  0
 31 37  1  0
 30 38  1  0
  8 39  1  0
  8 40  1  0
  6 41  1  0
  5 42  1  0
  4 43  1  0
  3 44  1  0
  1 45  1  0
  1 46  1  0
  1 47  1  0
  7  2  1  0
 28  9  1  0
 34 29  1  0
 17 12  1  0
M  END
>  <cnnaffinity>  (1) 
-6.20161

>  <filename>  (1) 
Cc1ccccc1Cc1nc(C2CCOCC2)nn1-c1cccnc1

$$$$
