
     RDKit          3D

 47 50  0  0  0  0  0  0  0  0999 V2000
    9.1251   -3.2671   24.6831 C   0  0  0  0  0  0  0  0  0  0  0  0
    8.0340   -2.2379   24.8550 C   0  0  0  0  0  0  0  0  0  0  0  0
    6.6777   -2.5878   24.9611 C   0  0  0  0  0  0  0  0  0  0  0  0
    5.6776   -1.6993   25.0149 N   0  0  0  0  0  0  0  0  0  0  0  0
    5.9843   -0.4006   24.9244 C   0  0  0  0  0  0  0  0  0  0  0  0
    7.2950    0.0856   24.8026 C   0  0  0  0  0  0  0  0  0  0  0  0
    7.5782    1.5398   24.4919 C   0  0  0  0  0  0  0  0  0  0  0  0
    7.5301    1.8283   22.9675 C   0  0  0  0  0  0  0  0  0  0  0  0
    8.5171    0.9769   22.2400 C   0  0  0  0  0  0  0  0  0  0  0  0
    9.8266    1.0714   22.4120 N   0  0  0  0  0  0  0  0  0  0  0  0
   10.3173   -0.0274   21.7854 C   0  0  0  0  0  0  0  0  0  0  0  0
   11.7559   -0.4823   21.6947 C   0  0  0  0  0  0  0  0  0  0  0  0
   11.9577   -1.6965   21.0195 C   0  0  0  0  0  0  0  0  0  0  0  0
   13.2282   -2.0363   20.5874 C   0  0  0  0  0  0  0  0  0  0  0  0
   14.2830   -1.2459   21.0094 C   0  0  0  0  0  0  0  0  0  0  0  0
   14.0302   -0.1602   21.8637 C   0  0  0  0  0  0  0  0  0  0  0  0
   12.7944    0.2365   22.1880 N   0  0  0  0  0  0  0  0  0  0  0  0
   14.8370    0.4525   22.2605 H   0  0  0  0  0  0  0  0  0  0  0  0
   15.2482   -1.4759   20.6095 H   0  0  0  0  0  0  0  0  0  0  0  0
   13.4212   -2.8854   19.9301 H   0  0  0  0  0  0  0  0  0  0  0  0
   11.0799   -2.2885   20.7956 H   0  0  0  0  0  0  0  0  0  0  0  0
    9.3595   -0.7783   21.2288 N   0  0  0  0  0  0  0  0  0  0  0  0
    8.2231   -0.1354   21.5294 N   0  0  0  0  0  0  0  0  0  0  0  0
    6.9362   -0.6783   21.1134 C   0  0  0  0  0  0  0  0  0  0  0  0
    6.3313    0.0592   19.9430 C   0  0  0  0  0  0  0  0  0  0  0  0
    5.1203    0.7527   20.0168 C   0  0  0  0  0  0  0  0  0  0  0  0
    4.6601    1.4249   18.8812 C   0  0  0  0  0  0  0  0  0  0  0  0
    5.4248    1.3715   17.7130 C   0  0  0  0  0  0  0  0  0  0  0  0
    6.5838    0.7017   17.6198 N   0  0  0  0  0  0  0  0  0  0  0  0
    7.0239    0.0799   18.7193 C   0  0  0  0  0  0  0  0  0  0  0  0
    7.9857   -0.4281   18.6324 H   0  0  0  0  0  0  0  0  0  0  0  0
    5.0965    1.8924   16.8137 H   0  0  0  0  0  0  0  0  0  0  0  0
    3.7413    1.9989   18.8947 H   0  0  0  0  0  0  0  0  0  0  0  0
    4.5459    0.7739   20.9470 H   0  0  0  0  0  0  0  0  0  0  0  0
    7.1400   -1.7209   20.8501 H   0  0  0  0  0  0  0  0  0  0  0  0
    6.2625   -0.6951   21.9757 H   0  0  0  0  0  0  0  0  0  0  0  0
    6.5303    1.6577   22.5583 H   0  0  0  0  0  0  0  0  0  0  0  0
    7.7792    2.8768   22.7798 H   0  0  0  0  0  0  0  0  0  0  0  0
    8.5850    1.7991   24.8440 H   0  0  0  0  0  0  0  0  0  0  0  0
    6.8745    2.1932   25.0187 H   0  0  0  0  0  0  0  0  0  0  0  0
    8.3280   -0.8692   24.8392 C   0  0  0  0  0  0  0  0  0  0  0  0
    9.3695   -0.5386   24.8181 H   0  0  0  0  0  0  0  0  0  0  0  0
    5.1344    0.2854   24.9505 H   0  0  0  0  0  0  0  0  0  0  0  0
    6.3836   -3.6376   25.0086 H   0  0  0  0  0  0  0  0  0  0  0  0
    9.2677   -3.5082   23.6199 H   0  0  0  0  0  0  0  0  0  0  0  0
    8.8983   -4.2041   25.2024 H   0  0  0  0  0  0  0  0  0  0  0  0
   10.0838   -2.8968   25.0574 H   0  0  0  0  0  0  0  0  0  0  0  0
  1  2  1  0
  2  3  2  0
  3  4  1  0
  4  5  2  0
  5  6  1  0
  6  7  1  0
  7  8  1  0
  8  9  1  0
  9 10  2  0
 10 11  1  0
 11 12  1  0
 12 13  2  0
 13 14  1  0
 14 15  2  0
 15 16  1  0
 16 17  2  0
 16 18  1  0
 15 19  1  0
 14 20  1  0
 13 21  1  0
 11 22  2  0
 22 23  1  0
 23 24  1  0
 24 25  1  0
 25 26  2  0
 26 27  1  0
 27 28  2  0
 28 29  1  0
 29 30  2  0
 30 31  1  0
 28 32  1  0
 27 33  1  0
 26 34  1  0
 24 35  1  0
 24 36  1  0
  8 37  1  0
  8 38  1  0
  7 39  1  0
  7 40  1  0
  6 41  2  0
 41 42  1  0
  5 43  1  0
  3 44  1  0
  1 45  1  0
  1 46  1  0
  1 47  1  0
 41  2  1  0
 23  9  1  0
 30 25  1  0
 17 12  1  0
M  END
>  <cnnaffinity>  (1) 
-6.66757

>  <filename>  (1) 
Cc1cncc(CCc2nc(-c3ccccn3)nn2Cc2cccnc2)c1

$$$$
