
     RDKit          3D

 34 36  0  0  0  0  0  0  0  0999 V2000
    4.9378    1.7979   16.9854 H   0  0  0  0  0  0  0  0  0  0  0  0
    5.3983    1.2861   17.8299 C   0  0  0  0  0  0  0  0  0  0  0  0
    6.5596    0.6609   17.5797 N   0  0  0  0  0  0  0  0  0  0  0  0
    7.1556    0.0252   18.5925 C   0  0  0  0  0  0  0  0  0  0  0  0
    8.1173   -0.4361   18.3577 H   0  0  0  0  0  0  0  0  0  0  0  0
    6.6370   -0.0165   19.8972 C   0  0  0  0  0  0  0  0  0  0  0  0
    7.3786   -0.6648   20.9812 C   0  0  0  0  0  0  0  0  0  0  0  0
    7.7215   -0.0657   22.1798 C   0  0  0  0  0  0  0  0  0  0  0  0
    7.4983    1.3907   22.4199 C   0  0  0  0  0  0  0  0  0  0  0  0
    8.0160    2.3608   21.5412 C   0  0  0  0  0  0  0  0  0  0  0  0
    8.5462    2.0242   20.6518 H   0  0  0  0  0  0  0  0  0  0  0  0
    7.8331    3.7178   21.8228 C   0  0  0  0  0  0  0  0  0  0  0  0
    8.2705    4.5007   21.2062 H   0  0  0  0  0  0  0  0  0  0  0  0
    7.0716    4.1067   22.9271 C   0  0  0  0  0  0  0  0  0  0  0  0
    6.8862    5.1646   23.1004 H   0  0  0  0  0  0  0  0  0  0  0  0
    6.5357    3.1598   23.8117 C   0  0  0  0  0  0  0  0  0  0  0  0
    5.7853    3.6013   25.0477 C   0  0  0  0  0  0  0  0  0  0  0  0
    5.0346    2.8615   25.3487 H   0  0  0  0  0  0  0  0  0  0  0  0
    6.4755    3.7416   25.8908 H   0  0  0  0  0  0  0  0  0  0  0  0
    5.2760    4.5566   24.8768 H   0  0  0  0  0  0  0  0  0  0  0  0
    6.7734    1.8044   23.5458 C   0  0  0  0  0  0  0  0  0  0  0  0
    6.3953    1.0452   24.2287 H   0  0  0  0  0  0  0  0  0  0  0  0
    8.3465   -0.8745   23.1924 C   0  0  0  0  0  0  0  0  0  0  0  0
    8.5957   -0.3785   24.1322 H   0  0  0  0  0  0  0  0  0  0  0  0
    8.6375   -2.1871   22.9820 C   0  0  0  0  0  0  0  0  0  0  0  0
    9.1149   -2.8312   23.7111 H   0  0  0  0  0  0  0  0  0  0  0  0
    8.2933   -2.8157   21.7117 C   0  0  0  0  0  0  0  0  0  0  0  0
    8.4370   -3.9881   21.4023 O   0  0  0  0  0  0  0  0  0  0  0  0
    7.7406   -1.9681   20.7737 N   0  0  0  0  0  0  0  0  0  0  0  0
    7.4761   -2.4874   19.9509 H   0  0  0  0  0  0  0  0  0  0  0  0
    5.4246    0.6441   20.1464 C   0  0  0  0  0  0  0  0  0  0  0  0
    5.0178    0.6559   21.1581 H   0  0  0  0  0  0  0  0  0  0  0  0
    4.7962    1.3010   19.0912 C   0  0  0  0  0  0  0  0  0  0  0  0
    3.8721    1.8441   19.2321 H   0  0  0  0  0  0  0  0  0  0  0  0
  1  2  1  0
  2  3  2  0
  3  4  1  0
  4  5  1  0
  4  6  2  0
  6  7  1  0
  7  8  2  0
  8  9  1  0
  9 10  2  0
 10 11  1  0
 10 12  1  0
 12 13  1  0
 12 14  2  0
 14 15  1  0
 14 16  1  0
 16 17  1  0
 17 18  1  0
 17 19  1  0
 17 20  1  0
 16 21  2  0
 21 22  1  0
  8 23  1  0
 23 24  1  0
 23 25  2  0
 25 26  1  0
 25 27  1  0
 27 28  2  0
 27 29  1  0
 29 30  1  0
  6 31  1  0
 31 32  1  0
 31 33  2  0
 33 34  1  0
 33  2  1  0
 29  7  1  0
 21  9  1  0
M  END
>  <cnnaffinity>  (1) 
-5.10114

>  <filename>  (1) 
Cc1cccc(-c2ccc(=O)[nH]c2-c2cccnc2)c1

$$$$
