
     RDKit          3D

 45 48  0  0  0  0  0  0  0  0999 V2000
   16.0319   -0.3221   19.6491 C   0  0  0  0  0  0  0  0  0  0  0  0
   14.7252   -0.7908   20.5251 C   0  0  0  0  0  0  0  0  0  0  0  0
   13.7668   -1.7835   20.2871 C   0  0  0  0  0  0  0  0  0  0  0  0
   12.4846   -1.6384   20.8392 C   0  0  0  0  0  0  0  0  0  0  0  0
   12.1120   -0.5459   21.6343 C   0  0  0  0  0  0  0  0  0  0  0  0
   10.6711   -0.1949   21.7529 C   0  0  0  0  0  0  0  0  0  0  0  0
    9.7096   -0.9354   21.2119 N   0  0  0  0  0  0  0  0  0  0  0  0
    8.5832   -0.2388   21.4770 N   0  0  0  0  0  0  0  0  0  0  0  0
    7.2756   -0.7372   21.0554 C   0  0  0  0  0  0  0  0  0  0  0  0
    6.6007    0.0514   19.9453 C   0  0  0  0  0  0  0  0  0  0  0  0
    5.3671    0.6941   20.1128 C   0  0  0  0  0  0  0  0  0  0  0  0
    4.7868    1.3464   19.0204 C   0  0  0  0  0  0  0  0  0  0  0  0
    5.4616    1.3368   17.7974 C   0  0  0  0  0  0  0  0  0  0  0  0
    6.6391    0.7206   17.6125 N   0  0  0  0  0  0  0  0  0  0  0  0
    7.1865    0.1060   18.6683 C   0  0  0  0  0  0  0  0  0  0  0  0
    8.1389   -0.3891   18.4847 H   0  0  0  0  0  0  0  0  0  0  0  0
    5.0355    1.8325   16.9258 H   0  0  0  0  0  0  0  0  0  0  0  0
    3.8383    1.8648   19.1040 H   0  0  0  0  0  0  0  0  0  0  0  0
    4.8558    0.6825   21.0782 H   0  0  0  0  0  0  0  0  0  0  0  0
    7.4589   -1.7684   20.7398 H   0  0  0  0  0  0  0  0  0  0  0  0
    6.6271   -0.7691   21.9376 H   0  0  0  0  0  0  0  0  0  0  0  0
    8.9121    0.8892   22.1327 C   0  0  0  0  0  0  0  0  0  0  0  0
    7.9133    1.7621   22.8203 C   0  0  0  0  0  0  0  0  0  0  0  0
    7.6275    1.1900   24.1740 C   0  0  0  0  0  0  0  0  0  0  0  0
    8.3817    1.0173   25.2827 C   0  0  0  0  0  0  0  0  0  0  0  0
    7.7054    0.2169   26.1889 N   0  0  0  0  0  0  0  0  0  0  0  0
    6.5902   -0.0625   25.5987 C   0  0  0  0  0  0  0  0  0  0  0  0
    5.4889   -0.9035   26.1220 C   0  0  0  0  0  0  0  0  0  0  0  0
    4.7901   -0.2959   26.7041 H   0  0  0  0  0  0  0  0  0  0  0  0
    5.9096   -1.6561   26.7901 H   0  0  0  0  0  0  0  0  0  0  0  0
    4.9485   -1.3865   25.3087 H   0  0  0  0  0  0  0  0  0  0  0  0
    6.4665    0.4957   24.3648 O   0  0  0  0  0  0  0  0  0  0  0  0
    9.3940    1.3615   25.4429 H   0  0  0  0  0  0  0  0  0  0  0  0
    8.3631    2.7509   22.9123 H   0  0  0  0  0  0  0  0  0  0  0  0
    7.0016    1.8456   22.2263 H   0  0  0  0  0  0  0  0  0  0  0  0
   10.2143    0.9577   22.3162 N   0  0  0  0  0  0  0  0  0  0  0  0
   13.1568    0.2451   22.1616 C   0  0  0  0  0  0  0  0  0  0  0  0
   14.4395    0.0741   21.6469 C   0  0  0  0  0  0  0  0  0  0  0  0
   15.2263    0.7254   22.0284 H   0  0  0  0  0  0  0  0  0  0  0  0
   12.9497    1.0364   22.8791 H   0  0  0  0  0  0  0  0  0  0  0  0
   11.6945   -2.3359   20.6328 H   0  0  0  0  0  0  0  0  0  0  0  0
   13.9776   -2.6793   19.7146 H   0  0  0  0  0  0  0  0  0  0  0  0
   16.4348    0.5471   20.1450 H   0  0  0  0  0  0  0  0  0  0  0  0
   16.8380   -1.0579   19.6270 H   0  0  0  0  0  0  0  0  0  0  0  0
   15.9334    0.1150   18.6428 H   0  0  0  0  0  0  0  0  0  0  0  0
  1  2  1  0
  2  3  2  0
  3  4  1  0
  4  5  2  0
  5  6  1  0
  6  7  2  0
  7  8  1  0
  8  9  1  0
  9 10  1  0
 10 11  2  0
 11 12  1  0
 12 13  2  0
 13 14  1  0
 14 15  2  0
 15 16  1  0
 13 17  1  0
 12 18  1  0
 11 19  1  0
  9 20  1  0
  9 21  1  0
  8 22  1  0
 22 23  1  0
 23 24  1  0
 24 25  2  0
 25 26  1  0
 26 27  2  0
 27 28  1  0
 28 29  1  0
 28 30  1  0
 28 31  1  0
 27 32  1  0
 25 33  1  0
 23 34  1  0
 23 35  1  0
 22 36  2  0
  5 37  1  0
 37 38  2  0
 38 39  1  0
 37 40  1  0
  4 41  1  0
  3 42  1  0
  1 43  1  0
  1 44  1  0
  1 45  1  0
 38  2  1  0
 36  6  1  0
 15 10  1  0
 32 24  1  0
M  END
>  <cnnaffinity>  (1) 
-6.38608

>  <filename>  (1) 
Cc1ccc(-c2nc(Cc3cnc(C)o3)n(Cc3cccnc3)n2)cc1

$$$$
