
     RDKit          3D

 40 42  0  0  0  0  0  0  0  0999 V2000
    8.5098    2.5093   21.5609 C   0  0  0  0  0  0  0  0  0  0  0  0
    7.3250    2.5013   22.5045 C   0  0  0  0  0  0  0  0  0  0  0  0
    6.7964    3.6683   23.0888 C   0  0  0  0  0  0  0  0  0  0  0  0
    7.2986    5.2471   22.5312 Cl  0  0  0  0  0  0  0  0  0  0  0  0
    5.8768    3.6383   24.1399 C   0  0  0  0  0  0  0  0  0  0  0  0
    5.4471    2.4035   24.6294 C   0  0  0  0  0  0  0  0  0  0  0  0
    5.8735    1.2201   24.0287 C   0  0  0  0  0  0  0  0  0  0  0  0
    6.7531    1.2766   22.9404 C   0  0  0  0  0  0  0  0  0  0  0  0
    7.1120    0.0478   22.2910 N   0  0  0  0  0  0  0  0  0  0  0  0
    7.7424   -0.9331   22.9966 N   0  0  0  0  0  0  0  0  0  0  0  0
    8.0562   -1.8084   22.0661 C   0  0  0  0  0  0  0  0  0  0  0  0
    8.6782   -3.1452   22.3265 C   0  0  0  0  0  0  0  0  0  0  0  0
    7.5876   -4.2057   22.6087 C   0  0  0  0  0  0  0  0  0  0  0  0
    8.0773   -5.6450   22.7449 C   0  0  0  0  0  0  0  0  0  0  0  0
    6.9971   -6.5503   22.8783 O   0  0  0  0  0  0  0  0  0  0  0  0
    6.5083   -6.5493   22.0417 H   0  0  0  0  0  0  0  0  0  0  0  0
    8.6804   -5.7457   23.6563 H   0  0  0  0  0  0  0  0  0  0  0  0
    8.7165   -5.9301   21.8936 H   0  0  0  0  0  0  0  0  0  0  0  0
    7.0270   -3.9535   23.5195 H   0  0  0  0  0  0  0  0  0  0  0  0
    6.8738   -4.1512   21.7719 H   0  0  0  0  0  0  0  0  0  0  0  0
    9.4039   -3.0532   23.1429 H   0  0  0  0  0  0  0  0  0  0  0  0
    9.2199   -3.3992   21.4108 H   0  0  0  0  0  0  0  0  0  0  0  0
    7.6684   -1.4781   20.8142 N   0  0  0  0  0  0  0  0  0  0  0  0
    7.0569   -0.3195   20.9752 C   0  0  0  0  0  0  0  0  0  0  0  0
    6.4204    0.3680   19.8466 C   0  0  0  0  0  0  0  0  0  0  0  0
    5.2781    1.1779   19.9342 C   0  0  0  0  0  0  0  0  0  0  0  0
    4.7479    1.6939   18.7538 C   0  0  0  0  0  0  0  0  0  0  0  0
    5.3734    1.3911   17.5374 C   0  0  0  0  0  0  0  0  0  0  0  0
    6.4754    0.6305   17.4433 N   0  0  0  0  0  0  0  0  0  0  0  0
    6.9779    0.1354   18.5742 C   0  0  0  0  0  0  0  0  0  0  0  0
    7.8782   -0.4702   18.4727 H   0  0  0  0  0  0  0  0  0  0  0  0
    4.9764    1.7693   16.5980 H   0  0  0  0  0  0  0  0  0  0  0  0
    3.8677    2.3277   18.7550 H   0  0  0  0  0  0  0  0  0  0  0  0
    4.8077    1.3780   20.9003 H   0  0  0  0  0  0  0  0  0  0  0  0
    5.5358    0.2531   24.3950 H   0  0  0  0  0  0  0  0  0  0  0  0
    4.7823    2.3693   25.4875 H   0  0  0  0  0  0  0  0  0  0  0  0
    5.5300    4.5723   24.5707 H   0  0  0  0  0  0  0  0  0  0  0  0
    8.2504    2.0947   20.5792 H   0  0  0  0  0  0  0  0  0  0  0  0
    8.8845    3.5212   21.4227 H   0  0  0  0  0  0  0  0  0  0  0  0
    9.3199    1.8967   21.9764 H   0  0  0  0  0  0  0  0  0  0  0  0
  1  2  1  0
  2  3  2  0
  3  4  1  0
  3  5  1  0
  5  6  2  0
  6  7  1  0
  7  8  2  0
  8  9  1  0
  9 10  1  0
 10 11  2  0
 11 12  1  0
 12 13  1  0
 13 14  1  0
 14 15  1  0
 15 16  1  0
 14 17  1  0
 14 18  1  0
 13 19  1  0
 13 20  1  0
 12 21  1  0
 12 22  1  0
 11 23  1  0
 23 24  2  0
 24 25  1  0
 25 26  2  0
 26 27  1  0
 27 28  2  0
 28 29  1  0
 29 30  2  0
 30 31  1  0
 28 32  1  0
 27 33  1  0
 26 34  1  0
  7 35  1  0
  6 36  1  0
  5 37  1  0
  1 38  1  0
  1 39  1  0
  1 40  1  0
  8  2  1  0
 24  9  1  0
 30 25  1  0
M  END
>  <cnnaffinity>  (1) 
-5.52642

>  <filename>  (1) 
Cc1c(Cl)cccc1-n1nc(CCCO)nc1-c1cccnc1

$$$$
