
     RDKit          3D

 42 45  0  0  0  0  0  0  0  0999 V2000
    9.6422    2.1592   21.0587 C   0  0  0  0  0  0  0  0  0  0  0  0
    9.7922    2.1755   22.5524 C   0  0  0  0  0  0  0  0  0  0  0  0
   10.9760    2.6361   23.1352 C   0  0  0  0  0  0  0  0  0  0  0  0
   11.1236    2.5651   24.5198 C   0  0  0  0  0  0  0  0  0  0  0  0
   10.0744    2.0592   25.2823 C   0  0  0  0  0  0  0  0  0  0  0  0
    8.9121    1.6619   24.7486 N   0  0  0  0  0  0  0  0  0  0  0  0
    8.7646    1.7248   23.4215 C   0  0  0  0  0  0  0  0  0  0  0  0
    7.4401    1.2404   22.8741 C   0  0  0  0  0  0  0  0  0  0  0  0
    7.6060   -0.1184   22.2701 C   0  0  0  0  0  0  0  0  0  0  0  0
    8.1807   -1.1212   22.9051 N   0  0  0  0  0  0  0  0  0  0  0  0
    8.1625   -2.1263   21.9972 C   0  0  0  0  0  0  0  0  0  0  0  0
    8.6887   -3.4958   22.2289 C   0  0  0  0  0  0  0  0  0  0  0  0
    7.7092   -4.4857   22.8446 C   0  0  0  0  0  0  0  0  0  0  0  0
    7.9937   -5.9488   22.6537 C   0  0  0  0  0  0  0  0  0  0  0  0
    6.8694   -5.3037   21.9029 C   0  0  0  0  0  0  0  0  0  0  0  0
    7.0100   -5.1178   20.8391 H   0  0  0  0  0  0  0  0  0  0  0  0
    5.8514   -5.5545   22.1846 H   0  0  0  0  0  0  0  0  0  0  0  0
    7.7341   -6.6089   23.4727 H   0  0  0  0  0  0  0  0  0  0  0  0
    8.8870   -6.2490   22.1103 H   0  0  0  0  0  0  0  0  0  0  0  0
    7.2792   -4.1970   23.8052 H   0  0  0  0  0  0  0  0  0  0  0  0
    8.9333   -3.8515   21.2277 H   0  0  0  0  0  0  0  0  0  0  0  0
    9.6068   -3.4279   22.8238 H   0  0  0  0  0  0  0  0  0  0  0  0
    7.6478   -1.8055   20.8296 N   0  0  0  0  0  0  0  0  0  0  0  0
    7.2634   -0.5216   21.0020 N   0  0  0  0  0  0  0  0  0  0  0  0
    6.5905    0.1089   19.9268 C   0  0  0  0  0  0  0  0  0  0  0  0
    5.3763    0.7676   20.1205 C   0  0  0  0  0  0  0  0  0  0  0  0
    4.7860    1.3821   19.0121 C   0  0  0  0  0  0  0  0  0  0  0  0
    5.4309    1.3185   17.7727 C   0  0  0  0  0  0  0  0  0  0  0  0
    6.5703    0.6316   17.5728 N   0  0  0  0  0  0  0  0  0  0  0  0
    7.1156    0.0130   18.6244 C   0  0  0  0  0  0  0  0  0  0  0  0
    8.0019   -0.5916   18.4377 H   0  0  0  0  0  0  0  0  0  0  0  0
    5.0026    1.8110   16.9017 H   0  0  0  0  0  0  0  0  0  0  0  0
    3.8320    1.8896   19.1022 H   0  0  0  0  0  0  0  0  0  0  0  0
    4.9083    0.7611   21.1051 H   0  0  0  0  0  0  0  0  0  0  0  0
    7.0359    1.9526   22.1475 H   0  0  0  0  0  0  0  0  0  0  0  0
    6.7426    1.1473   23.7106 H   0  0  0  0  0  0  0  0  0  0  0  0
   10.1713    1.9663   26.3618 H   0  0  0  0  0  0  0  0  0  0  0  0
   12.0340    2.8854   24.9967 H   0  0  0  0  0  0  0  0  0  0  0  0
   11.7793    3.0392   22.5153 H   0  0  0  0  0  0  0  0  0  0  0  0
   10.5709    2.5104   20.6020 H   0  0  0  0  0  0  0  0  0  0  0  0
    8.8186    2.8023   20.7209 H   0  0  0  0  0  0  0  0  0  0  0  0
    9.4332    1.1475   20.6879 H   0  0  0  0  0  0  0  0  0  0  0  0
  1  2  1  0
  2  3  2  0
  3  4  1  0
  4  5  2  0
  5  6  1  0
  6  7  2  0
  7  8  1  0
  8  9  1  0
  9 10  2  0
 10 11  1  0
 11 12  1  0
 12 13  1  0
 13 14  1  0
 14 15  1  0
 15 16  1  0
 15 17  1  0
 14 18  1  0
 14 19  1  0
 13 20  1  0
 12 21  1  0
 12 22  1  0
 11 23  2  0
 23 24  1  0
 24 25  1  0
 25 26  2  0
 26 27  1  0
 27 28  2  0
 28 29  1  0
 29 30  2  0
 30 31  1  0
 28 32  1  0
 27 33  1  0
 26 34  1  0
  8 35  1  0
  8 36  1  0
  5 37  1  0
  4 38  1  0
  3 39  1  0
  1 40  1  0
  1 41  1  0
  1 42  1  0
  7  2  1  0
 24  9  1  0
 30 25  1  0
 15 13  1  0
M  END
>  <cnnaffinity>  (1) 
-6.05635

>  <filename>  (1) 
Cc1cccnc1Cc1nc(CC2CC2)nn1-c1cccnc1

$$$$
