
     RDKit          3D

 52 55  0  0  0  0  0  0  0  0999 V2000
    9.0627   -4.1133   27.1022 C   0  0  0  0  0  0  0  0  0  0  0  0
    8.7462   -4.7030   25.7191 C   0  0  0  0  0  0  0  0  0  0  0  0
    7.2264   -4.6577   25.3870 C   0  0  0  0  0  0  0  0  0  0  0  0
    6.8341   -3.5015   24.4561 C   0  0  0  0  0  0  0  0  0  0  0  0
    7.5767   -3.5662   23.0866 C   0  0  0  0  0  0  0  0  0  0  0  0
    7.5928   -2.2166   22.4102 C   0  0  0  0  0  0  0  0  0  0  0  0
    6.9632   -1.9873   21.2737 N   0  0  0  0  0  0  0  0  0  0  0  0
    7.2299   -0.6823   21.0260 N   0  0  0  0  0  0  0  0  0  0  0  0
    6.6198    0.0054   19.9299 C   0  0  0  0  0  0  0  0  0  0  0  0
    5.3962    0.6557   20.0991 C   0  0  0  0  0  0  0  0  0  0  0  0
    4.8498    1.3303   19.0019 C   0  0  0  0  0  0  0  0  0  0  0  0
    5.5470    1.3214   17.7893 C   0  0  0  0  0  0  0  0  0  0  0  0
    6.7225    0.6958   17.6219 N   0  0  0  0  0  0  0  0  0  0  0  0
    7.2487    0.0543   18.6751 C   0  0  0  0  0  0  0  0  0  0  0  0
    8.2255   -0.3976   18.5221 H   0  0  0  0  0  0  0  0  0  0  0  0
    5.1469    1.8488   16.9259 H   0  0  0  0  0  0  0  0  0  0  0  0
    3.9106    1.8641   19.0905 H   0  0  0  0  0  0  0  0  0  0  0  0
    4.8892    0.6259   21.0658 H   0  0  0  0  0  0  0  0  0  0  0  0
    8.0355   -0.2005   22.0056 C   0  0  0  0  0  0  0  0  0  0  0  0
    8.5709    1.2132   22.0266 C   0  0  0  0  0  0  0  0  0  0  0  0
    8.7211    1.7427   20.7210 O   0  0  0  0  0  0  0  0  0  0  0  0
    8.4403    2.6748   20.7273 H   0  0  0  0  0  0  0  0  0  0  0  0
    7.7177    2.1955   22.8609 C   0  0  0  0  0  0  0  0  0  0  0  0
    8.4017    3.5331   22.8970 C   0  0  0  0  0  0  0  0  0  0  0  0
    9.5302    3.7440   23.7050 C   0  0  0  0  0  0  0  0  0  0  0  0
   10.1127    5.0124   23.7448 C   0  0  0  0  0  0  0  0  0  0  0  0
    9.5331    6.0218   22.9712 C   0  0  0  0  0  0  0  0  0  0  0  0
    8.4583    5.6958   22.1369 C   0  0  0  0  0  0  0  0  0  0  0  0
    7.9285    4.4666   22.0633 N   0  0  0  0  0  0  0  0  0  0  0  0
    8.0289    6.4522   21.4811 H   0  0  0  0  0  0  0  0  0  0  0  0
    9.9121    7.0351   22.9872 H   0  0  0  0  0  0  0  0  0  0  0  0
   10.9966    5.1969   24.3528 H   0  0  0  0  0  0  0  0  0  0  0  0
    9.9427    2.9092   24.2555 H   0  0  0  0  0  0  0  0  0  0  0  0
    6.7433    2.3319   22.3803 H   0  0  0  0  0  0  0  0  0  0  0  0
    7.5568    1.8115   23.8729 H   0  0  0  0  0  0  0  0  0  0  0  0
    9.5593    1.1152   22.5121 H   0  0  0  0  0  0  0  0  0  0  0  0
    8.2679   -1.1460   22.9047 N   0  0  0  0  0  0  0  0  0  0  0  0
    9.0150   -4.1662   23.2213 C   0  0  0  0  0  0  0  0  0  0  0  0
    9.5997   -4.0070   24.6314 C   0  0  0  0  0  0  0  0  0  0  0  0
    9.6598   -2.9297   24.8491 H   0  0  0  0  0  0  0  0  0  0  0  0
   10.6278   -4.3906   24.6663 H   0  0  0  0  0  0  0  0  0  0  0  0
    9.6856   -3.6834   22.5048 H   0  0  0  0  0  0  0  0  0  0  0  0
    8.9827   -5.2348   22.9629 H   0  0  0  0  0  0  0  0  0  0  0  0
    7.0063   -4.2146   22.4119 H   0  0  0  0  0  0  0  0  0  0  0  0
    5.7515   -3.5092   24.2902 H   0  0  0  0  0  0  0  0  0  0  0  0
    7.0600   -2.5485   24.9509 H   0  0  0  0  0  0  0  0  0  0  0  0
    6.6464   -4.6095   26.3174 H   0  0  0  0  0  0  0  0  0  0  0  0
    6.9283   -5.6038   24.9161 H   0  0  0  0  0  0  0  0  0  0  0  0
    9.0243   -5.7672   25.7394 H   0  0  0  0  0  0  0  0  0  0  0  0
    9.0656   -3.0177   27.0804 H   0  0  0  0  0  0  0  0  0  0  0  0
   10.0433   -4.4333   27.4663 H   0  0  0  0  0  0  0  0  0  0  0  0
    8.3213   -4.4107   27.8497 H   0  0  0  0  0  0  0  0  0  0  0  0
  1  2  1  0
  2  3  1  0
  3  4  1  0
  4  5  1  0
  5  6  1  0
  6  7  2  0
  7  8  1  0
  8  9  1  0
  9 10  2  0
 10 11  1  0
 11 12  2  0
 12 13  1  0
 13 14  2  0
 14 15  1  0
 12 16  1  0
 11 17  1  0
 10 18  1  0
  8 19  1  0
 19 20  1  0
 20 21  1  0
 21 22  1  0
 20 23  1  0
 23 24  1  0
 24 25  2  0
 25 26  1  0
 26 27  2  0
 27 28  1  0
 28 29  2  0
 28 30  1  0
 27 31  1  0
 26 32  1  0
 25 33  1  0
 23 34  1  0
 23 35  1  0
 20 36  1  0
 19 37  2  0
  5 38  1  0
 38 39  1  0
 39 40  1  0
 39 41  1  0
 38 42  1  0
 38 43  1  0
  5 44  1  0
  4 45  1  0
  4 46  1  0
  3 47  1  0
  3 48  1  0
  2 49  1  0
  1 50  1  0
  1 51  1  0
  1 52  1  0
 39  2  1  0
 37  6  1  0
 14  9  1  0
 29 24  1  0
M  END
>  <cnnaffinity>  (1) 
-6.20578

>  <filename>  (1) 
CC1CCC(c2nc(C(O)Cc3ccccn3)n(-c3cccnc3)n2)CC1

$$$$
