
     RDKit          3D

 41 44  0  0  0  0  0  0  0  0999 V2000
    7.8337   -4.6382   21.3127 C   0  0  0  0  0  0  0  0  0  0  0  0
    8.3486   -4.7363   22.7306 C   0  0  0  0  0  0  0  0  0  0  0  0
    7.8618   -5.7334   23.5881 C   0  0  0  0  0  0  0  0  0  0  0  0
    8.4400   -5.8970   24.8497 C   0  0  0  0  0  0  0  0  0  0  0  0
    9.5176   -5.0804   25.1947 C   0  0  0  0  0  0  0  0  0  0  0  0
    9.9945   -4.1072   24.4007 N   0  0  0  0  0  0  0  0  0  0  0  0
    9.3594   -3.8794   23.2480 C   0  0  0  0  0  0  0  0  0  0  0  0
    9.7853   -2.6206   22.5058 C   0  0  0  0  0  0  0  0  0  0  0  0
    8.6732   -1.7087   22.1048 C   0  0  0  0  0  0  0  0  0  0  0  0
    8.4115   -1.3171   20.8801 N   0  0  0  0  0  0  0  0  0  0  0  0
    7.2509   -0.6169   21.0141 C   0  0  0  0  0  0  0  0  0  0  0  0
    6.5796    0.0253   19.8844 C   0  0  0  0  0  0  0  0  0  0  0  0
    5.3652    0.7138   20.0356 C   0  0  0  0  0  0  0  0  0  0  0  0
    4.8206    1.3456   18.9218 C   0  0  0  0  0  0  0  0  0  0  0  0
    5.5016    1.2681   17.7002 C   0  0  0  0  0  0  0  0  0  0  0  0
    6.6523    0.5982   17.5414 N   0  0  0  0  0  0  0  0  0  0  0  0
    7.1767   -0.0082   18.6144 C   0  0  0  0  0  0  0  0  0  0  0  0
    8.1130   -0.5358   18.4451 H   0  0  0  0  0  0  0  0  0  0  0  0
    5.1022    1.7641   16.8164 H   0  0  0  0  0  0  0  0  0  0  0  0
    3.9008    1.9140   18.9909 H   0  0  0  0  0  0  0  0  0  0  0  0
    4.8805    0.7569   21.0143 H   0  0  0  0  0  0  0  0  0  0  0  0
    6.7733   -0.5821   22.2475 N   0  0  0  0  0  0  0  0  0  0  0  0
    7.7263   -1.2358   22.9566 N   0  0  0  0  0  0  0  0  0  0  0  0
    7.5504   -1.5721   24.3257 C   0  0  0  0  0  0  0  0  0  0  0  0
    8.5333   -1.2976   25.2811 C   0  0  0  0  0  0  0  0  0  0  0  0
    8.4133   -1.9103   26.5316 C   0  0  0  0  0  0  0  0  0  0  0  0
    7.2947   -2.7116   26.7820 C   0  0  0  0  0  0  0  0  0  0  0  0
    6.3023   -2.8915   25.8969 N   0  0  0  0  0  0  0  0  0  0  0  0
    6.4233   -2.3201   24.6978 C   0  0  0  0  0  0  0  0  0  0  0  0
    5.6180   -2.4850   23.9844 H   0  0  0  0  0  0  0  0  0  0  0  0
    7.1897   -3.2535   27.7176 H   0  0  0  0  0  0  0  0  0  0  0  0
    9.1924   -1.8102   27.2803 H   0  0  0  0  0  0  0  0  0  0  0  0
    9.4030   -0.6859   25.0310 H   0  0  0  0  0  0  0  0  0  0  0  0
   10.5096   -2.0944   23.1301 H   0  0  0  0  0  0  0  0  0  0  0  0
   10.2838   -2.8748   21.5739 H   0  0  0  0  0  0  0  0  0  0  0  0
   10.0062   -5.2198   26.1592 H   0  0  0  0  0  0  0  0  0  0  0  0
    8.0844   -6.6516   25.5449 H   0  0  0  0  0  0  0  0  0  0  0  0
    7.0802   -6.4148   23.2397 H   0  0  0  0  0  0  0  0  0  0  0  0
    7.6439   -5.6311   20.8878 H   0  0  0  0  0  0  0  0  0  0  0  0
    8.5695   -4.1325   20.6834 H   0  0  0  0  0  0  0  0  0  0  0  0
    6.9085   -4.0507   21.2506 H   0  0  0  0  0  0  0  0  0  0  0  0
  1  2  1  0
  2  3  2  0
  3  4  1  0
  4  5  2  0
  5  6  1  0
  6  7  2  0
  7  8  1  0
  8  9  1  0
  9 10  2  0
 10 11  1  0
 11 12  1  0
 12 13  2  0
 13 14  1  0
 14 15  2  0
 15 16  1  0
 16 17  2  0
 17 18  1  0
 15 19  1  0
 14 20  1  0
 13 21  1  0
 11 22  2  0
 22 23  1  0
 23 24  1  0
 24 25  2  0
 25 26  1  0
 26 27  2  0
 27 28  1  0
 28 29  2  0
 29 30  1  0
 27 31  1  0
 26 32  1  0
 25 33  1  0
  8 34  1  0
  8 35  1  0
  5 36  1  0
  4 37  1  0
  3 38  1  0
  1 39  1  0
  1 40  1  0
  1 41  1  0
  7  2  1  0
 23  9  1  0
 29 24  1  0
 17 12  1  0
M  END
>  <cnnaffinity>  (1) 
-6.27802

>  <filename>  (1) 
Cc1cccnc1Cc1nc(-c2cccnc2)nn1-c1cccnc1

$$$$
