
     RDKit          3D

 42 45  0  0  0  0  0  0  0  0999 V2000
   14.0042    0.7125   23.4880 C   0  0  0  0  0  0  0  0  0  0  0  0
   12.9075    0.0042   22.7254 C   0  0  0  0  0  0  0  0  0  0  0  0
   11.5554    0.3530   22.8058 C   0  0  0  0  0  0  0  0  0  0  0  0
   10.5625   -0.3445   22.0818 C   0  0  0  0  0  0  0  0  0  0  0  0
    9.1336   -0.0005   22.1859 C   0  0  0  0  0  0  0  0  0  0  0  0
    8.2002   -0.6742   21.5247 N   0  0  0  0  0  0  0  0  0  0  0  0
    7.0608   -0.0046   21.8118 N   0  0  0  0  0  0  0  0  0  0  0  0
    5.8188   -0.2988   21.1003 C   0  0  0  0  0  0  0  0  0  0  0  0
    5.6642    0.3784   19.7474 C   0  0  0  0  0  0  0  0  0  0  0  0
    4.5743    1.2153   19.4796 C   0  0  0  0  0  0  0  0  0  0  0  0
    4.5040    1.8591   18.2442 C   0  0  0  0  0  0  0  0  0  0  0  0
    5.5019    1.6092   17.3011 C   0  0  0  0  0  0  0  0  0  0  0  0
    6.5349    0.7808   17.5187 N   0  0  0  0  0  0  0  0  0  0  0  0
    6.6063    0.1914   18.7202 C   0  0  0  0  0  0  0  0  0  0  0  0
    7.4605   -0.4667   18.8840 H   0  0  0  0  0  0  0  0  0  0  0  0
    5.4584    2.0844   16.3225 H   0  0  0  0  0  0  0  0  0  0  0  0
    3.7024    2.5519   18.0104 H   0  0  0  0  0  0  0  0  0  0  0  0
    3.7893    1.3681   20.2239 H   0  0  0  0  0  0  0  0  0  0  0  0
    5.7677   -1.3874   21.0157 H   0  0  0  0  0  0  0  0  0  0  0  0
    4.9869    0.0193   21.7317 H   0  0  0  0  0  0  0  0  0  0  0  0
    7.3557    1.0143   22.6476 C   0  0  0  0  0  0  0  0  0  0  0  0
    6.3729    1.9421   23.2841 C   0  0  0  0  0  0  0  0  0  0  0  0
    5.9983    1.5016   24.6822 C   0  0  0  0  0  0  0  0  0  0  0  0
    6.7561    1.6112   25.8079 C   0  0  0  0  0  0  0  0  0  0  0  0
    6.2093    1.1340   26.9757 N   0  0  0  0  0  0  0  0  0  0  0  0
    5.0424    0.6301   26.7274 C   0  0  0  0  0  0  0  0  0  0  0  0
    4.5424    0.6826   25.0742 S   0  0  0  0  0  0  0  0  0  0  0  0
    4.3882    0.2093   27.4843 H   0  0  0  0  0  0  0  0  0  0  0  0
    7.7513    2.0402   25.8175 H   0  0  0  0  0  0  0  0  0  0  0  0
    5.5007    2.0755   22.6353 H   0  0  0  0  0  0  0  0  0  0  0  0
    6.8723    2.9150   23.3479 H   0  0  0  0  0  0  0  0  0  0  0  0
    8.6464    1.0463   22.9010 N   0  0  0  0  0  0  0  0  0  0  0  0
   10.9536   -1.3831   21.2172 C   0  0  0  0  0  0  0  0  0  0  0  0
   12.2976   -1.7259   21.0999 C   0  0  0  0  0  0  0  0  0  0  0  0
   13.2355   -1.0564   21.8708 C   0  0  0  0  0  0  0  0  0  0  0  0
   14.5180   -1.4466   21.7756 F   0  0  0  0  0  0  0  0  0  0  0  0
   12.6663   -2.4555   20.3924 H   0  0  0  0  0  0  0  0  0  0  0  0
   10.1944   -1.8959   20.6305 H   0  0  0  0  0  0  0  0  0  0  0  0
   11.2821    1.2201   23.4075 H   0  0  0  0  0  0  0  0  0  0  0  0
   14.4140    0.0786   24.2796 H   0  0  0  0  0  0  0  0  0  0  0  0
   14.8390    0.9597   22.8253 H   0  0  0  0  0  0  0  0  0  0  0  0
   13.6598    1.6387   23.9535 H   0  0  0  0  0  0  0  0  0  0  0  0
  1  2  1  0
  2  3  2  0
  3  4  1  0
  4  5  1  0
  5  6  2  0
  6  7  1  0
  7  8  1  0
  8  9  1  0
  9 10  2  0
 10 11  1  0
 11 12  2  0
 12 13  1  0
 13 14  2  0
 14 15  1  0
 12 16  1  0
 11 17  1  0
 10 18  1  0
  8 19  1  0
  8 20  1  0
  7 21  1  0
 21 22  1  0
 22 23  1  0
 23 24  2  0
 24 25  1  0
 25 26  2  0
 26 27  1  0
 26 28  1  0
 24 29  1  0
 22 30  1  0
 22 31  1  0
 21 32  2  0
  4 33  2  0
 33 34  1  0
 34 35  2  0
 35 36  1  0
 34 37  1  0
 33 38  1  0
  3 39  1  0
  1 40  1  0
  1 41  1  0
  1 42  1  0
 35  2  1  0
 32  5  1  0
 14  9  1  0
 27 23  1  0
M  END
>  <cnnaffinity>  (1) 
-6.27865

>  <filename>  (1) 
Cc1cc(-c2nc(Cc3cncs3)n(Cc3cccnc3)n2)ccc1F

$$$$
