
     RDKit          3D

 41 44  0  0  0  0  0  0  0  0999 V2000
    8.1407    2.6739   22.1006 C   0  0  0  0  0  0  0  0  0  0  0  0
    9.5223    2.2701   22.5571 C   0  0  0  0  0  0  0  0  0  0  0  0
   10.1529    2.9560   23.5998 C   0  0  0  0  0  0  0  0  0  0  0  0
   11.4317    2.5648   24.0128 C   0  0  0  0  0  0  0  0  0  0  0  0
   12.0511    1.5033   23.3563 C   0  0  0  0  0  0  0  0  0  0  0  0
   11.4686    0.8383   22.3481 N   0  0  0  0  0  0  0  0  0  0  0  0
   10.2415    1.1964   21.9723 C   0  0  0  0  0  0  0  0  0  0  0  0
    9.6408    0.3629   20.8766 C   0  0  0  0  0  0  0  0  0  0  0  0
    8.6251   -0.5573   21.4246 C   0  0  0  0  0  0  0  0  0  0  0  0
    8.8440   -1.4007   22.4067 N   0  0  0  0  0  0  0  0  0  0  0  0
    7.6505   -2.0269   22.5406 C   0  0  0  0  0  0  0  0  0  0  0  0
    7.3979   -3.0466   23.5526 C   0  0  0  0  0  0  0  0  0  0  0  0
    6.1196   -3.6268   23.6962 C   0  0  0  0  0  0  0  0  0  0  0  0
    5.9656   -4.5759   24.6906 C   0  0  0  0  0  0  0  0  0  0  0  0
    4.7796   -5.1694   24.8776 F   0  0  0  0  0  0  0  0  0  0  0  0
    7.0505   -4.9201   25.5085 C   0  0  0  0  0  0  0  0  0  0  0  0
    8.2573   -4.3607   25.3681 N   0  0  0  0  0  0  0  0  0  0  0  0
    8.4378   -3.4393   24.4133 C   0  0  0  0  0  0  0  0  0  0  0  0
    9.4393   -3.0121   24.3471 H   0  0  0  0  0  0  0  0  0  0  0  0
    6.9256   -5.6661   26.2909 H   0  0  0  0  0  0  0  0  0  0  0  0
    5.2748   -3.3419   23.0639 H   0  0  0  0  0  0  0  0  0  0  0  0
    6.7114   -1.6256   21.6997 N   0  0  0  0  0  0  0  0  0  0  0  0
    7.3480   -0.6903   20.9558 N   0  0  0  0  0  0  0  0  0  0  0  0
    6.6558   -0.0131   19.9068 C   0  0  0  0  0  0  0  0  0  0  0  0
    5.4427    0.6313   20.1635 C   0  0  0  0  0  0  0  0  0  0  0  0
    4.8117    1.3057   19.1130 C   0  0  0  0  0  0  0  0  0  0  0  0
    5.3972    1.2909   17.8434 C   0  0  0  0  0  0  0  0  0  0  0  0
    6.5487    0.6557   17.5825 N   0  0  0  0  0  0  0  0  0  0  0  0
    7.1605    0.0258   18.5940 C   0  0  0  0  0  0  0  0  0  0  0  0
    8.1079   -0.4535   18.3534 H   0  0  0  0  0  0  0  0  0  0  0  0
    4.9327    1.8001   17.0012 H   0  0  0  0  0  0  0  0  0  0  0  0
    3.8821    1.8411   19.2614 H   0  0  0  0  0  0  0  0  0  0  0  0
    5.0189    0.6007   21.1678 H   0  0  0  0  0  0  0  0  0  0  0  0
    9.1969    1.0040   20.1173 H   0  0  0  0  0  0  0  0  0  0  0  0
   10.4255   -0.2639   20.4543 H   0  0  0  0  0  0  0  0  0  0  0  0
   13.0431    1.1520   23.6474 H   0  0  0  0  0  0  0  0  0  0  0  0
   11.9468    3.0654   24.8204 H   0  0  0  0  0  0  0  0  0  0  0  0
    9.6285    3.7888   24.0765 H   0  0  0  0  0  0  0  0  0  0  0  0
    7.8003    3.5566   22.6475 H   0  0  0  0  0  0  0  0  0  0  0  0
    7.4127    1.8686   22.2573 H   0  0  0  0  0  0  0  0  0  0  0  0
    8.1336    2.9074   21.0331 H   0  0  0  0  0  0  0  0  0  0  0  0
  1  2  1  0
  2  3  2  0
  3  4  1  0
  4  5  2  0
  5  6  1  0
  6  7  2  0
  7  8  1  0
  8  9  1  0
  9 10  2  0
 10 11  1  0
 11 12  1  0
 12 13  2  0
 13 14  1  0
 14 15  1  0
 14 16  2  0
 16 17  1  0
 17 18  2  0
 18 19  1  0
 16 20  1  0
 13 21  1  0
 11 22  2  0
 22 23  1  0
 23 24  1  0
 24 25  2  0
 25 26  1  0
 26 27  2  0
 27 28  1  0
 28 29  2  0
 29 30  1  0
 27 31  1  0
 26 32  1  0
 25 33  1  0
  8 34  1  0
  8 35  1  0
  5 36  1  0
  4 37  1  0
  3 38  1  0
  1 39  1  0
  1 40  1  0
  1 41  1  0
  7  2  1  0
 23  9  1  0
 29 24  1  0
 18 12  1  0
M  END
>  <cnnaffinity>  (1) 
-6.16146

>  <filename>  (1) 
Cc1cccnc1Cc1nc(-c2cncc(F)c2)nn1-c1cccnc1

$$$$
