
     RDKit          3D

 42 45  0  0  0  0  0  0  0  0999 V2000
   10.5699    3.2210   23.9108 C   0  0  0  0  0  0  0  0  0  0  0  0
    9.5283    4.1182   23.2741 C   0  0  0  0  0  0  0  0  0  0  0  0
    9.3885    5.4601   23.6466 C   0  0  0  0  0  0  0  0  0  0  0  0
    8.4381    6.2593   23.0030 C   0  0  0  0  0  0  0  0  0  0  0  0
    7.6130    5.6777   22.0444 C   0  0  0  0  0  0  0  0  0  0  0  0
    7.6841    4.3839   21.7190 N   0  0  0  0  0  0  0  0  0  0  0  0
    8.6506    3.6383   22.2658 C   0  0  0  0  0  0  0  0  0  0  0  0
    8.7037    2.2162   21.7718 C   0  0  0  0  0  0  0  0  0  0  0  0
    7.7238    1.3118   22.5623 C   0  0  0  0  0  0  0  0  0  0  0  0
    7.7491   -0.1227   22.1670 C   0  0  0  0  0  0  0  0  0  0  0  0
    8.2992   -1.0778   22.8847 N   0  0  0  0  0  0  0  0  0  0  0  0
    8.2737   -2.1391   22.0446 C   0  0  0  0  0  0  0  0  0  0  0  0
    8.9060   -3.4171   22.4263 C   0  0  0  0  0  0  0  0  0  0  0  0
    8.4927   -4.2217   23.6335 C   0  0  0  0  0  0  0  0  0  0  0  0
    8.2053   -4.7329   22.2517 C   0  0  0  0  0  0  0  0  0  0  0  0
    8.7672   -5.5786   21.8628 H   0  0  0  0  0  0  0  0  0  0  0  0
    7.1740   -4.6801   21.9086 H   0  0  0  0  0  0  0  0  0  0  0  0
    9.3139   -4.6848   24.1787 H   0  0  0  0  0  0  0  0  0  0  0  0
    7.6603   -3.8843   24.2555 H   0  0  0  0  0  0  0  0  0  0  0  0
    9.9813   -3.3708   22.2753 H   0  0  0  0  0  0  0  0  0  0  0  0
    7.7325   -1.9138   20.8613 N   0  0  0  0  0  0  0  0  0  0  0  0
    7.3562   -0.6101   20.9521 N   0  0  0  0  0  0  0  0  0  0  0  0
    6.6320    0.0235   19.8954 C   0  0  0  0  0  0  0  0  0  0  0  0
    5.4180    0.6860   20.1249 C   0  0  0  0  0  0  0  0  0  0  0  0
    4.8070    1.3296   19.0425 C   0  0  0  0  0  0  0  0  0  0  0  0
    5.4298    1.3023   17.7928 C   0  0  0  0  0  0  0  0  0  0  0  0
    6.5714    0.6304   17.5593 N   0  0  0  0  0  0  0  0  0  0  0  0
    7.1435   -0.0065   18.5875 C   0  0  0  0  0  0  0  0  0  0  0  0
    8.0581   -0.5566   18.3744 H   0  0  0  0  0  0  0  0  0  0  0  0
    4.9942    1.8331   16.9479 H   0  0  0  0  0  0  0  0  0  0  0  0
    3.8710    1.8616   19.1680 H   0  0  0  0  0  0  0  0  0  0  0  0
    4.9535    0.6857   21.1142 H   0  0  0  0  0  0  0  0  0  0  0  0
    7.9659    1.3390   23.6323 H   0  0  0  0  0  0  0  0  0  0  0  0
    6.7083    1.7031   22.4560 H   0  0  0  0  0  0  0  0  0  0  0  0
    9.7247    1.8194   21.8409 H   0  0  0  0  0  0  0  0  0  0  0  0
    8.4293    2.2294   20.7130 H   0  0  0  0  0  0  0  0  0  0  0  0
    6.8682    6.2605   21.5085 H   0  0  0  0  0  0  0  0  0  0  0  0
    8.3288    7.3105   23.2327 H   0  0  0  0  0  0  0  0  0  0  0  0
   10.0249    5.8716   24.4308 H   0  0  0  0  0  0  0  0  0  0  0  0
   11.2834    2.8315   23.1750 H   0  0  0  0  0  0  0  0  0  0  0  0
   11.1638    3.7391   24.6658 H   0  0  0  0  0  0  0  0  0  0  0  0
   10.1002    2.3543   24.3925 H   0  0  0  0  0  0  0  0  0  0  0  0
  1  2  1  0
  2  3  2  0
  3  4  1  0
  4  5  2  0
  5  6  1  0
  6  7  2  0
  7  8  1  0
  8  9  1  0
  9 10  1  0
 10 11  2  0
 11 12  1  0
 12 13  1  0
 13 14  1  0
 14 15  1  0
 15 16  1  0
 15 17  1  0
 14 18  1  0
 14 19  1  0
 13 20  1  0
 12 21  2  0
 21 22  1  0
 22 23  1  0
 23 24  2  0
 24 25  1  0
 25 26  2  0
 26 27  1  0
 27 28  2  0
 28 29  1  0
 26 30  1  0
 25 31  1  0
 24 32  1  0
  9 33  1  0
  9 34  1  0
  8 35  1  0
  8 36  1  0
  5 37  1  0
  4 38  1  0
  3 39  1  0
  1 40  1  0
  1 41  1  0
  1 42  1  0
  7  2  1  0
 22 10  1  0
 28 23  1  0
 15 13  1  0
M  END
>  <cnnaffinity>  (1) 
-5.96646

>  <filename>  (1) 
Cc1cccnc1CCc1nc(C2CC2)nn1-c1cccnc1

$$$$
