
     RDKit          3D

 45 48  0  0  0  0  0  0  0  0999 V2000
    8.0874   -5.5053   27.2361 C   0  0  0  0  0  0  0  0  0  0  0  0
    8.3137   -4.4709   26.1329 C   0  0  0  0  0  0  0  0  0  0  0  0
    7.2382   -3.3679   26.1627 C   0  0  0  0  0  0  0  0  0  0  0  0
    7.3981   -2.3509   25.0260 C   0  0  0  0  0  0  0  0  0  0  0  0
    7.4095   -3.0578   23.6455 C   0  0  0  0  0  0  0  0  0  0  0  0
    7.6330   -2.0686   22.5471 C   0  0  0  0  0  0  0  0  0  0  0  0
    6.7311   -1.6336   21.6993 N   0  0  0  0  0  0  0  0  0  0  0  0
    7.4249   -0.7199   20.9553 N   0  0  0  0  0  0  0  0  0  0  0  0
    6.7409   -0.0420   19.9009 C   0  0  0  0  0  0  0  0  0  0  0  0
    5.5302    0.6078   20.1745 C   0  0  0  0  0  0  0  0  0  0  0  0
    4.8951    1.2809   19.1310 C   0  0  0  0  0  0  0  0  0  0  0  0
    5.4737    1.2776   17.8563 C   0  0  0  0  0  0  0  0  0  0  0  0
    6.6126    0.6244   17.5780 N   0  0  0  0  0  0  0  0  0  0  0  0
    7.2211   -0.0260   18.5789 C   0  0  0  0  0  0  0  0  0  0  0  0
    8.1233   -0.5720   18.3074 H   0  0  0  0  0  0  0  0  0  0  0  0
    4.9996    1.8092   17.0326 H   0  0  0  0  0  0  0  0  0  0  0  0
    3.9541    1.7920   19.2931 H   0  0  0  0  0  0  0  0  0  0  0  0
    5.1113    0.5729   21.1828 H   0  0  0  0  0  0  0  0  0  0  0  0
    8.6951   -0.6255   21.4610 C   0  0  0  0  0  0  0  0  0  0  0  0
    9.7212    0.4225   21.2195 C   0  0  0  0  0  0  0  0  0  0  0  0
    9.2519    1.7090   21.7967 C   0  0  0  0  0  0  0  0  0  0  0  0
    9.5769    2.1443   22.9774 N   0  0  0  0  0  0  0  0  0  0  0  0
    8.8646    3.3139   23.1489 O   0  0  0  0  0  0  0  0  0  0  0  0
    8.1107    3.5385   22.0628 C   0  0  0  0  0  0  0  0  0  0  0  0
    8.3016    2.5449   21.1671 C   0  0  0  0  0  0  0  0  0  0  0  0
    7.8416    2.3165   20.2235 H   0  0  0  0  0  0  0  0  0  0  0  0
    7.5034    4.4329   22.0842 H   0  0  0  0  0  0  0  0  0  0  0  0
    9.8434    0.5540   20.1525 H   0  0  0  0  0  0  0  0  0  0  0  0
   10.6565    0.0876   21.6740 H   0  0  0  0  0  0  0  0  0  0  0  0
    8.8569   -1.4906   22.4228 N   0  0  0  0  0  0  0  0  0  0  0  0
    8.5204   -4.1317   23.6159 C   0  0  0  0  0  0  0  0  0  0  0  0
    8.3518   -5.1442   24.7481 C   0  0  0  0  0  0  0  0  0  0  0  0
    9.1644   -5.8820   24.7115 H   0  0  0  0  0  0  0  0  0  0  0  0
    7.4129   -5.7030   24.5961 H   0  0  0  0  0  0  0  0  0  0  0  0
    8.5259   -4.6381   22.6429 H   0  0  0  0  0  0  0  0  0  0  0  0
    9.4870   -3.6125   23.7143 H   0  0  0  0  0  0  0  0  0  0  0  0
    6.4318   -3.5296   23.4841 H   0  0  0  0  0  0  0  0  0  0  0  0
    6.5896   -1.6088   25.0674 H   0  0  0  0  0  0  0  0  0  0  0  0
    8.3471   -1.7997   25.1352 H   0  0  0  0  0  0  0  0  0  0  0  0
    6.2448   -3.8407   26.0787 H   0  0  0  0  0  0  0  0  0  0  0  0
    7.2560   -2.8530   27.1323 H   0  0  0  0  0  0  0  0  0  0  0  0
    9.2944   -3.9913   26.3031 H   0  0  0  0  0  0  0  0  0  0  0  0
    8.0879   -5.0418   28.2288 H   0  0  0  0  0  0  0  0  0  0  0  0
    7.1202   -6.0057   27.0964 H   0  0  0  0  0  0  0  0  0  0  0  0
    8.8651   -6.2758   27.2163 H   0  0  0  0  0  0  0  0  0  0  0  0
  1  2  1  0
  2  3  1  0
  3  4  1  0
  4  5  1  0
  5  6  1  0
  6  7  2  0
  7  8  1  0
  8  9  1  0
  9 10  2  0
 10 11  1  0
 11 12  2  0
 12 13  1  0
 13 14  2  0
 14 15  1  0
 12 16  1  0
 11 17  1  0
 10 18  1  0
  8 19  1  0
 19 20  1  0
 20 21  1  0
 21 22  2  0
 22 23  1  0
 23 24  1  0
 24 25  2  0
 25 26  1  0
 24 27  1  0
 20 28  1  0
 20 29  1  0
 19 30  2  0
  5 31  1  0
 31 32  1  0
 32 33  1  0
 32 34  1  0
 31 35  1  0
 31 36  1  0
  5 37  1  0
  4 38  1  0
  4 39  1  0
  3 40  1  0
  3 41  1  0
  2 42  1  0
  1 43  1  0
  1 44  1  0
  1 45  1  0
 32  2  1  0
 30  6  1  0
 14  9  1  0
 25 21  1  0
M  END
>  <cnnaffinity>  (1) 
-6.12239

>  <filename>  (1) 
CC1CCC(c2nc(Cc3ccon3)n(-c3cccnc3)n2)CC1

$$$$
