
     RDKit          3D

 45 48  0  0  0  0  0  0  0  0999 V2000
    6.8441   -0.8355   27.7645 C   0  0  0  0  0  0  0  0  0  0  0  0
    7.0292   -0.0492   26.5019 C   0  0  0  0  0  0  0  0  0  0  0  0
    8.2591    0.5796   26.2396 C   0  0  0  0  0  0  0  0  0  0  0  0
    8.4118    1.2887   25.0574 C   0  0  0  0  0  0  0  0  0  0  0  0
    7.3438    1.3459   24.1415 C   0  0  0  0  0  0  0  0  0  0  0  0
    7.6058    1.9282   22.7493 C   0  0  0  0  0  0  0  0  0  0  0  0
    8.6024    1.0534   22.0436 C   0  0  0  0  0  0  0  0  0  0  0  0
    9.9169    1.1482   22.1862 N   0  0  0  0  0  0  0  0  0  0  0  0
   10.3498   -0.0952   21.8695 C   0  0  0  0  0  0  0  0  0  0  0  0
   11.7629   -0.5143   21.8287 C   0  0  0  0  0  0  0  0  0  0  0  0
   12.8469    0.2827   22.2478 C   0  0  0  0  0  0  0  0  0  0  0  0
   14.1456   -0.0828   21.8728 C   0  0  0  0  0  0  0  0  0  0  0  0
   14.3368   -1.1889   21.0272 C   0  0  0  0  0  0  0  0  0  0  0  0
   13.2817   -2.0330   20.7299 C   0  0  0  0  0  0  0  0  0  0  0  0
   12.0124   -1.7434   21.2005 C   0  0  0  0  0  0  0  0  0  0  0  0
   11.1719   -2.4154   21.0783 H   0  0  0  0  0  0  0  0  0  0  0  0
   13.4747   -2.8698   20.0711 H   0  0  0  0  0  0  0  0  0  0  0  0
   15.2575   -1.4342   20.5217 H   0  0  0  0  0  0  0  0  0  0  0  0
   14.9838    0.5372   22.1723 H   0  0  0  0  0  0  0  0  0  0  0  0
   12.6744    1.1875   22.8307 H   0  0  0  0  0  0  0  0  0  0  0  0
    9.3797   -0.9215   21.4952 N   0  0  0  0  0  0  0  0  0  0  0  0
    8.2696   -0.1662   21.5689 N   0  0  0  0  0  0  0  0  0  0  0  0
    6.9976   -0.7028   21.0823 C   0  0  0  0  0  0  0  0  0  0  0  0
    6.3774    0.0604   19.9276 C   0  0  0  0  0  0  0  0  0  0  0  0
    5.1548    0.7346   20.0247 C   0  0  0  0  0  0  0  0  0  0  0  0
    4.6605    1.4159   18.9084 C   0  0  0  0  0  0  0  0  0  0  0  0
    5.4043    1.3894   17.7257 C   0  0  0  0  0  0  0  0  0  0  0  0
    6.5648    0.7268   17.6024 N   0  0  0  0  0  0  0  0  0  0  0  0
    7.0303    0.0895   18.6831 C   0  0  0  0  0  0  0  0  0  0  0  0
    7.9726   -0.4407   18.5512 H   0  0  0  0  0  0  0  0  0  0  0  0
    5.0533    1.9140   16.8375 H   0  0  0  0  0  0  0  0  0  0  0  0
    3.7328    1.9761   18.9440 H   0  0  0  0  0  0  0  0  0  0  0  0
    4.5926    0.7319   20.9610 H   0  0  0  0  0  0  0  0  0  0  0  0
    7.2302   -1.7269   20.7735 H   0  0  0  0  0  0  0  0  0  0  0  0
    6.3022   -0.7624   21.9263 H   0  0  0  0  0  0  0  0  0  0  0  0
    6.6948    2.0206   22.1504 H   0  0  0  0  0  0  0  0  0  0  0  0
    8.0559    2.9210   22.8297 H   0  0  0  0  0  0  0  0  0  0  0  0
    6.1570    0.7103   24.5156 C   0  0  0  0  0  0  0  0  0  0  0  0
    5.9919    0.0286   25.6614 N   0  0  0  0  0  0  0  0  0  0  0  0
    5.2901    0.7294   23.8556 H   0  0  0  0  0  0  0  0  0  0  0  0
    9.3664    1.7487   24.7975 H   0  0  0  0  0  0  0  0  0  0  0  0
    9.0755    0.4813   26.9496 H   0  0  0  0  0  0  0  0  0  0  0  0
    5.8471   -1.2759   27.8084 H   0  0  0  0  0  0  0  0  0  0  0  0
    6.9834   -0.1842   28.6348 H   0  0  0  0  0  0  0  0  0  0  0  0
    7.5874   -1.6386   27.8164 H   0  0  0  0  0  0  0  0  0  0  0  0
  1  2  1  0
  2  3  2  0
  3  4  1  0
  4  5  2  0
  5  6  1  0
  6  7  1  0
  7  8  2  0
  8  9  1  0
  9 10  1  0
 10 11  2  0
 11 12  1  0
 12 13  2  0
 13 14  1  0
 14 15  2  0
 15 16  1  0
 14 17  1  0
 13 18  1  0
 12 19  1  0
 11 20  1  0
  9 21  2  0
 21 22  1  0
 22 23  1  0
 23 24  1  0
 24 25  2  0
 25 26  1  0
 26 27  2  0
 27 28  1  0
 28 29  2  0
 29 30  1  0
 27 31  1  0
 26 32  1  0
 25 33  1  0
 23 34  1  0
 23 35  1  0
  6 36  1  0
  6 37  1  0
  5 38  1  0
 38 39  2  0
 38 40  1  0
  4 41  1  0
  3 42  1  0
  1 43  1  0
  1 44  1  0
  1 45  1  0
 39  2  1  0
 22  7  1  0
 29 24  1  0
 15 10  1  0
M  END
>  <cnnaffinity>  (1) 
-6.58061

>  <filename>  (1) 
Cc1ccc(Cc2nc(-c3ccccc3)nn2Cc2cccnc2)cn1

$$$$
