
     RDKit          3D

 40 43  0  0  0  0  0  0  0  0999 V2000
    7.8736    2.7135   22.0508 C   0  0  0  0  0  0  0  0  0  0  0  0
    9.2521    2.3472   22.5022 C   0  0  0  0  0  0  0  0  0  0  0  0
    9.9813    2.8510   23.5527 C   0  0  0  0  0  0  0  0  0  0  0  0
   11.1679    2.0897   23.5656 C   0  0  0  0  0  0  0  0  0  0  0  0
   11.1751    1.1897   22.5957 N   0  0  0  0  0  0  0  0  0  0  0  0
   10.0164    1.3701   21.9417 N   0  0  0  0  0  0  0  0  0  0  0  0
    9.6156    0.4395   20.9079 C   0  0  0  0  0  0  0  0  0  0  0  0
    8.6276   -0.5523   21.4005 C   0  0  0  0  0  0  0  0  0  0  0  0
    8.8597   -1.4189   22.3533 N   0  0  0  0  0  0  0  0  0  0  0  0
    7.6559   -2.0307   22.5246 C   0  0  0  0  0  0  0  0  0  0  0  0
    7.4258   -3.0542   23.5733 C   0  0  0  0  0  0  0  0  0  0  0  0
    8.4664   -3.4375   24.4469 C   0  0  0  0  0  0  0  0  0  0  0  0
    8.2334   -4.4032   25.4297 C   0  0  0  0  0  0  0  0  0  0  0  0
    6.9707   -4.9944   25.5573 C   0  0  0  0  0  0  0  0  0  0  0  0
    5.9351   -4.6137   24.6963 C   0  0  0  0  0  0  0  0  0  0  0  0
    6.1544   -3.6498   23.7117 C   0  0  0  0  0  0  0  0  0  0  0  0
    5.3494   -3.3423   23.0447 H   0  0  0  0  0  0  0  0  0  0  0  0
    4.9508   -5.0651   24.7920 H   0  0  0  0  0  0  0  0  0  0  0  0
    6.7928   -5.7464   26.3253 H   0  0  0  0  0  0  0  0  0  0  0  0
    9.0383   -4.6971   26.1000 H   0  0  0  0  0  0  0  0  0  0  0  0
    9.4502   -2.9764   24.3537 H   0  0  0  0  0  0  0  0  0  0  0  0
    6.7134   -1.6080   21.6952 N   0  0  0  0  0  0  0  0  0  0  0  0
    7.3494   -0.6891   20.9332 N   0  0  0  0  0  0  0  0  0  0  0  0
    6.6530   -0.0008   19.9004 C   0  0  0  0  0  0  0  0  0  0  0  0
    5.4387    0.6416   20.1677 C   0  0  0  0  0  0  0  0  0  0  0  0
    4.8140    1.3107   19.1089 C   0  0  0  0  0  0  0  0  0  0  0  0
    5.3999    1.2969   17.8361 C   0  0  0  0  0  0  0  0  0  0  0  0
    6.5549    0.6684   17.5717 N   0  0  0  0  0  0  0  0  0  0  0  0
    7.1624    0.0465   18.5894 C   0  0  0  0  0  0  0  0  0  0  0  0
    8.1091   -0.4354   18.3627 H   0  0  0  0  0  0  0  0  0  0  0  0
    4.9227    1.7894   16.9917 H   0  0  0  0  0  0  0  0  0  0  0  0
    3.8812    1.8386   19.2592 H   0  0  0  0  0  0  0  0  0  0  0  0
    5.0117    0.6059   21.1754 H   0  0  0  0  0  0  0  0  0  0  0  0
    9.2132    1.0028   20.0702 H   0  0  0  0  0  0  0  0  0  0  0  0
   10.5036   -0.1068   20.6054 H   0  0  0  0  0  0  0  0  0  0  0  0
   12.0055    2.1591   24.2456 H   0  0  0  0  0  0  0  0  0  0  0  0
    9.6751    3.6635   24.1959 H   0  0  0  0  0  0  0  0  0  0  0  0
    7.6038    3.6782   22.4828 H   0  0  0  0  0  0  0  0  0  0  0  0
    7.1251    1.9819   22.3756 H   0  0  0  0  0  0  0  0  0  0  0  0
    7.7948    2.7773   20.9655 H   0  0  0  0  0  0  0  0  0  0  0  0
  1  2  1  0
  2  3  2  0
  3  4  1  0
  4  5  2  0
  5  6  1  0
  6  7  1  0
  7  8  1  0
  8  9  2  0
  9 10  1  0
 10 11  1  0
 11 12  2  0
 12 13  1  0
 13 14  2  0
 14 15  1  0
 15 16  2  0
 16 17  1  0
 15 18  1  0
 14 19  1  0
 13 20  1  0
 12 21  1  0
 10 22  2  0
 22 23  1  0
 23 24  1  0
 24 25  2  0
 25 26  1  0
 26 27  2  0
 27 28  1  0
 28 29  2  0
 29 30  1  0
 27 31  1  0
 26 32  1  0
 25 33  1  0
  7 34  1  0
  7 35  1  0
  4 36  1  0
  3 37  1  0
  1 38  1  0
  1 39  1  0
  1 40  1  0
  6  2  1  0
 23  8  1  0
 29 24  1  0
 16 11  1  0
M  END
>  <cnnaffinity>  (1) 
-5.69484

>  <filename>  (1) 
Cc1ccnn1Cc1nc(-c2ccccc2)nn1-c1cccnc1

$$$$
