
     RDKit          3D

 48 51  0  0  0  0  0  0  0  0999 V2000
   13.4751    2.2021   23.1698 C   0  0  0  0  0  0  0  0  0  0  0  0
   12.8440    0.9457   22.6192 C   0  0  0  0  0  0  0  0  0  0  0  0
   13.6136   -0.1630   22.2348 C   0  0  0  0  0  0  0  0  0  0  0  0
   13.0117   -1.3015   21.6858 C   0  0  0  0  0  0  0  0  0  0  0  0
   11.6272   -1.3600   21.5259 C   0  0  0  0  0  0  0  0  0  0  0  0
   10.8349   -0.2770   21.9491 C   0  0  0  0  0  0  0  0  0  0  0  0
    9.3600   -0.3045   21.8994 C   0  0  0  0  0  0  0  0  0  0  0  0
    8.6068   -1.1664   21.2344 N   0  0  0  0  0  0  0  0  0  0  0  0
    7.3447   -0.7306   21.4839 N   0  0  0  0  0  0  0  0  0  0  0  0
    6.2309   -1.2432   20.6875 C   0  0  0  0  0  0  0  0  0  0  0  0
    5.8534   -0.3087   19.5517 C   0  0  0  0  0  0  0  0  0  0  0  0
    4.7091    0.4963   19.5677 C   0  0  0  0  0  0  0  0  0  0  0  0
    4.5255    1.4219   18.5366 C   0  0  0  0  0  0  0  0  0  0  0  0
    5.4733    1.4821   17.5125 C   0  0  0  0  0  0  0  0  0  0  0  0
    6.5536    0.6886   17.4525 N   0  0  0  0  0  0  0  0  0  0  0  0
    6.7309   -0.1708   18.4627 C   0  0  0  0  0  0  0  0  0  0  0  0
    7.6223   -0.7961   18.4087 H   0  0  0  0  0  0  0  0  0  0  0  0
    5.3648    2.1968   16.6995 H   0  0  0  0  0  0  0  0  0  0  0  0
    3.6799    2.1014   18.5199 H   0  0  0  0  0  0  0  0  0  0  0  0
    3.9716    0.4088   20.3691 H   0  0  0  0  0  0  0  0  0  0  0  0
    5.3815   -1.4240   21.3532 H   0  0  0  0  0  0  0  0  0  0  0  0
    6.5693   -2.2119   20.3084 H   0  0  0  0  0  0  0  0  0  0  0  0
    7.3940    0.3450   22.3021 C   0  0  0  0  0  0  0  0  0  0  0  0
    6.2796    1.1142   22.9503 C   0  0  0  0  0  0  0  0  0  0  0  0
    6.4492    1.0762   24.4907 C   0  0  0  0  0  0  0  0  0  0  0  0
    5.7167    2.0751   25.3171 C   0  0  0  0  0  0  0  0  0  0  0  0
    6.1442    2.9191   26.2883 C   0  0  0  0  0  0  0  0  0  0  0  0
    4.9496    3.4639   26.8276 C   0  0  0  0  0  0  0  0  0  0  0  0
    4.8357    4.4117   27.9794 C   0  0  0  0  0  0  0  0  0  0  0  0
    5.3587    5.3470   27.7570 H   0  0  0  0  0  0  0  0  0  0  0  0
    3.7894    4.6297   28.2084 H   0  0  0  0  0  0  0  0  0  0  0  0
    5.3064    3.9704   28.8645 H   0  0  0  0  0  0  0  0  0  0  0  0
    3.8980    2.9999   26.2030 N   0  0  0  0  0  0  0  0  0  0  0  0
    4.3798    2.1185   25.2482 O   0  0  0  0  0  0  0  0  0  0  0  0
    7.1518    3.1365   26.6002 H   0  0  0  0  0  0  0  0  0  0  0  0
    6.1766    0.0784   24.8571 H   0  0  0  0  0  0  0  0  0  0  0  0
    7.5102    1.2107   24.7270 H   0  0  0  0  0  0  0  0  0  0  0  0
    6.3735    2.1409   22.5741 H   0  0  0  0  0  0  0  0  0  0  0  0
    5.2995    0.7395   22.6356 H   0  0  0  0  0  0  0  0  0  0  0  0
    8.6491    0.6411   22.5624 N   0  0  0  0  0  0  0  0  0  0  0  0
   11.4613    0.8683   22.4722 C   0  0  0  0  0  0  0  0  0  0  0  0
   10.8548    1.7310   22.7431 H   0  0  0  0  0  0  0  0  0  0  0  0
   11.1466   -2.2084   21.0482 H   0  0  0  0  0  0  0  0  0  0  0  0
   13.6270   -2.1387   21.3662 H   0  0  0  0  0  0  0  0  0  0  0  0
   14.6922   -0.1335   22.3617 H   0  0  0  0  0  0  0  0  0  0  0  0
   14.4980    2.3059   22.8054 H   0  0  0  0  0  0  0  0  0  0  0  0
   13.5020    2.1792   24.2624 H   0  0  0  0  0  0  0  0  0  0  0  0
   12.9223    3.1018   22.8775 H   0  0  0  0  0  0  0  0  0  0  0  0
  1  2  1  0
  2  3  2  0
  3  4  1  0
  4  5  2  0
  5  6  1  0
  6  7  1  0
  7  8  2  0
  8  9  1  0
  9 10  1  0
 10 11  1  0
 11 12  2  0
 12 13  1  0
 13 14  2  0
 14 15  1  0
 15 16  2  0
 16 17  1  0
 14 18  1  0
 13 19  1  0
 12 20  1  0
 10 21  1  0
 10 22  1  0
  9 23  1  0
 23 24  1  0
 24 25  1  0
 25 26  1  0
 26 27  2  0
 27 28  1  0
 28 29  1  0
 29 30  1  0
 29 31  1  0
 29 32  1  0
 28 33  2  0
 33 34  1  0
 27 35  1  0
 25 36  1  0
 25 37  1  0
 24 38  1  0
 24 39  1  0
 23 40  2  0
  6 41  2  0
 41 42  1  0
  5 43  1  0
  4 44  1  0
  3 45  1  0
  1 46  1  0
  1 47  1  0
  1 48  1  0
 41  2  1  0
 40  7  1  0
 16 11  1  0
 34 26  1  0
M  END
>  <cnnaffinity>  (1) 
-6.30836

>  <filename>  (1) 
Cc1cccc(-c2nc(CCc3cc(C)no3)n(Cc3cccnc3)n2)c1

$$$$
