
     RDKit          3D

 44 47  0  0  0  0  0  0  0  0999 V2000
    7.4407    0.4844   24.9979 C   0  0  0  0  0  0  0  0  0  0  0  0
    7.8933    1.9199   24.9752 C   0  0  0  0  0  0  0  0  0  0  0  0
    8.3594    2.5189   26.1509 C   0  0  0  0  0  0  0  0  0  0  0  0
    8.8319    3.8292   26.1221 C   0  0  0  0  0  0  0  0  0  0  0  0
    8.8549    4.5759   25.0157 N   0  0  0  0  0  0  0  0  0  0  0  0
    8.3851    4.0111   23.8954 C   0  0  0  0  0  0  0  0  0  0  0  0
    7.8815    2.7058   23.8029 C   0  0  0  0  0  0  0  0  0  0  0  0
    7.4436    2.1297   22.4539 C   0  0  0  0  0  0  0  0  0  0  0  0
    8.3652    1.0479   21.9373 C   0  0  0  0  0  0  0  0  0  0  0  0
    9.6763    1.1386   21.9804 N   0  0  0  0  0  0  0  0  0  0  0  0
   10.1097   -0.0931   21.5675 C   0  0  0  0  0  0  0  0  0  0  0  0
   11.5641   -0.4783   21.6305 C   0  0  0  0  0  0  0  0  0  0  0  0
   12.4616    0.3124   22.2743 C   0  0  0  0  0  0  0  0  0  0  0  0
   14.8061   -1.3027   22.7134 C   0  0  0  0  0  0  0  0  0  0  0  0
   14.3606   -1.3696   21.4666 C   0  0  0  0  0  0  0  0  0  0  0  0
   13.1583   -2.0311   20.8808 C   0  0  0  0  0  0  0  0  0  0  0  0
   11.9326   -1.7115   21.0255 N   0  0  0  0  0  0  0  0  0  0  0  0
   13.4429   -2.7894   20.1620 H   0  0  0  0  0  0  0  0  0  0  0  0
   14.7084   -0.6129   20.7278 H   0  0  0  0  0  0  0  0  0  0  0  0
   13.5232   -0.0525   22.4679 H   0  0  0  0  0  0  0  0  0  0  0  0
   12.1251    1.2804   22.6378 H   0  0  0  0  0  0  0  0  0  0  0  0
    9.1201   -0.8936   21.1984 N   0  0  0  0  0  0  0  0  0  0  0  0
    8.0126   -0.1705   21.4491 N   0  0  0  0  0  0  0  0  0  0  0  0
    6.7157   -0.7087   21.0293 C   0  0  0  0  0  0  0  0  0  0  0  0
    6.1350    0.0298   19.8436 C   0  0  0  0  0  0  0  0  0  0  0  0
    4.9303    0.7373   19.8906 C   0  0  0  0  0  0  0  0  0  0  0  0
    4.5348    1.4659   18.7658 C   0  0  0  0  0  0  0  0  0  0  0  0
    5.3494    1.4437   17.6315 C   0  0  0  0  0  0  0  0  0  0  0  0
    6.4869    0.7364   17.5522 N   0  0  0  0  0  0  0  0  0  0  0  0
    6.8623    0.0587   18.6412 C   0  0  0  0  0  0  0  0  0  0  0  0
    7.7984   -0.4962   18.5660 H   0  0  0  0  0  0  0  0  0  0  0  0
    5.0804    2.0126   16.7434 H   0  0  0  0  0  0  0  0  0  0  0  0
    3.6297    2.0630   18.7600 H   0  0  0  0  0  0  0  0  0  0  0  0
    4.3222    0.7349   20.7985 H   0  0  0  0  0  0  0  0  0  0  0  0
    6.0272   -0.7002   21.8801 H   0  0  0  0  0  0  0  0  0  0  0  0
    6.9113   -1.7580   20.7807 H   0  0  0  0  0  0  0  0  0  0  0  0
    7.4286    2.9270   21.7048 H   0  0  0  0  0  0  0  0  0  0  0  0
    6.4196    1.7455   22.5013 H   0  0  0  0  0  0  0  0  0  0  0  0
    8.4252    4.6390   23.0035 H   0  0  0  0  0  0  0  0  0  0  0  0
    9.2077    4.3025   27.0266 H   0  0  0  0  0  0  0  0  0  0  0  0
    8.3600    1.9629   27.0816 H   0  0  0  0  0  0  0  0  0  0  0  0
    7.5834    0.0486   25.9888 H   0  0  0  0  0  0  0  0  0  0  0  0
    6.3793    0.3969   24.7470 H   0  0  0  0  0  0  0  0  0  0  0  0
    7.9979   -0.1351   24.2876 H   0  0  0  0  0  0  0  0  0  0  0  0
  1  2  1  0
  2  3  2  0
  3  4  1  0
  4  5  2  0
  5  6  1  0
  6  7  2  0
  7  8  1  0
  8  9  1  0
  9 10  2  0
 10 11  1  0
 11 12  1  0
 12 13  2  0
 13 14  1  0
 14 15  2  0
 15 16  1  0
 16 17  2  0
 16 18  1  0
 15 19  1  0
 14 20  1  0
 13 21  1  0
 11 22  2  0
 22 23  1  0
 23 24  1  0
 24 25  1  0
 25 26  2  0
 26 27  1  0
 27 28  2  0
 28 29  1  0
 29 30  2  0
 30 31  1  0
 28 32  1  0
 27 33  1  0
 26 34  1  0
 24 35  1  0
 24 36  1  0
  8 37  1  0
  8 38  1  0
  6 39  1  0
  4 40  1  0
  3 41  1  0
  1 42  1  0
  1 43  1  0
  1 44  1  0
  7  2  1  0
 23  9  1  0
 30 25  1  0
 17 12  1  0
M  END
>  <cnnaffinity>  (1) 
-6.46922

>  <filename>  (1) 
Cc1ccncc1Cc1nc(-c2ccccn2)nn1Cc1cccnc1

$$$$
