
     RDKit          3D

 47 50  0  0  0  0  0  0  0  0999 V2000
    7.2710    6.6477   23.2605 C   0  0  0  0  0  0  0  0  0  0  0  0
    7.6672    5.3258   23.8723 C   0  0  0  0  0  0  0  0  0  0  0  0
    7.6174    5.1424   25.2566 C   0  0  0  0  0  0  0  0  0  0  0  0
    8.0098    3.9218   25.8173 C   0  0  0  0  0  0  0  0  0  0  0  0
    8.4524    2.8793   25.0043 C   0  0  0  0  0  0  0  0  0  0  0  0
    8.5089    3.0557   23.6067 C   0  0  0  0  0  0  0  0  0  0  0  0
    8.9671    1.9891   22.8909 O   0  0  0  0  0  0  0  0  0  0  0  0
    9.0377    2.0197   21.4676 C   0  0  0  0  0  0  0  0  0  0  0  0
    9.5147    0.6437   20.9961 C   0  0  0  0  0  0  0  0  0  0  0  0
    8.6310   -0.4565   21.4458 C   0  0  0  0  0  0  0  0  0  0  0  0
    8.8782   -1.2994   22.4267 N   0  0  0  0  0  0  0  0  0  0  0  0
    7.7008   -1.9575   22.5613 C   0  0  0  0  0  0  0  0  0  0  0  0
    7.4541   -2.9516   23.6440 C   0  0  0  0  0  0  0  0  0  0  0  0
    6.7450   -4.2666   23.2021 C   0  0  0  0  0  0  0  0  0  0  0  0
    5.5397   -3.9126   24.1058 C   0  0  0  0  0  0  0  0  0  0  0  0
    6.2534   -2.6296   24.5925 C   0  0  0  0  0  0  0  0  0  0  0  0
    5.7483   -1.6880   24.3583 H   0  0  0  0  0  0  0  0  0  0  0  0
    6.4989   -2.6015   25.6574 H   0  0  0  0  0  0  0  0  0  0  0  0
    5.3169   -4.6418   24.8897 H   0  0  0  0  0  0  0  0  0  0  0  0
    4.6098   -3.7281   23.5598 H   0  0  0  0  0  0  0  0  0  0  0  0
    7.2783   -5.1817   23.4718 H   0  0  0  0  0  0  0  0  0  0  0  0
    6.5282   -4.3092   22.1296 H   0  0  0  0  0  0  0  0  0  0  0  0
    8.4041   -3.0917   24.1606 H   0  0  0  0  0  0  0  0  0  0  0  0
    6.7660   -1.6097   21.6949 N   0  0  0  0  0  0  0  0  0  0  0  0
    7.3745   -0.6546   20.9497 N   0  0  0  0  0  0  0  0  0  0  0  0
    6.6626    0.0095   19.9062 C   0  0  0  0  0  0  0  0  0  0  0  0
    5.4404    0.6395   20.1692 C   0  0  0  0  0  0  0  0  0  0  0  0
    4.8133    1.3077   19.1112 C   0  0  0  0  0  0  0  0  0  0  0  0
    5.4012    1.2958   17.8390 C   0  0  0  0  0  0  0  0  0  0  0  0
    6.5601    0.6724   17.5778 N   0  0  0  0  0  0  0  0  0  0  0  0
    7.1695    0.0529   18.5949 C   0  0  0  0  0  0  0  0  0  0  0  0
    8.1121   -0.4359   18.3648 H   0  0  0  0  0  0  0  0  0  0  0  0
    4.9214    1.7863   16.9941 H   0  0  0  0  0  0  0  0  0  0  0  0
    3.8809    1.8384   19.2602 H   0  0  0  0  0  0  0  0  0  0  0  0
    5.0141    0.6078   21.1763 H   0  0  0  0  0  0  0  0  0  0  0  0
    9.5704    0.6419   19.9067 H   0  0  0  0  0  0  0  0  0  0  0  0
   10.5126    0.4248   21.3743 H   0  0  0  0  0  0  0  0  0  0  0  0
    8.0547    2.2424   21.0281 H   0  0  0  0  0  0  0  0  0  0  0  0
    9.7529    2.7816   21.1342 H   0  0  0  0  0  0  0  0  0  0  0  0
    8.1164    4.2788   23.0498 C   0  0  0  0  0  0  0  0  0  0  0  0
    8.1682    4.4264   21.9742 H   0  0  0  0  0  0  0  0  0  0  0  0
    8.7568    1.9294   25.4318 H   0  0  0  0  0  0  0  0  0  0  0  0
    7.9661    3.7935   26.8961 H   0  0  0  0  0  0  0  0  0  0  0  0
    7.2714    5.9589   25.8884 H   0  0  0  0  0  0  0  0  0  0  0  0
    6.8518    6.5220   22.2580 H   0  0  0  0  0  0  0  0  0  0  0  0
    8.1357    7.3129   23.1679 H   0  0  0  0  0  0  0  0  0  0  0  0
    6.5278    7.1746   23.8663 H   0  0  0  0  0  0  0  0  0  0  0  0
  1  2  1  0
  2  3  2  0
  3  4  1  0
  4  5  2  0
  5  6  1  0
  6  7  1  0
  7  8  1  0
  8  9  1  0
  9 10  1  0
 10 11  2  0
 11 12  1  0
 12 13  1  0
 13 14  1  0
 14 15  1  0
 15 16  1  0
 16 17  1  0
 16 18  1  0
 15 19  1  0
 15 20  1  0
 14 21  1  0
 14 22  1  0
 13 23  1  0
 12 24  2  0
 24 25  1  0
 25 26  1  0
 26 27  2  0
 27 28  1  0
 28 29  2  0
 29 30  1  0
 30 31  2  0
 31 32  1  0
 29 33  1  0
 28 34  1  0
 27 35  1  0
  9 36  1  0
  9 37  1  0
  8 38  1  0
  8 39  1  0
  6 40  2  0
 40 41  1  0
  5 42  1  0
  4 43  1  0
  3 44  1  0
  1 45  1  0
  1 46  1  0
  1 47  1  0
 40  2  1  0
 25 10  1  0
 31 26  1  0
 16 13  1  0
M  END
>  <cnnaffinity>  (1) 
-6.3746

>  <filename>  (1) 
Cc1cccc(OCCc2nc(C3CCC3)nn2-c2cccnc2)c1

$$$$
