
     RDKit          3D

 41 43  0  0  0  0  0  0  0  0999 V2000
    8.2774    2.7447   22.0700 C   0  0  0  0  0  0  0  0  0  0  0  0
    9.6380    2.2816   22.5099 C   0  0  0  0  0  0  0  0  0  0  0  0
   10.2894    2.9200   23.5644 C   0  0  0  0  0  0  0  0  0  0  0  0
   11.5350    2.4564   23.9817 C   0  0  0  0  0  0  0  0  0  0  0  0
   12.1649    1.4158   23.4386 N   0  0  0  0  0  0  0  0  0  0  0  0
   11.5407    0.8168   22.4192 C   0  0  0  0  0  0  0  0  0  0  0  0
   10.3026    1.2022   21.8968 C   0  0  0  0  0  0  0  0  0  0  0  0
    9.6212    0.3776   20.8215 C   0  0  0  0  0  0  0  0  0  0  0  0
    8.6052   -0.5723   21.3657 C   0  0  0  0  0  0  0  0  0  0  0  0
    8.8485   -1.4399   22.3251 N   0  0  0  0  0  0  0  0  0  0  0  0
    7.6390   -2.0244   22.5206 C   0  0  0  0  0  0  0  0  0  0  0  0
    7.4221   -3.0348   23.6104 C   0  0  0  0  0  0  0  0  0  0  0  0
    8.3620   -4.2438   23.4473 C   0  0  0  0  0  0  0  0  0  0  0  0
    9.4110   -3.9427   23.5573 H   0  0  0  0  0  0  0  0  0  0  0  0
    8.2468   -4.7092   22.4629 H   0  0  0  0  0  0  0  0  0  0  0  0
    8.1421   -5.0000   24.2089 H   0  0  0  0  0  0  0  0  0  0  0  0
    7.5800   -2.3939   25.0057 C   0  0  0  0  0  0  0  0  0  0  0  0
    8.6052   -2.0327   25.1545 H   0  0  0  0  0  0  0  0  0  0  0  0
    7.3582   -3.1266   25.7894 H   0  0  0  0  0  0  0  0  0  0  0  0
    6.9012   -1.5440   25.1359 H   0  0  0  0  0  0  0  0  0  0  0  0
    6.3864   -3.3628   23.4879 H   0  0  0  0  0  0  0  0  0  0  0  0
    6.6845   -1.6085   21.7126 N   0  0  0  0  0  0  0  0  0  0  0  0
    7.3222   -0.6978   20.9294 N   0  0  0  0  0  0  0  0  0  0  0  0
    6.6403   -0.0054   19.8956 C   0  0  0  0  0  0  0  0  0  0  0  0
    5.4336    0.6463   20.1633 C   0  0  0  0  0  0  0  0  0  0  0  0
    4.8111    1.3152   19.1074 C   0  0  0  0  0  0  0  0  0  0  0  0
    5.3985    1.2976   17.8368 C   0  0  0  0  0  0  0  0  0  0  0  0
    6.5558    0.6716   17.5737 N   0  0  0  0  0  0  0  0  0  0  0  0
    7.1610    0.0449   18.5893 C   0  0  0  0  0  0  0  0  0  0  0  0
    8.1125   -0.4335   18.3648 H   0  0  0  0  0  0  0  0  0  0  0  0
    4.9199    1.7874   16.9932 H   0  0  0  0  0  0  0  0  0  0  0  0
    3.8797    1.8418   19.2600 H   0  0  0  0  0  0  0  0  0  0  0  0
    5.0136    0.6096   21.1719 H   0  0  0  0  0  0  0  0  0  0  0  0
    9.1589    1.0344   20.0824 H   0  0  0  0  0  0  0  0  0  0  0  0
   10.3359   -0.2731   20.3164 H   0  0  0  0  0  0  0  0  0  0  0  0
   12.0443   -0.0491   21.9899 H   0  0  0  0  0  0  0  0  0  0  0  0
   12.0466    2.9506   24.7984 H   0  0  0  0  0  0  0  0  0  0  0  0
    9.8269    3.7691   24.0502 H   0  0  0  0  0  0  0  0  0  0  0  0
    7.5267    1.9486   22.1390 H   0  0  0  0  0  0  0  0  0  0  0  0
    8.3126    3.0596   21.0277 H   0  0  0  0  0  0  0  0  0  0  0  0
    7.9339    3.5925   22.6669 H   0  0  0  0  0  0  0  0  0  0  0  0
  1  2  1  0
  2  3  2  0
  3  4  1  0
  4  5  2  0
  5  6  1  0
  6  7  2  0
  7  8  1  0
  8  9  1  0
  9 10  2  0
 10 11  1  0
 11 12  1  0
 12 13  1  0
 13 14  1  0
 13 15  1  0
 13 16  1  0
 12 17  1  0
 17 18  1  0
 17 19  1  0
 17 20  1  0
 12 21  1  0
 11 22  2  0
 22 23  1  0
 23 24  1  0
 24 25  2  0
 25 26  1  0
 26 27  2  0
 27 28  1  0
 28 29  2  0
 29 30  1  0
 27 31  1  0
 26 32  1  0
 25 33  1  0
  8 34  1  0
  8 35  1  0
  6 36  1  0
  4 37  1  0
  3 38  1  0
  1 39  1  0
  1 40  1  0
  1 41  1  0
  7  2  1  0
 23  9  1  0
 29 24  1  0
M  END
>  <cnnaffinity>  (1) 
-5.8538

>  <filename>  (1) 
Cc1ccncc1Cc1nc(C(C)C)nn1-c1cccnc1

$$$$
