
     RDKit          3D

 52 55  0  0  0  0  0  0  0  0999 V2000
    9.2368    1.9884   26.1729 C   0  0  0  0  0  0  0  0  0  0  0  0
    8.7871    2.0484   24.7577 C   0  0  0  0  0  0  0  0  0  0  0  0
    7.5130    1.8626   24.4144 N   0  0  0  0  0  0  0  0  0  0  0  0
    7.5220    1.9230   23.0733 N   0  0  0  0  0  0  0  0  0  0  0  0
    8.7543    2.1164   22.5427 C   0  0  0  0  0  0  0  0  0  0  0  0
    9.0120    1.9345   21.0808 C   0  0  0  0  0  0  0  0  0  0  0  0
    9.5212    0.5070   20.7403 C   0  0  0  0  0  0  0  0  0  0  0  0
    8.6338   -0.5804   21.2719 C   0  0  0  0  0  0  0  0  0  0  0  0
    8.8721   -1.3803   22.2963 N   0  0  0  0  0  0  0  0  0  0  0  0
    7.6605   -1.9567   22.5341 C   0  0  0  0  0  0  0  0  0  0  0  0
    7.4107   -2.8794   23.7048 C   0  0  0  0  0  0  0  0  0  0  0  0
    6.8232   -4.2557   23.2627 C   0  0  0  0  0  0  0  0  0  0  0  0
    6.0226   -4.9809   24.3689 C   0  0  0  0  0  0  0  0  0  0  0  0
    6.4873   -4.6280   25.7908 C   0  0  0  0  0  0  0  0  0  0  0  0
    5.7446   -5.4484   26.8485 C   0  0  0  0  0  0  0  0  0  0  0  0
    5.9034   -6.5226   26.7014 H   0  0  0  0  0  0  0  0  0  0  0  0
    6.0791   -5.1947   27.8607 H   0  0  0  0  0  0  0  0  0  0  0  0
    4.6633   -5.2649   26.8007 H   0  0  0  0  0  0  0  0  0  0  0  0
    6.3232   -3.1070   26.0383 C   0  0  0  0  0  0  0  0  0  0  0  0
    6.5099   -2.2207   24.7830 C   0  0  0  0  0  0  0  0  0  0  0  0
    5.5312   -2.0207   24.3301 H   0  0  0  0  0  0  0  0  0  0  0  0
    6.9211   -1.2486   25.0798 H   0  0  0  0  0  0  0  0  0  0  0  0
    5.3157   -2.9127   26.4342 H   0  0  0  0  0  0  0  0  0  0  0  0
    7.0229   -2.7993   26.8273 H   0  0  0  0  0  0  0  0  0  0  0  0
    7.5576   -4.8785   25.8731 H   0  0  0  0  0  0  0  0  0  0  0  0
    4.9581   -4.7110   24.2865 H   0  0  0  0  0  0  0  0  0  0  0  0
    6.0762   -6.0658   24.2113 H   0  0  0  0  0  0  0  0  0  0  0  0
    7.6564   -4.8918   22.9381 H   0  0  0  0  0  0  0  0  0  0  0  0
    6.1711   -4.1192   22.3905 H   0  0  0  0  0  0  0  0  0  0  0  0
    8.3999   -3.0473   24.1524 H   0  0  0  0  0  0  0  0  0  0  0  0
    6.7026   -1.5892   21.6970 N   0  0  0  0  0  0  0  0  0  0  0  0
    7.3380   -0.7223   20.8651 N   0  0  0  0  0  0  0  0  0  0  0  0
    6.6271   -0.0538   19.8305 C   0  0  0  0  0  0  0  0  0  0  0  0
    5.4186    0.5977   20.1042 C   0  0  0  0  0  0  0  0  0  0  0  0
    4.8055    1.3161   19.0714 C   0  0  0  0  0  0  0  0  0  0  0  0
    5.4044    1.3327   17.8060 C   0  0  0  0  0  0  0  0  0  0  0  0
    6.5391    0.6746   17.5227 N   0  0  0  0  0  0  0  0  0  0  0  0
    7.1259   -0.0055   18.5160 C   0  0  0  0  0  0  0  0  0  0  0  0
    8.0378   -0.5454   18.2620 H   0  0  0  0  0  0  0  0  0  0  0  0
    4.9490    1.8811   16.9845 H   0  0  0  0  0  0  0  0  0  0  0  0
    3.8791    1.8568   19.2382 H   0  0  0  0  0  0  0  0  0  0  0  0
    4.9693    0.5204   21.0945 H   0  0  0  0  0  0  0  0  0  0  0  0
    9.5872    0.4131   19.6579 H   0  0  0  0  0  0  0  0  0  0  0  0
   10.5194    0.3538   21.1579 H   0  0  0  0  0  0  0  0  0  0  0  0
    8.0870    2.1412   20.5308 H   0  0  0  0  0  0  0  0  0  0  0  0
    9.7559    2.6724   20.7779 H   0  0  0  0  0  0  0  0  0  0  0  0
    9.6007    2.2425   23.6254 C   0  0  0  0  0  0  0  0  0  0  0  0
   10.6668    2.4308   23.6298 H   0  0  0  0  0  0  0  0  0  0  0  0
    6.6881    1.6798   22.5571 H   0  0  0  0  0  0  0  0  0  0  0  0
    8.6955    1.2159   26.7242 H   0  0  0  0  0  0  0  0  0  0  0  0
   10.2971    1.7402   26.2030 H   0  0  0  0  0  0  0  0  0  0  0  0
    9.1027    2.9482   26.6762 H   0  0  0  0  0  0  0  0  0  0  0  0
  1  2  1  0
  2  3  2  0
  3  4  1  0
  4  5  1  0
  5  6  1  0
  6  7  1  0
  7  8  1  0
  8  9  2  0
  9 10  1  0
 10 11  1  0
 11 12  1  0
 12 13  1  0
 13 14  1  0
 14 15  1  0
 15 16  1  0
 15 17  1  0
 15 18  1  0
 14 19  1  0
 19 20  1  0
 20 21  1  0
 20 22  1  0
 19 23  1  0
 19 24  1  0
 14 25  1  0
 13 26  1  0
 13 27  1  0
 12 28  1  0
 12 29  1  0
 11 30  1  0
 10 31  2  0
 31 32  1  0
 32 33  1  0
 33 34  2  0
 34 35  1  0
 35 36  2  0
 36 37  1  0
 37 38  2  0
 38 39  1  0
 36 40  1  0
 35 41  1  0
 34 42  1  0
  7 43  1  0
  7 44  1  0
  6 45  1  0
  6 46  1  0
  5 47  2  0
 47 48  1  0
  4 49  1  0
  1 50  1  0
  1 51  1  0
  1 52  1  0
 47  2  1  0
 32  8  1  0
 38 33  1  0
 20 11  1  0
M  END
>  <cnnaffinity>  (1) 
-6.17415

>  <filename>  (1) 
Cc1cc(CCc2nc(C3CCC(C)CC3)nn2-c2cccnc2)[nH]n1

$$$$
