
     RDKit          3D

 47 49  0  0  0  0  0  0  0  0999 V2000
    8.1508    2.6808   22.0986 C   0  0  0  0  0  0  0  0  0  0  0  0
    9.5309    2.2738   22.5545 C   0  0  0  0  0  0  0  0  0  0  0  0
   10.1631    2.9581   23.5964 C   0  0  0  0  0  0  0  0  0  0  0  0
   11.4399    2.5621   24.0080 C   0  0  0  0  0  0  0  0  0  0  0  0
   12.0547    1.4981   23.3509 C   0  0  0  0  0  0  0  0  0  0  0  0
   11.4730    0.8352   22.3412 N   0  0  0  0  0  0  0  0  0  0  0  0
   10.2479    1.2004   21.9656 C   0  0  0  0  0  0  0  0  0  0  0  0
    9.6427    0.3779   20.8649 C   0  0  0  0  0  0  0  0  0  0  0  0
    8.6152   -0.5330   21.4089 C   0  0  0  0  0  0  0  0  0  0  0  0
    8.8392   -1.3769   22.3887 N   0  0  0  0  0  0  0  0  0  0  0  0
    7.6485   -2.0107   22.5273 C   0  0  0  0  0  0  0  0  0  0  0  0
    7.4519   -3.1042   23.5145 C   0  0  0  0  0  0  0  0  0  0  0  0
    7.7623   -4.4955   22.9218 C   0  0  0  0  0  0  0  0  0  0  0  0
    7.5532   -5.6838   23.8848 C   0  0  0  0  0  0  0  0  0  0  0  0
    6.0814   -5.7974   24.3360 C   0  0  0  0  0  0  0  0  0  0  0  0
    5.8713   -6.7000   24.9235 H   0  0  0  0  0  0  0  0  0  0  0  0
    5.8033   -4.9487   24.9752 H   0  0  0  0  0  0  0  0  0  0  0  0
    5.4028   -5.8027   23.4721 H   0  0  0  0  0  0  0  0  0  0  0  0
    8.5127   -5.6384   25.0870 C   0  0  0  0  0  0  0  0  0  0  0  0
    9.5560   -5.4908   24.7728 H   0  0  0  0  0  0  0  0  0  0  0  0
    8.4676   -6.5702   25.6645 H   0  0  0  0  0  0  0  0  0  0  0  0
    8.2561   -4.8171   25.7697 H   0  0  0  0  0  0  0  0  0  0  0  0
    7.8100   -6.5757   23.2920 H   0  0  0  0  0  0  0  0  0  0  0  0
    7.1307   -4.6476   22.0317 H   0  0  0  0  0  0  0  0  0  0  0  0
    8.8059   -4.5009   22.5677 H   0  0  0  0  0  0  0  0  0  0  0  0
    8.1139   -2.8886   24.3625 H   0  0  0  0  0  0  0  0  0  0  0  0
    6.4137   -3.0508   23.8608 H   0  0  0  0  0  0  0  0  0  0  0  0
    6.7062   -1.6188   21.6896 N   0  0  0  0  0  0  0  0  0  0  0  0
    7.3387   -0.6767   20.9456 N   0  0  0  0  0  0  0  0  0  0  0  0
    6.6492   -0.0049   19.8963 C   0  0  0  0  0  0  0  0  0  0  0  0
    5.4375    0.6390   20.1568 C   0  0  0  0  0  0  0  0  0  0  0  0
    4.8075    1.3116   19.1058 C   0  0  0  0  0  0  0  0  0  0  0  0
    5.3945    1.2958   17.8353 C   0  0  0  0  0  0  0  0  0  0  0  0
    6.5458    0.6606   17.5712 N   0  0  0  0  0  0  0  0  0  0  0  0
    7.1567    0.0324   18.5845 C   0  0  0  0  0  0  0  0  0  0  0  0
    8.1046   -0.4483   18.3498 H   0  0  0  0  0  0  0  0  0  0  0  0
    4.9293    1.8037   16.9939 H   0  0  0  0  0  0  0  0  0  0  0  0
    3.8767    1.8452   19.2570 H   0  0  0  0  0  0  0  0  0  0  0  0
    5.0176    0.6031   21.1640 H   0  0  0  0  0  0  0  0  0  0  0  0
   10.4206   -0.2636   20.4515 H   0  0  0  0  0  0  0  0  0  0  0  0
    9.2044    1.0195   20.1031 H   0  0  0  0  0  0  0  0  0  0  0  0
   13.0448    1.1436   23.6410 H   0  0  0  0  0  0  0  0  0  0  0  0
   11.9565    3.0619   24.8154 H   0  0  0  0  0  0  0  0  0  0  0  0
    9.6408    3.7933   24.0717 H   0  0  0  0  0  0  0  0  0  0  0  0
    8.1451    2.9208   21.0332 H   0  0  0  0  0  0  0  0  0  0  0  0
    7.4204    1.8767   22.2464 H   0  0  0  0  0  0  0  0  0  0  0  0
    7.8092    3.5602   22.6489 H   0  0  0  0  0  0  0  0  0  0  0  0
  1  2  1  0
  2  3  2  0
  3  4  1  0
  4  5  2  0
  5  6  1  0
  6  7  2  0
  7  8  1  0
  8  9  1  0
  9 10  2  0
 10 11  1  0
 11 12  1  0
 12 13  1  0
 13 14  1  0
 14 15  1  0
 15 16  1  0
 15 17  1  0
 15 18  1  0
 14 19  1  0
 19 20  1  0
 19 21  1  0
 19 22  1  0
 14 23  1  0
 13 24  1  0
 13 25  1  0
 12 26  1  0
 12 27  1  0
 11 28  2  0
 28 29  1  0
 29 30  1  0
 30 31  2  0
 31 32  1  0
 32 33  2  0
 33 34  1  0
 34 35  2  0
 35 36  1  0
 33 37  1  0
 32 38  1  0
 31 39  1  0
  8 40  1  0
  8 41  1  0
  5 42  1  0
  4 43  1  0
  3 44  1  0
  1 45  1  0
  1 46  1  0
  1 47  1  0
  7  2  1  0
 29  9  1  0
 35 30  1  0
M  END
>  <cnnaffinity>  (1) 
-6.15913

>  <filename>  (1) 
Cc1cccnc1Cc1nc(CCC(C)C)nn1-c1cccnc1

$$$$
