
     RDKit          3D

 47 49  0  0  0  0  0  0  0  0999 V2000
    9.6373    2.2746   21.1150 C   0  0  0  0  0  0  0  0  0  0  0  0
    9.7435    2.2311   22.6136 C   0  0  0  0  0  0  0  0  0  0  0  0
   10.9184    2.6518   23.2566 C   0  0  0  0  0  0  0  0  0  0  0  0
   11.1488    2.5382   24.5683 N   0  0  0  0  0  0  0  0  0  0  0  0
   10.1759    1.9931   25.3090 C   0  0  0  0  0  0  0  0  0  0  0  0
    8.9396    1.6062   24.7928 C   0  0  0  0  0  0  0  0  0  0  0  0
    8.7054    1.7385   23.4233 C   0  0  0  0  0  0  0  0  0  0  0  0
    7.4177    1.2231   22.8099 C   0  0  0  0  0  0  0  0  0  0  0  0
    7.5981   -0.1484   22.2271 C   0  0  0  0  0  0  0  0  0  0  0  0
    8.1226   -1.1594   22.8925 N   0  0  0  0  0  0  0  0  0  0  0  0
    8.1799   -2.1537   21.9703 C   0  0  0  0  0  0  0  0  0  0  0  0
    8.6150   -3.5411   22.3128 C   0  0  0  0  0  0  0  0  0  0  0  0
    7.6013   -4.2688   23.2232 C   0  0  0  0  0  0  0  0  0  0  0  0
    8.0258   -5.6588   23.7407 C   0  0  0  0  0  0  0  0  0  0  0  0
    9.1977   -5.6171   24.7353 C   0  0  0  0  0  0  0  0  0  0  0  0
    8.8662   -5.2927   25.7281 H   0  0  0  0  0  0  0  0  0  0  0  0
    9.9911   -4.9329   24.4128 H   0  0  0  0  0  0  0  0  0  0  0  0
    9.6506   -6.6094   24.8498 H   0  0  0  0  0  0  0  0  0  0  0  0
    8.2978   -6.6185   22.5854 C   0  0  0  0  0  0  0  0  0  0  0  0
    7.4347   -6.6656   21.9157 H   0  0  0  0  0  0  0  0  0  0  0  0
    8.4833   -7.6405   22.9214 H   0  0  0  0  0  0  0  0  0  0  0  0
    9.1713   -6.3090   22.0047 H   0  0  0  0  0  0  0  0  0  0  0  0
    7.1561   -6.0470   24.2894 H   0  0  0  0  0  0  0  0  0  0  0  0
    6.6536   -4.3719   22.6692 H   0  0  0  0  0  0  0  0  0  0  0  0
    7.3952   -3.6265   24.0882 H   0  0  0  0  0  0  0  0  0  0  0  0
    8.7277   -4.0687   21.3638 H   0  0  0  0  0  0  0  0  0  0  0  0
    9.5966   -3.4913   22.8018 H   0  0  0  0  0  0  0  0  0  0  0  0
    7.7326   -1.8232   20.7766 N   0  0  0  0  0  0  0  0  0  0  0  0
    7.3063   -0.5462   20.9470 N   0  0  0  0  0  0  0  0  0  0  0  0
    6.6030    0.0922   19.8896 C   0  0  0  0  0  0  0  0  0  0  0  0
    5.3842    0.7519   20.0955 C   0  0  0  0  0  0  0  0  0  0  0  0
    4.7834    1.3795   18.9989 C   0  0  0  0  0  0  0  0  0  0  0  0
    5.4181    1.3265   17.7548 C   0  0  0  0  0  0  0  0  0  0  0  0
    6.5625    0.6529   17.5435 N   0  0  0  0  0  0  0  0  0  0  0  0
    7.1243    0.0294   18.5831 C   0  0  0  0  0  0  0  0  0  0  0  0
    8.0237   -0.5497   18.3805 H   0  0  0  0  0  0  0  0  0  0  0  0
    4.9804    1.8173   16.8886 H   0  0  0  0  0  0  0  0  0  0  0  0
    3.8418    1.9060   19.1014 H   0  0  0  0  0  0  0  0  0  0  0  0
    4.9188    0.7562   21.0821 H   0  0  0  0  0  0  0  0  0  0  0  0
    6.6551    1.1561   23.5895 H   0  0  0  0  0  0  0  0  0  0  0  0
    7.0504    1.9151   22.0482 H   0  0  0  0  0  0  0  0  0  0  0  0
    8.1799    1.2027   25.4553 H   0  0  0  0  0  0  0  0  0  0  0  0
   10.3906    1.8693   26.3644 H   0  0  0  0  0  0  0  0  0  0  0  0
   11.7196    3.1006   22.6648 H   0  0  0  0  0  0  0  0  0  0  0  0
   10.5875    2.5771   20.6675 H   0  0  0  0  0  0  0  0  0  0  0  0
    9.3721    1.2920   20.7068 H   0  0  0  0  0  0  0  0  0  0  0  0
    8.8670    2.9758   20.7760 H   0  0  0  0  0  0  0  0  0  0  0  0
  1  2  1  0
  2  3  2  0
  3  4  1  0
  4  5  2  0
  5  6  1  0
  6  7  2  0
  7  8  1  0
  8  9  1  0
  9 10  2  0
 10 11  1  0
 11 12  1  0
 12 13  1  0
 13 14  1  0
 14 15  1  0
 15 16  1  0
 15 17  1  0
 15 18  1  0
 14 19  1  0
 19 20  1  0
 19 21  1  0
 19 22  1  0
 14 23  1  0
 13 24  1  0
 13 25  1  0
 12 26  1  0
 12 27  1  0
 11 28  2  0
 28 29  1  0
 29 30  1  0
 30 31  2  0
 31 32  1  0
 32 33  2  0
 33 34  1  0
 34 35  2  0
 35 36  1  0
 33 37  1  0
 32 38  1  0
 31 39  1  0
  8 40  1  0
  8 41  1  0
  6 42  1  0
  5 43  1  0
  3 44  1  0
  1 45  1  0
  1 46  1  0
  1 47  1  0
  7  2  1  0
 29  9  1  0
 35 30  1  0
M  END
>  <cnnaffinity>  (1) 
-5.86803

>  <filename>  (1) 
Cc1cnccc1Cc1nc(CCC(C)C)nn1-c1cccnc1

$$$$
