
     RDKit          3D

 42 45  0  0  0  0  0  0  0  0999 V2000
    4.8751   -0.7713   26.3980 C   0  0  0  0  0  0  0  0  0  0  0  0
    5.8684    0.2493   25.9367 C   0  0  0  0  0  0  0  0  0  0  0  0
    6.8236    0.6614   26.7307 N   0  0  0  0  0  0  0  0  0  0  0  0
    7.7888    1.7529   25.9295 S   0  0  0  0  0  0  0  0  0  0  0  0
    6.9417    1.6342   24.4295 C   0  0  0  0  0  0  0  0  0  0  0  0
    7.4938    2.0711   23.0872 C   0  0  0  0  0  0  0  0  0  0  0  0
    8.4000    1.0035   22.5295 C   0  0  0  0  0  0  0  0  0  0  0  0
    9.7112    0.9954   22.6697 N   0  0  0  0  0  0  0  0  0  0  0  0
   10.0735   -0.2338   22.2252 C   0  0  0  0  0  0  0  0  0  0  0  0
   11.4685   -0.6746   22.0040 C   0  0  0  0  0  0  0  0  0  0  0  0
   11.6544   -1.7572   21.1313 C   0  0  0  0  0  0  0  0  0  0  0  0
   12.8955   -2.0189   20.5689 C   0  0  0  0  0  0  0  0  0  0  0  0
   13.9729   -1.2415   20.9515 C   0  0  0  0  0  0  0  0  0  0  0  0
   15.0706   -1.3693   20.2022 F   0  0  0  0  0  0  0  0  0  0  0  0
   13.8743   -0.2659   21.9477 C   0  0  0  0  0  0  0  0  0  0  0  0
   12.6057    0.0266   22.4608 C   0  0  0  0  0  0  0  0  0  0  0  0
   12.5032    0.8447   23.1690 H   0  0  0  0  0  0  0  0  0  0  0  0
   14.7384    0.3354   22.2154 H   0  0  0  0  0  0  0  0  0  0  0  0
   13.0591   -2.7649   19.7978 H   0  0  0  0  0  0  0  0  0  0  0  0
   10.7769   -2.3180   20.8203 H   0  0  0  0  0  0  0  0  0  0  0  0
    9.0477   -0.9723   21.8169 N   0  0  0  0  0  0  0  0  0  0  0  0
    7.9785   -0.1695   21.9957 N   0  0  0  0  0  0  0  0  0  0  0  0
    6.6915   -0.5567   21.4132 C   0  0  0  0  0  0  0  0  0  0  0  0
    6.3052    0.2075   20.1601 C   0  0  0  0  0  0  0  0  0  0  0  0
    5.0982    0.9058   20.0361 C   0  0  0  0  0  0  0  0  0  0  0  0
    4.7916    1.5169   18.8158 C   0  0  0  0  0  0  0  0  0  0  0  0
    5.7122    1.4179   17.7688 C   0  0  0  0  0  0  0  0  0  0  0  0
    6.8803    0.7668   17.8724 N   0  0  0  0  0  0  0  0  0  0  0  0
    7.1645    0.1924   19.0475 C   0  0  0  0  0  0  0  0  0  0  0  0
    8.1267   -0.3146   19.1175 H   0  0  0  0  0  0  0  0  0  0  0  0
    5.5123    1.8885   16.8063 H   0  0  0  0  0  0  0  0  0  0  0  0
    3.8790    2.0861   18.6725 H   0  0  0  0  0  0  0  0  0  0  0  0
    4.4075    0.9905   20.8793 H   0  0  0  0  0  0  0  0  0  0  0  0
    5.9287   -0.4289   22.1794 H   0  0  0  0  0  0  0  0  0  0  0  0
    6.7728   -1.6296   21.2039 H   0  0  0  0  0  0  0  0  0  0  0  0
    8.0827    2.9861   23.1668 H   0  0  0  0  0  0  0  0  0  0  0  0
    6.6628    2.2720   22.4012 H   0  0  0  0  0  0  0  0  0  0  0  0
    5.8592    0.8305   24.6310 C   0  0  0  0  0  0  0  0  0  0  0  0
    5.0773    0.6529   23.9026 H   0  0  0  0  0  0  0  0  0  0  0  0
    3.9651   -0.2798   26.7541 H   0  0  0  0  0  0  0  0  0  0  0  0
    5.2821   -1.3801   27.2091 H   0  0  0  0  0  0  0  0  0  0  0  0
    4.5916   -1.4272   25.5681 H   0  0  0  0  0  0  0  0  0  0  0  0
  1  2  1  0
  2  3  2  0
  3  4  1  0
  4  5  1  0
  5  6  1  0
  6  7  1  0
  7  8  2  0
  8  9  1  0
  9 10  1  0
 10 11  2  0
 11 12  1  0
 12 13  2  0
 13 14  1  0
 13 15  1  0
 15 16  2  0
 16 17  1  0
 15 18  1  0
 12 19  1  0
 11 20  1  0
  9 21  2  0
 21 22  1  0
 22 23  1  0
 23 24  1  0
 24 25  2  0
 25 26  1  0
 26 27  2  0
 27 28  1  0
 28 29  2  0
 29 30  1  0
 27 31  1  0
 26 32  1  0
 25 33  1  0
 23 34  1  0
 23 35  1  0
  6 36  1  0
  6 37  1  0
  5 38  2  0
 38 39  1  0
  1 40  1  0
  1 41  1  0
  1 42  1  0
 38  2  1  0
 22  7  1  0
 29 24  1  0
 16 10  1  0
M  END
>  <cnnaffinity>  (1) 
-6.53034

>  <filename>  (1) 
Cc1cc(Cc2nc(-c3ccc(F)cc3)nn2Cc2cccnc2)sn1

$$$$
