
     RDKit          3D

 42 45  0  0  0  0  0  0  0  0999 V2000
    8.3205    2.7622   22.0540 C   0  0  0  0  0  0  0  0  0  0  0  0
    9.6718    2.2616   22.4958 C   0  0  0  0  0  0  0  0  0  0  0  0
   10.3636    2.8805   23.5450 C   0  0  0  0  0  0  0  0  0  0  0  0
   11.5548    2.4945   24.0195 N   0  0  0  0  0  0  0  0  0  0  0  0
   12.1161    1.4302   23.4369 C   0  0  0  0  0  0  0  0  0  0  0  0
   11.5325    0.7392   22.3773 C   0  0  0  0  0  0  0  0  0  0  0  0
   10.3072    1.1706   21.8791 C   0  0  0  0  0  0  0  0  0  0  0  0
    9.6226    0.3758   20.7998 C   0  0  0  0  0  0  0  0  0  0  0  0
    8.6217   -0.5714   21.3618 C   0  0  0  0  0  0  0  0  0  0  0  0
    8.8644   -1.4294   22.3244 N   0  0  0  0  0  0  0  0  0  0  0  0
    7.6585   -2.0210   22.5252 C   0  0  0  0  0  0  0  0  0  0  0  0
    7.4306   -3.0431   23.5813 C   0  0  0  0  0  0  0  0  0  0  0  0
    8.4793   -3.4414   24.4366 C   0  0  0  0  0  0  0  0  0  0  0  0
    8.2190   -4.4005   25.4106 C   0  0  0  0  0  0  0  0  0  0  0  0
    9.2110   -4.7817   26.2238 F   0  0  0  0  0  0  0  0  0  0  0  0
    6.9704   -4.9903   25.5848 C   0  0  0  0  0  0  0  0  0  0  0  0
    5.9602   -4.5711   24.7254 C   0  0  0  0  0  0  0  0  0  0  0  0
    4.7463   -5.1164   24.8642 F   0  0  0  0  0  0  0  0  0  0  0  0
    6.1522   -3.6180   23.7323 C   0  0  0  0  0  0  0  0  0  0  0  0
    5.3210   -3.3263   23.0947 H   0  0  0  0  0  0  0  0  0  0  0  0
    6.7931   -5.7366   26.3522 H   0  0  0  0  0  0  0  0  0  0  0  0
    9.4802   -3.0217   24.3595 H   0  0  0  0  0  0  0  0  0  0  0  0
    6.7015   -1.5992   21.7109 N   0  0  0  0  0  0  0  0  0  0  0  0
    7.3352   -0.6945   20.9326 N   0  0  0  0  0  0  0  0  0  0  0  0
    6.6483   -0.0024   19.8979 C   0  0  0  0  0  0  0  0  0  0  0  0
    5.4382    0.6438   20.1665 C   0  0  0  0  0  0  0  0  0  0  0  0
    4.8113    1.3126   19.1106 C   0  0  0  0  0  0  0  0  0  0  0  0
    5.4016    1.2957   17.8401 C   0  0  0  0  0  0  0  0  0  0  0  0
    6.5603    0.6733   17.5786 N   0  0  0  0  0  0  0  0  0  0  0  0
    7.1667    0.0487   18.5922 C   0  0  0  0  0  0  0  0  0  0  0  0
    8.1163   -0.4328   18.3693 H   0  0  0  0  0  0  0  0  0  0  0  0
    4.9152    1.7819   16.9964 H   0  0  0  0  0  0  0  0  0  0  0  0
    3.8779    1.8421   19.2635 H   0  0  0  0  0  0  0  0  0  0  0  0
    5.0131    0.6127   21.1729 H   0  0  0  0  0  0  0  0  0  0  0  0
   10.3370   -0.2703   20.2923 H   0  0  0  0  0  0  0  0  0  0  0  0
    9.1620    1.0466   20.0737 H   0  0  0  0  0  0  0  0  0  0  0  0
   12.0174   -0.1332   21.9525 H   0  0  0  0  0  0  0  0  0  0  0  0
   13.0763    1.1150   23.8256 H   0  0  0  0  0  0  0  0  0  0  0  0
    9.9124    3.7438   24.0249 H   0  0  0  0  0  0  0  0  0  0  0  0
    8.3641    3.0928   21.0160 H   0  0  0  0  0  0  0  0  0  0  0  0
    7.5547    1.9791   22.1020 H   0  0  0  0  0  0  0  0  0  0  0  0
    7.9724    3.6086   22.6522 H   0  0  0  0  0  0  0  0  0  0  0  0
  1  2  1  0
  2  3  2  0
  3  4  1  0
  4  5  2  0
  5  6  1  0
  6  7  2  0
  7  8  1  0
  8  9  1  0
  9 10  2  0
 10 11  1  0
 11 12  1  0
 12 13  2  0
 13 14  1  0
 14 15  1  0
 14 16  2  0
 16 17  1  0
 17 18  1  0
 17 19  2  0
 19 20  1  0
 16 21  1  0
 13 22  1  0
 11 23  2  0
 23 24  1  0
 24 25  1  0
 25 26  2  0
 26 27  1  0
 27 28  2  0
 28 29  1  0
 29 30  2  0
 30 31  1  0
 28 32  1  0
 27 33  1  0
 26 34  1  0
  8 35  1  0
  8 36  1  0
  6 37  1  0
  5 38  1  0
  3 39  1  0
  1 40  1  0
  1 41  1  0
  1 42  1  0
  7  2  1  0
 24  9  1  0
 30 25  1  0
 19 12  1  0
M  END
>  <cnnaffinity>  (1) 
-6.35932

>  <filename>  (1) 
Cc1cnccc1Cc1nc(-c2cc(F)cc(F)c2)nn1-c1cccnc1

$$$$
