
     RDKit          3D

 43 46  0  0  0  0  0  0  0  0999 V2000
    6.7289   -6.0466   26.6183 C   0  0  0  0  0  0  0  0  0  0  0  0
    6.9611   -4.9959   25.5665 C   0  0  0  0  0  0  0  0  0  0  0  0
    5.9481   -4.6025   24.6843 C   0  0  0  0  0  0  0  0  0  0  0  0
    6.1630   -3.6434   23.6990 C   0  0  0  0  0  0  0  0  0  0  0  0
    7.4303   -3.0451   23.5630 C   0  0  0  0  0  0  0  0  0  0  0  0
    7.6575   -2.0239   22.5184 C   0  0  0  0  0  0  0  0  0  0  0  0
    6.7132   -1.6046   21.6906 N   0  0  0  0  0  0  0  0  0  0  0  0
    7.3497   -0.6848   20.9303 N   0  0  0  0  0  0  0  0  0  0  0  0
    6.6531    0.0013   19.8991 C   0  0  0  0  0  0  0  0  0  0  0  0
    5.4383    0.6420   20.1670 C   0  0  0  0  0  0  0  0  0  0  0  0
    4.8128    1.3109   19.1093 C   0  0  0  0  0  0  0  0  0  0  0  0
    5.3993    1.2961   17.8373 C   0  0  0  0  0  0  0  0  0  0  0  0
    6.5560    0.6701   17.5733 N   0  0  0  0  0  0  0  0  0  0  0  0
    7.1651    0.0479   18.5898 C   0  0  0  0  0  0  0  0  0  0  0  0
    8.1124   -0.4359   18.3643 H   0  0  0  0  0  0  0  0  0  0  0  0
    4.9209    1.7877   16.9936 H   0  0  0  0  0  0  0  0  0  0  0  0
    3.8807    1.8400   19.2584 H   0  0  0  0  0  0  0  0  0  0  0  0
    5.0124    0.6056   21.1749 H   0  0  0  0  0  0  0  0  0  0  0  0
    8.6283   -0.5496   21.3955 C   0  0  0  0  0  0  0  0  0  0  0  0
    9.6148    0.4447   20.9059 C   0  0  0  0  0  0  0  0  0  0  0  0
   10.0068    1.3737   21.9476 N   0  0  0  0  0  0  0  0  0  0  0  0
   11.1632    1.1928   22.6044 N   0  0  0  0  0  0  0  0  0  0  0  0
   11.1564    2.0830   23.5827 C   0  0  0  0  0  0  0  0  0  0  0  0
    9.9649    2.8305   23.5580 C   0  0  0  0  0  0  0  0  0  0  0  0
    9.4833    4.0954   24.6214 Cl  0  0  0  0  0  0  0  0  0  0  0  0
    9.2295    2.3454   22.5000 C   0  0  0  0  0  0  0  0  0  0  0  0
    7.8495    2.7065   22.0530 C   0  0  0  0  0  0  0  0  0  0  0  0
    7.7575    2.7164   20.9645 H   0  0  0  0  0  0  0  0  0  0  0  0
    7.1063    1.9906   22.4273 H   0  0  0  0  0  0  0  0  0  0  0  0
    7.5897    3.6922   22.4442 H   0  0  0  0  0  0  0  0  0  0  0  0
   11.9766    2.1708   24.2829 H   0  0  0  0  0  0  0  0  0  0  0  0
    9.2152    1.0085   20.0675 H   0  0  0  0  0  0  0  0  0  0  0  0
   10.5058   -0.0954   20.6051 H   0  0  0  0  0  0  0  0  0  0  0  0
    8.8607   -1.4123   22.3507 N   0  0  0  0  0  0  0  0  0  0  0  0
    8.4729   -3.4260   24.4350 C   0  0  0  0  0  0  0  0  0  0  0  0
    8.2142   -4.3862   25.4017 C   0  0  0  0  0  0  0  0  0  0  0  0
    9.2141   -4.7533   26.2246 F   0  0  0  0  0  0  0  0  0  0  0  0
    9.4710   -2.9958   24.3808 H   0  0  0  0  0  0  0  0  0  0  0  0
    5.3537   -3.3501   23.0373 H   0  0  0  0  0  0  0  0  0  0  0  0
    4.9704   -5.0664   24.7844 H   0  0  0  0  0  0  0  0  0  0  0  0
    5.6619   -6.2525   26.7511 H   0  0  0  0  0  0  0  0  0  0  0  0
    7.2113   -6.9804   26.3267 H   0  0  0  0  0  0  0  0  0  0  0  0
    7.1474   -5.7605   27.5886 H   0  0  0  0  0  0  0  0  0  0  0  0
  1  2  1  0
  2  3  2  0
  3  4  1  0
  4  5  2  0
  5  6  1  0
  6  7  2  0
  7  8  1  0
  8  9  1  0
  9 10  2  0
 10 11  1  0
 11 12  2  0
 12 13  1  0
 13 14  2  0
 14 15  1  0
 12 16  1  0
 11 17  1  0
 10 18  1  0
  8 19  1  0
 19 20  1  0
 20 21  1  0
 21 22  1  0
 22 23  2  0
 23 24  1  0
 24 25  1  0
 24 26  2  0
 26 27  1  0
 27 28  1  0
 27 29  1  0
 27 30  1  0
 23 31  1  0
 20 32  1  0
 20 33  1  0
 19 34  2  0
  5 35  1  0
 35 36  2  0
 36 37  1  0
 35 38  1  0
  4 39  1  0
  3 40  1  0
  1 41  1  0
  1 42  1  0
  1 43  1  0
 36  2  1  0
 34  6  1  0
 14  9  1  0
 26 21  1  0
M  END
>  <cnnaffinity>  (1) 
-6.24162

>  <filename>  (1) 
Cc1ccc(-c2nc(Cn3ncc(Cl)c3C)n(-c3cccnc3)n2)cc1F

$$$$
