
     RDKit          3D

 41 44  0  0  0  0  0  0  0  0999 V2000
    3.8476    0.6371   26.6036 C   0  0  0  0  0  0  0  0  0  0  0  0
    4.6007    1.0912   25.3879 C   0  0  0  0  0  0  0  0  0  0  0  0
    4.2961    2.1057   24.5320 C   0  0  0  0  0  0  0  0  0  0  0  0
    5.2672    2.2811   23.4978 C   0  0  0  0  0  0  0  0  0  0  0  0
    6.3031    1.4006   23.5845 C   0  0  0  0  0  0  0  0  0  0  0  0
    7.5225    1.2750   22.7046 C   0  0  0  0  0  0  0  0  0  0  0  0
    7.7278   -0.1120   22.1699 C   0  0  0  0  0  0  0  0  0  0  0  0
    8.3121   -1.0624   22.8672 N   0  0  0  0  0  0  0  0  0  0  0  0
    8.3224   -2.1192   22.0171 C   0  0  0  0  0  0  0  0  0  0  0  0
    8.7789   -3.5277   22.3410 C   0  0  0  0  0  0  0  0  0  0  0  0
    7.8050   -4.3866   23.2074 C   0  0  0  0  0  0  0  0  0  0  0  0
    8.7654   -5.2755   24.0110 C   0  0  0  0  0  0  0  0  0  0  0  0
    9.9501   -4.3318   24.2032 C   0  0  0  0  0  0  0  0  0  0  0  0
   10.0378   -3.5691   23.0059 O   0  0  0  0  0  0  0  0  0  0  0  0
   10.8991   -4.8573   24.3581 H   0  0  0  0  0  0  0  0  0  0  0  0
    9.7763   -3.6397   25.0422 H   0  0  0  0  0  0  0  0  0  0  0  0
    9.0475   -6.1792   23.4497 H   0  0  0  0  0  0  0  0  0  0  0  0
    8.3530   -5.6043   24.9708 H   0  0  0  0  0  0  0  0  0  0  0  0
    7.1066   -4.9622   22.5882 H   0  0  0  0  0  0  0  0  0  0  0  0
    7.2269   -3.7294   23.8727 H   0  0  0  0  0  0  0  0  0  0  0  0
    8.8658   -3.9722   21.3448 H   0  0  0  0  0  0  0  0  0  0  0  0
    7.8100   -1.8630   20.8251 N   0  0  0  0  0  0  0  0  0  0  0  0
    7.3932   -0.5760   20.9295 N   0  0  0  0  0  0  0  0  0  0  0  0
    6.6478    0.0393   19.8824 C   0  0  0  0  0  0  0  0  0  0  0  0
    5.4324    0.6899   20.1278 C   0  0  0  0  0  0  0  0  0  0  0  0
    4.8044    1.3271   19.0508 C   0  0  0  0  0  0  0  0  0  0  0  0
    5.4090    1.2935   17.7928 C   0  0  0  0  0  0  0  0  0  0  0  0
    6.5475    0.6220   17.5453 N   0  0  0  0  0  0  0  0  0  0  0  0
    7.1375   -0.0058   18.5676 C   0  0  0  0  0  0  0  0  0  0  0  0
    8.0475   -0.5601   18.3464 H   0  0  0  0  0  0  0  0  0  0  0  0
    4.9747    1.8305   16.9514 H   0  0  0  0  0  0  0  0  0  0  0  0
    3.8679    1.8553   19.1778 H   0  0  0  0  0  0  0  0  0  0  0  0
    4.9909    0.6934   21.1252 H   0  0  0  0  0  0  0  0  0  0  0  0
    8.4181    1.5268   23.2856 H   0  0  0  0  0  0  0  0  0  0  0  0
    7.4685    2.0033   21.8937 H   0  0  0  0  0  0  0  0  0  0  0  0
    6.0904    0.3385   24.9312 S   0  0  0  0  0  0  0  0  0  0  0  0
    5.1971    3.0281   22.7175 H   0  0  0  0  0  0  0  0  0  0  0  0
    3.4086    2.7143   24.6605 H   0  0  0  0  0  0  0  0  0  0  0  0
    4.1982    1.1710   27.4963 H   0  0  0  0  0  0  0  0  0  0  0  0
    3.9670   -0.4346   26.7883 H   0  0  0  0  0  0  0  0  0  0  0  0
    2.7799    0.8548   26.5028 H   0  0  0  0  0  0  0  0  0  0  0  0
  1  2  1  0
  2  3  2  0
  3  4  1  0
  4  5  2  0
  5  6  1  0
  6  7  1  0
  7  8  2  0
  8  9  1  0
  9 10  1  0
 10 11  1  0
 11 12  1  0
 12 13  1  0
 13 14  1  0
 13 15  1  0
 13 16  1  0
 12 17  1  0
 12 18  1  0
 11 19  1  0
 11 20  1  0
 10 21  1  0
  9 22  2  0
 22 23  1  0
 23 24  1  0
 24 25  2  0
 25 26  1  0
 26 27  2  0
 27 28  1  0
 28 29  2  0
 29 30  1  0
 27 31  1  0
 26 32  1  0
 25 33  1  0
  6 34  1  0
  6 35  1  0
  5 36  1  0
  4 37  1  0
  3 38  1  0
  1 39  1  0
  1 40  1  0
  1 41  1  0
 36  2  1  0
 23  7  1  0
 29 24  1  0
 14 10  1  0
M  END
>  <cnnaffinity>  (1) 
-5.95415

>  <filename>  (1) 
Cc1ccc(Cc2nc(C3CCCO3)nn2-c2cccnc2)s1

$$$$
