
     RDKit          3D

 44 47  0  0  0  0  0  0  0  0999 V2000
   13.6367    0.5744   23.8141 C   0  0  0  0  0  0  0  0  0  0  0  0
   12.4105    0.7957   22.9964 C   0  0  0  0  0  0  0  0  0  0  0  0
   11.8795    0.0504   21.9670 C   0  0  0  0  0  0  0  0  0  0  0  0
   10.6702    0.6885   21.6384 C   0  0  0  0  0  0  0  0  0  0  0  0
    9.6393    0.2210   20.6824 C   0  0  0  0  0  0  0  0  0  0  0  0
    8.6111   -0.6063   21.3540 C   0  0  0  0  0  0  0  0  0  0  0  0
    8.8369   -1.4653   22.3244 N   0  0  0  0  0  0  0  0  0  0  0  0
    7.6175   -2.0078   22.5394 C   0  0  0  0  0  0  0  0  0  0  0  0
    7.3839   -3.0097   23.6210 C   0  0  0  0  0  0  0  0  0  0  0  0
    7.0094   -4.3906   23.0180 C   0  0  0  0  0  0  0  0  0  0  0  0
    6.4961   -5.3515   24.0604 C   0  0  0  0  0  0  0  0  0  0  0  0
    6.0752   -4.9793   25.2703 C   0  0  0  0  0  0  0  0  0  0  0  0
    6.1158   -3.5493   25.7653 C   0  0  0  0  0  0  0  0  0  0  0  0
    6.2927   -2.5413   24.6181 C   0  0  0  0  0  0  0  0  0  0  0  0
    6.5346   -1.5496   25.0225 H   0  0  0  0  0  0  0  0  0  0  0  0
    5.3516   -2.4378   24.0617 H   0  0  0  0  0  0  0  0  0  0  0  0
    6.9336   -3.4433   26.4965 H   0  0  0  0  0  0  0  0  0  0  0  0
    5.1994   -3.3230   26.3261 H   0  0  0  0  0  0  0  0  0  0  0  0
    5.6910   -5.7270   25.9662 H   0  0  0  0  0  0  0  0  0  0  0  0
    6.4548   -6.3958   23.7550 H   0  0  0  0  0  0  0  0  0  0  0  0
    7.8733   -4.8321   22.5014 H   0  0  0  0  0  0  0  0  0  0  0  0
    6.2402   -4.2509   22.2406 H   0  0  0  0  0  0  0  0  0  0  0  0
    8.3469   -3.0841   24.1460 H   0  0  0  0  0  0  0  0  0  0  0  0
    6.6616   -1.5754   21.7316 N   0  0  0  0  0  0  0  0  0  0  0  0
    7.3161   -0.6882   20.9448 N   0  0  0  0  0  0  0  0  0  0  0  0
    6.6450   -0.0079   19.8978 C   0  0  0  0  0  0  0  0  0  0  0  0
    5.4336    0.6354   20.1593 C   0  0  0  0  0  0  0  0  0  0  0  0
    4.8068    1.3081   19.1076 C   0  0  0  0  0  0  0  0  0  0  0  0
    5.3976    1.2933   17.8372 C   0  0  0  0  0  0  0  0  0  0  0  0
    6.5513    0.6618   17.5770 N   0  0  0  0  0  0  0  0  0  0  0  0
    7.1598    0.0368   18.5890 C   0  0  0  0  0  0  0  0  0  0  0  0
    8.1101   -0.4382   18.3512 H   0  0  0  0  0  0  0  0  0  0  0  0
    4.9334    1.8015   16.9953 H   0  0  0  0  0  0  0  0  0  0  0  0
    3.8759    1.8445   19.2565 H   0  0  0  0  0  0  0  0  0  0  0  0
    5.0177    0.6020   21.1669 H   0  0  0  0  0  0  0  0  0  0  0  0
    9.1682    1.0780   20.1944 H   0  0  0  0  0  0  0  0  0  0  0  0
   10.0964   -0.4456   19.9462 H   0  0  0  0  0  0  0  0  0  0  0  0
   10.4669    1.7666   22.3754 N   0  0  0  0  0  0  0  0  0  0  0  0
   11.5345    1.8164   23.1951 N   0  0  0  0  0  0  0  0  0  0  0  0
   11.5769    2.5451   23.8922 H   0  0  0  0  0  0  0  0  0  0  0  0
   12.2785   -0.8532   21.5216 H   0  0  0  0  0  0  0  0  0  0  0  0
   14.3833    0.0414   23.2215 H   0  0  0  0  0  0  0  0  0  0  0  0
   14.0592    1.5209   24.1426 H   0  0  0  0  0  0  0  0  0  0  0  0
   13.4152   -0.0165   24.7062 H   0  0  0  0  0  0  0  0  0  0  0  0
  1  2  1  0
  2  3  2  0
  3  4  1  0
  4  5  1  0
  5  6  1  0
  6  7  2  0
  7  8  1  0
  8  9  1  0
  9 10  1  0
 10 11  1  0
 11 12  2  0
 12 13  1  0
 13 14  1  0
 14 15  1  0
 14 16  1  0
 13 17  1  0
 13 18  1  0
 12 19  1  0
 11 20  1  0
 10 21  1  0
 10 22  1  0
  9 23  1  0
  8 24  2  0
 24 25  1  0
 25 26  1  0
 26 27  2  0
 27 28  1  0
 28 29  2  0
 29 30  1  0
 30 31  2  0
 31 32  1  0
 29 33  1  0
 28 34  1  0
 27 35  1  0
  5 36  1  0
  5 37  1  0
  4 38  2  0
 38 39  1  0
 39 40  1  0
  3 41  1  0
  1 42  1  0
  1 43  1  0
  1 44  1  0
 39  2  1  0
 25  6  1  0
 31 26  1  0
 14  9  1  0
M  END
>  <cnnaffinity>  (1) 
-6.2903

>  <filename>  (1) 
Cc1cc(Cc2nc(C3CC=CCC3)nn2-c2cccnc2)n[nH]1

$$$$
