
     RDKit          3D

 45 48  0  0  0  0  0  0  0  0999 V2000
   11.4265    0.2773   24.2098 C   0  0  0  0  0  0  0  0  0  0  0  0
   12.0109   -0.4790   23.0427 C   0  0  0  0  0  0  0  0  0  0  0  0
   13.3319   -0.2657   22.6300 C   0  0  0  0  0  0  0  0  0  0  0  0
   13.8005   -0.8876   21.4711 C   0  0  0  0  0  0  0  0  0  0  0  0
   12.9286   -1.7111   20.7695 C   0  0  0  0  0  0  0  0  0  0  0  0
   11.7016   -1.9967   21.1990 N   0  0  0  0  0  0  0  0  0  0  0  0
   11.2738   -1.4658   22.3392 C   0  0  0  0  0  0  0  0  0  0  0  0
    9.9961   -2.0694   22.8368 C   0  0  0  0  0  0  0  0  0  0  0  0
    8.7852   -1.3572   22.3376 C   0  0  0  0  0  0  0  0  0  0  0  0
    8.5916   -0.8591   21.1342 N   0  0  0  0  0  0  0  0  0  0  0  0
    7.2977   -0.4379   21.1671 C   0  0  0  0  0  0  0  0  0  0  0  0
    6.6201    0.1662   20.0128 C   0  0  0  0  0  0  0  0  0  0  0  0
    5.3706    0.8149   20.0857 C   0  0  0  0  0  0  0  0  0  0  0  0
    4.8370    1.3442   18.9111 C   0  0  0  0  0  0  0  0  0  0  0  0
    5.5535    1.2044   17.7165 C   0  0  0  0  0  0  0  0  0  0  0  0
    6.7364    0.5787   17.6331 N   0  0  0  0  0  0  0  0  0  0  0  0
    7.2498    0.0787   18.7628 C   0  0  0  0  0  0  0  0  0  0  0  0
    8.2088   -0.4260   18.6691 H   0  0  0  0  0  0  0  0  0  0  0  0
    5.1561    1.5998   16.7832 H   0  0  0  0  0  0  0  0  0  0  0  0
    3.8802    1.8580   18.8963 H   0  0  0  0  0  0  0  0  0  0  0  0
    4.8289    0.9000   21.0313 H   0  0  0  0  0  0  0  0  0  0  0  0
    6.6933   -0.6550   22.3204 N   0  0  0  0  0  0  0  0  0  0  0  0
    7.6472   -1.2523   23.0682 N   0  0  0  0  0  0  0  0  0  0  0  0
    7.3379   -1.6897   24.4265 C   0  0  0  0  0  0  0  0  0  0  0  0
    6.8653   -3.1350   24.5385 C   0  0  0  0  0  0  0  0  0  0  0  0
    7.5749   -4.1080   25.2586 C   0  0  0  0  0  0  0  0  0  0  0  0
    7.0926   -5.4198   25.3809 C   0  0  0  0  0  0  0  0  0  0  0  0
    5.8633   -5.7239   24.8042 C   0  0  0  0  0  0  0  0  0  0  0  0
    5.3243   -6.9411   24.9903 F   0  0  0  0  0  0  0  0  0  0  0  0
    5.1523   -4.8005   24.0480 C   0  0  0  0  0  0  0  0  0  0  0  0
    5.6694   -3.5141   23.9143 C   0  0  0  0  0  0  0  0  0  0  0  0
    5.1429   -2.7794   23.3211 H   0  0  0  0  0  0  0  0  0  0  0  0
    4.2065   -5.0895   23.6022 H   0  0  0  0  0  0  0  0  0  0  0  0
    7.6403   -6.2120   25.8847 H   0  0  0  0  0  0  0  0  0  0  0  0
    8.5161   -3.8334   25.7257 H   0  0  0  0  0  0  0  0  0  0  0  0
    6.5575   -1.0051   24.7757 H   0  0  0  0  0  0  0  0  0  0  0  0
    8.2198   -1.5286   25.0553 H   0  0  0  0  0  0  0  0  0  0  0  0
   10.0056   -2.1318   23.9277 H   0  0  0  0  0  0  0  0  0  0  0  0
    9.9517   -3.0950   22.4516 H   0  0  0  0  0  0  0  0  0  0  0  0
   13.2233   -2.1592   19.8260 H   0  0  0  0  0  0  0  0  0  0  0  0
   14.7361   -0.6378   21.0055 H   0  0  0  0  0  0  0  0  0  0  0  0
   13.9851    0.3870   23.2101 H   0  0  0  0  0  0  0  0  0  0  0  0
   12.1239    1.0439   24.5655 H   0  0  0  0  0  0  0  0  0  0  0  0
   10.4864    0.7671   23.9269 H   0  0  0  0  0  0  0  0  0  0  0  0
   11.2027   -0.3900   25.0504 H   0  0  0  0  0  0  0  0  0  0  0  0
  1  2  1  0
  2  3  2  0
  3  4  1  0
  4  5  2  0
  5  6  1  0
  6  7  2  0
  7  8  1  0
  8  9  1  0
  9 10  2  0
 10 11  1  0
 11 12  1  0
 12 13  2  0
 13 14  1  0
 14 15  2  0
 15 16  1  0
 16 17  2  0
 17 18  1  0
 15 19  1  0
 14 20  1  0
 13 21  1  0
 11 22  2  0
 22 23  1  0
 23 24  1  0
 24 25  1  0
 25 26  2  0
 26 27  1  0
 27 28  2  0
 28 29  1  0
 28 30  1  0
 30 31  2  0
 31 32  1  0
 30 33  1  0
 27 34  1  0
 26 35  1  0
 24 36  1  0
 24 37  1  0
  8 38  1  0
  8 39  1  0
  5 40  1  0
  4 41  1  0
  3 42  1  0
  1 43  1  0
  1 44  1  0
  1 45  1  0
  7  2  1  0
 23  9  1  0
 31 25  1  0
 17 12  1  0
M  END
>  <cnnaffinity>  (1) 
-6.54622

>  <filename>  (1) 
Cc1cccnc1Cc1nc(-c2cccnc2)nn1Cc1ccc(F)cc1

$$$$
