
     RDKit          3D

 32 35  0  0  0  0  0  0  0  0999 V2000
    4.9170    1.7760   17.0016 H   0  0  0  0  0  0  0  0  0  0  0  0
    5.4048    1.2899   17.8422 C   0  0  0  0  0  0  0  0  0  0  0  0
    6.5700    0.6776   17.5762 N   0  0  0  0  0  0  0  0  0  0  0  0
    7.1741    0.0566   18.5899 C   0  0  0  0  0  0  0  0  0  0  0  0
    8.1238   -0.4342   18.3737 H   0  0  0  0  0  0  0  0  0  0  0  0
    6.6474    0.0111   19.8912 C   0  0  0  0  0  0  0  0  0  0  0  0
    7.4039   -0.7007   20.9186 C   0  0  0  0  0  0  0  0  0  0  0  0
    8.3301   -1.6007   20.6990 N   0  0  0  0  0  0  0  0  0  0  0  0
    8.8309   -2.0351   21.9056 N   0  0  0  0  0  0  0  0  0  0  0  0
    8.1984   -1.3538   22.8199 C   0  0  0  0  0  0  0  0  0  0  0  0
    8.2637   -1.0950   24.5373 S   0  0  0  0  0  0  0  0  0  0  0  0
    7.0339    0.1754   24.3221 C   0  0  0  0  0  0  0  0  0  0  0  0
    6.5341    0.9703   25.4664 C   0  0  0  0  0  0  0  0  0  0  0  0
    5.5650    1.9684   25.2451 C   0  0  0  0  0  0  0  0  0  0  0  0
    5.2008    2.1453   24.2379 H   0  0  0  0  0  0  0  0  0  0  0  0
    5.0797    2.7215   26.3124 C   0  0  0  0  0  0  0  0  0  0  0  0
    4.3295    3.4845   26.1338 H   0  0  0  0  0  0  0  0  0  0  0  0
    5.5533    2.4969   27.6072 C   0  0  0  0  0  0  0  0  0  0  0  0
    5.1652    3.0820   28.4376 H   0  0  0  0  0  0  0  0  0  0  0  0
    6.5221    1.5129   27.8506 C   0  0  0  0  0  0  0  0  0  0  0  0
    7.0084    1.2525   29.2518 C   0  0  0  0  0  0  0  0  0  0  0  0
    6.9469    2.1509   29.8726 H   0  0  0  0  0  0  0  0  0  0  0  0
    6.3967    0.4813   29.7328 H   0  0  0  0  0  0  0  0  0  0  0  0
    8.0474    0.9094   29.2654 H   0  0  0  0  0  0  0  0  0  0  0  0
    7.0042    0.7524   26.7776 C   0  0  0  0  0  0  0  0  0  0  0  0
    7.7482   -0.0166   26.9872 H   0  0  0  0  0  0  0  0  0  0  0  0
    6.6224    0.3538   23.1039 N   0  0  0  0  0  0  0  0  0  0  0  0
    7.2715   -0.5201   22.2801 N   0  0  0  0  0  0  0  0  0  0  0  0
    5.4326    0.6522   20.1618 C   0  0  0  0  0  0  0  0  0  0  0  0
    5.0089    0.6353   21.1691 H   0  0  0  0  0  0  0  0  0  0  0  0
    4.8047    1.3082   19.1083 C   0  0  0  0  0  0  0  0  0  0  0  0
    3.8740    1.8434   19.2613 H   0  0  0  0  0  0  0  0  0  0  0  0
  1  2  1  0
  2  3  2  0
  3  4  1  0
  4  5  1  0
  4  6  2  0
  6  7  1  0
  7  8  2  0
  8  9  1  0
  9 10  2  0
 10 11  1  0
 11 12  1  0
 12 13  1  0
 13 14  2  0
 14 15  1  0
 14 16  1  0
 16 17  1  0
 16 18  2  0
 18 19  1  0
 18 20  1  0
 20 21  1  0
 21 22  1  0
 21 23  1  0
 21 24  1  0
 20 25  2  0
 25 26  1  0
 12 27  2  0
 27 28  1  0
  6 29  1  0
 29 30  1  0
 29 31  2  0
 31 32  1  0
 31  2  1  0
 28  7  1  0
 28 10  1  0
 25 13  1  0
M  END
>  <cnnaffinity>  (1) 
-5.20794

>  <filename>  (1) 
Cc1cccc(-c2nn3c(-c4cccnc4)nnc3s2)c1

$$$$
