
     RDKit          3D

 48 51  0  0  0  0  0  0  0  0999 V2000
    5.0708    7.0395   22.1597 C   0  0  0  0  0  0  0  0  0  0  0  0
    6.0015    5.8703   22.3462 C   0  0  0  0  0  0  0  0  0  0  0  0
    7.3873    6.0675   22.4358 C   0  0  0  0  0  0  0  0  0  0  0  0
    8.2533    4.9925   22.6395 C   0  0  0  0  0  0  0  0  0  0  0  0
    7.7330    3.6968   22.7606 C   0  0  0  0  0  0  0  0  0  0  0  0
    8.8232    2.3116   22.9258 S   0  0  0  0  0  0  0  0  0  0  0  0
    9.0592    2.0137   21.1468 C   0  0  0  0  0  0  0  0  0  0  0  0
    9.5560    0.5892   20.9056 C   0  0  0  0  0  0  0  0  0  0  0  0
    8.6396   -0.4649   21.4258 C   0  0  0  0  0  0  0  0  0  0  0  0
    8.8611   -1.2636   22.4448 N   0  0  0  0  0  0  0  0  0  0  0  0
    7.6650   -1.8833   22.6107 C   0  0  0  0  0  0  0  0  0  0  0  0
    7.4392   -2.8429   23.7337 C   0  0  0  0  0  0  0  0  0  0  0  0
    8.6854   -3.6241   24.1970 C   0  0  0  0  0  0  0  0  0  0  0  0
    8.0948   -4.9157   24.7662 C   0  0  0  0  0  0  0  0  0  0  0  0
    6.7916   -5.0488   24.2183 O   0  0  0  0  0  0  0  0  0  0  0  0
    6.4546   -3.9617   23.3808 C   0  0  0  0  0  0  0  0  0  0  0  0
    5.4082   -3.6868   23.5703 H   0  0  0  0  0  0  0  0  0  0  0  0
    6.5444   -4.2478   22.3206 H   0  0  0  0  0  0  0  0  0  0  0  0
    8.6928   -5.8020   24.5046 H   0  0  0  0  0  0  0  0  0  0  0  0
    8.0090   -4.8846   25.8636 H   0  0  0  0  0  0  0  0  0  0  0  0
    9.2789   -3.0813   24.9378 H   0  0  0  0  0  0  0  0  0  0  0  0
    9.3377   -3.8335   23.3417 H   0  0  0  0  0  0  0  0  0  0  0  0
    7.0432   -2.2630   24.5750 H   0  0  0  0  0  0  0  0  0  0  0  0
    6.7390   -1.5537   21.7304 N   0  0  0  0  0  0  0  0  0  0  0  0
    7.3743   -0.6469   20.9453 N   0  0  0  0  0  0  0  0  0  0  0  0
    6.6686    0.0155   19.9040 C   0  0  0  0  0  0  0  0  0  0  0  0
    5.4462    0.6468   20.1683 C   0  0  0  0  0  0  0  0  0  0  0  0
    4.8137    1.3095   19.1112 C   0  0  0  0  0  0  0  0  0  0  0  0
    5.4020    1.2952   17.8388 C   0  0  0  0  0  0  0  0  0  0  0  0
    6.5610    0.6728   17.5783 N   0  0  0  0  0  0  0  0  0  0  0  0
    7.1725    0.0572   18.5935 C   0  0  0  0  0  0  0  0  0  0  0  0
    8.1136   -0.4367   18.3707 H   0  0  0  0  0  0  0  0  0  0  0  0
    4.9172    1.7838   16.9956 H   0  0  0  0  0  0  0  0  0  0  0  0
    3.8781    1.8378   19.2614 H   0  0  0  0  0  0  0  0  0  0  0  0
    5.0182    0.6056   21.1737 H   0  0  0  0  0  0  0  0  0  0  0  0
   10.5276    0.4439   21.3828 H   0  0  0  0  0  0  0  0  0  0  0  0
    9.6665    0.4496   19.8272 H   0  0  0  0  0  0  0  0  0  0  0  0
    8.1081    2.1852   20.6305 H   0  0  0  0  0  0  0  0  0  0  0  0
    9.7819    2.7440   20.7768 H   0  0  0  0  0  0  0  0  0  0  0  0
    6.3518    3.4852   22.6667 C   0  0  0  0  0  0  0  0  0  0  0  0
    5.4952    4.5682   22.4633 C   0  0  0  0  0  0  0  0  0  0  0  0
    4.4234    4.4083   22.3926 H   0  0  0  0  0  0  0  0  0  0  0  0
    5.9599    2.4727   22.7395 H   0  0  0  0  0  0  0  0  0  0  0  0
    9.3278    5.1476   22.6887 H   0  0  0  0  0  0  0  0  0  0  0  0
    7.7858    7.0744   22.3504 H   0  0  0  0  0  0  0  0  0  0  0  0
    4.7595    7.4439   23.1285 H   0  0  0  0  0  0  0  0  0  0  0  0
    5.5453    7.8540   21.6045 H   0  0  0  0  0  0  0  0  0  0  0  0
    4.1632    6.7533   21.6195 H   0  0  0  0  0  0  0  0  0  0  0  0
  1  2  1  0
  2  3  2  0
  3  4  1  0
  4  5  2  0
  5  6  1  0
  6  7  1  0
  7  8  1  0
  8  9  1  0
  9 10  2  0
 10 11  1  0
 11 12  1  0
 12 13  1  0
 13 14  1  0
 14 15  1  0
 15 16  1  0
 16 17  1  0
 16 18  1  0
 14 19  1  0
 14 20  1  0
 13 21  1  0
 13 22  1  0
 12 23  1  0
 11 24  2  0
 24 25  1  0
 25 26  1  0
 26 27  2  0
 27 28  1  0
 28 29  2  0
 29 30  1  0
 30 31  2  0
 31 32  1  0
 29 33  1  0
 28 34  1  0
 27 35  1  0
  8 36  1  0
  8 37  1  0
  7 38  1  0
  7 39  1  0
  5 40  1  0
 40 41  2  0
 41 42  1  0
 40 43  1  0
  4 44  1  0
  3 45  1  0
  1 46  1  0
  1 47  1  0
  1 48  1  0
 41  2  1  0
 25  9  1  0
 31 26  1  0
 16 12  1  0
M  END
>  <cnnaffinity>  (1) 
-6.04861

>  <filename>  (1) 
Cc1ccc(SCCc2nc(C3CCOC3)nn2-c2cccnc2)cc1

$$$$
