
     RDKit          3D

 56 59  0  0  0  0  0  0  0  0999 V2000
    7.5560   -5.3635   27.2818 C   0  0  0  0  0  0  0  0  0  0  0  0
    7.3962   -4.5919   25.9750 C   0  0  0  0  0  0  0  0  0  0  0  0
    7.0440   -3.1058   26.2338 C   0  0  0  0  0  0  0  0  0  0  0  0
    7.4251   -2.1546   25.0789 C   0  0  0  0  0  0  0  0  0  0  0  0
    7.4351   -2.8822   23.7140 C   0  0  0  0  0  0  0  0  0  0  0  0
    7.6624   -1.9230   22.5860 C   0  0  0  0  0  0  0  0  0  0  0  0
    6.7392   -1.5970   21.7080 N   0  0  0  0  0  0  0  0  0  0  0  0
    7.3633   -0.6585   20.9416 N   0  0  0  0  0  0  0  0  0  0  0  0
    6.6603    0.0103   19.9005 C   0  0  0  0  0  0  0  0  0  0  0  0
    5.4406    0.6474   20.1637 C   0  0  0  0  0  0  0  0  0  0  0  0
    4.8102    1.3123   19.1081 C   0  0  0  0  0  0  0  0  0  0  0  0
    5.4006    1.2961   17.8378 C   0  0  0  0  0  0  0  0  0  0  0  0
    6.5618    0.6757   17.5763 N   0  0  0  0  0  0  0  0  0  0  0  0
    7.1718    0.0562   18.5930 C   0  0  0  0  0  0  0  0  0  0  0  0
    8.1160   -0.4351   18.3706 H   0  0  0  0  0  0  0  0  0  0  0  0
    4.9157    1.7833   16.9937 H   0  0  0  0  0  0  0  0  0  0  0  0
    3.8761    1.8411   19.2612 H   0  0  0  0  0  0  0  0  0  0  0  0
    5.0104    0.6086   21.1681 H   0  0  0  0  0  0  0  0  0  0  0  0
    8.6187   -0.4493   21.4392 C   0  0  0  0  0  0  0  0  0  0  0  0
    9.5123    0.6457   20.9749 C   0  0  0  0  0  0  0  0  0  0  0  0
    9.0205    2.0320   21.4277 C   0  0  0  0  0  0  0  0  0  0  0  0
    8.7876    2.1379   22.8718 N   0  0  0  0  0  0  0  0  0  0  0  0
    7.3992    2.0400   23.3421 C   0  0  0  0  0  0  0  0  0  0  0  0
    7.2312    2.5648   24.7644 C   0  0  0  0  0  0  0  0  0  0  0  0
    8.2334    1.8877   25.6941 C   0  0  0  0  0  0  0  0  0  0  0  0
    9.6388    2.2278   25.2152 C   0  0  0  0  0  0  0  0  0  0  0  0
    9.8813    2.0870   23.7105 C   0  0  0  0  0  0  0  0  0  0  0  0
   11.0266    2.0181   23.2877 O   0  0  0  0  0  0  0  0  0  0  0  0
   10.4036    1.6452   25.7299 H   0  0  0  0  0  0  0  0  0  0  0  0
    9.8531    3.2767   25.4323 H   0  0  0  0  0  0  0  0  0  0  0  0
    8.0980    0.7961   25.6663 H   0  0  0  0  0  0  0  0  0  0  0  0
    8.0890    2.2036   26.7340 H   0  0  0  0  0  0  0  0  0  0  0  0
    6.2075    2.3832   25.1037 H   0  0  0  0  0  0  0  0  0  0  0  0
    7.3834    3.6511   24.7706 H   0  0  0  0  0  0  0  0  0  0  0  0
    6.7688    2.6223   22.6636 H   0  0  0  0  0  0  0  0  0  0  0  0
    7.0372    1.0030   23.2783 H   0  0  0  0  0  0  0  0  0  0  0  0
    8.0939    2.2755   20.8955 H   0  0  0  0  0  0  0  0  0  0  0  0
    9.7572    2.7852   21.1334 H   0  0  0  0  0  0  0  0  0  0  0  0
   10.5084    0.4697   21.3803 H   0  0  0  0  0  0  0  0  0  0  0  0
    9.5846    0.6308   19.8824 H   0  0  0  0  0  0  0  0  0  0  0  0
    8.8410   -1.2536   22.4543 N   0  0  0  0  0  0  0  0  0  0  0  0
    8.4631   -4.0487   23.7040 C   0  0  0  0  0  0  0  0  0  0  0  0
    8.6424   -4.7129   25.0860 C   0  0  0  0  0  0  0  0  0  0  0  0
    8.9156   -5.7674   24.9597 H   0  0  0  0  0  0  0  0  0  0  0  0
    9.4883   -4.2484   25.6135 H   0  0  0  0  0  0  0  0  0  0  0  0
    9.4373   -3.6873   23.3542 H   0  0  0  0  0  0  0  0  0  0  0  0
    8.1263   -4.7950   22.9739 H   0  0  0  0  0  0  0  0  0  0  0  0
    6.4361   -3.2976   23.5512 H   0  0  0  0  0  0  0  0  0  0  0  0
    8.4286   -1.7368   25.2514 H   0  0  0  0  0  0  0  0  0  0  0  0
    6.7314   -1.3037   25.0528 H   0  0  0  0  0  0  0  0  0  0  0  0
    5.9683   -3.0371   26.4414 H   0  0  0  0  0  0  0  0  0  0  0  0
    7.5435   -2.7593   27.1482 H   0  0  0  0  0  0  0  0  0  0  0  0
    6.5577   -5.0407   25.4235 H   0  0  0  0  0  0  0  0  0  0  0  0
    6.6624   -5.2792   27.9095 H   0  0  0  0  0  0  0  0  0  0  0  0
    7.7406   -6.4270   27.0962 H   0  0  0  0  0  0  0  0  0  0  0  0
    8.4055   -4.9770   27.8579 H   0  0  0  0  0  0  0  0  0  0  0  0
  1  2  1  0
  2  3  1  0
  3  4  1  0
  4  5  1  0
  5  6  1  0
  6  7  2  0
  7  8  1  0
  8  9  1  0
  9 10  2  0
 10 11  1  0
 11 12  2  0
 12 13  1  0
 13 14  2  0
 14 15  1  0
 12 16  1  0
 11 17  1  0
 10 18  1  0
  8 19  1  0
 19 20  1  0
 20 21  1  0
 21 22  1  0
 22 23  1  0
 23 24  1  0
 24 25  1  0
 25 26  1  0
 26 27  1  0
 27 28  2  0
 26 29  1  0
 26 30  1  0
 25 31  1  0
 25 32  1  0
 24 33  1  0
 24 34  1  0
 23 35  1  0
 23 36  1  0
 21 37  1  0
 21 38  1  0
 20 39  1  0
 20 40  1  0
 19 41  2  0
  5 42  1  0
 42 43  1  0
 43 44  1  0
 43 45  1  0
 42 46  1  0
 42 47  1  0
  5 48  1  0
  4 49  1  0
  4 50  1  0
  3 51  1  0
  3 52  1  0
  2 53  1  0
  1 54  1  0
  1 55  1  0
  1 56  1  0
 43  2  1  0
 41  6  1  0
 14  9  1  0
 27 22  1  0
M  END
>  <cnnaffinity>  (1) 
-6.34577

>  <filename>  (1) 
CC1CCC(c2nc(CCN3CCCCC3=O)n(-c3cccnc3)n2)CC1

$$$$
