
     RDKit          3D

 41 45  0  0  0  0  0  0  0  0999 V2000
    8.9489    1.8802   26.0302 C   0  0  0  0  0  0  0  0  0  0  0  0
    9.0503    1.6858   25.8698 C   0  0  0  0  0  0  0  0  0  0  0  0
   10.2080    2.9283   24.1068 C   0  0  0  0  0  0  0  0  0  0  0  0
    9.2577    2.6621   22.8175 S   0  0  0  0  0  0  0  0  0  0  0  0
    8.0221    1.7029   23.5504 C   0  0  0  0  0  0  0  0  0  0  0  0
    6.9199    1.2163   22.6840 C   0  0  0  0  0  0  0  0  0  0  0  0
    7.0997   -0.2211   22.2369 C   0  0  0  0  0  0  0  0  0  0  0  0
    7.6808   -1.1660   22.9470 N   0  0  0  0  0  0  0  0  0  0  0  0
    7.6586   -2.2446   22.1251 C   0  0  0  0  0  0  0  0  0  0  0  0
    8.4588   -3.4600   22.4033 C   0  0  0  0  0  0  0  0  0  0  0  0
    7.9130   -4.8736   22.2058 C   0  0  0  0  0  0  0  0  0  0  0  0
    8.3209   -4.3855   23.5645 C   0  0  0  0  0  0  0  0  0  0  0  0
    7.8111   -4.4179   24.9636 C   0  0  0  0  0  0  0  0  0  0  0  0
    9.2596   -4.7921   24.6457 C   0  0  0  0  0  0  0  0  0  0  0  0
    9.5622   -5.8352   24.7092 H   0  0  0  0  0  0  0  0  0  0  0  0
   10.0308   -4.0680   24.9145 H   0  0  0  0  0  0  0  0  0  0  0  0
    7.1219   -5.2253   25.2064 H   0  0  0  0  0  0  0  0  0  0  0  0
    7.6177   -3.4705   25.4589 H   0  0  0  0  0  0  0  0  0  0  0  0
    8.5445   -5.6180   21.7230 H   0  0  0  0  0  0  0  0  0  0  0  0
    6.8471   -5.0006   22.0221 H   0  0  0  0  0  0  0  0  0  0  0  0
    9.4986   -3.2706   22.1312 H   0  0  0  0  0  0  0  0  0  0  0  0
    7.0990   -2.0299   20.9486 N   0  0  0  0  0  0  0  0  0  0  0  0
    6.7080   -0.7281   21.0257 N   0  0  0  0  0  0  0  0  0  0  0  0
    6.2107   -0.0657   19.8716 C   0  0  0  0  0  0  0  0  0  0  0  0
    5.2435    0.9457   19.9408 C   0  0  0  0  0  0  0  0  0  0  0  0
    4.9294    1.6357   18.7632 C   0  0  0  0  0  0  0  0  0  0  0  0
    5.5617    1.2745   17.5718 C   0  0  0  0  0  0  0  0  0  0  0  0
    6.4398    0.2587   17.4905 N   0  0  0  0  0  0  0  0  0  0  0  0
    6.7382   -0.4033   18.6105 C   0  0  0  0  0  0  0  0  0  0  0  0
    7.4463   -1.2259   18.5315 H   0  0  0  0  0  0  0  0  0  0  0  0
    5.3571    1.8068   16.6446 H   0  0  0  0  0  0  0  0  0  0  0  0
    4.2357    2.4699   18.7727 H   0  0  0  0  0  0  0  0  0  0  0  0
    4.7512    1.1992   20.8804 H   0  0  0  0  0  0  0  0  0  0  0  0
    6.8072    1.8553   21.7944 H   0  0  0  0  0  0  0  0  0  0  0  0
    5.9618    1.2492   23.2315 H   0  0  0  0  0  0  0  0  0  0  0  0
    8.1853    1.2683   24.9057 C   0  0  0  0  0  0  0  0  0  0  0  0
    7.4625    0.4531   25.1050 H   0  0  0  0  0  0  0  0  0  0  0  0
   11.2715    2.7602   24.1602 H   0  0  0  0  0  0  0  0  0  0  0  0
    8.4395    3.2882   26.5413 H   0  0  0  0  0  0  0  0  0  0  0  0
   10.1841    1.7507   25.9516 H   0  0  0  0  0  0  0  0  0  0  0  0
    9.0247    0.9570   26.9233 H   0  0  0  0  0  0  0  0  0  0  0  0
  1  2  1  0
  2  3  2  0
  3  4  1  0
  4  5  1  0
  5  6  1  0
  6  7  1  0
  7  8  2  0
  8  9  1  0
  9 10  1  0
 10 11  1  0
 11 12  1  0
 12 13  1  0
 13 14  1  0
 14 15  1  0
 14 16  1  0
 13 17  1  0
 13 18  1  0
 11 19  1  0
 11 20  1  0
 10 21  1  0
  9 22  2  0
 22 23  1  0
 23 24  1  0
 24 25  2  0
 25 26  1  0
 26 27  2  0
 27 28  1  0
 28 29  2  0
 29 30  1  0
 27 31  1  0
 26 32  1  0
 25 33  1  0
  6 34  1  0
  6 35  1  0
  5 36  2  0
 36 37  1  0
  3 38  1  0
  1 39  1  0
  1 40  1  0
  1 41  1  0
 36  2  1  0
 23  7  1  0
 29 24  1  0
 12 10  1  0
 14 12  1  0
M  END
>  <cnnaffinity>  (1) 
-6.21767

>  <filename>  (1) 
Cc1csc(Cc2nc(C3CC34CC4)nn2-c2cccnc2)c1

$$$$
