
     RDKit          3D

 48 51  0  0  0  0  0  0  0  0999 V2000
    7.9205    3.3474   26.3040 C   0  0  0  0  0  0  0  0  0  0  0  0
    6.4508    2.9851   26.2791 C   0  0  0  0  0  0  0  0  0  0  0  0
    5.5536    3.6306   27.1365 C   0  0  0  0  0  0  0  0  0  0  0  0
    4.1934    3.3094   27.0873 C   0  0  0  0  0  0  0  0  0  0  0  0
    3.7768    2.3510   26.1678 C   0  0  0  0  0  0  0  0  0  0  0  0
    4.6154    1.7042   25.3488 N   0  0  0  0  0  0  0  0  0  0  0  0
    5.9249    1.9841   25.4184 C   0  0  0  0  0  0  0  0  0  0  0  0
    6.8255    1.1273   24.5507 C   0  0  0  0  0  0  0  0  0  0  0  0
    7.2215    1.7248   23.1681 C   0  0  0  0  0  0  0  0  0  0  0  0
    8.2264    0.8831   22.4511 C   0  0  0  0  0  0  0  0  0  0  0  0
    9.5370    0.9709   22.6079 N   0  0  0  0  0  0  0  0  0  0  0  0
   10.0078   -0.1027   21.9319 C   0  0  0  0  0  0  0  0  0  0  0  0
   11.4324   -0.4754   21.8103 C   0  0  0  0  0  0  0  0  0  0  0  0
   12.4935    0.3297   22.2738 C   0  0  0  0  0  0  0  0  0  0  0  0
   13.8156   -0.0728   22.0595 C   0  0  0  0  0  0  0  0  0  0  0  0
   14.0730   -1.2286   21.3178 C   0  0  0  0  0  0  0  0  0  0  0  0
   13.0332   -1.9812   20.7931 C   0  0  0  0  0  0  0  0  0  0  0  0
   11.7215   -1.6630   21.1215 C   0  0  0  0  0  0  0  0  0  0  0  0
   10.8908   -2.2877   20.8067 H   0  0  0  0  0  0  0  0  0  0  0  0
   13.2689   -2.7787   20.0961 H   0  0  0  0  0  0  0  0  0  0  0  0
   15.0703   -1.5505   21.0892 H   0  0  0  0  0  0  0  0  0  0  0  0
   14.6421    0.5427   22.4035 H   0  0  0  0  0  0  0  0  0  0  0  0
   12.2887    1.2684   22.7801 H   0  0  0  0  0  0  0  0  0  0  0  0
    9.0566   -0.8370   21.3665 N   0  0  0  0  0  0  0  0  0  0  0  0
    7.9193   -0.2035   21.7041 N   0  0  0  0  0  0  0  0  0  0  0  0
    6.6439   -0.6583   21.1565 C   0  0  0  0  0  0  0  0  0  0  0  0
    6.1907    0.1154   19.9348 C   0  0  0  0  0  0  0  0  0  0  0  0
    4.9855    0.8212   19.8868 C   0  0  0  0  0  0  0  0  0  0  0  0
    4.6552    1.5077   18.7150 C   0  0  0  0  0  0  0  0  0  0  0  0
    5.5442    1.4658   17.6383 C   0  0  0  0  0  0  0  0  0  0  0  0
    6.7037    0.7908   17.6619 N   0  0  0  0  0  0  0  0  0  0  0  0
    7.0135    0.1478   18.7942 C   0  0  0  0  0  0  0  0  0  0  0  0
    7.9740   -0.3674   18.8149 H   0  0  0  0  0  0  0  0  0  0  0  0
    5.3117    1.9873   16.7105 H   0  0  0  0  0  0  0  0  0  0  0  0
    3.7370    2.0771   18.6299 H   0  0  0  0  0  0  0  0  0  0  0  0
    4.3184    0.8482   20.7525 H   0  0  0  0  0  0  0  0  0  0  0  0
    5.8939   -0.6110   21.9510 H   0  0  0  0  0  0  0  0  0  0  0  0
    6.7822   -1.7175   20.9186 H   0  0  0  0  0  0  0  0  0  0  0  0
    7.6836    2.7073   23.3061 H   0  0  0  0  0  0  0  0  0  0  0  0
    6.3382    1.8683   22.5333 H   0  0  0  0  0  0  0  0  0  0  0  0
    6.3077    0.1759   24.3906 H   0  0  0  0  0  0  0  0  0  0  0  0
    7.7451    0.8996   25.1058 H   0  0  0  0  0  0  0  0  0  0  0  0
    2.7277    2.0726   26.0874 H   0  0  0  0  0  0  0  0  0  0  0  0
    3.4729    3.7789   27.7473 H   0  0  0  0  0  0  0  0  0  0  0  0
    5.9233    4.3808   27.8386 H   0  0  0  0  0  0  0  0  0  0  0  0
    8.1129    4.1585   27.0114 H   0  0  0  0  0  0  0  0  0  0  0  0
    8.2739    3.6813   25.3208 H   0  0  0  0  0  0  0  0  0  0  0  0
    8.5414    2.4944   26.6009 H   0  0  0  0  0  0  0  0  0  0  0  0
  1  2  1  0
  2  3  2  0
  3  4  1  0
  4  5  2  0
  5  6  1  0
  6  7  2  0
  7  8  1  0
  8  9  1  0
  9 10  1  0
 10 11  2  0
 11 12  1  0
 12 13  1  0
 13 14  2  0
 14 15  1  0
 15 16  2  0
 16 17  1  0
 17 18  2  0
 18 19  1  0
 17 20  1  0
 16 21  1  0
 15 22  1  0
 14 23  1  0
 12 24  2  0
 24 25  1  0
 25 26  1  0
 26 27  1  0
 27 28  2  0
 28 29  1  0
 29 30  2  0
 30 31  1  0
 31 32  2  0
 32 33  1  0
 30 34  1  0
 29 35  1  0
 28 36  1  0
 26 37  1  0
 26 38  1  0
  9 39  1  0
  9 40  1  0
  8 41  1  0
  8 42  1  0
  5 43  1  0
  4 44  1  0
  3 45  1  0
  1 46  1  0
  1 47  1  0
  1 48  1  0
  7  2  1  0
 25 10  1  0
 32 27  1  0
 18 13  1  0
M  END
>  <cnnaffinity>  (1) 
-6.56243

>  <filename>  (1) 
Cc1cccnc1CCc1nc(-c2ccccc2)nn1Cc1cccnc1

$$$$
