
     RDKit          3D

 50 53  0  0  0  0  0  0  0  0999 V2000
    9.2519   -3.3415   26.8510 C   0  0  0  0  0  0  0  0  0  0  0  0
    7.9624   -4.0493   26.3923 C   0  0  0  0  0  0  0  0  0  0  0  0
    8.1909   -4.8468   25.0803 C   0  0  0  0  0  0  0  0  0  0  0  0
    8.4757   -3.9237   23.8824 C   0  0  0  0  0  0  0  0  0  0  0  0
    7.3705   -2.8602   23.7115 C   0  0  0  0  0  0  0  0  0  0  0  0
    7.6489   -1.9498   22.5528 C   0  0  0  0  0  0  0  0  0  0  0  0
    6.7063   -1.5539   21.7209 N   0  0  0  0  0  0  0  0  0  0  0  0
    7.3491   -0.6499   20.9360 N   0  0  0  0  0  0  0  0  0  0  0  0
    6.6594    0.0045   19.8819 C   0  0  0  0  0  0  0  0  0  0  0  0
    5.4377    0.6371   20.1407 C   0  0  0  0  0  0  0  0  0  0  0  0
    4.8104    1.3125   19.0922 C   0  0  0  0  0  0  0  0  0  0  0  0
    5.4081    1.3049   17.8268 C   0  0  0  0  0  0  0  0  0  0  0  0
    6.5580    0.6648   17.5600 N   0  0  0  0  0  0  0  0  0  0  0  0
    7.1655    0.0297   18.5698 C   0  0  0  0  0  0  0  0  0  0  0  0
    8.0974   -0.4850   18.3333 H   0  0  0  0  0  0  0  0  0  0  0  0
    4.9383    1.8232   16.9947 H   0  0  0  0  0  0  0  0  0  0  0  0
    3.8784    1.8449   19.2498 H   0  0  0  0  0  0  0  0  0  0  0  0
    5.0106    0.5896   21.1437 H   0  0  0  0  0  0  0  0  0  0  0  0
    8.6326   -0.5112   21.3802 C   0  0  0  0  0  0  0  0  0  0  0  0
    9.5145    0.6215   20.9648 C   0  0  0  0  0  0  0  0  0  0  0  0
    9.0500    1.9934   21.5154 C   0  0  0  0  0  0  0  0  0  0  0  0
    8.8943    2.0257   22.9640 N   0  0  0  0  0  0  0  0  0  0  0  0
    7.7068    1.8457   23.6360 C   0  0  0  0  0  0  0  0  0  0  0  0
    7.9693    1.7614   24.9811 C   0  0  0  0  0  0  0  0  0  0  0  0
    9.3843    1.8714   25.1380 C   0  0  0  0  0  0  0  0  0  0  0  0
    9.9214    2.0282   23.8812 C   0  0  0  0  0  0  0  0  0  0  0  0
   10.9516    2.1380   23.5553 H   0  0  0  0  0  0  0  0  0  0  0  0
    9.9415    1.7921   26.0653 H   0  0  0  0  0  0  0  0  0  0  0  0
    7.2419    1.5809   25.7672 H   0  0  0  0  0  0  0  0  0  0  0  0
    6.7788    1.7578   23.0785 H   0  0  0  0  0  0  0  0  0  0  0  0
    9.7750    2.7650   21.2343 H   0  0  0  0  0  0  0  0  0  0  0  0
    8.0887    2.2734   21.0710 H   0  0  0  0  0  0  0  0  0  0  0  0
    9.5564    0.6833   19.8742 H   0  0  0  0  0  0  0  0  0  0  0  0
   10.5198    0.4024   21.3309 H   0  0  0  0  0  0  0  0  0  0  0  0
    8.8685   -1.3743   22.3477 N   0  0  0  0  0  0  0  0  0  0  0  0
    7.1667   -2.0603   25.0265 C   0  0  0  0  0  0  0  0  0  0  0  0
    6.8573   -2.9832   26.2127 C   0  0  0  0  0  0  0  0  0  0  0  0
    5.8664   -3.4390   26.0818 H   0  0  0  0  0  0  0  0  0  0  0  0
    6.7863   -2.3873   27.1332 H   0  0  0  0  0  0  0  0  0  0  0  0
    8.0917   -1.5082   25.2413 H   0  0  0  0  0  0  0  0  0  0  0  0
    6.3753   -1.3113   24.9072 H   0  0  0  0  0  0  0  0  0  0  0  0
    6.4246   -3.3617   23.4776 H   0  0  0  0  0  0  0  0  0  0  0  0
    9.4400   -3.4134   24.0229 H   0  0  0  0  0  0  0  0  0  0  0  0
    8.5841   -4.5087   22.9625 H   0  0  0  0  0  0  0  0  0  0  0  0
    7.3004   -5.4551   24.8502 H   0  0  0  0  0  0  0  0  0  0  0  0
    9.0250   -5.5518   25.2113 H   0  0  0  0  0  0  0  0  0  0  0  0
    7.6338   -4.7578   27.1675 H   0  0  0  0  0  0  0  0  0  0  0  0
    9.9629   -4.0251   27.3264 H   0  0  0  0  0  0  0  0  0  0  0  0
    9.7459   -2.8716   25.9954 H   0  0  0  0  0  0  0  0  0  0  0  0
    9.0253   -2.5123   27.5291 H   0  0  0  0  0  0  0  0  0  0  0  0
  1  2  1  0
  2  3  1  0
  3  4  1  0
  4  5  1  0
  5  6  1  0
  6  7  2  0
  7  8  1  0
  8  9  1  0
  9 10  2  0
 10 11  1  0
 11 12  2  0
 12 13  1  0
 13 14  2  0
 14 15  1  0
 12 16  1  0
 11 17  1  0
 10 18  1  0
  8 19  1  0
 19 20  1  0
 20 21  1  0
 21 22  1  0
 22 23  1  0
 23 24  2  0
 24 25  1  0
 25 26  2  0
 26 27  1  0
 25 28  1  0
 24 29  1  0
 23 30  1  0
 21 31  1  0
 21 32  1  0
 20 33  1  0
 20 34  1  0
 19 35  2  0
  5 36  1  0
 36 37  1  0
 37 38  1  0
 37 39  1  0
 36 40  1  0
 36 41  1  0
  5 42  1  0
  4 43  1  0
  4 44  1  0
  3 45  1  0
  3 46  1  0
  2 47  1  0
  1 48  1  0
  1 49  1  0
  1 50  1  0
 37  2  1  0
 35  6  1  0
 14  9  1  0
 26 22  1  0
M  END
>  <cnnaffinity>  (1) 
-6.17302

>  <filename>  (1) 
CC1CCC(c2nc(CCn3cccc3)n(-c3cccnc3)n2)CC1

$$$$
