
     RDKit          3D

 49 52  0  0  0  0  0  0  0  0999 V2000
    5.7186    1.7458   25.1693 C   0  0  0  0  0  0  0  0  0  0  0  0
    7.0987    1.6765   24.5836 C   0  0  0  0  0  0  0  0  0  0  0  0
    7.3444    1.6656   23.2802 N   0  0  0  0  0  0  0  0  0  0  0  0
    8.6983    1.6440   23.1501 N   0  0  0  0  0  0  0  0  0  0  0  0
    9.2532    1.7111   21.7724 C   0  0  0  0  0  0  0  0  0  0  0  0
   10.5170    2.5693   21.6460 C   0  0  0  0  0  0  0  0  0  0  0  0
   11.3999    2.0521   22.0512 H   0  0  0  0  0  0  0  0  0  0  0  0
   10.7200    2.7455   20.5855 H   0  0  0  0  0  0  0  0  0  0  0  0
   10.4092    3.5474   22.1262 H   0  0  0  0  0  0  0  0  0  0  0  0
    9.5398    0.3240   21.0958 C   0  0  0  0  0  0  0  0  0  0  0  0
    8.5744   -0.7634   21.4110 C   0  0  0  0  0  0  0  0  0  0  0  0
    8.7503   -1.6405   22.3770 N   0  0  0  0  0  0  0  0  0  0  0  0
    7.5142   -2.1787   22.5381 C   0  0  0  0  0  0  0  0  0  0  0  0
    7.2531   -3.0036   23.7538 C   0  0  0  0  0  0  0  0  0  0  0  0
    6.3168   -2.3671   24.8440 C   0  0  0  0  0  0  0  0  0  0  0  0
    5.2909   -3.5007   24.6041 C   0  0  0  0  0  0  0  0  0  0  0  0
    6.2768   -4.2052   23.6394 C   0  0  0  0  0  0  0  0  0  0  0  0
    5.9102   -4.4002   22.6250 H   0  0  0  0  0  0  0  0  0  0  0  0
    6.7039   -5.1303   24.0455 H   0  0  0  0  0  0  0  0  0  0  0  0
    5.0065   -4.0719   25.4952 H   0  0  0  0  0  0  0  0  0  0  0  0
    4.3706   -3.1635   24.1155 H   0  0  0  0  0  0  0  0  0  0  0  0
    6.7659   -2.3851   25.8429 H   0  0  0  0  0  0  0  0  0  0  0  0
    5.9708   -1.3395   24.6459 H   0  0  0  0  0  0  0  0  0  0  0  0
    8.2468   -3.2590   24.1379 H   0  0  0  0  0  0  0  0  0  0  0  0
    6.6116   -1.7666   21.6660 N   0  0  0  0  0  0  0  0  0  0  0  0
    7.3093   -0.8669   20.9139 N   0  0  0  0  0  0  0  0  0  0  0  0
    6.6583   -0.1190   19.8849 C   0  0  0  0  0  0  0  0  0  0  0  0
    5.5078    0.6178   20.1862 C   0  0  0  0  0  0  0  0  0  0  0  0
    4.8945    1.3372   19.1556 C   0  0  0  0  0  0  0  0  0  0  0  0
    5.4520    1.3036   17.8731 C   0  0  0  0  0  0  0  0  0  0  0  0
    6.5541    0.5967   17.5772 N   0  0  0  0  0  0  0  0  0  0  0  0
    7.1367   -0.0944   18.5635 C   0  0  0  0  0  0  0  0  0  0  0  0
    8.0299   -0.6551   18.2857 H   0  0  0  0  0  0  0  0  0  0  0  0
    4.9972    1.8590   17.0533 H   0  0  0  0  0  0  0  0  0  0  0  0
    4.0016    1.9268   19.3325 H   0  0  0  0  0  0  0  0  0  0  0  0
    5.1381    0.6300   21.2127 H   0  0  0  0  0  0  0  0  0  0  0  0
    9.5702    0.4853   20.0141 H   0  0  0  0  0  0  0  0  0  0  0  0
   10.5222   -0.0482   21.3953 H   0  0  0  0  0  0  0  0  0  0  0  0
    8.4347    2.1762   21.2140 H   0  0  0  0  0  0  0  0  0  0  0  0
    9.3070    1.6134   24.3723 C   0  0  0  0  0  0  0  0  0  0  0  0
   10.7805    1.5914   24.6357 C   0  0  0  0  0  0  0  0  0  0  0  0
   10.9479    1.3570   25.6882 H   0  0  0  0  0  0  0  0  0  0  0  0
   11.3078    0.8420   24.0366 H   0  0  0  0  0  0  0  0  0  0  0  0
   11.2329    2.5698   24.4401 H   0  0  0  0  0  0  0  0  0  0  0  0
    8.3037    1.6599   25.3123 C   0  0  0  0  0  0  0  0  0  0  0  0
    8.4184    1.7030   26.3864 H   0  0  0  0  0  0  0  0  0  0  0  0
    4.9600    1.4215   24.4506 H   0  0  0  0  0  0  0  0  0  0  0  0
    5.4853    2.7720   25.4786 H   0  0  0  0  0  0  0  0  0  0  0  0
    5.6515    1.1182   26.0658 H   0  0  0  0  0  0  0  0  0  0  0  0
  1  2  1  0
  2  3  2  0
  3  4  1  0
  4  5  1  0
  5  6  1  0
  6  7  1  0
  6  8  1  0
  6  9  1  0
  5 10  1  0
 10 11  1  0
 11 12  2  0
 12 13  1  0
 13 14  1  0
 14 15  1  0
 15 16  1  0
 16 17  1  0
 17 18  1  0
 17 19  1  0
 16 20  1  0
 16 21  1  0
 15 22  1  0
 15 23  1  0
 14 24  1  0
 13 25  2  0
 25 26  1  0
 26 27  1  0
 27 28  2  0
 28 29  1  0
 29 30  2  0
 30 31  1  0
 31 32  2  0
 32 33  1  0
 30 34  1  0
 29 35  1  0
 28 36  1  0
 10 37  1  0
 10 38  1  0
  5 39  1  0
  4 40  1  0
 40 41  1  0
 41 42  1  0
 41 43  1  0
 41 44  1  0
 40 45  2  0
 45 46  1  0
  1 47  1  0
  1 48  1  0
  1 49  1  0
 45  2  1  0
 26 11  1  0
 32 27  1  0
 17 14  1  0
M  END
>  <cnnaffinity>  (1) 
-6.27748

>  <filename>  (1) 
Cc1cc(C)n(C(C)Cc2nc(C3CCC3)nn2-c2cccnc2)n1

$$$$
