
     RDKit          3D

 44 46  0  0  0  0  0  0  0  0999 V2000
    9.6464    2.1491   21.0632 C   0  0  0  0  0  0  0  0  0  0  0  0
    9.7966    2.1489   22.5563 C   0  0  0  0  0  0  0  0  0  0  0  0
   10.9728    2.6225   23.1469 C   0  0  0  0  0  0  0  0  0  0  0  0
   11.1150    2.5497   24.5298 C   0  0  0  0  0  0  0  0  0  0  0  0
   10.0672    2.0355   25.2869 C   0  0  0  0  0  0  0  0  0  0  0  0
    8.9114    1.6217   24.7464 N   0  0  0  0  0  0  0  0  0  0  0  0
    8.7735    1.6818   23.4202 C   0  0  0  0  0  0  0  0  0  0  0  0
    7.4547    1.1867   22.8643 C   0  0  0  0  0  0  0  0  0  0  0  0
    7.6379   -0.1694   22.2547 C   0  0  0  0  0  0  0  0  0  0  0  0
    8.2286   -1.1625   22.8884 N   0  0  0  0  0  0  0  0  0  0  0  0
    8.2108   -2.1732   21.9846 C   0  0  0  0  0  0  0  0  0  0  0  0
    8.7258   -3.5425   22.2664 C   0  0  0  0  0  0  0  0  0  0  0  0
    7.8496   -4.3936   23.2050 C   0  0  0  0  0  0  0  0  0  0  0  0
    8.6112   -5.6544   23.6188 C   0  0  0  0  0  0  0  0  0  0  0  0
    8.8569   -6.2688   22.7431 H   0  0  0  0  0  0  0  0  0  0  0  0
    8.0228   -6.2789   24.2983 H   0  0  0  0  0  0  0  0  0  0  0  0
    9.5495   -5.4064   24.1301 H   0  0  0  0  0  0  0  0  0  0  0  0
    6.5400   -4.7371   22.4921 C   0  0  0  0  0  0  0  0  0  0  0  0
    5.8771   -5.3413   23.1201 H   0  0  0  0  0  0  0  0  0  0  0  0
    6.0022   -3.8359   22.1761 H   0  0  0  0  0  0  0  0  0  0  0  0
    6.7507   -5.3244   21.5870 H   0  0  0  0  0  0  0  0  0  0  0  0
    7.6321   -3.8132   24.1160 H   0  0  0  0  0  0  0  0  0  0  0  0
    9.7388   -3.4480   22.6634 H   0  0  0  0  0  0  0  0  0  0  0  0
    8.7717   -4.0487   21.2999 H   0  0  0  0  0  0  0  0  0  0  0  0
    7.6749   -1.8665   20.8243 N   0  0  0  0  0  0  0  0  0  0  0  0
    7.2791   -0.5815   20.9964 N   0  0  0  0  0  0  0  0  0  0  0  0
    6.6001    0.0611   19.9271 C   0  0  0  0  0  0  0  0  0  0  0  0
    5.3934    0.7340   20.1293 C   0  0  0  0  0  0  0  0  0  0  0  0
    4.8010    1.3641   19.0277 C   0  0  0  0  0  0  0  0  0  0  0  0
    5.4434    1.3072   17.7875 C   0  0  0  0  0  0  0  0  0  0  0  0
    6.5800    0.6219   17.5783 N   0  0  0  0  0  0  0  0  0  0  0  0
    7.1265   -0.0104   18.6232 C   0  0  0  0  0  0  0  0  0  0  0  0
    8.0145   -0.6076   18.4277 H   0  0  0  0  0  0  0  0  0  0  0  0
    5.0148    1.8098   16.9210 H   0  0  0  0  0  0  0  0  0  0  0  0
    3.8530    1.8793   19.1240 H   0  0  0  0  0  0  0  0  0  0  0  0
    4.9238    0.7323   21.1138 H   0  0  0  0  0  0  0  0  0  0  0  0
    6.7501    1.0808   23.6929 H   0  0  0  0  0  0  0  0  0  0  0  0
    7.0457    1.8972   22.1388 H   0  0  0  0  0  0  0  0  0  0  0  0
   10.1553    1.9534   26.3655 H   0  0  0  0  0  0  0  0  0  0  0  0
   12.0202    2.8813   25.0104 H   0  0  0  0  0  0  0  0  0  0  0  0
   11.7750    3.0345   22.5335 H   0  0  0  0  0  0  0  0  0  0  0  0
   10.5747    2.4962   20.6034 H   0  0  0  0  0  0  0  0  0  0  0  0
    8.8281    2.8021   20.7321 H   0  0  0  0  0  0  0  0  0  0  0  0
    9.4272    1.1440   20.6811 H   0  0  0  0  0  0  0  0  0  0  0  0
  1  2  1  0
  2  3  2  0
  3  4  1  0
  4  5  2  0
  5  6  1  0
  6  7  2  0
  7  8  1  0
  8  9  1  0
  9 10  2  0
 10 11  1  0
 11 12  1  0
 12 13  1  0
 13 14  1  0
 14 15  1  0
 14 16  1  0
 14 17  1  0
 13 18  1  0
 18 19  1  0
 18 20  1  0
 18 21  1  0
 13 22  1  0
 12 23  1  0
 12 24  1  0
 11 25  2  0
 25 26  1  0
 26 27  1  0
 27 28  2  0
 28 29  1  0
 29 30  2  0
 30 31  1  0
 31 32  2  0
 32 33  1  0
 30 34  1  0
 29 35  1  0
 28 36  1  0
  8 37  1  0
  8 38  1  0
  5 39  1  0
  4 40  1  0
  3 41  1  0
  1 42  1  0
  1 43  1  0
  1 44  1  0
  7  2  1  0
 26  9  1  0
 32 27  1  0
M  END
>  <cnnaffinity>  (1) 
-6.30537

>  <filename>  (1) 
Cc1cccnc1Cc1nc(CC(C)C)nn1-c1cccnc1

$$$$
