
     RDKit          3D

 45 48  0  0  0  0  0  0  0  0999 V2000
    7.2843    0.5357   25.1241 C   0  0  0  0  0  0  0  0  0  0  0  0
    7.7573    1.9642   25.0413 C   0  0  0  0  0  0  0  0  0  0  0  0
    8.2630    2.5951   26.1832 C   0  0  0  0  0  0  0  0  0  0  0  0
    8.7161    3.9105   26.1041 C   0  0  0  0  0  0  0  0  0  0  0  0
    8.6967    4.6324   24.9807 N   0  0  0  0  0  0  0  0  0  0  0  0
    8.2256    4.0240   23.8839 C   0  0  0  0  0  0  0  0  0  0  0  0
    7.7466    2.7078   23.8396 C   0  0  0  0  0  0  0  0  0  0  0  0
    7.3702    2.0555   22.5118 C   0  0  0  0  0  0  0  0  0  0  0  0
    8.3123    0.9429   22.1361 C   0  0  0  0  0  0  0  0  0  0  0  0
    9.6152    0.9894   22.3347 N   0  0  0  0  0  0  0  0  0  0  0  0
   10.0389   -0.2265   21.9279 C   0  0  0  0  0  0  0  0  0  0  0  0
   11.4526   -0.6247   21.8611 C   0  0  0  0  0  0  0  0  0  0  0  0
   12.4842    0.1533   22.4163 C   0  0  0  0  0  0  0  0  0  0  0  0
   13.7933   -0.1935   22.1051 C   0  0  0  0  0  0  0  0  0  0  0  0
   14.7852    0.5472   22.6152 F   0  0  0  0  0  0  0  0  0  0  0  0
   14.1012   -1.2437   21.2388 C   0  0  0  0  0  0  0  0  0  0  0  0
   13.0678   -1.9939   20.6985 C   0  0  0  0  0  0  0  0  0  0  0  0
   11.7560   -1.7374   21.0694 C   0  0  0  0  0  0  0  0  0  0  0  0
   10.9165   -2.3359   20.7271 H   0  0  0  0  0  0  0  0  0  0  0  0
   13.3051   -2.7624   19.9660 H   0  0  0  0  0  0  0  0  0  0  0  0
   15.1046   -1.4867   20.9444 H   0  0  0  0  0  0  0  0  0  0  0  0
   12.2727    1.0189   23.0433 H   0  0  0  0  0  0  0  0  0  0  0  0
    9.0748   -1.0077   21.4609 N   0  0  0  0  0  0  0  0  0  0  0  0
    7.9684   -0.2551   21.6000 N   0  0  0  0  0  0  0  0  0  0  0  0
    6.7014   -0.7436   21.0719 C   0  0  0  0  0  0  0  0  0  0  0  0
    6.2004    0.0420   19.8782 C   0  0  0  0  0  0  0  0  0  0  0  0
    4.9934    0.7429   19.9090 C   0  0  0  0  0  0  0  0  0  0  0  0
    4.6008    1.4593   18.7771 C   0  0  0  0  0  0  0  0  0  0  0  0
    5.4350    1.4476   17.6571 C   0  0  0  0  0  0  0  0  0  0  0  0
    6.5924    0.7701   17.6014 N   0  0  0  0  0  0  0  0  0  0  0  0
    6.9580    0.0949   18.6966 C   0  0  0  0  0  0  0  0  0  0  0  0
    7.9068   -0.4404   18.6301 H   0  0  0  0  0  0  0  0  0  0  0  0
    5.1611    1.9986   16.7608 H   0  0  0  0  0  0  0  0  0  0  0  0
    3.6822    2.0341   18.7598 H   0  0  0  0  0  0  0  0  0  0  0  0
    4.3807    0.7370   20.8142 H   0  0  0  0  0  0  0  0  0  0  0  0
    6.8803   -1.7915   20.8097 H   0  0  0  0  0  0  0  0  0  0  0  0
    5.9594   -0.7375   21.8757 H   0  0  0  0  0  0  0  0  0  0  0  0
    6.3484    1.6622   22.5390 H   0  0  0  0  0  0  0  0  0  0  0  0
    7.3962    2.8005   21.7086 H   0  0  0  0  0  0  0  0  0  0  0  0
    8.2442    4.6170   22.9672 H   0  0  0  0  0  0  0  0  0  0  0  0
    9.1042    4.4127   26.9879 H   0  0  0  0  0  0  0  0  0  0  0  0
    8.3184    2.0536   27.1215 H   0  0  0  0  0  0  0  0  0  0  0  0
    7.8975   -0.1357   24.5152 H   0  0  0  0  0  0  0  0  0  0  0  0
    7.3359    0.1691   26.1516 H   0  0  0  0  0  0  0  0  0  0  0  0
    6.2492    0.4251   24.7861 H   0  0  0  0  0  0  0  0  0  0  0  0
  1  2  1  0
  2  3  2  0
  3  4  1  0
  4  5  2  0
  5  6  1  0
  6  7  2  0
  7  8  1  0
  8  9  1  0
  9 10  2  0
 10 11  1  0
 11 12  1  0
 12 13  2  0
 13 14  1  0
 14 15  1  0
 14 16  2  0
 16 17  1  0
 17 18  2  0
 18 19  1  0
 17 20  1  0
 16 21  1  0
 13 22  1  0
 11 23  2  0
 23 24  1  0
 24 25  1  0
 25 26  1  0
 26 27  2  0
 27 28  1  0
 28 29  2  0
 29 30  1  0
 30 31  2  0
 31 32  1  0
 29 33  1  0
 28 34  1  0
 27 35  1  0
 25 36  1  0
 25 37  1  0
  8 38  1  0
  8 39  1  0
  6 40  1  0
  4 41  1  0
  3 42  1  0
  1 43  1  0
  1 44  1  0
  1 45  1  0
  7  2  1  0
 24  9  1  0
 31 26  1  0
 18 12  1  0
M  END
>  <cnnaffinity>  (1) 
-6.56898

>  <filename>  (1) 
Cc1ccncc1Cc1nc(-c2cccc(F)c2)nn1Cc1cccnc1

$$$$
