
     RDKit          3D

 51 54  0  0  0  0  0  0  0  0999 V2000
    9.3534    4.6866   24.8509 C   0  0  0  0  0  0  0  0  0  0  0  0
    8.9101    3.2557   25.0095 C   0  0  0  0  0  0  0  0  0  0  0  0
    7.6054    2.9470   25.4263 C   0  0  0  0  0  0  0  0  0  0  0  0
    7.1780    1.6236   25.5476 C   0  0  0  0  0  0  0  0  0  0  0  0
    8.0585    0.5767   25.2419 C   0  0  0  0  0  0  0  0  0  0  0  0
    7.6074   -0.7761   25.3466 N   0  0  0  0  0  0  0  0  0  0  0  0
    7.0051   -1.2441   26.4751 N   0  0  0  0  0  0  0  0  0  0  0  0
    6.7220   -2.4872   26.1667 C   0  0  0  0  0  0  0  0  0  0  0  0
    6.0040   -3.4230   27.1034 C   0  0  0  0  0  0  0  0  0  0  0  0
    6.7719   -4.7467   27.3202 C   0  0  0  0  0  0  0  0  0  0  0  0
    5.9496   -5.7187   28.1659 C   0  0  0  0  0  0  0  0  0  0  0  0
    4.6703   -5.9521   27.6020 O   0  0  0  0  0  0  0  0  0  0  0  0
    3.8997   -4.7660   27.5241 C   0  0  0  0  0  0  0  0  0  0  0  0
    4.5607   -3.7202   26.6276 C   0  0  0  0  0  0  0  0  0  0  0  0
    3.9576   -2.8038   26.6224 H   0  0  0  0  0  0  0  0  0  0  0  0
    4.5918   -4.1018   25.6008 H   0  0  0  0  0  0  0  0  0  0  0  0
    2.9163   -5.0520   27.1359 H   0  0  0  0  0  0  0  0  0  0  0  0
    3.7532   -4.3571   28.5387 H   0  0  0  0  0  0  0  0  0  0  0  0
    6.4449   -6.6929   28.2415 H   0  0  0  0  0  0  0  0  0  0  0  0
    5.8315   -5.3226   29.1892 H   0  0  0  0  0  0  0  0  0  0  0  0
    6.9743   -5.2089   26.3470 H   0  0  0  0  0  0  0  0  0  0  0  0
    7.7390   -4.5628   27.8046 H   0  0  0  0  0  0  0  0  0  0  0  0
    5.9352   -2.8916   28.0585 H   0  0  0  0  0  0  0  0  0  0  0  0
    7.0706   -2.8543   24.8998 N   0  0  0  0  0  0  0  0  0  0  0  0
    7.6161   -1.7614   24.4087 C   0  0  0  0  0  0  0  0  0  0  0  0
    8.0144   -1.5797   22.9803 C   0  0  0  0  0  0  0  0  0  0  0  0
    6.9721   -0.7731   22.2071 C   0  0  0  0  0  0  0  0  0  0  0  0
    7.4170   -0.6829   20.8567 O   0  0  0  0  0  0  0  0  0  0  0  0
    6.6691   -0.0021   19.9374 C   0  0  0  0  0  0  0  0  0  0  0  0
    5.4470    0.6427   20.1807 C   0  0  0  0  0  0  0  0  0  0  0  0
    4.8146    1.3032   19.1120 C   0  0  0  0  0  0  0  0  0  0  0  0
    5.4019    1.2905   17.8443 C   0  0  0  0  0  0  0  0  0  0  0  0
    6.5690    0.6684   17.5988 N   0  0  0  0  0  0  0  0  0  0  0  0
    7.1787    0.0545   18.6160 C   0  0  0  0  0  0  0  0  0  0  0  0
    8.1240   -0.4349   18.3971 H   0  0  0  0  0  0  0  0  0  0  0  0
    4.9184    1.7802   16.9960 H   0  0  0  0  0  0  0  0  0  0  0  0
    3.8805    1.8376   19.2627 H   0  0  0  0  0  0  0  0  0  0  0  0
    5.0027    0.6302   21.1777 H   0  0  0  0  0  0  0  0  0  0  0  0
    6.8513    0.2272   22.6500 H   0  0  0  0  0  0  0  0  0  0  0  0
    6.0065   -1.2912   22.2499 H   0  0  0  0  0  0  0  0  0  0  0  0
    8.1275   -2.5652   22.5257 H   0  0  0  0  0  0  0  0  0  0  0  0
    8.9814   -1.0780   22.9033 H   0  0  0  0  0  0  0  0  0  0  0  0
    9.3661    0.8667   24.8265 C   0  0  0  0  0  0  0  0  0  0  0  0
    9.7791    2.1965   24.7168 C   0  0  0  0  0  0  0  0  0  0  0  0
   10.7897    2.4167   24.3850 H   0  0  0  0  0  0  0  0  0  0  0  0
   10.0645    0.0625   24.6165 H   0  0  0  0  0  0  0  0  0  0  0  0
    6.1713    1.3946   25.8856 H   0  0  0  0  0  0  0  0  0  0  0  0
    6.9228    3.7603   25.6604 H   0  0  0  0  0  0  0  0  0  0  0  0
   10.4289    4.8016   25.0171 H   0  0  0  0  0  0  0  0  0  0  0  0
    8.8358    5.3537   25.5473 H   0  0  0  0  0  0  0  0  0  0  0  0
    9.1435    5.0485   23.8385 H   0  0  0  0  0  0  0  0  0  0  0  0
  1  2  1  0
  2  3  2  0
  3  4  1  0
  4  5  2  0
  5  6  1  0
  6  7  1  0
  7  8  2  0
  8  9  1  0
  9 10  1  0
 10 11  1  0
 11 12  1  0
 12 13  1  0
 13 14  1  0
 14 15  1  0
 14 16  1  0
 13 17  1  0
 13 18  1  0
 11 19  1  0
 11 20  1  0
 10 21  1  0
 10 22  1  0
  9 23  1  0
  8 24  1  0
 24 25  2  0
 25 26  1  0
 26 27  1  0
 27 28  1  0
 28 29  1  0
 29 30  2  0
 30 31  1  0
 31 32  2  0
 32 33  1  0
 33 34  2  0
 34 35  1  0
 32 36  1  0
 31 37  1  0
 30 38  1  0
 27 39  1  0
 27 40  1  0
 26 41  1  0
 26 42  1  0
  5 43  1  0
 43 44  2  0
 44 45  1  0
 43 46  1  0
  4 47  1  0
  3 48  1  0
  1 49  1  0
  1 50  1  0
  1 51  1  0
 44  2  1  0
 25  6  1  0
 34 29  1  0
 14  9  1  0
M  END
>  <cnnaffinity>  (1) 
-5.58014

>  <filename>  (1) 
Cc1ccc(-n2nc(C3CCOCC3)nc2CCOc2cccnc2)cc1

$$$$
