
     RDKit          3D

 46 49  0  0  0  0  0  0  0  0999 V2000
    4.7167   -0.5248   26.0164 C   0  0  0  0  0  0  0  0  0  0  0  0
    6.0937   -0.0266   25.6451 C   0  0  0  0  0  0  0  0  0  0  0  0
    7.1674   -0.2302   26.5181 C   0  0  0  0  0  0  0  0  0  0  0  0
    8.4271    0.2539   26.1810 C   0  0  0  0  0  0  0  0  0  0  0  0
    9.4546    0.0090   27.0080 F   0  0  0  0  0  0  0  0  0  0  0  0
    8.6585    0.9498   25.0052 C   0  0  0  0  0  0  0  0  0  0  0  0
    7.5981    1.1367   24.1024 C   0  0  0  0  0  0  0  0  0  0  0  0
    7.9022    1.7844   22.7473 C   0  0  0  0  0  0  0  0  0  0  0  0
    8.9451    0.9834   22.0215 C   0  0  0  0  0  0  0  0  0  0  0  0
   10.2476    1.0815   22.2149 N   0  0  0  0  0  0  0  0  0  0  0  0
   10.7109   -0.1090   21.7462 C   0  0  0  0  0  0  0  0  0  0  0  0
   12.0871   -0.4878   21.9635 C   0  0  0  0  0  0  0  0  0  0  0  0
   12.9669    0.3302   22.5797 C   0  0  0  0  0  0  0  0  0  0  0  0
   14.3254    0.1059   22.5555 N   0  0  0  0  0  0  0  0  0  0  0  0
   15.0365    1.1459   22.3973 C   0  0  0  0  0  0  0  0  0  0  0  0
   15.9364    1.1012   21.7676 H   0  0  0  0  0  0  0  0  0  0  0  0
   16.2953    0.6644   19.9743 H   0  0  0  0  0  0  0  0  0  0  0  0
   14.6586    2.1328   22.7059 H   0  0  0  0  0  0  0  0  0  0  0  0
   13.6779   -2.3268   21.5986 N   0  0  0  0  0  0  0  0  0  0  0  0
   12.5723   -1.8162   21.4553 C   0  0  0  0  0  0  0  0  0  0  0  0
   11.6952   -2.3446   20.8995 H   0  0  0  0  0  0  0  0  0  0  0  0
   12.6377    1.2557   23.0657 H   0  0  0  0  0  0  0  0  0  0  0  0
    9.7903   -0.8869   21.2096 N   0  0  0  0  0  0  0  0  0  0  0  0
    8.6589   -0.1723   21.3837 N   0  0  0  0  0  0  0  0  0  0  0  0
    7.3788   -0.7496   21.0054 C   0  0  0  0  0  0  0  0  0  0  0  0
    6.6847    0.0021   19.8979 C   0  0  0  0  0  0  0  0  0  0  0  0
    5.4440    0.6179   20.0654 C   0  0  0  0  0  0  0  0  0  0  0  0
    4.8803    1.3011   18.9872 C   0  0  0  0  0  0  0  0  0  0  0  0
    5.5760    1.3295   17.7759 C   0  0  0  0  0  0  0  0  0  0  0  0
    6.7691    0.7407   17.5935 N   0  0  0  0  0  0  0  0  0  0  0  0
    7.3027    0.1002   18.6394 C   0  0  0  0  0  0  0  0  0  0  0  0
    8.2672   -0.3814   18.4718 H   0  0  0  0  0  0  0  0  0  0  0  0
    5.1469    1.8236   16.9070 H   0  0  0  0  0  0  0  0  0  0  0  0
    3.9239    1.8002   19.0742 H   0  0  0  0  0  0  0  0  0  0  0  0
    4.9300    0.5650   21.0267 H   0  0  0  0  0  0  0  0  0  0  0  0
    7.6142   -1.7679   20.6834 H   0  0  0  0  0  0  0  0  0  0  0  0
    6.7446   -0.8189   21.8985 H   0  0  0  0  0  0  0  0  0  0  0  0
    8.3068    2.7890   22.8917 H   0  0  0  0  0  0  0  0  0  0  0  0
    7.0038    1.8934   22.1343 H   0  0  0  0  0  0  0  0  0  0  0  0
    6.3292    0.6528   24.4343 C   0  0  0  0  0  0  0  0  0  0  0  0
    5.5041    0.7765   23.7367 H   0  0  0  0  0  0  0  0  0  0  0  0
    9.6607    1.2875   24.7640 H   0  0  0  0  0  0  0  0  0  0  0  0
    7.0433   -0.7593   27.4572 H   0  0  0  0  0  0  0  0  0  0  0  0
    4.7743   -1.2902   26.7979 H   0  0  0  0  0  0  0  0  0  0  0  0
    4.0920    0.2935   26.3949 H   0  0  0  0  0  0  0  0  0  0  0  0
    4.1999   -0.9657   25.1585 H   0  0  0  0  0  0  0  0  0  0  0  0
  1  2  1  0
  2  3  2  0
  3  4  1  0
  4  5  1  0
  4  6  2  0
  6  7  1  0
  7  8  1  0
  8  9  1  0
  9 10  2  0
 10 11  1  0
 11 12  1  0
 12 13  2  0
 13 14  1  0
 14 15  1  0
 15 16  1  0
 15 17  1  0
 15 18  1  0
 14 19  1  0
 19 20  2  0
 20 21  1  0
 13 22  1  0
 11 23  2  0
 23 24  1  0
 24 25  1  0
 25 26  1  0
 26 27  2  0
 27 28  1  0
 28 29  2  0
 29 30  1  0
 30 31  2  0
 31 32  1  0
 29 33  1  0
 28 34  1  0
 27 35  1  0
 25 36  1  0
 25 37  1  0
  8 38  1  0
  8 39  1  0
  7 40  2  0
 40 41  1  0
  6 42  1  0
  3 43  1  0
  1 44  1  0
  1 45  1  0
  1 46  1  0
 40  2  1  0
 24  9  1  0
 31 26  1  0
 20 12  1  0
M  END
>  <cnnaffinity>  (1) 
-6.66939

>  <filename>  (1) 
Cc1cc(F)cc(Cc2nc(-c3cnn(C)c3)nn2Cc2cccnc2)c1

$$$$
