
     RDKit          3D

 41 44  0  0  0  0  0  0  0  0999 V2000
    5.2717    3.5891   22.7693 C   0  0  0  0  0  0  0  0  0  0  0  0
    5.2871    2.3245   23.5810 C   0  0  0  0  0  0  0  0  0  0  0  0
    6.2516    1.3645   23.5084 C   0  0  0  0  0  0  0  0  0  0  0  0
    7.5204    1.2486   22.7339 C   0  0  0  0  0  0  0  0  0  0  0  0
    7.6951   -0.1290   22.2054 C   0  0  0  0  0  0  0  0  0  0  0  0
    8.2544   -1.0885   22.9056 N   0  0  0  0  0  0  0  0  0  0  0  0
    8.3115   -2.1202   22.0281 C   0  0  0  0  0  0  0  0  0  0  0  0
    8.7914   -3.5200   22.3332 C   0  0  0  0  0  0  0  0  0  0  0  0
    7.8230   -4.4010   23.1776 C   0  0  0  0  0  0  0  0  0  0  0  0
    8.7804   -5.2854   23.9882 C   0  0  0  0  0  0  0  0  0  0  0  0
    9.9631   -4.3417   24.1929 C   0  0  0  0  0  0  0  0  0  0  0  0
   10.0471   -3.5572   23.0079 O   0  0  0  0  0  0  0  0  0  0  0  0
   10.9160   -4.8625   24.3422 H   0  0  0  0  0  0  0  0  0  0  0  0
    9.7974   -3.6731   25.0515 H   0  0  0  0  0  0  0  0  0  0  0  0
    8.3604   -5.6159   24.9438 H   0  0  0  0  0  0  0  0  0  0  0  0
    9.0649   -6.1883   23.4289 H   0  0  0  0  0  0  0  0  0  0  0  0
    7.2243   -3.7595   23.8390 H   0  0  0  0  0  0  0  0  0  0  0  0
    7.1435   -4.9761   22.5374 H   0  0  0  0  0  0  0  0  0  0  0  0
    8.8879   -3.9429   21.3272 H   0  0  0  0  0  0  0  0  0  0  0  0
    7.8217   -1.8519   20.8283 N   0  0  0  0  0  0  0  0  0  0  0  0
    7.3783   -0.5762   20.9541 N   0  0  0  0  0  0  0  0  0  0  0  0
    6.6386    0.0467   19.9115 C   0  0  0  0  0  0  0  0  0  0  0  0
    5.4288    0.7101   20.1556 C   0  0  0  0  0  0  0  0  0  0  0  0
    4.8064    1.3453   19.0751 C   0  0  0  0  0  0  0  0  0  0  0  0
    5.4105    1.2991   17.8142 C   0  0  0  0  0  0  0  0  0  0  0  0
    6.5494    0.6250   17.5697 N   0  0  0  0  0  0  0  0  0  0  0  0
    7.1327    0.0012   18.5965 C   0  0  0  0  0  0  0  0  0  0  0  0
    8.0417   -0.5549   18.3821 H   0  0  0  0  0  0  0  0  0  0  0  0
    4.9724    1.8230   16.9664 H   0  0  0  0  0  0  0  0  0  0  0  0
    3.8672    1.8787   19.1912 H   0  0  0  0  0  0  0  0  0  0  0  0
    4.9778    0.7137   21.1494 H   0  0  0  0  0  0  0  0  0  0  0  0
    7.5472    1.9914   21.9372 H   0  0  0  0  0  0  0  0  0  0  0  0
    8.3615    1.4458   23.4058 H   0  0  0  0  0  0  0  0  0  0  0  0
    5.9880    0.3496   24.3609 O   0  0  0  0  0  0  0  0  0  0  0  0
    4.8374    0.6515   25.0003 C   0  0  0  0  0  0  0  0  0  0  0  0
    4.3574    1.8487   24.5760 C   0  0  0  0  0  0  0  0  0  0  0  0
    3.4679    2.3373   24.9563 H   0  0  0  0  0  0  0  0  0  0  0  0
    4.4993   -0.0957   25.7019 H   0  0  0  0  0  0  0  0  0  0  0  0
    6.2568    4.0724   22.8021 H   0  0  0  0  0  0  0  0  0  0  0  0
    4.5349    4.3183   23.1189 H   0  0  0  0  0  0  0  0  0  0  0  0
    5.0546    3.3741   21.7133 H   0  0  0  0  0  0  0  0  0  0  0  0
  1  2  1  0
  2  3  2  0
  3  4  1  0
  4  5  1  0
  5  6  2  0
  6  7  1  0
  7  8  1  0
  8  9  1  0
  9 10  1  0
 10 11  1  0
 11 12  1  0
 11 13  1  0
 11 14  1  0
 10 15  1  0
 10 16  1  0
  9 17  1  0
  9 18  1  0
  8 19  1  0
  7 20  2  0
 20 21  1  0
 21 22  1  0
 22 23  2  0
 23 24  1  0
 24 25  2  0
 25 26  1  0
 26 27  2  0
 27 28  1  0
 25 29  1  0
 24 30  1  0
 23 31  1  0
  4 32  1  0
  4 33  1  0
  3 34  1  0
 34 35  1  0
 35 36  2  0
 36 37  1  0
 35 38  1  0
  1 39  1  0
  1 40  1  0
  1 41  1  0
 36  2  1  0
 21  5  1  0
 27 22  1  0
 12  8  1  0
M  END
>  <cnnaffinity>  (1) 
-6.15592

>  <filename>  (1) 
Cc1ccoc1Cc1nc(C2CCCO2)nn1-c1cccnc1

$$$$
