
     RDKit          3D

 46 49  0  0  0  0  0  0  0  0999 V2000
    7.8818   -4.6487   24.4300 C   0  0  0  0  0  0  0  0  0  0  0  0
    7.7380   -3.1795   24.7533 C   0  0  0  0  0  0  0  0  0  0  0  0
    7.2260   -2.7107   25.9755 C   0  0  0  0  0  0  0  0  0  0  0  0
    7.1266   -1.4094   26.2957 N   0  0  0  0  0  0  0  0  0  0  0  0
    7.5067   -0.5034   25.3929 C   0  0  0  0  0  0  0  0  0  0  0  0
    7.9687   -0.8597   24.1162 C   0  0  0  0  0  0  0  0  0  0  0  0
    8.3224    0.1639   23.2007 N   0  0  0  0  0  0  0  0  0  0  0  0
    9.0561    1.2144   23.6522 N   0  0  0  0  0  0  0  0  0  0  0  0
    9.3892    1.8362   22.5422 C   0  0  0  0  0  0  0  0  0  0  0  0
   10.1897    3.1001   22.5155 C   0  0  0  0  0  0  0  0  0  0  0  0
    9.3121    4.3004   22.9795 C   0  0  0  0  0  0  0  0  0  0  0  0
   10.0951    5.5749   23.1768 C   0  0  0  0  0  0  0  0  0  0  0  0
   11.4282    5.6334   23.1576 C   0  0  0  0  0  0  0  0  0  0  0  0
   12.2999    4.4260   22.8903 C   0  0  0  0  0  0  0  0  0  0  0  0
   11.5760    3.0953   23.1971 C   0  0  0  0  0  0  0  0  0  0  0  0
   11.4805    2.9618   24.2804 H   0  0  0  0  0  0  0  0  0  0  0  0
   12.1785    2.2641   22.8145 H   0  0  0  0  0  0  0  0  0  0  0  0
   13.2261    4.5027   23.4697 H   0  0  0  0  0  0  0  0  0  0  0  0
   12.6227    4.4405   21.8360 H   0  0  0  0  0  0  0  0  0  0  0  0
   11.9265    6.5860   23.3305 H   0  0  0  0  0  0  0  0  0  0  0  0
    9.5104    6.4809   23.3456 H   0  0  0  0  0  0  0  0  0  0  0  0
    8.7763    4.0622   23.9120 H   0  0  0  0  0  0  0  0  0  0  0  0
    8.5284    4.4676   22.2291 H   0  0  0  0  0  0  0  0  0  0  0  0
   10.4123    3.1911   21.4545 H   0  0  0  0  0  0  0  0  0  0  0  0
    8.8791    1.2944   21.4030 N   0  0  0  0  0  0  0  0  0  0  0  0
    8.1803    0.2658   21.8412 C   0  0  0  0  0  0  0  0  0  0  0  0
    7.4012   -0.6828   20.9658 C   0  0  0  0  0  0  0  0  0  0  0  0
    6.6367   -0.0297   19.8222 C   0  0  0  0  0  0  0  0  0  0  0  0
    5.4262    0.6316   20.0729 C   0  0  0  0  0  0  0  0  0  0  0  0
    4.7958    1.3147   19.0283 C   0  0  0  0  0  0  0  0  0  0  0  0
    5.3944    1.3118   17.7644 C   0  0  0  0  0  0  0  0  0  0  0  0
    6.5308    0.6536   17.4892 N   0  0  0  0  0  0  0  0  0  0  0  0
    7.1221    0.0065   18.5040 C   0  0  0  0  0  0  0  0  0  0  0  0
    8.0481   -0.5121   18.2539 H   0  0  0  0  0  0  0  0  0  0  0  0
    4.9359    1.8507   16.9351 H   0  0  0  0  0  0  0  0  0  0  0  0
    3.8641    1.8499   19.1803 H   0  0  0  0  0  0  0  0  0  0  0  0
    4.9882    0.6192   21.0740 H   0  0  0  0  0  0  0  0  0  0  0  0
    8.1157   -1.4146   20.5672 H   0  0  0  0  0  0  0  0  0  0  0  0
    6.6863   -1.2262   21.5898 H   0  0  0  0  0  0  0  0  0  0  0  0
    8.1105   -2.2164   23.8045 C   0  0  0  0  0  0  0  0  0  0  0  0
    8.5125   -2.5340   22.8409 H   0  0  0  0  0  0  0  0  0  0  0  0
    7.4379    0.5458   25.6789 H   0  0  0  0  0  0  0  0  0  0  0  0
    6.8767   -3.4179   26.7294 H   0  0  0  0  0  0  0  0  0  0  0  0
    7.7584   -4.8005   23.3528 H   0  0  0  0  0  0  0  0  0  0  0  0
    8.8739   -5.0329   24.6993 H   0  0  0  0  0  0  0  0  0  0  0  0
    7.1353   -5.2627   24.9466 H   0  0  0  0  0  0  0  0  0  0  0  0
  1  2  1  0
  2  3  2  0
  3  4  1  0
  4  5  2  0
  5  6  1  0
  6  7  1  0
  7  8  1  0
  8  9  2  0
  9 10  1  0
 10 11  1  0
 11 12  1  0
 12 13  2  0
 13 14  1  0
 14 15  1  0
 15 16  1  0
 15 17  1  0
 14 18  1  0
 14 19  1  0
 13 20  1  0
 12 21  1  0
 11 22  1  0
 11 23  1  0
 10 24  1  0
  9 25  1  0
 25 26  2  0
 26 27  1  0
 27 28  1  0
 28 29  2  0
 29 30  1  0
 30 31  2  0
 31 32  1  0
 32 33  2  0
 33 34  1  0
 31 35  1  0
 30 36  1  0
 29 37  1  0
 27 38  1  0
 27 39  1  0
  6 40  2  0
 40 41  1  0
  5 42  1  0
  3 43  1  0
  1 44  1  0
  1 45  1  0
  1 46  1  0
 40  2  1  0
 26  7  1  0
 33 28  1  0
 15 10  1  0
M  END
>  <cnnaffinity>  (1) 
-6.22389

>  <filename>  (1) 
Cc1cncc(-n2nc(C3CC=CCC3)nc2Cc2cccnc2)c1

$$$$
