
     RDKit          3D

 46 49  0  0  0  0  0  0  0  0999 V2000
    7.9827    4.7849   27.4667 C   0  0  0  0  0  0  0  0  0  0  0  0
    7.3980    3.4807   26.9623 C   0  0  0  0  0  0  0  0  0  0  0  0
    6.3402    2.8455   27.6370 C   0  0  0  0  0  0  0  0  0  0  0  0
    5.6806    1.7441   27.0711 C   0  0  0  0  0  0  0  0  0  0  0  0
    6.0761    1.2456   25.8311 C   0  0  0  0  0  0  0  0  0  0  0  0
    7.1822    1.8175   25.1723 C   0  0  0  0  0  0  0  0  0  0  0  0
    7.6535    1.3001   23.8684 C   0  0  0  0  0  0  0  0  0  0  0  0
    7.0895    0.2890   23.2230 N   0  0  0  0  0  0  0  0  0  0  0  0
    7.8069    0.2032   22.0806 N   0  0  0  0  0  0  0  0  0  0  0  0
    7.3787   -0.7034   21.0207 C   0  0  0  0  0  0  0  0  0  0  0  0
    6.6622   -0.0071   19.8781 C   0  0  0  0  0  0  0  0  0  0  0  0
    5.4522    0.6516   20.1269 C   0  0  0  0  0  0  0  0  0  0  0  0
    4.8211    1.3079   19.0705 C   0  0  0  0  0  0  0  0  0  0  0  0
    5.4195    1.2966   17.8057 C   0  0  0  0  0  0  0  0  0  0  0  0
    6.5691    0.6559   17.5432 N   0  0  0  0  0  0  0  0  0  0  0  0
    7.1612    0.0265   18.5664 C   0  0  0  0  0  0  0  0  0  0  0  0
    8.0914   -0.4909   18.3214 H   0  0  0  0  0  0  0  0  0  0  0  0
    4.9543    1.8191   16.9702 H   0  0  0  0  0  0  0  0  0  0  0  0
    3.8876    1.8384   19.2150 H   0  0  0  0  0  0  0  0  0  0  0  0
    5.0239    0.6595   21.1351 H   0  0  0  0  0  0  0  0  0  0  0  0
    6.7059   -1.4144   21.5071 H   0  0  0  0  0  0  0  0  0  0  0  0
    8.2485   -1.2672   20.6678 H   0  0  0  0  0  0  0  0  0  0  0  0
    8.7726    1.1499   22.0930 C   0  0  0  0  0  0  0  0  0  0  0  0
    9.8009    1.4101   21.0385 C   0  0  0  0  0  0  0  0  0  0  0  0
   11.1946    1.1169   21.5170 C   0  0  0  0  0  0  0  0  0  0  0  0
   11.8422   -0.0774   21.7694 C   0  0  0  0  0  0  0  0  0  0  0  0
   11.2699   -1.6667   21.4172 Cl  0  0  0  0  0  0  0  0  0  0  0  0
   13.0668    0.2659   22.3736 C   0  0  0  0  0  0  0  0  0  0  0  0
   13.1681    1.5827   22.4953 N   0  0  0  0  0  0  0  0  0  0  0  0
   12.0353    2.0774   21.9819 N   0  0  0  0  0  0  0  0  0  0  0  0
   11.8359    3.5146   21.9439 C   0  0  0  0  0  0  0  0  0  0  0  0
   10.8183    3.7484   22.2848 H   0  0  0  0  0  0  0  0  0  0  0  0
   12.5640    3.9566   22.6208 H   0  0  0  0  0  0  0  0  0  0  0  0
   12.0168    3.8975   20.9337 H   0  0  0  0  0  0  0  0  0  0  0  0
   13.8740   -0.3843   22.6915 H   0  0  0  0  0  0  0  0  0  0  0  0
    9.7239    2.4762   20.7864 H   0  0  0  0  0  0  0  0  0  0  0  0
    9.5634    0.8278   20.1459 H   0  0  0  0  0  0  0  0  0  0  0  0
    8.6962    1.8578   23.1944 N   0  0  0  0  0  0  0  0  0  0  0  0
    7.8425    2.9153   25.7593 C   0  0  0  0  0  0  0  0  0  0  0  0
    8.7135    3.3233   25.2495 H   0  0  0  0  0  0  0  0  0  0  0  0
    5.5547    0.3990   25.3839 H   0  0  0  0  0  0  0  0  0  0  0  0
    4.8688    1.2627   27.6098 H   0  0  0  0  0  0  0  0  0  0  0  0
    6.0336    3.2135   28.6117 H   0  0  0  0  0  0  0  0  0  0  0  0
    7.8959    4.8866   28.5538 H   0  0  0  0  0  0  0  0  0  0  0  0
    7.4525    5.6390   27.0331 H   0  0  0  0  0  0  0  0  0  0  0  0
    9.0364    4.9058   27.1879 H   0  0  0  0  0  0  0  0  0  0  0  0
  1  2  1  0
  2  3  2  0
  3  4  1  0
  4  5  2  0
  5  6  1  0
  6  7  1  0
  7  8  2  0
  8  9  1  0
  9 10  1  0
 10 11  1  0
 11 12  2  0
 12 13  1  0
 13 14  2  0
 14 15  1  0
 15 16  2  0
 16 17  1  0
 14 18  1  0
 13 19  1  0
 12 20  1  0
 10 21  1  0
 10 22  1  0
  9 23  1  0
 23 24  1  0
 24 25  1  0
 25 26  2  0
 26 27  1  0
 26 28  1  0
 28 29  2  0
 29 30  1  0
 30 31  1  0
 31 32  1  0
 31 33  1  0
 31 34  1  0
 28 35  1  0
 24 36  1  0
 24 37  1  0
 23 38  2  0
  6 39  2  0
 39 40  1  0
  5 41  1  0
  4 42  1  0
  3 43  1  0
  1 44  1  0
  1 45  1  0
  1 46  1  0
 39  2  1  0
 38  7  1  0
 16 11  1  0
 30 25  1  0
M  END
>  <cnnaffinity>  (1) 
-6.25108

>  <filename>  (1) 
Cc1cccc(-c2nc(Cc3c(Cl)cnn3C)n(Cc3cccnc3)n2)c1

$$$$
