
     RDKit          3D

 41 43  0  0  0  0  0  0  0  0999 V2000
    5.9599   -1.8653   21.0879 H   0  0  0  0  0  0  0  0  0  0  0  0
    6.6545   -1.6058   21.7045 O   0  0  0  0  0  0  0  0  0  0  0  0
    7.4860   -0.7379   20.9498 C   0  0  1  0  0  0  0  0  0  0  0  0
    8.2447   -1.3491   20.4262 H   0  0  0  0  0  0  0  0  0  0  0  0
    6.6564   -0.0426   19.8743 C   0  0  0  0  0  0  0  0  0  0  0  0
    7.1350   -0.0364   18.5555 C   0  0  0  0  0  0  0  0  0  0  0  0
    8.0348   -0.5980   18.3035 H   0  0  0  0  0  0  0  0  0  0  0  0
    6.5570    0.6105   17.5304 N   0  0  0  0  0  0  0  0  0  0  0  0
    5.4308    1.2842   17.7939 C   0  0  0  0  0  0  0  0  0  0  0  0
    4.9863    1.8163   16.9537 H   0  0  0  0  0  0  0  0  0  0  0  0
    4.8212    1.3026   19.0529 C   0  0  0  0  0  0  0  0  0  0  0  0
    3.8884    1.8426   19.1893 H   0  0  0  0  0  0  0  0  0  0  0  0
    5.4324    0.6131   20.1062 C   0  0  0  0  0  0  0  0  0  0  0  0
    4.9537    0.5755   21.0873 H   0  0  0  0  0  0  0  0  0  0  0  0
    8.2818    0.2111   21.9042 C   0  0  0  0  0  0  0  0  0  0  0  0
    9.2330    1.1014   21.0556 C   0  0  0  0  0  0  0  0  0  0  0  0
    9.7556    0.4582   20.3352 H   0  0  0  0  0  0  0  0  0  0  0  0
    8.5967    1.7707   20.4574 H   0  0  0  0  0  0  0  0  0  0  0  0
   10.2532    1.9524   21.7939 C   0  0  0  0  0  0  0  0  0  0  0  0
    9.8738    3.2111   22.2811 C   0  0  0  0  0  0  0  0  0  0  0  0
    8.8523    3.5579   22.1430 H   0  0  0  0  0  0  0  0  0  0  0  0
   10.7957    4.0829   22.8560 C   0  0  0  0  0  0  0  0  0  0  0  0
   10.4835    5.0852   23.1379 H   0  0  0  0  0  0  0  0  0  0  0  0
   12.1383    3.7133   23.0084 C   0  0  0  0  0  0  0  0  0  0  0  0
   13.1241    4.7008   23.5844 C   0  0  0  0  0  0  0  0  0  0  0  0
   14.1260    4.2764   23.6525 H   0  0  0  0  0  0  0  0  0  0  0  0
   13.1942    5.6035   22.9646 H   0  0  0  0  0  0  0  0  0  0  0  0
   12.8343    5.0196   24.5929 H   0  0  0  0  0  0  0  0  0  0  0  0
   12.5199    2.4335   22.5819 C   0  0  0  0  0  0  0  0  0  0  0  0
   13.5508    2.1108   22.7231 H   0  0  0  0  0  0  0  0  0  0  0  0
   11.5946    1.5677   21.9771 C   0  0  0  0  0  0  0  0  0  0  0  0
   11.9374    0.5909   21.6378 H   0  0  0  0  0  0  0  0  0  0  0  0
    8.9895   -0.5326   23.0834 C   0  0  0  0  0  0  0  0  0  0  0  0
   10.0814   -0.4444   23.0989 H   0  0  0  0  0  0  0  0  0  0  0  0
    8.7364   -1.5928   23.1455 H   0  0  0  0  0  0  0  0  0  0  0  0
    8.2360    0.3554   24.1021 C   0  0  0  0  0  0  0  0  0  0  0  0
    8.8815    1.0542   24.6425 H   0  0  0  0  0  0  0  0  0  0  0  0
    7.6375   -0.1921   24.8376 H   0  0  0  0  0  0  0  0  0  0  0  0
    7.4297    1.0032   22.9511 C   0  0  0  0  0  0  0  0  0  0  0  0
    6.3671    0.7463   22.9541 H   0  0  0  0  0  0  0  0  0  0  0  0
    7.4948    2.0951   22.8912 H   0  0  0  0  0  0  0  0  0  0  0  0
  1  2  1  0
  2  3  1  0
  3  4  1  6
  3  5  1  0
  5  6  2  0
  6  7  1  0
  6  8  1  0
  8  9  2  0
  9 10  1  0
  9 11  1  0
 11 12  1  0
 11 13  2  0
 13 14  1  0
  3 15  1  0
 15 16  1  0
 16 17  1  0
 16 18  1  0
 16 19  1  0
 19 20  2  0
 20 21  1  0
 20 22  1  0
 22 23  1  0
 22 24  2  0
 24 25  1  0
 25 26  1  0
 25 27  1  0
 25 28  1  0
 24 29  1  0
 29 30  1  0
 29 31  2  0
 31 32  1  0
 15 33  1  0
 33 34  1  0
 33 35  1  0
 33 36  1  0
 36 37  1  0
 36 38  1  0
 36 39  1  0
 39 40  1  0
 39 41  1  0
 13  5  1  0
 39 15  1  0
 31 19  1  0
M  END
>  <cnnaffinity>  (1) 
-5.08896

>  <filename>  (1) 
Cc1ccc(CC2([C@@H](O)c3cccnc3)CCC2)cc1

$$$$
