
     RDKit          3D

 43 46  0  0  0  0  0  0  0  0999 V2000
    7.4349   -0.0137   24.9215 C   0  0  0  0  0  0  0  0  0  0  0  0
    7.9474    1.3899   25.0441 C   0  0  0  0  0  0  0  0  0  0  0  0
    8.5606    2.0055   26.1095 C   0  0  0  0  0  0  0  0  0  0  0  0
    8.8954    3.2958   25.6422 C   0  0  0  0  0  0  0  0  0  0  0  0
    8.5329    3.4585   24.3844 N   0  0  0  0  0  0  0  0  0  0  0  0
    7.9421    2.3022   24.0240 N   0  0  0  0  0  0  0  0  0  0  0  0
    7.7324    2.0352   22.6039 C   0  0  0  0  0  0  0  0  0  0  0  0
    8.6930    0.9911   22.1148 C   0  0  0  0  0  0  0  0  0  0  0  0
    9.9939    1.0484   22.3130 N   0  0  0  0  0  0  0  0  0  0  0  0
   10.4381   -0.1666   21.8983 C   0  0  0  0  0  0  0  0  0  0  0  0
   11.8734   -0.5493   21.8408 C   0  0  0  0  0  0  0  0  0  0  0  0
   12.2162   -1.7574   21.1938 C   0  0  0  0  0  0  0  0  0  0  0  0
   13.5211   -1.9365   20.7358 C   0  0  0  0  0  0  0  0  0  0  0  0
   14.2147   -3.2861   19.8535 Cl  0  0  0  0  0  0  0  0  0  0  0  0
   14.4590   -0.9463   20.9534 C   0  0  0  0  0  0  0  0  0  0  0  0
   14.2107    0.0989   21.8556 C   0  0  0  0  0  0  0  0  0  0  0  0
   12.8963    0.3158   22.2808 C   0  0  0  0  0  0  0  0  0  0  0  0
   12.6585    1.1917   22.8760 H   0  0  0  0  0  0  0  0  0  0  0  0
   15.0066    0.7760   22.1559 H   0  0  0  0  0  0  0  0  0  0  0  0
   15.2997   -1.0121   20.2723 H   0  0  0  0  0  0  0  0  0  0  0  0
   11.4007   -2.4412   21.0392 H   0  0  0  0  0  0  0  0  0  0  0  0
    9.4731   -0.9499   21.4365 N   0  0  0  0  0  0  0  0  0  0  0  0
    8.3629   -0.1910   21.5368 N   0  0  0  0  0  0  0  0  0  0  0  0
    7.0969   -0.7291   21.0348 C   0  0  0  0  0  0  0  0  0  0  0  0
    6.4568    0.0546   19.9023 C   0  0  0  0  0  0  0  0  0  0  0  0
    5.2334    0.7195   20.0504 C   0  0  0  0  0  0  0  0  0  0  0  0
    4.6931    1.3944   18.9528 C   0  0  0  0  0  0  0  0  0  0  0  0
    5.3929    1.3738   17.7433 C   0  0  0  0  0  0  0  0  0  0  0  0
    6.5610    0.7336   17.5728 N   0  0  0  0  0  0  0  0  0  0  0  0
    7.0729    0.1033   18.6372 C   0  0  0  0  0  0  0  0  0  0  0  0
    8.0169   -0.4145   18.4682 H   0  0  0  0  0  0  0  0  0  0  0  0
    5.0009    1.8960   16.8735 H   0  0  0  0  0  0  0  0  0  0  0  0
    3.7597    1.9433   19.0275 H   0  0  0  0  0  0  0  0  0  0  0  0
    4.7042    0.7082   21.0073 H   0  0  0  0  0  0  0  0  0  0  0  0
    6.3989   -0.8386   21.8732 H   0  0  0  0  0  0  0  0  0  0  0  0
    7.3375   -1.7437   20.7002 H   0  0  0  0  0  0  0  0  0  0  0  0
    7.9061    2.9811   22.0880 H   0  0  0  0  0  0  0  0  0  0  0  0
    6.6981    1.7381   22.4219 H   0  0  0  0  0  0  0  0  0  0  0  0
    9.4180    4.0959   26.1560 H   0  0  0  0  0  0  0  0  0  0  0  0
    8.7692    1.5558   27.0699 H   0  0  0  0  0  0  0  0  0  0  0  0
    7.4381   -0.4927   25.9023 H   0  0  0  0  0  0  0  0  0  0  0  0
    6.4157   -0.0465   24.5205 H   0  0  0  0  0  0  0  0  0  0  0  0
    8.0732   -0.6092   24.2588 H   0  0  0  0  0  0  0  0  0  0  0  0
  1  2  1  0
  2  3  2  0
  3  4  1  0
  4  5  2  0
  5  6  1  0
  6  7  1  0
  7  8  1  0
  8  9  2  0
  9 10  1  0
 10 11  1  0
 11 12  2  0
 12 13  1  0
 13 14  1  0
 13 15  2  0
 15 16  1  0
 16 17  2  0
 17 18  1  0
 16 19  1  0
 15 20  1  0
 12 21  1  0
 10 22  2  0
 22 23  1  0
 23 24  1  0
 24 25  1  0
 25 26  2  0
 26 27  1  0
 27 28  2  0
 28 29  1  0
 29 30  2  0
 30 31  1  0
 28 32  1  0
 27 33  1  0
 26 34  1  0
 24 35  1  0
 24 36  1  0
  7 37  1  0
  7 38  1  0
  4 39  1  0
  3 40  1  0
  1 41  1  0
  1 42  1  0
  1 43  1  0
  6  2  1  0
 23  8  1  0
 30 25  1  0
 17 11  1  0
M  END
>  <cnnaffinity>  (1) 
-6.50677

>  <filename>  (1) 
Cc1ccnn1Cc1nc(-c2cccc(Cl)c2)nn1Cc1cccnc1

$$$$
