
     RDKit          3D

 45 49  0  0  0  0  0  0  0  0999 V2000
    5.4064    6.2504   24.6797 C   0  0  0  0  0  0  0  0  0  0  0  0
    6.5429    5.2835   24.9184 C   0  0  0  0  0  0  0  0  0  0  0  0
    7.4871    5.5308   25.9180 C   0  0  0  0  0  0  0  0  0  0  0  0
    8.5390    4.6352   26.1585 C   0  0  0  0  0  0  0  0  0  0  0  0
    8.6428    3.4905   25.3873 C   0  0  0  0  0  0  0  0  0  0  0  0
    9.6431    2.6244   25.6281 F   0  0  0  0  0  0  0  0  0  0  0  0
    7.7110    3.2117   24.3638 C   0  0  0  0  0  0  0  0  0  0  0  0
    7.9250    2.0703   23.6665 O   0  0  0  0  0  0  0  0  0  0  0  0
    6.9457    1.5466   22.7915 C   0  0  0  0  0  0  0  0  0  0  0  0
    7.3968    0.1918   22.3530 C   0  0  0  0  0  0  0  0  0  0  0  0
    7.9782   -0.7030   23.1223 N   0  0  0  0  0  0  0  0  0  0  0  0
    8.1642   -1.7595   22.2954 C   0  0  0  0  0  0  0  0  0  0  0  0
    8.7931   -3.0093   22.7760 C   0  0  0  0  0  0  0  0  0  0  0  0
    8.3763   -3.5189   24.1550 C   0  0  0  0  0  0  0  0  0  0  0  0
    7.9372   -4.2291   22.9060 C   0  0  0  0  0  0  0  0  0  0  0  0
    6.7633   -4.7229   22.1472 C   0  0  0  0  0  0  0  0  0  0  0  0
    7.9789   -5.6289   22.4395 C   0  0  0  0  0  0  0  0  0  0  0  0
    8.6617   -5.8996   21.6340 H   0  0  0  0  0  0  0  0  0  0  0  0
    7.8720   -6.3833   23.2198 H   0  0  0  0  0  0  0  0  0  0  0  0
    5.8131   -4.8794   22.6593 H   0  0  0  0  0  0  0  0  0  0  0  0
    6.6874   -4.2874   21.1495 H   0  0  0  0  0  0  0  0  0  0  0  0
    7.6545   -2.9214   24.7131 H   0  0  0  0  0  0  0  0  0  0  0  0
    9.1290   -4.0185   24.7627 H   0  0  0  0  0  0  0  0  0  0  0  0
    9.8135   -3.1546   22.4339 H   0  0  0  0  0  0  0  0  0  0  0  0
    7.7342   -1.5798   21.0603 N   0  0  0  0  0  0  0  0  0  0  0  0
    7.1975   -0.3267   21.1078 N   0  0  0  0  0  0  0  0  0  0  0  0
    6.5777    0.2385   19.9614 C   0  0  0  0  0  0  0  0  0  0  0  0
    5.3923    0.9875   20.0109 C   0  0  0  0  0  0  0  0  0  0  0  0
    4.8958    1.5054   18.8064 C   0  0  0  0  0  0  0  0  0  0  0  0
    5.5900    1.2541   17.6199 C   0  0  0  0  0  0  0  0  0  0  0  0
    6.7209    0.5293   17.5701 N   0  0  0  0  0  0  0  0  0  0  0  0
    7.1887    0.0255   18.7154 C   0  0  0  0  0  0  0  0  0  0  0  0
    8.0973   -0.5694   18.6714 H   0  0  0  0  0  0  0  0  0  0  0  0
    5.2207    1.6285   16.6668 H   0  0  0  0  0  0  0  0  0  0  0  0
    3.9935    2.1073   18.7841 H   0  0  0  0  0  0  0  0  0  0  0  0
    4.8549    1.1487   20.9468 H   0  0  0  0  0  0  0  0  0  0  0  0
    6.8197    2.2175   21.9326 H   0  0  0  0  0  0  0  0  0  0  0  0
    5.9851    1.4234   23.3135 H   0  0  0  0  0  0  0  0  0  0  0  0
    6.6677    4.1168   24.1393 C   0  0  0  0  0  0  0  0  0  0  0  0
    5.9394    3.9052   23.3616 H   0  0  0  0  0  0  0  0  0  0  0  0
    9.2782    4.7986   26.9372 H   0  0  0  0  0  0  0  0  0  0  0  0
    7.3919    6.4332   26.5177 H   0  0  0  0  0  0  0  0  0  0  0  0
    5.1782    6.8184   25.5875 H   0  0  0  0  0  0  0  0  0  0  0  0
    4.4901    5.7332   24.3741 H   0  0  0  0  0  0  0  0  0  0  0  0
    5.6525    6.9767   23.8949 H   0  0  0  0  0  0  0  0  0  0  0  0
  1  2  1  0
  2  3  2  0
  3  4  1  0
  4  5  2  0
  5  6  1  0
  5  7  1  0
  7  8  1  0
  8  9  1  0
  9 10  1  0
 10 11  2  0
 11 12  1  0
 12 13  1  0
 13 14  1  0
 14 15  1  0
 15 16  1  0
 16 17  1  0
 17 18  1  0
 17 19  1  0
 16 20  1  0
 16 21  1  0
 14 22  1  0
 14 23  1  0
 13 24  1  0
 12 25  2  0
 25 26  1  0
 26 27  1  0
 27 28  2  0
 28 29  1  0
 29 30  2  0
 30 31  1  0
 31 32  2  0
 32 33  1  0
 30 34  1  0
 29 35  1  0
 28 36  1  0
  9 37  1  0
  9 38  1  0
  7 39  2  0
 39 40  1  0
  4 41  1  0
  3 42  1  0
  1 43  1  0
  1 44  1  0
  1 45  1  0
 39  2  1  0
 26 10  1  0
 32 27  1  0
 15 13  1  0
 17 15  1  0
M  END
>  <cnnaffinity>  (1) 
-5.89763

>  <filename>  (1) 
Cc1ccc(F)c(OCc2nc(C3CC34CC4)nn2-c2cccnc2)c1

$$$$
