
     RDKit          3D

 50 53  0  0  0  0  0  0  0  0999 V2000
   16.0447   -0.2929   19.6451 C   0  0  0  0  0  0  0  0  0  0  0  0
   14.7475   -0.7722   20.5227 C   0  0  0  0  0  0  0  0  0  0  0  0
   13.8244   -1.7962   20.3139 C   0  0  0  0  0  0  0  0  0  0  0  0
   12.5295   -1.6802   20.8392 C   0  0  0  0  0  0  0  0  0  0  0  0
   12.1250   -0.5890   21.6189 C   0  0  0  0  0  0  0  0  0  0  0  0
   10.6841   -0.2359   21.7059 C   0  0  0  0  0  0  0  0  0  0  0  0
    9.7113   -1.0025   21.2312 N   0  0  0  0  0  0  0  0  0  0  0  0
    8.6059   -0.2482   21.4044 N   0  0  0  0  0  0  0  0  0  0  0  0
    7.3035   -0.7660   21.0106 C   0  0  0  0  0  0  0  0  0  0  0  0
    6.6154    0.0144   19.9094 C   0  0  0  0  0  0  0  0  0  0  0  0
    5.3946    0.6698   20.1102 C   0  0  0  0  0  0  0  0  0  0  0  0
    4.7991    1.3331   19.0357 C   0  0  0  0  0  0  0  0  0  0  0  0
    5.4499    1.3251   17.8011 C   0  0  0  0  0  0  0  0  0  0  0  0
    6.6218    0.7071   17.5863 N   0  0  0  0  0  0  0  0  0  0  0  0
    7.1855    0.0802   18.6259 C   0  0  0  0  0  0  0  0  0  0  0  0
    8.1396   -0.4067   18.4224 H   0  0  0  0  0  0  0  0  0  0  0  0
    5.0104    1.8308   16.9431 H   0  0  0  0  0  0  0  0  0  0  0  0
    3.8560    1.8573   19.1443 H   0  0  0  0  0  0  0  0  0  0  0  0
    4.9217    0.6689   21.0953 H   0  0  0  0  0  0  0  0  0  0  0  0
    7.4911   -1.7975   20.7031 H   0  0  0  0  0  0  0  0  0  0  0  0
    6.6606   -0.8235   21.8974 H   0  0  0  0  0  0  0  0  0  0  0  0
    8.9487    0.9159   21.9982 C   0  0  0  0  0  0  0  0  0  0  0  0
    8.0211    1.9126   22.6022 C   0  0  0  0  0  0  0  0  0  0  0  0
    8.1501    1.8972   24.1391 C   0  0  0  0  0  0  0  0  0  0  0  0
    7.8651    0.5305   24.7864 C   0  0  0  0  0  0  0  0  0  0  0  0
    6.3690    0.6089   25.0928 C   0  0  0  0  0  0  0  0  0  0  0  0
    6.1671    2.1005   25.3947 C   0  0  0  0  0  0  0  0  0  0  0  0
    4.8286    2.6719   24.9694 C   0  0  0  0  0  0  0  0  0  0  0  0
    4.0056    2.1787   25.4957 H   0  0  0  0  0  0  0  0  0  0  0  0
    4.6906    2.5326   23.8902 H   0  0  0  0  0  0  0  0  0  0  0  0
    4.7952    3.7425   25.1866 H   0  0  0  0  0  0  0  0  0  0  0  0
    7.1929    2.7923   24.6772 O   0  0  0  0  0  0  0  0  0  0  0  0
    6.3272    2.2842   26.4709 H   0  0  0  0  0  0  0  0  0  0  0  0
    6.0602   -0.0279   25.9279 H   0  0  0  0  0  0  0  0  0  0  0  0
    5.7815    0.3060   24.2137 H   0  0  0  0  0  0  0  0  0  0  0  0
    8.4620    0.4291   25.6992 H   0  0  0  0  0  0  0  0  0  0  0  0
    8.1284   -0.3077   24.1287 H   0  0  0  0  0  0  0  0  0  0  0  0
    9.1520    2.2625   24.4022 H   0  0  0  0  0  0  0  0  0  0  0  0
    6.9883    1.7173   22.3041 H   0  0  0  0  0  0  0  0  0  0  0  0
    8.2749    2.9160   22.2524 H   0  0  0  0  0  0  0  0  0  0  0  0
   10.2546    0.9570   22.1855 N   0  0  0  0  0  0  0  0  0  0  0  0
   13.1382    0.2322   22.1547 C   0  0  0  0  0  0  0  0  0  0  0  0
   14.4175    0.0768   21.6435 C   0  0  0  0  0  0  0  0  0  0  0  0
   15.3371    0.9244   22.1362 F   0  0  0  0  0  0  0  0  0  0  0  0
   12.9481    1.0443   22.8514 H   0  0  0  0  0  0  0  0  0  0  0  0
   11.7523   -2.3743   20.6025 H   0  0  0  0  0  0  0  0  0  0  0  0
   14.0784   -2.6790   19.7420 H   0  0  0  0  0  0  0  0  0  0  0  0
   16.8506   -1.0298   19.6392 H   0  0  0  0  0  0  0  0  0  0  0  0
   15.9367    0.1174   18.6299 H   0  0  0  0  0  0  0  0  0  0  0  0
   16.4102    0.5918   20.1353 H   0  0  0  0  0  0  0  0  0  0  0  0
  1  2  1  0
  2  3  2  0
  3  4  1  0
  4  5  2  0
  5  6  1  0
  6  7  2  0
  7  8  1  0
  8  9  1  0
  9 10  1  0
 10 11  2  0
 11 12  1  0
 12 13  2  0
 13 14  1  0
 14 15  2  0
 15 16  1  0
 13 17  1  0
 12 18  1  0
 11 19  1  0
  9 20  1  0
  9 21  1  0
  8 22  1  0
 22 23  1  0
 23 24  1  0
 24 25  1  0
 25 26  1  0
 26 27  1  0
 27 28  1  0
 28 29  1  0
 28 30  1  0
 28 31  1  0
 27 32  1  0
 27 33  1  0
 26 34  1  0
 26 35  1  0
 25 36  1  0
 25 37  1  0
 24 38  1  0
 23 39  1  0
 23 40  1  0
 22 41  2  0
  5 42  1  0
 42 43  2  0
 43 44  1  0
 42 45  1  0
  4 46  1  0
  3 47  1  0
  1 48  1  0
  1 49  1  0
  1 50  1  0
 43  2  1  0
 41  6  1  0
 15 10  1  0
 32 24  1  0
M  END
>  <cnnaffinity>  (1) 
-6.44283

>  <filename>  (1) 
Cc1ccc(-c2nc(CC3CCC(C)O3)n(Cc3cccnc3)n2)cc1F

$$$$
