
     RDKit          3D

 45 48  0  0  0  0  0  0  0  0999 V2000
   13.8066    1.4212   23.3920 C   0  0  0  0  0  0  0  0  0  0  0  0
   12.9520    0.3815   22.7266 C   0  0  0  0  0  0  0  0  0  0  0  0
   13.4917   -0.7951   22.1958 C   0  0  0  0  0  0  0  0  0  0  0  0
   12.6823   -1.6703   21.4692 C   0  0  0  0  0  0  0  0  0  0  0  0
   11.3162   -1.4313   21.3266 C   0  0  0  0  0  0  0  0  0  0  0  0
   10.7446   -0.2913   21.9286 C   0  0  0  0  0  0  0  0  0  0  0  0
    9.2947   -0.0098   21.8764 C   0  0  0  0  0  0  0  0  0  0  0  0
    8.4065   -0.7752   21.2628 N   0  0  0  0  0  0  0  0  0  0  0  0
    7.2263   -0.1829   21.5591 N   0  0  0  0  0  0  0  0  0  0  0  0
    6.0072   -0.6391   20.9013 C   0  0  0  0  0  0  0  0  0  0  0  0
    5.7123    0.0936   19.6068 C   0  0  0  0  0  0  0  0  0  0  0  0
    4.6109    0.9437   19.4706 C   0  0  0  0  0  0  0  0  0  0  0  0
    4.4664    1.6781   18.2932 C   0  0  0  0  0  0  0  0  0  0  0  0
    5.4214    1.5269   17.2870 C   0  0  0  0  0  0  0  0  0  0  0  0
    6.4632    0.6855   17.3784 N   0  0  0  0  0  0  0  0  0  0  0  0
    6.5942   -0.0062   18.5163 C   0  0  0  0  0  0  0  0  0  0  0  0
    7.4567   -0.6730   18.5678 H   0  0  0  0  0  0  0  0  0  0  0  0
    5.3479    2.1114   16.3706 H   0  0  0  0  0  0  0  0  0  0  0  0
    3.6475    2.3761   18.1589 H   0  0  0  0  0  0  0  0  0  0  0  0
    3.8772    1.0273   20.2750 H   0  0  0  0  0  0  0  0  0  0  0  0
    5.1824   -0.4924   21.5983 H   0  0  0  0  0  0  0  0  0  0  0  0
    6.1343   -1.7148   20.7407 H   0  0  0  0  0  0  0  0  0  0  0  0
    7.4510    0.9053   22.3317 C   0  0  0  0  0  0  0  0  0  0  0  0
    6.4351    1.6973   23.0972 C   0  0  0  0  0  0  0  0  0  0  0  0
    6.4327    1.1527   24.5052 C   0  0  0  0  0  0  0  0  0  0  0  0
    7.3926    1.5621   25.4476 C   0  0  0  0  0  0  0  0  0  0  0  0
    7.4673    0.9038   26.6744 C   0  0  0  0  0  0  0  0  0  0  0  0
    6.5556   -0.1296   26.9243 C   0  0  0  0  0  0  0  0  0  0  0  0
    5.6207   -0.4488   25.9315 C   0  0  0  0  0  0  0  0  0  0  0  0
    5.5599    0.1714   24.7429 N   0  0  0  0  0  0  0  0  0  0  0  0
    4.9025   -1.2521   26.0923 H   0  0  0  0  0  0  0  0  0  0  0  0
    6.5782   -0.6941   27.8499 H   0  0  0  0  0  0  0  0  0  0  0  0
    8.2344    1.1694   27.4069 H   0  0  0  0  0  0  0  0  0  0  0  0
    8.0933    2.3406   25.1618 H   0  0  0  0  0  0  0  0  0  0  0  0
    6.7533    2.7435   23.0879 H   0  0  0  0  0  0  0  0  0  0  0  0
    5.4316    1.6133   22.6677 H   0  0  0  0  0  0  0  0  0  0  0  0
    8.7428    1.0571   22.5169 N   0  0  0  0  0  0  0  0  0  0  0  0
   11.5769    0.6050   22.6132 C   0  0  0  0  0  0  0  0  0  0  0  0
   11.1316    1.4857   23.0742 H   0  0  0  0  0  0  0  0  0  0  0  0
   10.6943   -2.1383   20.7838 H   0  0  0  0  0  0  0  0  0  0  0  0
   13.1439   -2.5179   20.9842 H   0  0  0  0  0  0  0  0  0  0  0  0
   14.5508   -1.0123   22.3330 H   0  0  0  0  0  0  0  0  0  0  0  0
   13.5676    1.5095   24.4566 H   0  0  0  0  0  0  0  0  0  0  0  0
   13.6458    2.4005   22.9288 H   0  0  0  0  0  0  0  0  0  0  0  0
   14.8610    1.1783   23.2823 H   0  0  0  0  0  0  0  0  0  0  0  0
  1  2  1  0
  2  3  2  0
  3  4  1  0
  4  5  2  0
  5  6  1  0
  6  7  1  0
  7  8  2  0
  8  9  1  0
  9 10  1  0
 10 11  1  0
 11 12  2  0
 12 13  1  0
 13 14  2  0
 14 15  1  0
 15 16  2  0
 16 17  1  0
 14 18  1  0
 13 19  1  0
 12 20  1  0
 10 21  1  0
 10 22  1  0
  9 23  1  0
 23 24  1  0
 24 25  1  0
 25 26  2  0
 26 27  1  0
 27 28  2  0
 28 29  1  0
 29 30  2  0
 29 31  1  0
 28 32  1  0
 27 33  1  0
 26 34  1  0
 24 35  1  0
 24 36  1  0
 23 37  2  0
  6 38  2  0
 38 39  1  0
  5 40  1  0
  4 41  1  0
  3 42  1  0
  1 43  1  0
  1 44  1  0
  1 45  1  0
 38  2  1  0
 37  7  1  0
 16 11  1  0
 30 25  1  0
M  END
>  <cnnaffinity>  (1) 
-6.29805

>  <filename>  (1) 
Cc1cccc(-c2nc(Cc3ccccn3)n(Cc3cccnc3)n2)c1

$$$$
