
     RDKit          3D

 41 43  0  0  0  0  0  0  0  0999 V2000
    8.0941    2.6472   22.1158 C   0  0  0  0  0  0  0  0  0  0  0  0
    9.4901    2.2788   22.5568 C   0  0  0  0  0  0  0  0  0  0  0  0
   10.0887    2.9755   23.6079 C   0  0  0  0  0  0  0  0  0  0  0  0
   11.3727    2.6121   24.0182 C   0  0  0  0  0  0  0  0  0  0  0  0
   12.0131    1.5657   23.3607 C   0  0  0  0  0  0  0  0  0  0  0  0
   11.4660    0.8837   22.3445 N   0  0  0  0  0  0  0  0  0  0  0  0
   10.2380    1.2309   21.9558 C   0  0  0  0  0  0  0  0  0  0  0  0
    9.6379    0.4050   20.8515 C   0  0  0  0  0  0  0  0  0  0  0  0
    8.6319   -0.5351   21.3870 C   0  0  0  0  0  0  0  0  0  0  0  0
    8.8735   -1.3931   22.3549 N   0  0  0  0  0  0  0  0  0  0  0  0
    7.6779   -2.0101   22.5216 C   0  0  0  0  0  0  0  0  0  0  0  0
    7.4218   -3.0295   23.6035 C   0  0  0  0  0  0  0  0  0  0  0  0
    6.8675   -4.3428   23.0215 C   0  0  0  0  0  0  0  0  0  0  0  0
    6.7332   -5.0902   23.8112 H   0  0  0  0  0  0  0  0  0  0  0  0
    5.8966   -4.1683   22.5430 H   0  0  0  0  0  0  0  0  0  0  0  0
    7.5441   -4.7595   22.2680 H   0  0  0  0  0  0  0  0  0  0  0  0
    6.4859   -2.4613   24.6925 C   0  0  0  0  0  0  0  0  0  0  0  0
    6.3364   -3.1878   25.4985 H   0  0  0  0  0  0  0  0  0  0  0  0
    6.8925   -1.5436   25.1315 H   0  0  0  0  0  0  0  0  0  0  0  0
    5.5047   -2.2249   24.2692 H   0  0  0  0  0  0  0  0  0  0  0  0
    8.4006   -3.2194   24.0526 H   0  0  0  0  0  0  0  0  0  0  0  0
    6.7255   -1.6060   21.6982 N   0  0  0  0  0  0  0  0  0  0  0  0
    7.3541   -0.6818   20.9304 N   0  0  0  0  0  0  0  0  0  0  0  0
    6.6487   -0.0044   19.8984 C   0  0  0  0  0  0  0  0  0  0  0  0
    5.4371    0.6405   20.1670 C   0  0  0  0  0  0  0  0  0  0  0  0
    4.8123    1.3101   19.1098 C   0  0  0  0  0  0  0  0  0  0  0  0
    5.3985    1.2965   17.8376 C   0  0  0  0  0  0  0  0  0  0  0  0
    6.5549    0.6701   17.5731 N   0  0  0  0  0  0  0  0  0  0  0  0
    7.1603    0.0442   18.5884 C   0  0  0  0  0  0  0  0  0  0  0  0
    8.1108   -0.4334   18.3643 H   0  0  0  0  0  0  0  0  0  0  0  0
    4.9198    1.7874   16.9938 H   0  0  0  0  0  0  0  0  0  0  0  0
    3.8810    1.8395   19.2614 H   0  0  0  0  0  0  0  0  0  0  0  0
    5.0136    0.6123   21.1757 H   0  0  0  0  0  0  0  0  0  0  0  0
   10.4112   -0.2280   20.4267 H   0  0  0  0  0  0  0  0  0  0  0  0
    9.1879    1.0386   20.0890 H   0  0  0  0  0  0  0  0  0  0  0  0
   13.0100    1.2525   23.6603 H   0  0  0  0  0  0  0  0  0  0  0  0
   11.8701    3.1315   24.8217 H   0  0  0  0  0  0  0  0  0  0  0  0
    9.5438    3.7907   24.0913 H   0  0  0  0  0  0  0  0  0  0  0  0
    8.0428    2.8473   21.0444 H   0  0  0  0  0  0  0  0  0  0  0  0
    7.7389    3.5396   22.6351 H   0  0  0  0  0  0  0  0  0  0  0  0
    7.3762    1.8436   22.3104 H   0  0  0  0  0  0  0  0  0  0  0  0
  1  2  1  0
  2  3  2  0
  3  4  1  0
  4  5  2  0
  5  6  1  0
  6  7  2  0
  7  8  1  0
  8  9  1  0
  9 10  2  0
 10 11  1  0
 11 12  1  0
 12 13  1  0
 13 14  1  0
 13 15  1  0
 13 16  1  0
 12 17  1  0
 17 18  1  0
 17 19  1  0
 17 20  1  0
 12 21  1  0
 11 22  2  0
 22 23  1  0
 23 24  1  0
 24 25  2  0
 25 26  1  0
 26 27  2  0
 27 28  1  0
 28 29  2  0
 29 30  1  0
 27 31  1  0
 26 32  1  0
 25 33  1  0
  8 34  1  0
  8 35  1  0
  5 36  1  0
  4 37  1  0
  3 38  1  0
  1 39  1  0
  1 40  1  0
  1 41  1  0
  7  2  1  0
 23  9  1  0
 29 24  1  0
M  END
>  <cnnaffinity>  (1) 
-5.81714

>  <filename>  (1) 
Cc1cccnc1Cc1nc(C(C)C)nn1-c1cccnc1

$$$$
