
     RDKit          3D

 41 44  0  0  0  0  0  0  0  0999 V2000
    8.3148    2.7628   22.0535 C   0  0  0  0  0  0  0  0  0  0  0  0
    9.6680    2.2662   22.4961 C   0  0  0  0  0  0  0  0  0  0  0  0
   10.3574    2.8864   23.5452 C   0  0  0  0  0  0  0  0  0  0  0  0
   11.5478    2.5040   24.0218 N   0  0  0  0  0  0  0  0  0  0  0  0
   12.1117    1.4425   23.4407 C   0  0  0  0  0  0  0  0  0  0  0  0
   11.5327    0.7498   22.3802 C   0  0  0  0  0  0  0  0  0  0  0  0
   10.3064    1.1772   21.8805 C   0  0  0  0  0  0  0  0  0  0  0  0
    9.6227    0.3763   20.8049 C   0  0  0  0  0  0  0  0  0  0  0  0
    8.6231   -0.5660   21.3695 C   0  0  0  0  0  0  0  0  0  0  0  0
    8.8531   -1.4351   22.3276 N   0  0  0  0  0  0  0  0  0  0  0  0
    7.6339   -2.0264   22.5179 C   0  0  0  0  0  0  0  0  0  0  0  0
    7.3942   -3.0673   23.5881 C   0  0  0  0  0  0  0  0  0  0  0  0
    8.4458   -3.4673   24.4476 C   0  0  0  0  0  0  0  0  0  0  0  0
    8.1956   -4.4323   25.4263 C   0  0  0  0  0  0  0  0  0  0  0  0
    6.9101   -4.9665   25.5226 C   0  0  0  0  0  0  0  0  0  0  0  0
    5.9323   -4.5124   24.6346 C   0  0  0  0  0  0  0  0  0  0  0  0
    6.1577   -3.5987   23.6903 N   0  0  0  0  0  0  0  0  0  0  0  0
    4.9139   -4.8951   24.6679 H   0  0  0  0  0  0  0  0  0  0  0  0
    6.6551   -5.7179   26.2623 H   0  0  0  0  0  0  0  0  0  0  0  0
    8.9843   -4.7634   26.1040 H   0  0  0  0  0  0  0  0  0  0  0  0
    9.4320   -3.0280   24.3450 H   0  0  0  0  0  0  0  0  0  0  0  0
    6.6928   -1.5858   21.6949 N   0  0  0  0  0  0  0  0  0  0  0  0
    7.3379   -0.6848   20.9280 N   0  0  0  0  0  0  0  0  0  0  0  0
    6.6503    0.0048   19.8939 C   0  0  0  0  0  0  0  0  0  0  0  0
    5.4380    0.6453   20.1643 C   0  0  0  0  0  0  0  0  0  0  0  0
    4.8116    1.3132   19.1095 C   0  0  0  0  0  0  0  0  0  0  0  0
    5.3998    1.2972   17.8380 C   0  0  0  0  0  0  0  0  0  0  0  0
    6.5573    0.6731   17.5722 N   0  0  0  0  0  0  0  0  0  0  0  0
    7.1643    0.0488   18.5869 C   0  0  0  0  0  0  0  0  0  0  0  0
    8.1137   -0.4339   18.3665 H   0  0  0  0  0  0  0  0  0  0  0  0
    4.9172    1.7850   16.9951 H   0  0  0  0  0  0  0  0  0  0  0  0
    3.8794    1.8408   19.2624 H   0  0  0  0  0  0  0  0  0  0  0  0
    5.0166    0.6049   21.1729 H   0  0  0  0  0  0  0  0  0  0  0  0
   10.3373   -0.2736   20.3033 H   0  0  0  0  0  0  0  0  0  0  0  0
    9.1598    1.0434   20.0760 H   0  0  0  0  0  0  0  0  0  0  0  0
   12.0158   -0.1228   21.9582 H   0  0  0  0  0  0  0  0  0  0  0  0
   13.0732    1.1305   23.8345 H   0  0  0  0  0  0  0  0  0  0  0  0
    9.9046    3.7507   24.0258 H   0  0  0  0  0  0  0  0  0  0  0  0
    8.3589    3.0910   21.0154 H   0  0  0  0  0  0  0  0  0  0  0  0
    7.9661    3.6096   22.6505 H   0  0  0  0  0  0  0  0  0  0  0  0
    7.5490    1.9793   22.0991 H   0  0  0  0  0  0  0  0  0  0  0  0
  1  2  1  0
  2  3  2  0
  3  4  1  0
  4  5  2  0
  5  6  1  0
  6  7  2  0
  7  8  1  0
  8  9  1  0
  9 10  2  0
 10 11  1  0
 11 12  1  0
 12 13  2  0
 13 14  1  0
 14 15  2  0
 15 16  1  0
 16 17  2  0
 16 18  1  0
 15 19  1  0
 14 20  1  0
 13 21  1  0
 11 22  2  0
 22 23  1  0
 23 24  1  0
 24 25  2  0
 25 26  1  0
 26 27  2  0
 27 28  1  0
 28 29  2  0
 29 30  1  0
 27 31  1  0
 26 32  1  0
 25 33  1  0
  8 34  1  0
  8 35  1  0
  6 36  1  0
  5 37  1  0
  3 38  1  0
  1 39  1  0
  1 40  1  0
  1 41  1  0
  7  2  1  0
 23  9  1  0
 29 24  1  0
 17 12  1  0
M  END
>  <cnnaffinity>  (1) 
-6.15186

>  <filename>  (1) 
Cc1cnccc1Cc1nc(-c2ccccn2)nn1-c1cccnc1

$$$$
