
     RDKit          3D

 46 49  0  0  0  0  0  0  0  0999 V2000
   13.9720    1.5624   23.2943 C   0  0  0  0  0  0  0  0  0  0  0  0
   13.0960    0.5046   22.6964 C   0  0  0  0  0  0  0  0  0  0  0  0
   13.6420   -0.7037   22.2530 C   0  0  0  0  0  0  0  0  0  0  0  0
   12.8320   -1.6408   21.6123 C   0  0  0  0  0  0  0  0  0  0  0  0
   11.4648   -1.4177   21.4606 C   0  0  0  0  0  0  0  0  0  0  0  0
   10.8931   -0.2301   21.9545 C   0  0  0  0  0  0  0  0  0  0  0  0
    9.4426    0.0248   21.8741 C   0  0  0  0  0  0  0  0  0  0  0  0
    8.5710   -0.7967   21.3115 N   0  0  0  0  0  0  0  0  0  0  0  0
    7.3824   -0.2065   21.5626 N   0  0  0  0  0  0  0  0  0  0  0  0
    6.1503   -0.7096   20.9639 C   0  0  0  0  0  0  0  0  0  0  0  0
    5.7590    0.0313   19.6992 C   0  0  0  0  0  0  0  0  0  0  0  0
    4.6397    0.8668   19.6119 C   0  0  0  0  0  0  0  0  0  0  0  0
    4.4352    1.5983   18.4375 C   0  0  0  0  0  0  0  0  0  0  0  0
    5.3533    1.4657   17.3937 C   0  0  0  0  0  0  0  0  0  0  0  0
    6.4151    0.6471   17.4447 N   0  0  0  0  0  0  0  0  0  0  0  0
    6.6006   -0.0437   18.5762 C   0  0  0  0  0  0  0  0  0  0  0  0
    7.4796   -0.6868   18.6086 H   0  0  0  0  0  0  0  0  0  0  0  0
    5.2409    2.0408   16.4759 H   0  0  0  0  0  0  0  0  0  0  0  0
    3.5963    2.2756   18.3216 H   0  0  0  0  0  0  0  0  0  0  0  0
    3.9374    0.9574   20.4430 H   0  0  0  0  0  0  0  0  0  0  0  0
    6.3070   -1.7786   20.7744 H   0  0  0  0  0  0  0  0  0  0  0  0
    5.3769   -0.6034   21.7241 H   0  0  0  0  0  0  0  0  0  0  0  0
    7.5950    0.9507   22.2213 C   0  0  0  0  0  0  0  0  0  0  0  0
    6.5470    1.7889   22.8720 C   0  0  0  0  0  0  0  0  0  0  0  0
    6.3762    1.3324   24.2472 N   0  0  0  0  0  0  0  0  0  0  0  0
    7.1355    1.6937   25.3106 C   0  0  0  0  0  0  0  0  0  0  0  0
    6.8830    0.7888   26.3165 C   0  0  0  0  0  0  0  0  0  0  0  0
    5.9407   -0.1027   25.7473 C   0  0  0  0  0  0  0  0  0  0  0  0
    5.3692   -1.3501   26.3766 C   0  0  0  0  0  0  0  0  0  0  0  0
    5.6961   -2.4594   25.6541 F   0  0  0  0  0  0  0  0  0  0  0  0
    4.0107   -1.3076   26.4632 F   0  0  0  0  0  0  0  0  0  0  0  0
    5.7726   -1.4882   27.3862 H   0  0  0  0  0  0  0  0  0  0  0  0
    5.6669    0.2349   24.4893 N   0  0  0  0  0  0  0  0  0  0  0  0
    7.3504    0.7366   27.2942 H   0  0  0  0  0  0  0  0  0  0  0  0
    7.7948    2.5475   25.2263 H   0  0  0  0  0  0  0  0  0  0  0  0
    6.8939    2.8237   22.9022 H   0  0  0  0  0  0  0  0  0  0  0  0
    5.5846    1.7286   22.3599 H   0  0  0  0  0  0  0  0  0  0  0  0
    8.8796    1.1345   22.4239 N   0  0  0  0  0  0  0  0  0  0  0  0
   11.7196    0.7168   22.5822 C   0  0  0  0  0  0  0  0  0  0  0  0
   11.2832    1.6258   22.9918 H   0  0  0  0  0  0  0  0  0  0  0  0
   10.8436   -2.1481   20.9508 H   0  0  0  0  0  0  0  0  0  0  0  0
   13.3044   -2.5208   21.1990 H   0  0  0  0  0  0  0  0  0  0  0  0
   14.6959   -0.9209   22.4292 H   0  0  0  0  0  0  0  0  0  0  0  0
   13.7818    1.6394   24.3677 H   0  0  0  0  0  0  0  0  0  0  0  0
   13.8085    2.5493   22.8464 H   0  0  0  0  0  0  0  0  0  0  0  0
   15.0180    1.3033   23.1363 H   0  0  0  0  0  0  0  0  0  0  0  0
  1  2  1  0
  2  3  2  0
  3  4  1  0
  4  5  2  0
  5  6  1  0
  6  7  1  0
  7  8  2  0
  8  9  1  0
  9 10  1  0
 10 11  1  0
 11 12  2  0
 12 13  1  0
 13 14  2  0
 14 15  1  0
 15 16  2  0
 16 17  1  0
 14 18  1  0
 13 19  1  0
 12 20  1  0
 10 21  1  0
 10 22  1  0
  9 23  1  0
 23 24  1  0
 24 25  1  0
 25 26  1  0
 26 27  2  0
 27 28  1  0
 28 29  1  0
 29 30  1  0
 29 31  1  0
 29 32  1  0
 28 33  2  0
 27 34  1  0
 26 35  1  0
 24 36  1  0
 24 37  1  0
 23 38  2  0
  6 39  2  0
 39 40  1  0
  5 41  1  0
  4 42  1  0
  3 43  1  0
  1 44  1  0
  1 45  1  0
  1 46  1  0
 39  2  1  0
 38  7  1  0
 16 11  1  0
 33 25  1  0
M  END
>  <cnnaffinity>  (1) 
-6.48392

>  <filename>  (1) 
Cc1cccc(-c2nc(Cn3ccc(C(F)F)n3)n(Cc3cccnc3)n2)c1

$$$$
