
     RDKit          3D

 46 49  0  0  0  0  0  0  0  0999 V2000
   14.0264    0.8754   23.7873 C   0  0  0  0  0  0  0  0  0  0  0  0
   13.1121    0.2630   22.7958 C   0  0  0  0  0  0  0  0  0  0  0  0
   13.3024   -0.9688   22.2480 C   0  0  0  0  0  0  0  0  0  0  0  0
   12.3602   -1.5100   21.3373 C   0  0  0  0  0  0  0  0  0  0  0  0
   11.2419   -0.8042   21.0300 C   0  0  0  0  0  0  0  0  0  0  0  0
   11.0838    0.4888   21.4606 N   0  0  0  0  0  0  0  0  0  0  0  0
    9.8762    1.2381   21.0820 C   0  0  0  0  0  0  0  0  0  0  0  0
    8.7764    1.1482   22.0969 C   0  0  0  0  0  0  0  0  0  0  0  0
    8.6913    1.8868   23.1788 N   0  0  0  0  0  0  0  0  0  0  0  0
    7.6353    1.3526   23.8422 C   0  0  0  0  0  0  0  0  0  0  0  0
    7.1907    1.8639   25.1522 C   0  0  0  0  0  0  0  0  0  0  0  0
    6.0262    1.3570   25.7590 C   0  0  0  0  0  0  0  0  0  0  0  0
    5.6177    1.8446   26.9990 C   0  0  0  0  0  0  0  0  0  0  0  0
    6.3634    2.8367   27.6467 C   0  0  0  0  0  0  0  0  0  0  0  0
    7.5261    3.3403   27.0512 C   0  0  0  0  0  0  0  0  0  0  0  0
    7.9432    2.8557   25.8123 C   0  0  0  0  0  0  0  0  0  0  0  0
    8.8524    3.2332   25.3449 H   0  0  0  0  0  0  0  0  0  0  0  0
    8.1039    4.1140   27.5489 H   0  0  0  0  0  0  0  0  0  0  0  0
    6.0407    3.2152   28.6122 H   0  0  0  0  0  0  0  0  0  0  0  0
    4.7161    1.4498   27.4596 H   0  0  0  0  0  0  0  0  0  0  0  0
    5.4592    0.5783   25.2511 H   0  0  0  0  0  0  0  0  0  0  0  0
    7.0645    0.3399   23.2088 N   0  0  0  0  0  0  0  0  0  0  0  0
    7.8095    0.2061   22.0932 N   0  0  0  0  0  0  0  0  0  0  0  0
    7.3833   -0.7017   21.0308 C   0  0  0  0  0  0  0  0  0  0  0  0
    6.6624   -0.0061   19.8816 C   0  0  0  0  0  0  0  0  0  0  0  0
    5.4478    0.6504   20.1297 C   0  0  0  0  0  0  0  0  0  0  0  0
    4.8013    1.3093   19.0782 C   0  0  0  0  0  0  0  0  0  0  0  0
    5.4008    1.2966   17.8154 C   0  0  0  0  0  0  0  0  0  0  0  0
    6.5585    0.6717   17.5514 N   0  0  0  0  0  0  0  0  0  0  0  0
    7.1656    0.0479   18.5713 C   0  0  0  0  0  0  0  0  0  0  0  0
    8.1089   -0.4362   18.3143 H   0  0  0  0  0  0  0  0  0  0  0  0
    4.9344    1.8146   16.9783 H   0  0  0  0  0  0  0  0  0  0  0  0
    3.8656    1.8451   19.2230 H   0  0  0  0  0  0  0  0  0  0  0  0
    5.0269    0.6526   21.1374 H   0  0  0  0  0  0  0  0  0  0  0  0
    6.7260   -1.4212   21.5304 H   0  0  0  0  0  0  0  0  0  0  0  0
    8.2502   -1.2602   20.6627 H   0  0  0  0  0  0  0  0  0  0  0  0
   10.1356    2.2951   20.9851 H   0  0  0  0  0  0  0  0  0  0  0  0
    9.5125    0.8747   20.1160 H   0  0  0  0  0  0  0  0  0  0  0  0
   11.9939    1.0998   22.3638 C   0  0  0  0  0  0  0  0  0  0  0  0
   11.8259    2.2540   22.7365 O   0  0  0  0  0  0  0  0  0  0  0  0
   10.4256   -1.2218   20.4430 H   0  0  0  0  0  0  0  0  0  0  0  0
   12.5480   -2.4572   20.8638 H   0  0  0  0  0  0  0  0  0  0  0  0
   14.1799   -1.5478   22.5302 H   0  0  0  0  0  0  0  0  0  0  0  0
   13.4981    1.1515   24.7056 H   0  0  0  0  0  0  0  0  0  0  0  0
   14.8414    0.2009   24.0467 H   0  0  0  0  0  0  0  0  0  0  0  0
   14.4271    1.7952   23.3558 H   0  0  0  0  0  0  0  0  0  0  0  0
  1  2  1  0
  2  3  2  0
  3  4  1  0
  4  5  2  0
  5  6  1  0
  6  7  1  0
  7  8  1  0
  8  9  2  0
  9 10  1  0
 10 11  1  0
 11 12  2  0
 12 13  1  0
 13 14  2  0
 14 15  1  0
 15 16  2  0
 16 17  1  0
 15 18  1  0
 14 19  1  0
 13 20  1  0
 12 21  1  0
 10 22  2  0
 22 23  1  0
 23 24  1  0
 24 25  1  0
 25 26  2  0
 26 27  1  0
 27 28  2  0
 28 29  1  0
 29 30  2  0
 30 31  1  0
 28 32  1  0
 27 33  1  0
 26 34  1  0
 24 35  1  0
 24 36  1  0
  7 37  1  0
  7 38  1  0
  6 39  1  0
 39 40  2  0
  5 41  1  0
  4 42  1  0
  3 43  1  0
  1 44  1  0
  1 45  1  0
  1 46  1  0
 39  2  1  0
 23  8  1  0
 30 25  1  0
 16 11  1  0
M  END
>  <cnnaffinity>  (1) 
-6.16951

>  <filename>  (1) 
Cc1cccn(Cc2nc(-c3ccccc3)nn2Cc2cccnc2)c1=O

$$$$
