
     RDKit          3D

 41 44  0  0  0  0  0  0  0  0999 V2000
   13.7403    0.4000   23.7142 C   0  0  0  0  0  0  0  0  0  0  0  0
   12.4810    0.8491   23.0250 C   0  0  0  0  0  0  0  0  0  0  0  0
   11.7945    1.9736   23.3796 C   0  0  0  0  0  0  0  0  0  0  0  0
   10.3803    2.2197   22.4354 S   0  0  0  0  0  0  0  0  0  0  0  0
   10.6505    0.7595   21.5643 C   0  0  0  0  0  0  0  0  0  0  0  0
    9.6074    0.1797   20.6590 C   0  0  0  0  0  0  0  0  0  0  0  0
    8.5754   -0.6568   21.3457 C   0  0  0  0  0  0  0  0  0  0  0  0
    8.7787   -1.4967   22.3376 N   0  0  0  0  0  0  0  0  0  0  0  0
    7.5578   -2.0666   22.5212 C   0  0  0  0  0  0  0  0  0  0  0  0
    7.3274   -3.0940   23.5877 C   0  0  0  0  0  0  0  0  0  0  0  0
    5.9608   -3.0144   24.2988 C   0  0  0  0  0  0  0  0  0  0  0  0
    6.2529   -3.6246   25.6748 C   0  0  0  0  0  0  0  0  0  0  0  0
    7.6558   -3.5457   25.8772 O   0  0  0  0  0  0  0  0  0  0  0  0
    8.2969   -2.9415   24.7705 C   0  0  0  0  0  0  0  0  0  0  0  0
    8.5004   -1.8766   24.9645 H   0  0  0  0  0  0  0  0  0  0  0  0
    9.2542   -3.4521   24.6124 H   0  0  0  0  0  0  0  0  0  0  0  0
    5.9571   -4.6797   25.7338 H   0  0  0  0  0  0  0  0  0  0  0  0
    5.7313   -3.0867   26.4774 H   0  0  0  0  0  0  0  0  0  0  0  0
    5.6744   -1.9610   24.4074 H   0  0  0  0  0  0  0  0  0  0  0  0
    5.1635   -3.5363   23.7611 H   0  0  0  0  0  0  0  0  0  0  0  0
    7.4695   -4.0871   23.1412 H   0  0  0  0  0  0  0  0  0  0  0  0
    6.6231   -1.6466   21.6888 N   0  0  0  0  0  0  0  0  0  0  0  0
    7.2847   -0.7544   20.9090 N   0  0  0  0  0  0  0  0  0  0  0  0
    6.6088   -0.0572   19.8737 C   0  0  0  0  0  0  0  0  0  0  0  0
    5.4059    0.6070   20.1384 C   0  0  0  0  0  0  0  0  0  0  0  0
    4.8034    1.3092   19.0907 C   0  0  0  0  0  0  0  0  0  0  0  0
    5.4024    1.3088   17.8239 C   0  0  0  0  0  0  0  0  0  0  0  0
    6.5402    0.6524   17.5586 N   0  0  0  0  0  0  0  0  0  0  0  0
    7.1232   -0.0075   18.5638 C   0  0  0  0  0  0  0  0  0  0  0  0
    8.0576   -0.5106   18.3305 H   0  0  0  0  0  0  0  0  0  0  0  0
    4.9513    1.8450   16.9903 H   0  0  0  0  0  0  0  0  0  0  0  0
    3.8815    1.8572   19.2424 H   0  0  0  0  0  0  0  0  0  0  0  0
    4.9775    0.5765   21.1411 H   0  0  0  0  0  0  0  0  0  0  0  0
    9.1123    0.9667   20.0867 H   0  0  0  0  0  0  0  0  0  0  0  0
   10.0886   -0.4940   19.9427 H   0  0  0  0  0  0  0  0  0  0  0  0
   11.8255    0.1836   21.9355 C   0  0  0  0  0  0  0  0  0  0  0  0
   12.2136   -0.7038   21.4459 H   0  0  0  0  0  0  0  0  0  0  0  0
   12.0378    2.6451   24.1889 H   0  0  0  0  0  0  0  0  0  0  0  0
   14.4963    1.1849   23.6827 H   0  0  0  0  0  0  0  0  0  0  0  0
   13.5511    0.1536   24.7678 H   0  0  0  0  0  0  0  0  0  0  0  0
   14.1765   -0.4885   23.2488 H   0  0  0  0  0  0  0  0  0  0  0  0
  1  2  1  0
  2  3  2  0
  3  4  1  0
  4  5  1  0
  5  6  1  0
  6  7  1  0
  7  8  2  0
  8  9  1  0
  9 10  1  0
 10 11  1  0
 11 12  1  0
 12 13  1  0
 13 14  1  0
 14 15  1  0
 14 16  1  0
 12 17  1  0
 12 18  1  0
 11 19  1  0
 11 20  1  0
 10 21  1  0
  9 22  2  0
 22 23  1  0
 23 24  1  0
 24 25  2  0
 25 26  1  0
 26 27  2  0
 27 28  1  0
 28 29  2  0
 29 30  1  0
 27 31  1  0
 26 32  1  0
 25 33  1  0
  6 34  1  0
  6 35  1  0
  5 36  2  0
 36 37  1  0
  3 38  1  0
  1 39  1  0
  1 40  1  0
  1 41  1  0
 36  2  1  0
 23  7  1  0
 29 24  1  0
 14 10  1  0
M  END
>  <cnnaffinity>  (1) 
-6.03222

>  <filename>  (1) 
Cc1csc(Cc2nc(C3CCOC3)nn2-c2cccnc2)c1

$$$$
