
     RDKit          3D

 39 42  0  0  0  0  0  0  0  0999 V2000
   11.0026   -4.4139   24.9269 C   0  0  0  0  0  0  0  0  0  0  0  0
    9.7577   -4.6221   24.1163 C   0  0  0  0  0  0  0  0  0  0  0  0
    8.8359   -5.6110   24.2403 C   0  0  0  0  0  0  0  0  0  0  0  0
    7.8912   -5.5061   23.2943 O   0  0  0  0  0  0  0  0  0  0  0  0
    8.1648   -4.4087   22.5181 N   0  0  0  0  0  0  0  0  0  0  0  0
    9.2558   -3.8751   23.0020 C   0  0  0  0  0  0  0  0  0  0  0  0
    9.7925   -2.5966   22.3877 C   0  0  0  0  0  0  0  0  0  0  0  0
    8.6901   -1.6769   21.9808 C   0  0  0  0  0  0  0  0  0  0  0  0
    8.4531   -1.2225   20.7722 N   0  0  0  0  0  0  0  0  0  0  0  0
    7.2743   -0.5581   20.9208 C   0  0  0  0  0  0  0  0  0  0  0  0
    6.5742    0.0969   19.8193 C   0  0  0  0  0  0  0  0  0  0  0  0
    5.3459    0.7608   19.9971 C   0  0  0  0  0  0  0  0  0  0  0  0
    4.7758    1.3916   18.8952 C   0  0  0  0  0  0  0  0  0  0  0  0
    5.4409    1.3342   17.6647 C   0  0  0  0  0  0  0  0  0  0  0  0
    6.5977    0.6791   17.4813 N   0  0  0  0  0  0  0  0  0  0  0  0
    7.1469    0.0765   18.5419 C   0  0  0  0  0  0  0  0  0  0  0  0
    8.0825   -0.4493   18.3659 H   0  0  0  0  0  0  0  0  0  0  0  0
    5.0248    1.8310   16.7894 H   0  0  0  0  0  0  0  0  0  0  0  0
    3.8409    1.9392   18.9749 H   0  0  0  0  0  0  0  0  0  0  0  0
    4.8610    0.7803   20.9741 H   0  0  0  0  0  0  0  0  0  0  0  0
    6.7822   -0.5792   22.1450 N   0  0  0  0  0  0  0  0  0  0  0  0
    7.7191   -1.2640   22.8367 N   0  0  0  0  0  0  0  0  0  0  0  0
    7.5506   -1.6427   24.2055 C   0  0  0  0  0  0  0  0  0  0  0  0
    8.6078   -1.4718   25.1044 C   0  0  0  0  0  0  0  0  0  0  0  0
    8.5050   -2.0790   26.3505 C   0  0  0  0  0  0  0  0  0  0  0  0
    9.5209   -1.9346   27.2154 F   0  0  0  0  0  0  0  0  0  0  0  0
    7.4105   -2.8524   26.7309 C   0  0  0  0  0  0  0  0  0  0  0  0
    6.3304   -2.9425   25.8423 C   0  0  0  0  0  0  0  0  0  0  0  0
    6.3805   -2.3150   24.5932 C   0  0  0  0  0  0  0  0  0  0  0  0
    5.5532   -2.3809   23.8906 H   0  0  0  0  0  0  0  0  0  0  0  0
    5.4563   -3.5276   26.1291 H   0  0  0  0  0  0  0  0  0  0  0  0
    7.4133   -3.3456   27.6951 H   0  0  0  0  0  0  0  0  0  0  0  0
    9.4924   -0.8901   24.8648 H   0  0  0  0  0  0  0  0  0  0  0  0
   10.3903   -2.7855   21.4965 H   0  0  0  0  0  0  0  0  0  0  0  0
   10.4482   -2.1061   23.1100 H   0  0  0  0  0  0  0  0  0  0  0  0
    8.7306   -6.4459   24.9228 H   0  0  0  0  0  0  0  0  0  0  0  0
   11.8197   -4.0037   24.3185 H   0  0  0  0  0  0  0  0  0  0  0  0
   10.7903   -3.7154   25.7349 H   0  0  0  0  0  0  0  0  0  0  0  0
   11.3390   -5.3411   25.4063 H   0  0  0  0  0  0  0  0  0  0  0  0
  1  2  1  0
  2  3  2  0
  3  4  1  0
  4  5  1  0
  5  6  2  0
  6  7  1  0
  7  8  1  0
  8  9  2  0
  9 10  1  0
 10 11  1  0
 11 12  2  0
 12 13  1  0
 13 14  2  0
 14 15  1  0
 15 16  2  0
 16 17  1  0
 14 18  1  0
 13 19  1  0
 12 20  1  0
 10 21  2  0
 21 22  1  0
 22 23  1  0
 23 24  2  0
 24 25  1  0
 25 26  1  0
 25 27  2  0
 27 28  1  0
 28 29  2  0
 29 30  1  0
 28 31  1  0
 27 32  1  0
 24 33  1  0
  7 34  1  0
  7 35  1  0
  3 36  1  0
  1 37  1  0
  1 38  1  0
  1 39  1  0
  6  2  1  0
 22  8  1  0
 29 23  1  0
 16 11  1  0
M  END
>  <cnnaffinity>  (1) 
-6.36243

>  <filename>  (1) 
Cc1conc1Cc1nc(-c2cccnc2)nn1-c1cccc(F)c1

$$$$
