
     RDKit          3D

 45 48  0  0  0  0  0  0  0  0999 V2000
    4.7394    4.4479   28.0644 C   0  0  0  0  0  0  0  0  0  0  0  0
    4.9170    3.5310   26.8976 C   0  0  0  0  0  0  0  0  0  0  0  0
    3.8906    3.0631   26.2330 N   0  0  0  0  0  0  0  0  0  0  0  0
    4.4121    2.1887   25.2942 O   0  0  0  0  0  0  0  0  0  0  0  0
    5.7455    2.1368   25.4237 C   0  0  0  0  0  0  0  0  0  0  0  0
    6.4965    1.1227   24.6293 C   0  0  0  0  0  0  0  0  0  0  0  0
    6.4723    1.2665   23.0850 C   0  0  0  0  0  0  0  0  0  0  0  0
    7.5966    0.5059   22.4458 C   0  0  0  0  0  0  0  0  0  0  0  0
    8.8498    0.7822   22.7356 N   0  0  0  0  0  0  0  0  0  0  0  0
    9.5611   -0.1602   22.0695 C   0  0  0  0  0  0  0  0  0  0  0  0
   11.0463   -0.1846   22.1598 C   0  0  0  0  0  0  0  0  0  0  0  0
   11.6989    0.8978   22.7938 C   0  0  0  0  0  0  0  0  0  0  0  0
   13.0809    0.8722   22.9158 C   0  0  0  0  0  0  0  0  0  0  0  0
   13.6795    1.8578   23.5998 F   0  0  0  0  0  0  0  0  0  0  0  0
   13.8634   -0.1351   22.3642 C   0  0  0  0  0  0  0  0  0  0  0  0
   13.1957   -1.1893   21.7402 C   0  0  0  0  0  0  0  0  0  0  0  0
   13.9279   -2.1734   21.2055 F   0  0  0  0  0  0  0  0  0  0  0  0
   11.8088   -1.2447   21.6308 C   0  0  0  0  0  0  0  0  0  0  0  0
   11.3455   -2.0985   21.1430 H   0  0  0  0  0  0  0  0  0  0  0  0
   14.9413   -0.0959   22.4195 H   0  0  0  0  0  0  0  0  0  0  0  0
   11.1344    1.7439   23.1796 H   0  0  0  0  0  0  0  0  0  0  0  0
    8.8113   -0.9822   21.3494 N   0  0  0  0  0  0  0  0  0  0  0  0
    7.5487   -0.5534   21.6036 N   0  0  0  0  0  0  0  0  0  0  0  0
    6.4232   -1.0932   20.8414 C   0  0  0  0  0  0  0  0  0  0  0  0
    6.0051   -0.1998   19.6861 C   0  0  0  0  0  0  0  0  0  0  0  0
    4.8161    0.5390   19.6522 C   0  0  0  0  0  0  0  0  0  0  0  0
    4.5950    1.4028   18.5717 C   0  0  0  0  0  0  0  0  0  0  0  0
    5.5541    1.4707   17.5587 C   0  0  0  0  0  0  0  0  0  0  0  0
    6.6867    0.7544   17.5598 N   0  0  0  0  0  0  0  0  0  0  0  0
    6.9007   -0.0438   18.6141 C   0  0  0  0  0  0  0  0  0  0  0  0
    7.8382   -0.6014   18.6213 H   0  0  0  0  0  0  0  0  0  0  0  0
    5.4133    2.1396   16.7086 H   0  0  0  0  0  0  0  0  0  0  0  0
    3.7151    2.0332   18.5118 H   0  0  0  0  0  0  0  0  0  0  0  0
    4.0722    0.4644   20.4510 H   0  0  0  0  0  0  0  0  0  0  0  0
    6.7489   -2.0779   20.4883 H   0  0  0  0  0  0  0  0  0  0  0  0
    5.5895   -1.2618   21.5275 H   0  0  0  0  0  0  0  0  0  0  0  0
    5.5043    0.9757   22.6673 H   0  0  0  0  0  0  0  0  0  0  0  0
    6.6397    2.3144   22.8111 H   0  0  0  0  0  0  0  0  0  0  0  0
    6.1222    0.1302   24.9119 H   0  0  0  0  0  0  0  0  0  0  0  0
    7.5372    1.1811   24.9645 H   0  0  0  0  0  0  0  0  0  0  0  0
    6.1388    2.9967   26.3991 C   0  0  0  0  0  0  0  0  0  0  0  0
    7.1413    3.2303   26.7212 H   0  0  0  0  0  0  0  0  0  0  0  0
    5.1932    4.0019   28.9556 H   0  0  0  0  0  0  0  0  0  0  0  0
    5.2321    5.4079   27.8860 H   0  0  0  0  0  0  0  0  0  0  0  0
    3.6795    4.6203   28.2672 H   0  0  0  0  0  0  0  0  0  0  0  0
  1  2  1  0
  2  3  2  0
  3  4  1  0
  4  5  1  0
  5  6  1  0
  6  7  1  0
  7  8  1  0
  8  9  2  0
  9 10  1  0
 10 11  1  0
 11 12  2  0
 12 13  1  0
 13 14  1  0
 13 15  2  0
 15 16  1  0
 16 17  1  0
 16 18  2  0
 18 19  1  0
 15 20  1  0
 12 21  1  0
 10 22  2  0
 22 23  1  0
 23 24  1  0
 24 25  1  0
 25 26  2  0
 26 27  1  0
 27 28  2  0
 28 29  1  0
 29 30  2  0
 30 31  1  0
 28 32  1  0
 27 33  1  0
 26 34  1  0
 24 35  1  0
 24 36  1  0
  7 37  1  0
  7 38  1  0
  6 39  1  0
  6 40  1  0
  5 41  2  0
 41 42  1  0
  1 43  1  0
  1 44  1  0
  1 45  1  0
 41  2  1  0
 23  8  1  0
 30 25  1  0
 18 11  1  0
M  END
>  <cnnaffinity>  (1) 
-6.32768

>  <filename>  (1) 
Cc1cc(CCc2nc(-c3cc(F)cc(F)c3)nn2Cc2cccnc2)on1

$$$$
