
     RDKit          3D

 47 50  0  0  0  0  0  0  0  0999 V2000
    6.9233    7.6627   23.6643 C   0  0  0  0  0  0  0  0  0  0  0  0
    7.4347    6.2602   23.4607 C   0  0  0  0  0  0  0  0  0  0  0  0
    8.8116    5.9964   23.4459 C   0  0  0  0  0  0  0  0  0  0  0  0
    9.2861    4.6996   23.2385 C   0  0  0  0  0  0  0  0  0  0  0  0
    8.3942    3.6373   23.0482 C   0  0  0  0  0  0  0  0  0  0  0  0
    8.8991    2.2523   22.7571 C   0  0  0  0  0  0  0  0  0  0  0  0
    9.0410    2.0102   21.2492 C   0  0  0  0  0  0  0  0  0  0  0  0
    9.5417    0.5954   20.9230 C   0  0  0  0  0  0  0  0  0  0  0  0
    8.6428   -0.4773   21.4323 C   0  0  0  0  0  0  0  0  0  0  0  0
    8.8699   -1.2958   22.4461 N   0  0  0  0  0  0  0  0  0  0  0  0
    7.6878   -1.9438   22.5786 C   0  0  0  0  0  0  0  0  0  0  0  0
    7.4360   -2.9399   23.6627 C   0  0  0  0  0  0  0  0  0  0  0  0
    6.2813   -2.5515   24.6319 C   0  0  0  0  0  0  0  0  0  0  0  0
    5.3232   -4.0376   24.1785 S   0  0  0  0  0  0  0  0  0  0  0  0
    6.8276   -4.2827   23.1757 C   0  0  0  0  0  0  0  0  0  0  0  0
    7.3962   -5.1703   23.4689 H   0  0  0  0  0  0  0  0  0  0  0  0
    6.6166   -4.3159   22.1020 H   0  0  0  0  0  0  0  0  0  0  0  0
    6.5613   -2.5239   25.6892 H   0  0  0  0  0  0  0  0  0  0  0  0
    5.7719   -1.6185   24.3733 H   0  0  0  0  0  0  0  0  0  0  0  0
    8.3833   -3.0725   24.1830 H   0  0  0  0  0  0  0  0  0  0  0  0
    6.7595   -1.5998   21.7091 N   0  0  0  0  0  0  0  0  0  0  0  0
    7.3789   -0.6640   20.9465 N   0  0  0  0  0  0  0  0  0  0  0  0
    6.6643    0.0061   19.9077 C   0  0  0  0  0  0  0  0  0  0  0  0
    5.4420    0.6377   20.1690 C   0  0  0  0  0  0  0  0  0  0  0  0
    4.8140    1.3063   19.1115 C   0  0  0  0  0  0  0  0  0  0  0  0
    5.4007    1.2956   17.8389 C   0  0  0  0  0  0  0  0  0  0  0  0
    6.5605    0.6730   17.5779 N   0  0  0  0  0  0  0  0  0  0  0  0
    7.1697    0.0539   18.5959 C   0  0  0  0  0  0  0  0  0  0  0  0
    8.1128   -0.4355   18.3690 H   0  0  0  0  0  0  0  0  0  0  0  0
    4.9198    1.7862   16.9947 H   0  0  0  0  0  0  0  0  0  0  0  0
    3.8814    1.8375   19.2604 H   0  0  0  0  0  0  0  0  0  0  0  0
    5.0148    0.6070   21.1752 H   0  0  0  0  0  0  0  0  0  0  0  0
    9.6399    0.4907   19.8412 H   0  0  0  0  0  0  0  0  0  0  0  0
   10.5243    0.4246   21.3710 H   0  0  0  0  0  0  0  0  0  0  0  0
    8.0806    2.1936   20.7488 H   0  0  0  0  0  0  0  0  0  0  0  0
    9.7456    2.7409   20.8419 H   0  0  0  0  0  0  0  0  0  0  0  0
    8.2194    1.5060   23.1878 H   0  0  0  0  0  0  0  0  0  0  0  0
    9.8695    2.0904   23.2435 H   0  0  0  0  0  0  0  0  0  0  0  0
    7.0193    3.9028   23.0404 C   0  0  0  0  0  0  0  0  0  0  0  0
    6.5440    5.1985   23.2480 C   0  0  0  0  0  0  0  0  0  0  0  0
    5.4743    5.3937   23.2355 H   0  0  0  0  0  0  0  0  0  0  0  0
    6.3176    3.0917   22.8515 H   0  0  0  0  0  0  0  0  0  0  0  0
   10.3579    4.5133   23.2081 H   0  0  0  0  0  0  0  0  0  0  0  0
    9.5128    6.8138   23.5931 H   0  0  0  0  0  0  0  0  0  0  0  0
    6.8253    8.1813   22.7046 H   0  0  0  0  0  0  0  0  0  0  0  0
    5.9379    7.6683   24.1399 H   0  0  0  0  0  0  0  0  0  0  0  0
    7.6011    8.2536   24.2874 H   0  0  0  0  0  0  0  0  0  0  0  0
  1  2  1  0
  2  3  2  0
  3  4  1  0
  4  5  2  0
  5  6  1  0
  6  7  1  0
  7  8  1  0
  8  9  1  0
  9 10  2  0
 10 11  1  0
 11 12  1  0
 12 13  1  0
 13 14  1  0
 14 15  1  0
 15 16  1  0
 15 17  1  0
 13 18  1  0
 13 19  1  0
 12 20  1  0
 11 21  2  0
 21 22  1  0
 22 23  1  0
 23 24  2  0
 24 25  1  0
 25 26  2  0
 26 27  1  0
 27 28  2  0
 28 29  1  0
 26 30  1  0
 25 31  1  0
 24 32  1  0
  8 33  1  0
  8 34  1  0
  7 35  1  0
  7 36  1  0
  6 37  1  0
  6 38  1  0
  5 39  1  0
 39 40  2  0
 40 41  1  0
 39 42  1  0
  4 43  1  0
  3 44  1  0
  1 45  1  0
  1 46  1  0
  1 47  1  0
 40  2  1  0
 22  9  1  0
 28 23  1  0
 15 12  1  0
M  END
>  <cnnaffinity>  (1) 
-5.94546

>  <filename>  (1) 
Cc1ccc(CCCc2nc(C3CSC3)nn2-c2cccnc2)cc1

$$$$
