
     RDKit          3D

 40 43  0  0  0  0  0  0  0  0999 V2000
    8.3203    2.7629   22.0492 C   0  0  0  0  0  0  0  0  0  0  0  0
    9.6745    2.2763   22.5039 C   0  0  0  0  0  0  0  0  0  0  0  0
   10.3238    2.9290   23.5578 C   0  0  0  0  0  0  0  0  0  0  0  0
   11.5670    2.4903   24.0211 C   0  0  0  0  0  0  0  0  0  0  0  0
   12.1852    1.3848   23.4394 C   0  0  0  0  0  0  0  0  0  0  0  0
   11.5519    0.7322   22.3788 C   0  0  0  0  0  0  0  0  0  0  0  0
   10.3199    1.1794   21.8925 C   0  0  0  0  0  0  0  0  0  0  0  0
    9.6248    0.3781   20.8114 C   0  0  0  0  0  0  0  0  0  0  0  0
    8.6194   -0.5690   21.3699 C   0  0  0  0  0  0  0  0  0  0  0  0
    8.8429   -1.4396   22.3261 N   0  0  0  0  0  0  0  0  0  0  0  0
    7.6217   -2.0278   22.5104 C   0  0  0  0  0  0  0  0  0  0  0  0
    7.4051   -3.0464   23.5617 C   0  0  0  0  0  0  0  0  0  0  0  0
    6.2288   -3.6476   23.7692 N   0  0  0  0  0  0  0  0  0  0  0  0
    6.4483   -4.4772   24.7834 N   0  0  0  0  0  0  0  0  0  0  0  0
    7.7201   -4.4517   25.2511 C   0  0  0  0  0  0  0  0  0  0  0  0
    8.3782   -3.5309   24.4812 C   0  0  0  0  0  0  0  0  0  0  0  0
    9.4111   -3.2314   24.5532 H   0  0  0  0  0  0  0  0  0  0  0  0
    8.0361   -5.0814   26.0762 H   0  0  0  0  0  0  0  0  0  0  0  0
    5.6678   -5.0288   25.1034 H   0  0  0  0  0  0  0  0  0  0  0  0
    6.6825   -1.5861   21.6862 N   0  0  0  0  0  0  0  0  0  0  0  0
    7.3338   -0.6831   20.9242 N   0  0  0  0  0  0  0  0  0  0  0  0
    6.6500    0.0071   19.8924 C   0  0  0  0  0  0  0  0  0  0  0  0
    5.4372    0.6469   20.1632 C   0  0  0  0  0  0  0  0  0  0  0  0
    4.8110    1.3141   19.1086 C   0  0  0  0  0  0  0  0  0  0  0  0
    5.3995    1.2975   17.8374 C   0  0  0  0  0  0  0  0  0  0  0  0
    6.5568    0.6734   17.5713 N   0  0  0  0  0  0  0  0  0  0  0  0
    7.1644    0.0496   18.5860 C   0  0  0  0  0  0  0  0  0  0  0  0
    8.1140   -0.4340   18.3663 H   0  0  0  0  0  0  0  0  0  0  0  0
    4.9171    1.7851   16.9947 H   0  0  0  0  0  0  0  0  0  0  0  0
    3.8787    1.8413   19.2622 H   0  0  0  0  0  0  0  0  0  0  0  0
    5.0166    0.6054   21.1715 H   0  0  0  0  0  0  0  0  0  0  0  0
   10.3304   -0.2739   20.2975 H   0  0  0  0  0  0  0  0  0  0  0  0
    9.1583    1.0440   20.0822 H   0  0  0  0  0  0  0  0  0  0  0  0
   12.0004   -0.1516   21.9273 H   0  0  0  0  0  0  0  0  0  0  0  0
   13.1474    1.0318   23.7999 H   0  0  0  0  0  0  0  0  0  0  0  0
   12.0360    3.0188   24.8378 H   0  0  0  0  0  0  0  0  0  0  0  0
    9.8415    3.7918   24.0137 H   0  0  0  0  0  0  0  0  0  0  0  0
    8.3718    3.0982   21.0137 H   0  0  0  0  0  0  0  0  0  0  0  0
    7.9683    3.6048   22.6501 H   0  0  0  0  0  0  0  0  0  0  0  0
    7.5578    1.9763   22.0900 H   0  0  0  0  0  0  0  0  0  0  0  0
  1  2  1  0
  2  3  2  0
  3  4  1  0
  4  5  2  0
  5  6  1  0
  6  7  2  0
  7  8  1  0
  8  9  1  0
  9 10  2  0
 10 11  1  0
 11 12  1  0
 12 13  2  0
 13 14  1  0
 14 15  1  0
 15 16  2  0
 16 17  1  0
 15 18  1  0
 14 19  1  0
 11 20  2  0
 20 21  1  0
 21 22  1  0
 22 23  2  0
 23 24  1  0
 24 25  2  0
 25 26  1  0
 26 27  2  0
 27 28  1  0
 25 29  1  0
 24 30  1  0
 23 31  1  0
  8 32  1  0
  8 33  1  0
  6 34  1  0
  5 35  1  0
  4 36  1  0
  3 37  1  0
  1 38  1  0
  1 39  1  0
  1 40  1  0
  7  2  1  0
 21  9  1  0
 27 22  1  0
 16 12  1  0
M  END
>  <cnnaffinity>  (1) 
-5.93796

>  <filename>  (1) 
Cc1ccccc1Cc1nc(-c2cc[nH]n2)nn1-c1cccnc1

$$$$
