
     RDKit          3D

 37 39  0  0  0  0  0  0  0  0999 V2000
    5.0322    1.6478   16.8726 H   0  0  0  0  0  0  0  0  0  0  0  0
    5.4514    1.2477   17.7947 C   0  0  0  0  0  0  0  0  0  0  0  0
    6.6165    0.5892   17.6758 N   0  0  0  0  0  0  0  0  0  0  0  0
    7.1459    0.0805   18.7882 C   0  0  0  0  0  0  0  0  0  0  0  0
    8.1072   -0.4184   18.6678 H   0  0  0  0  0  0  0  0  0  0  0  0
    6.5682    0.1797   20.0771 C   0  0  0  0  0  0  0  0  0  0  0  0
    7.2139   -0.5068   21.2156 C   0  0  0  0  0  0  0  0  0  0  0  0
    7.4158   -0.0268   22.5034 C   0  0  0  0  0  0  0  0  0  0  0  0
    7.0143    1.3342   22.9721 C   0  0  0  0  0  0  0  0  0  0  0  0
    6.2914    1.4882   24.1685 C   0  0  0  0  0  0  0  0  0  0  0  0
    5.9871    0.6198   24.7478 H   0  0  0  0  0  0  0  0  0  0  0  0
    5.9371    2.7566   24.6273 C   0  0  0  0  0  0  0  0  0  0  0  0
    5.3594    2.8636   25.5469 H   0  0  0  0  0  0  0  0  0  0  0  0
    6.3277    3.9137   23.9411 C   0  0  0  0  0  0  0  0  0  0  0  0
    5.8830    5.2691   24.4425 C   0  0  0  0  0  0  0  0  0  0  0  0
    5.2555    5.1713   25.3338 H   0  0  0  0  0  0  0  0  0  0  0  0
    6.7319    5.9117   24.7114 H   0  0  0  0  0  0  0  0  0  0  0  0
    5.2898    5.8003   23.6859 H   0  0  0  0  0  0  0  0  0  0  0  0
    7.1320    3.7808   22.7806 C   0  0  0  0  0  0  0  0  0  0  0  0
    7.7059    5.0055   22.1053 C   0  0  0  0  0  0  0  0  0  0  0  0
    6.9215    5.7100   21.8040 H   0  0  0  0  0  0  0  0  0  0  0  0
    8.3785    5.5478   22.7831 H   0  0  0  0  0  0  0  0  0  0  0  0
    8.2813    4.7431   21.2156 H   0  0  0  0  0  0  0  0  0  0  0  0
    7.4117    2.4974   22.2914 C   0  0  0  0  0  0  0  0  0  0  0  0
    7.9440    2.3802   21.3474 H   0  0  0  0  0  0  0  0  0  0  0  0
    8.1021   -0.8861   23.4394 C   0  0  0  0  0  0  0  0  0  0  0  0
    8.3005   -0.5130   24.4468 H   0  0  0  0  0  0  0  0  0  0  0  0
    8.5448   -2.1236   23.0923 C   0  0  0  0  0  0  0  0  0  0  0  0
    9.0794   -2.7873   23.7534 H   0  0  0  0  0  0  0  0  0  0  0  0
    8.2910   -2.6566   21.7685 C   0  0  0  0  0  0  0  0  0  0  0  0
    8.5442   -3.7789   21.3642 O   0  0  0  0  0  0  0  0  0  0  0  0
    7.6823   -1.7660   20.9119 N   0  0  0  0  0  0  0  0  0  0  0  0
    7.4887   -2.2093   20.0282 H   0  0  0  0  0  0  0  0  0  0  0  0
    5.3623    0.8965   20.1799 C   0  0  0  0  0  0  0  0  0  0  0  0
    4.8914    1.0551   21.1540 H   0  0  0  0  0  0  0  0  0  0  0  0
    4.7950    1.4234   19.0168 C   0  0  0  0  0  0  0  0  0  0  0  0
    3.8659    1.9832   19.0372 H   0  0  0  0  0  0  0  0  0  0  0  0
  1  2  1  0
  2  3  2  0
  3  4  1  0
  4  5  1  0
  4  6  2  0
  6  7  1  0
  7  8  2  0
  8  9  1  0
  9 10  2  0
 10 11  1  0
 10 12  1  0
 12 13  1  0
 12 14  2  0
 14 15  1  0
 15 16  1  0
 15 17  1  0
 15 18  1  0
 14 19  1  0
 19 20  1  0
 20 21  1  0
 20 22  1  0
 20 23  1  0
 19 24  2  0
 24 25  1  0
  8 26  1  0
 26 27  1  0
 26 28  2  0
 28 29  1  0
 28 30  1  0
 30 31  2  0
 30 32  1  0
 32 33  1  0
  6 34  1  0
 34 35  1  0
 34 36  2  0
 36 37  1  0
 36  2  1  0
 32  7  1  0
 24  9  1  0
M  END
>  <cnnaffinity>  (1) 
-5.27692

>  <filename>  (1) 
Cc1ccc(-c2ccc(=O)[nH]c2-c2cccnc2)cc1C

$$$$
