
     RDKit          3D

 42 45  0  0  0  0  0  0  0  0999 V2000
   12.6287    1.4323   23.3864 C   0  0  0  0  0  0  0  0  0  0  0  0
   12.7892    0.3050   22.3991 C   0  0  0  0  0  0  0  0  0  0  0  0
   14.0726   -0.1074   22.0159 C   0  0  0  0  0  0  0  0  0  0  0  0
   14.2539   -1.1925   21.1529 C   0  0  0  0  0  0  0  0  0  0  0  0
   13.1721   -1.9515   20.7354 C   0  0  0  0  0  0  0  0  0  0  0  0
   11.8995   -1.5922   21.1325 C   0  0  0  0  0  0  0  0  0  0  0  0
   11.6865   -0.4058   21.8510 C   0  0  0  0  0  0  0  0  0  0  0  0
   10.2945    0.0670   21.9347 C   0  0  0  0  0  0  0  0  0  0  0  0
    9.3194   -0.6675   21.4084 N   0  0  0  0  0  0  0  0  0  0  0  0
    8.2023    0.0133   21.7129 N   0  0  0  0  0  0  0  0  0  0  0  0
    6.8987   -0.5037   21.3069 C   0  0  0  0  0  0  0  0  0  0  0  0
    6.3269    0.1869   20.0871 C   0  0  0  0  0  0  0  0  0  0  0  0
    5.1004    0.8570   20.0746 C   0  0  0  0  0  0  0  0  0  0  0  0
    4.6952    1.4930   18.8953 C   0  0  0  0  0  0  0  0  0  0  0  0
    5.5200    1.4070   17.7695 C   0  0  0  0  0  0  0  0  0  0  0  0
    6.6898    0.7499   17.7543 N   0  0  0  0  0  0  0  0  0  0  0  0
    7.0761    0.1714   18.8969 C   0  0  0  0  0  0  0  0  0  0  0  0
    8.0385   -0.3388   18.8843 H   0  0  0  0  0  0  0  0  0  0  0  0
    5.2299    1.8846   16.8354 H   0  0  0  0  0  0  0  0  0  0  0  0
    3.7672    2.0515   18.8384 H   0  0  0  0  0  0  0  0  0  0  0  0
    4.4708    0.8859   20.9684 H   0  0  0  0  0  0  0  0  0  0  0  0
    6.2166   -0.4364   22.1619 H   0  0  0  0  0  0  0  0  0  0  0  0
    7.0696   -1.5655   21.1002 H   0  0  0  0  0  0  0  0  0  0  0  0
    8.5381    1.1414   22.3619 C   0  0  0  0  0  0  0  0  0  0  0  0
    7.5218    1.9858   23.0752 C   0  0  0  0  0  0  0  0  0  0  0  0
    7.1583    1.3513   24.4136 C   0  0  0  0  0  0  0  0  0  0  0  0
    8.0130    1.1547   25.4503 C   0  0  0  0  0  0  0  0  0  0  0  0
    7.4498    0.4064   26.4004 O   0  0  0  0  0  0  0  0  0  0  0  0
    6.1749    0.0708   26.0158 N   0  0  0  0  0  0  0  0  0  0  0  0
    6.0052    0.6306   24.8417 C   0  0  0  0  0  0  0  0  0  0  0  0
    5.0565    0.4991   24.3351 H   0  0  0  0  0  0  0  0  0  0  0  0
    9.0432    1.4512   25.6200 H   0  0  0  0  0  0  0  0  0  0  0  0
    7.9752    2.9752   23.2104 H   0  0  0  0  0  0  0  0  0  0  0  0
    6.6393    2.1148   22.4377 H   0  0  0  0  0  0  0  0  0  0  0  0
    9.8454    1.2100   22.5208 N   0  0  0  0  0  0  0  0  0  0  0  0
   11.0297   -2.1876   20.8629 H   0  0  0  0  0  0  0  0  0  0  0  0
   13.3326   -2.7889   20.0658 H   0  0  0  0  0  0  0  0  0  0  0  0
   15.2001   -1.4950   20.7420 H   0  0  0  0  0  0  0  0  0  0  0  0
   14.9266    0.4680   22.3685 H   0  0  0  0  0  0  0  0  0  0  0  0
   13.5891    1.7278   23.8261 H   0  0  0  0  0  0  0  0  0  0  0  0
   12.1508    2.3022   22.9279 H   0  0  0  0  0  0  0  0  0  0  0  0
   11.9627    1.1076   24.1902 H   0  0  0  0  0  0  0  0  0  0  0  0
  1  2  1  0
  2  3  2  0
  3  4  1  0
  4  5  2  0
  5  6  1  0
  6  7  2  0
  7  8  1  0
  8  9  2  0
  9 10  1  0
 10 11  1  0
 11 12  1  0
 12 13  2  0
 13 14  1  0
 14 15  2  0
 15 16  1  0
 16 17  2  0
 17 18  1  0
 15 19  1  0
 14 20  1  0
 13 21  1  0
 11 22  1  0
 11 23  1  0
 10 24  1  0
 24 25  1  0
 25 26  1  0
 26 27  2  0
 27 28  1  0
 28 29  1  0
 29 30  2  0
 30 31  1  0
 27 32  1  0
 25 33  1  0
 25 34  1  0
 24 35  2  0
  6 36  1  0
  5 37  1  0
  4 38  1  0
  3 39  1  0
  1 40  1  0
  1 41  1  0
  1 42  1  0
  7  2  1  0
 35  8  1  0
 17 12  1  0
 30 26  1  0
M  END
>  <cnnaffinity>  (1) 
-6.36636

>  <filename>  (1) 
Cc1ccccc1-c1nc(Cc2cnoc2)n(Cc2cccnc2)n1

$$$$
