
     RDKit          3D

 42 45  0  0  0  0  0  0  0  0999 V2000
   12.0078    1.0280   23.9172 C   0  0  0  0  0  0  0  0  0  0  0  0
   11.9222    0.1791   22.6809 C   0  0  0  0  0  0  0  0  0  0  0  0
   11.0625    0.2247   21.6208 C   0  0  0  0  0  0  0  0  0  0  0  0
    9.9623    1.1661   21.2235 C   0  0  0  0  0  0  0  0  0  0  0  0
    8.8338    1.0972   22.1878 C   0  0  0  0  0  0  0  0  0  0  0  0
    8.8031    1.7823   23.3044 N   0  0  0  0  0  0  0  0  0  0  0  0
    7.6720    1.3378   23.9187 C   0  0  0  0  0  0  0  0  0  0  0  0
    7.2716    1.8499   25.2631 C   0  0  0  0  0  0  0  0  0  0  0  0
    8.0328    2.8515   25.9059 C   0  0  0  0  0  0  0  0  0  0  0  0
    7.6121    3.3378   27.1395 C   0  0  0  0  0  0  0  0  0  0  0  0
    6.5205    2.8958   27.7805 N   0  0  0  0  0  0  0  0  0  0  0  0
    5.8277    1.9374   27.1867 C   0  0  0  0  0  0  0  0  0  0  0  0
    4.4181    1.3648   28.0270 Cl  0  0  0  0  0  0  0  0  0  0  0  0
    6.1384    1.3735   25.9449 C   0  0  0  0  0  0  0  0  0  0  0  0
    5.5045    0.5926   25.5421 H   0  0  0  0  0  0  0  0  0  0  0  0
    8.1660    4.1316   27.6353 H   0  0  0  0  0  0  0  0  0  0  0  0
    8.9325    3.2462   25.4489 H   0  0  0  0  0  0  0  0  0  0  0  0
    7.0101    0.4260   23.2261 N   0  0  0  0  0  0  0  0  0  0  0  0
    7.7733    0.2665   22.1176 N   0  0  0  0  0  0  0  0  0  0  0  0
    7.3649   -0.6549   21.0592 C   0  0  0  0  0  0  0  0  0  0  0  0
    6.6677    0.0195   19.8947 C   0  0  0  0  0  0  0  0  0  0  0  0
    5.4527    0.6804   20.1089 C   0  0  0  0  0  0  0  0  0  0  0  0
    4.8399    1.3278   19.0334 C   0  0  0  0  0  0  0  0  0  0  0  0
    5.4652    1.2855   17.7822 C   0  0  0  0  0  0  0  0  0  0  0  0
    6.6125    0.6296   17.5505 N   0  0  0  0  0  0  0  0  0  0  0  0
    7.1877    0.0117   18.5920 C   0  0  0  0  0  0  0  0  0  0  0  0
    8.1093   -0.5330   18.3724 H   0  0  0  0  0  0  0  0  0  0  0  0
    5.0178    1.7875   16.9246 H   0  0  0  0  0  0  0  0  0  0  0  0
    3.9071    1.8699   19.1532 H   0  0  0  0  0  0  0  0  0  0  0  0
    5.0117    0.6908   21.1084 H   0  0  0  0  0  0  0  0  0  0  0  0
    6.6811   -1.3627   21.5361 H   0  0  0  0  0  0  0  0  0  0  0  0
    8.2395   -1.2198   20.7163 H   0  0  0  0  0  0  0  0  0  0  0  0
    9.6305    0.9382   20.2113 H   0  0  0  0  0  0  0  0  0  0  0  0
   10.3178    2.2029   21.2469 H   0  0  0  0  0  0  0  0  0  0  0  0
   11.3083   -0.8085   20.7756 O   0  0  0  0  0  0  0  0  0  0  0  0
   12.3793   -1.4960   21.2519 C   0  0  0  0  0  0  0  0  0  0  0  0
   12.8157   -0.9119   22.3882 C   0  0  0  0  0  0  0  0  0  0  0  0
   13.7125   -1.1778   22.9303 H   0  0  0  0  0  0  0  0  0  0  0  0
   12.7103   -2.3479   20.6687 H   0  0  0  0  0  0  0  0  0  0  0  0
   12.9587    0.8392   24.4293 H   0  0  0  0  0  0  0  0  0  0  0  0
   11.1924    0.8058   24.6170 H   0  0  0  0  0  0  0  0  0  0  0  0
   11.9447    2.0971   23.6877 H   0  0  0  0  0  0  0  0  0  0  0  0
  1  2  1  0
  2  3  2  0
  3  4  1  0
  4  5  1  0
  5  6  2  0
  6  7  1  0
  7  8  1  0
  8  9  2  0
  9 10  1  0
 10 11  2  0
 11 12  1  0
 12 13  1  0
 12 14  2  0
 14 15  1  0
 10 16  1  0
  9 17  1  0
  7 18  2  0
 18 19  1  0
 19 20  1  0
 20 21  1  0
 21 22  2  0
 22 23  1  0
 23 24  2  0
 24 25  1  0
 25 26  2  0
 26 27  1  0
 24 28  1  0
 23 29  1  0
 22 30  1  0
 20 31  1  0
 20 32  1  0
  4 33  1  0
  4 34  1  0
  3 35  1  0
 35 36  1  0
 36 37  2  0
 37 38  1  0
 36 39  1  0
  1 40  1  0
  1 41  1  0
  1 42  1  0
 37  2  1  0
 19  5  1  0
 26 21  1  0
 14  8  1  0
M  END
>  <cnnaffinity>  (1) 
-6.25499

>  <filename>  (1) 
Cc1ccoc1Cc1nc(-c2ccnc(Cl)c2)nn1Cc1cccnc1

$$$$
