
     RDKit          3D

 46 49  0  0  0  0  0  0  0  0999 V2000
   12.5244    1.4451   23.3519 C   0  0  0  0  0  0  0  0  0  0  0  0
   12.7287    0.3166   22.3743 C   0  0  0  0  0  0  0  0  0  0  0  0
   14.0244   -0.0692   22.0005 C   0  0  0  0  0  0  0  0  0  0  0  0
   14.2271   -1.1784   21.1693 C   0  0  0  0  0  0  0  0  0  0  0  0
   13.1541   -1.9429   20.7402 C   0  0  0  0  0  0  0  0  0  0  0  0
   11.8706   -1.6016   21.1229 C   0  0  0  0  0  0  0  0  0  0  0  0
   11.6339   -0.4131   21.8299 C   0  0  0  0  0  0  0  0  0  0  0  0
   10.2293    0.0332   21.9127 C   0  0  0  0  0  0  0  0  0  0  0  0
    9.2492   -0.6848   21.3734 N   0  0  0  0  0  0  0  0  0  0  0  0
    8.1374    0.0218   21.6539 N   0  0  0  0  0  0  0  0  0  0  0  0
    6.8319   -0.4797   21.2221 C   0  0  0  0  0  0  0  0  0  0  0  0
    6.2767    0.2102   19.9947 C   0  0  0  0  0  0  0  0  0  0  0  0
    5.0426    0.8695   19.9728 C   0  0  0  0  0  0  0  0  0  0  0  0
    4.6414    1.5130   18.7982 C   0  0  0  0  0  0  0  0  0  0  0  0
    5.4802    1.4545   17.6819 C   0  0  0  0  0  0  0  0  0  0  0  0
    6.6509    0.7980   17.6717 N   0  0  0  0  0  0  0  0  0  0  0  0
    7.0275    0.2010   18.8083 C   0  0  0  0  0  0  0  0  0  0  0  0
    7.9816   -0.3243   18.7885 H   0  0  0  0  0  0  0  0  0  0  0  0
    5.2023    1.9492   16.7522 H   0  0  0  0  0  0  0  0  0  0  0  0
    3.7083    2.0635   18.7356 H   0  0  0  0  0  0  0  0  0  0  0  0
    4.3992    0.8836   20.8548 H   0  0  0  0  0  0  0  0  0  0  0  0
    6.9739   -1.5505   21.0392 H   0  0  0  0  0  0  0  0  0  0  0  0
    6.1380   -0.3813   22.0575 H   0  0  0  0  0  0  0  0  0  0  0  0
    8.4887    1.1422   22.3221 C   0  0  0  0  0  0  0  0  0  0  0  0
    7.5402    2.0154   23.0706 C   0  0  0  0  0  0  0  0  0  0  0  0
    7.1563    1.2726   24.3165 C   0  0  0  0  0  0  0  0  0  0  0  0
    8.0557    1.0743   25.2566 N   0  0  0  0  0  0  0  0  0  0  0  0
    7.5624    0.1021   26.0501 N   0  0  0  0  0  0  0  0  0  0  0  0
    8.4786   -0.4560   27.0201 C   0  0  0  0  0  0  0  0  0  0  0  0
    9.6143   -0.8342   26.3984 F   0  0  0  0  0  0  0  0  0  0  0  0
    7.9179   -1.5538   27.5887 F   0  0  0  0  0  0  0  0  0  0  0  0
    8.7026    0.3033   27.7683 H   0  0  0  0  0  0  0  0  0  0  0  0
    6.3014   -0.2622   25.6636 C   0  0  0  0  0  0  0  0  0  0  0  0
    6.0003    0.5088   24.5649 C   0  0  0  0  0  0  0  0  0  0  0  0
    5.0882    0.5384   23.9898 H   0  0  0  0  0  0  0  0  0  0  0  0
    5.7493   -1.0351   26.1788 H   0  0  0  0  0  0  0  0  0  0  0  0
    6.6743    2.2542   22.4504 H   0  0  0  0  0  0  0  0  0  0  0  0
    8.0705    2.9299   23.3335 H   0  0  0  0  0  0  0  0  0  0  0  0
    9.7910    1.1831   22.4881 N   0  0  0  0  0  0  0  0  0  0  0  0
   11.0132   -2.2173   20.8644 H   0  0  0  0  0  0  0  0  0  0  0  0
   13.3467   -2.7681   20.0634 H   0  0  0  0  0  0  0  0  0  0  0  0
   15.1780   -1.4940   20.7866 H   0  0  0  0  0  0  0  0  0  0  0  0
   14.8670    0.5337   22.3359 H   0  0  0  0  0  0  0  0  0  0  0  0
   13.4653    1.7686   23.8057 H   0  0  0  0  0  0  0  0  0  0  0  0
   12.0385    2.3087   22.8909 H   0  0  0  0  0  0  0  0  0  0  0  0
   11.8567    1.1080   24.1496 H   0  0  0  0  0  0  0  0  0  0  0  0
  1  2  1  0
  2  3  2  0
  3  4  1  0
  4  5  2  0
  5  6  1  0
  6  7  2  0
  7  8  1  0
  8  9  2  0
  9 10  1  0
 10 11  1  0
 11 12  1  0
 12 13  2  0
 13 14  1  0
 14 15  2  0
 15 16  1  0
 16 17  2  0
 17 18  1  0
 15 19  1  0
 14 20  1  0
 13 21  1  0
 11 22  1  0
 11 23  1  0
 10 24  1  0
 24 25  1  0
 25 26  1  0
 26 27  2  0
 27 28  1  0
 28 29  1  0
 29 30  1  0
 29 31  1  0
 29 32  1  0
 28 33  1  0
 33 34  2  0
 34 35  1  0
 33 36  1  0
 25 37  1  0
 25 38  1  0
 24 39  2  0
  6 40  1  0
  5 41  1  0
  4 42  1  0
  3 43  1  0
  1 44  1  0
  1 45  1  0
  1 46  1  0
  7  2  1  0
 39  8  1  0
 17 12  1  0
 34 26  1  0
M  END
>  <cnnaffinity>  (1) 
-6.8531

>  <filename>  (1) 
Cc1ccccc1-c1nc(Cc2ccn(C(F)F)n2)n(Cc2cccnc2)n1

$$$$
