
     RDKit          3D

 45 48  0  0  0  0  0  0  0  0999 V2000
    9.9828    1.5117   25.5578 C   0  0  0  0  0  0  0  0  0  0  0  0
   10.3932    1.8581   24.1384 C   0  0  0  0  0  0  0  0  0  0  0  0
   11.7279    2.0882   23.7750 C   0  0  0  0  0  0  0  0  0  0  0  0
   12.0993    2.3311   22.4449 C   0  0  0  0  0  0  0  0  0  0  0  0
   11.1237    2.3358   21.4487 C   0  0  0  0  0  0  0  0  0  0  0  0
    9.7774    2.1301   21.7818 C   0  0  0  0  0  0  0  0  0  0  0  0
    9.4119    1.9391   23.1175 C   0  0  0  0  0  0  0  0  0  0  0  0
    8.1005    1.8451   23.5312 O   0  0  0  0  0  0  0  0  0  0  0  0
    7.0901    1.3017   22.6941 C   0  0  0  0  0  0  0  0  0  0  0  0
    7.3223   -0.1145   22.2427 C   0  0  0  0  0  0  0  0  0  0  0  0
    7.7823   -1.1028   22.9881 N   0  0  0  0  0  0  0  0  0  0  0  0
    8.0316   -2.0783   22.0753 C   0  0  0  0  0  0  0  0  0  0  0  0
    8.5820   -3.4380   22.4040 C   0  0  0  0  0  0  0  0  0  0  0  0
    7.6093   -4.3043   23.2452 C   0  0  0  0  0  0  0  0  0  0  0  0
    8.5815   -5.1372   24.0846 C   0  0  0  0  0  0  0  0  0  0  0  0
    9.7320   -4.1557   24.3144 C   0  0  0  0  0  0  0  0  0  0  0  0
    9.8134   -3.3932   23.1190 O   0  0  0  0  0  0  0  0  0  0  0  0
    9.5427   -3.4866   25.1685 H   0  0  0  0  0  0  0  0  0  0  0  0
   10.7084   -4.6313   24.4531 H   0  0  0  0  0  0  0  0  0  0  0  0
    8.1406   -5.5198   25.0099 H   0  0  0  0  0  0  0  0  0  0  0  0
    8.9416   -5.9929   23.5016 H   0  0  0  0  0  0  0  0  0  0  0  0
    6.9836   -3.6533   23.8741 H   0  0  0  0  0  0  0  0  0  0  0  0
    6.9396   -4.9063   22.6187 H   0  0  0  0  0  0  0  0  0  0  0  0
    8.7762   -3.8973   21.4294 H   0  0  0  0  0  0  0  0  0  0  0  0
    7.6701   -1.7878   20.8389 N   0  0  0  0  0  0  0  0  0  0  0  0
    7.1743   -0.5338   20.9524 N   0  0  0  0  0  0  0  0  0  0  0  0
    6.5434    0.1061   19.8581 C   0  0  0  0  0  0  0  0  0  0  0  0
    5.3308    0.7908   20.0124 C   0  0  0  0  0  0  0  0  0  0  0  0
    4.7753    1.3999   18.8844 C   0  0  0  0  0  0  0  0  0  0  0  0
    5.4501    1.3050   17.6635 C   0  0  0  0  0  0  0  0  0  0  0  0
    6.6073    0.6332   17.5115 N   0  0  0  0  0  0  0  0  0  0  0  0
    7.1285    0.0339   18.5849 C   0  0  0  0  0  0  0  0  0  0  0  0
    8.0462   -0.5390   18.4512 H   0  0  0  0  0  0  0  0  0  0  0  0
    5.0473    1.7700   16.7665 H   0  0  0  0  0  0  0  0  0  0  0  0
    3.8471    1.9577   18.9559 H   0  0  0  0  0  0  0  0  0  0  0  0
    4.8318    0.8230   20.9813 H   0  0  0  0  0  0  0  0  0  0  0  0
    6.8867    1.9593   21.8391 H   0  0  0  0  0  0  0  0  0  0  0  0
    6.2063    1.3202   23.3332 H   0  0  0  0  0  0  0  0  0  0  0  0
    9.0065    2.1184   21.0178 H   0  0  0  0  0  0  0  0  0  0  0  0
   11.4005    2.5218   20.4143 H   0  0  0  0  0  0  0  0  0  0  0  0
   13.1471    2.5065   22.2119 H   0  0  0  0  0  0  0  0  0  0  0  0
   12.5018    2.0562   24.5378 H   0  0  0  0  0  0  0  0  0  0  0  0
    9.1196    0.8350   25.5392 H   0  0  0  0  0  0  0  0  0  0  0  0
    9.6475    2.4047   26.0931 H   0  0  0  0  0  0  0  0  0  0  0  0
   10.7929    1.0509   26.1369 H   0  0  0  0  0  0  0  0  0  0  0  0
  1  2  1  0
  2  3  2  0
  3  4  1  0
  4  5  2  0
  5  6  1  0
  6  7  2  0
  7  8  1  0
  8  9  1  0
  9 10  1  0
 10 11  2  0
 11 12  1  0
 12 13  1  0
 13 14  1  0
 14 15  1  0
 15 16  1  0
 16 17  1  0
 16 18  1  0
 16 19  1  0
 15 20  1  0
 15 21  1  0
 14 22  1  0
 14 23  1  0
 13 24  1  0
 12 25  2  0
 25 26  1  0
 26 27  1  0
 27 28  2  0
 28 29  1  0
 29 30  2  0
 30 31  1  0
 31 32  2  0
 32 33  1  0
 30 34  1  0
 29 35  1  0
 28 36  1  0
  9 37  1  0
  9 38  1  0
  6 39  1  0
  5 40  1  0
  4 41  1  0
  3 42  1  0
  1 43  1  0
  1 44  1  0
  1 45  1  0
  7  2  1  0
 26 10  1  0
 32 27  1  0
 17 13  1  0
M  END
>  <cnnaffinity>  (1) 
-6.03132

>  <filename>  (1) 
Cc1ccccc1OCc1nc(C2CCCO2)nn1-c1cccnc1

$$$$
