
     RDKit          3D

 45 48  0  0  0  0  0  0  0  0999 V2000
    5.3945   -0.6757   26.7189 C   0  0  0  0  0  0  0  0  0  0  0  0
    6.1864    0.2930   25.9061 C   0  0  0  0  0  0  0  0  0  0  0  0
    6.0383    0.7136   24.6039 C   0  0  0  0  0  0  0  0  0  0  0  0
    7.1500    1.5295   24.3252 C   0  0  0  0  0  0  0  0  0  0  0  0
    7.6076    2.0432   22.9928 C   0  0  0  0  0  0  0  0  0  0  0  0
    8.5535    1.0418   22.4339 C   0  0  0  0  0  0  0  0  0  0  0  0
    9.8582    1.0603   22.6233 N   0  0  0  0  0  0  0  0  0  0  0  0
   10.2534   -0.1533   22.1695 C   0  0  0  0  0  0  0  0  0  0  0  0
   11.6361   -0.6044   21.9757 C   0  0  0  0  0  0  0  0  0  0  0  0
   11.7930   -1.7525   21.1752 C   0  0  0  0  0  0  0  0  0  0  0  0
   13.0061   -2.0183   20.5768 C   0  0  0  0  0  0  0  0  0  0  0  0
   14.1167   -1.2300   20.8520 C   0  0  0  0  0  0  0  0  0  0  0  0
   15.1656   -1.3340   19.9518 N   0  0  0  0  0  0  0  0  0  0  0  0
   15.1458   -2.2316   19.4936 H   0  0  0  0  0  0  0  0  0  0  0  0
   16.0737   -1.2275   20.3779 H   0  0  0  0  0  0  0  0  0  0  0  0
   14.0354   -0.2288   21.8386 C   0  0  0  0  0  0  0  0  0  0  0  0
   12.7859    0.1095   22.3743 C   0  0  0  0  0  0  0  0  0  0  0  0
   12.6978    0.9620   23.0502 H   0  0  0  0  0  0  0  0  0  0  0  0
   14.9025    0.3906   22.0443 H   0  0  0  0  0  0  0  0  0  0  0  0
   13.0931   -2.7759   19.8019 H   0  0  0  0  0  0  0  0  0  0  0  0
   10.9053   -2.3447   20.9533 H   0  0  0  0  0  0  0  0  0  0  0  0
    9.2529   -0.9002   21.7117 N   0  0  0  0  0  0  0  0  0  0  0  0
    8.1663   -0.1324   21.8804 N   0  0  0  0  0  0  0  0  0  0  0  0
    6.8942   -0.6111   21.3350 C   0  0  0  0  0  0  0  0  0  0  0  0
    6.4150    0.1364   20.1093 C   0  0  0  0  0  0  0  0  0  0  0  0
    5.2003    0.8280   20.0519 C   0  0  0  0  0  0  0  0  0  0  0  0
    4.8486    1.4758   18.8641 C   0  0  0  0  0  0  0  0  0  0  0  0
    5.7230    1.4063   17.7767 C   0  0  0  0  0  0  0  0  0  0  0  0
    6.8828    0.7325   17.8051 N   0  0  0  0  0  0  0  0  0  0  0  0
    7.2105    0.1218   18.9492 C   0  0  0  0  0  0  0  0  0  0  0  0
    8.1534   -0.4266   18.9485 H   0  0  0  0  0  0  0  0  0  0  0  0
    5.4828    1.9045   16.8379 H   0  0  0  0  0  0  0  0  0  0  0  0
    3.9263    2.0374   18.7724 H   0  0  0  0  0  0  0  0  0  0  0  0
    4.5366    0.8635   20.9196 H   0  0  0  0  0  0  0  0  0  0  0  0
    7.0731   -1.6635   21.0874 H   0  0  0  0  0  0  0  0  0  0  0  0
    6.1504   -0.6012   22.1336 H   0  0  0  0  0  0  0  0  0  0  0  0
    8.1486    2.9792   23.1189 H   0  0  0  0  0  0  0  0  0  0  0  0
    6.7586    2.1876   22.3190 H   0  0  0  0  0  0  0  0  0  0  0  0
    7.9210    1.6507   25.3949 N   0  0  0  0  0  0  0  0  0  0  0  0
    7.3217    0.9007   26.3341 N   0  0  0  0  0  0  0  0  0  0  0  0
    7.7902    0.7790   27.2199 H   0  0  0  0  0  0  0  0  0  0  0  0
    5.2251    0.4710   23.9403 H   0  0  0  0  0  0  0  0  0  0  0  0
    6.0468   -1.4383   27.1569 H   0  0  0  0  0  0  0  0  0  0  0  0
    4.8329   -0.1917   27.5236 H   0  0  0  0  0  0  0  0  0  0  0  0
    4.6801   -1.1824   26.0652 H   0  0  0  0  0  0  0  0  0  0  0  0
  1  2  1  0
  2  3  2  0
  3  4  1  0
  4  5  1  0
  5  6  1  0
  6  7  2  0
  7  8  1  0
  8  9  1  0
  9 10  2  0
 10 11  1  0
 11 12  2  0
 12 13  1  0
 13 14  1  0
 13 15  1  0
 12 16  1  0
 16 17  2  0
 17 18  1  0
 16 19  1  0
 11 20  1  0
 10 21  1  0
  8 22  2  0
 22 23  1  0
 23 24  1  0
 24 25  1  0
 25 26  2  0
 26 27  1  0
 27 28  2  0
 28 29  1  0
 29 30  2  0
 30 31  1  0
 28 32  1  0
 27 33  1  0
 26 34  1  0
 24 35  1  0
 24 36  1  0
  5 37  1  0
  5 38  1  0
  4 39  2  0
 39 40  1  0
 40 41  1  0
  3 42  1  0
  1 43  1  0
  1 44  1  0
  1 45  1  0
 40  2  1  0
 23  6  1  0
 30 25  1  0
 17  9  1  0
M  END
>  <cnnaffinity>  (1) 
-6.53777

>  <filename>  (1) 
Cc1cc(Cc2nc(-c3ccc(N)cc3)nn2Cc2cccnc2)n[nH]1

$$$$
