
     RDKit          3D

 43 46  0  0  0  0  0  0  0  0999 V2000
   16.0115   -0.3082   19.6581 C   0  0  0  0  0  0  0  0  0  0  0  0
   14.7180   -0.7532   20.5662 C   0  0  0  0  0  0  0  0  0  0  0  0
   14.4308    0.1332   21.6668 C   0  0  0  0  0  0  0  0  0  0  0  0
   13.1481    0.3277   22.1681 C   0  0  0  0  0  0  0  0  0  0  0  0
   12.1011   -0.4817   21.6682 C   0  0  0  0  0  0  0  0  0  0  0  0
   10.6543   -0.1220   21.7593 C   0  0  0  0  0  0  0  0  0  0  0  0
    9.6988   -0.9117   21.2834 N   0  0  0  0  0  0  0  0  0  0  0  0
    8.5696   -0.1983   21.4759 N   0  0  0  0  0  0  0  0  0  0  0  0
    7.2791   -0.7286   21.0330 C   0  0  0  0  0  0  0  0  0  0  0  0
    6.5776    0.0406   19.9246 C   0  0  0  0  0  0  0  0  0  0  0  0
    5.3456    0.6838   20.1008 C   0  0  0  0  0  0  0  0  0  0  0  0
    4.7579    1.3461   19.0188 C   0  0  0  0  0  0  0  0  0  0  0  0
    5.4235    1.3339   17.7894 C   0  0  0  0  0  0  0  0  0  0  0  0
    6.5939    0.7091   17.5911 N   0  0  0  0  0  0  0  0  0  0  0  0
    7.1481    0.0888   18.6404 C   0  0  0  0  0  0  0  0  0  0  0  0
    8.0942   -0.4148   18.4516 H   0  0  0  0  0  0  0  0  0  0  0  0
    4.9976    1.8418   16.9258 H   0  0  0  0  0  0  0  0  0  0  0  0
    3.8194    1.8810   19.1142 H   0  0  0  0  0  0  0  0  0  0  0  0
    4.8451    0.6764   21.0724 H   0  0  0  0  0  0  0  0  0  0  0  0
    6.6268   -0.7928   21.9080 H   0  0  0  0  0  0  0  0  0  0  0  0
    7.4932   -1.7512   20.7092 H   0  0  0  0  0  0  0  0  0  0  0  0
    8.8769    0.9659   22.0824 C   0  0  0  0  0  0  0  0  0  0  0  0
    7.8411    1.8158   22.7690 C   0  0  0  0  0  0  0  0  0  0  0  0
    7.4552    1.1731   24.0908 C   0  0  0  0  0  0  0  0  0  0  0  0
    6.2873    0.5445   24.4454 C   0  0  0  0  0  0  0  0  0  0  0  0
    6.5098   -0.0250   25.6573 N   0  0  0  0  0  0  0  0  0  0  0  0
    7.7476    0.1875   26.1230 N   0  0  0  0  0  0  0  0  0  0  0  0
    8.3296    0.9115   25.1804 C   0  0  0  0  0  0  0  0  0  0  0  0
    9.3713    1.1932   25.2569 H   0  0  0  0  0  0  0  0  0  0  0  0
    5.8738   -0.5751   26.2121 H   0  0  0  0  0  0  0  0  0  0  0  0
    5.3398    0.4577   23.9312 H   0  0  0  0  0  0  0  0  0  0  0  0
    8.2783    2.8058   22.9234 H   0  0  0  0  0  0  0  0  0  0  0  0
    6.9594    1.9553   22.1329 H   0  0  0  0  0  0  0  0  0  0  0  0
   10.1875    1.0557   22.2523 N   0  0  0  0  0  0  0  0  0  0  0  0
   12.4845   -1.6313   20.9577 C   0  0  0  0  0  0  0  0  0  0  0  0
   13.7802   -1.7743   20.4445 C   0  0  0  0  0  0  0  0  0  0  0  0
   14.1186   -2.9340   19.8690 F   0  0  0  0  0  0  0  0  0  0  0  0
   11.7351   -2.3778   20.7722 H   0  0  0  0  0  0  0  0  0  0  0  0
   12.9752    1.1528   22.8542 H   0  0  0  0  0  0  0  0  0  0  0  0
   15.2121    0.8002   22.0326 H   0  0  0  0  0  0  0  0  0  0  0  0
   15.9309    0.1175   18.6536 H   0  0  0  0  0  0  0  0  0  0  0  0
   16.3832    0.5854   20.1432 H   0  0  0  0  0  0  0  0  0  0  0  0
   16.8294   -1.0263   19.6540 H   0  0  0  0  0  0  0  0  0  0  0  0
  1  2  1  0
  2  3  2  0
  3  4  1  0
  4  5  2  0
  5  6  1  0
  6  7  2  0
  7  8  1  0
  8  9  1  0
  9 10  1  0
 10 11  2  0
 11 12  1  0
 12 13  2  0
 13 14  1  0
 14 15  2  0
 15 16  1  0
 13 17  1  0
 12 18  1  0
 11 19  1  0
  9 20  1  0
  9 21  1  0
  8 22  1  0
 22 23  1  0
 23 24  1  0
 24 25  2  0
 25 26  1  0
 26 27  1  0
 27 28  2  0
 28 29  1  0
 26 30  1  0
 25 31  1  0
 23 32  1  0
 23 33  1  0
 22 34  2  0
  5 35  1  0
 35 36  2  0
 36 37  1  0
 35 38  1  0
  4 39  1  0
  3 40  1  0
  1 41  1  0
  1 42  1  0
  1 43  1  0
 36  2  1  0
 34  6  1  0
 15 10  1  0
 28 24  1  0
M  END
>  <cnnaffinity>  (1) 
-6.4765

>  <filename>  (1) 
Cc1ccc(-c2nc(Cc3cn[nH]c3)n(Cc3cccnc3)n2)cc1F

$$$$
