
     RDKit          3D

 46 49  0  0  0  0  0  0  0  0999 V2000
    9.3725   -2.0281   25.4425 C   0  0  0  0  0  0  0  0  0  0  0  0
    9.7546   -0.6152   25.0551 C   0  0  0  0  0  0  0  0  0  0  0  0
    9.4471    0.4311   25.9495 C   0  0  0  0  0  0  0  0  0  0  0  0
    9.7290    1.7662   25.6444 C   0  0  0  0  0  0  0  0  0  0  0  0
   10.3367    2.0745   24.4241 C   0  0  0  0  0  0  0  0  0  0  0  0
   10.6692    1.0474   23.5318 C   0  0  0  0  0  0  0  0  0  0  0  0
   10.3732   -0.2884   23.8242 C   0  0  0  0  0  0  0  0  0  0  0  0
   10.5369   -1.3125   22.6990 C   0  0  0  0  0  0  0  0  0  0  0  0
    9.2358   -1.4082   21.9582 C   0  0  0  0  0  0  0  0  0  0  0  0
    8.8833   -0.5521   21.0211 N   0  0  0  0  0  0  0  0  0  0  0  0
    7.5583   -0.8185   20.8368 N   0  0  0  0  0  0  0  0  0  0  0  0
    6.8165   -0.0890   19.8614 C   0  0  0  0  0  0  0  0  0  0  0  0
    5.5993    0.5497   20.1359 C   0  0  0  0  0  0  0  0  0  0  0  0
    4.9546    1.2208   19.0875 C   0  0  0  0  0  0  0  0  0  0  0  0
    5.5444    1.2289   17.8202 C   0  0  0  0  0  0  0  0  0  0  0  0
    6.7232    0.6385   17.5602 N   0  0  0  0  0  0  0  0  0  0  0  0
    7.3484    0.0158   18.5641 C   0  0  0  0  0  0  0  0  0  0  0  0
    8.3131   -0.4350   18.3465 H   0  0  0  0  0  0  0  0  0  0  0  0
    5.0585    1.7246   16.9819 H   0  0  0  0  0  0  0  0  0  0  0  0
    4.0151    1.7365   19.2454 H   0  0  0  0  0  0  0  0  0  0  0  0
    5.1780    0.5536   21.1433 H   0  0  0  0  0  0  0  0  0  0  0  0
    7.2034   -1.8475   21.6576 C   0  0  0  0  0  0  0  0  0  0  0  0
    5.8449   -2.4279   21.8525 C   0  0  0  0  0  0  0  0  0  0  0  0
    5.7584   -3.8256   21.3311 C   0  0  0  0  0  0  0  0  0  0  0  0
    5.7270   -4.2522   20.0210 C   0  0  0  0  0  0  0  0  0  0  0  0
    5.4602   -3.2171   18.6686 Cl  0  0  0  0  0  0  0  0  0  0  0  0
    5.9248   -5.6447   20.0709 C   0  0  0  0  0  0  0  0  0  0  0  0
    6.0543   -6.0508   21.3282 N   0  0  0  0  0  0  0  0  0  0  0  0
    5.9472   -4.9438   22.0759 N   0  0  0  0  0  0  0  0  0  0  0  0
    5.9882   -5.0354   23.5219 C   0  0  0  0  0  0  0  0  0  0  0  0
    5.0216   -4.7610   23.9549 H   0  0  0  0  0  0  0  0  0  0  0  0
    6.2184   -6.0656   23.7849 H   0  0  0  0  0  0  0  0  0  0  0  0
    6.7613   -4.3729   23.9233 H   0  0  0  0  0  0  0  0  0  0  0  0
    5.9764   -6.3565   19.2584 H   0  0  0  0  0  0  0  0  0  0  0  0
    5.6438   -2.4071   22.9303 H   0  0  0  0  0  0  0  0  0  0  0  0
    5.1188   -1.8001   21.3435 H   0  0  0  0  0  0  0  0  0  0  0  0
    8.2496   -2.2569   22.3474 N   0  0  0  0  0  0  0  0  0  0  0  0
   11.3146   -0.9917   21.9986 H   0  0  0  0  0  0  0  0  0  0  0  0
   10.7990   -2.3047   23.0752 H   0  0  0  0  0  0  0  0  0  0  0  0
   11.1619    1.2790   22.5871 H   0  0  0  0  0  0  0  0  0  0  0  0
   10.5154    3.1045   24.1412 H   0  0  0  0  0  0  0  0  0  0  0  0
    9.4855    2.5553   26.3557 H   0  0  0  0  0  0  0  0  0  0  0  0
    8.9696    0.1821   26.8951 H   0  0  0  0  0  0  0  0  0  0  0  0
   10.0648   -2.7728   25.0318 H   0  0  0  0  0  0  0  0  0  0  0  0
    9.3541   -2.1367   26.5316 H   0  0  0  0  0  0  0  0  0  0  0  0
    8.3770   -2.2891   25.0635 H   0  0  0  0  0  0  0  0  0  0  0  0
  1  2  1  0
  2  3  2  0
  3  4  1  0
  4  5  2  0
  5  6  1  0
  6  7  2  0
  7  8  1  0
  8  9  1  0
  9 10  2  0
 10 11  1  0
 11 12  1  0
 12 13  2  0
 13 14  1  0
 14 15  2  0
 15 16  1  0
 16 17  2  0
 17 18  1  0
 15 19  1  0
 14 20  1  0
 13 21  1  0
 11 22  1  0
 22 23  1  0
 23 24  1  0
 24 25  2  0
 25 26  1  0
 25 27  1  0
 27 28  2  0
 28 29  1  0
 29 30  1  0
 30 31  1  0
 30 32  1  0
 30 33  1  0
 27 34  1  0
 23 35  1  0
 23 36  1  0
 22 37  2  0
  8 38  1  0
  8 39  1  0
  6 40  1  0
  5 41  1  0
  4 42  1  0
  3 43  1  0
  1 44  1  0
  1 45  1  0
  1 46  1  0
  7  2  1  0
 37  9  1  0
 17 12  1  0
 29 24  1  0
M  END
>  <cnnaffinity>  (1) 
-5.9453

>  <filename>  (1) 
Cc1ccccc1Cc1nc(Cc2c(Cl)cnn2C)n(-c2cccnc2)n1

$$$$
