
     RDKit          3D

 54 57  0  0  0  0  0  0  0  0999 V2000
    8.3552   -6.7312   23.2248 C   0  0  0  0  0  0  0  0  0  0  0  0
    8.4492   -5.4623   22.3952 C   0  0  0  0  0  0  0  0  0  0  0  0
    9.2632   -4.3849   23.1840 C   0  0  0  0  0  0  0  0  0  0  0  0
    8.4193   -3.6057   24.2107 C   0  0  0  0  0  0  0  0  0  0  0  0
    7.1522   -3.0423   23.5463 C   0  0  0  0  0  0  0  0  0  0  0  0
    7.5262   -2.0595   22.4550 C   0  0  0  0  0  0  0  0  0  0  0  0
    6.6226   -1.5623   21.6345 N   0  0  0  0  0  0  0  0  0  0  0  0
    7.3367   -0.6726   20.8940 N   0  0  0  0  0  0  0  0  0  0  0  0
    6.6779    0.0171   19.8587 C   0  0  0  0  0  0  0  0  0  0  0  0
    5.4576    0.6417   20.1353 C   0  0  0  0  0  0  0  0  0  0  0  0
    4.8247    1.3175   19.0931 C   0  0  0  0  0  0  0  0  0  0  0  0
    5.4153    1.3187   17.8238 C   0  0  0  0  0  0  0  0  0  0  0  0
    6.5677    0.6880   17.5466 N   0  0  0  0  0  0  0  0  0  0  0  0
    7.1824    0.0509   18.5511 C   0  0  0  0  0  0  0  0  0  0  0  0
    8.1069   -0.4736   18.3068 H   0  0  0  0  0  0  0  0  0  0  0  0
    4.9377    1.8328   16.9941 H   0  0  0  0  0  0  0  0  0  0  0  0
    3.8883    1.8374   19.2553 H   0  0  0  0  0  0  0  0  0  0  0  0
    5.0349    0.5759   21.1405 H   0  0  0  0  0  0  0  0  0  0  0  0
    8.6133   -0.6149   21.3690 C   0  0  0  0  0  0  0  0  0  0  0  0
    9.5691    0.5268   21.0736 C   0  0  0  0  0  0  0  0  0  0  0  0
    9.3969    1.8137   21.8067 N   0  0  0  0  0  0  0  0  0  0  0  0
    8.1288    2.5229   21.5924 C   0  0  0  0  0  0  0  0  0  0  0  0
    8.1850    4.0153   22.0129 C   0  0  0  0  0  0  0  0  0  0  0  0
    9.3530    4.4288   22.9281 C   0  0  0  0  0  0  0  0  0  0  0  0
    9.5386    3.4075   24.0397 C   0  0  0  0  0  0  0  0  0  0  0  0
    9.8480    1.7525   23.4425 S   0  0  0  0  0  0  0  0  0  0  0  0
   11.2774    1.5008   23.4707 O   0  0  0  0  0  0  0  0  0  0  0  0
    8.9327    0.8783   24.1497 O   0  0  0  0  0  0  0  0  0  0  0  0
   10.3883    3.6091   24.6903 H   0  0  0  0  0  0  0  0  0  0  0  0
    8.6368    3.3049   24.6488 H   0  0  0  0  0  0  0  0  0  0  0  0
    9.1321    5.4064   23.3715 H   0  0  0  0  0  0  0  0  0  0  0  0
   10.2913    4.5544   22.3732 H   0  0  0  0  0  0  0  0  0  0  0  0
    7.2404    4.2362   22.5231 H   0  0  0  0  0  0  0  0  0  0  0  0
    8.2036    4.6718   21.1409 H   0  0  0  0  0  0  0  0  0  0  0  0
    7.2920    2.0108   22.0942 H   0  0  0  0  0  0  0  0  0  0  0  0
    7.9053    2.4397   20.5245 H   0  0  0  0  0  0  0  0  0  0  0  0
    9.4981    0.7537   20.0028 H   0  0  0  0  0  0  0  0  0  0  0  0
   10.5909    0.1725   21.2418 H   0  0  0  0  0  0  0  0  0  0  0  0
    8.7828   -1.5609   22.2697 N   0  0  0  0  0  0  0  0  0  0  0  0
    6.2871   -4.2050   23.0015 C   0  0  0  0  0  0  0  0  0  0  0  0
    7.0614   -4.9642   21.9214 C   0  0  0  0  0  0  0  0  0  0  0  0
    6.4841   -5.8295   21.5671 H   0  0  0  0  0  0  0  0  0  0  0  0
    7.1720   -4.3086   21.0466 H   0  0  0  0  0  0  0  0  0  0  0  0
    5.3426   -3.8172   22.6015 H   0  0  0  0  0  0  0  0  0  0  0  0
    6.0417   -4.8946   23.8230 H   0  0  0  0  0  0  0  0  0  0  0  0
    6.5603   -2.4712   24.2736 H   0  0  0  0  0  0  0  0  0  0  0  0
    9.0181   -2.7872   24.6388 H   0  0  0  0  0  0  0  0  0  0  0  0
    8.1318   -4.2702   25.0387 H   0  0  0  0  0  0  0  0  0  0  0  0
   10.1022   -4.8294   23.7458 H   0  0  0  0  0  0  0  0  0  0  0  0
    9.6844   -3.6491   22.4912 H   0  0  0  0  0  0  0  0  0  0  0  0
    8.9482   -5.7752   21.4735 H   0  0  0  0  0  0  0  0  0  0  0  0
    7.9801   -6.5028   24.2289 H   0  0  0  0  0  0  0  0  0  0  0  0
    7.6987   -7.4652   22.7430 H   0  0  0  0  0  0  0  0  0  0  0  0
    9.3436   -7.1916   23.3362 H   0  0  0  0  0  0  0  0  0  0  0  0
  1  2  1  0
  2  3  1  0
  3  4  1  0
  4  5  1  0
  5  6  1  0
  6  7  2  0
  7  8  1  0
  8  9  1  0
  9 10  2  0
 10 11  1  0
 11 12  2  0
 12 13  1  0
 13 14  2  0
 14 15  1  0
 12 16  1  0
 11 17  1  0
 10 18  1  0
  8 19  1  0
 19 20  1  0
 20 21  1  0
 21 22  1  0
 22 23  1  0
 23 24  1  0
 24 25  1  0
 25 26  1  0
 26 27  2  0
 26 28  2  0
 25 29  1  0
 25 30  1  0
 24 31  1  0
 24 32  1  0
 23 33  1  0
 23 34  1  0
 22 35  1  0
 22 36  1  0
 20 37  1  0
 20 38  1  0
 19 39  2  0
  5 40  1  0
 40 41  1  0
 41 42  1  0
 41 43  1  0
 40 44  1  0
 40 45  1  0
  5 46  1  0
  4 47  1  0
  4 48  1  0
  3 49  1  0
  3 50  1  0
  2 51  1  0
  1 52  1  0
  1 53  1  0
  1 54  1  0
 41  2  1  0
 39  6  1  0
 14  9  1  0
 26 21  1  0
M  END
>  <cnnaffinity>  (1) 
-6.52192

>  <filename>  (1) 
CC1CCC(c2nc(CN3CCCCS3(=O)=O)n(-c3cccnc3)n2)CC1

$$$$
