
     RDKit          3D

 31 33  0  0  0  0  0  0  0  0999 V2000
    4.9362    1.7912   16.9929 H   0  0  0  0  0  0  0  0  0  0  0  0
    5.3984    1.2911   17.8418 C   0  0  0  0  0  0  0  0  0  0  0  0
    6.5588    0.6712   17.5869 N   0  0  0  0  0  0  0  0  0  0  0  0
    7.1644    0.0551   18.6037 C   0  0  0  0  0  0  0  0  0  0  0  0
    8.1108   -0.4211   18.3551 H   0  0  0  0  0  0  0  0  0  0  0  0
    6.6532    0.0044   19.9112 C   0  0  0  0  0  0  0  0  0  0  0  0
    7.3739   -0.6996   20.9716 C   0  0  0  0  0  0  0  0  0  0  0  0
    6.8157   -0.8093   22.2434 N   0  0  0  0  0  0  0  0  0  0  0  0
    7.6950   -1.4745   22.9152 C   0  0  0  0  0  0  0  0  0  0  0  0
    7.7015   -1.8964   24.1764 O   0  0  0  0  0  0  0  0  0  0  0  0
    6.7503   -1.4360   25.0940 C   0  0  0  0  0  0  0  0  0  0  0  0
    6.3708   -2.3329   26.0945 C   0  0  0  0  0  0  0  0  0  0  0  0
    6.8114   -3.3256   26.1143 H   0  0  0  0  0  0  0  0  0  0  0  0
    5.4465   -1.9071   27.0530 C   0  0  0  0  0  0  0  0  0  0  0  0
    5.1288   -2.5854   27.8414 H   0  0  0  0  0  0  0  0  0  0  0  0
    4.9343   -0.6033   27.0091 C   0  0  0  0  0  0  0  0  0  0  0  0
    4.2053   -0.2760   27.7438 H   0  0  0  0  0  0  0  0  0  0  0  0
    5.3452    0.2990   26.0214 C   0  0  0  0  0  0  0  0  0  0  0  0
    4.7714    1.6948   25.9508 C   0  0  0  0  0  0  0  0  0  0  0  0
    3.8945    1.7268   25.2934 H   0  0  0  0  0  0  0  0  0  0  0  0
    4.4534    2.0551   26.9341 H   0  0  0  0  0  0  0  0  0  0  0  0
    5.5058    2.4008   25.5497 H   0  0  0  0  0  0  0  0  0  0  0  0
    6.2724   -0.1271   25.0614 C   0  0  0  0  0  0  0  0  0  0  0  0
    6.6176    0.5338   24.2736 H   0  0  0  0  0  0  0  0  0  0  0  0
    8.7912   -1.8246   22.2367 O   0  0  0  0  0  0  0  0  0  0  0  0
    8.5783   -1.3121   20.9763 C   0  0  0  0  0  0  0  0  0  0  0  0
    9.3664   -1.4532   20.2540 H   0  0  0  0  0  0  0  0  0  0  0  0
    5.4316    0.6529   20.1632 C   0  0  0  0  0  0  0  0  0  0  0  0
    5.0087    0.6331   21.1690 H   0  0  0  0  0  0  0  0  0  0  0  0
    4.8019    1.3085   19.1077 C   0  0  0  0  0  0  0  0  0  0  0  0
    3.8702    1.8429   19.2453 H   0  0  0  0  0  0  0  0  0  0  0  0
  1  2  1  0
  2  3  2  0
  3  4  1  0
  4  5  1  0
  4  6  2  0
  6  7  1  0
  7  8  1  0
  8  9  2  0
  9 10  1  0
 10 11  1  0
 11 12  2  0
 12 13  1  0
 12 14  1  0
 14 15  1  0
 14 16  2  0
 16 17  1  0
 16 18  1  0
 18 19  1  0
 19 20  1  0
 19 21  1  0
 19 22  1  0
 18 23  2  0
 23 24  1  0
  9 25  1  0
 25 26  1  0
 26 27  1  0
  6 28  1  0
 28 29  1  0
 28 30  2  0
 30 31  1  0
 30  2  1  0
 26  7  2  0
 23 11  1  0
M  END
>  <cnnaffinity>  (1) 
-4.90211

>  <filename>  (1) 
Cc1cccc(Oc2nc(-c3cccnc3)co2)c1

$$$$
