
     RDKit          3D

 41 44  0  0  0  0  0  0  0  0999 V2000
   11.6272    2.8656   24.1122 C   0  0  0  0  0  0  0  0  0  0  0  0
   11.6476    1.7371   23.1455 C   0  0  0  0  0  0  0  0  0  0  0  0
   12.5538    0.7620   22.8940 C   0  0  0  0  0  0  0  0  0  0  0  0
   11.9722   -0.0630   21.8646 C   0  0  0  0  0  0  0  0  0  0  0  0
   10.7629    0.4787   21.5843 C   0  0  0  0  0  0  0  0  0  0  0  0
    9.6388    0.1326   20.6824 C   0  0  0  0  0  0  0  0  0  0  0  0
    8.5752   -0.6285   21.3877 C   0  0  0  0  0  0  0  0  0  0  0  0
    8.7633   -1.4153   22.4232 N   0  0  0  0  0  0  0  0  0  0  0  0
    7.5469   -1.9873   22.6030 C   0  0  0  0  0  0  0  0  0  0  0  0
    7.3000   -2.9687   23.7083 C   0  0  0  0  0  0  0  0  0  0  0  0
    7.5718   -2.3473   25.1013 C   0  0  0  0  0  0  0  0  0  0  0  0
    9.0633   -2.6513   25.3439 C   0  0  0  0  0  0  0  0  0  0  0  0
    9.4402   -3.6471   24.4104 O   0  0  0  0  0  0  0  0  0  0  0  0
    8.3217   -4.1208   23.6963 C   0  0  0  0  0  0  0  0  0  0  0  0
    7.8913   -5.0222   24.1717 H   0  0  0  0  0  0  0  0  0  0  0  0
    8.6739   -4.3904   22.6956 H   0  0  0  0  0  0  0  0  0  0  0  0
    9.6821   -1.7678   25.1511 H   0  0  0  0  0  0  0  0  0  0  0  0
    9.2497   -2.9992   26.3718 H   0  0  0  0  0  0  0  0  0  0  0  0
    6.9392   -2.8166   25.8632 H   0  0  0  0  0  0  0  0  0  0  0  0
    7.3711   -1.2703   25.1170 H   0  0  0  0  0  0  0  0  0  0  0  0
    6.2790   -3.3248   23.5859 H   0  0  0  0  0  0  0  0  0  0  0  0
    6.6232   -1.6045   21.7448 N   0  0  0  0  0  0  0  0  0  0  0  0
    7.2906   -0.7349   20.9354 N   0  0  0  0  0  0  0  0  0  0  0  0
    6.6083   -0.0421   19.8899 C   0  0  0  0  0  0  0  0  0  0  0  0
    5.3985    0.6156   20.1404 C   0  0  0  0  0  0  0  0  0  0  0  0
    4.8001    1.3095   19.0865 C   0  0  0  0  0  0  0  0  0  0  0  0
    5.4070    1.3057   17.8244 C   0  0  0  0  0  0  0  0  0  0  0  0
    6.5465    0.6483   17.5688 N   0  0  0  0  0  0  0  0  0  0  0  0
    7.1266   -0.0050   18.5809 C   0  0  0  0  0  0  0  0  0  0  0  0
    8.0582   -0.5204   18.3498 H   0  0  0  0  0  0  0  0  0  0  0  0
    4.9656    1.8455   16.9898 H   0  0  0  0  0  0  0  0  0  0  0  0
    3.8807    1.8592   19.2303 H   0  0  0  0  0  0  0  0  0  0  0  0
    4.9603    0.5845   21.1418 H   0  0  0  0  0  0  0  0  0  0  0  0
    9.2215    1.0482   20.2598 H   0  0  0  0  0  0  0  0  0  0  0  0
    9.9905   -0.4988   19.8627 H   0  0  0  0  0  0  0  0  0  0  0  0
   10.5464    1.5590   22.3698 O   0  0  0  0  0  0  0  0  0  0  0  0
   12.4094   -0.9312   21.3962 H   0  0  0  0  0  0  0  0  0  0  0  0
   13.4991    0.6536   23.4071 H   0  0  0  0  0  0  0  0  0  0  0  0
   11.6627    2.4502   25.1246 H   0  0  0  0  0  0  0  0  0  0  0  0
   12.5064    3.5067   23.9966 H   0  0  0  0  0  0  0  0  0  0  0  0
   10.7299    3.4712   23.9867 H   0  0  0  0  0  0  0  0  0  0  0  0
  1  2  1  0
  2  3  2  0
  3  4  1  0
  4  5  2  0
  5  6  1  0
  6  7  1  0
  7  8  2  0
  8  9  1  0
  9 10  1  0
 10 11  1  0
 11 12  1  0
 12 13  1  0
 13 14  1  0
 14 15  1  0
 14 16  1  0
 12 17  1  0
 12 18  1  0
 11 19  1  0
 11 20  1  0
 10 21  1  0
  9 22  2  0
 22 23  1  0
 23 24  1  0
 24 25  2  0
 25 26  1  0
 26 27  2  0
 27 28  1  0
 28 29  2  0
 29 30  1  0
 27 31  1  0
 26 32  1  0
 25 33  1  0
  6 34  1  0
  6 35  1  0
  5 36  1  0
  4 37  1  0
  3 38  1  0
  1 39  1  0
  1 40  1  0
  1 41  1  0
 36  2  1  0
 23  7  1  0
 29 24  1  0
 14 10  1  0
M  END
>  <cnnaffinity>  (1) 
-5.87628

>  <filename>  (1) 
Cc1ccc(Cc2nc(C3CCOC3)nn2-c2cccnc2)o1

$$$$
