
     RDKit          3D

 40 43  0  0  0  0  0  0  0  0999 V2000
    7.7158   -4.8421   21.2085 C   0  0  0  0  0  0  0  0  0  0  0  0
    8.3732   -4.8864   22.5536 C   0  0  0  0  0  0  0  0  0  0  0  0
    8.2719   -5.8752   23.5030 C   0  0  0  0  0  0  0  0  0  0  0  0
    9.1609   -5.4952   24.5338 C   0  0  0  0  0  0  0  0  0  0  0  0
    9.7694   -4.3576   24.2369 N   0  0  0  0  0  0  0  0  0  0  0  0
    9.2638   -3.9717   23.0510 N   0  0  0  0  0  0  0  0  0  0  0  0
    9.7455   -2.7074   22.4855 C   0  0  0  0  0  0  0  0  0  0  0  0
    8.6693   -1.7818   22.0200 C   0  0  0  0  0  0  0  0  0  0  0  0
    8.4516   -1.3272   20.8057 N   0  0  0  0  0  0  0  0  0  0  0  0
    7.2920   -0.6213   20.9437 C   0  0  0  0  0  0  0  0  0  0  0  0
    6.6006    0.0547   19.8495 C   0  0  0  0  0  0  0  0  0  0  0  0
    5.3730    0.7211   20.0431 C   0  0  0  0  0  0  0  0  0  0  0  0
    4.8062    1.3590   18.9470 C   0  0  0  0  0  0  0  0  0  0  0  0
    5.4707    1.3002   17.7163 C   0  0  0  0  0  0  0  0  0  0  0  0
    6.6248    0.6431   17.5198 N   0  0  0  0  0  0  0  0  0  0  0  0
    7.1739    0.0289   18.5719 C   0  0  0  0  0  0  0  0  0  0  0  0
    8.1083   -0.5057   18.3855 H   0  0  0  0  0  0  0  0  0  0  0  0
    5.0606    1.8029   16.8475 H   0  0  0  0  0  0  0  0  0  0  0  0
    3.8740    1.9078   19.0341 H   0  0  0  0  0  0  0  0  0  0  0  0
    4.9005    0.7309   21.0308 H   0  0  0  0  0  0  0  0  0  0  0  0
    6.8000   -0.6211   22.1668 N   0  0  0  0  0  0  0  0  0  0  0  0
    7.7183   -1.3207   22.8694 N   0  0  0  0  0  0  0  0  0  0  0  0
    7.5536   -1.6675   24.2407 C   0  0  0  0  0  0  0  0  0  0  0  0
    6.3953   -2.3568   24.6135 C   0  0  0  0  0  0  0  0  0  0  0  0
    6.3738   -2.9695   25.8547 C   0  0  0  0  0  0  0  0  0  0  0  0
    5.3127   -3.7120   26.2089 F   0  0  0  0  0  0  0  0  0  0  0  0
    7.4248   -2.8609   26.7575 C   0  0  0  0  0  0  0  0  0  0  0  0
    8.4984   -2.0584   26.3983 C   0  0  0  0  0  0  0  0  0  0  0  0
    9.4984   -1.8966   27.2739 F   0  0  0  0  0  0  0  0  0  0  0  0
    8.5846   -1.4326   25.1613 C   0  0  0  0  0  0  0  0  0  0  0  0
    9.4511   -0.8236   24.9312 H   0  0  0  0  0  0  0  0  0  0  0  0
    7.4067   -3.3929   27.6933 H   0  0  0  0  0  0  0  0  0  0  0  0
    5.5335   -2.4174   23.9581 H   0  0  0  0  0  0  0  0  0  0  0  0
   10.3132   -2.2295   23.2851 H   0  0  0  0  0  0  0  0  0  0  0  0
   10.4418   -2.8703   21.6663 H   0  0  0  0  0  0  0  0  0  0  0  0
    9.4379   -6.0283   25.4391 H   0  0  0  0  0  0  0  0  0  0  0  0
    7.6634   -6.7656   23.4106 H   0  0  0  0  0  0  0  0  0  0  0  0
    6.8895   -4.1247   21.1615 H   0  0  0  0  0  0  0  0  0  0  0  0
    7.3124   -5.8260   20.9533 H   0  0  0  0  0  0  0  0  0  0  0  0
    8.4388   -4.5765   20.4414 H   0  0  0  0  0  0  0  0  0  0  0  0
  1  2  1  0
  2  3  2  0
  3  4  1  0
  4  5  2  0
  5  6  1  0
  6  7  1  0
  7  8  1  0
  8  9  2  0
  9 10  1  0
 10 11  1  0
 11 12  2  0
 12 13  1  0
 13 14  2  0
 14 15  1  0
 15 16  2  0
 16 17  1  0
 14 18  1  0
 13 19  1  0
 12 20  1  0
 10 21  2  0
 21 22  1  0
 22 23  1  0
 23 24  2  0
 24 25  1  0
 25 26  1  0
 25 27  2  0
 27 28  1  0
 28 29  1  0
 28 30  2  0
 30 31  1  0
 27 32  1  0
 24 33  1  0
  7 34  1  0
  7 35  1  0
  4 36  1  0
  3 37  1  0
  1 38  1  0
  1 39  1  0
  1 40  1  0
  6  2  1  0
 22  8  1  0
 30 23  1  0
 16 11  1  0
M  END
>  <cnnaffinity>  (1) 
-6.2476

>  <filename>  (1) 
Cc1ccnn1Cc1nc(-c2cccnc2)nn1-c1cc(F)cc(F)c1

$$$$
