
     RDKit          3D

 44 47  0  0  0  0  0  0  0  0999 V2000
    5.9174    3.6672   29.1162 C   0  0  0  0  0  0  0  0  0  0  0  0
    6.2934    3.0771   27.7799 C   0  0  0  0  0  0  0  0  0  0  0  0
    5.6157    1.9912   27.1991 C   0  0  0  0  0  0  0  0  0  0  0  0
    5.9715    1.4796   25.9475 C   0  0  0  0  0  0  0  0  0  0  0  0
    7.0414    2.0514   25.2297 C   0  0  0  0  0  0  0  0  0  0  0  0
    7.5017    1.4948   23.9333 C   0  0  0  0  0  0  0  0  0  0  0  0
    6.8600    0.5702   23.2341 N   0  0  0  0  0  0  0  0  0  0  0  0
    7.6730    0.3571   22.1749 N   0  0  0  0  0  0  0  0  0  0  0  0
    7.3063   -0.5732   21.1128 C   0  0  0  0  0  0  0  0  0  0  0  0
    6.6465    0.0938   19.9193 C   0  0  0  0  0  0  0  0  0  0  0  0
    5.4406    0.7865   20.0920 C   0  0  0  0  0  0  0  0  0  0  0  0
    4.8535    1.3928   18.9801 C   0  0  0  0  0  0  0  0  0  0  0  0
    5.4895    1.2898   17.7401 C   0  0  0  0  0  0  0  0  0  0  0  0
    6.6433    0.6319   17.5537 N   0  0  0  0  0  0  0  0  0  0  0  0
    7.2013    0.0612   18.6303 C   0  0  0  0  0  0  0  0  0  0  0  0
    8.1485   -0.4507   18.4469 H   0  0  0  0  0  0  0  0  0  0  0  0
    5.0517    1.7539   16.8577 H   0  0  0  0  0  0  0  0  0  0  0  0
    3.9324    1.9586   19.0629 H   0  0  0  0  0  0  0  0  0  0  0  0
    4.9874    0.8633   21.0829 H   0  0  0  0  0  0  0  0  0  0  0  0
    8.2027   -1.1189   20.7991 H   0  0  0  0  0  0  0  0  0  0  0  0
    6.6381   -1.3079   21.5731 H   0  0  0  0  0  0  0  0  0  0  0  0
    8.7532    1.1647   22.2732 C   0  0  0  0  0  0  0  0  0  0  0  0
    9.9106    1.1994   21.3117 C   0  0  0  0  0  0  0  0  0  0  0  0
   11.0837    0.2652   21.6262 C   0  0  0  0  0  0  0  0  0  0  0  0
   11.1522   -1.0761   21.2399 C   0  0  0  0  0  0  0  0  0  0  0  0
   12.1915   -1.8667   21.5011 N   0  0  0  0  0  0  0  0  0  0  0  0
   13.1925   -1.3273   22.1828 C   0  0  0  0  0  0  0  0  0  0  0  0
   13.2442   -0.0756   22.6415 N   0  0  0  0  0  0  0  0  0  0  0  0
   12.1936    0.6947   22.3627 C   0  0  0  0  0  0  0  0  0  0  0  0
   12.2428    1.7077   22.7638 H   0  0  0  0  0  0  0  0  0  0  0  0
   14.0540   -1.9620   22.3837 H   0  0  0  0  0  0  0  0  0  0  0  0
   10.3353   -1.5211   20.6655 H   0  0  0  0  0  0  0  0  0  0  0  0
    9.5216    1.0069   20.3081 H   0  0  0  0  0  0  0  0  0  0  0  0
   10.2629    2.2372   21.3060 H   0  0  0  0  0  0  0  0  0  0  0  0
    8.6725    1.8930   23.3632 N   0  0  0  0  0  0  0  0  0  0  0  0
    7.7228    3.1577   25.7864 C   0  0  0  0  0  0  0  0  0  0  0  0
    7.3489    3.6300   27.0348 C   0  0  0  0  0  0  0  0  0  0  0  0
    8.0295    4.6710   27.5558 F   0  0  0  0  0  0  0  0  0  0  0  0
    8.5390    3.6369   25.2518 H   0  0  0  0  0  0  0  0  0  0  0  0
    5.4293    0.6325   25.5309 H   0  0  0  0  0  0  0  0  0  0  0  0
    4.7915    1.5293   27.7409 H   0  0  0  0  0  0  0  0  0  0  0  0
    5.6288    4.7181   29.0025 H   0  0  0  0  0  0  0  0  0  0  0  0
    5.0800    3.1395   29.5826 H   0  0  0  0  0  0  0  0  0  0  0  0
    6.7626    3.6420   29.8130 H   0  0  0  0  0  0  0  0  0  0  0  0
  1  2  1  0
  2  3  2  0
  3  4  1  0
  4  5  2  0
  5  6  1  0
  6  7  2  0
  7  8  1  0
  8  9  1  0
  9 10  1  0
 10 11  2  0
 11 12  1  0
 12 13  2  0
 13 14  1  0
 14 15  2  0
 15 16  1  0
 13 17  1  0
 12 18  1  0
 11 19  1  0
  9 20  1  0
  9 21  1  0
  8 22  1  0
 22 23  1  0
 23 24  1  0
 24 25  2  0
 25 26  1  0
 26 27  2  0
 27 28  1  0
 28 29  2  0
 29 30  1  0
 27 31  1  0
 25 32  1  0
 23 33  1  0
 23 34  1  0
 22 35  2  0
  5 36  1  0
 36 37  2  0
 37 38  1  0
 36 39  1  0
  4 40  1  0
  3 41  1  0
  1 42  1  0
  1 43  1  0
  1 44  1  0
 37  2  1  0
 35  6  1  0
 15 10  1  0
 29 24  1  0
M  END
>  <cnnaffinity>  (1) 
-6.33858

>  <filename>  (1) 
Cc1ccc(-c2nc(Cc3cncnc3)n(Cc3cccnc3)n2)cc1F

$$$$
