
     RDKit          3D

 48 51  0  0  0  0  0  0  0  0999 V2000
   12.3078   -1.1370   21.4285 C   0  0  0  0  0  0  0  0  0  0  0  0
   11.8404    0.1605   22.0212 C   0  0  0  0  0  0  0  0  0  0  0  0
   12.3790    0.8761   23.0615 C   0  0  0  0  0  0  0  0  0  0  0  0
   11.4666    1.9219   23.3759 C   0  0  0  0  0  0  0  0  0  0  0  0
   10.4020    1.8333   22.5170 C   0  0  0  0  0  0  0  0  0  0  0  0
    9.1493    2.6572   22.4675 C   0  0  0  0  0  0  0  0  0  0  0  0
    9.0439    3.2236   21.5346 H   0  0  0  0  0  0  0  0  0  0  0  0
    8.2414    2.0515   22.5760 H   0  0  0  0  0  0  0  0  0  0  0  0
    9.1520    3.3812   23.2868 H   0  0  0  0  0  0  0  0  0  0  0  0
   10.6472    0.7714   21.6645 N   0  0  0  0  0  0  0  0  0  0  0  0
    9.6730    0.2438   20.7386 C   0  0  0  0  0  0  0  0  0  0  0  0
    8.6278   -0.5907   21.3901 C   0  0  0  0  0  0  0  0  0  0  0  0
    8.8495   -1.4519   22.3576 N   0  0  0  0  0  0  0  0  0  0  0  0
    7.6215   -1.9956   22.5701 C   0  0  0  0  0  0  0  0  0  0  0  0
    7.3829   -2.9424   23.6998 C   0  0  0  0  0  0  0  0  0  0  0  0
    7.5012   -2.2038   25.0679 C   0  0  0  0  0  0  0  0  0  0  0  0
    7.5071   -3.1638   26.2333 C   0  0  0  0  0  0  0  0  0  0  0  0
    7.7611   -4.4697   26.1083 C   0  0  0  0  0  0  0  0  0  0  0  0
    8.0248   -5.1461   24.7806 C   0  0  0  0  0  0  0  0  0  0  0  0
    8.3629   -4.1411   23.6659 C   0  0  0  0  0  0  0  0  0  0  0  0
    9.3876   -3.7593   23.7909 H   0  0  0  0  0  0  0  0  0  0  0  0
    8.3337   -4.6366   22.6884 H   0  0  0  0  0  0  0  0  0  0  0  0
    7.1321   -5.7259   24.4964 H   0  0  0  0  0  0  0  0  0  0  0  0
    8.8278   -5.8865   24.8949 H   0  0  0  0  0  0  0  0  0  0  0  0
    7.7649   -5.1076   26.9924 H   0  0  0  0  0  0  0  0  0  0  0  0
    7.3031   -2.7388   27.2166 H   0  0  0  0  0  0  0  0  0  0  0  0
    6.6851   -1.4782   25.1890 H   0  0  0  0  0  0  0  0  0  0  0  0
    8.4283   -1.6059   25.0893 H   0  0  0  0  0  0  0  0  0  0  0  0
    6.3515   -3.2996   23.5755 H   0  0  0  0  0  0  0  0  0  0  0  0
    6.6779   -1.5625   21.7619 N   0  0  0  0  0  0  0  0  0  0  0  0
    7.3316   -0.6701   20.9684 N   0  0  0  0  0  0  0  0  0  0  0  0
    6.6543   -0.0030   19.9054 C   0  0  0  0  0  0  0  0  0  0  0  0
    5.4367    0.6407   20.1554 C   0  0  0  0  0  0  0  0  0  0  0  0
    4.8059    1.3111   19.1040 C   0  0  0  0  0  0  0  0  0  0  0  0
    5.3992    1.2955   17.8349 C   0  0  0  0  0  0  0  0  0  0  0  0
    6.5505    0.6577   17.5766 N   0  0  0  0  0  0  0  0  0  0  0  0
    7.1604    0.0314   18.5899 C   0  0  0  0  0  0  0  0  0  0  0  0
    8.1007   -0.4580   18.3427 H   0  0  0  0  0  0  0  0  0  0  0  0
    4.9349    1.8084   16.9947 H   0  0  0  0  0  0  0  0  0  0  0  0
    3.8737    1.8480   19.2527 H   0  0  0  0  0  0  0  0  0  0  0  0
    5.0172    0.5994   21.1601 H   0  0  0  0  0  0  0  0  0  0  0  0
    9.2093    1.0688   20.1977 H   0  0  0  0  0  0  0  0  0  0  0  0
   10.1806   -0.4238   20.0383 H   0  0  0  0  0  0  0  0  0  0  0  0
   11.5459    2.6461   24.1740 H   0  0  0  0  0  0  0  0  0  0  0  0
   13.3156    0.6447   23.5585 H   0  0  0  0  0  0  0  0  0  0  0  0
   11.6019   -1.9429   21.6557 H   0  0  0  0  0  0  0  0  0  0  0  0
   13.2720   -1.4221   21.8573 H   0  0  0  0  0  0  0  0  0  0  0  0
   12.4446   -1.1360   20.3415 H   0  0  0  0  0  0  0  0  0  0  0  0
  1  2  1  0
  2  3  2  0
  3  4  1  0
  4  5  2  0
  5  6  1  0
  6  7  1  0
  6  8  1  0
  6  9  1  0
  5 10  1  0
 10 11  1  0
 11 12  1  0
 12 13  2  0
 13 14  1  0
 14 15  1  0
 15 16  1  0
 16 17  1  0
 17 18  2  0
 18 19  1  0
 19 20  1  0
 20 21  1  0
 20 22  1  0
 19 23  1  0
 19 24  1  0
 18 25  1  0
 17 26  1  0
 16 27  1  0
 16 28  1  0
 15 29  1  0
 14 30  2  0
 30 31  1  0
 31 32  1  0
 32 33  2  0
 33 34  1  0
 34 35  2  0
 35 36  1  0
 36 37  2  0
 37 38  1  0
 35 39  1  0
 34 40  1  0
 33 41  1  0
 11 42  1  0
 11 43  1  0
  4 44  1  0
  3 45  1  0
  1 46  1  0
  1 47  1  0
  1 48  1  0
 10  2  1  0
 31 12  1  0
 37 32  1  0
 20 15  1  0
M  END
>  <cnnaffinity>  (1) 
-6.76039

>  <filename>  (1) 
Cc1ccc(C)n1Cc1nc(C2CC=CCC2)nn1-c1cccnc1

$$$$
