
     RDKit          3D

 44 47  0  0  0  0  0  0  0  0999 V2000
    6.0595    5.8027   24.8004 C   0  0  0  0  0  0  0  0  0  0  0  0
    5.4277    4.4322   24.7757 C   0  0  0  0  0  0  0  0  0  0  0  0
    4.2060    4.1835   25.4083 C   0  0  0  0  0  0  0  0  0  0  0  0
    3.6427    2.8993   25.4230 C   0  0  0  0  0  0  0  0  0  0  0  0
    4.2984    1.8627   24.7855 C   0  0  0  0  0  0  0  0  0  0  0  0
    3.7864    0.6212   24.8460 F   0  0  0  0  0  0  0  0  0  0  0  0
    5.4883    2.1002   24.0723 C   0  0  0  0  0  0  0  0  0  0  0  0
    5.9711    1.0658   23.3419 O   0  0  0  0  0  0  0  0  0  0  0  0
    7.2628    1.1833   22.7551 C   0  0  0  0  0  0  0  0  0  0  0  0
    7.5943   -0.1529   22.2144 C   0  0  0  0  0  0  0  0  0  0  0  0
    8.2008   -1.0874   22.9067 N   0  0  0  0  0  0  0  0  0  0  0  0
    8.3265   -2.0920   22.0041 C   0  0  0  0  0  0  0  0  0  0  0  0
    9.0727   -3.3194   22.3330 C   0  0  0  0  0  0  0  0  0  0  0  0
    8.6497   -4.1499   23.5798 C   0  0  0  0  0  0  0  0  0  0  0  0
   10.0608   -3.9518   24.1787 C   0  0  0  0  0  0  0  0  0  0  0  0
   10.4500   -3.0302   23.0079 C   0  0  0  0  0  0  0  0  0  0  0  0
   10.5111   -1.9842   23.3316 H   0  0  0  0  0  0  0  0  0  0  0  0
   11.3470   -3.2696   22.4356 H   0  0  0  0  0  0  0  0  0  0  0  0
   10.0615   -3.4524   25.1498 H   0  0  0  0  0  0  0  0  0  0  0  0
   10.6499   -4.8692   24.2610 H   0  0  0  0  0  0  0  0  0  0  0  0
    8.3728   -5.1903   23.3760 H   0  0  0  0  0  0  0  0  0  0  0  0
    7.8395   -3.6758   24.1455 H   0  0  0  0  0  0  0  0  0  0  0  0
    9.0469   -3.8863   21.4081 H   0  0  0  0  0  0  0  0  0  0  0  0
    7.8380   -1.8386   20.8086 N   0  0  0  0  0  0  0  0  0  0  0  0
    7.3282   -0.5892   20.9556 N   0  0  0  0  0  0  0  0  0  0  0  0
    6.6213    0.0477   19.9060 C   0  0  0  0  0  0  0  0  0  0  0  0
    5.4097    0.7011   20.1523 C   0  0  0  0  0  0  0  0  0  0  0  0
    4.7881    1.3358   19.0737 C   0  0  0  0  0  0  0  0  0  0  0  0
    5.4021    1.3008   17.8182 C   0  0  0  0  0  0  0  0  0  0  0  0
    6.5533    0.6459   17.5790 N   0  0  0  0  0  0  0  0  0  0  0  0
    7.1394    0.0200   18.6024 C   0  0  0  0  0  0  0  0  0  0  0  0
    8.0659   -0.5156   18.4012 H   0  0  0  0  0  0  0  0  0  0  0  0
    4.9544    1.8137   16.9698 H   0  0  0  0  0  0  0  0  0  0  0  0
    3.8507    1.8652   19.2028 H   0  0  0  0  0  0  0  0  0  0  0  0
    4.9774    0.7020   21.1527 H   0  0  0  0  0  0  0  0  0  0  0  0
    8.0108    1.4318   23.5186 H   0  0  0  0  0  0  0  0  0  0  0  0
    7.2623    1.9527   21.9725 H   0  0  0  0  0  0  0  0  0  0  0  0
    6.0616    3.3743   24.1081 C   0  0  0  0  0  0  0  0  0  0  0  0
    7.0047    3.5432   23.5980 H   0  0  0  0  0  0  0  0  0  0  0  0
    2.6975    2.6821   25.9098 H   0  0  0  0  0  0  0  0  0  0  0  0
    3.6850    5.0021   25.8941 H   0  0  0  0  0  0  0  0  0  0  0  0
    6.7351    5.9211   25.6561 H   0  0  0  0  0  0  0  0  0  0  0  0
    5.2999    6.5862   24.8735 H   0  0  0  0  0  0  0  0  0  0  0  0
    6.6461    5.9968   23.8959 H   0  0  0  0  0  0  0  0  0  0  0  0
  1  2  1  0
  2  3  2  0
  3  4  1  0
  4  5  2  0
  5  6  1  0
  5  7  1  0
  7  8  1  0
  8  9  1  0
  9 10  1  0
 10 11  2  0
 11 12  1  0
 12 13  1  0
 13 14  1  0
 14 15  1  0
 15 16  1  0
 16 17  1  0
 16 18  1  0
 15 19  1  0
 15 20  1  0
 14 21  1  0
 14 22  1  0
 13 23  1  0
 12 24  2  0
 24 25  1  0
 25 26  1  0
 26 27  2  0
 27 28  1  0
 28 29  2  0
 29 30  1  0
 30 31  2  0
 31 32  1  0
 29 33  1  0
 28 34  1  0
 27 35  1  0
  9 36  1  0
  9 37  1  0
  7 38  2  0
 38 39  1  0
  4 40  1  0
  3 41  1  0
  1 42  1  0
  1 43  1  0
  1 44  1  0
 38  2  1  0
 25 10  1  0
 31 26  1  0
 16 13  1  0
M  END
>  <cnnaffinity>  (1) 
-6.06473

>  <filename>  (1) 
Cc1ccc(F)c(OCc2nc(C3CCC3)nn2-c2cccnc2)c1

$$$$
