
     RDKit          3D

 45 48  0  0  0  0  0  0  0  0999 V2000
    4.7435   -0.6936   26.5151 C   0  0  0  0  0  0  0  0  0  0  0  0
    5.7787    0.2393   25.9547 C   0  0  0  0  0  0  0  0  0  0  0  0
    5.7911    0.8483   24.7323 C   0  0  0  0  0  0  0  0  0  0  0  0
    7.0012    1.5572   24.4518 C   0  0  0  0  0  0  0  0  0  0  0  0
    7.4601    2.0556   23.0957 C   0  0  0  0  0  0  0  0  0  0  0  0
    8.4518    1.0858   22.5254 C   0  0  0  0  0  0  0  0  0  0  0  0
    9.7682    1.1219   22.6549 N   0  0  0  0  0  0  0  0  0  0  0  0
   10.1637   -0.0675   22.1279 C   0  0  0  0  0  0  0  0  0  0  0  0
   11.5398   -0.5503   21.9253 C   0  0  0  0  0  0  0  0  0  0  0  0
   12.7014    0.1181   22.3562 C   0  0  0  0  0  0  0  0  0  0  0  0
   13.9504   -0.2656   21.8596 C   0  0  0  0  0  0  0  0  0  0  0  0
   14.0244   -1.2485   20.8566 C   0  0  0  0  0  0  0  0  0  0  0  0
   15.0899   -1.3934   19.9977 N   0  0  0  0  0  0  0  0  0  0  0  0
   15.9953   -1.2858   20.4299 H   0  0  0  0  0  0  0  0  0  0  0  0
   15.0438   -2.2848   19.5277 H   0  0  0  0  0  0  0  0  0  0  0  0
   12.8968   -1.9977   20.5389 C   0  0  0  0  0  0  0  0  0  0  0  0
   11.6838   -1.6922   21.1171 C   0  0  0  0  0  0  0  0  0  0  0  0
   10.8009   -2.2631   20.8502 H   0  0  0  0  0  0  0  0  0  0  0  0
   12.9867   -2.7475   19.7573 H   0  0  0  0  0  0  0  0  0  0  0  0
   14.8452    0.2776   22.1376 H   0  0  0  0  0  0  0  0  0  0  0  0
   12.6138    0.9677   23.0300 H   0  0  0  0  0  0  0  0  0  0  0  0
    9.1541   -0.8091   21.6890 N   0  0  0  0  0  0  0  0  0  0  0  0
    8.0638   -0.0828   21.9735 N   0  0  0  0  0  0  0  0  0  0  0  0
    6.7672   -0.5228   21.4628 C   0  0  0  0  0  0  0  0  0  0  0  0
    6.3519    0.1652   20.1779 C   0  0  0  0  0  0  0  0  0  0  0  0
    5.1472    0.8610   20.0419 C   0  0  0  0  0  0  0  0  0  0  0  0
    4.8618    1.4886   18.8245 C   0  0  0  0  0  0  0  0  0  0  0  0
    5.7925    1.3916   17.7872 C   0  0  0  0  0  0  0  0  0  0  0  0
    6.9395    0.7023   17.8868 N   0  0  0  0  0  0  0  0  0  0  0  0
    7.2012    0.1086   19.0568 C   0  0  0  0  0  0  0  0  0  0  0  0
    8.1411   -0.4413   19.1188 H   0  0  0  0  0  0  0  0  0  0  0  0
    5.6134    1.8870   16.8332 H   0  0  0  0  0  0  0  0  0  0  0  0
    3.9545    2.0642   18.6753 H   0  0  0  0  0  0  0  0  0  0  0  0
    4.4405    0.9125   20.8743 H   0  0  0  0  0  0  0  0  0  0  0  0
    6.0195   -0.3865   22.2471 H   0  0  0  0  0  0  0  0  0  0  0  0
    6.8794   -1.5996   21.3098 H   0  0  0  0  0  0  0  0  0  0  0  0
    6.6161    2.1639   22.4067 H   0  0  0  0  0  0  0  0  0  0  0  0
    7.9484    3.0313   23.1698 H   0  0  0  0  0  0  0  0  0  0  0  0
    7.8458    1.5368   25.5164 C   0  0  0  0  0  0  0  0  0  0  0  0
    7.2136    0.6463   26.8437 S   0  0  0  0  0  0  0  0  0  0  0  0
    8.8502    1.9380   25.5354 H   0  0  0  0  0  0  0  0  0  0  0  0
    4.9569    0.7879   24.0405 H   0  0  0  0  0  0  0  0  0  0  0  0
    4.1281   -0.1994   27.2785 H   0  0  0  0  0  0  0  0  0  0  0  0
    5.2056   -1.5784   26.9703 H   0  0  0  0  0  0  0  0  0  0  0  0
    4.0789   -1.0259   25.7106 H   0  0  0  0  0  0  0  0  0  0  0  0
  1  2  1  0
  2  3  2  0
  3  4  1  0
  4  5  1  0
  5  6  1  0
  6  7  2  0
  7  8  1  0
  8  9  1  0
  9 10  2  0
 10 11  1  0
 11 12  2  0
 12 13  1  0
 13 14  1  0
 13 15  1  0
 12 16  1  0
 16 17  2  0
 17 18  1  0
 16 19  1  0
 11 20  1  0
 10 21  1  0
  8 22  2  0
 22 23  1  0
 23 24  1  0
 24 25  1  0
 25 26  2  0
 26 27  1  0
 27 28  2  0
 28 29  1  0
 29 30  2  0
 30 31  1  0
 28 32  1  0
 27 33  1  0
 26 34  1  0
 24 35  1  0
 24 36  1  0
  5 37  1  0
  5 38  1  0
  4 39  2  0
 39 40  1  0
 39 41  1  0
  3 42  1  0
  1 43  1  0
  1 44  1  0
  1 45  1  0
 40  2  1  0
 23  6  1  0
 30 25  1  0
 17  9  1  0
M  END
>  <cnnaffinity>  (1) 
-6.63636

>  <filename>  (1) 
Cc1cc(Cc2nc(-c3ccc(N)cc3)nn2Cc2cccnc2)cs1

$$$$
