
     RDKit          3D

 43 46  0  0  0  0  0  0  0  0999 V2000
   12.2866   -1.4188   21.2032 C   0  0  0  0  0  0  0  0  0  0  0  0
   11.8640   -0.1281   21.8619 C   0  0  0  0  0  0  0  0  0  0  0  0
   12.5072    0.5539   22.8468 C   0  0  0  0  0  0  0  0  0  0  0  0
   14.2066    0.2029   23.6252 Br  0  0  0  0  0  0  0  0  0  0  0  0
   11.6748    1.6879   23.1561 C   0  0  0  0  0  0  0  0  0  0  0  0
   10.6041    1.7092   22.3972 N   0  0  0  0  0  0  0  0  0  0  0  0
   10.7117    0.6080   21.5981 N   0  0  0  0  0  0  0  0  0  0  0  0
    9.6573    0.2105   20.6578 C   0  0  0  0  0  0  0  0  0  0  0  0
    8.6300   -0.6200   21.3225 C   0  0  0  0  0  0  0  0  0  0  0  0
    8.8785   -1.4351   22.3006 N   0  0  0  0  0  0  0  0  0  0  0  0
    7.6288   -1.9652   22.5716 C   0  0  0  0  0  0  0  0  0  0  0  0
    7.3837   -2.9434   23.6903 C   0  0  0  0  0  0  0  0  0  0  0  0
    7.7293   -2.3802   25.0690 C   0  0  0  0  0  0  0  0  0  0  0  0
    8.0301   -3.5915   25.9448 C   0  0  0  0  0  0  0  0  0  0  0  0
    8.3445   -4.7518   25.0023 C   0  0  0  0  0  0  0  0  0  0  0  0
    8.2338   -4.2092   23.5817 C   0  0  0  0  0  0  0  0  0  0  0  0
    9.2323   -3.9699   23.2034 H   0  0  0  0  0  0  0  0  0  0  0  0
    7.7824   -4.9453   22.9105 H   0  0  0  0  0  0  0  0  0  0  0  0
    7.6239   -5.5601   25.1580 H   0  0  0  0  0  0  0  0  0  0  0  0
    9.3449   -5.1534   25.1888 H   0  0  0  0  0  0  0  0  0  0  0  0
    7.1612   -3.8398   26.5613 H   0  0  0  0  0  0  0  0  0  0  0  0
    8.8700   -3.3869   26.6153 H   0  0  0  0  0  0  0  0  0  0  0  0
    8.6158   -1.7416   25.0123 H   0  0  0  0  0  0  0  0  0  0  0  0
    6.9089   -1.7859   25.4821 H   0  0  0  0  0  0  0  0  0  0  0  0
    6.3287   -3.2213   23.6790 H   0  0  0  0  0  0  0  0  0  0  0  0
    6.6679   -1.5474   21.7831 N   0  0  0  0  0  0  0  0  0  0  0  0
    7.2967   -0.6930   20.9492 N   0  0  0  0  0  0  0  0  0  0  0  0
    6.6590    0.0023   19.9153 C   0  0  0  0  0  0  0  0  0  0  0  0
    5.4425    0.6394   20.1600 C   0  0  0  0  0  0  0  0  0  0  0  0
    4.8248    1.2990   19.0988 C   0  0  0  0  0  0  0  0  0  0  0  0
    5.4056    1.2958   17.8252 C   0  0  0  0  0  0  0  0  0  0  0  0
    6.5782    0.6779   17.5838 N   0  0  0  0  0  0  0  0  0  0  0  0
    7.1903    0.0594   18.6120 C   0  0  0  0  0  0  0  0  0  0  0  0
    8.1327   -0.4398   18.4098 H   0  0  0  0  0  0  0  0  0  0  0  0
    4.8908    1.8059   17.0147 H   0  0  0  0  0  0  0  0  0  0  0  0
    3.8915    1.8240   19.2521 H   0  0  0  0  0  0  0  0  0  0  0  0
    5.0055    0.6252   21.1605 H   0  0  0  0  0  0  0  0  0  0  0  0
    9.2019    1.1101   20.2492 H   0  0  0  0  0  0  0  0  0  0  0  0
   10.0437   -0.3987   19.8438 H   0  0  0  0  0  0  0  0  0  0  0  0
   11.9248    2.4258   23.9091 H   0  0  0  0  0  0  0  0  0  0  0  0
   12.6461   -1.2506   20.1845 H   0  0  0  0  0  0  0  0  0  0  0  0
   11.4255   -2.0901   21.1427 H   0  0  0  0  0  0  0  0  0  0  0  0
   13.0882   -1.9034   21.7733 H   0  0  0  0  0  0  0  0  0  0  0  0
  1  2  1  0
  2  3  2  0
  3  4  1  0
  3  5  1  0
  5  6  2  0
  6  7  1  0
  7  8  1  0
  8  9  1  0
  9 10  2  0
 10 11  1  0
 11 12  1  0
 12 13  1  0
 13 14  1  0
 14 15  1  0
 15 16  1  0
 16 17  1  0
 16 18  1  0
 15 19  1  0
 15 20  1  0
 14 21  1  0
 14 22  1  0
 13 23  1  0
 13 24  1  0
 12 25  1  0
 11 26  2  0
 26 27  1  0
 27 28  1  0
 28 29  2  0
 29 30  1  0
 30 31  2  0
 31 32  1  0
 32 33  2  0
 33 34  1  0
 31 35  1  0
 30 36  1  0
 29 37  1  0
  8 38  1  0
  8 39  1  0
  5 40  1  0
  1 41  1  0
  1 42  1  0
  1 43  1  0
  7  2  1  0
 27  9  1  0
 33 28  1  0
 16 12  1  0
M  END
>  <cnnaffinity>  (1) 
-6.73316

>  <filename>  (1) 
Cc1c(Br)cnn1Cc1nc(C2CCCC2)nn1-c1cccnc1

$$$$
