
     RDKit          3D

 49 52  0  0  0  0  0  0  0  0999 V2000
    4.5055   -3.2118   26.2857 C   0  0  0  0  0  0  0  0  0  0  0  0
    4.7096   -2.4251   24.9887 C   0  0  0  0  0  0  0  0  0  0  0  0
    4.9244   -3.3830   23.7875 C   0  0  0  0  0  0  0  0  0  0  0  0
    6.3551   -3.9489   23.6751 C   0  0  0  0  0  0  0  0  0  0  0  0
    7.4538   -2.8642   23.7918 C   0  0  0  0  0  0  0  0  0  0  0  0
    7.6089   -1.9317   22.6064 C   0  0  0  0  0  0  0  0  0  0  0  0
    6.6709   -1.5254   21.7678 N   0  0  0  0  0  0  0  0  0  0  0  0
    7.3337   -0.6417   20.9688 N   0  0  0  0  0  0  0  0  0  0  0  0
    6.6592   -0.0007   19.8934 C   0  0  0  0  0  0  0  0  0  0  0  0
    5.4432    0.6394   20.1456 C   0  0  0  0  0  0  0  0  0  0  0  0
    4.8159    1.3138   19.0975 C   0  0  0  0  0  0  0  0  0  0  0  0
    5.4157    1.3025   17.8328 C   0  0  0  0  0  0  0  0  0  0  0  0
    6.5647    0.6595   17.5681 N   0  0  0  0  0  0  0  0  0  0  0  0
    7.1700    0.0234   18.5796 C   0  0  0  0  0  0  0  0  0  0  0  0
    8.1005   -0.4936   18.3356 H   0  0  0  0  0  0  0  0  0  0  0  0
    4.9489    1.8252   17.0025 H   0  0  0  0  0  0  0  0  0  0  0  0
    3.8789    1.8383   19.2554 H   0  0  0  0  0  0  0  0  0  0  0  0
    5.0176    0.5943   21.1473 H   0  0  0  0  0  0  0  0  0  0  0  0
    8.6163   -0.5174   21.4138 C   0  0  0  0  0  0  0  0  0  0  0  0
    9.5248    0.5675   20.9333 C   0  0  0  0  0  0  0  0  0  0  0  0
    9.0555    1.9812   21.3612 C   0  0  0  0  0  0  0  0  0  0  0  0
    8.8490    2.0990   22.8654 C   0  0  0  0  0  0  0  0  0  0  0  0
    7.6754    1.8928   23.5589 C   0  0  0  0  0  0  0  0  0  0  0  0
    7.9822    1.8931   24.8765 N   0  0  0  0  0  0  0  0  0  0  0  0
    9.2857    2.0927   25.1180 N   0  0  0  0  0  0  0  0  0  0  0  0
    9.8138    2.2199   23.9029 C   0  0  0  0  0  0  0  0  0  0  0  0
   10.8798    2.3799   23.8032 H   0  0  0  0  0  0  0  0  0  0  0  0
    7.3521    1.6746   25.6355 H   0  0  0  0  0  0  0  0  0  0  0  0
    6.6557    1.7314   23.2342 H   0  0  0  0  0  0  0  0  0  0  0  0
    8.1229    2.2086   20.8289 H   0  0  0  0  0  0  0  0  0  0  0  0
    9.7917    2.7077   21.0034 H   0  0  0  0  0  0  0  0  0  0  0  0
   10.5271    0.3750   21.3196 H   0  0  0  0  0  0  0  0  0  0  0  0
    9.5881    0.4964   19.8454 H   0  0  0  0  0  0  0  0  0  0  0  0
    8.8289   -1.3563   22.4057 N   0  0  0  0  0  0  0  0  0  0  0  0
    7.2306   -2.0431   25.0941 C   0  0  0  0  0  0  0  0  0  0  0  0
    5.8464   -1.3796   25.1184 C   0  0  0  0  0  0  0  0  0  0  0  0
    5.7116   -0.8115   26.0522 H   0  0  0  0  0  0  0  0  0  0  0  0
    5.7871   -0.6372   24.3086 H   0  0  0  0  0  0  0  0  0  0  0  0
    7.3101   -2.7212   25.9535 H   0  0  0  0  0  0  0  0  0  0  0  0
    8.0385   -1.3114   25.1996 H   0  0  0  0  0  0  0  0  0  0  0  0
    8.4343   -3.3551   23.8585 H   0  0  0  0  0  0  0  0  0  0  0  0
    6.4558   -4.5098   22.7362 H   0  0  0  0  0  0  0  0  0  0  0  0
    6.5341   -4.6801   24.4830 H   0  0  0  0  0  0  0  0  0  0  0  0
    4.2084   -4.2129   23.8744 H   0  0  0  0  0  0  0  0  0  0  0  0
    4.6964   -2.8757   22.8456 H   0  0  0  0  0  0  0  0  0  0  0  0
    3.7690   -1.8817   24.8267 H   0  0  0  0  0  0  0  0  0  0  0  0
    5.3531   -3.8730   26.4907 H   0  0  0  0  0  0  0  0  0  0  0  0
    4.3718   -2.5467   27.1471 H   0  0  0  0  0  0  0  0  0  0  0  0
    3.6149   -3.8424   26.2038 H   0  0  0  0  0  0  0  0  0  0  0  0
  1  2  1  0
  2  3  1  0
  3  4  1  0
  4  5  1  0
  5  6  1  0
  6  7  2  0
  7  8  1  0
  8  9  1  0
  9 10  2  0
 10 11  1  0
 11 12  2  0
 12 13  1  0
 13 14  2  0
 14 15  1  0
 12 16  1  0
 11 17  1  0
 10 18  1  0
  8 19  1  0
 19 20  1  0
 20 21  1  0
 21 22  1  0
 22 23  2  0
 23 24  1  0
 24 25  1  0
 25 26  2  0
 26 27  1  0
 24 28  1  0
 23 29  1  0
 21 30  1  0
 21 31  1  0
 20 32  1  0
 20 33  1  0
 19 34  2  0
  5 35  1  0
 35 36  1  0
 36 37  1  0
 36 38  1  0
 35 39  1  0
 35 40  1  0
  5 41  1  0
  4 42  1  0
  4 43  1  0
  3 44  1  0
  3 45  1  0
  2 46  1  0
  1 47  1  0
  1 48  1  0
  1 49  1  0
 36  2  1  0
 34  6  1  0
 14  9  1  0
 26 22  1  0
M  END
>  <cnnaffinity>  (1) 
-6.08697

>  <filename>  (1) 
CC1CCC(c2nc(CCc3cn[nH]c3)n(-c3cccnc3)n2)CC1

$$$$
