
     RDKit          3D

 50 53  0  0  0  0  0  0  0  0999 V2000
    8.3651    7.2441   25.3486 C   0  0  0  0  0  0  0  0  0  0  0  0
    8.2775    6.0217   24.4612 C   0  0  0  0  0  0  0  0  0  0  0  0
    8.5586    6.1139   23.0875 C   0  0  0  0  0  0  0  0  0  0  0  0
    8.4079    5.0102   22.2391 C   0  0  0  0  0  0  0  0  0  0  0  0
    8.0898    3.7438   22.7584 C   0  0  0  0  0  0  0  0  0  0  0  0
    8.1350    2.4971   21.8995 C   0  0  0  0  0  0  0  0  0  0  0  0
    9.5054    1.7940   21.9301 C   0  0  0  0  0  0  0  0  0  0  0  0
    9.5755    0.5718   20.9901 C   0  0  0  0  0  0  0  0  0  0  0  0
    8.6388   -0.5148   21.3998 C   0  0  0  0  0  0  0  0  0  0  0  0
    8.8647   -1.3641   22.3861 N   0  0  0  0  0  0  0  0  0  0  0  0
    7.6842   -2.0119   22.5140 C   0  0  0  0  0  0  0  0  0  0  0  0
    7.4516   -3.0234   23.5883 C   0  0  0  0  0  0  0  0  0  0  0  0
    6.3807   -2.6235   24.6370 C   0  0  0  0  0  0  0  0  0  0  0  0
    5.8070   -3.9733   25.0859 C   0  0  0  0  0  0  0  0  0  0  0  0
    6.1482   -4.9283   24.0931 O   0  0  0  0  0  0  0  0  0  0  0  0
    6.9036   -4.3557   23.0471 C   0  0  0  0  0  0  0  0  0  0  0  0
    7.6966   -5.0631   22.7752 H   0  0  0  0  0  0  0  0  0  0  0  0
    6.2793   -4.1988   22.1519 H   0  0  0  0  0  0  0  0  0  0  0  0
    4.7151   -3.9480   25.1922 H   0  0  0  0  0  0  0  0  0  0  0  0
    6.2169   -4.3017   26.0503 H   0  0  0  0  0  0  0  0  0  0  0  0
    5.5987   -2.0216   24.1630 H   0  0  0  0  0  0  0  0  0  0  0  0
    6.7859   -2.0295   25.4652 H   0  0  0  0  0  0  0  0  0  0  0  0
    8.4242   -3.1834   24.0692 H   0  0  0  0  0  0  0  0  0  0  0  0
    6.7466   -1.6392   21.6598 N   0  0  0  0  0  0  0  0  0  0  0  0
    7.3696   -0.6817   20.9262 N   0  0  0  0  0  0  0  0  0  0  0  0
    6.6655   -0.0027   19.8945 C   0  0  0  0  0  0  0  0  0  0  0  0
    5.4465    0.6318   20.1598 C   0  0  0  0  0  0  0  0  0  0  0  0
    4.8077    1.3044   19.1097 C   0  0  0  0  0  0  0  0  0  0  0  0
    5.3972    1.2925   17.8405 C   0  0  0  0  0  0  0  0  0  0  0  0
    6.5487    0.6598   17.5732 N   0  0  0  0  0  0  0  0  0  0  0  0
    7.1640    0.0339   18.5819 C   0  0  0  0  0  0  0  0  0  0  0  0
    8.1051   -0.4587   18.3419 H   0  0  0  0  0  0  0  0  0  0  0  0
    4.9296    1.8054   17.0022 H   0  0  0  0  0  0  0  0  0  0  0  0
    3.8752    1.8416   19.2600 H   0  0  0  0  0  0  0  0  0  0  0  0
    5.0178    0.5969   21.1620 H   0  0  0  0  0  0  0  0  0  0  0  0
   10.5822    0.1438   20.9946 H   0  0  0  0  0  0  0  0  0  0  0  0
    9.3428    0.8571   19.9616 H   0  0  0  0  0  0  0  0  0  0  0  0
   10.2891    2.5057   21.6434 H   0  0  0  0  0  0  0  0  0  0  0  0
    9.7347    1.4668   22.9548 H   0  0  0  0  0  0  0  0  0  0  0  0
    7.3508    1.8023   22.2307 H   0  0  0  0  0  0  0  0  0  0  0  0
    7.8935    2.7375   20.8602 H   0  0  0  0  0  0  0  0  0  0  0  0
    7.8101    3.6539   24.1329 C   0  0  0  0  0  0  0  0  0  0  0  0
    7.8806    4.7730   24.9694 C   0  0  0  0  0  0  0  0  0  0  0  0
    7.6033    4.6907   26.0214 H   0  0  0  0  0  0  0  0  0  0  0  0
    7.5074    2.6952   24.5526 H   0  0  0  0  0  0  0  0  0  0  0  0
    8.4881    5.1552   21.1614 H   0  0  0  0  0  0  0  0  0  0  0  0
    8.9012    7.0641   22.6817 H   0  0  0  0  0  0  0  0  0  0  0  0
    7.6284    7.2081   26.1596 H   0  0  0  0  0  0  0  0  0  0  0  0
    9.3566    7.3460   25.8062 H   0  0  0  0  0  0  0  0  0  0  0  0
    8.1740    8.1596   24.7778 H   0  0  0  0  0  0  0  0  0  0  0  0
  1  2  1  0
  2  3  2  0
  3  4  1  0
  4  5  2  0
  5  6  1  0
  6  7  1  0
  7  8  1  0
  8  9  1  0
  9 10  2  0
 10 11  1  0
 11 12  1  0
 12 13  1  0
 13 14  1  0
 14 15  1  0
 15 16  1  0
 16 17  1  0
 16 18  1  0
 14 19  1  0
 14 20  1  0
 13 21  1  0
 13 22  1  0
 12 23  1  0
 11 24  2  0
 24 25  1  0
 25 26  1  0
 26 27  2  0
 27 28  1  0
 28 29  2  0
 29 30  1  0
 30 31  2  0
 31 32  1  0
 29 33  1  0
 28 34  1  0
 27 35  1  0
  8 36  1  0
  8 37  1  0
  7 38  1  0
  7 39  1  0
  6 40  1  0
  6 41  1  0
  5 42  1  0
 42 43  2  0
 43 44  1  0
 42 45  1  0
  4 46  1  0
  3 47  1  0
  1 48  1  0
  1 49  1  0
  1 50  1  0
 43  2  1  0
 25  9  1  0
 31 26  1  0
 16 12  1  0
M  END
>  <cnnaffinity>  (1) 
-5.92266

>  <filename>  (1) 
Cc1ccc(CCCc2nc(C3CCOC3)nn2-c2cccnc2)cc1

$$$$
