
     RDKit          3D

 35 37  0  0  0  0  0  0  0  0999 V2000
    9.4342    0.8604   20.2810 H   0  0  0  0  0  0  0  0  0  0  0  0
    9.7205    0.0275   20.9295 C   0  0  0  0  0  0  0  0  0  0  0  0
    8.7546   -0.8241   21.3466 C   0  0  0  0  0  0  0  0  0  0  0  0
    7.2986   -0.8231   21.0220 C   0  0  0  0  0  0  0  0  0  0  0  0
    6.6583   -0.0293   19.9436 C   0  0  0  0  0  0  0  0  0  0  0  0
    7.2428    0.0165   18.6733 C   0  0  0  0  0  0  0  0  0  0  0  0
    8.1918   -0.4877   18.4908 H   0  0  0  0  0  0  0  0  0  0  0  0
    6.7037    0.6513   17.6236 N   0  0  0  0  0  0  0  0  0  0  0  0
    5.5439    1.2935   17.8237 C   0  0  0  0  0  0  0  0  0  0  0  0
    5.1168    1.7960   16.9572 H   0  0  0  0  0  0  0  0  0  0  0  0
    4.8683    1.3062   19.0505 C   0  0  0  0  0  0  0  0  0  0  0  0
    3.9311    1.8476   19.1437 H   0  0  0  0  0  0  0  0  0  0  0  0
    5.4261    0.6200   20.1293 C   0  0  0  0  0  0  0  0  0  0  0  0
    4.9258    0.5812   21.0981 H   0  0  0  0  0  0  0  0  0  0  0  0
    6.5996   -1.5957   21.7668 N   0  0  0  0  0  0  0  0  0  0  0  0
    7.4549   -2.2183   22.7756 C   0  0  0  0  0  0  0  0  0  0  0  0
    7.2499   -3.2901   22.8184 H   0  0  0  0  0  0  0  0  0  0  0  0
    7.1754   -1.8069   23.7496 H   0  0  0  0  0  0  0  0  0  0  0  0
    8.9210   -1.8834   22.4183 C   0  0  0  0  0  0  0  0  0  0  0  0
    9.4286   -2.7694   22.0227 H   0  0  0  0  0  0  0  0  0  0  0  0
    9.4961   -1.5243   23.2777 H   0  0  0  0  0  0  0  0  0  0  0  0
   11.1446    0.0173   21.3890 C   0  0  0  0  0  0  0  0  0  0  0  0
   11.9016   -1.1699   21.4198 C   0  0  0  0  0  0  0  0  0  0  0  0
   11.4514   -2.0719   21.0237 H   0  0  0  0  0  0  0  0  0  0  0  0
   13.2048   -1.2045   21.9278 C   0  0  0  0  0  0  0  0  0  0  0  0
   13.7659   -2.1352   21.9312 H   0  0  0  0  0  0  0  0  0  0  0  0
   13.7655   -0.0445   22.4661 C   0  0  0  0  0  0  0  0  0  0  0  0
   14.7766   -0.0563   22.8662 H   0  0  0  0  0  0  0  0  0  0  0  0
   13.0338    1.1513   22.4309 C   0  0  0  0  0  0  0  0  0  0  0  0
   13.4561    2.0526   22.8755 H   0  0  0  0  0  0  0  0  0  0  0  0
   11.7668    1.2189   21.8340 C   0  0  0  0  0  0  0  0  0  0  0  0
   11.0604    2.5488   21.6947 C   0  0  0  0  0  0  0  0  0  0  0  0
   11.6364    3.3860   22.1008 H   0  0  0  0  0  0  0  0  0  0  0  0
   10.0900    2.5318   22.2014 H   0  0  0  0  0  0  0  0  0  0  0  0
   10.8646    2.7762   20.6426 H   0  0  0  0  0  0  0  0  0  0  0  0
  1  2  1  0
  2  3  2  3
  3  4  1  0
  4  5  1  0
  5  6  2  0
  6  7  1  0
  6  8  1  0
  8  9  2  0
  9 10  1  0
  9 11  1  0
 11 12  1  0
 11 13  2  0
 13 14  1  0
  4 15  2  0
 15 16  1  0
 16 17  1  0
 16 18  1  0
 16 19  1  0
 19 20  1  0
 19 21  1  0
  2 22  1  0
 22 23  2  0
 23 24  1  0
 23 25  1  0
 25 26  1  0
 25 27  2  0
 27 28  1  0
 27 29  1  0
 29 30  1  0
 29 31  2  0
 31 32  1  0
 32 33  1  0
 32 34  1  0
 32 35  1  0
 19  3  1  0
 31 22  1  0
 13  5  1  0
M  END
>  <cnnaffinity>  (1) 
-5.87852

>  <filename>  (1) 
Cc1ccccc1C=C1CCN=C1c1cccnc1

$$$$
