
     RDKit          3D

 41 44  0  0  0  0  0  0  0  0999 V2000
    7.6688    6.4383   26.8374 C   0  0  0  0  0  0  0  0  0  0  0  0
    7.7458    5.1940   25.9735 C   0  0  0  0  0  0  0  0  0  0  0  0
    8.7955    4.2775   26.1578 C   0  0  0  0  0  0  0  0  0  0  0  0
    8.8990    3.1103   25.4031 C   0  0  0  0  0  0  0  0  0  0  0  0
    7.9417    2.8289   24.4170 C   0  0  0  0  0  0  0  0  0  0  0  0
    8.1400    1.6809   23.7098 O   0  0  0  0  0  0  0  0  0  0  0  0
    7.1647    1.2227   22.7893 C   0  0  0  0  0  0  0  0  0  0  0  0
    7.5361   -0.1436   22.2982 C   0  0  0  0  0  0  0  0  0  0  0  0
    8.1241   -1.1058   22.9825 N   0  0  0  0  0  0  0  0  0  0  0  0
    8.1186   -2.1527   22.1245 C   0  0  0  0  0  0  0  0  0  0  0  0
    8.7032   -3.4652   22.5100 C   0  0  0  0  0  0  0  0  0  0  0  0
    7.9784   -4.7595   22.2354 C   0  0  0  0  0  0  0  0  0  0  0  0
    8.1509   -4.2922   23.6546 C   0  0  0  0  0  0  0  0  0  0  0  0
    7.2752   -3.8989   24.1644 H   0  0  0  0  0  0  0  0  0  0  0  0
    8.8505   -4.8069   24.3135 H   0  0  0  0  0  0  0  0  0  0  0  0
    6.9827   -4.6626   21.8027 H   0  0  0  0  0  0  0  0  0  0  0  0
    8.5630   -5.5921   21.8531 H   0  0  0  0  0  0  0  0  0  0  0  0
    9.7881   -3.4446   22.4348 H   0  0  0  0  0  0  0  0  0  0  0  0
    7.5872   -1.8964   20.9417 N   0  0  0  0  0  0  0  0  0  0  0  0
    7.1823   -0.6067   21.0594 N   0  0  0  0  0  0  0  0  0  0  0  0
    6.5622    0.0542   19.9593 C   0  0  0  0  0  0  0  0  0  0  0  0
    5.3875    0.8016   20.1002 C   0  0  0  0  0  0  0  0  0  0  0  0
    4.8555    1.4183   18.9618 C   0  0  0  0  0  0  0  0  0  0  0  0
    5.5239    1.2901   17.7429 C   0  0  0  0  0  0  0  0  0  0  0  0
    6.6460    0.5627   17.6001 N   0  0  0  0  0  0  0  0  0  0  0  0
    7.1394   -0.0481   18.6820 C   0  0  0  0  0  0  0  0  0  0  0  0
    8.0482   -0.6276   18.5385 H   0  0  0  0  0  0  0  0  0  0  0  0
    5.1435    1.7787   16.8471 H   0  0  0  0  0  0  0  0  0  0  0  0
    3.9448    2.0009   19.0267 H   0  0  0  0  0  0  0  0  0  0  0  0
    4.8996    0.8985   21.0694 H   0  0  0  0  0  0  0  0  0  0  0  0
    7.0697    1.9206   21.9466 H   0  0  0  0  0  0  0  0  0  0  0  0
    6.1784    1.1536   23.2716 H   0  0  0  0  0  0  0  0  0  0  0  0
    6.8754    3.7196   24.2287 C   0  0  0  0  0  0  0  0  0  0  0  0
    6.7845    4.8880   25.0030 C   0  0  0  0  0  0  0  0  0  0  0  0
    5.9442    5.5657   24.8538 H   0  0  0  0  0  0  0  0  0  0  0  0
    6.1194    3.4974   23.4876 H   0  0  0  0  0  0  0  0  0  0  0  0
    9.6969    2.3877   25.5538 H   0  0  0  0  0  0  0  0  0  0  0  0
    9.5377    4.4972   26.9193 H   0  0  0  0  0  0  0  0  0  0  0  0
    7.0944    6.2457   27.7534 H   0  0  0  0  0  0  0  0  0  0  0  0
    7.1750    7.2678   26.3198 H   0  0  0  0  0  0  0  0  0  0  0  0
    8.6669    6.7808   27.1431 H   0  0  0  0  0  0  0  0  0  0  0  0
  1  2  1  0
  2  3  2  0
  3  4  1  0
  4  5  2  0
  5  6  1  0
  6  7  1  0
  7  8  1  0
  8  9  2  0
  9 10  1  0
 10 11  1  0
 11 12  1  0
 12 13  1  0
 13 14  1  0
 13 15  1  0
 12 16  1  0
 12 17  1  0
 11 18  1  0
 10 19  2  0
 19 20  1  0
 20 21  1  0
 21 22  2  0
 22 23  1  0
 23 24  2  0
 24 25  1  0
 25 26  2  0
 26 27  1  0
 24 28  1  0
 23 29  1  0
 22 30  1  0
  7 31  1  0
  7 32  1  0
  5 33  1  0
 33 34  2  0
 34 35  1  0
 33 36  1  0
  4 37  1  0
  3 38  1  0
  1 39  1  0
  1 40  1  0
  1 41  1  0
 34  2  1  0
 20  8  1  0
 26 21  1  0
 13 11  1  0
M  END
>  <cnnaffinity>  (1) 
-5.24183

>  <filename>  (1) 
Cc1ccc(OCc2nc(C3CC3)nn2-c2cccnc2)cc1

$$$$
