
     RDKit          3D

 50 53  0  0  0  0  0  0  0  0999 V2000
    5.2878   -5.1927   26.8130 C   0  0  0  0  0  0  0  0  0  0  0  0
    5.5724   -4.2695   25.6252 C   0  0  0  0  0  0  0  0  0  0  0  0
    6.3557   -3.0154   26.0604 C   0  0  0  0  0  0  0  0  0  0  0  0
    6.6657   -2.0849   24.8811 C   0  0  0  0  0  0  0  0  0  0  0  0
    7.4005   -2.8413   23.7375 C   0  0  0  0  0  0  0  0  0  0  0  0
    7.6702   -1.9276   22.5784 C   0  0  0  0  0  0  0  0  0  0  0  0
    6.7338   -1.5673   21.7183 N   0  0  0  0  0  0  0  0  0  0  0  0
    7.3665   -0.6472   20.9483 N   0  0  0  0  0  0  0  0  0  0  0  0
    6.6621    0.0109   19.9031 C   0  0  0  0  0  0  0  0  0  0  0  0
    5.4407    0.6409   20.1622 C   0  0  0  0  0  0  0  0  0  0  0  0
    4.8113    1.3089   19.1076 C   0  0  0  0  0  0  0  0  0  0  0  0
    5.3994    1.2958   17.8373 C   0  0  0  0  0  0  0  0  0  0  0  0
    6.5558    0.6682   17.5765 N   0  0  0  0  0  0  0  0  0  0  0  0
    7.1674    0.0489   18.5917 C   0  0  0  0  0  0  0  0  0  0  0  0
    8.1111   -0.4407   18.3592 H   0  0  0  0  0  0  0  0  0  0  0  0
    4.9274    1.7948   16.9936 H   0  0  0  0  0  0  0  0  0  0  0  0
    3.8792    1.8392   19.2577 H   0  0  0  0  0  0  0  0  0  0  0  0
    5.0115    0.6003   21.1651 H   0  0  0  0  0  0  0  0  0  0  0  0
    8.6390   -0.4843   21.4075 C   0  0  0  0  0  0  0  0  0  0  0  0
    9.5311    0.6099   20.9274 C   0  0  0  0  0  0  0  0  0  0  0  0
    9.0517    2.0150   21.3784 C   0  0  0  0  0  0  0  0  0  0  0  0
    8.9670    2.1239   22.8639 C   0  0  0  0  0  0  0  0  0  0  0  0
    9.9538    2.3107   23.7697 C   0  0  0  0  0  0  0  0  0  0  0  0
    9.3836    2.1416   25.0304 N   0  0  0  0  0  0  0  0  0  0  0  0
    8.0519    1.8334   24.9470 C   0  0  0  0  0  0  0  0  0  0  0  0
    7.2693    1.6133   25.8547 O   0  0  0  0  0  0  0  0  0  0  0  0
    7.8097    1.8378   23.5970 N   0  0  0  0  0  0  0  0  0  0  0  0
    6.9027    1.5422   23.2935 H   0  0  0  0  0  0  0  0  0  0  0  0
    9.7774    2.1973   25.9495 H   0  0  0  0  0  0  0  0  0  0  0  0
   11.0029    2.5190   23.6070 H   0  0  0  0  0  0  0  0  0  0  0  0
    8.0827    2.2452   20.9194 H   0  0  0  0  0  0  0  0  0  0  0  0
    9.7580    2.7656   21.0165 H   0  0  0  0  0  0  0  0  0  0  0  0
   10.5284    0.3961   21.3181 H   0  0  0  0  0  0  0  0  0  0  0  0
    9.5854    0.5681   19.8391 H   0  0  0  0  0  0  0  0  0  0  0  0
    8.8686   -1.3091   22.4109 N   0  0  0  0  0  0  0  0  0  0  0  0
    6.6202   -4.1039   23.3058 C   0  0  0  0  0  0  0  0  0  0  0  0
    6.3186   -5.0134   24.5018 C   0  0  0  0  0  0  0  0  0  0  0  0
    7.2613   -5.4185   24.9067 H   0  0  0  0  0  0  0  0  0  0  0  0
    5.7289   -5.8799   24.1727 H   0  0  0  0  0  0  0  0  0  0  0  0
    5.6827   -3.7838   22.8255 H   0  0  0  0  0  0  0  0  0  0  0  0
    7.1890   -4.6523   22.5445 H   0  0  0  0  0  0  0  0  0  0  0  0
    8.3915   -3.1342   24.1078 H   0  0  0  0  0  0  0  0  0  0  0  0
    7.2625   -1.2248   25.2137 H   0  0  0  0  0  0  0  0  0  0  0  0
    5.7263   -1.6724   24.4825 H   0  0  0  0  0  0  0  0  0  0  0  0
    5.7867   -2.4720   26.8277 H   0  0  0  0  0  0  0  0  0  0  0  0
    7.2961   -3.3307   26.5422 H   0  0  0  0  0  0  0  0  0  0  0  0
    4.6105   -3.9249   25.2064 H   0  0  0  0  0  0  0  0  0  0  0  0
    4.7305   -4.6725   27.6007 H   0  0  0  0  0  0  0  0  0  0  0  0
    6.2268   -5.5535   27.2535 H   0  0  0  0  0  0  0  0  0  0  0  0
    4.7064   -6.0706   26.5084 H   0  0  0  0  0  0  0  0  0  0  0  0
  1  2  1  0
  2  3  1  0
  3  4  1  0
  4  5  1  0
  5  6  1  0
  6  7  2  0
  7  8  1  0
  8  9  1  0
  9 10  2  0
 10 11  1  0
 11 12  2  0
 12 13  1  0
 13 14  2  0
 14 15  1  0
 12 16  1  0
 11 17  1  0
 10 18  1  0
  8 19  1  0
 19 20  1  0
 20 21  1  0
 21 22  1  0
 22 23  2  0
 23 24  1  0
 24 25  1  0
 25 26  2  0
 25 27  1  0
 27 28  1  0
 24 29  1  0
 23 30  1  0
 21 31  1  0
 21 32  1  0
 20 33  1  0
 20 34  1  0
 19 35  2  0
  5 36  1  0
 36 37  1  0
 37 38  1  0
 37 39  1  0
 36 40  1  0
 36 41  1  0
  5 42  1  0
  4 43  1  0
  4 44  1  0
  3 45  1  0
  3 46  1  0
  2 47  1  0
  1 48  1  0
  1 49  1  0
  1 50  1  0
 37  2  1  0
 35  6  1  0
 14  9  1  0
 27 22  1  0
M  END
>  <cnnaffinity>  (1) 
-5.95504

>  <filename>  (1) 
CC1CCC(c2nc(CCc3c[nH]c(=O)[nH]3)n(-c3cccnc3)n2)CC1

$$$$
