
     RDKit          3D

 42 45  0  0  0  0  0  0  0  0999 V2000
    8.0346   -0.4207   27.4131 C   0  0  0  0  0  0  0  0  0  0  0  0
    7.3079    0.1633   26.2524 C   0  0  0  0  0  0  0  0  0  0  0  0
    7.6440    1.1513   25.3874 C   0  0  0  0  0  0  0  0  0  0  0  0
    6.6652    1.0661   24.3629 C   0  0  0  0  0  0  0  0  0  0  0  0
    6.7208    1.7400   23.0231 C   0  0  0  0  0  0  0  0  0  0  0  0
    7.8743    1.1383   22.2906 C   0  0  0  0  0  0  0  0  0  0  0  0
    9.1223    1.5053   22.4637 N   0  0  0  0  0  0  0  0  0  0  0  0
    9.8279    0.4330   22.0089 C   0  0  0  0  0  0  0  0  0  0  0  0
   11.2883    0.3416   22.1843 C   0  0  0  0  0  0  0  0  0  0  0  0
   12.0100   -0.7465   21.6598 C   0  0  0  0  0  0  0  0  0  0  0  0
   13.3851   -0.7983   21.8577 C   0  0  0  0  0  0  0  0  0  0  0  0
   14.2981   -2.0840   21.1410 Cl  0  0  0  0  0  0  0  0  0  0  0  0
   14.0541    0.2076   22.5551 C   0  0  0  0  0  0  0  0  0  0  0  0
   13.3339    1.2818   23.0826 C   0  0  0  0  0  0  0  0  0  0  0  0
   11.9501    1.3349   22.9309 C   0  0  0  0  0  0  0  0  0  0  0  0
   11.3630    2.1402   23.3710 H   0  0  0  0  0  0  0  0  0  0  0  0
   13.8526    2.0721   23.6177 H   0  0  0  0  0  0  0  0  0  0  0  0
   15.1280    0.1672   22.6347 H   0  0  0  0  0  0  0  0  0  0  0  0
   11.5142   -1.5411   21.1060 H   0  0  0  0  0  0  0  0  0  0  0  0
    9.0778   -0.5312   21.4996 N   0  0  0  0  0  0  0  0  0  0  0  0
    7.8205   -0.0834   21.7226 N   0  0  0  0  0  0  0  0  0  0  0  0
    6.6578   -0.7649   21.1705 C   0  0  0  0  0  0  0  0  0  0  0  0
    6.1348   -0.0522   19.9412 C   0  0  0  0  0  0  0  0  0  0  0  0
    4.9231    0.6471   19.8999 C   0  0  0  0  0  0  0  0  0  0  0  0
    4.6143    1.3863   18.7524 C   0  0  0  0  0  0  0  0  0  0  0  0
    5.5151    1.3816   17.6851 C   0  0  0  0  0  0  0  0  0  0  0  0
    6.6723    0.7038   17.6991 N   0  0  0  0  0  0  0  0  0  0  0  0
    6.9681    0.0230   18.8110 C   0  0  0  0  0  0  0  0  0  0  0  0
    7.9367   -0.4803   18.8260 H   0  0  0  0  0  0  0  0  0  0  0  0
    5.2935    1.9315   16.7710 H   0  0  0  0  0  0  0  0  0  0  0  0
    3.7111    1.9801   18.6864 H   0  0  0  0  0  0  0  0  0  0  0  0
    4.2324    0.6341   20.7461 H   0  0  0  0  0  0  0  0  0  0  0  0
    6.9907   -1.7831   20.9498 H   0  0  0  0  0  0  0  0  0  0  0  0
    5.9037   -0.8303   21.9613 H   0  0  0  0  0  0  0  0  0  0  0  0
    5.7879    1.6004   22.4757 H   0  0  0  0  0  0  0  0  0  0  0  0
    6.9233    2.8024   23.1427 H   0  0  0  0  0  0  0  0  0  0  0  0
    5.7759    0.1504   24.6307 N   0  0  0  0  0  0  0  0  0  0  0  0
    6.1729   -0.4180   25.8317 O   0  0  0  0  0  0  0  0  0  0  0  0
    8.5195    1.7780   25.3842 H   0  0  0  0  0  0  0  0  0  0  0  0
    8.3708    0.3664   28.0913 H   0  0  0  0  0  0  0  0  0  0  0  0
    8.9360   -0.9242   27.0454 H   0  0  0  0  0  0  0  0  0  0  0  0
    7.4247   -1.1506   27.9449 H   0  0  0  0  0  0  0  0  0  0  0  0
  1  2  1  0
  2  3  2  0
  3  4  1  0
  4  5  1  0
  5  6  1  0
  6  7  2  0
  7  8  1  0
  8  9  1  0
  9 10  2  0
 10 11  1  0
 11 12  1  0
 11 13  2  0
 13 14  1  0
 14 15  2  0
 15 16  1  0
 14 17  1  0
 13 18  1  0
 10 19  1  0
  8 20  2  0
 20 21  1  0
 21 22  1  0
 22 23  1  0
 23 24  2  0
 24 25  1  0
 25 26  2  0
 26 27  1  0
 27 28  2  0
 28 29  1  0
 26 30  1  0
 25 31  1  0
 24 32  1  0
 22 33  1  0
 22 34  1  0
  5 35  1  0
  5 36  1  0
  4 37  2  0
 37 38  1  0
  3 39  1  0
  1 40  1  0
  1 41  1  0
  1 42  1  0
 38  2  1  0
 21  6  1  0
 28 23  1  0
 15  9  1  0
M  END
>  <cnnaffinity>  (1) 
-6.44252

>  <filename>  (1) 
Cc1cc(Cc2nc(-c3cccc(Cl)c3)nn2Cc2cccnc2)no1

$$$$
