
     RDKit          3D

 45 48  0  0  0  0  0  0  0  0999 V2000
    9.7062   -0.7808   25.3692 C   0  0  0  0  0  0  0  0  0  0  0  0
    8.9269   -1.9181   24.7472 C   0  0  0  0  0  0  0  0  0  0  0  0
    8.0038   -2.6275   25.5332 C   0  0  0  0  0  0  0  0  0  0  0  0
    7.2669   -3.6791   24.9794 C   0  0  0  0  0  0  0  0  0  0  0  0
    7.4006   -4.0627   23.7072 N   0  0  0  0  0  0  0  0  0  0  0  0
    8.2761   -3.3885   22.9511 C   0  0  0  0  0  0  0  0  0  0  0  0
    9.0617   -2.3119   23.3971 C   0  0  0  0  0  0  0  0  0  0  0  0
   10.0120   -1.5761   22.4545 C   0  0  0  0  0  0  0  0  0  0  0  0
    9.6388   -0.1491   22.1794 C   0  0  0  0  0  0  0  0  0  0  0  0
   10.2971    0.9252   22.5610 N   0  0  0  0  0  0  0  0  0  0  0  0
    9.4620    1.9494   22.2212 C   0  0  0  0  0  0  0  0  0  0  0  0
    9.7261    3.3665   22.5585 C   0  0  0  0  0  0  0  0  0  0  0  0
    8.8255    4.3812   22.1637 C   0  0  0  0  0  0  0  0  0  0  0  0
    9.1525    5.7247   22.3652 C   0  0  0  0  0  0  0  0  0  0  0  0
   10.3435    6.0666   23.0150 C   0  0  0  0  0  0  0  0  0  0  0  0
   11.2173    5.0659   23.4512 C   0  0  0  0  0  0  0  0  0  0  0  0
   10.9144    3.7228   23.2249 C   0  0  0  0  0  0  0  0  0  0  0  0
   11.6052    2.9420   23.5311 H   0  0  0  0  0  0  0  0  0  0  0  0
   12.1378    5.3257   23.9664 H   0  0  0  0  0  0  0  0  0  0  0  0
   10.6010    7.1102   23.1549 H   0  0  0  0  0  0  0  0  0  0  0  0
    8.5208    6.5014   21.9401 H   0  0  0  0  0  0  0  0  0  0  0  0
    7.9365    4.1098   21.5972 H   0  0  0  0  0  0  0  0  0  0  0  0
    8.3637    1.5525   21.5996 N   0  0  0  0  0  0  0  0  0  0  0  0
    8.4888    0.2081   21.5593 N   0  0  0  0  0  0  0  0  0  0  0  0
    7.4342   -0.6588   21.0170 C   0  0  0  0  0  0  0  0  0  0  0  0
    6.6449   -0.0115   19.8992 C   0  0  0  0  0  0  0  0  0  0  0  0
    5.4272    0.6385   20.1391 C   0  0  0  0  0  0  0  0  0  0  0  0
    4.7897    1.3034   19.0863 C   0  0  0  0  0  0  0  0  0  0  0  0
    5.3930    1.2930   17.8264 C   0  0  0  0  0  0  0  0  0  0  0  0
    6.5554    0.6736   17.5740 N   0  0  0  0  0  0  0  0  0  0  0  0
    7.1615    0.0560   18.5972 C   0  0  0  0  0  0  0  0  0  0  0  0
    8.1192   -0.4087   18.3613 H   0  0  0  0  0  0  0  0  0  0  0  0
    4.9353    1.8043   16.9791 H   0  0  0  0  0  0  0  0  0  0  0  0
    3.8644    1.8496   19.2290 H   0  0  0  0  0  0  0  0  0  0  0  0
    4.9989    0.6422   21.1440 H   0  0  0  0  0  0  0  0  0  0  0  0
    6.7634   -0.9511   21.8351 H   0  0  0  0  0  0  0  0  0  0  0  0
    7.9213   -1.5775   20.6701 H   0  0  0  0  0  0  0  0  0  0  0  0
   11.0289   -1.5496   22.8610 H   0  0  0  0  0  0  0  0  0  0  0  0
   10.0738   -2.1143   21.5028 H   0  0  0  0  0  0  0  0  0  0  0  0
    8.3488   -3.7316   21.9142 H   0  0  0  0  0  0  0  0  0  0  0  0
    6.5469   -4.2426   25.5812 H   0  0  0  0  0  0  0  0  0  0  0  0
    7.8702   -2.3612   26.5746 H   0  0  0  0  0  0  0  0  0  0  0  0
    9.2709    0.1923   25.1146 H   0  0  0  0  0  0  0  0  0  0  0  0
    9.7080   -0.8616   26.4601 H   0  0  0  0  0  0  0  0  0  0  0  0
   10.7462   -0.7440   25.0252 H   0  0  0  0  0  0  0  0  0  0  0  0
  1  2  1  0
  2  3  2  0
  3  4  1  0
  4  5  2  0
  5  6  1  0
  6  7  2  0
  7  8  1  0
  8  9  1  0
  9 10  2  0
 10 11  1  0
 11 12  1  0
 12 13  2  0
 13 14  1  0
 14 15  2  0
 15 16  1  0
 16 17  2  0
 17 18  1  0
 16 19  1  0
 15 20  1  0
 14 21  1  0
 13 22  1  0
 11 23  2  0
 23 24  1  0
 24 25  1  0
 25 26  1  0
 26 27  2  0
 27 28  1  0
 28 29  2  0
 29 30  1  0
 30 31  2  0
 31 32  1  0
 29 33  1  0
 28 34  1  0
 27 35  1  0
 25 36  1  0
 25 37  1  0
  8 38  1  0
  8 39  1  0
  6 40  1  0
  4 41  1  0
  3 42  1  0
  1 43  1  0
  1 44  1  0
  1 45  1  0
  7  2  1  0
 24  9  1  0
 31 26  1  0
 17 12  1  0
M  END
>  <cnnaffinity>  (1) 
-6.32275

>  <filename>  (1) 
Cc1ccncc1Cc1nc(-c2ccccc2)nn1Cc1cccnc1

$$$$
