
     RDKit          3D

 48 50  0  0  0  0  0  0  0  0999 V2000
    9.4895    2.3323   21.1530 C   0  0  0  0  0  0  0  0  0  0  0  0
    9.6379    2.2082   22.6482 C   0  0  0  0  0  0  0  0  0  0  0  0
   10.8389    2.5973   23.2553 C   0  0  0  0  0  0  0  0  0  0  0  0
   11.0785    2.3374   24.6053 C   0  0  0  0  0  0  0  0  0  0  0  0
   10.0843    1.7571   25.3875 C   0  0  0  0  0  0  0  0  0  0  0  0
    8.8506    1.4443   24.8092 C   0  0  0  0  0  0  0  0  0  0  0  0
    7.6364    0.7293   25.8458 Cl  0  0  0  0  0  0  0  0  0  0  0  0
    8.6023    1.6495   23.4388 C   0  0  0  0  0  0  0  0  0  0  0  0
    7.3228    1.1406   22.7755 C   0  0  0  0  0  0  0  0  0  0  0  0
    7.4870   -0.2607   22.2337 C   0  0  0  0  0  0  0  0  0  0  0  0
    8.0399   -1.2622   22.9001 N   0  0  0  0  0  0  0  0  0  0  0  0
    8.1399   -2.2323   21.9650 C   0  0  0  0  0  0  0  0  0  0  0  0
    8.7928   -3.5374   22.2318 C   0  0  0  0  0  0  0  0  0  0  0  0
    8.0240   -4.3748   23.2383 C   0  0  0  0  0  0  0  0  0  0  0  0
    6.6330   -4.5902   22.6858 N   0  0  0  0  0  4  0  0  0  0  0  0
    5.7432   -5.2057   23.7032 C   0  0  0  0  0  0  0  0  0  0  0  0
    4.7418   -5.3495   23.2847 H   0  0  0  0  0  0  0  0  0  0  0  0
    5.6859   -4.5739   24.5953 H   0  0  0  0  0  0  0  0  0  0  0  0
    6.1332   -6.1891   24.0043 H   0  0  0  0  0  0  0  0  0  0  0  0
    6.6371   -5.4672   21.4591 C   0  0  0  0  0  0  0  0  0  0  0  0
    7.2026   -6.3903   21.6510 H   0  0  0  0  0  0  0  0  0  0  0  0
    5.6146   -5.7557   21.1996 H   0  0  0  0  0  0  0  0  0  0  0  0
    7.0821   -4.9507   20.6030 H   0  0  0  0  0  0  0  0  0  0  0  0
    6.2836   -3.6326   22.4344 H   0  0  0  0  0  0  0  0  0  0  0  0
    8.5072   -5.3518   23.3931 H   0  0  0  0  0  0  0  0  0  0  0  0
    7.9644   -3.8878   24.2208 H   0  0  0  0  0  0  0  0  0  0  0  0
    8.7882   -4.0433   21.2708 H   0  0  0  0  0  0  0  0  0  0  0  0
    9.8191   -3.3637   22.5576 H   0  0  0  0  0  0  0  0  0  0  0  0
    7.6536   -1.9332   20.7839 N   0  0  0  0  0  0  0  0  0  0  0  0
    7.2005   -0.6672   20.9568 N   0  0  0  0  0  0  0  0  0  0  0  0
    6.5537   -0.0024   19.8883 C   0  0  0  0  0  0  0  0  0  0  0  0
    5.3594    0.6910   20.0971 C   0  0  0  0  0  0  0  0  0  0  0  0
    4.7920    1.3540   19.0049 C   0  0  0  0  0  0  0  0  0  0  0  0
    5.4440    1.3139   17.7689 C   0  0  0  0  0  0  0  0  0  0  0  0
    6.5801    0.6275   17.5625 N   0  0  0  0  0  0  0  0  0  0  0  0
    7.1106   -0.0287   18.5972 C   0  0  0  0  0  0  0  0  0  0  0  0
    8.0177   -0.5965   18.4087 H   0  0  0  0  0  0  0  0  0  0  0  0
    5.0316    1.8409   16.9080 H   0  0  0  0  0  0  0  0  0  0  0  0
    3.8579    1.8922   19.1069 H   0  0  0  0  0  0  0  0  0  0  0  0
    4.8923    0.6966   21.0836 H   0  0  0  0  0  0  0  0  0  0  0  0
    7.0279    1.8238   21.9712 H   0  0  0  0  0  0  0  0  0  0  0  0
    6.5025    1.1333   23.4989 H   0  0  0  0  0  0  0  0  0  0  0  0
   10.2652    1.5158   26.4275 H   0  0  0  0  0  0  0  0  0  0  0  0
   12.0455    2.5646   25.0429 H   0  0  0  0  0  0  0  0  0  0  0  0
   11.6086    3.0723   22.6512 H   0  0  0  0  0  0  0  0  0  0  0  0
   10.4466    2.5798   20.6822 H   0  0  0  0  0  0  0  0  0  0  0  0
    9.1374    1.3886   20.7191 H   0  0  0  0  0  0  0  0  0  0  0  0
    8.7596    3.1037   20.8827 H   0  0  0  0  0  0  0  0  0  0  0  0
  1  2  1  0
  2  3  2  0
  3  4  1  0
  4  5  2  0
  5  6  1  0
  6  7  1  0
  6  8  2  0
  8  9  1  0
  9 10  1  0
 10 11  2  0
 11 12  1  0
 12 13  1  0
 13 14  1  0
 14 15  1  0
 15 16  1  0
 16 17  1  0
 16 18  1  0
 16 19  1  0
 15 20  1  0
 20 21  1  0
 20 22  1  0
 20 23  1  0
 15 24  1  0
 14 25  1  0
 14 26  1  0
 13 27  1  0
 13 28  1  0
 12 29  2  0
 29 30  1  0
 30 31  1  0
 31 32  2  0
 32 33  1  0
 33 34  2  0
 34 35  1  0
 35 36  2  0
 36 37  1  0
 34 38  1  0
 33 39  1  0
 32 40  1  0
  9 41  1  0
  9 42  1  0
  5 43  1  0
  4 44  1  0
  3 45  1  0
  1 46  1  0
  1 47  1  0
  1 48  1  0
  8  2  1  0
 30 10  1  0
 36 31  1  0
M  CHG  1  15   1
M  END
>  <cnnaffinity>  (1) 
-6.02896

>  <filename>  (1) 
Cc1cccc(Cl)c1Cc1nc(CC[NH+](C)C)nn1-c1cccnc1

$$$$
