
     RDKit          3D

 44 47  0  0  0  0  0  0  0  0999 V2000
    7.4609    0.3943   24.9695 C   0  0  0  0  0  0  0  0  0  0  0  0
    7.8980    1.8371   24.9892 C   0  0  0  0  0  0  0  0  0  0  0  0
    8.3527    2.4138   26.1804 C   0  0  0  0  0  0  0  0  0  0  0  0
    8.8389    3.7215   26.1685 C   0  0  0  0  0  0  0  0  0  0  0  0
    8.9176    4.4707   25.0672 N   0  0  0  0  0  0  0  0  0  0  0  0
    8.4786    3.9187   23.9280 C   0  0  0  0  0  0  0  0  0  0  0  0
    7.9270    2.6350   23.8242 C   0  0  0  0  0  0  0  0  0  0  0  0
    7.5660    2.0522   22.4598 C   0  0  0  0  0  0  0  0  0  0  0  0
    8.5527    1.0005   22.0246 C   0  0  0  0  0  0  0  0  0  0  0  0
    9.8628    1.1013   22.2113 N   0  0  0  0  0  0  0  0  0  0  0  0
   10.3263   -0.1055   21.8428 C   0  0  0  0  0  0  0  0  0  0  0  0
   11.7363   -0.4873   21.8222 C   0  0  0  0  0  0  0  0  0  0  0  0
   12.8197    0.2728   22.2938 C   0  0  0  0  0  0  0  0  0  0  0  0
   14.0843   -0.1424   21.9007 C   0  0  0  0  0  0  0  0  0  0  0  0
   15.1235    0.6127   22.2559 F   0  0  0  0  0  0  0  0  0  0  0  0
   14.2433   -1.2647   21.0656 C   0  0  0  0  0  0  0  0  0  0  0  0
   13.2079   -2.0181   20.6990 N   0  0  0  0  0  0  0  0  0  0  0  0
   11.9951   -1.6663   21.1155 C   0  0  0  0  0  0  0  0  0  0  0  0
   11.1464   -2.2808   20.8424 H   0  0  0  0  0  0  0  0  0  0  0  0
   15.1883   -1.5199   20.6007 H   0  0  0  0  0  0  0  0  0  0  0  0
   12.7261    1.1900   22.8768 H   0  0  0  0  0  0  0  0  0  0  0  0
    9.3888   -0.9327   21.3981 N   0  0  0  0  0  0  0  0  0  0  0  0
    8.2515   -0.2169   21.5012 N   0  0  0  0  0  0  0  0  0  0  0  0
    6.9981   -0.7857   20.9864 C   0  0  0  0  0  0  0  0  0  0  0  0
    6.3587   -0.0060   19.8532 C   0  0  0  0  0  0  0  0  0  0  0  0
    5.1428    0.6754   19.9830 C   0  0  0  0  0  0  0  0  0  0  0  0
    4.6532    1.4031   18.8936 C   0  0  0  0  0  0  0  0  0  0  0  0
    5.3882    1.4076   17.7058 C   0  0  0  0  0  0  0  0  0  0  0  0
    6.5402    0.7374   17.5515 N   0  0  0  0  0  0  0  0  0  0  0  0
    7.0046    0.0578   18.6060 C   0  0  0  0  0  0  0  0  0  0  0  0
    7.9458   -0.4693   18.4502 H   0  0  0  0  0  0  0  0  0  0  0  0
    5.0316    1.9560   16.8343 H   0  0  0  0  0  0  0  0  0  0  0  0
    3.7293    1.9667   18.9555 H   0  0  0  0  0  0  0  0  0  0  0  0
    4.5868    0.6405   20.9230 H   0  0  0  0  0  0  0  0  0  0  0  0
    7.2662   -1.7874   20.6354 H   0  0  0  0  0  0  0  0  0  0  0  0
    6.2897   -0.9178   21.8128 H   0  0  0  0  0  0  0  0  0  0  0  0
    6.5608    1.6112   22.4724 H   0  0  0  0  0  0  0  0  0  0  0  0
    7.5704    2.8426   21.7013 H   0  0  0  0  0  0  0  0  0  0  0  0
    8.5860    4.5316   23.0309 H   0  0  0  0  0  0  0  0  0  0  0  0
    9.1997    4.1899   27.0797 H   0  0  0  0  0  0  0  0  0  0  0  0
    8.3554    1.8373   27.0999 H   0  0  0  0  0  0  0  0  0  0  0  0
    7.5970   -0.0694   25.9484 H   0  0  0  0  0  0  0  0  0  0  0  0
    6.4087    0.2765   24.6907 H   0  0  0  0  0  0  0  0  0  0  0  0
    8.0507   -0.1856   24.2528 H   0  0  0  0  0  0  0  0  0  0  0  0
  1  2  1  0
  2  3  2  0
  3  4  1  0
  4  5  2  0
  5  6  1  0
  6  7  2  0
  7  8  1  0
  8  9  1  0
  9 10  2  0
 10 11  1  0
 11 12  1  0
 12 13  2  0
 13 14  1  0
 14 15  1  0
 14 16  2  0
 16 17  1  0
 17 18  2  0
 18 19  1  0
 16 20  1  0
 13 21  1  0
 11 22  2  0
 22 23  1  0
 23 24  1  0
 24 25  1  0
 25 26  2  0
 26 27  1  0
 27 28  2  0
 28 29  1  0
 29 30  2  0
 30 31  1  0
 28 32  1  0
 27 33  1  0
 26 34  1  0
 24 35  1  0
 24 36  1  0
  8 37  1  0
  8 38  1  0
  6 39  1  0
  4 40  1  0
  3 41  1  0
  1 42  1  0
  1 43  1  0
  1 44  1  0
  7  2  1  0
 23  9  1  0
 30 25  1  0
 18 12  1  0
M  END
>  <cnnaffinity>  (1) 
-6.67885

>  <filename>  (1) 
Cc1ccncc1Cc1nc(-c2cncc(F)c2)nn1Cc1cccnc1

$$$$
