
     RDKit          3D

 46 49  0  0  0  0  0  0  0  0999 V2000
   11.9126    2.7700   24.0573 C   0  0  0  0  0  0  0  0  0  0  0  0
   11.5595    1.7789   22.9981 C   0  0  0  0  0  0  0  0  0  0  0  0
   10.4033    1.6380   22.2671 C   0  0  0  0  0  0  0  0  0  0  0  0
   10.5542    0.5510   21.4711 N   0  0  0  0  0  0  0  0  0  0  0  0
    9.5737    0.0064   20.5654 C   0  0  0  0  0  0  0  0  0  0  0  0
    8.5183   -0.7611   21.2713 C   0  0  0  0  0  0  0  0  0  0  0  0
    8.7262   -1.5631   22.2906 N   0  0  0  0  0  0  0  0  0  0  0  0
    7.4958   -2.0611   22.5497 C   0  0  0  0  0  0  0  0  0  0  0  0
    7.2566   -3.0143   23.6835 C   0  0  0  0  0  0  0  0  0  0  0  0
    6.5929   -4.3368   23.2475 C   0  0  0  0  0  0  0  0  0  0  0  0
    5.9760   -4.9278   24.5270 C   0  0  0  0  0  0  0  0  0  0  0  0
    5.7646   -3.7439   25.5049 C   0  0  0  0  0  0  0  0  0  0  0  0
    6.3382   -2.4883   24.8136 C   0  0  0  0  0  0  0  0  0  0  0  0
    6.8690   -1.8257   25.5063 H   0  0  0  0  0  0  0  0  0  0  0  0
    5.5310   -1.8885   24.3901 H   0  0  0  0  0  0  0  0  0  0  0  0
    6.2721   -3.9355   26.4563 H   0  0  0  0  0  0  0  0  0  0  0  0
    4.7069   -3.6075   25.7562 H   0  0  0  0  0  0  0  0  0  0  0  0
    6.6464   -5.6731   24.9684 H   0  0  0  0  0  0  0  0  0  0  0  0
    5.0399   -5.4557   24.3159 H   0  0  0  0  0  0  0  0  0  0  0  0
    7.3091   -5.0110   22.7648 H   0  0  0  0  0  0  0  0  0  0  0  0
    5.8175   -4.1228   22.5042 H   0  0  0  0  0  0  0  0  0  0  0  0
    8.2480   -3.2195   24.1052 H   0  0  0  0  0  0  0  0  0  0  0  0
    6.5451   -1.6384   21.7271 N   0  0  0  0  0  0  0  0  0  0  0  0
    7.2130   -0.8165   20.8788 N   0  0  0  0  0  0  0  0  0  0  0  0
    6.5444   -0.1116   19.8356 C   0  0  0  0  0  0  0  0  0  0  0  0
    5.3548    0.5810   20.0966 C   0  0  0  0  0  0  0  0  0  0  0  0
    4.7845    1.3213   19.0552 C   0  0  0  0  0  0  0  0  0  0  0  0
    5.4050    1.3206   17.7991 C   0  0  0  0  0  0  0  0  0  0  0  0
    6.5241    0.6279   17.5307 N   0  0  0  0  0  0  0  0  0  0  0  0
    7.0747   -0.0695   18.5316 C   0  0  0  0  0  0  0  0  0  0  0  0
    7.9887   -0.6116   18.2858 H   0  0  0  0  0  0  0  0  0  0  0  0
    4.9897    1.8956   16.9771 H   0  0  0  0  0  0  0  0  0  0  0  0
    3.8810    1.9061   19.2078 H   0  0  0  0  0  0  0  0  0  0  0  0
    4.9115    0.5440   21.0924 H   0  0  0  0  0  0  0  0  0  0  0  0
    9.1568    0.8306   19.9895 H   0  0  0  0  0  0  0  0  0  0  0  0
   10.0945   -0.6578   19.8796 H   0  0  0  0  0  0  0  0  0  0  0  0
   11.7380   -0.0284   21.6301 N   0  0  0  0  0  0  0  0  0  0  0  0
   12.3630    0.7014   22.5493 C   0  0  0  0  0  0  0  0  0  0  0  0
   13.7751    0.4338   23.0028 C   0  0  0  0  0  0  0  0  0  0  0  0
   14.2534   -0.7323   22.5720 F   0  0  0  0  0  0  0  0  0  0  0  0
   14.6193    1.4044   22.5886 F   0  0  0  0  0  0  0  0  0  0  0  0
   13.8540    0.4322   24.3578 F   0  0  0  0  0  0  0  0  0  0  0  0
    9.4832    2.2117   22.2631 H   0  0  0  0  0  0  0  0  0  0  0  0
   12.0493    2.2545   25.0119 H   0  0  0  0  0  0  0  0  0  0  0  0
   11.1451    3.5363   24.1925 H   0  0  0  0  0  0  0  0  0  0  0  0
   12.8594    3.2688   23.8190 H   0  0  0  0  0  0  0  0  0  0  0  0
  1  2  1  0
  2  3  2  0
  3  4  1  0
  4  5  1  0
  5  6  1  0
  6  7  2  0
  7  8  1  0
  8  9  1  0
  9 10  1  0
 10 11  1  0
 11 12  1  0
 12 13  1  0
 13 14  1  0
 13 15  1  0
 12 16  1  0
 12 17  1  0
 11 18  1  0
 11 19  1  0
 10 20  1  0
 10 21  1  0
  9 22  1  0
  8 23  2  0
 23 24  1  0
 24 25  1  0
 25 26  2  0
 26 27  1  0
 27 28  2  0
 28 29  1  0
 29 30  2  0
 30 31  1  0
 28 32  1  0
 27 33  1  0
 26 34  1  0
  5 35  1  0
  5 36  1  0
  4 37  1  0
 37 38  2  0
 38 39  1  0
 39 40  1  0
 39 41  1  0
 39 42  1  0
  3 43  1  0
  1 44  1  0
  1 45  1  0
  1 46  1  0
 38  2  1  0
 24  6  1  0
 30 25  1  0
 13  9  1  0
M  END
>  <cnnaffinity>  (1) 
-6.734

>  <filename>  (1) 
Cc1cn(Cc2nc(C3CCCC3)nn2-c2cccnc2)nc1C(F)(F)F

$$$$
