
     RDKit          3D

 44 47  0  0  0  0  0  0  0  0999 V2000
    4.8055   -0.6308   26.1119 C   0  0  0  0  0  0  0  0  0  0  0  0
    6.1027    0.0350   25.7249 C   0  0  0  0  0  0  0  0  0  0  0  0
    7.2226    0.0211   26.5723 C   0  0  0  0  0  0  0  0  0  0  0  0
    8.3871    0.6216   26.3000 N   0  0  0  0  0  0  0  0  0  0  0  0
    8.4924    1.2502   25.1287 C   0  0  0  0  0  0  0  0  0  0  0  0
    7.4596    1.3191   24.1733 C   0  0  0  0  0  0  0  0  0  0  0  0
    7.7465    1.9155   22.7939 C   0  0  0  0  0  0  0  0  0  0  0  0
    8.7039    1.0393   22.0494 C   0  0  0  0  0  0  0  0  0  0  0  0
   10.0209    1.1180   22.1242 N   0  0  0  0  0  0  0  0  0  0  0  0
   10.4283   -0.1046   21.6734 C   0  0  0  0  0  0  0  0  0  0  0  0
   11.8510   -0.5668   21.6127 C   0  0  0  0  0  0  0  0  0  0  0  0
   12.9200    0.1790   22.1624 C   0  0  0  0  0  0  0  0  0  0  0  0
   14.2181   -0.1723   21.7807 C   0  0  0  0  0  0  0  0  0  0  0  0
   14.3989   -1.2484   20.8998 C   0  0  0  0  0  0  0  0  0  0  0  0
   13.2981   -2.0234   20.5554 C   0  0  0  0  0  0  0  0  0  0  0  0
   12.0669   -1.7099   20.9401 N   0  0  0  0  0  0  0  0  0  0  0  0
   13.3963   -2.9083   19.9257 H   0  0  0  0  0  0  0  0  0  0  0  0
   15.3193   -1.4754   20.3948 H   0  0  0  0  0  0  0  0  0  0  0  0
   15.0456    0.4672   22.0782 H   0  0  0  0  0  0  0  0  0  0  0  0
   12.7553    1.0514   22.7895 H   0  0  0  0  0  0  0  0  0  0  0  0
    9.4321   -0.8808   21.2755 N   0  0  0  0  0  0  0  0  0  0  0  0
    8.3389   -0.1425   21.5057 N   0  0  0  0  0  0  0  0  0  0  0  0
    7.0410   -0.6619   21.0904 C   0  0  0  0  0  0  0  0  0  0  0  0
    6.4065    0.0832   19.9363 C   0  0  0  0  0  0  0  0  0  0  0  0
    5.1826    0.7505   20.0492 C   0  0  0  0  0  0  0  0  0  0  0  0
    4.6676    1.4096   18.9298 C   0  0  0  0  0  0  0  0  0  0  0  0
    5.3934    1.3641   17.7355 C   0  0  0  0  0  0  0  0  0  0  0  0
    6.5557    0.7071   17.5972 N   0  0  0  0  0  0  0  0  0  0  0  0
    7.0442    0.0933   18.6816 C   0  0  0  0  0  0  0  0  0  0  0  0
    7.9884   -0.4361   18.5494 H   0  0  0  0  0  0  0  0  0  0  0  0
    5.0309    1.8827   16.8505 H   0  0  0  0  0  0  0  0  0  0  0  0
    3.7384    1.9668   18.9726 H   0  0  0  0  0  0  0  0  0  0  0  0
    4.6363    0.7504   20.9966 H   0  0  0  0  0  0  0  0  0  0  0  0
    7.2373   -1.7006   20.8076 H   0  0  0  0  0  0  0  0  0  0  0  0
    6.3860   -0.6869   21.9664 H   0  0  0  0  0  0  0  0  0  0  0  0
    6.8410    2.0200   22.1897 H   0  0  0  0  0  0  0  0  0  0  0  0
    8.2140    2.9019   22.8842 H   0  0  0  0  0  0  0  0  0  0  0  0
    6.2497    0.7072   24.5013 C   0  0  0  0  0  0  0  0  0  0  0  0
    5.4144    0.7325   23.7974 H   0  0  0  0  0  0  0  0  0  0  0  0
    9.4595    1.7013   24.9027 H   0  0  0  0  0  0  0  0  0  0  0  0
    7.1766   -0.5063   27.5235 H   0  0  0  0  0  0  0  0  0  0  0  0
    4.9587   -1.4149   26.8603 H   0  0  0  0  0  0  0  0  0  0  0  0
    4.0964    0.0909   26.5324 H   0  0  0  0  0  0  0  0  0  0  0  0
    4.3237   -1.0919   25.2444 H   0  0  0  0  0  0  0  0  0  0  0  0
  1  2  1  0
  2  3  2  0
  3  4  1  0
  4  5  2  0
  5  6  1  0
  6  7  1  0
  7  8  1  0
  8  9  2  0
  9 10  1  0
 10 11  1  0
 11 12  2  0
 12 13  1  0
 13 14  2  0
 14 15  1  0
 15 16  2  0
 15 17  1  0
 14 18  1  0
 13 19  1  0
 12 20  1  0
 10 21  2  0
 21 22  1  0
 22 23  1  0
 23 24  1  0
 24 25  2  0
 25 26  1  0
 26 27  2  0
 27 28  1  0
 28 29  2  0
 29 30  1  0
 27 31  1  0
 26 32  1  0
 25 33  1  0
 23 34  1  0
 23 35  1  0
  7 36  1  0
  7 37  1  0
  6 38  2  0
 38 39  1  0
  5 40  1  0
  3 41  1  0
  1 42  1  0
  1 43  1  0
  1 44  1  0
 38  2  1  0
 22  8  1  0
 29 24  1  0
 16 11  1  0
M  END
>  <cnnaffinity>  (1) 
-6.52595

>  <filename>  (1) 
Cc1cncc(Cc2nc(-c3ccccn3)nn2Cc2cccnc2)c1

$$$$
