
     RDKit          3D

 47 50  0  0  0  0  0  0  0  0999 V2000
    7.3752    0.5169   25.1323 C   0  0  0  0  0  0  0  0  0  0  0  0
    7.9075    1.9305   25.0994 C   0  0  0  0  0  0  0  0  0  0  0  0
    8.3688    2.5297   26.2833 C   0  0  0  0  0  0  0  0  0  0  0  0
    8.8965    3.7567   26.3658 N   0  0  0  0  0  0  0  0  0  0  0  0
    9.0093    4.4506   25.2305 C   0  0  0  0  0  0  0  0  0  0  0  0
    8.5933    3.9577   23.9924 C   0  0  0  0  0  0  0  0  0  0  0  0
    8.0188    2.6867   23.9144 C   0  0  0  0  0  0  0  0  0  0  0  0
    7.6792    2.0925   22.5564 C   0  0  0  0  0  0  0  0  0  0  0  0
    8.5711    0.9282   22.2459 C   0  0  0  0  0  0  0  0  0  0  0  0
    9.8692    0.9354   22.4879 N   0  0  0  0  0  0  0  0  0  0  0  0
   10.2624   -0.3169   22.1714 C   0  0  0  0  0  0  0  0  0  0  0  0
   11.6767   -0.7335   22.0780 C   0  0  0  0  0  0  0  0  0  0  0  0
   11.9037   -1.8580   21.2721 C   0  0  0  0  0  0  0  0  0  0  0  0
   13.1294   -2.0516   20.6604 C   0  0  0  0  0  0  0  0  0  0  0  0
   14.1582   -1.1631   20.9071 C   0  0  0  0  0  0  0  0  0  0  0  0
   15.2218   -1.1765   19.9636 N   0  0  0  0  0  0  0  0  0  0  0  0
   15.4240   -0.2153   19.6810 H   0  0  0  0  0  0  0  0  0  0  0  0
   16.0571   -1.4371   20.4734 H   0  0  0  0  0  0  0  0  0  0  0  0
   14.0280   -0.2060   21.9283 C   0  0  0  0  0  0  0  0  0  0  0  0
   12.7758    0.0381   22.5046 C   0  0  0  0  0  0  0  0  0  0  0  0
   12.6596    0.8397   23.2344 H   0  0  0  0  0  0  0  0  0  0  0  0
   14.8678    0.4388   22.1580 H   0  0  0  0  0  0  0  0  0  0  0  0
   13.2919   -2.8016   19.8918 H   0  0  0  0  0  0  0  0  0  0  0  0
   11.0398   -2.4751   21.0717 H   0  0  0  0  0  0  0  0  0  0  0  0
    9.2711   -1.0908   21.7349 N   0  0  0  0  0  0  0  0  0  0  0  0
    8.1949   -0.2784   21.7482 N   0  0  0  0  0  0  0  0  0  0  0  0
    6.9372   -0.7452   21.1516 C   0  0  0  0  0  0  0  0  0  0  0  0
    6.4358    0.0661   19.9685 C   0  0  0  0  0  0  0  0  0  0  0  0
    5.1950    0.7137   19.9813 C   0  0  0  0  0  0  0  0  0  0  0  0
    4.7785    1.4062   18.8416 C   0  0  0  0  0  0  0  0  0  0  0  0
    5.6141    1.4225   17.7238 C   0  0  0  0  0  0  0  0  0  0  0  0
    6.8036    0.8022   17.6869 N   0  0  0  0  0  0  0  0  0  0  0  0
    7.1985    0.1535   18.7901 C   0  0  0  0  0  0  0  0  0  0  0  0
    8.1693   -0.3408   18.7244 H   0  0  0  0  0  0  0  0  0  0  0  0
    5.3189    1.9496   16.8167 H   0  0  0  0  0  0  0  0  0  0  0  0
    3.8362    1.9397   18.8124 H   0  0  0  0  0  0  0  0  0  0  0  0
    4.5632    0.6772   20.8718 H   0  0  0  0  0  0  0  0  0  0  0  0
    7.1312   -1.7799   20.8474 H   0  0  0  0  0  0  0  0  0  0  0  0
    6.1678   -0.7867   21.9289 H   0  0  0  0  0  0  0  0  0  0  0  0
    6.6349    1.7706   22.5050 H   0  0  0  0  0  0  0  0  0  0  0  0
    7.8376    2.8485   21.7787 H   0  0  0  0  0  0  0  0  0  0  0  0
    8.7365    4.5530   23.0968 H   0  0  0  0  0  0  0  0  0  0  0  0
    9.4604    5.4379   25.3155 H   0  0  0  0  0  0  0  0  0  0  0  0
    8.3144    1.9666   27.2172 H   0  0  0  0  0  0  0  0  0  0  0  0
    7.4431    0.0949   26.1380 H   0  0  0  0  0  0  0  0  0  0  0  0
    7.9452   -0.1452   24.4740 H   0  0  0  0  0  0  0  0  0  0  0  0
    6.3289    0.4505   24.8182 H   0  0  0  0  0  0  0  0  0  0  0  0
  1  2  1  0
  2  3  2  0
  3  4  1  0
  4  5  2  0
  5  6  1  0
  6  7  2  0
  7  8  1  0
  8  9  1  0
  9 10  2  0
 10 11  1  0
 11 12  1  0
 12 13  2  0
 13 14  1  0
 14 15  2  0
 15 16  1  0
 16 17  1  0
 16 18  1  0
 15 19  1  0
 19 20  2  0
 20 21  1  0
 19 22  1  0
 14 23  1  0
 13 24  1  0
 11 25  2  0
 25 26  1  0
 26 27  1  0
 27 28  1  0
 28 29  2  0
 29 30  1  0
 30 31  2  0
 31 32  1  0
 32 33  2  0
 33 34  1  0
 31 35  1  0
 30 36  1  0
 29 37  1  0
 27 38  1  0
 27 39  1  0
  8 40  1  0
  8 41  1  0
  6 42  1  0
  5 43  1  0
  3 44  1  0
  1 45  1  0
  1 46  1  0
  1 47  1  0
  7  2  1  0
 26  9  1  0
 33 28  1  0
 20 12  1  0
M  END
>  <cnnaffinity>  (1) 
-6.69207

>  <filename>  (1) 
Cc1cnccc1Cc1nc(-c2ccc(N)cc2)nn1Cc1cccnc1

$$$$
