
     RDKit          3D

 43 46  0  0  0  0  0  0  0  0999 V2000
    5.5165   -0.8309   26.6513 C   0  0  0  0  0  0  0  0  0  0  0  0
    6.2641    0.2067   25.8755 C   0  0  0  0  0  0  0  0  0  0  0  0
    6.0839    0.6805   24.5958 C   0  0  0  0  0  0  0  0  0  0  0  0
    7.1735    1.5332   24.3358 C   0  0  0  0  0  0  0  0  0  0  0  0
    7.6151    2.0375   22.9979 C   0  0  0  0  0  0  0  0  0  0  0  0
    8.4933    0.9855   22.4163 C   0  0  0  0  0  0  0  0  0  0  0  0
    9.7983    1.0008   22.5668 N   0  0  0  0  0  0  0  0  0  0  0  0
   10.1831   -0.2244   22.1460 C   0  0  0  0  0  0  0  0  0  0  0  0
   11.5875   -0.6449   21.9576 C   0  0  0  0  0  0  0  0  0  0  0  0
   12.7210    0.0801   22.3847 C   0  0  0  0  0  0  0  0  0  0  0  0
   13.9878   -0.2272   21.8674 C   0  0  0  0  0  0  0  0  0  0  0  0
   14.0818   -1.2305   20.8957 C   0  0  0  0  0  0  0  0  0  0  0  0
   15.1588   -1.3461   20.1158 F   0  0  0  0  0  0  0  0  0  0  0  0
   13.0038   -2.0260   20.5585 C   0  0  0  0  0  0  0  0  0  0  0  0
   11.7764   -1.7644   21.1377 C   0  0  0  0  0  0  0  0  0  0  0  0
   10.9070   -2.3616   20.8821 H   0  0  0  0  0  0  0  0  0  0  0  0
   13.1209   -2.7928   19.8028 H   0  0  0  0  0  0  0  0  0  0  0  0
   14.8616    0.3588   22.1286 H   0  0  0  0  0  0  0  0  0  0  0  0
   12.6160    0.9272   23.0608 H   0  0  0  0  0  0  0  0  0  0  0  0
    9.1711   -0.9875   21.7380 N   0  0  0  0  0  0  0  0  0  0  0  0
    8.0841   -0.2013   21.9053 N   0  0  0  0  0  0  0  0  0  0  0  0
    6.8006   -0.6116   21.3231 C   0  0  0  0  0  0  0  0  0  0  0  0
    6.3695    0.1776   20.0955 C   0  0  0  0  0  0  0  0  0  0  0  0
    5.1546    0.8698   20.0416 C   0  0  0  0  0  0  0  0  0  0  0  0
    4.7783    1.4981   18.8521 C   0  0  0  0  0  0  0  0  0  0  0  0
    5.6370    1.4166   17.7552 C   0  0  0  0  0  0  0  0  0  0  0  0
    6.8186    0.7824   17.7877 N   0  0  0  0  0  0  0  0  0  0  0  0
    7.1700    0.1936   18.9379 C   0  0  0  0  0  0  0  0  0  0  0  0
    8.1345   -0.3122   18.9283 H   0  0  0  0  0  0  0  0  0  0  0  0
    5.3597    1.8626   16.8022 H   0  0  0  0  0  0  0  0  0  0  0  0
    3.8421    2.0374   18.7635 H   0  0  0  0  0  0  0  0  0  0  0  0
    4.5041    0.9149   20.9161 H   0  0  0  0  0  0  0  0  0  0  0  0
    6.9296   -1.6707   21.0821 H   0  0  0  0  0  0  0  0  0  0  0  0
    6.0305   -0.5633   22.0986 H   0  0  0  0  0  0  0  0  0  0  0  0
    8.2127    2.9433   23.1041 H   0  0  0  0  0  0  0  0  0  0  0  0
    6.7646    2.2192   22.3416 H   0  0  0  0  0  0  0  0  0  0  0  0
    7.9452    1.6509   25.4045 N   0  0  0  0  0  0  0  0  0  0  0  0
    7.3740    0.8470   26.3180 N   0  0  0  0  0  0  0  0  0  0  0  0
    7.8484    0.7051   27.1953 H   0  0  0  0  0  0  0  0  0  0  0  0
    5.2573    0.4723   23.9380 H   0  0  0  0  0  0  0  0  0  0  0  0
    5.7151   -0.7647   27.7255 H   0  0  0  0  0  0  0  0  0  0  0  0
    4.4442   -0.7040   26.4813 H   0  0  0  0  0  0  0  0  0  0  0  0
    5.7819   -1.8398   26.3118 H   0  0  0  0  0  0  0  0  0  0  0  0
  1  2  1  0
  2  3  2  0
  3  4  1  0
  4  5  1  0
  5  6  1  0
  6  7  2  0
  7  8  1  0
  8  9  1  0
  9 10  2  0
 10 11  1  0
 11 12  2  0
 12 13  1  0
 12 14  1  0
 14 15  2  0
 15 16  1  0
 14 17  1  0
 11 18  1  0
 10 19  1  0
  8 20  2  0
 20 21  1  0
 21 22  1  0
 22 23  1  0
 23 24  2  0
 24 25  1  0
 25 26  2  0
 26 27  1  0
 27 28  2  0
 28 29  1  0
 26 30  1  0
 25 31  1  0
 24 32  1  0
 22 33  1  0
 22 34  1  0
  5 35  1  0
  5 36  1  0
  4 37  2  0
 37 38  1  0
 38 39  1  0
  3 40  1  0
  1 41  1  0
  1 42  1  0
  1 43  1  0
 38  2  1  0
 21  6  1  0
 28 23  1  0
 15  9  1  0
M  END
>  <cnnaffinity>  (1) 
-6.45602

>  <filename>  (1) 
Cc1cc(Cc2nc(-c3ccc(F)cc3)nn2Cc2cccnc2)n[nH]1

$$$$
