
     RDKit          3D

 42 45  0  0  0  0  0  0  0  0999 V2000
    8.3335   -0.4837   27.3912 C   0  0  0  0  0  0  0  0  0  0  0  0
    7.8650    0.1049   26.0969 C   0  0  0  0  0  0  0  0  0  0  0  0
    8.4126    1.0152   25.2187 C   0  0  0  0  0  0  0  0  0  0  0  0
    7.4991    1.1058   24.1473 C   0  0  0  0  0  0  0  0  0  0  0  0
    7.6716    1.8275   22.8452 C   0  0  0  0  0  0  0  0  0  0  0  0
    8.6914    1.0785   22.0533 C   0  0  0  0  0  0  0  0  0  0  0  0
    9.9855    1.2546   22.2144 N   0  0  0  0  0  0  0  0  0  0  0  0
   10.5333    0.1301   21.6729 C   0  0  0  0  0  0  0  0  0  0  0  0
   11.9775   -0.2399   21.8962 C   0  0  0  0  0  0  0  0  0  0  0  0
   12.8077    0.5313   22.7393 C   0  0  0  0  0  0  0  0  0  0  0  0
   14.0851    0.0656   23.0495 C   0  0  0  0  0  0  0  0  0  0  0  0
   14.5924   -1.0908   22.6059 N   0  0  0  0  0  0  0  0  0  0  0  0
   13.8314   -1.8021   21.7645 C   0  0  0  0  0  0  0  0  0  0  0  0
   12.5427   -1.4255   21.3761 C   0  0  0  0  0  0  0  0  0  0  0  0
   11.9747   -2.0422   20.6903 H   0  0  0  0  0  0  0  0  0  0  0  0
   14.2788   -2.7182   21.3893 H   0  0  0  0  0  0  0  0  0  0  0  0
   14.7242    0.6708   23.6833 H   0  0  0  0  0  0  0  0  0  0  0  0
   12.4644    1.4637   23.1758 H   0  0  0  0  0  0  0  0  0  0  0  0
    9.6398   -0.6759   21.1128 N   0  0  0  0  0  0  0  0  0  0  0  0
    8.4590   -0.0691   21.3842 N   0  0  0  0  0  0  0  0  0  0  0  0
    7.1857   -0.6887   21.0176 C   0  0  0  0  0  0  0  0  0  0  0  0
    6.4662    0.0254   19.8950 C   0  0  0  0  0  0  0  0  0  0  0  0
    5.2400    0.6854   20.0495 C   0  0  0  0  0  0  0  0  0  0  0  0
    4.7003    1.3643   18.9535 C   0  0  0  0  0  0  0  0  0  0  0  0
    5.3995    1.3504   17.7437 C   0  0  0  0  0  0  0  0  0  0  0  0
    6.5620    0.7021   17.5695 N   0  0  0  0  0  0  0  0  0  0  0  0
    7.0705    0.0644   18.6284 C   0  0  0  0  0  0  0  0  0  0  0  0
    8.0163   -0.4546   18.4726 H   0  0  0  0  0  0  0  0  0  0  0  0
    5.0099    1.8745   16.8731 H   0  0  0  0  0  0  0  0  0  0  0  0
    3.7683    1.9143   19.0261 H   0  0  0  0  0  0  0  0  0  0  0  0
    4.7181    0.6842   21.0107 H   0  0  0  0  0  0  0  0  0  0  0  0
    7.4276   -1.7184   20.7363 H   0  0  0  0  0  0  0  0  0  0  0  0
    6.5604   -0.7281   21.9161 H   0  0  0  0  0  0  0  0  0  0  0  0
    6.7110    1.8905   22.3319 H   0  0  0  0  0  0  0  0  0  0  0  0
    8.0547    2.8354   23.0082 H   0  0  0  0  0  0  0  0  0  0  0  0
    6.4599    0.3083   24.3342 N   0  0  0  0  0  0  0  0  0  0  0  0
    6.6988   -0.2722   25.5234 N   0  0  0  0  0  0  0  0  0  0  0  0
    6.0462   -0.9550   25.8799 H   0  0  0  0  0  0  0  0  0  0  0  0
    9.3737    1.5073   25.2656 H   0  0  0  0  0  0  0  0  0  0  0  0
    7.4873   -0.6704   28.0599 H   0  0  0  0  0  0  0  0  0  0  0  0
    8.8589   -1.4324   27.2331 H   0  0  0  0  0  0  0  0  0  0  0  0
    9.0235    0.1927   27.8965 H   0  0  0  0  0  0  0  0  0  0  0  0
  1  2  1  0
  2  3  2  0
  3  4  1  0
  4  5  1  0
  5  6  1  0
  6  7  2  0
  7  8  1  0
  8  9  1  0
  9 10  2  0
 10 11  1  0
 11 12  2  0
 12 13  1  0
 13 14  2  0
 14 15  1  0
 13 16  1  0
 11 17  1  0
 10 18  1  0
  8 19  2  0
 19 20  1  0
 20 21  1  0
 21 22  1  0
 22 23  2  0
 23 24  1  0
 24 25  2  0
 25 26  1  0
 26 27  2  0
 27 28  1  0
 25 29  1  0
 24 30  1  0
 23 31  1  0
 21 32  1  0
 21 33  1  0
  5 34  1  0
  5 35  1  0
  4 36  2  0
 36 37  1  0
 37 38  1  0
  3 39  1  0
  1 40  1  0
  1 41  1  0
  1 42  1  0
 37  2  1  0
 20  6  1  0
 27 22  1  0
 14  9  1  0
M  END
>  <cnnaffinity>  (1) 
-6.41824

>  <filename>  (1) 
Cc1cc(Cc2nc(-c3ccncc3)nn2Cc2cccnc2)n[nH]1

$$$$
