
     RDKit          3D

 47 50  0  0  0  0  0  0  0  0999 V2000
    9.6033    2.4139   21.3384 C   0  0  0  0  0  0  0  0  0  0  0  0
    9.6021    2.2213   22.8389 C   0  0  0  0  0  0  0  0  0  0  0  0
   10.7739    2.4742   23.5659 C   0  0  0  0  0  0  0  0  0  0  0  0
   10.8632    2.1472   24.9164 C   0  0  0  0  0  0  0  0  0  0  0  0
    9.7620    1.5965   25.5722 C   0  0  0  0  0  0  0  0  0  0  0  0
    8.5517    1.3885   24.9029 C   0  0  0  0  0  0  0  0  0  0  0  0
    7.4056    0.7580   25.6655 C   0  0  0  0  0  0  0  0  0  0  0  0
    6.4962    1.3689   25.6527 H   0  0  0  0  0  0  0  0  0  0  0  0
    7.1594   -0.2154   25.2308 H   0  0  0  0  0  0  0  0  0  0  0  0
    7.6776    0.5948   26.7127 H   0  0  0  0  0  0  0  0  0  0  0  0
    8.4738    1.7022   23.5243 C   0  0  0  0  0  0  0  0  0  0  0  0
    7.2663    1.2177   22.7269 C   0  0  0  0  0  0  0  0  0  0  0  0
    7.5337   -0.1628   22.1966 C   0  0  0  0  0  0  0  0  0  0  0  0
    8.1000   -1.1187   22.9032 N   0  0  0  0  0  0  0  0  0  0  0  0
    8.2803   -2.1129   22.0050 C   0  0  0  0  0  0  0  0  0  0  0  0
    8.9383   -3.3763   22.4321 C   0  0  0  0  0  0  0  0  0  0  0  0
    8.2554   -4.1087   23.6059 C   0  0  0  0  0  0  0  0  0  0  0  0
    9.4109   -4.8325   24.2970 C   0  0  0  0  0  0  0  0  0  0  0  0
   10.5861   -4.1063   23.9836 O   0  0  0  0  0  0  0  0  0  0  0  0
   10.3447   -3.1047   23.0130 C   0  0  0  0  0  0  0  0  0  0  0  0
   10.3856   -2.1173   23.4979 H   0  0  0  0  0  0  0  0  0  0  0  0
   11.1431   -3.1242   22.2609 H   0  0  0  0  0  0  0  0  0  0  0  0
    9.4972   -5.8757   23.9626 H   0  0  0  0  0  0  0  0  0  0  0  0
    9.3033   -4.8595   25.3879 H   0  0  0  0  0  0  0  0  0  0  0  0
    7.4771   -4.8028   23.2764 H   0  0  0  0  0  0  0  0  0  0  0  0
    7.8102   -3.3734   24.2842 H   0  0  0  0  0  0  0  0  0  0  0  0
    8.9354   -4.0126   21.5498 H   0  0  0  0  0  0  0  0  0  0  0  0
    7.8580   -1.8564   20.7875 N   0  0  0  0  0  0  0  0  0  0  0  0
    7.3260   -0.6087   20.9215 N   0  0  0  0  0  0  0  0  0  0  0  0
    6.6198    0.0134   19.8657 C   0  0  0  0  0  0  0  0  0  0  0  0
    5.4009    0.6620   20.1046 C   0  0  0  0  0  0  0  0  0  0  0  0
    4.7921    1.3206   19.0368 C   0  0  0  0  0  0  0  0  0  0  0  0
    5.4122    1.3023   17.7842 C   0  0  0  0  0  0  0  0  0  0  0  0
    6.5643    0.6503   17.5434 N   0  0  0  0  0  0  0  0  0  0  0  0
    7.1454    0.0102   18.5628 C   0  0  0  0  0  0  0  0  0  0  0  0
    8.0753   -0.5150   18.3554 H   0  0  0  0  0  0  0  0  0  0  0  0
    4.9645    1.8227   16.9417 H   0  0  0  0  0  0  0  0  0  0  0  0
    3.8622    1.8587   19.1792 H   0  0  0  0  0  0  0  0  0  0  0  0
    4.9518    0.6523   21.0984 H   0  0  0  0  0  0  0  0  0  0  0  0
    7.0287    1.9033   21.9114 H   0  0  0  0  0  0  0  0  0  0  0  0
    6.3662    1.1647   23.3516 H   0  0  0  0  0  0  0  0  0  0  0  0
    9.8428    1.2610   26.6006 H   0  0  0  0  0  0  0  0  0  0  0  0
   11.7973    2.3119   25.4375 H   0  0  0  0  0  0  0  0  0  0  0  0
   11.6491    2.8754   23.0569 H   0  0  0  0  0  0  0  0  0  0  0  0
    8.8318    3.1270   21.0321 H   0  0  0  0  0  0  0  0  0  0  0  0
    9.4044    1.4687   20.8170 H   0  0  0  0  0  0  0  0  0  0  0  0
   10.5719    2.7897   20.9934 H   0  0  0  0  0  0  0  0  0  0  0  0
  1  2  1  0
  2  3  2  0
  3  4  1  0
  4  5  2  0
  5  6  1  0
  6  7  1  0
  7  8  1  0
  7  9  1  0
  7 10  1  0
  6 11  2  0
 11 12  1  0
 12 13  1  0
 13 14  2  0
 14 15  1  0
 15 16  1  0
 16 17  1  0
 17 18  1  0
 18 19  1  0
 19 20  1  0
 20 21  1  0
 20 22  1  0
 18 23  1  0
 18 24  1  0
 17 25  1  0
 17 26  1  0
 16 27  1  0
 15 28  2  0
 28 29  1  0
 29 30  1  0
 30 31  2  0
 31 32  1  0
 32 33  2  0
 33 34  1  0
 34 35  2  0
 35 36  1  0
 33 37  1  0
 32 38  1  0
 31 39  1  0
 12 40  1  0
 12 41  1  0
  5 42  1  0
  4 43  1  0
  3 44  1  0
  1 45  1  0
  1 46  1  0
  1 47  1  0
 11  2  1  0
 29 13  1  0
 35 30  1  0
 20 16  1  0
M  END
>  <cnnaffinity>  (1) 
-6.48073

>  <filename>  (1) 
Cc1cccc(C)c1Cc1nc(C2CCOC2)nn1-c1cccnc1

$$$$
