
     RDKit          3D

 41 44  0  0  0  0  0  0  0  0999 V2000
    7.5094   -4.4247   21.4633 C   0  0  0  0  0  0  0  0  0  0  0  0
    8.3172   -4.6959   22.7179 C   0  0  0  0  0  0  0  0  0  0  0  0
    8.0418   -5.8795   23.4344 C   0  0  0  0  0  0  0  0  0  0  0  0
    8.6088   -6.2416   24.5857 N   0  0  0  0  0  0  0  0  0  0  0  0
    9.5234   -5.4095   25.0912 C   0  0  0  0  0  0  0  0  0  0  0  0
    9.9005   -4.2215   24.4704 C   0  0  0  0  0  0  0  0  0  0  0  0
    9.3108   -3.8477   23.2563 C   0  0  0  0  0  0  0  0  0  0  0  0
    9.7705   -2.5624   22.5632 C   0  0  0  0  0  0  0  0  0  0  0  0
    8.6799   -1.6351   22.1144 C   0  0  0  0  0  0  0  0  0  0  0  0
    8.4404   -1.1980   20.8945 N   0  0  0  0  0  0  0  0  0  0  0  0
    7.2585   -0.5308   21.0282 C   0  0  0  0  0  0  0  0  0  0  0  0
    6.5832    0.0918   19.8888 C   0  0  0  0  0  0  0  0  0  0  0  0
    5.3552    0.7651   20.0167 C   0  0  0  0  0  0  0  0  0  0  0  0
    4.8176    1.3691   18.8831 C   0  0  0  0  0  0  0  0  0  0  0  0
    5.5131    1.2726   17.6708 C   0  0  0  0  0  0  0  0  0  0  0  0
    6.6710    0.6071   17.5333 N   0  0  0  0  0  0  0  0  0  0  0  0
    7.1887    0.0306   18.6257 C   0  0  0  0  0  0  0  0  0  0  0  0
    8.1276   -0.5052   18.4910 H   0  0  0  0  0  0  0  0  0  0  0  0
    5.1186    1.7515   16.7754 H   0  0  0  0  0  0  0  0  0  0  0  0
    3.8883    1.9277   18.9285 H   0  0  0  0  0  0  0  0  0  0  0  0
    4.8528    0.8142   20.9859 H   0  0  0  0  0  0  0  0  0  0  0  0
    6.7651   -0.5312   22.2544 N   0  0  0  0  0  0  0  0  0  0  0  0
    7.7144   -1.1889   22.9629 N   0  0  0  0  0  0  0  0  0  0  0  0
    7.5434   -1.5270   24.3368 C   0  0  0  0  0  0  0  0  0  0  0  0
    8.5271   -1.2637   25.3006 C   0  0  0  0  0  0  0  0  0  0  0  0
    8.4158   -1.8938   26.5421 C   0  0  0  0  0  0  0  0  0  0  0  0
    7.3065   -2.7111   26.7864 C   0  0  0  0  0  0  0  0  0  0  0  0
    6.3034   -2.8679   25.9060 N   0  0  0  0  0  0  0  0  0  0  0  0
    6.4157   -2.2685   24.7165 C   0  0  0  0  0  0  0  0  0  0  0  0
    5.5969   -2.3983   24.0102 H   0  0  0  0  0  0  0  0  0  0  0  0
    7.2089   -3.2560   27.7220 H   0  0  0  0  0  0  0  0  0  0  0  0
    9.1873   -1.7765   27.2977 H   0  0  0  0  0  0  0  0  0  0  0  0
    9.3648   -0.5970   25.0885 H   0  0  0  0  0  0  0  0  0  0  0  0
   10.3740   -2.7897   21.6825 H   0  0  0  0  0  0  0  0  0  0  0  0
   10.4243   -1.9992   23.2377 H   0  0  0  0  0  0  0  0  0  0  0  0
   10.6295   -3.5814   24.9559 H   0  0  0  0  0  0  0  0  0  0  0  0
    9.9731   -5.7129   26.0335 H   0  0  0  0  0  0  0  0  0  0  0  0
    7.3052   -6.5747   23.0346 H   0  0  0  0  0  0  0  0  0  0  0  0
    7.9963   -3.6910   20.8210 H   0  0  0  0  0  0  0  0  0  0  0  0
    7.3658   -5.3366   20.8704 H   0  0  0  0  0  0  0  0  0  0  0  0
    6.5022   -4.0362   21.6806 H   0  0  0  0  0  0  0  0  0  0  0  0
  1  2  1  0
  2  3  2  0
  3  4  1  0
  4  5  2  0
  5  6  1  0
  6  7  2  0
  7  8  1  0
  8  9  1  0
  9 10  2  0
 10 11  1  0
 11 12  1  0
 12 13  2  0
 13 14  1  0
 14 15  2  0
 15 16  1  0
 16 17  2  0
 17 18  1  0
 15 19  1  0
 14 20  1  0
 13 21  1  0
 11 22  2  0
 22 23  1  0
 23 24  1  0
 24 25  2  0
 25 26  1  0
 26 27  2  0
 27 28  1  0
 28 29  2  0
 29 30  1  0
 27 31  1  0
 26 32  1  0
 25 33  1  0
  8 34  1  0
  8 35  1  0
  6 36  1  0
  5 37  1  0
  3 38  1  0
  1 39  1  0
  1 40  1  0
  1 41  1  0
  7  2  1  0
 23  9  1  0
 29 24  1  0
 17 12  1  0
M  END
>  <cnnaffinity>  (1) 
-6.29531

>  <filename>  (1) 
Cc1cnccc1Cc1nc(-c2cccnc2)nn1-c1cccnc1

$$$$
