
     RDKit          3D

 50 53  0  0  0  0  0  0  0  0999 V2000
    8.3146    2.6391   22.0622 C   0  0  0  0  0  0  0  0  0  0  0  0
    9.6558    2.1725   22.5659 C   0  0  0  0  0  0  0  0  0  0  0  0
   10.2867    2.8831   23.5960 C   0  0  0  0  0  0  0  0  0  0  0  0
   11.5592    2.5294   24.0512 C   0  0  0  0  0  0  0  0  0  0  0  0
   12.2309    1.4539   23.4725 C   0  0  0  0  0  0  0  0  0  0  0  0
   11.6034    0.7315   22.4490 C   0  0  0  0  0  0  0  0  0  0  0  0
   10.3209    1.0670   21.9974 C   0  0  0  0  0  0  0  0  0  0  0  0
    9.6519    0.2127   20.9280 C   0  0  0  0  0  0  0  0  0  0  0  0
    8.5512   -0.6547   21.4581 C   0  0  0  0  0  0  0  0  0  0  0  0
    8.7656   -1.5172   22.4304 N   0  0  0  0  0  0  0  0  0  0  0  0
    7.5913   -2.1808   22.5374 C   0  0  0  0  0  0  0  0  0  0  0  0
    7.5038   -3.2015   23.6485 C   0  0  0  0  0  0  0  0  0  0  0  0
    7.5120   -2.4223   25.0168 C   0  0  0  0  0  0  0  0  0  0  0  0
    6.7190   -3.1571   26.0822 N   0  0  0  0  0  4  0  0  0  0  0  0
    7.4465   -4.3695   26.6108 C   0  0  0  0  0  0  0  0  0  0  0  0
    6.8995   -4.8067   27.4528 H   0  0  0  0  0  0  0  0  0  0  0  0
    7.5336   -5.1309   25.8293 H   0  0  0  0  0  0  0  0  0  0  0  0
    8.4518   -4.1061   26.9533 H   0  0  0  0  0  0  0  0  0  0  0  0
    5.3116   -3.5218   25.5791 C   0  0  0  0  0  0  0  0  0  0  0  0
    5.2244   -3.6945   24.0515 C   0  0  0  0  0  0  0  0  0  0  0  0
    6.4570   -4.1614   23.5180 O   0  0  0  0  0  0  0  0  0  0  0  0
    4.9715   -2.7554   23.5539 H   0  0  0  0  0  0  0  0  0  0  0  0
    4.4659   -4.4391   23.8028 H   0  0  0  0  0  0  0  0  0  0  0  0
    4.6027   -2.7639   25.9257 H   0  0  0  0  0  0  0  0  0  0  0  0
    5.0532   -4.4714   26.0508 H   0  0  0  0  0  0  0  0  0  0  0  0
    6.5929   -2.4981   26.8760 H   0  0  0  0  0  0  0  0  0  0  0  0
    7.0675   -1.4265   24.8981 H   0  0  0  0  0  0  0  0  0  0  0  0
    8.5524   -2.2845   25.3437 H   0  0  0  0  0  0  0  0  0  0  0  0
    8.4324   -3.7718   23.5867 H   0  0  0  0  0  0  0  0  0  0  0  0
    6.6473   -1.7781   21.7077 N   0  0  0  0  0  0  0  0  0  0  0  0
    7.2700   -0.8045   20.9869 N   0  0  0  0  0  0  0  0  0  0  0  0
    6.5705   -0.1300   19.9319 C   0  0  0  0  0  0  0  0  0  0  0  0
    5.3765    0.5594   20.1752 C   0  0  0  0  0  0  0  0  0  0  0  0
    4.8161    1.2962   19.1230 C   0  0  0  0  0  0  0  0  0  0  0  0
    5.4386    1.2813   17.8686 C   0  0  0  0  0  0  0  0  0  0  0  0
    6.5459    0.5668   17.6128 N   0  0  0  0  0  0  0  0  0  0  0  0
    7.0871   -0.1249   18.6222 C   0  0  0  0  0  0  0  0  0  0  0  0
    7.9804   -0.7045   18.3869 H   0  0  0  0  0  0  0  0  0  0  0  0
    5.0341    1.8604   17.0399 H   0  0  0  0  0  0  0  0  0  0  0  0
    3.9171    1.8887   19.2632 H   0  0  0  0  0  0  0  0  0  0  0  0
    4.9112    0.5210   21.1621 H   0  0  0  0  0  0  0  0  0  0  0  0
    9.2912    0.8260   20.1023 H   0  0  0  0  0  0  0  0  0  0  0  0
   10.3894   -0.4819   20.5170 H   0  0  0  0  0  0  0  0  0  0  0  0
   12.1142   -0.1094   21.9868 H   0  0  0  0  0  0  0  0  0  0  0  0
   13.2305    1.1831   23.8038 H   0  0  0  0  0  0  0  0  0  0  0  0
   12.0097    3.1082   24.8468 H   0  0  0  0  0  0  0  0  0  0  0  0
    9.7760    3.7453   24.0195 H   0  0  0  0  0  0  0  0  0  0  0  0
    8.3779    2.9105   21.0059 H   0  0  0  0  0  0  0  0  0  0  0  0
    7.5412    1.8702   22.1446 H   0  0  0  0  0  0  0  0  0  0  0  0
    7.9647    3.5170   22.6077 H   0  0  0  0  0  0  0  0  0  0  0  0
  1  2  1  0
  2  3  2  0
  3  4  1  0
  4  5  2  0
  5  6  1  0
  6  7  2  0
  7  8  1  0
  8  9  1  0
  9 10  2  0
 10 11  1  0
 11 12  1  0
 12 13  1  0
 13 14  1  0
 14 15  1  0
 15 16  1  0
 15 17  1  0
 15 18  1  0
 14 19  1  0
 19 20  1  0
 20 21  1  0
 20 22  1  0
 20 23  1  0
 19 24  1  0
 19 25  1  0
 14 26  1  0
 13 27  1  0
 13 28  1  0
 12 29  1  0
 11 30  2  0
 30 31  1  0
 31 32  1  0
 32 33  2  0
 33 34  1  0
 34 35  2  0
 35 36  1  0
 36 37  2  0
 37 38  1  0
 35 39  1  0
 34 40  1  0
 33 41  1  0
  8 42  1  0
  8 43  1  0
  6 44  1  0
  5 45  1  0
  4 46  1  0
  3 47  1  0
  1 48  1  0
  1 49  1  0
  1 50  1  0
  7  2  1  0
 31  9  1  0
 37 32  1  0
 21 12  1  0
M  CHG  1  14   1
M  END
>  <cnnaffinity>  (1) 
-5.97691

>  <filename>  (1) 
Cc1ccccc1Cc1nc(C2C[NH+](C)CCO2)nn1-c1cccnc1

$$$$
