
     RDKit          3D

 46 49  0  0  0  0  0  0  0  0999 V2000
   12.6212    1.3992   23.4548 C   0  0  0  0  0  0  0  0  0  0  0  0
   12.7949    0.2898   22.4426 C   0  0  0  0  0  0  0  0  0  0  0  0
   14.0796   -0.1284   22.0549 C   0  0  0  0  0  0  0  0  0  0  0  0
   14.2603   -1.2033   21.1750 C   0  0  0  0  0  0  0  0  0  0  0  0
   13.1723   -1.9418   20.7469 C   0  0  0  0  0  0  0  0  0  0  0  0
   11.8997   -1.5648   21.1250 C   0  0  0  0  0  0  0  0  0  0  0  0
   11.6924   -0.3879   21.8583 C   0  0  0  0  0  0  0  0  0  0  0  0
   10.2989    0.0810   21.9199 C   0  0  0  0  0  0  0  0  0  0  0  0
    9.3344   -0.6431   21.3656 N   0  0  0  0  0  0  0  0  0  0  0  0
    8.2096    0.0176   21.6819 N   0  0  0  0  0  0  0  0  0  0  0  0
    6.9229   -0.5258   21.2612 C   0  0  0  0  0  0  0  0  0  0  0  0
    6.3449    0.1778   20.0546 C   0  0  0  0  0  0  0  0  0  0  0  0
    5.1158    0.8412   20.0566 C   0  0  0  0  0  0  0  0  0  0  0  0
    4.6988    1.4812   18.8855 C   0  0  0  0  0  0  0  0  0  0  0  0
    5.5152    1.4074   17.7543 C   0  0  0  0  0  0  0  0  0  0  0  0
    6.6897    0.7597   17.7242 N   0  0  0  0  0  0  0  0  0  0  0  0
    7.0878    0.1799   18.8610 C   0  0  0  0  0  0  0  0  0  0  0  0
    8.0565   -0.3166   18.8438 H   0  0  0  0  0  0  0  0  0  0  0  0
    5.2157    1.8819   16.8237 H   0  0  0  0  0  0  0  0  0  0  0  0
    3.7737    2.0445   18.8391 H   0  0  0  0  0  0  0  0  0  0  0  0
    4.4947    0.8694   20.9541 H   0  0  0  0  0  0  0  0  0  0  0  0
    7.1276   -1.5773   21.0312 H   0  0  0  0  0  0  0  0  0  0  0  0
    6.2337   -0.5035   22.1104 H   0  0  0  0  0  0  0  0  0  0  0  0
    8.5291    1.1416   22.3525 C   0  0  0  0  0  0  0  0  0  0  0  0
    7.4985    1.9771   23.0646 C   0  0  0  0  0  0  0  0  0  0  0  0
    7.1332    1.3390   24.3954 C   0  0  0  0  0  0  0  0  0  0  0  0
    8.0297    1.1737   25.4212 C   0  0  0  0  0  0  0  0  0  0  0  0
    7.4770    0.3036   26.3127 N   0  0  0  0  0  0  0  0  0  0  0  0
    8.0767   -0.2903   27.4681 C   0  0  0  0  0  0  0  0  0  0  0  0
    9.3577   -0.6684   27.2003 F   0  0  0  0  0  0  0  0  0  0  0  0
    8.1395    0.5998   28.4896 F   0  0  0  0  0  0  0  0  0  0  0  0
    7.4678   -1.1559   27.7340 H   0  0  0  0  0  0  0  0  0  0  0  0
    6.2305   -0.0569   25.9403 N   0  0  0  0  0  0  0  0  0  0  0  0
    6.0104    0.5693   24.7960 C   0  0  0  0  0  0  0  0  0  0  0  0
    5.0466    0.4573   24.3102 H   0  0  0  0  0  0  0  0  0  0  0  0
    9.0302    1.5683   25.5485 H   0  0  0  0  0  0  0  0  0  0  0  0
    7.9388    2.9683   23.2193 H   0  0  0  0  0  0  0  0  0  0  0  0
    6.6223    2.1070   22.4181 H   0  0  0  0  0  0  0  0  0  0  0  0
    9.8401    1.2187   22.5075 N   0  0  0  0  0  0  0  0  0  0  0  0
   11.0361   -2.1563   20.8429 H   0  0  0  0  0  0  0  0  0  0  0  0
   13.3203   -2.7791   20.0785 H   0  0  0  0  0  0  0  0  0  0  0  0
   15.2007   -1.4886   20.7381 H   0  0  0  0  0  0  0  0  0  0  0  0
   14.9328    0.4091   22.4578 H   0  0  0  0  0  0  0  0  0  0  0  0
   13.5750    1.6964   23.9016 H   0  0  0  0  0  0  0  0  0  0  0  0
   11.9522    1.0791   24.2621 H   0  0  0  0  0  0  0  0  0  0  0  0
   12.1609    2.2853   23.0077 H   0  0  0  0  0  0  0  0  0  0  0  0
  1  2  1  0
  2  3  2  0
  3  4  1  0
  4  5  2  0
  5  6  1  0
  6  7  2  0
  7  8  1  0
  8  9  2  0
  9 10  1  0
 10 11  1  0
 11 12  1  0
 12 13  2  0
 13 14  1  0
 14 15  2  0
 15 16  1  0
 16 17  2  0
 17 18  1  0
 15 19  1  0
 14 20  1  0
 13 21  1  0
 11 22  1  0
 11 23  1  0
 10 24  1  0
 24 25  1  0
 25 26  1  0
 26 27  2  0
 27 28  1  0
 28 29  1  0
 29 30  1  0
 29 31  1  0
 29 32  1  0
 28 33  1  0
 33 34  2  0
 34 35  1  0
 27 36  1  0
 25 37  1  0
 25 38  1  0
 24 39  2  0
  6 40  1  0
  5 41  1  0
  4 42  1  0
  3 43  1  0
  1 44  1  0
  1 45  1  0
  1 46  1  0
  7  2  1  0
 39  8  1  0
 17 12  1  0
 34 26  1  0
M  END
>  <cnnaffinity>  (1) 
-6.77232

>  <filename>  (1) 
Cc1ccccc1-c1nc(Cc2cnn(C(F)F)c2)n(Cc2cccnc2)n1

$$$$
