
     RDKit          3D

 43 46  0  0  0  0  0  0  0  0999 V2000
    5.0583   -0.9878   26.6579 C   0  0  0  0  0  0  0  0  0  0  0  0
    5.6623    0.1646   25.9056 C   0  0  0  0  0  0  0  0  0  0  0  0
    5.3644    0.6049   24.6370 C   0  0  0  0  0  0  0  0  0  0  0  0
    6.2939    1.5269   24.2823 N   0  0  0  0  0  0  0  0  0  0  0  0
    6.6732    1.8679   22.9173 C   0  0  0  0  0  0  0  0  0  0  0  0
    7.7668    0.9649   22.4253 C   0  0  0  0  0  0  0  0  0  0  0  0
    9.0351    1.1984   22.6682 N   0  0  0  0  0  0  0  0  0  0  0  0
    9.6693    0.0762   22.2346 C   0  0  0  0  0  0  0  0  0  0  0  0
   11.1455   -0.0740   22.3458 C   0  0  0  0  0  0  0  0  0  0  0  0
   11.8571   -1.1086   21.6950 C   0  0  0  0  0  0  0  0  0  0  0  0
   13.2374   -1.1693   21.8543 C   0  0  0  0  0  0  0  0  0  0  0  0
   13.9238   -2.1297   21.2171 F   0  0  0  0  0  0  0  0  0  0  0  0
   13.9449   -0.2627   22.6389 C   0  0  0  0  0  0  0  0  0  0  0  0
   13.2406    0.7574   23.2816 C   0  0  0  0  0  0  0  0  0  0  0  0
   11.8577    0.8590   23.1319 C   0  0  0  0  0  0  0  0  0  0  0  0
   11.3056    1.6536   23.6308 H   0  0  0  0  0  0  0  0  0  0  0  0
   13.7645    1.4749   23.9068 H   0  0  0  0  0  0  0  0  0  0  0  0
   15.0126   -0.3827   22.7579 H   0  0  0  0  0  0  0  0  0  0  0  0
   11.3808   -1.8756   21.0873 H   0  0  0  0  0  0  0  0  0  0  0  0
    8.8473   -0.8239   21.7181 N   0  0  0  0  0  0  0  0  0  0  0  0
    7.6291   -0.2501   21.8397 N   0  0  0  0  0  0  0  0  0  0  0  0
    6.4939   -0.8381   21.1289 C   0  0  0  0  0  0  0  0  0  0  0  0
    6.0729   -0.0522   19.9047 C   0  0  0  0  0  0  0  0  0  0  0  0
    4.8654    0.6460   19.8186 C   0  0  0  0  0  0  0  0  0  0  0  0
    4.6223    1.4304   18.6855 C   0  0  0  0  0  0  0  0  0  0  0  0
    5.5861    1.4662   17.6762 C   0  0  0  0  0  0  0  0  0  0  0  0
    6.7190    0.7504   17.7085 N   0  0  0  0  0  0  0  0  0  0  0  0
    6.9475    0.0192   18.8059 C   0  0  0  0  0  0  0  0  0  0  0  0
    7.8799   -0.5432   18.8210 H   0  0  0  0  0  0  0  0  0  0  0  0
    5.4401    2.0850   16.7928 H   0  0  0  0  0  0  0  0  0  0  0  0
    3.7202    2.0200   18.5785 H   0  0  0  0  0  0  0  0  0  0  0  0
    4.1287    0.5825   20.6210 H   0  0  0  0  0  0  0  0  0  0  0  0
    6.8186   -1.8438   20.8426 H   0  0  0  0  0  0  0  0  0  0  0  0
    5.6726   -0.9522   21.8348 H   0  0  0  0  0  0  0  0  0  0  0  0
    7.0678    2.8835   22.9343 H   0  0  0  0  0  0  0  0  0  0  0  0
    5.7815    1.8320   22.2855 H   0  0  0  0  0  0  0  0  0  0  0  0
    7.1305    1.7930   25.2948 N   0  0  0  0  0  0  0  0  0  0  0  0
    6.7584    0.9849   26.2740 C   0  0  0  0  0  0  0  0  0  0  0  0
    7.2945    1.0129   27.2177 H   0  0  0  0  0  0  0  0  0  0  0  0
    4.5173    0.4413   23.9880 H   0  0  0  0  0  0  0  0  0  0  0  0
    3.9650   -0.9439   26.6661 H   0  0  0  0  0  0  0  0  0  0  0  0
    5.3404   -1.9481   26.2055 H   0  0  0  0  0  0  0  0  0  0  0  0
    5.3991   -1.0128   27.6973 H   0  0  0  0  0  0  0  0  0  0  0  0
  1  2  1  0
  2  3  2  0
  3  4  1  0
  4  5  1  0
  5  6  1  0
  6  7  2  0
  7  8  1  0
  8  9  1  0
  9 10  2  0
 10 11  1  0
 11 12  1  0
 11 13  2  0
 13 14  1  0
 14 15  2  0
 15 16  1  0
 14 17  1  0
 13 18  1  0
 10 19  1  0
  8 20  2  0
 20 21  1  0
 21 22  1  0
 22 23  1  0
 23 24  2  0
 24 25  1  0
 25 26  2  0
 26 27  1  0
 27 28  2  0
 28 29  1  0
 26 30  1  0
 25 31  1  0
 24 32  1  0
 22 33  1  0
 22 34  1  0
  5 35  1  0
  5 36  1  0
  4 37  1  0
 37 38  2  0
 38 39  1  0
  3 40  1  0
  1 41  1  0
  1 42  1  0
  1 43  1  0
 38  2  1  0
 21  6  1  0
 28 23  1  0
 15  9  1  0
M  END
>  <cnnaffinity>  (1) 
-6.23298

>  <filename>  (1) 
Cc1cnn(Cc2nc(-c3cccc(F)c3)nn2Cc2cccnc2)c1

$$$$
