
     RDKit          3D

 46 49  0  0  0  0  0  0  0  0999 V2000
   13.9149    0.9292   23.5474 C   0  0  0  0  0  0  0  0  0  0  0  0
   12.8887    0.1642   22.7468 C   0  0  0  0  0  0  0  0  0  0  0  0
   11.5337    0.4944   22.8005 C   0  0  0  0  0  0  0  0  0  0  0  0
   10.5641   -0.1868   22.0432 C   0  0  0  0  0  0  0  0  0  0  0  0
    9.1567    0.2346   22.0987 C   0  0  0  0  0  0  0  0  0  0  0  0
    8.1743   -0.4101   21.4882 N   0  0  0  0  0  0  0  0  0  0  0  0
    7.0709    0.2967   21.8262 N   0  0  0  0  0  0  0  0  0  0  0  0
    5.7859   -0.0504   21.2164 C   0  0  0  0  0  0  0  0  0  0  0  0
    5.5662    0.5032   19.8168 C   0  0  0  0  0  0  0  0  0  0  0  0
    4.5098    1.3659   19.5020 C   0  0  0  0  0  0  0  0  0  0  0  0
    4.4248    1.8838   18.2074 C   0  0  0  0  0  0  0  0  0  0  0  0
    5.3999    1.5250   17.2753 C   0  0  0  0  0  0  0  0  0  0  0  0
    6.3919    0.6611   17.5373 N   0  0  0  0  0  0  0  0  0  0  0  0
    6.4519    0.1620   18.7775 C   0  0  0  0  0  0  0  0  0  0  0  0
    7.2546   -0.5475   18.9732 H   0  0  0  0  0  0  0  0  0  0  0  0
    5.3875    1.9424   16.2710 H   0  0  0  0  0  0  0  0  0  0  0  0
    3.6297    2.5636   17.9182 H   0  0  0  0  0  0  0  0  0  0  0  0
    3.7699    1.6510   20.2518 H   0  0  0  0  0  0  0  0  0  0  0  0
    4.9948    0.3032   21.8799 H   0  0  0  0  0  0  0  0  0  0  0  0
    5.7371   -1.1444   21.2110 H   0  0  0  0  0  0  0  0  0  0  0  0
    7.4336    1.3152   22.6428 C   0  0  0  0  0  0  0  0  0  0  0  0
    6.5101    2.1800   23.4538 C   0  0  0  0  0  0  0  0  0  0  0  0
    6.2777    1.6107   24.8522 C   0  0  0  0  0  0  0  0  0  0  0  0
    7.2394    1.7676   25.8094 C   0  0  0  0  0  0  0  0  0  0  0  0
    7.1002    1.1570   27.0275 N   0  0  0  0  0  0  0  0  0  0  0  0
    6.0389    0.3305   27.3937 C   0  0  0  0  0  0  0  0  0  0  0  0
    6.0487   -0.1612   28.5074 O   0  0  0  0  0  0  0  0  0  0  0  0
    5.0291    0.1505   26.3603 C   0  0  0  0  0  0  0  0  0  0  0  0
    5.1479    0.7731   25.1518 C   0  0  0  0  0  0  0  0  0  0  0  0
    4.3794    0.6237   24.3917 H   0  0  0  0  0  0  0  0  0  0  0  0
    4.2340   -0.5348   26.6155 H   0  0  0  0  0  0  0  0  0  0  0  0
    7.7955    1.1449   27.7609 H   0  0  0  0  0  0  0  0  0  0  0  0
    8.1495    2.3389   25.6247 H   0  0  0  0  0  0  0  0  0  0  0  0
    6.9988    3.1587   23.5108 H   0  0  0  0  0  0  0  0  0  0  0  0
    5.5638    2.3434   22.9310 H   0  0  0  0  0  0  0  0  0  0  0  0
    8.7430    1.3216   22.7980 N   0  0  0  0  0  0  0  0  0  0  0  0
   10.9615   -1.2750   21.2472 C   0  0  0  0  0  0  0  0  0  0  0  0
   12.3096   -1.6100   21.1561 C   0  0  0  0  0  0  0  0  0  0  0  0
   13.2403   -0.9063   21.9112 C   0  0  0  0  0  0  0  0  0  0  0  0
   14.5287   -1.2750   21.8284 F   0  0  0  0  0  0  0  0  0  0  0  0
   12.6608   -2.3909   20.4940 H   0  0  0  0  0  0  0  0  0  0  0  0
   10.2116   -1.8408   20.6970 H   0  0  0  0  0  0  0  0  0  0  0  0
   11.2138    1.2940   23.4674 H   0  0  0  0  0  0  0  0  0  0  0  0
   14.3770    0.2972   24.3117 H   0  0  0  0  0  0  0  0  0  0  0  0
   13.4493    1.7797   24.0550 H   0  0  0  0  0  0  0  0  0  0  0  0
   14.7219    1.3242   22.9214 H   0  0  0  0  0  0  0  0  0  0  0  0
  1  2  1  0
  2  3  2  0
  3  4  1  0
  4  5  1  0
  5  6  2  0
  6  7  1  0
  7  8  1  0
  8  9  1  0
  9 10  2  0
 10 11  1  0
 11 12  2  0
 12 13  1  0
 13 14  2  0
 14 15  1  0
 12 16  1  0
 11 17  1  0
 10 18  1  0
  8 19  1  0
  8 20  1  0
  7 21  1  0
 21 22  1  0
 22 23  1  0
 23 24  2  0
 24 25  1  0
 25 26  1  0
 26 27  2  0
 26 28  1  0
 28 29  2  0
 29 30  1  0
 28 31  1  0
 25 32  1  0
 24 33  1  0
 22 34  1  0
 22 35  1  0
 21 36  2  0
  4 37  2  0
 37 38  1  0
 38 39  2  0
 39 40  1  0
 38 41  1  0
 37 42  1  0
  3 43  1  0
  1 44  1  0
  1 45  1  0
  1 46  1  0
 39  2  1  0
 36  5  1  0
 14  9  1  0
 29 23  1  0
M  END
>  <cnnaffinity>  (1) 
-6.58477

>  <filename>  (1) 
Cc1cc(-c2nc(Cc3ccc(=O)[nH]c3)n(Cc3cccnc3)n2)ccc1F

$$$$
