
     RDKit          3D

 38 40  0  0  0  0  0  0  0  0999 V2000
    4.9300    1.7989   16.9884 H   0  0  0  0  0  0  0  0  0  0  0  0
    5.3978    1.2982   17.8333 C   0  0  0  0  0  0  0  0  0  0  0  0
    6.5578    0.6714   17.5817 N   0  0  0  0  0  0  0  0  0  0  0  0
    7.1725    0.0663   18.6091 C   0  0  0  0  0  0  0  0  0  0  0  0
    8.1145   -0.4243   18.3716 H   0  0  0  0  0  0  0  0  0  0  0  0
    6.6824    0.0415   19.9365 C   0  0  0  0  0  0  0  0  0  0  0  0
    7.3922   -0.6134   20.9802 N   0  0  0  0  0  0  0  0  0  0  0  0
    7.3502   -0.3461   22.3495 C   0  0  0  0  0  0  0  0  0  0  0  0
    6.9760    0.9156   22.7541 N   0  0  0  0  0  0  0  0  0  0  0  0
    7.7118    2.0767   22.2488 C   0  0  0  0  0  0  0  0  0  0  0  0
    8.6207    2.2617   22.8513 H   0  0  0  0  0  0  0  0  0  0  0  0
    8.0440    1.8937   21.2210 H   0  0  0  0  0  0  0  0  0  0  0  0
    6.8014    3.3078   22.2835 C   0  0  0  0  0  0  0  0  0  0  0  0
    6.0026    3.1377   21.5451 H   0  0  0  0  0  0  0  0  0  0  0  0
    7.3685    4.1911   21.9632 H   0  0  0  0  0  0  0  0  0  0  0  0
    6.1791    3.5601   23.6746 C   0  0  0  0  0  0  0  0  0  0  0  0
    5.3911    4.3193   23.5533 H   0  0  0  0  0  0  0  0  0  0  0  0
    7.1896    4.1205   24.6922 C   0  0  0  0  0  0  0  0  0  0  0  0
    6.7073    4.3200   25.6577 H   0  0  0  0  0  0  0  0  0  0  0  0
    7.6283    5.0612   24.3371 H   0  0  0  0  0  0  0  0  0  0  0  0
    8.0160    3.4257   24.8812 H   0  0  0  0  0  0  0  0  0  0  0  0
    5.5099    2.2580   24.1640 C   0  0  0  0  0  0  0  0  0  0  0  0
    4.6428    2.0358   23.5227 H   0  0  0  0  0  0  0  0  0  0  0  0
    5.1409    2.3816   25.1893 H   0  0  0  0  0  0  0  0  0  0  0  0
    6.4486    1.0466   24.1047 C   0  0  0  0  0  0  0  0  0  0  0  0
    5.9020    0.1286   24.3474 H   0  0  0  0  0  0  0  0  0  0  0  0
    7.2684    1.1307   24.8408 H   0  0  0  0  0  0  0  0  0  0  0  0
    7.6807   -1.3078   23.1274 N   0  0  0  0  0  0  0  0  0  0  0  0
    8.0202   -2.4574   22.2923 C   0  0  0  0  0  0  0  0  0  0  0  0
    7.3659   -3.3103   22.5324 H   0  0  0  0  0  0  0  0  0  0  0  0
    9.0533   -2.7952   22.4690 H   0  0  0  0  0  0  0  0  0  0  0  0
    7.8358   -1.9944   20.8299 C   0  0  0  0  0  0  0  0  0  0  0  0
    7.0790   -2.5808   20.2920 H   0  0  0  0  0  0  0  0  0  0  0  0
    8.7677   -2.0268   20.2522 H   0  0  0  0  0  0  0  0  0  0  0  0
    5.4527    0.6742   20.1659 C   0  0  0  0  0  0  0  0  0  0  0  0
    5.0261    0.6393   21.1659 H   0  0  0  0  0  0  0  0  0  0  0  0
    4.8099    1.3170   19.1022 C   0  0  0  0  0  0  0  0  0  0  0  0
    3.8693    1.8384   19.2424 H   0  0  0  0  0  0  0  0  0  0  0  0
  1  2  1  0
  2  3  2  0
  3  4  1  0
  4  5  1  0
  4  6  2  0
  6  7  1  0
  7  8  1  0
  8  9  1  0
  9 10  1  0
 10 11  1  0
 10 12  1  0
 10 13  1  0
 13 14  1  0
 13 15  1  0
 13 16  1  0
 16 17  1  0
 16 18  1  0
 18 19  1  0
 18 20  1  0
 18 21  1  0
 16 22  1  0
 22 23  1  0
 22 24  1  0
 22 25  1  0
 25 26  1  0
 25 27  1  0
  8 28  2  0
 28 29  1  0
 29 30  1  0
 29 31  1  0
 29 32  1  0
 32 33  1  0
 32 34  1  0
  6 35  1  0
 35 36  1  0
 35 37  2  0
 37 38  1  0
 37  2  1  0
 32  7  1  0
 25  9  1  0
M  END
>  <cnnaffinity>  (1) 
-4.84123

>  <filename>  (1) 
CC1CCN(C2=NCCN2c2cccnc2)CC1

$$$$
