
     RDKit          3D

 43 46  0  0  0  0  0  0  0  0999 V2000
    8.3508    2.7554   22.0732 C   0  0  0  0  0  0  0  0  0  0  0  0
    9.7065    2.2550   22.5110 C   0  0  0  0  0  0  0  0  0  0  0  0
   10.3677    2.8911   23.5678 C   0  0  0  0  0  0  0  0  0  0  0  0
   11.6108    2.4380   24.0171 C   0  0  0  0  0  0  0  0  0  0  0  0
   12.2195    1.3364   23.4184 C   0  0  0  0  0  0  0  0  0  0  0  0
   11.5726    0.6995   22.3554 C   0  0  0  0  0  0  0  0  0  0  0  0
   10.3361    1.1562   21.8870 C   0  0  0  0  0  0  0  0  0  0  0  0
    9.6201    0.3676   20.8083 C   0  0  0  0  0  0  0  0  0  0  0  0
    8.6067   -0.5707   21.3658 C   0  0  0  0  0  0  0  0  0  0  0  0
    8.8435   -1.4366   22.3251 N   0  0  0  0  0  0  0  0  0  0  0  0
    7.6312   -2.0183   22.5209 C   0  0  0  0  0  0  0  0  0  0  0  0
    7.4171   -3.0133   23.6042 C   0  0  0  0  0  0  0  0  0  0  0  0
    7.8126   -2.5420   25.0410 C   0  0  0  0  0  0  0  0  0  0  0  0
    8.8777   -3.6601   25.1107 C   0  0  0  0  0  0  0  0  0  0  0  0
    8.4762   -4.1534   23.7018 C   0  0  0  0  0  0  0  0  0  0  0  0
    8.0538   -5.1608   23.6701 H   0  0  0  0  0  0  0  0  0  0  0  0
    9.2680   -4.0905   22.9485 H   0  0  0  0  0  0  0  0  0  0  0  0
    9.9069   -3.2948   25.1808 H   0  0  0  0  0  0  0  0  0  0  0  0
    8.7315   -4.3875   25.9151 H   0  0  0  0  0  0  0  0  0  0  0  0
    8.2091   -1.5211   25.0786 H   0  0  0  0  0  0  0  0  0  0  0  0
    7.0097   -2.6213   25.7787 H   0  0  0  0  0  0  0  0  0  0  0  0
    6.3864   -3.3613   23.5198 H   0  0  0  0  0  0  0  0  0  0  0  0
    6.6787   -1.6020   21.7107 N   0  0  0  0  0  0  0  0  0  0  0  0
    7.3215   -0.6939   20.9289 N   0  0  0  0  0  0  0  0  0  0  0  0
    6.6431   -0.0014   19.8951 C   0  0  0  0  0  0  0  0  0  0  0  0
    5.4346    0.6472   20.1630 C   0  0  0  0  0  0  0  0  0  0  0  0
    4.8109    1.3152   19.1078 C   0  0  0  0  0  0  0  0  0  0  0  0
    5.3998    1.2975   17.8368 C   0  0  0  0  0  0  0  0  0  0  0  0
    6.5565    0.6718   17.5738 N   0  0  0  0  0  0  0  0  0  0  0  0
    7.1631    0.0469   18.5885 C   0  0  0  0  0  0  0  0  0  0  0  0
    8.1137   -0.4326   18.3646 H   0  0  0  0  0  0  0  0  0  0  0  0
    4.9193    1.7862   16.9932 H   0  0  0  0  0  0  0  0  0  0  0  0
    3.8786    1.8424   19.2603 H   0  0  0  0  0  0  0  0  0  0  0  0
    5.0140    0.6098   21.1717 H   0  0  0  0  0  0  0  0  0  0  0  0
   10.3143   -0.2886   20.2837 H   0  0  0  0  0  0  0  0  0  0  0  0
    9.1562    1.0427   20.0873 H   0  0  0  0  0  0  0  0  0  0  0  0
   12.0135   -0.1807   21.8897 H   0  0  0  0  0  0  0  0  0  0  0  0
   13.1825    0.9727   23.7677 H   0  0  0  0  0  0  0  0  0  0  0  0
   12.0827    2.9536   24.8392 H   0  0  0  0  0  0  0  0  0  0  0  0
    9.8940    3.7512   24.0379 H   0  0  0  0  0  0  0  0  0  0  0  0
    7.5845    1.9725   22.1116 H   0  0  0  0  0  0  0  0  0  0  0  0
    8.0089    3.5903   22.6895 H   0  0  0  0  0  0  0  0  0  0  0  0
    8.3903    3.1046   21.0409 H   0  0  0  0  0  0  0  0  0  0  0  0
  1  2  1  0
  2  3  2  0
  3  4  1  0
  4  5  2  0
  5  6  1  0
  6  7  2  0
  7  8  1  0
  8  9  1  0
  9 10  2  0
 10 11  1  0
 11 12  1  0
 12 13  1  0
 13 14  1  0
 14 15  1  0
 15 16  1  0
 15 17  1  0
 14 18  1  0
 14 19  1  0
 13 20  1  0
 13 21  1  0
 12 22  1  0
 11 23  2  0
 23 24  1  0
 24 25  1  0
 25 26  2  0
 26 27  1  0
 27 28  2  0
 28 29  1  0
 29 30  2  0
 30 31  1  0
 28 32  1  0
 27 33  1  0
 26 34  1  0
  8 35  1  0
  8 36  1  0
  6 37  1  0
  5 38  1  0
  4 39  1  0
  3 40  1  0
  1 41  1  0
  1 42  1  0
  1 43  1  0
  7  2  1  0
 24  9  1  0
 30 25  1  0
 15 12  1  0
M  END
>  <cnnaffinity>  (1) 
-6.195

>  <filename>  (1) 
Cc1ccccc1Cc1nc(C2CCC2)nn1-c1cccnc1

$$$$
