
     RDKit          3D

 48 51  0  0  0  0  0  0  0  0999 V2000
    5.3024   -5.3532   26.6846 C   0  0  0  0  0  0  0  0  0  0  0  0
    5.5848   -4.4066   25.5206 C   0  0  0  0  0  0  0  0  0  0  0  0
    6.3012   -3.1313   25.9920 C   0  0  0  0  0  0  0  0  0  0  0  0
    6.6100   -2.1771   24.8378 C   0  0  0  0  0  0  0  0  0  0  0  0
    7.4002   -2.8847   23.7092 C   0  0  0  0  0  0  0  0  0  0  0  0
    7.6704   -1.9464   22.5717 C   0  0  0  0  0  0  0  0  0  0  0  0
    6.7363   -1.5894   21.7087 N   0  0  0  0  0  0  0  0  0  0  0  0
    7.3669   -0.6746   20.9327 N   0  0  0  0  0  0  0  0  0  0  0  0
    6.6571    0.0006   19.8985 C   0  0  0  0  0  0  0  0  0  0  0  0
    5.4388    0.6379   20.1672 C   0  0  0  0  0  0  0  0  0  0  0  0
    4.8129    1.3085   19.1098 C   0  0  0  0  0  0  0  0  0  0  0  0
    5.4014    1.2958   17.8377 C   0  0  0  0  0  0  0  0  0  0  0  0
    6.5603    0.6734   17.5754 N   0  0  0  0  0  0  0  0  0  0  0  0
    7.1675    0.0519   18.5911 C   0  0  0  0  0  0  0  0  0  0  0  0
    8.1129   -0.4335   18.3671 H   0  0  0  0  0  0  0  0  0  0  0  0
    4.9193    1.7856   16.9934 H   0  0  0  0  0  0  0  0  0  0  0  0
    3.8802    1.8399   19.2609 H   0  0  0  0  0  0  0  0  0  0  0  0
    5.0177    0.6111   21.1769 H   0  0  0  0  0  0  0  0  0  0  0  0
    8.6411   -0.5186   21.3912 C   0  0  0  0  0  0  0  0  0  0  0  0
    9.5195    0.6047   20.9407 C   0  0  0  0  0  0  0  0  0  0  0  0
    9.0372    1.9994   21.4480 C   0  0  0  0  0  0  0  0  0  0  0  0
    8.9475    2.0699   22.9532 C   0  0  0  0  0  0  0  0  0  0  0  0
    7.8272    1.8934   23.6082 N   0  0  0  0  0  0  0  0  0  0  0  0
    8.1615    1.8624   24.9456 O   0  0  0  0  0  0  0  0  0  0  0  0
    9.4847    2.0367   25.0695 C   0  0  0  0  0  0  0  0  0  0  0  0
   10.0530    2.1694   23.8499 C   0  0  0  0  0  0  0  0  0  0  0  0
   11.0924    2.3050   23.6007 H   0  0  0  0  0  0  0  0  0  0  0  0
    9.8600    2.0697   26.0833 H   0  0  0  0  0  0  0  0  0  0  0  0
    8.0661    2.2463   21.0060 H   0  0  0  0  0  0  0  0  0  0  0  0
    9.7511    2.7587   21.1196 H   0  0  0  0  0  0  0  0  0  0  0  0
   10.5223    0.3838   21.3169 H   0  0  0  0  0  0  0  0  0  0  0  0
    9.5796    0.6118   19.8505 H   0  0  0  0  0  0  0  0  0  0  0  0
    8.8688   -1.3342   22.4042 N   0  0  0  0  0  0  0  0  0  0  0  0
    6.6873   -4.1684   23.2380 C   0  0  0  0  0  0  0  0  0  0  0  0
    6.3846   -5.1037   24.4089 C   0  0  0  0  0  0  0  0  0  0  0  0
    7.3282   -5.4804   24.8307 H   0  0  0  0  0  0  0  0  0  0  0  0
    5.8398   -5.9855   24.0487 H   0  0  0  0  0  0  0  0  0  0  0  0
    5.7529   -3.8794   22.7391 H   0  0  0  0  0  0  0  0  0  0  0  0
    7.2958   -4.6833   22.4847 H   0  0  0  0  0  0  0  0  0  0  0  0
    8.3837   -3.1510   24.1068 H   0  0  0  0  0  0  0  0  0  0  0  0
    7.1637   -1.3015   25.2001 H   0  0  0  0  0  0  0  0  0  0  0  0
    5.6712   -1.7973   24.4185 H   0  0  0  0  0  0  0  0  0  0  0  0
    5.6950   -2.6164   26.7484 H   0  0  0  0  0  0  0  0  0  0  0  0
    7.2380   -3.4123   26.4939 H   0  0  0  0  0  0  0  0  0  0  0  0
    4.6233   -4.0971   25.0846 H   0  0  0  0  0  0  0  0  0  0  0  0
    6.2411   -5.6833   27.1456 H   0  0  0  0  0  0  0  0  0  0  0  0
    4.7646   -6.2483   26.3533 H   0  0  0  0  0  0  0  0  0  0  0  0
    4.7056   -4.8651   27.4630 H   0  0  0  0  0  0  0  0  0  0  0  0
  1  2  1  0
  2  3  1  0
  3  4  1  0
  4  5  1  0
  5  6  1  0
  6  7  2  0
  7  8  1  0
  8  9  1  0
  9 10  2  0
 10 11  1  0
 11 12  2  0
 12 13  1  0
 13 14  2  0
 14 15  1  0
 12 16  1  0
 11 17  1  0
 10 18  1  0
  8 19  1  0
 19 20  1  0
 20 21  1  0
 21 22  1  0
 22 23  2  0
 23 24  1  0
 24 25  1  0
 25 26  2  0
 26 27  1  0
 25 28  1  0
 21 29  1  0
 21 30  1  0
 20 31  1  0
 20 32  1  0
 19 33  2  0
  5 34  1  0
 34 35  1  0
 35 36  1  0
 35 37  1  0
 34 38  1  0
 34 39  1  0
  5 40  1  0
  4 41  1  0
  4 42  1  0
  3 43  1  0
  3 44  1  0
  2 45  1  0
  1 46  1  0
  1 47  1  0
  1 48  1  0
 35  2  1  0
 33  6  1  0
 14  9  1  0
 26 22  1  0
M  END
>  <cnnaffinity>  (1) 
-5.91478

>  <filename>  (1) 
CC1CCC(c2nc(CCc3ccon3)n(-c3cccnc3)n2)CC1

$$$$
