
     RDKit          3D

 44 48  0  0  0  0  0  0  0  0999 V2000
    9.6338   -3.3305   25.0282 C   0  0  0  0  0  0  0  0  0  0  0  0
    8.2372   -3.8032   24.7468 C   0  0  0  0  0  0  0  0  0  0  0  0
    7.4145   -3.4327   23.7035 C   0  0  0  0  0  0  0  0  0  0  0  0
    7.6395   -2.4146   22.6871 C   0  0  0  0  0  0  0  0  0  0  0  0
    6.7806   -2.0325   21.7520 N   0  0  0  0  0  0  0  0  0  0  0  0
    7.4312   -1.0132   21.1390 N   0  0  0  0  0  0  0  0  0  0  0  0
    6.8116   -0.2794   20.0817 C   0  0  0  0  0  0  0  0  0  0  0  0
    5.6028    0.3926   20.2985 C   0  0  0  0  0  0  0  0  0  0  0  0
    5.0791    1.1610   19.2531 C   0  0  0  0  0  0  0  0  0  0  0  0
    5.7640    1.2086   18.0319 C   0  0  0  0  0  0  0  0  0  0  0  0
    6.9146    0.5512   17.8125 N   0  0  0  0  0  0  0  0  0  0  0  0
    7.4145   -0.1742   18.8186 C   0  0  0  0  0  0  0  0  0  0  0  0
    8.3403   -0.7121   18.6242 H   0  0  0  0  0  0  0  0  0  0  0  0
    5.3834    1.7903   17.1949 H   0  0  0  0  0  0  0  0  0  0  0  0
    4.1707    1.7441   19.3828 H   0  0  0  0  0  0  0  0  0  0  0  0
    5.1156    0.3216   21.2716 H   0  0  0  0  0  0  0  0  0  0  0  0
    8.6257   -0.8014   21.7675 C   0  0  0  0  0  0  0  0  0  0  0  0
    9.5646    0.3292   21.4789 C   0  0  0  0  0  0  0  0  0  0  0  0
    9.0426    1.6661   21.9106 C   0  0  0  0  0  0  0  0  0  0  0  0
    8.3444    2.5619   21.1546 C   0  0  0  0  0  0  0  0  0  0  0  0
    7.8800    3.5979   21.9107 N   0  0  0  0  0  0  0  0  0  0  0  0
    8.2848    3.3541   23.1357 C   0  0  0  0  0  0  0  0  0  0  0  0
    7.9674    4.2445   24.2683 C   0  0  0  0  0  0  0  0  0  0  0  0
    7.3303    3.7724   25.5587 C   0  0  0  0  0  0  0  0  0  0  0  0
    8.7347    4.3003   25.5665 C   0  0  0  0  0  0  0  0  0  0  0  0
    9.5386    3.5810   25.7127 H   0  0  0  0  0  0  0  0  0  0  0  0
    8.9307    5.2784   26.0013 H   0  0  0  0  0  0  0  0  0  0  0  0
    6.5182    4.3794   25.9558 H   0  0  0  0  0  0  0  0  0  0  0  0
    7.1832    2.7024   25.6945 H   0  0  0  0  0  0  0  0  0  0  0  0
    7.6039    5.1932   23.8827 H   0  0  0  0  0  0  0  0  0  0  0  0
    8.9922    2.1761   23.1935 N   0  0  0  0  0  0  0  0  0  0  0  0
    9.5893    1.9046   23.9579 H   0  0  0  0  0  0  0  0  0  0  0  0
    8.1845    2.4409   20.0932 H   0  0  0  0  0  0  0  0  0  0  0  0
   10.5235    0.0576   21.9280 H   0  0  0  0  0  0  0  0  0  0  0  0
    9.7390    0.3671   20.4011 H   0  0  0  0  0  0  0  0  0  0  0  0
    8.8009   -1.6892   22.7023 N   0  0  0  0  0  0  0  0  0  0  0  0
    6.2117   -4.0701   23.7967 O   0  0  0  0  0  0  0  0  0  0  0  0
    6.2554   -4.8253   24.9138 C   0  0  0  0  0  0  0  0  0  0  0  0
    7.4525   -4.7072   25.5320 C   0  0  0  0  0  0  0  0  0  0  0  0
    7.7449   -5.2019   26.4523 H   0  0  0  0  0  0  0  0  0  0  0  0
    5.3528   -5.3696   25.1484 H   0  0  0  0  0  0  0  0  0  0  0  0
   10.0778   -3.8553   25.8774 H   0  0  0  0  0  0  0  0  0  0  0  0
    9.6319   -2.2569   25.2402 H   0  0  0  0  0  0  0  0  0  0  0  0
   10.2700   -3.4680   24.1491 H   0  0  0  0  0  0  0  0  0  0  0  0
  1  2  1  0
  2  3  2  0
  3  4  1  0
  4  5  2  0
  5  6  1  0
  6  7  1  0
  7  8  2  0
  8  9  1  0
  9 10  2  0
 10 11  1  0
 11 12  2  0
 12 13  1  0
 10 14  1  0
  9 15  1  0
  8 16  1  0
  6 17  1  0
 17 18  1  0
 18 19  1  0
 19 20  2  0
 20 21  1  0
 21 22  2  0
 22 23  1  0
 23 24  1  0
 24 25  1  0
 25 26  1  0
 25 27  1  0
 24 28  1  0
 24 29  1  0
 23 30  1  0
 22 31  1  0
 31 32  1  0
 20 33  1  0
 18 34  1  0
 18 35  1  0
 17 36  2  0
  3 37  1  0
 37 38  1  0
 38 39  2  0
 39 40  1  0
 38 41  1  0
  1 42  1  0
  1 43  1  0
  1 44  1  0
 39  2  1  0
 36  4  1  0
 12  7  1  0
 31 19  1  0
 25 23  1  0
M  END
>  <cnnaffinity>  (1) 
-6.23615

>  <filename>  (1) 
Cc1ccoc1-c1nc(Cc2cnc(C3CC3)[nH]2)n(-c2cccnc2)n1

$$$$
