
     RDKit          3D

 40 43  0  0  0  0  0  0  0  0999 V2000
    7.8751    2.7129   22.0515 C   0  0  0  0  0  0  0  0  0  0  0  0
    9.2536    2.3459   22.5019 C   0  0  0  0  0  0  0  0  0  0  0  0
    9.9827    2.8504   23.5517 C   0  0  0  0  0  0  0  0  0  0  0  0
   11.1691    2.0896   23.5649 C   0  0  0  0  0  0  0  0  0  0  0  0
   11.1762    1.1882   22.5960 N   0  0  0  0  0  0  0  0  0  0  0  0
   10.0167    1.3674   21.9415 N   0  0  0  0  0  0  0  0  0  0  0  0
    9.6150    0.4389   20.9041 C   0  0  0  0  0  0  0  0  0  0  0  0
    8.6272   -0.5522   21.3978 C   0  0  0  0  0  0  0  0  0  0  0  0
    8.8616   -1.4161   22.3527 N   0  0  0  0  0  0  0  0  0  0  0  0
    7.6590   -2.0284   22.5233 C   0  0  0  0  0  0  0  0  0  0  0  0
    7.4258   -3.0533   23.5717 C   0  0  0  0  0  0  0  0  0  0  0  0
    6.1526   -3.6447   23.7038 C   0  0  0  0  0  0  0  0  0  0  0  0
    5.9619   -4.6022   24.6932 C   0  0  0  0  0  0  0  0  0  0  0  0
    4.7503   -5.1644   24.8100 F   0  0  0  0  0  0  0  0  0  0  0  0
    6.9728   -5.0018   25.5643 C   0  0  0  0  0  0  0  0  0  0  0  0
    8.2301   -4.4048   25.4283 C   0  0  0  0  0  0  0  0  0  0  0  0
    8.4655   -3.4382   24.4460 C   0  0  0  0  0  0  0  0  0  0  0  0
    9.4483   -2.9796   24.3553 H   0  0  0  0  0  0  0  0  0  0  0  0
    9.0317   -4.7011   26.0994 H   0  0  0  0  0  0  0  0  0  0  0  0
    6.7590   -5.7565   26.3185 H   0  0  0  0  0  0  0  0  0  0  0  0
    5.3213   -3.3655   23.0579 H   0  0  0  0  0  0  0  0  0  0  0  0
    6.7140   -1.6098   21.6960 N   0  0  0  0  0  0  0  0  0  0  0  0
    7.3484   -0.6897   20.9331 N   0  0  0  0  0  0  0  0  0  0  0  0
    6.6528   -0.0010   19.9003 C   0  0  0  0  0  0  0  0  0  0  0  0
    5.4386    0.6423   20.1676 C   0  0  0  0  0  0  0  0  0  0  0  0
    4.8137    1.3112   19.1090 C   0  0  0  0  0  0  0  0  0  0  0  0
    5.3997    1.2967   17.8365 C   0  0  0  0  0  0  0  0  0  0  0  0
    6.5557    0.6692   17.5719 N   0  0  0  0  0  0  0  0  0  0  0  0
    7.1634    0.0469   18.5896 C   0  0  0  0  0  0  0  0  0  0  0  0
    8.1103   -0.4358   18.3636 H   0  0  0  0  0  0  0  0  0  0  0  0
    4.9217    1.7888   16.9924 H   0  0  0  0  0  0  0  0  0  0  0  0
    3.8811    1.8391   19.2591 H   0  0  0  0  0  0  0  0  0  0  0  0
    5.0125    0.6062   21.1751 H   0  0  0  0  0  0  0  0  0  0  0  0
    9.2124    1.0049   20.0676 H   0  0  0  0  0  0  0  0  0  0  0  0
   10.5020   -0.1071   20.5976 H   0  0  0  0  0  0  0  0  0  0  0  0
   12.0062    2.1615   24.2460 H   0  0  0  0  0  0  0  0  0  0  0  0
    9.6772    3.6630   24.1957 H   0  0  0  0  0  0  0  0  0  0  0  0
    7.1276    1.9803   22.3771 H   0  0  0  0  0  0  0  0  0  0  0  0
    7.6054    3.6776   22.4842 H   0  0  0  0  0  0  0  0  0  0  0  0
    7.7965    2.7777   20.9660 H   0  0  0  0  0  0  0  0  0  0  0  0
  1  2  1  0
  2  3  2  0
  3  4  1  0
  4  5  2  0
  5  6  1  0
  6  7  1  0
  7  8  1  0
  8  9  2  0
  9 10  1  0
 10 11  1  0
 11 12  2  0
 12 13  1  0
 13 14  1  0
 13 15  2  0
 15 16  1  0
 16 17  2  0
 17 18  1  0
 16 19  1  0
 15 20  1  0
 12 21  1  0
 10 22  2  0
 22 23  1  0
 23 24  1  0
 24 25  2  0
 25 26  1  0
 26 27  2  0
 27 28  1  0
 28 29  2  0
 29 30  1  0
 27 31  1  0
 26 32  1  0
 25 33  1  0
  7 34  1  0
  7 35  1  0
  4 36  1  0
  3 37  1  0
  1 38  1  0
  1 39  1  0
  1 40  1  0
  6  2  1  0
 23  8  1  0
 29 24  1  0
 17 11  1  0
M  END
>  <cnnaffinity>  (1) 
-5.8945

>  <filename>  (1) 
Cc1ccnn1Cc1nc(-c2cccc(F)c2)nn1-c1cccnc1

$$$$
