
     RDKit          3D

 40 44  0  0  0  0  0  0  0  0999 V2000
    5.9615    2.4044   26.1735 C   0  0  0  0  0  0  0  0  0  0  0  0
    6.4805    2.3394   24.7572 C   0  0  0  0  0  0  0  0  0  0  0  0
    6.7566    1.1152   24.1615 C   0  0  0  0  0  0  0  0  0  0  0  0
    7.2239    1.0543   22.8395 C   0  0  0  0  0  0  0  0  0  0  0  0
    7.4985   -0.2454   22.2473 C   0  0  0  0  0  0  0  0  0  0  0  0
    8.0560   -1.2333   22.9244 N   0  0  0  0  0  0  0  0  0  0  0  0
    8.1817   -2.2004   21.9944 C   0  0  0  0  0  0  0  0  0  0  0  0
    8.8968   -3.4872   22.1885 C   0  0  0  0  0  0  0  0  0  0  0  0
    8.1706   -4.7608   21.8652 C   0  0  0  0  0  0  0  0  0  0  0  0
    8.7952   -4.6140   23.2719 C   0  0  0  0  0  0  0  0  0  0  0  0
    8.8676   -5.7909   24.2493 C   0  0  0  0  0  0  0  0  0  0  0  0
    9.7757   -4.6082   24.4183 C   0  0  0  0  0  0  0  0  0  0  0  0
   10.8472   -4.6946   24.2140 H   0  0  0  0  0  0  0  0  0  0  0  0
    9.5227   -3.9488   25.2466 H   0  0  0  0  0  0  0  0  0  0  0  0
    9.2814   -6.7248   23.8597 H   0  0  0  0  0  0  0  0  0  0  0  0
    8.0729   -5.9090   24.9822 H   0  0  0  0  0  0  0  0  0  0  0  0
    7.0799   -4.6690   21.8305 H   0  0  0  0  0  0  0  0  0  0  0  0
    8.5525   -5.5124   21.1661 H   0  0  0  0  0  0  0  0  0  0  0  0
    9.9322   -3.2857   21.9016 H   0  0  0  0  0  0  0  0  0  0  0  0
    7.7464   -1.8902   20.7837 N   0  0  0  0  0  0  0  0  0  0  0  0
    7.2793   -0.6271   20.9488 N   0  0  0  0  0  0  0  0  0  0  0  0
    6.5930    0.0298   19.8874 C   0  0  0  0  0  0  0  0  0  0  0  0
    5.3841    0.6954   20.1177 C   0  0  0  0  0  0  0  0  0  0  0  0
    4.7795    1.3431   19.0385 C   0  0  0  0  0  0  0  0  0  0  0  0
    5.4061    1.3115   17.7881 C   0  0  0  0  0  0  0  0  0  0  0  0
    6.5584    0.6596   17.5591 N   0  0  0  0  0  0  0  0  0  0  0  0
    7.1313    0.0225   18.5848 C   0  0  0  0  0  0  0  0  0  0  0  0
    8.0635   -0.4961   18.3796 H   0  0  0  0  0  0  0  0  0  0  0  0
    4.9639    1.8236   16.9365 H   0  0  0  0  0  0  0  0  0  0  0  0
    3.8427    1.8756   19.1582 H   0  0  0  0  0  0  0  0  0  0  0  0
    4.9459    0.7217   21.1178 H   0  0  0  0  0  0  0  0  0  0  0  0
    7.4570    2.2598   22.1668 C   0  0  0  0  0  0  0  0  0  0  0  0
    7.2101    3.4487   22.7147 N   0  0  0  0  0  0  0  0  0  0  0  0
    6.7350    3.4774   23.9498 C   0  0  0  0  0  0  0  0  0  0  0  0
    6.4250    5.0674   24.5860 Cl  0  0  0  0  0  0  0  0  0  0  0  0
    7.8458    2.2669   21.1487 H   0  0  0  0  0  0  0  0  0  0  0  0
    6.6139    0.1870   24.7245 H   0  0  0  0  0  0  0  0  0  0  0  0
    4.9814    2.8898   26.2210 H   0  0  0  0  0  0  0  0  0  0  0  0
    5.8559    1.3955   26.5849 H   0  0  0  0  0  0  0  0  0  0  0  0
    6.6428    2.9614   26.8249 H   0  0  0  0  0  0  0  0  0  0  0  0
  1  2  1  0
  2  3  2  0
  3  4  1  0
  4  5  1  0
  5  6  2  0
  6  7  1  0
  7  8  1  0
  8  9  1  0
  9 10  1  0
 10 11  1  0
 11 12  1  0
 12 13  1  0
 12 14  1  0
 11 15  1  0
 11 16  1  0
  9 17  1  0
  9 18  1  0
  8 19  1  0
  7 20  2  0
 20 21  1  0
 21 22  1  0
 22 23  2  0
 23 24  1  0
 24 25  2  0
 25 26  1  0
 26 27  2  0
 27 28  1  0
 25 29  1  0
 24 30  1  0
 23 31  1  0
  4 32  2  0
 32 33  1  0
 33 34  2  0
 34 35  1  0
 32 36  1  0
  3 37  1  0
  1 38  1  0
  1 39  1  0
  1 40  1  0
 34  2  1  0
 21  5  1  0
 27 22  1  0
 10  8  1  0
 12 10  1  0
M  END
>  <cnnaffinity>  (1) 
-6.2455

>  <filename>  (1) 
Cc1cc(-c2nc(C3CC34CC4)nn2-c2cccnc2)cnc1Cl

$$$$
