
     RDKit          3D

 46 49  0  0  0  0  0  0  0  0999 V2000
   14.0154    1.0051   23.7591 C   0  0  0  0  0  0  0  0  0  0  0  0
   13.1169    0.3415   22.7891 C   0  0  0  0  0  0  0  0  0  0  0  0
   13.3221   -0.9068   22.2907 C   0  0  0  0  0  0  0  0  0  0  0  0
   12.3778   -1.4957   21.4114 C   0  0  0  0  0  0  0  0  0  0  0  0
   11.2508   -0.8151   21.0762 C   0  0  0  0  0  0  0  0  0  0  0  0
   11.0822    0.4953   21.4589 N   0  0  0  0  0  0  0  0  0  0  0  0
    9.8723    1.2311   21.0659 C   0  0  0  0  0  0  0  0  0  0  0  0
    8.7745    1.1549   22.0842 C   0  0  0  0  0  0  0  0  0  0  0  0
    8.6937    1.8990   23.1629 N   0  0  0  0  0  0  0  0  0  0  0  0
    7.6435    1.3619   23.8357 C   0  0  0  0  0  0  0  0  0  0  0  0
    7.1900    1.8794   25.1454 C   0  0  0  0  0  0  0  0  0  0  0  0
    6.0185    1.3780   25.7501 C   0  0  0  0  0  0  0  0  0  0  0  0
    5.6366    1.8896   26.9834 C   0  0  0  0  0  0  0  0  0  0  0  0
    4.5184    1.4204   27.5604 F   0  0  0  0  0  0  0  0  0  0  0  0
    6.3721    2.8743   27.6394 C   0  0  0  0  0  0  0  0  0  0  0  0
    7.5363    3.3630   27.0351 C   0  0  0  0  0  0  0  0  0  0  0  0
    7.9514    2.8711   25.7971 C   0  0  0  0  0  0  0  0  0  0  0  0
    8.8625    3.2361   25.3239 H   0  0  0  0  0  0  0  0  0  0  0  0
    8.1229    4.1354   27.5246 H   0  0  0  0  0  0  0  0  0  0  0  0
    6.0189    3.2320   28.5994 H   0  0  0  0  0  0  0  0  0  0  0  0
    5.4203    0.5989   25.2833 H   0  0  0  0  0  0  0  0  0  0  0  0
    7.0764    0.3426   23.2126 N   0  0  0  0  0  0  0  0  0  0  0  0
    7.8167    0.2035   22.0929 N   0  0  0  0  0  0  0  0  0  0  0  0
    7.3814   -0.7046   21.0326 C   0  0  0  0  0  0  0  0  0  0  0  0
    6.6616   -0.0084   19.8797 C   0  0  0  0  0  0  0  0  0  0  0  0
    5.4485    0.6512   20.1234 C   0  0  0  0  0  0  0  0  0  0  0  0
    4.8028    1.3103   19.0723 C   0  0  0  0  0  0  0  0  0  0  0  0
    5.4050    1.2970   17.8104 C   0  0  0  0  0  0  0  0  0  0  0  0
    6.5587    0.6673   17.5473 N   0  0  0  0  0  0  0  0  0  0  0  0
    7.1648    0.0399   18.5666 C   0  0  0  0  0  0  0  0  0  0  0  0
    8.1058   -0.4464   18.3070 H   0  0  0  0  0  0  0  0  0  0  0  0
    4.9428    1.8205   16.9753 H   0  0  0  0  0  0  0  0  0  0  0  0
    3.8658    1.8436   19.2147 H   0  0  0  0  0  0  0  0  0  0  0  0
    5.0236    0.6613   21.1298 H   0  0  0  0  0  0  0  0  0  0  0  0
    8.2427   -1.2776   20.6706 H   0  0  0  0  0  0  0  0  0  0  0  0
    6.7194   -1.4139   21.5400 H   0  0  0  0  0  0  0  0  0  0  0  0
   10.1280    2.2881   20.9629 H   0  0  0  0  0  0  0  0  0  0  0  0
    9.5112    0.8585   20.1040 H   0  0  0  0  0  0  0  0  0  0  0  0
   11.9961    1.1528   22.3238 C   0  0  0  0  0  0  0  0  0  0  0  0
   11.8305    2.3258   22.6384 O   0  0  0  0  0  0  0  0  0  0  0  0
   10.4388   -1.2660   20.5063 H   0  0  0  0  0  0  0  0  0  0  0  0
   12.5656   -2.4674   20.9933 H   0  0  0  0  0  0  0  0  0  0  0  0
   14.2131   -1.4607   22.5892 H   0  0  0  0  0  0  0  0  0  0  0  0
   13.4737    1.3068   24.6609 H   0  0  0  0  0  0  0  0  0  0  0  0
   14.8374    0.3507   24.0423 H   0  0  0  0  0  0  0  0  0  0  0  0
   14.4047    1.9151   23.2983 H   0  0  0  0  0  0  0  0  0  0  0  0
  1  2  1  0
  2  3  2  0
  3  4  1  0
  4  5  2  0
  5  6  1  0
  6  7  1  0
  7  8  1  0
  8  9  2  0
  9 10  1  0
 10 11  1  0
 11 12  2  0
 12 13  1  0
 13 14  1  0
 13 15  2  0
 15 16  1  0
 16 17  2  0
 17 18  1  0
 16 19  1  0
 15 20  1  0
 12 21  1  0
 10 22  2  0
 22 23  1  0
 23 24  1  0
 24 25  1  0
 25 26  2  0
 26 27  1  0
 27 28  2  0
 28 29  1  0
 29 30  2  0
 30 31  1  0
 28 32  1  0
 27 33  1  0
 26 34  1  0
 24 35  1  0
 24 36  1  0
  7 37  1  0
  7 38  1  0
  6 39  1  0
 39 40  2  0
  5 41  1  0
  4 42  1  0
  3 43  1  0
  1 44  1  0
  1 45  1  0
  1 46  1  0
 39  2  1  0
 23  8  1  0
 30 25  1  0
 17 11  1  0
M  END
>  <cnnaffinity>  (1) 
-6.36274

>  <filename>  (1) 
Cc1cccn(Cc2nc(-c3cccc(F)c3)nn2Cc2cccnc2)c1=O

$$$$
