
     RDKit          3D

 41 44  0  0  0  0  0  0  0  0999 V2000
    8.4928    2.3130   21.3813 C   0  0  0  0  0  0  0  0  0  0  0  0
    7.4256    2.2713   22.4475 C   0  0  0  0  0  0  0  0  0  0  0  0
    6.9887    3.4653   23.0332 C   0  0  0  0  0  0  0  0  0  0  0  0
    6.1013    3.4263   24.1043 C   0  0  0  0  0  0  0  0  0  0  0  0
    5.6857    4.5833   24.6450 F   0  0  0  0  0  0  0  0  0  0  0  0
    5.6425    2.2301   24.6510 C   0  0  0  0  0  0  0  0  0  0  0  0
    6.0568    1.0418   24.0629 C   0  0  0  0  0  0  0  0  0  0  0  0
    6.8790    1.0504   22.9288 C   0  0  0  0  0  0  0  0  0  0  0  0
    7.2088   -0.2508   22.3227 C   0  0  0  0  0  0  0  0  0  0  0  0
    7.7230   -1.2547   23.0091 N   0  0  0  0  0  0  0  0  0  0  0  0
    8.1836   -2.0692   22.0375 C   0  0  0  0  0  0  0  0  0  0  0  0
    9.1236   -3.1979   22.3094 C   0  0  0  0  0  0  0  0  0  0  0  0
   10.4825   -2.6603   22.8791 C   0  0  0  0  0  0  0  0  0  0  0  0
   10.3780   -2.9674   24.3888 C   0  0  0  0  0  0  0  0  0  0  0  0
    9.0747   -3.4590   24.6091 O   0  0  0  0  0  0  0  0  0  0  0  0
    8.6505   -4.1164   23.4410 C   0  0  0  0  0  0  0  0  0  0  0  0
    7.5637   -4.2292   23.5041 H   0  0  0  0  0  0  0  0  0  0  0  0
    9.1029   -5.1252   23.3423 H   0  0  0  0  0  0  0  0  0  0  0  0
   10.4813   -2.0641   24.9922 H   0  0  0  0  0  0  0  0  0  0  0  0
   11.1374   -3.6955   24.7181 H   0  0  0  0  0  0  0  0  0  0  0  0
   11.3765   -3.1179   22.4441 H   0  0  0  0  0  0  0  0  0  0  0  0
   10.5752   -1.5778   22.7238 H   0  0  0  0  0  0  0  0  0  0  0  0
    9.1590   -3.6884   21.3449 H   0  0  0  0  0  0  0  0  0  0  0  0
    7.8854   -1.7095   20.8048 N   0  0  0  0  0  0  0  0  0  0  0  0
    7.2116   -0.5438   20.9854 N   0  0  0  0  0  0  0  0  0  0  0  0
    6.5567    0.0783   19.8873 C   0  0  0  0  0  0  0  0  0  0  0  0
    5.3673    0.7893   20.0773 C   0  0  0  0  0  0  0  0  0  0  0  0
    4.7867    1.3990   18.9660 C   0  0  0  0  0  0  0  0  0  0  0  0
    5.4169    1.2928   17.7213 C   0  0  0  0  0  0  0  0  0  0  0  0
    6.5502    0.5922   17.5313 N   0  0  0  0  0  0  0  0  0  0  0  0
    7.0957   -0.0181   18.5876 C   0  0  0  0  0  0  0  0  0  0  0  0
    8.0008   -0.5971   18.4023 H   0  0  0  0  0  0  0  0  0  0  0  0
    4.9912    1.7743   16.8454 H   0  0  0  0  0  0  0  0  0  0  0  0
    3.8638    1.9620   19.0593 H   0  0  0  0  0  0  0  0  0  0  0  0
    4.9321    0.8623   21.0763 H   0  0  0  0  0  0  0  0  0  0  0  0
    5.7672    0.0802   24.4854 H   0  0  0  0  0  0  0  0  0  0  0  0
    4.9917    2.2496   25.5219 H   0  0  0  0  0  0  0  0  0  0  0  0
    7.3542    4.4315   22.6843 H   0  0  0  0  0  0  0  0  0  0  0  0
    9.2300    1.5149   21.5102 H   0  0  0  0  0  0  0  0  0  0  0  0
    9.0211    3.2673   21.4062 H   0  0  0  0  0  0  0  0  0  0  0  0
    8.0597    2.2007   20.3865 H   0  0  0  0  0  0  0  0  0  0  0  0
  1  2  1  0
  2  3  2  0
  3  4  1  0
  4  5  1  0
  4  6  2  0
  6  7  1  0
  7  8  2  0
  8  9  1  0
  9 10  2  0
 10 11  1  0
 11 12  1  0
 12 13  1  0
 13 14  1  0
 14 15  1  0
 15 16  1  0
 16 17  1  0
 16 18  1  0
 14 19  1  0
 14 20  1  0
 13 21  1  0
 13 22  1  0
 12 23  1  0
 11 24  2  0
 24 25  1  0
 25 26  1  0
 26 27  2  0
 27 28  1  0
 28 29  2  0
 29 30  1  0
 30 31  2  0
 31 32  1  0
 29 33  1  0
 28 34  1  0
 27 35  1  0
  7 36  1  0
  6 37  1  0
  3 38  1  0
  1 39  1  0
  1 40  1  0
  1 41  1  0
  8  2  1  0
 25  9  1  0
 31 26  1  0
 16 12  1  0
M  END
>  <cnnaffinity>  (1) 
-5.76737

>  <filename>  (1) 
Cc1cc(F)ccc1-c1nc(C2CCOC2)nn1-c1cccnc1

$$$$
