
     RDKit          3D

 48 51  0  0  0  0  0  0  0  0999 V2000
   11.2572    2.7454   23.3132 C   0  0  0  0  0  0  0  0  0  0  0  0
    9.8854    2.3413   23.8112 C   0  0  0  0  0  0  0  0  0  0  0  0
    9.6479    2.1635   25.1795 C   0  0  0  0  0  0  0  0  0  0  0  0
    8.3418    1.9597   25.6330 C   0  0  0  0  0  0  0  0  0  0  0  0
    7.3384    1.8279   24.6795 C   0  0  0  0  0  0  0  0  0  0  0  0
    7.5388    1.9227   23.3586 N   0  0  0  0  0  0  0  0  0  0  0  0
    8.7943    2.1357   22.9264 C   0  0  0  0  0  0  0  0  0  0  0  0
    9.0022    2.0244   21.4244 C   0  0  0  0  0  0  0  0  0  0  0  0
    9.5112    0.6264   20.9537 C   0  0  0  0  0  0  0  0  0  0  0  0
    8.6492   -0.5262   21.3687 C   0  0  0  0  0  0  0  0  0  0  0  0
    8.9061   -1.3914   22.3332 N   0  0  0  0  0  0  0  0  0  0  0  0
    7.6926   -1.9634   22.5691 C   0  0  0  0  0  0  0  0  0  0  0  0
    7.4025   -2.8967   23.7177 C   0  0  0  0  0  0  0  0  0  0  0  0
    7.0865   -2.1466   25.0399 C   0  0  0  0  0  0  0  0  0  0  0  0
    8.4575   -1.8876   25.6846 C   0  0  0  0  0  0  0  0  0  0  0  0
    9.3885   -3.0138   25.1824 C   0  0  0  0  0  0  0  0  0  0  0  0
    8.6055   -3.7863   24.0954 C   0  0  0  0  0  0  0  0  0  0  0  0
    9.2313   -4.0091   23.2257 H   0  0  0  0  0  0  0  0  0  0  0  0
    8.2433   -4.7429   24.4918 H   0  0  0  0  0  0  0  0  0  0  0  0
    9.6999   -3.6883   25.9878 H   0  0  0  0  0  0  0  0  0  0  0  0
   10.2960   -2.5804   24.7547 H   0  0  0  0  0  0  0  0  0  0  0  0
    8.8433   -0.9158   25.3518 H   0  0  0  0  0  0  0  0  0  0  0  0
    8.3920   -1.8546   26.7771 H   0  0  0  0  0  0  0  0  0  0  0  0
    6.4755   -2.7934   25.6810 H   0  0  0  0  0  0  0  0  0  0  0  0
    6.5114   -1.2267   24.8760 H   0  0  0  0  0  0  0  0  0  0  0  0
    6.5391   -3.4832   23.3960 H   0  0  0  0  0  0  0  0  0  0  0  0
    6.7340   -1.5666   21.7532 N   0  0  0  0  0  0  0  0  0  0  0  0
    7.3598   -0.6641   20.9497 N   0  0  0  0  0  0  0  0  0  0  0  0
    6.6606   -0.0124   19.8930 C   0  0  0  0  0  0  0  0  0  0  0  0
    5.4437    0.6298   20.1521 C   0  0  0  0  0  0  0  0  0  0  0  0
    4.8162    1.3067   19.1038 C   0  0  0  0  0  0  0  0  0  0  0  0
    5.4132    1.2984   17.8377 C   0  0  0  0  0  0  0  0  0  0  0  0
    6.5635    0.6598   17.5714 N   0  0  0  0  0  0  0  0  0  0  0  0
    7.1702    0.0234   18.5809 C   0  0  0  0  0  0  0  0  0  0  0  0
    8.1070   -0.4813   18.3400 H   0  0  0  0  0  0  0  0  0  0  0  0
    4.9432    1.8174   17.0063 H   0  0  0  0  0  0  0  0  0  0  0  0
    3.8841    1.8410   19.2593 H   0  0  0  0  0  0  0  0  0  0  0  0
    5.0227    0.5908   21.1572 H   0  0  0  0  0  0  0  0  0  0  0  0
    9.5918    0.6301   19.8643 H   0  0  0  0  0  0  0  0  0  0  0  0
   10.5094    0.4422   21.3589 H   0  0  0  0  0  0  0  0  0  0  0  0
    8.0488    2.2393   20.9402 H   0  0  0  0  0  0  0  0  0  0  0  0
    9.7130    2.7864   21.0914 H   0  0  0  0  0  0  0  0  0  0  0  0
    6.3126    1.6158   24.9741 H   0  0  0  0  0  0  0  0  0  0  0  0
    8.0821    1.9141   26.6905 H   0  0  0  0  0  0  0  0  0  0  0  0
   10.4888    2.1618   25.8671 H   0  0  0  0  0  0  0  0  0  0  0  0
   11.6676    1.9786   22.6476 H   0  0  0  0  0  0  0  0  0  0  0  0
   11.9614    2.8802   24.1400 H   0  0  0  0  0  0  0  0  0  0  0  0
   11.2338    3.6860   22.7455 H   0  0  0  0  0  0  0  0  0  0  0  0
  1  2  1  0
  2  3  2  0
  3  4  1  0
  4  5  2  0
  5  6  1  0
  6  7  2  0
  7  8  1  0
  8  9  1  0
  9 10  1  0
 10 11  2  0
 11 12  1  0
 12 13  1  0
 13 14  1  0
 14 15  1  0
 15 16  1  0
 16 17  1  0
 17 18  1  0
 17 19  1  0
 16 20  1  0
 16 21  1  0
 15 22  1  0
 15 23  1  0
 14 24  1  0
 14 25  1  0
 13 26  1  0
 12 27  2  0
 27 28  1  0
 28 29  1  0
 29 30  2  0
 30 31  1  0
 31 32  2  0
 32 33  1  0
 33 34  2  0
 34 35  1  0
 32 36  1  0
 31 37  1  0
 30 38  1  0
  9 39  1  0
  9 40  1  0
  8 41  1  0
  8 42  1  0
  5 43  1  0
  4 44  1  0
  3 45  1  0
  1 46  1  0
  1 47  1  0
  1 48  1  0
  7  2  1  0
 28 10  1  0
 34 29  1  0
 17 13  1  0
M  END
>  <cnnaffinity>  (1) 
-6.36969

>  <filename>  (1) 
Cc1cccnc1CCc1nc(C2CCCC2)nn1-c1cccnc1

$$$$
