
     RDKit          3D

 46 49  0  0  0  0  0  0  0  0999 V2000
   14.5472    0.9581   22.7403 C   0  0  0  0  0  0  0  0  0  0  0  0
   13.5181    0.0011   22.2136 C   0  0  0  0  0  0  0  0  0  0  0  0
   13.8917   -1.1444   21.4952 C   0  0  0  0  0  0  0  0  0  0  0  0
   12.9357   -1.9552   20.8867 C   0  0  0  0  0  0  0  0  0  0  0  0
   11.5853   -1.7118   21.1049 C   0  0  0  0  0  0  0  0  0  0  0  0
   11.1906   -0.5649   21.7955 C   0  0  0  0  0  0  0  0  0  0  0  0
    9.7693   -0.1961   21.8377 C   0  0  0  0  0  0  0  0  0  0  0  0
    8.7884   -0.9848   21.4235 N   0  0  0  0  0  0  0  0  0  0  0  0
    7.6830   -0.2513   21.6845 N   0  0  0  0  0  0  0  0  0  0  0  0
    6.3657   -0.6627   21.2148 C   0  0  0  0  0  0  0  0  0  0  0  0
    5.9424    0.0718   19.9592 C   0  0  0  0  0  0  0  0  0  0  0  0
    4.7760    0.8375   19.8852 C   0  0  0  0  0  0  0  0  0  0  0  0
    4.5046    1.5373   18.7060 C   0  0  0  0  0  0  0  0  0  0  0  0
    5.4048    1.4352   17.6427 C   0  0  0  0  0  0  0  0  0  0  0  0
    6.5243    0.6974   17.6885 N   0  0  0  0  0  0  0  0  0  0  0  0
    6.7785    0.0449   18.8279 C   0  0  0  0  0  0  0  0  0  0  0  0
    7.7002   -0.5363   18.8615 H   0  0  0  0  0  0  0  0  0  0  0  0
    5.2295    1.9734   16.7128 H   0  0  0  0  0  0  0  0  0  0  0  0
    3.6243    2.1614   18.6025 H   0  0  0  0  0  0  0  0  0  0  0  0
    4.0968    0.9021   20.7387 H   0  0  0  0  0  0  0  0  0  0  0  0
    6.4158   -1.7454   21.0654 H   0  0  0  0  0  0  0  0  0  0  0  0
    5.6774   -0.4650   22.0396 H   0  0  0  0  0  0  0  0  0  0  0  0
    8.0482    0.9239   22.2337 C   0  0  0  0  0  0  0  0  0  0  0  0
    7.1457    1.8429   22.9881 C   0  0  0  0  0  0  0  0  0  0  0  0
    7.0657    1.2789   24.3712 C   0  0  0  0  0  0  0  0  0  0  0  0
    7.9791    1.3841   25.3806 C   0  0  0  0  0  0  0  0  0  0  0  0
    7.5648    0.4719   26.3324 N   0  0  0  0  0  0  0  0  0  0  0  0
    6.4417   -0.1358   25.8573 C   0  0  0  0  0  0  0  0  0  0  0  0
    5.7469   -1.2476   26.5663 C   0  0  0  0  0  0  0  0  0  0  0  0
    4.7519   -1.3828   26.1358 H   0  0  0  0  0  0  0  0  0  0  0  0
    5.6539   -1.0464   27.6375 H   0  0  0  0  0  0  0  0  0  0  0  0
    6.3039   -2.1839   26.4427 H   0  0  0  0  0  0  0  0  0  0  0  0
    6.1214    0.3335   24.6745 N   0  0  0  0  0  0  0  0  0  0  0  0
    8.0219    0.2305   27.1970 H   0  0  0  0  0  0  0  0  0  0  0  0
    8.8999    1.9454   25.4297 H   0  0  0  0  0  0  0  0  0  0  0  0
    6.1516    1.8941   22.5416 H   0  0  0  0  0  0  0  0  0  0  0  0
    7.6079    2.8318   22.9868 H   0  0  0  0  0  0  0  0  0  0  0  0
    9.3529    0.9988   22.3258 N   0  0  0  0  0  0  0  0  0  0  0  0
   12.1590    0.2860   22.3504 C   0  0  0  0  0  0  0  0  0  0  0  0
   11.8282    1.1996   22.8430 H   0  0  0  0  0  0  0  0  0  0  0  0
   10.8073   -2.3755   20.7334 H   0  0  0  0  0  0  0  0  0  0  0  0
   13.2493   -2.7248   20.1915 H   0  0  0  0  0  0  0  0  0  0  0  0
   14.9284   -1.4139   21.3870 H   0  0  0  0  0  0  0  0  0  0  0  0
   14.8138    0.7064   23.7684 H   0  0  0  0  0  0  0  0  0  0  0  0
   14.1797    1.9883   22.7118 H   0  0  0  0  0  0  0  0  0  0  0  0
   15.4410    0.9303   22.1142 H   0  0  0  0  0  0  0  0  0  0  0  0
  1  2  1  0
  2  3  2  0
  3  4  1  0
  4  5  2  0
  5  6  1  0
  6  7  1  0
  7  8  2  0
  8  9  1  0
  9 10  1  0
 10 11  1  0
 11 12  2  0
 12 13  1  0
 13 14  2  0
 14 15  1  0
 15 16  2  0
 16 17  1  0
 14 18  1  0
 13 19  1  0
 12 20  1  0
 10 21  1  0
 10 22  1  0
  9 23  1  0
 23 24  1  0
 24 25  1  0
 25 26  2  0
 26 27  1  0
 27 28  1  0
 28 29  1  0
 29 30  1  0
 29 31  1  0
 29 32  1  0
 28 33  2  0
 27 34  1  0
 26 35  1  0
 24 36  1  0
 24 37  1  0
 23 38  2  0
  6 39  2  0
 39 40  1  0
  5 41  1  0
  4 42  1  0
  3 43  1  0
  1 44  1  0
  1 45  1  0
  1 46  1  0
 39  2  1  0
 38  7  1  0
 16 11  1  0
 33 25  1  0
M  END
>  <cnnaffinity>  (1) 
-6.5097

>  <filename>  (1) 
Cc1cccc(-c2nc(Cc3c[nH]c(C)n3)n(Cc3cccnc3)n2)c1

$$$$
