
     RDKit          3D

 38 40  0  0  0  0  0  0  0  0999 V2000
    4.9567    1.8654   16.9581 H   0  0  0  0  0  0  0  0  0  0  0  0
    5.4163    1.3287   17.7865 C   0  0  0  0  0  0  0  0  0  0  0  0
    6.5694    0.6925   17.5195 N   0  0  0  0  0  0  0  0  0  0  0  0
    7.1744    0.0394   18.5250 C   0  0  0  0  0  0  0  0  0  0  0  0
    8.0895   -0.5018   18.2730 H   0  0  0  0  0  0  0  0  0  0  0  0
    6.6789   -0.0060   19.8513 C   0  0  0  0  0  0  0  0  0  0  0  0
    7.3035   -0.6989   20.9044 N   0  0  0  0  0  0  0  0  0  0  0  0
    6.7602   -0.7110   21.7643 H   0  0  0  0  0  0  0  0  0  0  0  0
    8.7136   -0.7485   21.1146 C   0  0  0  0  0  0  0  0  0  0  0  0
    9.6967    0.2212   20.7914 C   0  0  0  0  0  0  0  0  0  0  0  0
    9.5343    1.1470   20.2559 H   0  0  0  0  0  0  0  0  0  0  0  0
   10.9130   -0.1114   21.1930 N   0  0  0  0  0  0  0  0  0  0  0  0
   10.7270   -1.3072   21.7959 N   0  0  0  0  0  0  0  0  0  0  0  0
   11.5117   -1.8890   22.0419 H   0  0  0  0  0  0  0  0  0  0  0  0
    9.4400   -1.7484   21.7613 C   0  0  0  0  0  0  0  0  0  0  0  0
    9.1002   -2.9866   22.2793 N   0  0  0  0  0  0  0  0  0  0  0  0
    7.8351   -3.5748   21.8398 C   0  0  0  0  0  0  0  0  0  0  0  0
    6.9916   -3.1062   22.3720 H   0  0  0  0  0  0  0  0  0  0  0  0
    7.7000   -3.3550   20.7814 H   0  0  0  0  0  0  0  0  0  0  0  0
    7.8523   -5.0853   22.0529 C   0  0  0  0  0  0  0  0  0  0  0  0
    6.9224   -5.5178   21.6599 H   0  0  0  0  0  0  0  0  0  0  0  0
    8.6531   -5.5110   21.4472 H   0  0  0  0  0  0  0  0  0  0  0  0
    8.0423   -5.4715   23.5371 C   0  0  0  0  0  0  0  0  0  0  0  0
    8.6483   -6.3871   23.5745 H   0  0  0  0  0  0  0  0  0  0  0  0
    6.6704   -5.7429   24.1685 C   0  0  0  0  0  0  0  0  0  0  0  0
    6.1253   -6.5124   23.6102 H   0  0  0  0  0  0  0  0  0  0  0  0
    6.7429   -6.0371   25.2222 H   0  0  0  0  0  0  0  0  0  0  0  0
    6.0596   -4.8333   24.1167 H   0  0  0  0  0  0  0  0  0  0  0  0
    8.7636   -4.3539   24.3314 C   0  0  0  0  0  0  0  0  0  0  0  0
    9.3062   -4.7639   25.1924 H   0  0  0  0  0  0  0  0  0  0  0  0
    7.9860   -3.6923   24.7326 H   0  0  0  0  0  0  0  0  0  0  0  0
    9.7058   -3.4411   23.5367 C   0  0  0  0  0  0  0  0  0  0  0  0
   10.6853   -3.9003   23.3521 H   0  0  0  0  0  0  0  0  0  0  0  0
    9.9072   -2.5585   24.1545 H   0  0  0  0  0  0  0  0  0  0  0  0
    5.4479    0.6270   20.0905 C   0  0  0  0  0  0  0  0  0  0  0  0
    5.0055    0.5689   21.0820 H   0  0  0  0  0  0  0  0  0  0  0  0
    4.8148    1.3118   19.0488 C   0  0  0  0  0  0  0  0  0  0  0  0
    3.8769    1.8351   19.2057 H   0  0  0  0  0  0  0  0  0  0  0  0
  1  2  1  0
  2  3  2  0
  3  4  1  0
  4  5  1  0
  4  6  2  0
  6  7  1  0
  7  8  1  0
  7  9  1  0
  9 10  1  0
 10 11  1  0
 10 12  2  0
 12 13  1  0
 13 14  1  0
 13 15  1  0
 15 16  1  0
 16 17  1  0
 17 18  1  0
 17 19  1  0
 17 20  1  0
 20 21  1  0
 20 22  1  0
 20 23  1  0
 23 24  1  0
 23 25  1  0
 25 26  1  0
 25 27  1  0
 25 28  1  0
 23 29  1  0
 29 30  1  0
 29 31  1  0
 29 32  1  0
 32 33  1  0
 32 34  1  0
  6 35  1  0
 35 36  1  0
 35 37  2  0
 37 38  1  0
 37  2  1  0
 15  9  2  0
 32 16  1  0
M  END
>  <cnnaffinity>  (1) 
-5.63464

>  <filename>  (1) 
CC1CCN(c2[nH]ncc2Nc2cccnc2)CC1

$$$$
