
     RDKit          3D

 42 45  0  0  0  0  0  0  0  0999 V2000
    6.1252    3.7118   28.9765 C   0  0  0  0  0  0  0  0  0  0  0  0
    6.4984    3.1238   27.6381 C   0  0  0  0  0  0  0  0  0  0  0  0
    5.7023    2.1409   27.0263 C   0  0  0  0  0  0  0  0  0  0  0  0
    6.0606    1.5640   25.8058 C   0  0  0  0  0  0  0  0  0  0  0  0
    7.2428    1.9709   25.1549 C   0  0  0  0  0  0  0  0  0  0  0  0
    7.6889    1.3981   23.8628 C   0  0  0  0  0  0  0  0  0  0  0  0
    7.0637    0.4492   23.1851 N   0  0  0  0  0  0  0  0  0  0  0  0
    7.8447    0.2721   22.0935 N   0  0  0  0  0  0  0  0  0  0  0  0
    7.4374   -0.6545   21.0385 C   0  0  0  0  0  0  0  0  0  0  0  0
    6.7082    0.0142   19.8863 C   0  0  0  0  0  0  0  0  0  0  0  0
    5.4960    0.6779   20.1127 C   0  0  0  0  0  0  0  0  0  0  0  0
    4.8697    1.3143   19.0381 C   0  0  0  0  0  0  0  0  0  0  0  0
    5.4767    1.2665   17.7790 C   0  0  0  0  0  0  0  0  0  0  0  0
    6.6231    0.6146   17.5369 N   0  0  0  0  0  0  0  0  0  0  0  0
    7.2110    0.0053   18.5756 C   0  0  0  0  0  0  0  0  0  0  0  0
    8.1307   -0.5368   18.3444 H   0  0  0  0  0  0  0  0  0  0  0  0
    5.0198    1.7682   16.9268 H   0  0  0  0  0  0  0  0  0  0  0  0
    3.9335    1.8466   19.1624 H   0  0  0  0  0  0  0  0  0  0  0  0
    5.0607    0.6927   21.1151 H   0  0  0  0  0  0  0  0  0  0  0  0
    8.3277   -1.1850   20.6836 H   0  0  0  0  0  0  0  0  0  0  0  0
    6.7868   -1.3896   21.5255 H   0  0  0  0  0  0  0  0  0  0  0  0
    8.8779    1.1398   22.1494 C   0  0  0  0  0  0  0  0  0  0  0  0
    9.9675    1.2925   21.1613 C   0  0  0  0  0  0  0  0  0  0  0  0
   11.1439    0.4604   21.5648 C   0  0  0  0  0  0  0  0  0  0  0  0
   12.0729    0.7467   22.5137 C   0  0  0  0  0  0  0  0  0  0  0  0
   13.2556   -0.5065   22.5543 S   0  0  0  0  0  0  0  0  0  0  0  0
   12.3706   -1.3540   21.3388 C   0  0  0  0  0  0  0  0  0  0  0  0
   11.3004   -0.7408   20.9227 N   0  0  0  0  0  0  0  0  0  0  0  0
   12.6981   -2.3253   20.9818 H   0  0  0  0  0  0  0  0  0  0  0  0
   12.0895    1.5746   23.2101 H   0  0  0  0  0  0  0  0  0  0  0  0
    9.6415    0.9645   20.1713 H   0  0  0  0  0  0  0  0  0  0  0  0
   10.2071    2.3598   21.1281 H   0  0  0  0  0  0  0  0  0  0  0  0
    8.8275    1.8389   23.2544 N   0  0  0  0  0  0  0  0  0  0  0  0
    8.0408    2.9602   25.7637 C   0  0  0  0  0  0  0  0  0  0  0  0
    7.6701    3.5276   26.9787 C   0  0  0  0  0  0  0  0  0  0  0  0
    8.2963    4.2944   27.4249 H   0  0  0  0  0  0  0  0  0  0  0  0
    8.9601    3.2724   25.2715 H   0  0  0  0  0  0  0  0  0  0  0  0
    5.4295    0.7928   25.3663 H   0  0  0  0  0  0  0  0  0  0  0  0
    4.7898    1.8238   27.5245 H   0  0  0  0  0  0  0  0  0  0  0  0
    5.0389    3.7489   29.1102 H   0  0  0  0  0  0  0  0  0  0  0  0
    6.5367    3.1181   29.8026 H   0  0  0  0  0  0  0  0  0  0  0  0
    6.5083    4.7317   29.0867 H   0  0  0  0  0  0  0  0  0  0  0  0
  1  2  1  0
  2  3  2  0
  3  4  1  0
  4  5  2  0
  5  6  1  0
  6  7  2  0
  7  8  1  0
  8  9  1  0
  9 10  1  0
 10 11  2  0
 11 12  1  0
 12 13  2  0
 13 14  1  0
 14 15  2  0
 15 16  1  0
 13 17  1  0
 12 18  1  0
 11 19  1  0
  9 20  1  0
  9 21  1  0
  8 22  1  0
 22 23  1  0
 23 24  1  0
 24 25  2  0
 25 26  1  0
 26 27  1  0
 27 28  2  0
 27 29  1  0
 25 30  1  0
 23 31  1  0
 23 32  1  0
 22 33  2  0
  5 34  1  0
 34 35  2  0
 35 36  1  0
 34 37  1  0
  4 38  1  0
  3 39  1  0
  1 40  1  0
  1 41  1  0
  1 42  1  0
 35  2  1  0
 33  6  1  0
 15 10  1  0
 28 24  1  0
M  END
>  <cnnaffinity>  (1) 
-6.11464

>  <filename>  (1) 
Cc1ccc(-c2nc(Cc3cscn3)n(Cc3cccnc3)n2)cc1

$$$$
