
     RDKit          3D

 46 49  0  0  0  0  0  0  0  0999 V2000
    8.2407    2.7352   22.0594 C   0  0  0  0  0  0  0  0  0  0  0  0
    9.6061    2.2922   22.5060 C   0  0  0  0  0  0  0  0  0  0  0  0
   10.2448    2.9424   23.5612 C   0  0  0  0  0  0  0  0  0  0  0  0
   11.4943    2.4964   23.9873 C   0  0  0  0  0  0  0  0  0  0  0  0
   12.1396    1.4600   23.4536 N   0  0  0  0  0  0  0  0  0  0  0  0
   11.5285    0.8507   22.4327 C   0  0  0  0  0  0  0  0  0  0  0  0
   10.2903    1.2219   21.8994 C   0  0  0  0  0  0  0  0  0  0  0  0
    9.6272    0.3867   20.8223 C   0  0  0  0  0  0  0  0  0  0  0  0
    8.6154   -0.5625   21.3630 C   0  0  0  0  0  0  0  0  0  0  0  0
    8.8676   -1.4324   22.3235 N   0  0  0  0  0  0  0  0  0  0  0  0
    7.6658   -2.0187   22.5182 C   0  0  0  0  0  0  0  0  0  0  0  0
    7.4229   -3.0268   23.6060 C   0  0  0  0  0  0  0  0  0  0  0  0
    6.4761   -2.4695   24.7020 C   0  0  0  0  0  0  0  0  0  0  0  0
    6.1079   -3.5592   25.7061 C   0  0  0  0  0  0  0  0  0  0  0  0
    5.5539   -4.6959   25.0639 O   0  0  0  0  0  0  0  0  0  0  0  0
    6.4698   -5.3013   24.1671 C   0  0  0  0  0  0  0  0  0  0  0  0
    6.8627   -4.3524   23.0371 C   0  0  0  0  0  0  0  0  0  0  0  0
    5.9769   -4.1300   22.4287 H   0  0  0  0  0  0  0  0  0  0  0  0
    7.6018   -4.8341   22.3841 H   0  0  0  0  0  0  0  0  0  0  0  0
    5.9770   -6.1936   23.7738 H   0  0  0  0  0  0  0  0  0  0  0  0
    7.3726   -5.6232   24.7180 H   0  0  0  0  0  0  0  0  0  0  0  0
    5.3540   -3.2014   26.4120 H   0  0  0  0  0  0  0  0  0  0  0  0
    7.0029   -3.8549   26.2826 H   0  0  0  0  0  0  0  0  0  0  0  0
    6.9366   -1.6198   25.2228 H   0  0  0  0  0  0  0  0  0  0  0  0
    5.5591   -2.1057   24.2286 H   0  0  0  0  0  0  0  0  0  0  0  0
    8.4047   -3.2149   24.0592 H   0  0  0  0  0  0  0  0  0  0  0  0
    6.7026   -1.6041   21.7088 N   0  0  0  0  0  0  0  0  0  0  0  0
    7.3345   -0.6932   20.9275 N   0  0  0  0  0  0  0  0  0  0  0  0
    6.6406   -0.0083   19.8958 C   0  0  0  0  0  0  0  0  0  0  0  0
    5.4335    0.6409   20.1650 C   0  0  0  0  0  0  0  0  0  0  0  0
    4.8110    1.3125   19.1092 C   0  0  0  0  0  0  0  0  0  0  0  0
    5.3979    1.2972   17.8383 C   0  0  0  0  0  0  0  0  0  0  0  0
    6.5547    0.6711   17.5753 N   0  0  0  0  0  0  0  0  0  0  0  0
    7.1599    0.0434   18.5895 C   0  0  0  0  0  0  0  0  0  0  0  0
    8.1118   -0.4329   18.3634 H   0  0  0  0  0  0  0  0  0  0  0  0
    4.9207    1.7876   16.9942 H   0  0  0  0  0  0  0  0  0  0  0  0
    3.8804    1.8413   19.2604 H   0  0  0  0  0  0  0  0  0  0  0  0
    5.0136    0.6116   21.1747 H   0  0  0  0  0  0  0  0  0  0  0  0
   10.3480   -0.2704   20.3355 H   0  0  0  0  0  0  0  0  0  0  0  0
    9.1623    1.0301   20.0737 H   0  0  0  0  0  0  0  0  0  0  0  0
   12.0420   -0.0130   22.0113 H   0  0  0  0  0  0  0  0  0  0  0  0
   11.9984    3.0013   24.8021 H   0  0  0  0  0  0  0  0  0  0  0  0
    9.7693    3.7884   24.0396 H   0  0  0  0  0  0  0  0  0  0  0  0
    7.4948    1.9362   22.1457 H   0  0  0  0  0  0  0  0  0  0  0  0
    8.2715    3.0251   21.0103 H   0  0  0  0  0  0  0  0  0  0  0  0
    7.8920    3.5933   22.6382 H   0  0  0  0  0  0  0  0  0  0  0  0
  1  2  1  0
  2  3  2  0
  3  4  1  0
  4  5  2  0
  5  6  1  0
  6  7  2  0
  7  8  1  0
  8  9  1  0
  9 10  2  0
 10 11  1  0
 11 12  1  0
 12 13  1  0
 13 14  1  0
 14 15  1  0
 15 16  1  0
 16 17  1  0
 17 18  1  0
 17 19  1  0
 16 20  1  0
 16 21  1  0
 14 22  1  0
 14 23  1  0
 13 24  1  0
 13 25  1  0
 12 26  1  0
 11 27  2  0
 27 28  1  0
 28 29  1  0
 29 30  2  0
 30 31  1  0
 31 32  2  0
 32 33  1  0
 33 34  2  0
 34 35  1  0
 32 36  1  0
 31 37  1  0
 30 38  1  0
  8 39  1  0
  8 40  1  0
  6 41  1  0
  4 42  1  0
  3 43  1  0
  1 44  1  0
  1 45  1  0
  1 46  1  0
  7  2  1  0
 28  9  1  0
 34 29  1  0
 17 12  1  0
M  END
>  <cnnaffinity>  (1) 
-6.09768

>  <filename>  (1) 
Cc1ccncc1Cc1nc(C2CCOCC2)nn1-c1cccnc1

$$$$
