
     RDKit          3D

 48 51  0  0  0  0  0  0  0  0999 V2000
    9.3277   -4.7352   26.4410 C   0  0  0  0  0  0  0  0  0  0  0  0
    8.2145   -4.3338   25.4981 C   0  0  0  0  0  0  0  0  0  0  0  0
    6.9279   -4.8727   25.6461 C   0  0  0  0  0  0  0  0  0  0  0  0
    5.8878   -4.4859   24.7947 C   0  0  0  0  0  0  0  0  0  0  0  0
    6.1162   -3.5565   23.7833 C   0  0  0  0  0  0  0  0  0  0  0  0
    7.4020   -3.0043   23.6138 C   0  0  0  0  0  0  0  0  0  0  0  0
    7.6431   -2.0103   22.5432 C   0  0  0  0  0  0  0  0  0  0  0  0
    6.6883   -1.5786   21.7319 N   0  0  0  0  0  0  0  0  0  0  0  0
    7.3276   -0.6919   20.9346 N   0  0  0  0  0  0  0  0  0  0  0  0
    6.6424   -0.0043   19.8978 C   0  0  0  0  0  0  0  0  0  0  0  0
    5.4337    0.6422   20.1657 C   0  0  0  0  0  0  0  0  0  0  0  0
    4.8127    1.3138   19.1093 C   0  0  0  0  0  0  0  0  0  0  0  0
    5.3979    1.2969   17.8368 C   0  0  0  0  0  0  0  0  0  0  0  0
    6.5516    0.6659   17.5716 N   0  0  0  0  0  0  0  0  0  0  0  0
    7.1579    0.0432   18.5875 C   0  0  0  0  0  0  0  0  0  0  0  0
    8.1093   -0.4317   18.3612 H   0  0  0  0  0  0  0  0  0  0  0  0
    4.9227    1.7896   16.9921 H   0  0  0  0  0  0  0  0  0  0  0  0
    3.8824    1.8411   19.2600 H   0  0  0  0  0  0  0  0  0  0  0  0
    5.0199    0.6095   21.1787 H   0  0  0  0  0  0  0  0  0  0  0  0
    8.6168   -0.5786   21.3626 C   0  0  0  0  0  0  0  0  0  0  0  0
    9.6298    0.3507   20.8079 C   0  0  0  0  0  0  0  0  0  0  0  0
   10.2629    1.1809   21.9001 C   0  0  0  0  0  0  0  0  0  0  0  0
   11.5226    0.8165   22.3951 C   0  0  0  0  0  0  0  0  0  0  0  0
   12.0969    1.4900   23.4754 C   0  0  0  0  0  0  0  0  0  0  0  0
   11.3957    2.5470   24.0608 C   0  0  0  0  0  0  0  0  0  0  0  0
   10.1286    2.9141   23.5974 C   0  0  0  0  0  0  0  0  0  0  0  0
    9.5471    2.2118   22.5352 C   0  0  0  0  0  0  0  0  0  0  0  0
    7.9333    2.7857   21.9020 S   0  0  0  0  0  0  0  0  0  0  0  0
    7.9341    4.2837   21.9715 O   0  0  0  0  0  0  0  0  0  0  0  0
    6.8600    2.2680   23.2675 C   0  0  0  0  0  0  0  0  0  0  0  0
    5.8551    2.6077   23.0047 H   0  0  0  0  0  0  0  0  0  0  0  0
    7.1546    2.7888   24.1827 H   0  0  0  0  0  0  0  0  0  0  0  0
    6.8658    1.1847   23.4042 H   0  0  0  0  0  0  0  0  0  0  0  0
    9.6037    3.7653   24.0247 H   0  0  0  0  0  0  0  0  0  0  0  0
   11.8487    3.0924   24.8770 H   0  0  0  0  0  0  0  0  0  0  0  0
   13.0765    1.1915   23.8487 H   0  0  0  0  0  0  0  0  0  0  0  0
   12.0361   -0.0276   21.9357 H   0  0  0  0  0  0  0  0  0  0  0  0
    9.1799    1.0015   20.0561 H   0  0  0  0  0  0  0  0  0  0  0  0
   10.3642   -0.3100   20.3433 H   0  0  0  0  0  0  0  0  0  0  0  0
    8.8559   -1.4357   22.3284 N   0  0  0  0  0  0  0  0  0  0  0  0
    8.4399   -3.3984   24.4809 C   0  0  0  0  0  0  0  0  0  0  0  0
    9.4354   -2.9673   24.3678 H   0  0  0  0  0  0  0  0  0  0  0  0
    5.3107   -3.2432   23.1212 H   0  0  0  0  0  0  0  0  0  0  0  0
    4.8954   -4.9068   24.9258 H   0  0  0  0  0  0  0  0  0  0  0  0
    6.7493   -5.5956   26.4406 H   0  0  0  0  0  0  0  0  0  0  0  0
   10.3084   -4.7002   25.9565 H   0  0  0  0  0  0  0  0  0  0  0  0
    9.1867   -5.7486   26.8290 H   0  0  0  0  0  0  0  0  0  0  0  0
    9.3718   -4.0663   27.3073 H   0  0  0  0  0  0  0  0  0  0  0  0
  1  2  1  0
  2  3  2  0
  3  4  1  0
  4  5  2  0
  5  6  1  0
  6  7  1  0
  7  8  2  0
  8  9  1  0
  9 10  1  0
 10 11  2  0
 11 12  1  0
 12 13  2  0
 13 14  1  0
 14 15  2  0
 15 16  1  0
 13 17  1  0
 12 18  1  0
 11 19  1  0
  9 20  1  0
 20 21  1  0
 21 22  1  0
 22 23  2  0
 23 24  1  0
 24 25  2  0
 25 26  1  0
 26 27  2  0
 27 28  1  0
 28 29  2  0
 28 30  1  0
 30 31  1  0
 30 32  1  0
 30 33  1  0
 26 34  1  0
 25 35  1  0
 24 36  1  0
 23 37  1  0
 21 38  1  0
 21 39  1  0
 20 40  2  0
  6 41  2  0
 41 42  1  0
  5 43  1  0
  4 44  1  0
  3 45  1  0
  1 46  1  0
  1 47  1  0
  1 48  1  0
 41  2  1  0
 40  7  1  0
 15 10  1  0
 27 22  1  0
M  END
>  <cnnaffinity>  (1) 
-6.40433

>  <filename>  (1) 
Cc1cccc(-c2nc(Cc3ccccc3S(C)=O)n(-c3cccnc3)n2)c1

$$$$
