
     RDKit          3D

 41 44  0  0  0  0  0  0  0  0999 V2000
    3.0770    2.7093   25.3590 C   0  0  0  0  0  0  0  0  0  0  0  0
    4.2866    1.9998   24.8463 C   0  0  0  0  0  0  0  0  0  0  0  0
    4.8933    0.8782   25.3283 C   0  0  0  0  0  0  0  0  0  0  0  0
    6.0663    0.5251   24.6064 C   0  0  0  0  0  0  0  0  0  0  0  0
    6.3488    1.3872   23.5856 C   0  0  0  0  0  0  0  0  0  0  0  0
    7.5164    1.3100   22.6326 C   0  0  0  0  0  0  0  0  0  0  0  0
    7.7097   -0.0871   22.1335 C   0  0  0  0  0  0  0  0  0  0  0  0
    8.2900   -1.0076   22.8683 N   0  0  0  0  0  0  0  0  0  0  0  0
    8.3117   -2.0899   22.0518 C   0  0  0  0  0  0  0  0  0  0  0  0
    8.9119   -3.3523   22.5539 C   0  0  0  0  0  0  0  0  0  0  0  0
    8.1623   -4.0587   23.7064 C   0  0  0  0  0  0  0  0  0  0  0  0
    9.2956   -4.8345   24.3778 C   0  0  0  0  0  0  0  0  0  0  0  0
   10.4849   -4.0923   24.1722 O   0  0  0  0  0  0  0  0  0  0  0  0
   10.2983   -3.0868   23.1911 C   0  0  0  0  0  0  0  0  0  0  0  0
   10.3075   -2.1137   23.7018 H   0  0  0  0  0  0  0  0  0  0  0  0
   11.1384   -3.1027   22.4821 H   0  0  0  0  0  0  0  0  0  0  0  0
    9.3929   -5.8275   23.9227 H   0  0  0  0  0  0  0  0  0  0  0  0
    9.1579   -4.9794   25.4524 H   0  0  0  0  0  0  0  0  0  0  0  0
    7.3492   -4.7131   23.3716 H   0  0  0  0  0  0  0  0  0  0  0  0
    7.7348   -3.3224   24.3949 H   0  0  0  0  0  0  0  0  0  0  0  0
    8.9386   -4.0362   21.7057 H   0  0  0  0  0  0  0  0  0  0  0  0
    7.7967   -1.9003   20.8569 N   0  0  0  0  0  0  0  0  0  0  0  0
    7.3639   -0.6057   20.9242 N   0  0  0  0  0  0  0  0  0  0  0  0
    6.6367    0.0084   19.8670 C   0  0  0  0  0  0  0  0  0  0  0  0
    5.4368    0.6831   20.1180 C   0  0  0  0  0  0  0  0  0  0  0  0
    4.8043    1.3292   19.0513 C   0  0  0  0  0  0  0  0  0  0  0  0
    5.4056    1.2952   17.7902 C   0  0  0  0  0  0  0  0  0  0  0  0
    6.5419    0.6228   17.5388 N   0  0  0  0  0  0  0  0  0  0  0  0
    7.1330   -0.0201   18.5516 C   0  0  0  0  0  0  0  0  0  0  0  0
    8.0500   -0.5601   18.3276 H   0  0  0  0  0  0  0  0  0  0  0  0
    4.9574    1.8306   16.9528 H   0  0  0  0  0  0  0  0  0  0  0  0
    3.8754    1.8685   19.1981 H   0  0  0  0  0  0  0  0  0  0  0  0
    5.0264    0.7136   21.1278 H   0  0  0  0  0  0  0  0  0  0  0  0
    8.4406    1.5365   23.1803 H   0  0  0  0  0  0  0  0  0  0  0  0
    7.4349    2.0445   21.8267 H   0  0  0  0  0  0  0  0  0  0  0  0
    5.1579    2.6295   23.4865 S   0  0  0  0  0  0  0  0  0  0  0  0
    6.6716   -0.3504   24.8158 H   0  0  0  0  0  0  0  0  0  0  0  0
    4.5170    0.3182   26.1781 H   0  0  0  0  0  0  0  0  0  0  0  0
    2.3949    2.0104   25.8518 H   0  0  0  0  0  0  0  0  0  0  0  0
    2.5479    3.2138   24.5477 H   0  0  0  0  0  0  0  0  0  0  0  0
    3.3699    3.4663   26.0974 H   0  0  0  0  0  0  0  0  0  0  0  0
  1  2  1  0
  2  3  2  0
  3  4  1  0
  4  5  2  0
  5  6  1  0
  6  7  1  0
  7  8  2  0
  8  9  1  0
  9 10  1  0
 10 11  1  0
 11 12  1  0
 12 13  1  0
 13 14  1  0
 14 15  1  0
 14 16  1  0
 12 17  1  0
 12 18  1  0
 11 19  1  0
 11 20  1  0
 10 21  1  0
  9 22  2  0
 22 23  1  0
 23 24  1  0
 24 25  2  0
 25 26  1  0
 26 27  2  0
 27 28  1  0
 28 29  2  0
 29 30  1  0
 27 31  1  0
 26 32  1  0
 25 33  1  0
  6 34  1  0
  6 35  1  0
  5 36  1  0
  4 37  1  0
  3 38  1  0
  1 39  1  0
  1 40  1  0
  1 41  1  0
 36  2  1  0
 23  7  1  0
 29 24  1  0
 14 10  1  0
M  END
>  <cnnaffinity>  (1) 
-5.88557

>  <filename>  (1) 
Cc1ccc(Cc2nc(C3CCOC3)nn2-c2cccnc2)s1

$$$$
