
     RDKit          3D

 49 52  0  0  0  0  0  0  0  0999 V2000
    9.1655   -4.9645   26.9711 C   0  0  0  0  0  0  0  0  0  0  0  0
    9.0707   -3.6572   26.1689 C   0  0  0  0  0  0  0  0  0  0  0  0
    9.5696   -3.8328   24.7037 C   0  0  0  0  0  0  0  0  0  0  0  0
    8.4139   -4.1111   23.7226 C   0  0  0  0  0  0  0  0  0  0  0  0
    7.3685   -2.9504   23.6909 C   0  0  0  0  0  0  0  0  0  0  0  0
    7.6087   -2.0052   22.5531 C   0  0  0  0  0  0  0  0  0  0  0  0
    6.6490   -1.5784   21.7570 N   0  0  0  0  0  0  0  0  0  0  0  0
    7.2995   -0.7085   20.9384 N   0  0  0  0  0  0  0  0  0  0  0  0
    6.6319   -0.0154   19.8946 C   0  0  0  0  0  0  0  0  0  0  0  0
    5.4261    0.6412   20.1573 C   0  0  0  0  0  0  0  0  0  0  0  0
    4.8058    1.3158   19.1033 C   0  0  0  0  0  0  0  0  0  0  0  0
    5.3951    1.2974   17.8346 C   0  0  0  0  0  0  0  0  0  0  0  0
    6.5503    0.6649   17.5757 N   0  0  0  0  0  0  0  0  0  0  0  0
    7.1533    0.0355   18.5894 C   0  0  0  0  0  0  0  0  0  0  0  0
    8.1053   -0.4394   18.3525 H   0  0  0  0  0  0  0  0  0  0  0  0
    4.9277    1.8000   16.9909 H   0  0  0  0  0  0  0  0  0  0  0  0
    3.8738    1.8491   19.2532 H   0  0  0  0  0  0  0  0  0  0  0  0
    5.0094    0.6039   21.1633 H   0  0  0  0  0  0  0  0  0  0  0  0
    8.5936   -0.6128   21.3423 C   0  0  0  0  0  0  0  0  0  0  0  0
    9.6241    0.2611   20.7146 C   0  0  0  0  0  0  0  0  0  0  0  0
   10.5805    0.8860   21.7106 C   0  0  0  0  0  0  0  0  0  0  0  0
   11.8642    0.3747   21.9073 C   0  0  0  0  0  0  0  0  0  0  0  0
   12.7215    0.7975   22.8411 N   0  0  0  0  0  0  0  0  0  0  0  0
   12.3132    1.7697   23.6659 C   0  0  0  0  0  0  0  0  0  0  0  0
   11.0558    2.3462   23.6015 C   0  0  0  0  0  0  0  0  0  0  0  0
   10.1886    1.8862   22.6166 C   0  0  0  0  0  0  0  0  0  0  0  0
    8.9584    2.4308   22.6022 O   0  0  0  0  0  0  0  0  0  0  0  0
    8.4386    1.9677   21.9380 H   0  0  0  0  0  0  0  0  0  0  0  0
   10.6952    3.1155   24.2750 H   0  0  0  0  0  0  0  0  0  0  0  0
   13.0340    2.0999   24.4173 H   0  0  0  0  0  0  0  0  0  0  0  0
   12.2193   -0.4508   21.2842 H   0  0  0  0  0  0  0  0  0  0  0  0
    9.1394    1.0308   20.1089 H   0  0  0  0  0  0  0  0  0  0  0  0
   10.1518   -0.4105   20.0295 H   0  0  0  0  0  0  0  0  0  0  0  0
    8.8298   -1.4646   22.3203 N   0  0  0  0  0  0  0  0  0  0  0  0
    7.3225   -2.1575   25.0412 C   0  0  0  0  0  0  0  0  0  0  0  0
    7.6305   -3.0743   26.2327 C   0  0  0  0  0  0  0  0  0  0  0  0
    6.8980   -3.8975   26.2460 H   0  0  0  0  0  0  0  0  0  0  0  0
    7.4980   -2.5330   27.1784 H   0  0  0  0  0  0  0  0  0  0  0  0
    8.0576   -1.3348   25.0146 H   0  0  0  0  0  0  0  0  0  0  0  0
    6.3375   -1.6881   25.1536 H   0  0  0  0  0  0  0  0  0  0  0  0
    6.3773   -3.3728   23.4939 H   0  0  0  0  0  0  0  0  0  0  0  0
    7.9010   -5.0333   24.0343 H   0  0  0  0  0  0  0  0  0  0  0  0
    8.8086   -4.3011   22.7173 H   0  0  0  0  0  0  0  0  0  0  0  0
   10.0957   -2.9262   24.3685 H   0  0  0  0  0  0  0  0  0  0  0  0
   10.3066   -4.6462   24.6593 H   0  0  0  0  0  0  0  0  0  0  0  0
    9.7305   -2.9201   26.6462 H   0  0  0  0  0  0  0  0  0  0  0  0
    8.8149   -4.8275   28.0004 H   0  0  0  0  0  0  0  0  0  0  0  0
    8.5525   -5.7542   26.5146 H   0  0  0  0  0  0  0  0  0  0  0  0
   10.1978   -5.3310   27.0135 H   0  0  0  0  0  0  0  0  0  0  0  0
  1  2  1  0
  2  3  1  0
  3  4  1  0
  4  5  1  0
  5  6  1  0
  6  7  2  0
  7  8  1  0
  8  9  1  0
  9 10  2  0
 10 11  1  0
 11 12  2  0
 12 13  1  0
 13 14  2  0
 14 15  1  0
 12 16  1  0
 11 17  1  0
 10 18  1  0
  8 19  1  0
 19 20  1  0
 20 21  1  0
 21 22  2  0
 22 23  1  0
 23 24  2  0
 24 25  1  0
 25 26  2  0
 26 27  1  0
 27 28  1  0
 25 29  1  0
 24 30  1  0
 22 31  1  0
 20 32  1  0
 20 33  1  0
 19 34  2  0
  5 35  1  0
 35 36  1  0
 36 37  1  0
 36 38  1  0
 35 39  1  0
 35 40  1  0
  5 41  1  0
  4 42  1  0
  4 43  1  0
  3 44  1  0
  3 45  1  0
  2 46  1  0
  1 47  1  0
  1 48  1  0
  1 49  1  0
 36  2  1  0
 34  6  1  0
 14  9  1  0
 26 21  1  0
M  END
>  <cnnaffinity>  (1) 
-6.30107

>  <filename>  (1) 
CC1CCC(c2nc(Cc3cnccc3O)n(-c3cccnc3)n2)CC1

$$$$
