
     RDKit          3D

 49 51  0  0  0  0  0  0  0  0999 V2000
   12.0261    2.9994   22.5183 C   0  0  0  0  0  0  0  0  0  0  0  0
   10.8942    2.4146   23.3228 C   0  0  0  0  0  0  0  0  0  0  0  0
   11.0458    2.1250   24.6869 C   0  0  0  0  0  0  0  0  0  0  0  0
    9.9594    1.6868   25.4502 C   0  0  0  0  0  0  0  0  0  0  0  0
    8.7024    1.5357   24.8619 C   0  0  0  0  0  0  0  0  0  0  0  0
    8.5357    1.6850   23.4798 C   0  0  0  0  0  0  0  0  0  0  0  0
    7.2555    1.2192   22.7987 C   0  0  0  0  0  0  0  0  0  0  0  0
    7.4233   -0.1513   22.2183 C   0  0  0  0  0  0  0  0  0  0  0  0
    7.9959   -1.1461   22.8793 N   0  0  0  0  0  0  0  0  0  0  0  0
    8.0149   -2.1534   21.9831 C   0  0  0  0  0  0  0  0  0  0  0  0
    8.6038   -3.4843   22.2779 C   0  0  0  0  0  0  0  0  0  0  0  0
    7.6187   -4.5296   22.8637 C   0  0  0  0  0  0  0  0  0  0  0  0
    8.4086   -5.8371   23.0533 C   0  0  0  0  0  0  0  0  0  0  0  0
    7.7574   -6.6451   23.4029 H   0  0  0  0  0  0  0  0  0  0  0  0
    9.2068   -5.7087   23.7961 H   0  0  0  0  0  0  0  0  0  0  0  0
    8.8614   -6.1638   22.1097 H   0  0  0  0  0  0  0  0  0  0  0  0
    7.0869   -4.0331   24.2201 C   0  0  0  0  0  0  0  0  0  0  0  0
    7.9204   -3.8154   24.8982 H   0  0  0  0  0  0  0  0  0  0  0  0
    6.5182   -3.1031   24.1083 H   0  0  0  0  0  0  0  0  0  0  0  0
    6.4357   -4.7688   24.7061 H   0  0  0  0  0  0  0  0  0  0  0  0
    6.4192   -4.7656   21.9033 C   0  0  0  0  0  0  0  0  0  0  0  0
    6.7679   -4.8370   20.5365 O   0  0  0  0  0  0  0  0  0  0  0  0
    6.9320   -3.9222   20.2468 H   0  0  0  0  0  0  0  0  0  0  0  0
    5.6573   -3.9844   22.0762 H   0  0  0  0  0  0  0  0  0  0  0  0
    5.9567   -5.7275   22.1627 H   0  0  0  0  0  0  0  0  0  0  0  0
    9.4469   -3.3464   22.9592 H   0  0  0  0  0  0  0  0  0  0  0  0
    8.9813   -3.8544   21.3274 H   0  0  0  0  0  0  0  0  0  0  0  0
    7.4618   -1.8710   20.8167 N   0  0  0  0  0  0  0  0  0  0  0  0
    7.0552   -0.5783   20.9711 N   0  0  0  0  0  0  0  0  0  0  0  0
    6.4361    0.0875   19.8757 C   0  0  0  0  0  0  0  0  0  0  0  0
    5.2374    0.8060   19.9998 C   0  0  0  0  0  0  0  0  0  0  0  0
    4.7234    1.4239   18.8515 C   0  0  0  0  0  0  0  0  0  0  0  0
    5.4241    1.3175   17.6457 C   0  0  0  0  0  0  0  0  0  0  0  0
    6.5630    0.6129   17.5206 N   0  0  0  0  0  0  0  0  0  0  0  0
    7.0389    0.0003   18.6073 C   0  0  0  0  0  0  0  0  0  0  0  0
    7.9488   -0.5832   18.4844 H   0  0  0  0  0  0  0  0  0  0  0  0
    5.0831    1.8310   16.7480 H   0  0  0  0  0  0  0  0  0  0  0  0
    3.8143    2.0163   18.8845 H   0  0  0  0  0  0  0  0  0  0  0  0
    4.7124    0.8680   20.9550 H   0  0  0  0  0  0  0  0  0  0  0  0
    6.4508    1.1634   23.5395 H   0  0  0  0  0  0  0  0  0  0  0  0
    6.9599    1.9234   22.0172 H   0  0  0  0  0  0  0  0  0  0  0  0
    9.6415    2.1264   22.7398 C   0  0  0  0  0  0  0  0  0  0  0  0
    9.4656    2.2607   21.0181 Cl  0  0  0  0  0  0  0  0  0  0  0  0
    7.8378    1.3104   25.4842 H   0  0  0  0  0  0  0  0  0  0  0  0
   10.0770    1.4364   26.4949 H   0  0  0  0  0  0  0  0  0  0  0  0
   12.0176    2.2776   25.1570 H   0  0  0  0  0  0  0  0  0  0  0  0
   11.6770    3.8760   21.9628 H   0  0  0  0  0  0  0  0  0  0  0  0
   12.8516    3.3078   23.1665 H   0  0  0  0  0  0  0  0  0  0  0  0
   12.4027    2.2774   21.7853 H   0  0  0  0  0  0  0  0  0  0  0  0
  1  2  1  0
  2  3  2  0
  3  4  1  0
  4  5  2  0
  5  6  1  0
  6  7  1  0
  7  8  1  0
  8  9  2  0
  9 10  1  0
 10 11  1  0
 11 12  1  0
 12 13  1  0
 13 14  1  0
 13 15  1  0
 13 16  1  0
 12 17  1  0
 17 18  1  0
 17 19  1  0
 17 20  1  0
 12 21  1  0
 21 22  1  0
 22 23  1  0
 21 24  1  0
 21 25  1  0
 11 26  1  0
 11 27  1  0
 10 28  2  0
 28 29  1  0
 29 30  1  0
 30 31  2  0
 31 32  1  0
 32 33  2  0
 33 34  1  0
 34 35  2  0
 35 36  1  0
 33 37  1  0
 32 38  1  0
 31 39  1  0
  7 40  1  0
  7 41  1  0
  6 42  2  0
 42 43  1  0
  5 44  1  0
  4 45  1  0
  3 46  1  0
  1 47  1  0
  1 48  1  0
  1 49  1  0
 42  2  1  0
 29  8  1  0
 35 30  1  0
M  END
>  <cnnaffinity>  (1) 
-5.97153

>  <filename>  (1) 
Cc1cccc(Cc2nc(CC(C)(C)CO)nn2-c2cccnc2)c1Cl

$$$$
