
     RDKit          3D

 49 51  0  0  0  0  0  0  0  0999 V2000
    9.4468    2.2932   21.2125 C   0  0  0  0  0  0  0  0  0  0  0  0
    9.6217    2.0344   22.6862 C   0  0  0  0  0  0  0  0  0  0  0  0
   10.8756    2.2183   23.2799 C   0  0  0  0  0  0  0  0  0  0  0  0
   11.0953    1.9155   24.6258 C   0  0  0  0  0  0  0  0  0  0  0  0
   10.0427    1.4325   25.3996 C   0  0  0  0  0  0  0  0  0  0  0  0
    8.7633    1.3445   24.8357 C   0  0  0  0  0  0  0  0  0  0  0  0
    7.4600    0.9100   25.9178 Cl  0  0  0  0  0  0  0  0  0  0  0  0
    8.5282    1.5988   23.4726 C   0  0  0  0  0  0  0  0  0  0  0  0
    7.2214    1.2053   22.7842 C   0  0  0  0  0  0  0  0  0  0  0  0
    7.3332   -0.1780   22.2106 C   0  0  0  0  0  0  0  0  0  0  0  0
    7.8749   -1.1870   22.8705 N   0  0  0  0  0  0  0  0  0  0  0  0
    7.9622   -2.1686   21.9460 C   0  0  0  0  0  0  0  0  0  0  0  0
    8.5091   -3.5132   22.2809 C   0  0  0  0  0  0  0  0  0  0  0  0
    7.5069   -4.4423   23.0230 C   0  0  0  0  0  0  0  0  0  0  0  0
    6.3406   -4.7636   22.0666 C   0  0  0  0  0  0  0  0  0  0  0  0
    6.7026   -5.1929   21.1203 H   0  0  0  0  0  0  0  0  0  0  0  0
    5.6316   -5.4746   22.5110 H   0  0  0  0  0  0  0  0  0  0  0  0
    5.7915   -3.8488   21.8106 H   0  0  0  0  0  0  0  0  0  0  0  0
    6.9712   -3.7549   24.2915 C   0  0  0  0  0  0  0  0  0  0  0  0
    6.4366   -2.8309   24.0528 H   0  0  0  0  0  0  0  0  0  0  0  0
    6.2843   -4.4177   24.8306 H   0  0  0  0  0  0  0  0  0  0  0  0
    7.7940   -3.4919   24.9691 H   0  0  0  0  0  0  0  0  0  0  0  0
    8.2401   -5.7260   23.4839 C   0  0  0  0  0  0  0  0  0  0  0  0
    8.6854   -6.5641   22.4383 O   0  0  0  0  0  0  0  0  0  0  0  0
    7.9130   -6.7666   21.8923 H   0  0  0  0  0  0  0  0  0  0  0  0
    7.5876   -6.2666   24.1903 H   0  0  0  0  0  0  0  0  0  0  0  0
    9.1407   -5.4425   24.0475 H   0  0  0  0  0  0  0  0  0  0  0  0
    9.4156   -3.3762   22.8799 H   0  0  0  0  0  0  0  0  0  0  0  0
    8.7985   -3.9707   21.3398 H   0  0  0  0  0  0  0  0  0  0  0  0
    7.5108   -1.8441   20.7514 N   0  0  0  0  0  0  0  0  0  0  0  0
    7.0593   -0.5704   20.9278 N   0  0  0  0  0  0  0  0  0  0  0  0
    6.4399    0.1052   19.8388 C   0  0  0  0  0  0  0  0  0  0  0  0
    5.2508    0.8369   19.9748 C   0  0  0  0  0  0  0  0  0  0  0  0
    4.7304    1.4601   18.8321 C   0  0  0  0  0  0  0  0  0  0  0  0
    5.4200    1.3526   17.6206 C   0  0  0  0  0  0  0  0  0  0  0  0
    6.5526    0.6421   17.4833 N   0  0  0  0  0  0  0  0  0  0  0  0
    7.0317    0.0192   18.5644 C   0  0  0  0  0  0  0  0  0  0  0  0
    7.9264   -0.5828   18.4237 H   0  0  0  0  0  0  0  0  0  0  0  0
    5.0590    1.8509   16.7222 H   0  0  0  0  0  0  0  0  0  0  0  0
    3.8173    2.0452   18.8714 H   0  0  0  0  0  0  0  0  0  0  0  0
    4.7399    0.9086   20.9380 H   0  0  0  0  0  0  0  0  0  0  0  0
    6.9828    1.9154   21.9887 H   0  0  0  0  0  0  0  0  0  0  0  0
    6.3992    1.2214   23.5016 H   0  0  0  0  0  0  0  0  0  0  0  0
   10.1939    1.1161   26.4265 H   0  0  0  0  0  0  0  0  0  0  0  0
   12.0838    2.0425   25.0634 H   0  0  0  0  0  0  0  0  0  0  0  0
   11.6873    2.5822   22.6536 H   0  0  0  0  0  0  0  0  0  0  0  0
    8.7282    3.0985   21.0325 H   0  0  0  0  0  0  0  0  0  0  0  0
    9.0663    1.4027   20.6996 H   0  0  0  0  0  0  0  0  0  0  0  0
   10.3892    2.5781   20.7429 H   0  0  0  0  0  0  0  0  0  0  0  0
  1  2  1  0
  2  3  2  0
  3  4  1  0
  4  5  2  0
  5  6  1  0
  6  7  1  0
  6  8  2  0
  8  9  1  0
  9 10  1  0
 10 11  2  0
 11 12  1  0
 12 13  1  0
 13 14  1  0
 14 15  1  0
 15 16  1  0
 15 17  1  0
 15 18  1  0
 14 19  1  0
 19 20  1  0
 19 21  1  0
 19 22  1  0
 14 23  1  0
 23 24  1  0
 24 25  1  0
 23 26  1  0
 23 27  1  0
 13 28  1  0
 13 29  1  0
 12 30  2  0
 30 31  1  0
 31 32  1  0
 32 33  2  0
 33 34  1  0
 34 35  2  0
 35 36  1  0
 36 37  2  0
 37 38  1  0
 35 39  1  0
 34 40  1  0
 33 41  1  0
  9 42  1  0
  9 43  1  0
  5 44  1  0
  4 45  1  0
  3 46  1  0
  1 47  1  0
  1 48  1  0
  1 49  1  0
  8  2  1  0
 31 10  1  0
 37 32  1  0
M  END
>  <cnnaffinity>  (1) 
-6.45622

>  <filename>  (1) 
Cc1cccc(Cl)c1Cc1nc(CC(C)(C)CO)nn1-c1cccnc1

$$$$
