
     RDKit          3D

 48 51  0  0  0  0  0  0  0  0999 V2000
   12.7249    1.0628   23.2991 C   0  0  0  0  0  0  0  0  0  0  0  0
   11.3916    1.7768   23.4039 C   0  0  0  0  0  0  0  0  0  0  0  0
   11.1342    2.6459   24.4636 C   0  0  0  0  0  0  0  0  0  0  0  0
    9.8887    3.2596   24.6571 C   0  0  0  0  0  0  0  0  0  0  0  0
    8.8659    3.0029   23.7500 C   0  0  0  0  0  0  0  0  0  0  0  0
    9.0875    2.1552   22.6608 C   0  0  0  0  0  0  0  0  0  0  0  0
   10.3376    1.5470   22.4862 C   0  0  0  0  0  0  0  0  0  0  0  0
   10.6263    0.6940   21.4492 O   0  0  0  0  0  0  0  0  0  0  0  0
    9.5940    0.1496   20.6483 C   0  0  0  0  0  0  0  0  0  0  0  0
    8.5537   -0.6775   21.3570 C   0  0  0  0  0  0  0  0  0  0  0  0
    8.7353   -1.4671   22.3920 N   0  0  0  0  0  0  0  0  0  0  0  0
    7.4999   -2.0028   22.6047 C   0  0  0  0  0  0  0  0  0  0  0  0
    7.2829   -2.9433   23.7622 C   0  0  0  0  0  0  0  0  0  0  0  0
    8.2465   -4.1596   23.7172 C   0  0  0  0  0  0  0  0  0  0  0  0
    8.1010   -5.0138   24.9800 C   0  0  0  0  0  0  0  0  0  0  0  0
    8.2942   -4.2556   26.1619 O   0  0  0  0  0  0  0  0  0  0  0  0
    7.4252   -3.1440   26.2900 C   0  0  0  0  0  0  0  0  0  0  0  0
    7.5250   -2.1940   25.0981 C   0  0  0  0  0  0  0  0  0  0  0  0
    6.8082   -1.3723   25.2180 H   0  0  0  0  0  0  0  0  0  0  0  0
    8.5333   -1.7542   25.0642 H   0  0  0  0  0  0  0  0  0  0  0  0
    6.3797   -3.4800   26.4163 H   0  0  0  0  0  0  0  0  0  0  0  0
    7.7282   -2.6329   27.2092 H   0  0  0  0  0  0  0  0  0  0  0  0
    8.8641   -5.7981   25.0045 H   0  0  0  0  0  0  0  0  0  0  0  0
    7.1126   -5.5095   24.9941 H   0  0  0  0  0  0  0  0  0  0  0  0
    8.0631   -4.7810   22.8323 H   0  0  0  0  0  0  0  0  0  0  0  0
    9.2801   -3.7884   23.6520 H   0  0  0  0  0  0  0  0  0  0  0  0
    6.2412   -3.2945   23.7106 H   0  0  0  0  0  0  0  0  0  0  0  0
    6.5761   -1.5965   21.7608 N   0  0  0  0  0  0  0  0  0  0  0  0
    7.2586   -0.7684   20.9233 N   0  0  0  0  0  0  0  0  0  0  0  0
    6.5922   -0.0764   19.8754 C   0  0  0  0  0  0  0  0  0  0  0  0
    5.3985    0.6097   20.1313 C   0  0  0  0  0  0  0  0  0  0  0  0
    4.8093    1.3150   19.0787 C   0  0  0  0  0  0  0  0  0  0  0  0
    5.4148    1.3085   17.8157 C   0  0  0  0  0  0  0  0  0  0  0  0
    6.5374    0.6256   17.5534 N   0  0  0  0  0  0  0  0  0  0  0  0
    7.1029   -0.0490   18.5614 C   0  0  0  0  0  0  0  0  0  0  0  0
    8.0142   -0.5889   18.3213 H   0  0  0  0  0  0  0  0  0  0  0  0
    4.9808    1.8615   16.9843 H   0  0  0  0  0  0  0  0  0  0  0  0
    3.8913    1.8691   19.2249 H   0  0  0  0  0  0  0  0  0  0  0  0
    4.9591    0.5834   21.1298 H   0  0  0  0  0  0  0  0  0  0  0  0
   10.1032   -0.5218   19.9516 H   0  0  0  0  0  0  0  0  0  0  0  0
    9.1127    0.9401   20.0624 H   0  0  0  0  0  0  0  0  0  0  0  0
    8.2785    1.9589   21.9639 H   0  0  0  0  0  0  0  0  0  0  0  0
    7.8881    3.4510   23.8983 H   0  0  0  0  0  0  0  0  0  0  0  0
    9.7120    3.9053   25.5135 H   0  0  0  0  0  0  0  0  0  0  0  0
   11.9566    2.8104   25.1479 H   0  0  0  0  0  0  0  0  0  0  0  0
   13.4105    1.3840   24.0910 H   0  0  0  0  0  0  0  0  0  0  0  0
   13.2208    1.2432   22.3381 H   0  0  0  0  0  0  0  0  0  0  0  0
   12.5976   -0.0228   23.3996 H   0  0  0  0  0  0  0  0  0  0  0  0
  1  2  1  0
  2  3  2  0
  3  4  1  0
  4  5  2  0
  5  6  1  0
  6  7  2  0
  7  8  1  0
  8  9  1  0
  9 10  1  0
 10 11  2  0
 11 12  1  0
 12 13  1  0
 13 14  1  0
 14 15  1  0
 15 16  1  0
 16 17  1  0
 17 18  1  0
 18 19  1  0
 18 20  1  0
 17 21  1  0
 17 22  1  0
 15 23  1  0
 15 24  1  0
 14 25  1  0
 14 26  1  0
 13 27  1  0
 12 28  2  0
 28 29  1  0
 29 30  1  0
 30 31  2  0
 31 32  1  0
 32 33  2  0
 33 34  1  0
 34 35  2  0
 35 36  1  0
 33 37  1  0
 32 38  1  0
 31 39  1  0
  9 40  1  0
  9 41  1  0
  6 42  1  0
  5 43  1  0
  4 44  1  0
  3 45  1  0
  1 46  1  0
  1 47  1  0
  1 48  1  0
  7  2  1  0
 29 10  1  0
 35 30  1  0
 18 13  1  0
M  END
>  <cnnaffinity>  (1) 
-6.15438

>  <filename>  (1) 
Cc1ccccc1OCc1nc(C2CCOCC2)nn1-c1cccnc1

$$$$
