
     RDKit          3D

 43 47  0  0  0  0  0  0  0  0999 V2000
    7.8865    0.4309   27.5869 C   0  0  0  0  0  0  0  0  0  0  0  0
    7.1638    0.8987   26.3455 C   0  0  0  0  0  0  0  0  0  0  0  0
    5.8111    1.2807   26.3603 C   0  0  0  0  0  0  0  0  0  0  0  0
    5.1415    1.7164   25.2875 N   0  0  0  0  0  0  0  0  0  0  0  0
    5.7897    1.7411   24.1158 C   0  0  0  0  0  0  0  0  0  0  0  0
    7.1193    1.3321   23.9467 C   0  0  0  0  0  0  0  0  0  0  0  0
    7.7739    1.2233   22.5682 C   0  0  0  0  0  0  0  0  0  0  0  0
    7.7969   -0.1789   22.0142 C   0  0  0  0  0  0  0  0  0  0  0  0
    8.3781   -1.2017   22.6173 N   0  0  0  0  0  0  0  0  0  0  0  0
    8.1361   -2.2424   21.7894 C   0  0  0  0  0  0  0  0  0  0  0  0
    8.4725   -3.6246   22.1832 C   0  0  0  0  0  0  0  0  0  0  0  0
    7.6272   -4.7510   21.5847 C   0  0  0  0  0  0  0  0  0  0  0  0
    7.4571   -4.3488   23.0172 C   0  0  0  0  0  0  0  0  0  0  0  0
    6.4430   -3.9006   24.0023 C   0  0  0  0  0  0  0  0  0  0  0  0
    7.4205   -5.0470   24.3188 C   0  0  0  0  0  0  0  0  0  0  0  0
    8.2380   -4.8765   25.0146 H   0  0  0  0  0  0  0  0  0  0  0  0
    7.0095   -6.0531   24.3211 H   0  0  0  0  0  0  0  0  0  0  0  0
    5.4041   -4.1367   23.7876 H   0  0  0  0  0  0  0  0  0  0  0  0
    6.6385   -2.9260   24.4540 H   0  0  0  0  0  0  0  0  0  0  0  0
    6.8515   -4.4345   20.8845 H   0  0  0  0  0  0  0  0  0  0  0  0
    8.0921   -5.7162   21.3860 H   0  0  0  0  0  0  0  0  0  0  0  0
    9.5130   -3.7455   22.4783 H   0  0  0  0  0  0  0  0  0  0  0  0
    7.5058   -1.9231   20.6752 N   0  0  0  0  0  0  0  0  0  0  0  0
    7.2706   -0.5940   20.8208 N   0  0  0  0  0  0  0  0  0  0  0  0
    6.6164    0.0805   19.7547 C   0  0  0  0  0  0  0  0  0  0  0  0
    5.5056    0.9075   19.9462 C   0  0  0  0  0  0  0  0  0  0  0  0
    4.9138    1.4837   18.8152 C   0  0  0  0  0  0  0  0  0  0  0  0
    5.4591    1.2256   17.5561 C   0  0  0  0  0  0  0  0  0  0  0  0
    6.5166    0.4149   17.3651 N   0  0  0  0  0  0  0  0  0  0  0  0
    7.0592   -0.1574   18.4421 C   0  0  0  0  0  0  0  0  0  0  0  0
    7.8927   -0.8362   18.2771 H   0  0  0  0  0  0  0  0  0  0  0  0
    5.0255    1.6627   16.6596 H   0  0  0  0  0  0  0  0  0  0  0  0
    4.0478    2.1318   18.9071 H   0  0  0  0  0  0  0  0  0  0  0  0
    5.1023    1.0700   20.9455 H   0  0  0  0  0  0  0  0  0  0  0  0
    8.8235    1.5397   22.6352 H   0  0  0  0  0  0  0  0  0  0  0  0
    7.2794    1.8881   21.8519 H   0  0  0  0  0  0  0  0  0  0  0  0
    7.8080    0.9402   25.1037 C   0  0  0  0  0  0  0  0  0  0  0  0
    8.8525    0.6341   25.0377 H   0  0  0  0  0  0  0  0  0  0  0  0
    5.2197    2.1092   23.2620 H   0  0  0  0  0  0  0  0  0  0  0  0
    5.2341    1.2147   27.2831 H   0  0  0  0  0  0  0  0  0  0  0  0
    8.7810   -0.1378   27.3162 H   0  0  0  0  0  0  0  0  0  0  0  0
    7.2453   -0.2228   28.1894 H   0  0  0  0  0  0  0  0  0  0  0  0
    8.2066    1.2637   28.2260 H   0  0  0  0  0  0  0  0  0  0  0  0
  1  2  1  0
  2  3  2  0
  3  4  1  0
  4  5  2  0
  5  6  1  0
  6  7  1  0
  7  8  1  0
  8  9  2  0
  9 10  1  0
 10 11  1  0
 11 12  1  0
 12 13  1  0
 13 14  1  0
 14 15  1  0
 15 16  1  0
 15 17  1  0
 14 18  1  0
 14 19  1  0
 12 20  1  0
 12 21  1  0
 11 22  1  0
 10 23  2  0
 23 24  1  0
 24 25  1  0
 25 26  2  0
 26 27  1  0
 27 28  2  0
 28 29  1  0
 29 30  2  0
 30 31  1  0
 28 32  1  0
 27 33  1  0
 26 34  1  0
  7 35  1  0
  7 36  1  0
  6 37  2  0
 37 38  1  0
  5 39  1  0
  3 40  1  0
  1 41  1  0
  1 42  1  0
  1 43  1  0
 37  2  1  0
 24  8  1  0
 30 25  1  0
 13 11  1  0
 15 13  1  0
M  END
>  <cnnaffinity>  (1) 
-5.86963

>  <filename>  (1) 
Cc1cncc(Cc2nc(C3CC34CC4)nn2-c2cccnc2)c1

$$$$
