
     RDKit          3D

 33 34  0  0  0  0  0  0  0  0999 V2000
    5.0636    1.7525   17.0187 H   0  0  0  0  0  0  0  0  0  0  0  0
    5.4950    1.2516   17.8850 C   0  0  0  0  0  0  0  0  0  0  0  0
    6.6584    0.6157   17.6763 N   0  0  0  0  0  0  0  0  0  0  0  0
    7.2092   -0.0077   18.7209 C   0  0  0  0  0  0  0  0  0  0  0  0
    8.1416   -0.5388   18.5520 H   0  0  0  0  0  0  0  0  0  0  0  0
    6.6689   -0.0212   20.0059 C   0  0  0  0  0  0  0  0  0  0  0  0
    7.4754   -0.7612   21.0132 C   0  0  0  0  0  0  0  0  0  0  0  0
    8.2732   -1.6377   20.7066 O   0  0  0  0  0  0  0  0  0  0  0  0
    7.2478   -0.3797   22.2959 N   0  0  0  0  0  0  0  0  0  0  0  0
    7.0590    0.6041   22.3824 H   0  0  0  0  0  0  0  0  0  0  0  0
    7.9353   -1.0193   23.3876 C   0  0  0  0  0  0  0  0  0  0  0  0
    7.6284   -2.0694   23.4115 H   0  0  0  0  0  0  0  0  0  0  0  0
    7.6359   -0.5620   24.3389 H   0  0  0  0  0  0  0  0  0  0  0  0
    9.3569   -0.9985   23.2115 N   0  0  0  0  0  0  0  0  0  0  0  0
    9.5350   -1.4443   22.3182 H   0  0  0  0  0  0  0  0  0  0  0  0
   10.1017    0.1814   23.3042 C   0  0  0  0  0  0  0  0  0  0  0  0
    9.6009    1.4266   23.7244 C   0  0  0  0  0  0  0  0  0  0  0  0
    8.5625    1.5299   24.0172 H   0  0  0  0  0  0  0  0  0  0  0  0
   10.4404    2.5497   23.7616 C   0  0  0  0  0  0  0  0  0  0  0  0
   10.0381    3.5114   24.0762 H   0  0  0  0  0  0  0  0  0  0  0  0
   11.7936    2.4763   23.4034 C   0  0  0  0  0  0  0  0  0  0  0  0
   12.6751    3.7055   23.4152 C   0  0  0  0  0  0  0  0  0  0  0  0
   13.7236    3.4491   23.6025 H   0  0  0  0  0  0  0  0  0  0  0  0
   12.3612    4.4171   24.1873 H   0  0  0  0  0  0  0  0  0  0  0  0
   12.6413    4.2353   22.4549 H   0  0  0  0  0  0  0  0  0  0  0  0
   12.2945    1.2215   23.0209 C   0  0  0  0  0  0  0  0  0  0  0  0
   13.3509    1.1354   22.7592 H   0  0  0  0  0  0  0  0  0  0  0  0
   11.4680    0.0984   22.9664 C   0  0  0  0  0  0  0  0  0  0  0  0
   11.8717   -0.8694   22.6788 H   0  0  0  0  0  0  0  0  0  0  0  0
    5.4479    0.6507   20.2202 C   0  0  0  0  0  0  0  0  0  0  0  0
    4.9662    0.6880   21.2011 H   0  0  0  0  0  0  0  0  0  0  0  0
    4.8533    1.2854   19.1302 C   0  0  0  0  0  0  0  0  0  0  0  0
    3.9213    1.8347   19.2269 H   0  0  0  0  0  0  0  0  0  0  0  0
  1  2  1  0
  2  3  2  0
  3  4  1  0
  4  5  1  0
  4  6  2  0
  6  7  1  0
  7  8  2  0
  7  9  1  0
  9 10  1  0
  9 11  1  0
 11 12  1  0
 11 13  1  0
 11 14  1  0
 14 15  1  0
 14 16  1  0
 16 17  2  0
 17 18  1  0
 17 19  1  0
 19 20  1  0
 19 21  2  0
 21 22  1  0
 22 23  1  0
 22 24  1  0
 22 25  1  0
 21 26  1  0
 26 27  1  0
 26 28  2  0
 28 29  1  0
  6 30  1  0
 30 31  1  0
 30 32  2  0
 32 33  1  0
 32  2  1  0
 28 16  1  0
M  END
>  <cnnaffinity>  (1) 
-4.82788

>  <filename>  (1) 
Cc1ccc(NCNC(=O)c2cccnc2)cc1

$$$$
