
     RDKit          3D

 42 45  0  0  0  0  0  0  0  0999 V2000
    9.5303   -0.2702   26.9145 C   0  0  0  0  0  0  0  0  0  0  0  0
    8.3336    0.1541   26.0936 C   0  0  0  0  0  0  0  0  0  0  0  0
    7.0396   -0.3043   26.4010 C   0  0  0  0  0  0  0  0  0  0  0  0
    5.9988   -0.0217   25.5234 C   0  0  0  0  0  0  0  0  0  0  0  0
    4.7624   -0.4607   25.8157 F   0  0  0  0  0  0  0  0  0  0  0  0
    6.1898    0.6863   24.3407 C   0  0  0  0  0  0  0  0  0  0  0  0
    7.4720    1.1452   24.0230 C   0  0  0  0  0  0  0  0  0  0  0  0
    7.7929    1.7284   22.6468 C   0  0  0  0  0  0  0  0  0  0  0  0
    8.7252    0.8093   21.9089 C   0  0  0  0  0  0  0  0  0  0  0  0
   10.0300    0.8904   22.0174 N   0  0  0  0  0  0  0  0  0  0  0  0
   10.4717   -0.3268   21.5751 C   0  0  0  0  0  0  0  0  0  0  0  0
   11.9237   -0.6121   21.6575 C   0  0  0  0  0  0  0  0  0  0  0  0
   12.6373   -1.5706   21.1217 N   0  0  0  0  0  0  0  0  0  0  0  0
   13.9692   -1.4074   21.4090 C   0  0  0  0  0  0  0  0  0  0  0  0
   14.2568   -0.3332   22.1931 C   0  0  0  0  0  0  0  0  0  0  0  0
   12.8505    0.5249   22.5957 S   0  0  0  0  0  0  0  0  0  0  0  0
   15.2170    0.0095   22.5195 H   0  0  0  0  0  0  0  0  0  0  0  0
   14.7031   -2.0796   20.9773 H   0  0  0  0  0  0  0  0  0  0  0  0
    9.5017   -1.1208   21.1557 N   0  0  0  0  0  0  0  0  0  0  0  0
    8.3895   -0.3760   21.3583 N   0  0  0  0  0  0  0  0  0  0  0  0
    7.0661   -0.8486   20.9714 C   0  0  0  0  0  0  0  0  0  0  0  0
    6.4326   -0.0232   19.8670 C   0  0  0  0  0  0  0  0  0  0  0  0
    5.2339    0.6796   20.0260 C   0  0  0  0  0  0  0  0  0  0  0  0
    4.7099    1.3834   18.9385 C   0  0  0  0  0  0  0  0  0  0  0  0
    5.4162    1.3787   17.7342 C   0  0  0  0  0  0  0  0  0  0  0  0
    6.5803    0.7335   17.5655 N   0  0  0  0  0  0  0  0  0  0  0  0
    7.0715    0.0659   18.6168 C   0  0  0  0  0  0  0  0  0  0  0  0
    8.0328   -0.4227   18.4625 H   0  0  0  0  0  0  0  0  0  0  0  0
    5.0260    1.9118   16.8681 H   0  0  0  0  0  0  0  0  0  0  0  0
    3.7865    1.9442   19.0170 H   0  0  0  0  0  0  0  0  0  0  0  0
    4.7228    0.7070   20.9906 H   0  0  0  0  0  0  0  0  0  0  0  0
    6.4395   -0.8461   21.8715 H   0  0  0  0  0  0  0  0  0  0  0  0
    7.2074   -1.8889   20.6631 H   0  0  0  0  0  0  0  0  0  0  0  0
    6.8855    1.9212   22.0676 H   0  0  0  0  0  0  0  0  0  0  0  0
    8.3440    2.6672   22.7449 H   0  0  0  0  0  0  0  0  0  0  0  0
    8.5135    0.9304   24.9429 C   0  0  0  0  0  0  0  0  0  0  0  0
    9.5073    1.3196   24.7219 H   0  0  0  0  0  0  0  0  0  0  0  0
    5.3298    0.8610   23.7027 H   0  0  0  0  0  0  0  0  0  0  0  0
    6.8209   -0.8728   27.2989 H   0  0  0  0  0  0  0  0  0  0  0  0
   10.4176    0.3196   26.6659 H   0  0  0  0  0  0  0  0  0  0  0  0
    9.3467   -0.1773   27.9883 H   0  0  0  0  0  0  0  0  0  0  0  0
    9.7841   -1.3199   26.7273 H   0  0  0  0  0  0  0  0  0  0  0  0
  1  2  1  0
  2  3  2  0
  3  4  1  0
  4  5  1  0
  4  6  2  0
  6  7  1  0
  7  8  1  0
  8  9  1  0
  9 10  2  0
 10 11  1  0
 11 12  1  0
 12 13  2  0
 13 14  1  0
 14 15  2  0
 15 16  1  0
 15 17  1  0
 14 18  1  0
 11 19  2  0
 19 20  1  0
 20 21  1  0
 21 22  1  0
 22 23  2  0
 23 24  1  0
 24 25  2  0
 25 26  1  0
 26 27  2  0
 27 28  1  0
 25 29  1  0
 24 30  1  0
 23 31  1  0
 21 32  1  0
 21 33  1  0
  8 34  1  0
  8 35  1  0
  7 36  2  0
 36 37  1  0
  6 38  1  0
  3 39  1  0
  1 40  1  0
  1 41  1  0
  1 42  1  0
 36  2  1  0
 20  9  1  0
 27 22  1  0
 16 12  1  0
M  END
>  <cnnaffinity>  (1) 
-6.53786

>  <filename>  (1) 
Cc1cc(F)cc(Cc2nc(-c3nccs3)nn2Cc2cccnc2)c1

$$$$
