
     RDKit          3D

 48 51  0  0  0  0  0  0  0  0999 V2000
    5.7984    7.1008   23.8490 C   0  0  0  0  0  0  0  0  0  0  0  0
    6.4262    5.8582   23.2483 C   0  0  0  0  0  0  0  0  0  0  0  0
    5.7547    5.1285   22.2614 C   0  0  0  0  0  0  0  0  0  0  0  0
    6.3025    3.9782   21.6862 C   0  0  0  0  0  0  0  0  0  0  0  0
    7.5653    3.5247   22.0943 C   0  0  0  0  0  0  0  0  0  0  0  0
    8.0290    2.3847   21.4911 O   0  0  0  0  0  0  0  0  0  0  0  0
    9.3179    1.8665   21.8049 C   0  0  0  0  0  0  0  0  0  0  0  0
    9.5175    0.5840   20.9940 C   0  0  0  0  0  0  0  0  0  0  0  0
    8.5951   -0.5064   21.4174 C   0  0  0  0  0  0  0  0  0  0  0  0
    8.8291   -1.3461   22.4036 N   0  0  0  0  0  0  0  0  0  0  0  0
    7.6519   -2.0119   22.5303 C   0  0  0  0  0  0  0  0  0  0  0  0
    7.4354   -3.0368   23.5942 C   0  0  0  0  0  0  0  0  0  0  0  0
    7.6105   -2.5015   25.0473 C   0  0  0  0  0  0  0  0  0  0  0  0
    8.9639   -3.6763   25.3889 S   0  0  0  0  0  0  0  0  0  0  0  0
    8.5319   -4.1359   23.6766 C   0  0  0  0  0  0  0  0  0  0  0  0
    8.1538   -5.1600   23.6025 H   0  0  0  0  0  0  0  0  0  0  0  0
    9.3658   -4.0008   22.9808 H   0  0  0  0  0  0  0  0  0  0  0  0
    7.9290   -1.4561   25.1116 H   0  0  0  0  0  0  0  0  0  0  0  0
    6.7436   -2.6555   25.6969 H   0  0  0  0  0  0  0  0  0  0  0  0
    6.4420   -3.4513   23.4277 H   0  0  0  0  0  0  0  0  0  0  0  0
    6.7161   -1.6507   21.6780 N   0  0  0  0  0  0  0  0  0  0  0  0
    7.3344   -0.6891   20.9351 N   0  0  0  0  0  0  0  0  0  0  0  0
    6.6524    0.0042   19.9000 C   0  0  0  0  0  0  0  0  0  0  0  0
    5.4362    0.6427   20.1635 C   0  0  0  0  0  0  0  0  0  0  0  0
    4.8093    1.3072   19.1067 C   0  0  0  0  0  0  0  0  0  0  0  0
    5.3989    1.2943   17.8374 C   0  0  0  0  0  0  0  0  0  0  0  0
    6.5571    0.6696   17.5739 N   0  0  0  0  0  0  0  0  0  0  0  0
    7.1664    0.0528   18.5930 C   0  0  0  0  0  0  0  0  0  0  0  0
    8.1128   -0.4327   18.3647 H   0  0  0  0  0  0  0  0  0  0  0  0
    4.9194    1.7863   16.9953 H   0  0  0  0  0  0  0  0  0  0  0  0
    3.8793    1.8426   19.2570 H   0  0  0  0  0  0  0  0  0  0  0  0
    5.0179    0.6168   21.1735 H   0  0  0  0  0  0  0  0  0  0  0  0
   10.5386    0.2251   21.1355 H   0  0  0  0  0  0  0  0  0  0  0  0
    9.4025    0.8019   19.9333 H   0  0  0  0  0  0  0  0  0  0  0  0
   10.1039    2.5960   21.5609 H   0  0  0  0  0  0  0  0  0  0  0  0
    9.3822    1.6249   22.8743 H   0  0  0  0  0  0  0  0  0  0  0  0
    8.2538    4.2504   23.0784 C   0  0  0  0  0  0  0  0  0  0  0  0
    7.7012    5.4062   23.6554 C   0  0  0  0  0  0  0  0  0  0  0  0
    8.4720    6.1565   24.7168 C   0  0  0  0  0  0  0  0  0  0  0  0
    7.9595    6.1346   25.6858 H   0  0  0  0  0  0  0  0  0  0  0  0
    9.4672    5.7346   24.8669 H   0  0  0  0  0  0  0  0  0  0  0  0
    8.5989    7.2153   24.4636 H   0  0  0  0  0  0  0  0  0  0  0  0
    9.2352    3.9225   23.4046 H   0  0  0  0  0  0  0  0  0  0  0  0
    5.7661    3.4394   20.9135 H   0  0  0  0  0  0  0  0  0  0  0  0
    4.7777    5.4836   21.9360 H   0  0  0  0  0  0  0  0  0  0  0  0
    5.7422    7.0479   24.9431 H   0  0  0  0  0  0  0  0  0  0  0  0
    6.3736    8.0059   23.6166 H   0  0  0  0  0  0  0  0  0  0  0  0
    4.7816    7.2667   23.4819 H   0  0  0  0  0  0  0  0  0  0  0  0
  1  2  1  0
  2  3  2  0
  3  4  1  0
  4  5  2  0
  5  6  1  0
  6  7  1  0
  7  8  1  0
  8  9  1  0
  9 10  2  0
 10 11  1  0
 11 12  1  0
 12 13  1  0
 13 14  1  0
 14 15  1  0
 15 16  1  0
 15 17  1  0
 13 18  1  0
 13 19  1  0
 12 20  1  0
 11 21  2  0
 21 22  1  0
 22 23  1  0
 23 24  2  0
 24 25  1  0
 25 26  2  0
 26 27  1  0
 27 28  2  0
 28 29  1  0
 26 30  1  0
 25 31  1  0
 24 32  1  0
  8 33  1  0
  8 34  1  0
  7 35  1  0
  7 36  1  0
  5 37  1  0
 37 38  2  0
 38 39  1  0
 39 40  1  0
 39 41  1  0
 39 42  1  0
 37 43  1  0
  4 44  1  0
  3 45  1  0
  1 46  1  0
  1 47  1  0
  1 48  1  0
 38  2  1  0
 22  9  1  0
 28 23  1  0
 15 12  1  0
M  END
>  <cnnaffinity>  (1) 
-6.01747

>  <filename>  (1) 
Cc1ccc(OCCc2nc(C3CSC3)nn2-c2cccnc2)cc1C

$$$$
