
     RDKit          3D

 33 35  0  0  0  0  0  0  0  0999 V2000
    4.9231    1.8145   16.9601 H   0  0  0  0  0  0  0  0  0  0  0  0
    5.3820    1.3094   17.8103 C   0  0  0  0  0  0  0  0  0  0  0  0
    6.5399    0.6793   17.5596 N   0  0  0  0  0  0  0  0  0  0  0  0
    7.1382    0.0620   18.5885 C   0  0  0  0  0  0  0  0  0  0  0  0
    8.0873   -0.4218   18.3636 H   0  0  0  0  0  0  0  0  0  0  0  0
    6.6228    0.0076   19.8968 C   0  0  0  0  0  0  0  0  0  0  0  0
    7.3588   -0.6877   20.9720 C   0  0  0  0  0  0  0  0  0  0  0  0
    8.6829   -0.6208   21.3469 C   0  0  0  0  0  0  0  0  0  0  0  0
    9.7861    0.2654   20.8225 C   0  0  0  0  0  0  0  0  0  0  0  0
   10.5994   -0.3773   20.4801 H   0  0  0  0  0  0  0  0  0  0  0  0
    9.4190    0.8564   19.9806 H   0  0  0  0  0  0  0  0  0  0  0  0
   10.3722    1.1905   21.8710 C   0  0  0  0  0  0  0  0  0  0  0  0
   11.5690    0.8310   22.3522 N   0  0  0  0  0  0  0  0  0  0  0  0
   12.0998    1.5613   23.3387 C   0  0  0  0  0  0  0  0  0  0  0  0
   13.0535    1.1984   23.7186 H   0  0  0  0  0  0  0  0  0  0  0  0
   11.4831    2.6956   23.8659 C   0  0  0  0  0  0  0  0  0  0  0  0
   11.9672    3.2549   24.6550 H   0  0  0  0  0  0  0  0  0  0  0  0
   10.2470    3.0876   23.3446 C   0  0  0  0  0  0  0  0  0  0  0  0
    9.7191    3.9760   23.7060 H   0  0  0  0  0  0  0  0  0  0  0  0
    9.6572    2.3226   22.3338 C   0  0  0  0  0  0  0  0  0  0  0  0
    8.3110    2.7042   21.7729 C   0  0  0  0  0  0  0  0  0  0  0  0
    8.3569    2.7303   20.6840 H   0  0  0  0  0  0  0  0  0  0  0  0
    7.9996    3.6824   22.1454 H   0  0  0  0  0  0  0  0  0  0  0  0
    7.5318    1.9757   22.0195 H   0  0  0  0  0  0  0  0  0  0  0  0
    8.7988   -1.5317   22.4266 C   0  0  0  0  0  0  0  0  0  0  0  0
    9.6905   -1.7494   23.0081 H   0  0  0  0  0  0  0  0  0  0  0  0
    7.6376   -2.1051   22.7151 N   0  0  0  0  0  0  0  0  0  0  0  0
    6.7783   -1.5625   21.8324 N   0  0  0  0  0  0  0  0  0  0  0  0
    5.8042   -1.8417   21.8504 H   0  0  0  0  0  0  0  0  0  0  0  0
    5.4046    0.6613   20.1335 C   0  0  0  0  0  0  0  0  0  0  0  0
    4.9841    0.6655   21.1409 H   0  0  0  0  0  0  0  0  0  0  0  0
    4.7827    1.3258   19.0769 C   0  0  0  0  0  0  0  0  0  0  0  0
    3.8544    1.8648   19.2189 H   0  0  0  0  0  0  0  0  0  0  0  0
  1  2  1  0
  2  3  2  0
  3  4  1  0
  4  5  1  0
  4  6  2  0
  6  7  1  0
  7  8  2  0
  8  9  1  0
  9 10  1  0
  9 11  1  0
  9 12  1  0
 12 13  2  0
 13 14  1  0
 14 15  1  0
 14 16  2  0
 16 17  1  0
 16 18  1  0
 18 19  1  0
 18 20  2  0
 20 21  1  0
 21 22  1  0
 21 23  1  0
 21 24  1  0
  8 25  1  0
 25 26  1  0
 25 27  2  0
 27 28  1  0
 28 29  1  0
  6 30  1  0
 30 31  1  0
 30 32  2  0
 32 33  1  0
 32  2  1  0
 28  7  1  0
 20 12  1  0
M  END
>  <cnnaffinity>  (1) 
-5.28999

>  <filename>  (1) 
Cc1cccnc1Cc1cn[nH]c1-c1cccnc1

$$$$
