
     RDKit          3D

 46 49  0  0  0  0  0  0  0  0999 V2000
   14.3295   -1.7874   22.0954 C   0  0  0  0  0  0  0  0  0  0  0  0
   13.0323   -1.0377   22.1368 C   0  0  0  0  0  0  0  0  0  0  0  0
   12.0596   -1.3386   21.1760 C   0  0  0  0  0  0  0  0  0  0  0  0
   10.8639   -0.6363   21.1870 C   0  0  0  0  0  0  0  0  0  0  0  0
   10.6483    0.3501   22.1632 C   0  0  0  0  0  0  0  0  0  0  0  0
    9.2588    0.9888   22.2770 C   0  0  0  0  0  0  0  0  0  0  0  0
    8.2050   -0.0877   22.2979 C   0  0  0  0  0  0  0  0  0  0  0  0
    8.1267   -0.9484   23.2945 N   0  0  0  0  0  0  0  0  0  0  0  0
    7.4470   -1.9881   22.7527 C   0  0  0  0  0  0  0  0  0  0  0  0
    7.1886   -3.1892   23.5997 C   0  0  0  0  0  0  0  0  0  0  0  0
    6.9921   -4.4988   22.8081 C   0  0  0  0  0  0  0  0  0  0  0  0
    6.5282   -5.6201   23.7034 C   0  0  0  0  0  0  0  0  0  0  0  0
    6.0896   -5.4412   24.9528 C   0  0  0  0  0  0  0  0  0  0  0  0
    5.9494   -4.0795   25.6000 C   0  0  0  0  0  0  0  0  0  0  0  0
    6.0080   -2.9446   24.5680 C   0  0  0  0  0  0  0  0  0  0  0  0
    6.1179   -1.9729   25.0660 H   0  0  0  0  0  0  0  0  0  0  0  0
    5.0739   -2.9118   23.9915 H   0  0  0  0  0  0  0  0  0  0  0  0
    5.0175   -4.0336   26.1783 H   0  0  0  0  0  0  0  0  0  0  0  0
    6.7634   -3.9484   26.3300 H   0  0  0  0  0  0  0  0  0  0  0  0
    5.8459   -6.3064   25.5689 H   0  0  0  0  0  0  0  0  0  0  0  0
    6.5424   -6.6182   23.2689 H   0  0  0  0  0  0  0  0  0  0  0  0
    6.2601   -4.3458   22.0022 H   0  0  0  0  0  0  0  0  0  0  0  0
    7.9248   -4.7851   22.3048 H   0  0  0  0  0  0  0  0  0  0  0  0
    8.0950   -3.2805   24.2137 H   0  0  0  0  0  0  0  0  0  0  0  0
    7.0331   -1.8046   21.5162 N   0  0  0  0  0  0  0  0  0  0  0  0
    7.5252   -0.5667   21.2085 N   0  0  0  0  0  0  0  0  0  0  0  0
    6.9330    0.1287   20.0982 C   0  0  0  0  0  0  0  0  0  0  0  0
    5.7102    0.7864   20.2832 C   0  0  0  0  0  0  0  0  0  0  0  0
    5.0900    1.3507   19.1665 C   0  0  0  0  0  0  0  0  0  0  0  0
    5.7034    1.2309   17.9149 C   0  0  0  0  0  0  0  0  0  0  0  0
    6.8841    0.6196   17.7346 N   0  0  0  0  0  0  0  0  0  0  0  0
    7.4830    0.0842   18.8072 C   0  0  0  0  0  0  0  0  0  0  0  0
    8.4430   -0.4014   18.6294 H   0  0  0  0  0  0  0  0  0  0  0  0
    5.2328    1.6490   17.0263 H   0  0  0  0  0  0  0  0  0  0  0  0
    4.1466    1.8781   19.2548 H   0  0  0  0  0  0  0  0  0  0  0  0
    5.2512    0.8357   21.2723 H   0  0  0  0  0  0  0  0  0  0  0  0
    9.1690    1.5430   23.2180 H   0  0  0  0  0  0  0  0  0  0  0  0
    9.0819    1.6772   21.4448 H   0  0  0  0  0  0  0  0  0  0  0  0
   11.6861    0.5714   23.0784 C   0  0  0  0  0  0  0  0  0  0  0  0
   12.8555   -0.0939   23.0693 N   0  0  0  0  0  0  0  0  0  0  0  0
   11.5671    1.3280   23.8564 H   0  0  0  0  0  0  0  0  0  0  0  0
   10.0717   -0.8794   20.4772 H   0  0  0  0  0  0  0  0  0  0  0  0
   12.2771   -2.1307   20.4697 H   0  0  0  0  0  0  0  0  0  0  0  0
   14.1672   -2.8716   22.1086 H   0  0  0  0  0  0  0  0  0  0  0  0
   14.8267   -1.5803   21.1452 H   0  0  0  0  0  0  0  0  0  0  0  0
   14.9820   -1.5153   22.9258 H   0  0  0  0  0  0  0  0  0  0  0  0
  1  2  1  0
  2  3  2  0
  3  4  1  0
  4  5  2  0
  5  6  1  0
  6  7  1  0
  7  8  2  0
  8  9  1  0
  9 10  1  0
 10 11  1  0
 11 12  1  0
 12 13  2  0
 13 14  1  0
 14 15  1  0
 15 16  1  0
 15 17  1  0
 14 18  1  0
 14 19  1  0
 13 20  1  0
 12 21  1  0
 11 22  1  0
 11 23  1  0
 10 24  1  0
  9 25  2  0
 25 26  1  0
 26 27  1  0
 27 28  2  0
 28 29  1  0
 29 30  2  0
 30 31  1  0
 31 32  2  0
 32 33  1  0
 30 34  1  0
 29 35  1  0
 28 36  1  0
  6 37  1  0
  6 38  1  0
  5 39  1  0
 39 40  2  0
 39 41  1  0
  4 42  1  0
  3 43  1  0
  1 44  1  0
  1 45  1  0
  1 46  1  0
 40  2  1  0
 26  7  1  0
 32 27  1  0
 15 10  1  0
M  END
>  <cnnaffinity>  (1) 
-6.79786

>  <filename>  (1) 
Cc1ccc(Cc2nc(C3CC=CCC3)nn2-c2cccnc2)cn1

$$$$
