
     RDKit          3D

 50 54  0  0  0  0  0  0  0  0999 V2000
   13.9271    1.5705   23.2776 C   0  0  0  0  0  0  0  0  0  0  0  0
   13.0927    0.4744   22.6889 C   0  0  0  0  0  0  0  0  0  0  0  0
   13.6610   -0.7117   22.2084 C   0  0  0  0  0  0  0  0  0  0  0  0
   12.8656   -1.6562   21.5533 C   0  0  0  0  0  0  0  0  0  0  0  0
   11.4925   -1.4529   21.4055 C   0  0  0  0  0  0  0  0  0  0  0  0
   10.9045   -0.2763   21.9196 C   0  0  0  0  0  0  0  0  0  0  0  0
    9.4482   -0.0212   21.8400 C   0  0  0  0  0  0  0  0  0  0  0  0
    8.5698   -0.8859   21.3631 N   0  0  0  0  0  0  0  0  0  0  0  0
    7.3816   -0.2621   21.5338 N   0  0  0  0  0  0  0  0  0  0  0  0
    6.1839   -0.7978   20.8892 C   0  0  0  0  0  0  0  0  0  0  0  0
    5.7746   -0.0084   19.6650 C   0  0  0  0  0  0  0  0  0  0  0  0
    4.6465    0.8189   19.6353 C   0  0  0  0  0  0  0  0  0  0  0  0
    4.4385    1.6232   18.5108 C   0  0  0  0  0  0  0  0  0  0  0  0
    5.3471    1.5474   17.4518 C   0  0  0  0  0  0  0  0  0  0  0  0
    6.4039    0.7196   17.4387 N   0  0  0  0  0  0  0  0  0  0  0  0
    6.6051   -0.0268   18.5307 C   0  0  0  0  0  0  0  0  0  0  0  0
    7.4730   -0.6890   18.5064 H   0  0  0  0  0  0  0  0  0  0  0  0
    5.2294    2.1888   16.5796 H   0  0  0  0  0  0  0  0  0  0  0  0
    3.5994    2.3069   18.4477 H   0  0  0  0  0  0  0  0  0  0  0  0
    3.9458    0.8386   20.4750 H   0  0  0  0  0  0  0  0  0  0  0  0
    5.3882   -0.8127   21.6345 H   0  0  0  0  0  0  0  0  0  0  0  0
    6.4352   -1.8318   20.6309 H   0  0  0  0  0  0  0  0  0  0  0  0
    7.5931    0.9367   22.1176 C   0  0  0  0  0  0  0  0  0  0  0  0
    6.5670    1.7972   22.7926 C   0  0  0  0  0  0  0  0  0  0  0  0
    6.3316    1.2821   24.1431 N   0  0  0  0  0  0  0  0  0  0  0  0
    7.2034    1.2505   25.1878 C   0  0  0  0  0  0  0  0  0  0  0  0
    6.8303    0.2018   26.0139 C   0  0  0  0  0  0  0  0  0  0  0  0
    7.5226   -0.3309   27.2125 C   0  0  0  0  0  0  0  0  0  0  0  0
    8.2322    0.6055   28.1468 C   0  0  0  0  0  0  0  0  0  0  0  0
    9.0310   -0.3244   27.2824 C   0  0  0  0  0  0  0  0  0  0  0  0
    9.5312   -1.1732   27.7400 H   0  0  0  0  0  0  0  0  0  0  0  0
    9.5698    0.1133   26.4431 H   0  0  0  0  0  0  0  0  0  0  0  0
    8.1838    0.4288   29.2165 H   0  0  0  0  0  0  0  0  0  0  0  0
    8.2291    1.6578   27.8718 H   0  0  0  0  0  0  0  0  0  0  0  0
    7.0382   -1.1942   27.6691 H   0  0  0  0  0  0  0  0  0  0  0  0
    5.6835   -0.3231   25.3758 C   0  0  0  0  0  0  0  0  0  0  0  0
    5.4132    0.3219   24.2534 N   0  0  0  0  0  0  0  0  0  0  0  0
    5.0822   -1.1775   25.6658 H   0  0  0  0  0  0  0  0  0  0  0  0
    8.0298    1.9529   25.2121 H   0  0  0  0  0  0  0  0  0  0  0  0
    6.9597    2.8124   22.8467 H   0  0  0  0  0  0  0  0  0  0  0  0
    5.6050    1.8020   22.2781 H   0  0  0  0  0  0  0  0  0  0  0  0
    8.8839    1.1309   22.2977 N   0  0  0  0  0  0  0  0  0  0  0  0
   11.7154    0.6649   22.5653 C   0  0  0  0  0  0  0  0  0  0  0  0
   11.2609    1.5698   22.9696 H   0  0  0  0  0  0  0  0  0  0  0  0
   10.8521   -2.1879   20.9219 H   0  0  0  0  0  0  0  0  0  0  0  0
   13.3405   -2.5509   21.1683 H   0  0  0  0  0  0  0  0  0  0  0  0
   14.7238   -0.9058   22.3482 H   0  0  0  0  0  0  0  0  0  0  0  0
   14.9837    1.3760   23.0921 H   0  0  0  0  0  0  0  0  0  0  0  0
   13.7412    1.6477   24.3541 H   0  0  0  0  0  0  0  0  0  0  0  0
   13.6740    2.5285   22.8060 H   0  0  0  0  0  0  0  0  0  0  0  0
  1  2  1  0
  2  3  2  0
  3  4  1  0
  4  5  2  0
  5  6  1  0
  6  7  1  0
  7  8  2  0
  8  9  1  0
  9 10  1  0
 10 11  1  0
 11 12  2  0
 12 13  1  0
 13 14  2  0
 14 15  1  0
 15 16  2  0
 16 17  1  0
 14 18  1  0
 13 19  1  0
 12 20  1  0
 10 21  1  0
 10 22  1  0
  9 23  1  0
 23 24  1  0
 24 25  1  0
 25 26  1  0
 26 27  2  0
 27 28  1  0
 28 29  1  0
 29 30  1  0
 30 31  1  0
 30 32  1  0
 29 33  1  0
 29 34  1  0
 28 35  1  0
 27 36  1  0
 36 37  2  0
 36 38  1  0
 26 39  1  0
 24 40  1  0
 24 41  1  0
 23 42  2  0
  6 43  2  0
 43 44  1  0
  5 45  1  0
  4 46  1  0
  3 47  1  0
  1 48  1  0
  1 49  1  0
  1 50  1  0
 43  2  1  0
 42  7  1  0
 16 11  1  0
 37 25  1  0
 30 28  1  0
M  END
>  <cnnaffinity>  (1) 
-6.34618

>  <filename>  (1) 
Cc1cccc(-c2nc(Cn3cc(C4CC4)cn3)n(Cc3cccnc3)n2)c1

$$$$
