
     RDKit          3D

 48 51  0  0  0  0  0  0  0  0999 V2000
    5.4002    1.3105   25.5368 C   0  0  0  0  0  0  0  0  0  0  0  0
    6.6133    1.5115   24.6647 C   0  0  0  0  0  0  0  0  0  0  0  0
    6.5000    2.1026   23.3977 C   0  0  0  0  0  0  0  0  0  0  0  0
    7.6263    2.3136   22.6008 C   0  0  0  0  0  0  0  0  0  0  0  0
    8.8999    1.9315   23.0490 C   0  0  0  0  0  0  0  0  0  0  0  0
   10.1208    2.0798   22.1621 C   0  0  0  0  0  0  0  0  0  0  0  0
   10.5933    0.8549   21.5900 O   0  0  0  0  0  0  0  0  0  0  0  0
    9.6798    0.2344   20.7100 C   0  0  0  0  0  0  0  0  0  0  0  0
    8.6368   -0.6350   21.3535 C   0  0  0  0  0  0  0  0  0  0  0  0
    8.8382   -1.4911   22.3310 N   0  0  0  0  0  0  0  0  0  0  0  0
    7.5932   -1.9681   22.5769 C   0  0  0  0  0  0  0  0  0  0  0  0
    7.3696   -2.9251   23.6864 C   0  0  0  0  0  0  0  0  0  0  0  0
    8.1768   -4.2365   23.5716 C   0  0  0  0  0  0  0  0  0  0  0  0
    8.3395   -4.6726   25.0324 C   0  0  0  0  0  0  0  0  0  0  0  0
    8.1068   -3.5241   25.8357 O   0  0  0  0  0  0  0  0  0  0  0  0
    7.8091   -2.3813   25.0583 C   0  0  0  0  0  0  0  0  0  0  0  0
    8.6946   -1.7241   24.9816 H   0  0  0  0  0  0  0  0  0  0  0  0
    7.0114   -1.8252   25.5692 H   0  0  0  0  0  0  0  0  0  0  0  0
    9.3440   -5.0694   25.2395 H   0  0  0  0  0  0  0  0  0  0  0  0
    7.6155   -5.4495   25.3172 H   0  0  0  0  0  0  0  0  0  0  0  0
    9.1557   -4.0445   23.1154 H   0  0  0  0  0  0  0  0  0  0  0  0
    7.6636   -4.9899   22.9681 H   0  0  0  0  0  0  0  0  0  0  0  0
    6.2991   -3.1272   23.7036 H   0  0  0  0  0  0  0  0  0  0  0  0
    6.6505   -1.5229   21.7737 N   0  0  0  0  0  0  0  0  0  0  0  0
    7.3331   -0.6847   20.9427 N   0  0  0  0  0  0  0  0  0  0  0  0
    6.6540    0.0045   19.9033 C   0  0  0  0  0  0  0  0  0  0  0  0
    5.4400    0.6484   20.1663 C   0  0  0  0  0  0  0  0  0  0  0  0
    4.8125    1.3138   19.1096 C   0  0  0  0  0  0  0  0  0  0  0  0
    5.3983    1.2966   17.8380 C   0  0  0  0  0  0  0  0  0  0  0  0
    6.5545    0.6694   17.5757 N   0  0  0  0  0  0  0  0  0  0  0  0
    7.1635    0.0472   18.5913 C   0  0  0  0  0  0  0  0  0  0  0  0
    8.1089   -0.4354   18.3582 H   0  0  0  0  0  0  0  0  0  0  0  0
    4.9199    1.7864   16.9936 H   0  0  0  0  0  0  0  0  0  0  0  0
    3.8792    1.8393   19.2590 H   0  0  0  0  0  0  0  0  0  0  0  0
    5.0208    0.6050   21.1751 H   0  0  0  0  0  0  0  0  0  0  0  0
    9.1911    0.9979   20.0885 H   0  0  0  0  0  0  0  0  0  0  0  0
   10.2532   -0.4449   20.0739 H   0  0  0  0  0  0  0  0  0  0  0  0
   10.9762    2.4548   22.7334 H   0  0  0  0  0  0  0  0  0  0  0  0
    9.9071    2.7835   21.3428 H   0  0  0  0  0  0  0  0  0  0  0  0
    9.0152    1.3317   24.3116 C   0  0  0  0  0  0  0  0  0  0  0  0
    7.8878    1.1281   25.1090 C   0  0  0  0  0  0  0  0  0  0  0  0
    8.0038    0.6783   26.0957 H   0  0  0  0  0  0  0  0  0  0  0  0
    9.9951    1.0074   24.6580 H   0  0  0  0  0  0  0  0  0  0  0  0
    7.5087    2.7549   21.6102 H   0  0  0  0  0  0  0  0  0  0  0  0
    5.5180    2.4111   23.0391 H   0  0  0  0  0  0  0  0  0  0  0  0
    5.2166    2.1864   26.1705 H   0  0  0  0  0  0  0  0  0  0  0  0
    5.5283    0.4462   26.1990 H   0  0  0  0  0  0  0  0  0  0  0  0
    4.4991    1.1442   24.9368 H   0  0  0  0  0  0  0  0  0  0  0  0
  1  2  1  0
  2  3  2  0
  3  4  1  0
  4  5  2  0
  5  6  1  0
  6  7  1  0
  7  8  1  0
  8  9  1  0
  9 10  2  0
 10 11  1  0
 11 12  1  0
 12 13  1  0
 13 14  1  0
 14 15  1  0
 15 16  1  0
 16 17  1  0
 16 18  1  0
 14 19  1  0
 14 20  1  0
 13 21  1  0
 13 22  1  0
 12 23  1  0
 11 24  2  0
 24 25  1  0
 25 26  1  0
 26 27  2  0
 27 28  1  0
 28 29  2  0
 29 30  1  0
 30 31  2  0
 31 32  1  0
 29 33  1  0
 28 34  1  0
 27 35  1  0
  8 36  1  0
  8 37  1  0
  6 38  1  0
  6 39  1  0
  5 40  1  0
 40 41  2  0
 41 42  1  0
 40 43  1  0
  4 44  1  0
  3 45  1  0
  1 46  1  0
  1 47  1  0
  1 48  1  0
 41  2  1  0
 25  9  1  0
 31 26  1  0
 16 12  1  0
M  END
>  <cnnaffinity>  (1) 
-5.63653

>  <filename>  (1) 
Cc1ccc(COCc2nc(C3CCOC3)nn2-c2cccnc2)cc1

$$$$
