
     RDKit          3D

 42 45  0  0  0  0  0  0  0  0999 V2000
   12.0495    0.5354   23.3734 C   0  0  0  0  0  0  0  0  0  0  0  0
   12.0996   -0.1251   22.0422 C   0  0  0  0  0  0  0  0  0  0  0  0
   12.5368   -1.4732   21.8318 C   0  0  0  0  0  0  0  0  0  0  0  0
   11.9184   -2.0948   21.0152 O   0  0  0  0  0  0  0  0  0  0  0  0
   10.8040   -0.2484   21.2714 N   0  0  0  0  0  0  0  0  0  0  0  0
   10.7991   -0.2538   21.2718 C   0  0  0  0  0  0  0  0  0  0  0  0
    9.9739    1.0563   21.0424 C   0  0  0  0  0  0  0  0  0  0  0  0
    8.8894    1.1224   22.0137 C   0  0  0  0  0  0  0  0  0  0  0  0
    8.8611    1.8799   23.0768 N   0  0  0  0  0  0  0  0  0  0  0  0
    7.7811    1.4219   23.7719 C   0  0  0  0  0  0  0  0  0  0  0  0
    7.3875    1.9800   25.0844 C   0  0  0  0  0  0  0  0  0  0  0  0
    8.1916    2.9474   25.7191 C   0  0  0  0  0  0  0  0  0  0  0  0
    7.8003    3.4796   26.9482 C   0  0  0  0  0  0  0  0  0  0  0  0
    6.6223    3.0469   27.5650 C   0  0  0  0  0  0  0  0  0  0  0  0
    5.8253    2.0818   26.9406 C   0  0  0  0  0  0  0  0  0  0  0  0
    6.2005    1.5486   25.7085 C   0  0  0  0  0  0  0  0  0  0  0  0
    5.5862    0.7965   25.2185 H   0  0  0  0  0  0  0  0  0  0  0  0
    4.9086    1.7444   27.4124 H   0  0  0  0  0  0  0  0  0  0  0  0
    6.3265    3.4597   28.5276 H   0  0  0  0  0  0  0  0  0  0  0  0
    8.4118    4.2430   27.4165 H   0  0  0  0  0  0  0  0  0  0  0  0
    9.1117    3.2835   25.2477 H   0  0  0  0  0  0  0  0  0  0  0  0
    7.1498    0.4277   23.1637 N   0  0  0  0  0  0  0  0  0  0  0  0
    7.8728    0.2257   22.0363 N   0  0  0  0  0  0  0  0  0  0  0  0
    7.3668   -0.6954   21.0121 C   0  0  0  0  0  0  0  0  0  0  0  0
    6.6263   -0.0063   19.8724 C   0  0  0  0  0  0  0  0  0  0  0  0
    5.4246    0.6533   20.1319 C   0  0  0  0  0  0  0  0  0  0  0  0
    4.7884    1.3154   19.0775 C   0  0  0  0  0  0  0  0  0  0  0  0
    5.3827    1.3038   17.8103 C   0  0  0  0  0  0  0  0  0  0  0  0
    6.5357    0.6757   17.5441 N   0  0  0  0  0  0  0  0  0  0  0  0
    7.1352    0.0475   18.5598 C   0  0  0  0  0  0  0  0  0  0  0  0
    8.0836   -0.4319   18.3123 H   0  0  0  0  0  0  0  0  0  0  0  0
    4.9200    1.8198   16.9713 H   0  0  0  0  0  0  0  0  0  0  0  0
    3.8590    1.8544   19.2281 H   0  0  0  0  0  0  0  0  0  0  0  0
    5.0231    0.6515   21.1481 H   0  0  0  0  0  0  0  0  0  0  0  0
    6.7023   -1.3630   21.5739 H   0  0  0  0  0  0  0  0  0  0  0  0
    8.1589   -1.3276   20.5905 H   0  0  0  0  0  0  0  0  0  0  0  0
   10.5229    1.9702   21.0855 H   0  0  0  0  0  0  0  0  0  0  0  0
    9.4526    0.9616   20.0967 H   0  0  0  0  0  0  0  0  0  0  0  0
   13.2682   -1.9747   22.4756 H   0  0  0  0  0  0  0  0  0  0  0  0
   12.9811    0.3442   23.9156 H   0  0  0  0  0  0  0  0  0  0  0  0
   11.9594    1.6192   23.2349 H   0  0  0  0  0  0  0  0  0  0  0  0
   11.1807    0.2080   23.9686 H   0  0  0  0  0  0  0  0  0  0  0  0
  1  2  1  0
  2  3  2  0
  3  4  1  0
  4  5  1  0
  5  6  2  0
  6  7  1  0
  7  8  1  0
  8  9  2  0
  9 10  1  0
 10 11  1  0
 11 12  2  0
 12 13  1  0
 13 14  2  0
 14 15  1  0
 15 16  2  0
 16 17  1  0
 15 18  1  0
 14 19  1  0
 13 20  1  0
 12 21  1  0
 10 22  2  0
 22 23  1  0
 23 24  1  0
 24 25  1  0
 25 26  2  0
 26 27  1  0
 27 28  2  0
 28 29  1  0
 29 30  2  0
 30 31  1  0
 28 32  1  0
 27 33  1  0
 26 34  1  0
 24 35  1  0
 24 36  1  0
  7 37  1  0
  7 38  1  0
  3 39  1  0
  1 40  1  0
  1 41  1  0
  1 42  1  0
  6  2  1  0
 23  8  1  0
 30 25  1  0
 16 11  1  0
M  END
>  <cnnaffinity>  (1) 
-6.12095

>  <filename>  (1) 
Cc1conc1Cc1nc(-c2ccccc2)nn1Cc1cccnc1

$$$$
