
     RDKit          3D

 40 43  0  0  0  0  0  0  0  0999 V2000
    7.8721    2.7286   22.0728 C   0  0  0  0  0  0  0  0  0  0  0  0
    9.2498    2.3225   22.4994 C   0  0  0  0  0  0  0  0  0  0  0  0
    9.9694    2.8490   23.5185 C   0  0  0  0  0  0  0  0  0  0  0  0
   11.1903    2.0803   23.5597 C   0  0  0  0  0  0  0  0  0  0  0  0
   11.2117    1.1630   22.6207 N   0  0  0  0  0  0  0  0  0  0  0  0
   10.0348    1.3154   21.9518 N   0  0  0  0  0  0  0  0  0  0  0  0
    9.6127    0.4326   20.8630 C   0  0  0  0  0  0  0  0  0  0  0  0
    8.6165   -0.5409   21.3760 C   0  0  0  0  0  0  0  0  0  0  0  0
    8.8714   -1.3806   22.3314 N   0  0  0  0  0  0  0  0  0  0  0  0
    7.6521   -2.0199   22.5229 C   0  0  0  0  0  0  0  0  0  0  0  0
    7.4293   -3.0387   23.5673 C   0  0  0  0  0  0  0  0  0  0  0  0
    8.4596   -3.4330   24.4472 C   0  0  0  0  0  0  0  0  0  0  0  0
    8.2374   -4.4001   25.4367 C   0  0  0  0  0  0  0  0  0  0  0  0
    9.6508   -4.9189   26.6227 Br  0  0  0  0  0  0  0  0  0  0  0  0
    6.9743   -4.9874   25.5577 C   0  0  0  0  0  0  0  0  0  0  0  0
    5.9394   -4.6091   24.6966 C   0  0  0  0  0  0  0  0  0  0  0  0
    6.1652   -3.6420   23.7122 C   0  0  0  0  0  0  0  0  0  0  0  0
    5.3456   -3.3559   23.0578 H   0  0  0  0  0  0  0  0  0  0  0  0
    4.9575   -5.0637   24.7949 H   0  0  0  0  0  0  0  0  0  0  0  0
    6.8006   -5.7365   26.3252 H   0  0  0  0  0  0  0  0  0  0  0  0
    9.4507   -2.9929   24.3789 H   0  0  0  0  0  0  0  0  0  0  0  0
    6.7046   -1.6295   21.7009 N   0  0  0  0  0  0  0  0  0  0  0  0
    7.3094   -0.6966   20.9359 N   0  0  0  0  0  0  0  0  0  0  0  0
    6.6648    0.0047   19.9123 C   0  0  0  0  0  0  0  0  0  0  0  0
    5.4462    0.6409   20.1630 C   0  0  0  0  0  0  0  0  0  0  0  0
    4.8243    1.3016   19.1026 C   0  0  0  0  0  0  0  0  0  0  0  0
    5.4048    1.2960   17.8272 C   0  0  0  0  0  0  0  0  0  0  0  0
    6.5764    0.6790   17.5823 N   0  0  0  0  0  0  0  0  0  0  0  0
    7.1908    0.0603   18.6077 C   0  0  0  0  0  0  0  0  0  0  0  0
    8.1315   -0.4419   18.4052 H   0  0  0  0  0  0  0  0  0  0  0  0
    4.8886    1.8011   17.0138 H   0  0  0  0  0  0  0  0  0  0  0  0
    3.8883    1.8270   19.2563 H   0  0  0  0  0  0  0  0  0  0  0  0
    5.0064    0.6254   21.1622 H   0  0  0  0  0  0  0  0  0  0  0  0
    9.1858    0.9981   20.0339 H   0  0  0  0  0  0  0  0  0  0  0  0
   10.4757   -0.1381   20.5221 H   0  0  0  0  0  0  0  0  0  0  0  0
   11.9764    2.2305   24.2889 H   0  0  0  0  0  0  0  0  0  0  0  0
    9.6709    3.6530   24.1811 H   0  0  0  0  0  0  0  0  0  0  0  0
    7.5986    3.6999   22.5042 H   0  0  0  0  0  0  0  0  0  0  0  0
    7.1489    1.9750   22.3964 H   0  0  0  0  0  0  0  0  0  0  0  0
    7.8319    2.7904   20.9860 H   0  0  0  0  0  0  0  0  0  0  0  0
  1  2  1  0
  2  3  2  0
  3  4  1  0
  4  5  2  0
  5  6  1  0
  6  7  1  0
  7  8  1  0
  8  9  2  0
  9 10  1  0
 10 11  1  0
 11 12  2  0
 12 13  1  0
 13 14  1  0
 13 15  2  0
 15 16  1  0
 16 17  2  0
 17 18  1  0
 16 19  1  0
 15 20  1  0
 12 21  1  0
 10 22  2  0
 22 23  1  0
 23 24  1  0
 24 25  2  0
 25 26  1  0
 26 27  2  0
 27 28  1  0
 28 29  2  0
 29 30  1  0
 27 31  1  0
 26 32  1  0
 25 33  1  0
  7 34  1  0
  7 35  1  0
  4 36  1  0
  3 37  1  0
  1 38  1  0
  1 39  1  0
  1 40  1  0
  6  2  1  0
 23  8  1  0
 29 24  1  0
 17 11  1  0
M  END
>  <cnnaffinity>  (1) 
-6.12279

>  <filename>  (1) 
Cc1ccnn1Cc1nc(-c2cccc(Br)c2)nn1-c1cccnc1

$$$$
