
     RDKit          3D

 40 42  0  0  0  0  0  0  0  0999 V2000
    7.6933   -5.9395   26.0945 C   0  0  0  0  0  0  0  0  0  0  0  0
    6.4197   -6.0579   25.2833 C   0  0  0  0  0  0  0  0  0  0  0  0
    5.3819   -6.8993   25.7229 C   0  0  0  0  0  0  0  0  0  0  0  0
    4.3012   -7.2135   24.8909 C   0  0  0  0  0  0  0  0  0  0  0  0
    4.2421   -6.6682   23.6083 C   0  0  0  0  0  0  0  0  0  0  0  0
    5.2062   -5.7338   23.2078 C   0  0  0  0  0  0  0  0  0  0  0  0
    6.2841   -5.3910   24.0413 C   0  0  0  0  0  0  0  0  0  0  0  0
    7.2526   -4.2731   23.6764 C   0  0  0  0  0  0  0  0  0  0  0  0
    7.0418   -2.9972   24.5217 C   0  0  0  0  0  0  0  0  0  0  0  0
    8.0668   -1.8827   24.2626 C   0  0  0  0  0  0  0  0  0  0  0  0
    8.0704   -1.4321   22.8792 N   0  0  0  0  0  0  0  0  0  0  0  0
    8.9437   -1.7445   21.8824 C   0  0  0  0  0  0  0  0  0  0  0  0
    8.5526   -1.2922   20.7199 N   0  0  0  0  0  0  0  0  0  0  0  0
    7.3581   -0.6542   20.9564 C   0  0  0  0  0  0  0  0  0  0  0  0
    6.6275    0.0136   19.8800 C   0  0  0  0  0  0  0  0  0  0  0  0
    5.4055    0.6776   20.0814 C   0  0  0  0  0  0  0  0  0  0  0  0
    4.8207    1.3250   18.9960 C   0  0  0  0  0  0  0  0  0  0  0  0
    5.4672    1.2849   17.7559 C   0  0  0  0  0  0  0  0  0  0  0  0
    6.6226    0.6375   17.5418 N   0  0  0  0  0  0  0  0  0  0  0  0
    7.1812    0.0206   18.5871 C   0  0  0  0  0  0  0  0  0  0  0  0
    8.1196   -0.4982   18.4025 H   0  0  0  0  0  0  0  0  0  0  0  0
    5.0378    1.7897   16.8937 H   0  0  0  0  0  0  0  0  0  0  0  0
    3.8876    1.8662   19.0990 H   0  0  0  0  0  0  0  0  0  0  0  0
    4.9217    0.6946   21.0599 H   0  0  0  0  0  0  0  0  0  0  0  0
    7.0425   -0.7415   22.2822 C   0  0  0  0  0  0  0  0  0  0  0  0
    6.1859   -0.4088   22.8520 H   0  0  0  0  0  0  0  0  0  0  0  0
    9.8502   -2.3125   22.0709 H   0  0  0  0  0  0  0  0  0  0  0  0
    9.0900   -2.1817   24.5135 H   0  0  0  0  0  0  0  0  0  0  0  0
    7.8328   -1.0167   24.8907 H   0  0  0  0  0  0  0  0  0  0  0  0
    7.0462   -3.2291   25.5919 H   0  0  0  0  0  0  0  0  0  0  0  0
    6.0376   -2.6010   24.3092 H   0  0  0  0  0  0  0  0  0  0  0  0
    8.2901   -4.6291   23.7978 H   0  0  0  0  0  0  0  0  0  0  0  0
    7.1378   -4.0055   22.6194 H   0  0  0  0  0  0  0  0  0  0  0  0
    5.1160   -5.2445   22.2421 H   0  0  0  0  0  0  0  0  0  0  0  0
    3.4499   -6.9557   22.9232 H   0  0  0  0  0  0  0  0  0  0  0  0
    3.5246   -7.8981   25.2209 H   0  0  0  0  0  0  0  0  0  0  0  0
    5.4234   -7.3439   26.7163 H   0  0  0  0  0  0  0  0  0  0  0  0
    7.9752   -4.8976   26.2678 H   0  0  0  0  0  0  0  0  0  0  0  0
    8.5428   -6.3862   25.5593 H   0  0  0  0  0  0  0  0  0  0  0  0
    7.5986   -6.4278   27.0685 H   0  0  0  0  0  0  0  0  0  0  0  0
  1  2  1  0
  2  3  2  0
  3  4  1  0
  4  5  2  0
  5  6  1  0
  6  7  2  0
  7  8  1  0
  8  9  1  0
  9 10  1  0
 10 11  1  0
 11 12  1  0
 12 13  2  0
 13 14  1  0
 14 15  1  0
 15 16  2  0
 16 17  1  0
 17 18  2  0
 18 19  1  0
 19 20  2  0
 20 21  1  0
 18 22  1  0
 17 23  1  0
 16 24  1  0
 14 25  2  0
 25 26  1  0
 12 27  1  0
 10 28  1  0
 10 29  1  0
  9 30  1  0
  9 31  1  0
  8 32  1  0
  8 33  1  0
  6 34  1  0
  5 35  1  0
  4 36  1  0
  3 37  1  0
  1 38  1  0
  1 39  1  0
  1 40  1  0
  7  2  1  0
 25 11  1  0
 20 15  1  0
M  END
>  <cnnaffinity>  (1) 
-5.47459

>  <filename>  (1) 
Cc1ccccc1CCCn1cnc(-c2cccnc2)c1

$$$$
