
     RDKit          3D

 48 51  0  0  0  0  0  0  0  0999 V2000
   13.5926    0.8596   21.9862 C   0  0  0  0  0  0  0  0  0  0  0  0
   12.7690    0.3691   23.1035 C   0  0  0  0  0  0  0  0  0  0  0  0
   13.3260    0.6021   24.3351 C   0  0  0  0  0  0  0  0  0  0  0  0
   12.6843    0.2445   25.4872 C   0  0  0  0  0  0  0  0  0  0  0  0
   11.4070   -0.3234   25.4338 C   0  0  0  0  0  0  0  0  0  0  0  0
   10.8442   -0.5992   24.1817 C   0  0  0  0  0  0  0  0  0  0  0  0
   11.5185   -0.2607   22.9920 C   0  0  0  0  0  0  0  0  0  0  0  0
   10.9309   -0.4540   21.6048 C   0  0  0  0  0  0  0  0  0  0  0  0
   10.1090    0.7696   21.1049 C   0  0  0  0  0  0  0  0  0  0  0  0
    8.9358    1.0671   21.9754 C   0  0  0  0  0  0  0  0  0  0  0  0
    8.8958    1.9413   22.9597 N   0  0  0  0  0  0  0  0  0  0  0  0
    7.7864    1.5730   23.6565 C   0  0  0  0  0  0  0  0  0  0  0  0
    7.4137    2.2126   24.9579 C   0  0  0  0  0  0  0  0  0  0  0  0
    6.1980    1.9222   25.6106 C   0  0  0  0  0  0  0  0  0  0  0  0
    5.9092    2.5590   26.8198 C   0  0  0  0  0  0  0  0  0  0  0  0
    6.7271    3.4354   27.4191 N   0  0  0  0  0  0  0  0  0  0  0  0
    7.8919    3.6965   26.8101 C   0  0  0  0  0  0  0  0  0  0  0  0
    8.2818    3.1213   25.5998 C   0  0  0  0  0  0  0  0  0  0  0  0
    9.2463    3.3754   25.1685 H   0  0  0  0  0  0  0  0  0  0  0  0
    8.5489    4.4069   27.3077 H   0  0  0  0  0  0  0  0  0  0  0  0
    4.9699    2.3502   27.3282 H   0  0  0  0  0  0  0  0  0  0  0  0
    5.4947    1.2065   25.1945 H   0  0  0  0  0  0  0  0  0  0  0  0
    7.1155    0.5697   23.1100 N   0  0  0  0  0  0  0  0  0  0  0  0
    7.8648    0.2459   22.0325 N   0  0  0  0  0  0  0  0  0  0  0  0
    7.3665   -0.6889   21.0245 C   0  0  0  0  0  0  0  0  0  0  0  0
    6.6596   -0.0015   19.8757 C   0  0  0  0  0  0  0  0  0  0  0  0
    5.4499    0.6600   20.1201 C   0  0  0  0  0  0  0  0  0  0  0  0
    4.8218    1.3164   19.0630 C   0  0  0  0  0  0  0  0  0  0  0  0
    5.4266    1.2910   17.8029 C   0  0  0  0  0  0  0  0  0  0  0  0
    6.5775    0.6510   17.5462 N   0  0  0  0  0  0  0  0  0  0  0  0
    7.1692    0.0232   18.5707 C   0  0  0  0  0  0  0  0  0  0  0  0
    8.0960   -0.5046   18.3331 H   0  0  0  0  0  0  0  0  0  0  0  0
    4.9640    1.8023   16.9612 H   0  0  0  0  0  0  0  0  0  0  0  0
    3.8887    1.8493   19.2057 H   0  0  0  0  0  0  0  0  0  0  0  0
    5.0250    0.6596   21.1269 H   0  0  0  0  0  0  0  0  0  0  0  0
    8.2062   -1.2961   20.6667 H   0  0  0  0  0  0  0  0  0  0  0  0
    6.6732   -1.3490   21.5527 H   0  0  0  0  0  0  0  0  0  0  0  0
   10.7426    1.6627   21.0771 H   0  0  0  0  0  0  0  0  0  0  0  0
    9.7512    0.5886   20.0876 H   0  0  0  0  0  0  0  0  0  0  0  0
   10.3056   -1.3547   21.5948 H   0  0  0  0  0  0  0  0  0  0  0  0
   11.7568   -0.6323   20.9048 H   0  0  0  0  0  0  0  0  0  0  0  0
    9.8681   -1.0814   24.1221 H   0  0  0  0  0  0  0  0  0  0  0  0
   10.8578   -0.5759   26.3390 H   0  0  0  0  0  0  0  0  0  0  0  0
   13.3323    0.4310   26.3298 H   0  0  0  0  0  0  0  0  0  0  0  0
   14.2879    1.0799   24.3473 H   0  0  0  0  0  0  0  0  0  0  0  0
   14.3898    1.5149   22.3537 H   0  0  0  0  0  0  0  0  0  0  0  0
   14.0872    0.0429   21.4472 H   0  0  0  0  0  0  0  0  0  0  0  0
   12.9600    1.4685   21.3327 H   0  0  0  0  0  0  0  0  0  0  0  0
  1  2  1  0
  2  3  2  0
  3  4  1  0
  4  5  2  0
  5  6  1  0
  6  7  2  0
  7  8  1  0
  8  9  1  0
  9 10  1  0
 10 11  2  0
 11 12  1  0
 12 13  1  0
 13 14  2  0
 14 15  1  0
 15 16  2  0
 16 17  1  0
 17 18  2  0
 18 19  1  0
 17 20  1  0
 15 21  1  0
 14 22  1  0
 12 23  2  0
 23 24  1  0
 24 25  1  0
 25 26  1  0
 26 27  2  0
 27 28  1  0
 28 29  2  0
 29 30  1  0
 30 31  2  0
 31 32  1  0
 29 33  1  0
 28 34  1  0
 27 35  1  0
 25 36  1  0
 25 37  1  0
  9 38  1  0
  9 39  1  0
  8 40  1  0
  8 41  1  0
  6 42  1  0
  5 43  1  0
  4 44  1  0
  3 45  1  0
  1 46  1  0
  1 47  1  0
  1 48  1  0
  7  2  1  0
 24 10  1  0
 31 26  1  0
 18 13  1  0
M  END
>  <cnnaffinity>  (1) 
-6.29823

>  <filename>  (1) 
Cc1ccccc1CCc1nc(-c2ccncc2)nn1Cc1cccnc1

$$$$
