
     RDKit          3D

 42 45  0  0  0  0  0  0  0  0999 V2000
   16.0242   -0.3205   19.6579 C   0  0  0  0  0  0  0  0  0  0  0  0
   14.7201   -0.7844   20.5378 C   0  0  0  0  0  0  0  0  0  0  0  0
   13.7545   -1.7834   20.3392 C   0  0  0  0  0  0  0  0  0  0  0  0
   12.4642   -1.6274   20.8708 C   0  0  0  0  0  0  0  0  0  0  0  0
   12.0920   -0.5054   21.6301 C   0  0  0  0  0  0  0  0  0  0  0  0
   10.6545   -0.1311   21.7333 C   0  0  0  0  0  0  0  0  0  0  0  0
    9.6905   -0.9019   21.2445 N   0  0  0  0  0  0  0  0  0  0  0  0
    8.5670   -0.1908   21.4655 N   0  0  0  0  0  0  0  0  0  0  0  0
    7.2685   -0.7130   21.0441 C   0  0  0  0  0  0  0  0  0  0  0  0
    6.5767    0.0587   19.9325 C   0  0  0  0  0  0  0  0  0  0  0  0
    5.3431    0.7006   20.0995 C   0  0  0  0  0  0  0  0  0  0  0  0
    4.7609    1.3550   19.0097 C   0  0  0  0  0  0  0  0  0  0  0  0
    5.4322    1.3394   17.7846 C   0  0  0  0  0  0  0  0  0  0  0  0
    6.6077    0.7189   17.5977 N   0  0  0  0  0  0  0  0  0  0  0  0
    7.1572    0.1053   18.6528 C   0  0  0  0  0  0  0  0  0  0  0  0
    8.1073   -0.3949   18.4678 H   0  0  0  0  0  0  0  0  0  0  0  0
    5.0096    1.8415   16.9150 H   0  0  0  0  0  0  0  0  0  0  0  0
    3.8176    1.8826   19.0978 H   0  0  0  0  0  0  0  0  0  0  0  0
    4.8350    0.6885   21.0664 H   0  0  0  0  0  0  0  0  0  0  0  0
    6.6185   -0.7713   21.9238 H   0  0  0  0  0  0  0  0  0  0  0  0
    7.4717   -1.7384   20.7228 H   0  0  0  0  0  0  0  0  0  0  0  0
    8.8882    0.9622   22.0837 C   0  0  0  0  0  0  0  0  0  0  0  0
    7.8448    1.8031   22.7791 C   0  0  0  0  0  0  0  0  0  0  0  0
    7.4423    1.1715   24.1112 C   0  0  0  0  0  0  0  0  0  0  0  0
    8.2971    0.9191   25.1400 C   0  0  0  0  0  0  0  0  0  0  0  0
    7.6969    0.2119   26.0985 O   0  0  0  0  0  0  0  0  0  0  0  0
    6.3940   -0.0287   25.7350 N   0  0  0  0  0  0  0  0  0  0  0  0
    6.2456    0.5427   24.5650 C   0  0  0  0  0  0  0  0  0  0  0  0
    5.2759    0.4811   24.0857 H   0  0  0  0  0  0  0  0  0  0  0  0
    9.3454    1.1538   25.2880 H   0  0  0  0  0  0  0  0  0  0  0  0
    6.9784    1.9394   22.1222 H   0  0  0  0  0  0  0  0  0  0  0  0
    8.2873    2.7925   22.9322 H   0  0  0  0  0  0  0  0  0  0  0  0
   10.1972    1.0420   22.2521 N   0  0  0  0  0  0  0  0  0  0  0  0
   13.1306    0.2896   22.1513 C   0  0  0  0  0  0  0  0  0  0  0  0
   14.4065    0.0894   21.6436 C   0  0  0  0  0  0  0  0  0  0  0  0
   15.3468    0.9130   22.1383 F   0  0  0  0  0  0  0  0  0  0  0  0
   12.9691    1.1019   22.8553 H   0  0  0  0  0  0  0  0  0  0  0  0
   11.6735   -2.3287   20.6731 H   0  0  0  0  0  0  0  0  0  0  0  0
   13.9660   -2.6976   19.7933 H   0  0  0  0  0  0  0  0  0  0  0  0
   16.4211    0.5436   20.1628 H   0  0  0  0  0  0  0  0  0  0  0  0
   15.9492    0.1316   18.6638 H   0  0  0  0  0  0  0  0  0  0  0  0
   16.8261   -1.0564   19.6423 H   0  0  0  0  0  0  0  0  0  0  0  0
  1  2  1  0
  2  3  2  0
  3  4  1  0
  4  5  2  0
  5  6  1  0
  6  7  2  0
  7  8  1  0
  8  9  1  0
  9 10  1  0
 10 11  2  0
 11 12  1  0
 12 13  2  0
 13 14  1  0
 14 15  2  0
 15 16  1  0
 13 17  1  0
 12 18  1  0
 11 19  1  0
  9 20  1  0
  9 21  1  0
  8 22  1  0
 22 23  1  0
 23 24  1  0
 24 25  2  0
 25 26  1  0
 26 27  1  0
 27 28  2  0
 28 29  1  0
 25 30  1  0
 23 31  1  0
 23 32  1  0
 22 33  2  0
  5 34  1  0
 34 35  2  0
 35 36  1  0
 34 37  1  0
  4 38  1  0
  3 39  1  0
  1 40  1  0
  1 41  1  0
  1 42  1  0
 35  2  1  0
 33  6  1  0
 15 10  1  0
 28 24  1  0
M  END
>  <cnnaffinity>  (1) 
-6.5491

>  <filename>  (1) 
Cc1ccc(-c2nc(Cc3cnoc3)n(Cc3cccnc3)n2)cc1F

$$$$
