
     RDKit          3D

 46 48  0  0  0  0  0  0  0  0999 V2000
   11.9452    1.8458   22.7420 C   0  0  0  0  0  0  0  0  0  0  0  0
   10.6506    1.8201   23.5368 C   0  0  0  0  0  0  0  0  0  0  0  0
   10.7015    1.6406   24.9255 C   0  0  0  0  0  0  0  0  0  0  0  0
    9.5397    1.5398   25.6912 C   0  0  0  0  0  0  0  0  0  0  0  0
    8.2997    1.6816   25.0768 C   0  0  0  0  0  0  0  0  0  0  0  0
    8.1827    1.8525   23.6901 C   0  0  0  0  0  0  0  0  0  0  0  0
    6.7927    1.8575   23.0862 C   0  0  0  0  0  0  0  0  0  0  0  0
    6.4216    0.8219   23.0278 H   0  0  0  0  0  0  0  0  0  0  0  0
    6.7642    2.2934   22.0822 H   0  0  0  0  0  0  0  0  0  0  0  0
    6.1009    2.4111   23.7333 H   0  0  0  0  0  0  0  0  0  0  0  0
    9.3748    1.8822   22.9272 C   0  0  0  0  0  0  0  0  0  0  0  0
    9.2726    1.8654   21.5396 O   0  0  0  0  0  0  0  0  0  0  0  0
    9.5581    0.5815   20.9618 C   0  0  0  0  0  0  0  0  0  0  0  0
    8.6226   -0.5169   21.3943 C   0  0  0  0  0  0  0  0  0  0  0  0
    8.8502   -1.3875   22.3626 N   0  0  0  0  0  0  0  0  0  0  0  0
    7.6360   -1.9715   22.5544 C   0  0  0  0  0  0  0  0  0  0  0  0
    7.3671   -2.9227   23.6948 C   0  0  0  0  0  0  0  0  0  0  0  0
    8.4574   -4.0016   23.8173 C   0  0  0  0  0  0  0  0  0  0  0  0
    9.4303   -3.5453   24.0434 H   0  0  0  0  0  0  0  0  0  0  0  0
    8.2102   -4.6962   24.6294 H   0  0  0  0  0  0  0  0  0  0  0  0
    8.5551   -4.5810   22.8930 H   0  0  0  0  0  0  0  0  0  0  0  0
    7.2354   -2.1331   25.0173 C   0  0  0  0  0  0  0  0  0  0  0  0
    6.4247   -1.3951   24.9605 H   0  0  0  0  0  0  0  0  0  0  0  0
    7.0202   -2.8123   25.8508 H   0  0  0  0  0  0  0  0  0  0  0  0
    8.1735   -1.6006   25.2343 H   0  0  0  0  0  0  0  0  0  0  0  0
    6.4032   -3.3944   23.4611 H   0  0  0  0  0  0  0  0  0  0  0  0
    6.6909   -1.5454   21.7407 N   0  0  0  0  0  0  0  0  0  0  0  0
    7.3364   -0.6377   20.9592 N   0  0  0  0  0  0  0  0  0  0  0  0
    6.6432   -0.0034   19.8955 C   0  0  0  0  0  0  0  0  0  0  0  0
    5.4248    0.6341   20.1405 C   0  0  0  0  0  0  0  0  0  0  0  0
    4.8104    1.3120   19.0840 C   0  0  0  0  0  0  0  0  0  0  0  0
    5.4136    1.2986   17.8219 C   0  0  0  0  0  0  0  0  0  0  0  0
    6.5521    0.6374   17.5649 N   0  0  0  0  0  0  0  0  0  0  0  0
    7.1444   -0.0015   18.5818 C   0  0  0  0  0  0  0  0  0  0  0  0
    8.0561   -0.5464   18.3450 H   0  0  0  0  0  0  0  0  0  0  0  0
    4.9613    1.8254   16.9841 H   0  0  0  0  0  0  0  0  0  0  0  0
    3.8821    1.8489   19.2337 H   0  0  0  0  0  0  0  0  0  0  0  0
    4.9885    0.5975   21.1397 H   0  0  0  0  0  0  0  0  0  0  0  0
   10.5743    0.2696   21.2263 H   0  0  0  0  0  0  0  0  0  0  0  0
    9.5092    0.7401   19.8851 H   0  0  0  0  0  0  0  0  0  0  0  0
    7.3926    1.6679   25.6758 H   0  0  0  0  0  0  0  0  0  0  0  0
    9.6018    1.2896   26.7410 H   0  0  0  0  0  0  0  0  0  0  0  0
   11.6627    1.5728   25.4187 H   0  0  0  0  0  0  0  0  0  0  0  0
   11.8174    2.3478   21.7780 H   0  0  0  0  0  0  0  0  0  0  0  0
   12.7501    2.3494   23.2906 H   0  0  0  0  0  0  0  0  0  0  0  0
   12.3084    0.8249   22.5503 H   0  0  0  0  0  0  0  0  0  0  0  0
  1  2  1  0
  2  3  2  0
  3  4  1  0
  4  5  2  0
  5  6  1  0
  6  7  1  0
  7  8  1  0
  7  9  1  0
  7 10  1  0
  6 11  2  0
 11 12  1  0
 12 13  1  0
 13 14  1  0
 14 15  2  0
 15 16  1  0
 16 17  1  0
 17 18  1  0
 18 19  1  0
 18 20  1  0
 18 21  1  0
 17 22  1  0
 22 23  1  0
 22 24  1  0
 22 25  1  0
 17 26  1  0
 16 27  2  0
 27 28  1  0
 28 29  1  0
 29 30  2  0
 30 31  1  0
 31 32  2  0
 32 33  1  0
 33 34  2  0
 34 35  1  0
 32 36  1  0
 31 37  1  0
 30 38  1  0
 13 39  1  0
 13 40  1  0
  5 41  1  0
  4 42  1  0
  3 43  1  0
  1 44  1  0
  1 45  1  0
  1 46  1  0
 11  2  1  0
 28 14  1  0
 34 29  1  0
M  END
>  <cnnaffinity>  (1) 
-5.84039

>  <filename>  (1) 
Cc1cccc(C)c1OCc1nc(C(C)C)nn1-c1cccnc1

$$$$
