
     RDKit          3D

 43 46  0  0  0  0  0  0  0  0999 V2000
    9.7445    1.3455   24.8209 C   0  0  0  0  0  0  0  0  0  0  0  0
    8.2671    1.3829   25.1186 C   0  0  0  0  0  0  0  0  0  0  0  0
    7.8073    1.3707   26.4373 C   0  0  0  0  0  0  0  0  0  0  0  0
    6.4305    1.3338   26.6638 C   0  0  0  0  0  0  0  0  0  0  0  0
    5.8532    1.3421   28.3003 Cl  0  0  0  0  0  0  0  0  0  0  0  0
    5.5076    1.2831   25.7199 N   0  0  0  0  0  0  0  0  0  0  0  0
    5.9562    1.2963   24.4585 C   0  0  0  0  0  0  0  0  0  0  0  0
    7.2991    1.3766   24.0841 C   0  0  0  0  0  0  0  0  0  0  0  0
    7.7037    1.2878   22.6196 C   0  0  0  0  0  0  0  0  0  0  0  0
    7.7912   -0.1360   22.1355 C   0  0  0  0  0  0  0  0  0  0  0  0
    8.3680   -1.1060   22.8226 N   0  0  0  0  0  0  0  0  0  0  0  0
    8.3005   -2.1735   21.9939 C   0  0  0  0  0  0  0  0  0  0  0  0
    8.7268   -3.5836   22.3482 C   0  0  0  0  0  0  0  0  0  0  0  0
    7.7512   -4.4049   23.2491 C   0  0  0  0  0  0  0  0  0  0  0  0
    8.7098   -5.2874   24.0637 C   0  0  0  0  0  0  0  0  0  0  0  0
    9.9153   -4.3623   24.2123 C   0  0  0  0  0  0  0  0  0  0  0  0
    9.9900   -3.6251   23.0011 O   0  0  0  0  0  0  0  0  0  0  0  0
   10.8654   -4.8924   24.3338 H   0  0  0  0  0  0  0  0  0  0  0  0
    9.7841   -3.6566   25.0464 H   0  0  0  0  0  0  0  0  0  0  0  0
    8.3096   -5.5998   25.0352 H   0  0  0  0  0  0  0  0  0  0  0  0
    8.9852   -6.1997   23.5178 H   0  0  0  0  0  0  0  0  0  0  0  0
    7.1978   -3.7247   23.9095 H   0  0  0  0  0  0  0  0  0  0  0  0
    7.0235   -4.9800   22.6642 H   0  0  0  0  0  0  0  0  0  0  0  0
    8.8072   -4.0605   21.3682 H   0  0  0  0  0  0  0  0  0  0  0  0
    7.7468   -1.9163   20.8214 N   0  0  0  0  0  0  0  0  0  0  0  0
    7.3853   -0.6107   20.9195 N   0  0  0  0  0  0  0  0  0  0  0  0
    6.6402    0.0186   19.8771 C   0  0  0  0  0  0  0  0  0  0  0  0
    5.4170    0.6600   20.1142 C   0  0  0  0  0  0  0  0  0  0  0  0
    4.7919    1.3124   19.0463 C   0  0  0  0  0  0  0  0  0  0  0  0
    5.4046    1.2977   17.7911 C   0  0  0  0  0  0  0  0  0  0  0  0
    6.5496    0.6352   17.5465 N   0  0  0  0  0  0  0  0  0  0  0  0
    7.1395   -0.0007   18.5628 C   0  0  0  0  0  0  0  0  0  0  0  0
    8.0631   -0.5326   18.3415 H   0  0  0  0  0  0  0  0  0  0  0  0
    4.9702    1.8406   16.9541 H   0  0  0  0  0  0  0  0  0  0  0  0
    3.8632    1.8504   19.1867 H   0  0  0  0  0  0  0  0  0  0  0  0
    4.9584    0.6375   21.1036 H   0  0  0  0  0  0  0  0  0  0  0  0
    7.0210    1.8593   21.9884 H   0  0  0  0  0  0  0  0  0  0  0  0
    8.6906    1.7442   22.4677 H   0  0  0  0  0  0  0  0  0  0  0  0
    5.1829    1.2303   23.6939 H   0  0  0  0  0  0  0  0  0  0  0  0
    8.4948    1.3658   27.2751 H   0  0  0  0  0  0  0  0  0  0  0  0
   10.3357    1.2377   25.7335 H   0  0  0  0  0  0  0  0  0  0  0  0
    9.9758    0.4966   24.1672 H   0  0  0  0  0  0  0  0  0  0  0  0
   10.0918    2.2541   24.3154 H   0  0  0  0  0  0  0  0  0  0  0  0
  1  2  1  0
  2  3  2  0
  3  4  1  0
  4  5  1  0
  4  6  2  0
  6  7  1  0
  7  8  2  0
  8  9  1  0
  9 10  1  0
 10 11  2  0
 11 12  1  0
 12 13  1  0
 13 14  1  0
 14 15  1  0
 15 16  1  0
 16 17  1  0
 16 18  1  0
 16 19  1  0
 15 20  1  0
 15 21  1  0
 14 22  1  0
 14 23  1  0
 13 24  1  0
 12 25  2  0
 25 26  1  0
 26 27  1  0
 27 28  2  0
 28 29  1  0
 29 30  2  0
 30 31  1  0
 31 32  2  0
 32 33  1  0
 30 34  1  0
 29 35  1  0
 28 36  1  0
  9 37  1  0
  9 38  1  0
  7 39  1  0
  3 40  1  0
  1 41  1  0
  1 42  1  0
  1 43  1  0
  8  2  1  0
 26 10  1  0
 32 27  1  0
 17 13  1  0
M  END
>  <cnnaffinity>  (1) 
-6.49015

>  <filename>  (1) 
Cc1cc(Cl)ncc1Cc1nc(C2CCCO2)nn1-c1cccnc1

$$$$
