
     RDKit          3D

 51 54  0  0  0  0  0  0  0  0999 V2000
   10.6028    3.4484   23.7872 C   0  0  0  0  0  0  0  0  0  0  0  0
    9.5595    4.3891   23.2196 C   0  0  0  0  0  0  0  0  0  0  0  0
    9.5019    5.7224   23.6454 C   0  0  0  0  0  0  0  0  0  0  0  0
    8.5056    6.5665   23.1421 C   0  0  0  0  0  0  0  0  0  0  0  0
    7.6097    6.0571   22.2056 C   0  0  0  0  0  0  0  0  0  0  0  0
    7.6381    4.7861   21.7856 N   0  0  0  0  0  0  0  0  0  0  0  0
    8.5864    3.9748   22.2705 C   0  0  0  0  0  0  0  0  0  0  0  0
    8.5266    2.5541   21.7661 C   0  0  0  0  0  0  0  0  0  0  0  0
    7.4974    1.6723   22.5302 C   0  0  0  0  0  0  0  0  0  0  0  0
    7.5809    0.2632   22.0568 C   0  0  0  0  0  0  0  0  0  0  0  0
    8.2999   -0.6703   22.6578 N   0  0  0  0  0  0  0  0  0  0  0  0
    8.4117   -1.6271   21.7086 C   0  0  0  0  0  0  0  0  0  0  0  0
    9.0865   -2.9302   21.9561 C   0  0  0  0  0  0  0  0  0  0  0  0
    8.1405   -3.8302   22.7681 C   0  0  0  0  0  0  0  0  0  0  0  0
    8.5639   -5.2856   22.9713 C   0  0  0  0  0  0  0  0  0  0  0  0
    7.2657   -6.0079   23.3793 C   0  0  0  0  0  0  0  0  0  0  0  0
    6.0947   -5.1476   22.8425 C   0  0  0  0  0  0  0  0  0  0  0  0
    6.7450   -3.9549   22.1338 C   0  0  0  0  0  0  0  0  0  0  0  0
    6.8556   -4.1570   21.0568 H   0  0  0  0  0  0  0  0  0  0  0  0
    6.1747   -3.0215   22.2480 H   0  0  0  0  0  0  0  0  0  0  0  0
    5.4888   -4.7883   23.6831 H   0  0  0  0  0  0  0  0  0  0  0  0
    5.4326   -5.7033   22.1706 H   0  0  0  0  0  0  0  0  0  0  0  0
    7.1961   -6.0647   24.4694 H   0  0  0  0  0  0  0  0  0  0  0  0
    7.2424   -7.0364   23.0030 H   0  0  0  0  0  0  0  0  0  0  0  0
    9.3430   -5.3763   23.7383 H   0  0  0  0  0  0  0  0  0  0  0  0
    8.9512   -5.7265   22.0422 H   0  0  0  0  0  0  0  0  0  0  0  0
    8.0247   -3.3717   23.7676 H   0  0  0  0  0  0  0  0  0  0  0  0
   10.0281   -2.7561   22.4872 H   0  0  0  0  0  0  0  0  0  0  0  0
    9.2902   -3.3587   20.9711 H   0  0  0  0  0  0  0  0  0  0  0  0
    7.8050   -1.3650   20.5706 N   0  0  0  0  0  0  0  0  0  0  0  0
    7.2310   -0.1533   20.8041 N   0  0  0  0  0  0  0  0  0  0  0  0
    6.4945    0.4444   19.7504 C   0  0  0  0  0  0  0  0  0  0  0  0
    5.2908    1.1377   19.9233 C   0  0  0  0  0  0  0  0  0  0  0  0
    4.6694    1.6456   18.7733 C   0  0  0  0  0  0  0  0  0  0  0  0
    5.2773    1.4627   17.5272 C   0  0  0  0  0  0  0  0  0  0  0  0
    6.4252    0.7840   17.3576 N   0  0  0  0  0  0  0  0  0  0  0  0
    7.0050    0.2848   18.4480 C   0  0  0  0  0  0  0  0  0  0  0  0
    7.9263   -0.2758   18.3155 H   0  0  0  0  0  0  0  0  0  0  0  0
    4.8418    1.8732   16.6224 H   0  0  0  0  0  0  0  0  0  0  0  0
    3.7336    2.1891   18.8371 H   0  0  0  0  0  0  0  0  0  0  0  0
    4.8350    1.2570   20.9078 H   0  0  0  0  0  0  0  0  0  0  0  0
    6.4821    2.0604   22.4066 H   0  0  0  0  0  0  0  0  0  0  0  0
    7.7217    1.6586   23.6045 H   0  0  0  0  0  0  0  0  0  0  0  0
    9.5164    2.0826   21.8341 H   0  0  0  0  0  0  0  0  0  0  0  0
    8.2552    2.5693   20.7073 H   0  0  0  0  0  0  0  0  0  0  0  0
    6.8281    6.6777   21.7730 H   0  0  0  0  0  0  0  0  0  0  0  0
    8.4139    7.5946   23.4677 H   0  0  0  0  0  0  0  0  0  0  0  0
   10.2244    6.0824   24.3792 H   0  0  0  0  0  0  0  0  0  0  0  0
   10.1443    2.7056   24.4513 H   0  0  0  0  0  0  0  0  0  0  0  0
   11.3499    3.9918   24.3726 H   0  0  0  0  0  0  0  0  0  0  0  0
   11.1355    2.8925   23.0056 H   0  0  0  0  0  0  0  0  0  0  0  0
  1  2  1  0
  2  3  2  0
  3  4  1  0
  4  5  2  0
  5  6  1  0
  6  7  2  0
  7  8  1  0
  8  9  1  0
  9 10  1  0
 10 11  2  0
 11 12  1  0
 12 13  1  0
 13 14  1  0
 14 15  1  0
 15 16  1  0
 16 17  1  0
 17 18  1  0
 18 19  1  0
 18 20  1  0
 17 21  1  0
 17 22  1  0
 16 23  1  0
 16 24  1  0
 15 25  1  0
 15 26  1  0
 14 27  1  0
 13 28  1  0
 13 29  1  0
 12 30  2  0
 30 31  1  0
 31 32  1  0
 32 33  2  0
 33 34  1  0
 34 35  2  0
 35 36  1  0
 36 37  2  0
 37 38  1  0
 35 39  1  0
 34 40  1  0
 33 41  1  0
  9 42  1  0
  9 43  1  0
  8 44  1  0
  8 45  1  0
  5 46  1  0
  4 47  1  0
  3 48  1  0
  1 49  1  0
  1 50  1  0
  1 51  1  0
  7  2  1  0
 31 10  1  0
 37 32  1  0
 18 14  1  0
M  END
>  <cnnaffinity>  (1) 
-6.38171

>  <filename>  (1) 
Cc1cccnc1CCc1nc(CC2CCCC2)nn1-c1cccnc1

$$$$
