
     RDKit          3D

 47 51  0  0  0  0  0  0  0  0999 V2000
    9.1231   -2.0125   25.2785 C   0  0  0  0  0  0  0  0  0  0  0  0
    8.1069   -3.0751   24.9270 C   0  0  0  0  0  0  0  0  0  0  0  0
    7.8695   -4.0983   25.8541 C   0  0  0  0  0  0  0  0  0  0  0  0
    6.9244   -5.1006   25.6180 C   0  0  0  0  0  0  0  0  0  0  0  0
    6.1689   -5.0741   24.4430 C   0  0  0  0  0  0  0  0  0  0  0  0
    6.3759   -4.0689   23.5014 C   0  0  0  0  0  0  0  0  0  0  0  0
    7.3723   -3.0950   23.7108 C   0  0  0  0  0  0  0  0  0  0  0  0
    7.6580   -2.1206   22.6360 C   0  0  0  0  0  0  0  0  0  0  0  0
    6.7662   -1.7109   21.7550 N   0  0  0  0  0  0  0  0  0  0  0  0
    7.4560   -0.8068   21.0069 N   0  0  0  0  0  0  0  0  0  0  0  0
    6.7767   -0.1138   19.9566 C   0  0  0  0  0  0  0  0  0  0  0  0
    5.5550    0.5267   20.2153 C   0  0  0  0  0  0  0  0  0  0  0  0
    4.9363    1.2259   19.1734 C   0  0  0  0  0  0  0  0  0  0  0  0
    5.5373    1.2505   17.9097 C   0  0  0  0  0  0  0  0  0  0  0  0
    6.6898    0.6136   17.6485 N   0  0  0  0  0  0  0  0  0  0  0  0
    7.2840   -0.0513   18.6476 C   0  0  0  0  0  0  0  0  0  0  0  0
    8.2057   -0.5693   18.3864 H   0  0  0  0  0  0  0  0  0  0  0  0
    5.0768    1.7892   17.0792 H   0  0  0  0  0  0  0  0  0  0  0  0
    4.0041    1.7592   19.3278 H   0  0  0  0  0  0  0  0  0  0  0  0
    5.1212    0.4758   21.2155 H   0  0  0  0  0  0  0  0  0  0  0  0
    8.7280   -0.7096   21.5080 C   0  0  0  0  0  0  0  0  0  0  0  0
    9.6944    0.3852   21.1821 C   0  0  0  0  0  0  0  0  0  0  0  0
    9.1902    1.7130   21.6541 C   0  0  0  0  0  0  0  0  0  0  0  0
    8.3973    2.5858   20.9868 C   0  0  0  0  0  0  0  0  0  0  0  0
    7.9532    3.5897   21.7890 N   0  0  0  0  0  0  0  0  0  0  0  0
    8.4534    3.3355   22.9732 C   0  0  0  0  0  0  0  0  0  0  0  0
    8.1292    4.1947   24.1254 C   0  0  0  0  0  0  0  0  0  0  0  0
    8.9800    4.3607   25.3554 C   0  0  0  0  0  0  0  0  0  0  0  0
    7.6515    3.6844   25.4694 C   0  0  0  0  0  0  0  0  0  0  0  0
    7.6391    2.6099   25.6509 H   0  0  0  0  0  0  0  0  0  0  0  0
    6.8163    4.2147   25.9210 H   0  0  0  0  0  0  0  0  0  0  0  0
    9.1041    5.3670   25.7505 H   0  0  0  0  0  0  0  0  0  0  0  0
    9.8581    3.7274   25.4306 H   0  0  0  0  0  0  0  0  0  0  0  0
    7.6355    5.0924   23.7522 H   0  0  0  0  0  0  0  0  0  0  0  0
    9.2312    2.2065   22.9412 N   0  0  0  0  0  0  0  0  0  0  0  0
    9.6605    1.7782   23.7417 H   0  0  0  0  0  0  0  0  0  0  0  0
    8.0706    2.4164   19.9741 H   0  0  0  0  0  0  0  0  0  0  0  0
    9.7984    0.4205   20.0987 H   0  0  0  0  0  0  0  0  0  0  0  0
   10.6665    0.1330   21.6162 H   0  0  0  0  0  0  0  0  0  0  0  0
    8.8892   -1.5557   22.4911 N   0  0  0  0  0  0  0  0  0  0  0  0
    5.7735   -4.0213   22.5944 H   0  0  0  0  0  0  0  0  0  0  0  0
    5.4186   -5.8382   24.2611 H   0  0  0  0  0  0  0  0  0  0  0  0
    6.7761   -5.8873   26.3544 H   0  0  0  0  0  0  0  0  0  0  0  0
    8.4395   -4.0958   26.7814 H   0  0  0  0  0  0  0  0  0  0  0  0
   10.0198   -2.1174   24.6637 H   0  0  0  0  0  0  0  0  0  0  0  0
    9.4050   -2.0646   26.3334 H   0  0  0  0  0  0  0  0  0  0  0  0
    8.7352   -1.0094   25.0765 H   0  0  0  0  0  0  0  0  0  0  0  0
  1  2  1  0
  2  3  2  0
  3  4  1  0
  4  5  2  0
  5  6  1  0
  6  7  2  0
  7  8  1  0
  8  9  2  0
  9 10  1  0
 10 11  1  0
 11 12  2  0
 12 13  1  0
 13 14  2  0
 14 15  1  0
 15 16  2  0
 16 17  1  0
 14 18  1  0
 13 19  1  0
 12 20  1  0
 10 21  1  0
 21 22  1  0
 22 23  1  0
 23 24  2  0
 24 25  1  0
 25 26  2  0
 26 27  1  0
 27 28  1  0
 28 29  1  0
 29 30  1  0
 29 31  1  0
 28 32  1  0
 28 33  1  0
 27 34  1  0
 26 35  1  0
 35 36  1  0
 24 37  1  0
 22 38  1  0
 22 39  1  0
 21 40  2  0
  6 41  1  0
  5 42  1  0
  4 43  1  0
  3 44  1  0
  1 45  1  0
  1 46  1  0
  1 47  1  0
  7  2  1  0
 40  8  1  0
 16 11  1  0
 35 23  1  0
 29 27  1  0
M  END
>  <cnnaffinity>  (1) 
-6.32679

>  <filename>  (1) 
Cc1ccccc1-c1nc(Cc2cnc(C3CC3)[nH]2)n(-c2cccnc2)n1

$$$$
