
     RDKit          3D

 33 35  0  0  0  0  0  0  0  0999 V2000
    4.9190    1.7796   16.9973 H   0  0  0  0  0  0  0  0  0  0  0  0
    5.4033    1.2952   17.8393 C   0  0  0  0  0  0  0  0  0  0  0  0
    6.5676    0.6795   17.5747 N   0  0  0  0  0  0  0  0  0  0  0  0
    7.1673    0.0611   18.5943 C   0  0  0  0  0  0  0  0  0  0  0  0
    8.1129   -0.4309   18.3764 H   0  0  0  0  0  0  0  0  0  0  0  0
    6.6500    0.0264   19.8958 C   0  0  0  0  0  0  0  0  0  0  0  0
    7.3967   -0.7108   20.9183 C   0  0  0  0  0  0  0  0  0  0  0  0
    7.7066   -1.9809   20.8668 N   0  0  0  0  0  0  0  0  0  0  0  0
    8.3843   -2.2919   22.0175 N   0  0  0  0  0  0  0  0  0  0  0  0
    8.4800   -1.1944   22.7134 C   0  0  0  0  0  0  0  0  0  0  0  0
    8.9813   -1.0952   23.6683 H   0  0  0  0  0  0  0  0  0  0  0  0
    7.8868   -0.1465   22.0673 N   0  0  0  0  0  0  0  0  0  0  0  0
    7.8052    1.2428   22.5133 C   0  0  0  0  0  0  0  0  0  0  0  0
    7.8899    1.8933   21.6407 H   0  0  0  0  0  0  0  0  0  0  0  0
    8.6839    1.4435   23.1343 H   0  0  0  0  0  0  0  0  0  0  0  0
    6.5504    1.5909   23.2928 C   0  0  0  0  0  0  0  0  0  0  0  0
    5.7345    2.6694   22.9153 C   0  0  0  0  0  0  0  0  0  0  0  0
    5.9943    3.2584   22.0359 H   0  0  0  0  0  0  0  0  0  0  0  0
    4.5700    2.9616   23.6297 C   0  0  0  0  0  0  0  0  0  0  0  0
    3.9391    3.7905   23.3199 H   0  0  0  0  0  0  0  0  0  0  0  0
    4.2260    2.1914   24.7443 C   0  0  0  0  0  0  0  0  0  0  0  0
    3.3239    2.4150   25.3067 H   0  0  0  0  0  0  0  0  0  0  0  0
    5.0391    1.1267   25.1549 C   0  0  0  0  0  0  0  0  0  0  0  0
    4.6646    0.2835   26.3442 C   0  0  0  0  0  0  0  0  0  0  0  0
    4.0522   -0.5700   26.0357 H   0  0  0  0  0  0  0  0  0  0  0  0
    5.5446   -0.1151   26.8585 H   0  0  0  0  0  0  0  0  0  0  0  0
    4.0829    0.8522   27.0749 H   0  0  0  0  0  0  0  0  0  0  0  0
    6.1964    0.8417   24.4215 C   0  0  0  0  0  0  0  0  0  0  0  0
    6.8274    0.0077   24.7260 H   0  0  0  0  0  0  0  0  0  0  0  0
    5.4311    0.6664   20.1580 C   0  0  0  0  0  0  0  0  0  0  0  0
    5.0015    0.6321   21.1638 H   0  0  0  0  0  0  0  0  0  0  0  0
    4.7988    1.3189   19.1035 C   0  0  0  0  0  0  0  0  0  0  0  0
    3.8636    1.8492   19.2560 H   0  0  0  0  0  0  0  0  0  0  0  0
  1  2  1  0
  2  3  2  0
  3  4  1  0
  4  5  1  0
  4  6  2  0
  6  7  1  0
  7  8  2  0
  8  9  1  0
  9 10  2  0
 10 11  1  0
 10 12  1  0
 12 13  1  0
 13 14  1  0
 13 15  1  0
 13 16  1  0
 16 17  2  0
 17 18  1  0
 17 19  1  0
 19 20  1  0
 19 21  2  0
 21 22  1  0
 21 23  1  0
 23 24  1  0
 24 25  1  0
 24 26  1  0
 24 27  1  0
 23 28  2  0
 28 29  1  0
  6 30  1  0
 30 31  1  0
 30 32  2  0
 32 33  1  0
 32  2  1  0
 12  7  1  0
 28 16  1  0
M  END
>  <cnnaffinity>  (1) 
-4.85585

>  <filename>  (1) 
Cc1cccc(Cn2cnnc2-c2cccnc2)c1

$$$$
