
     RDKit          3D

 47 51  0  0  0  0  0  0  0  0999 V2000
    6.8234   -6.1124   26.5421 C   0  0  0  0  0  0  0  0  0  0  0  0
    7.0409   -5.0361   25.5150 C   0  0  0  0  0  0  0  0  0  0  0  0
    6.0495   -4.7436   24.5681 C   0  0  0  0  0  0  0  0  0  0  0  0
    6.2458   -3.7632   23.6017 C   0  0  0  0  0  0  0  0  0  0  0  0
    7.4594   -3.0493   23.5555 C   0  0  0  0  0  0  0  0  0  0  0  0
    7.6657   -2.0051   22.5277 C   0  0  0  0  0  0  0  0  0  0  0  0
    6.7474   -1.6501   21.6434 N   0  0  0  0  0  0  0  0  0  0  0  0
    7.3559   -0.6696   20.9383 N   0  0  0  0  0  0  0  0  0  0  0  0
    6.6554    0.0070   19.8994 C   0  0  0  0  0  0  0  0  0  0  0  0
    5.4377    0.6423   20.1654 C   0  0  0  0  0  0  0  0  0  0  0  0
    4.8118    1.3104   19.1083 C   0  0  0  0  0  0  0  0  0  0  0  0
    5.4001    1.2962   17.8366 C   0  0  0  0  0  0  0  0  0  0  0  0
    6.5573    0.6707   17.5726 N   0  0  0  0  0  0  0  0  0  0  0  0
    7.1648    0.0501   18.5893 C   0  0  0  0  0  0  0  0  0  0  0  0
    8.1125   -0.4356   18.3672 H   0  0  0  0  0  0  0  0  0  0  0  0
    4.9196    1.7868   16.9929 H   0  0  0  0  0  0  0  0  0  0  0  0
    3.8798    1.8405   19.2601 H   0  0  0  0  0  0  0  0  0  0  0  0
    5.0142    0.6107   21.1730 H   0  0  0  0  0  0  0  0  0  0  0  0
    8.6058   -0.4601   21.4559 C   0  0  0  0  0  0  0  0  0  0  0  0
    9.4790    0.6886   21.0297 C   0  0  0  0  0  0  0  0  0  0  0  0
    9.0019    2.0292   21.6456 C   0  0  0  0  0  0  0  0  0  0  0  0
    9.1251    2.0003   23.1774 C   0  0  0  0  0  0  0  0  0  0  0  0
   10.4238    1.4070   23.6391 C   0  0  0  0  0  0  0  0  0  0  0  0
   10.9339    1.4937   24.8461 N   0  0  0  0  0  0  0  0  0  0  0  0
   12.0910    0.7523   24.7963 C   0  0  0  0  0  0  0  0  0  0  0  0
   12.2816    0.2234   23.5517 C   0  0  0  0  0  0  0  0  0  0  0  0
   11.2028    0.6509   22.8102 N   0  0  0  0  0  0  0  0  0  0  0  0
   10.9541    0.4321   21.3905 C   0  0  0  0  0  0  0  0  0  0  0  0
   11.2227   -0.5974   21.1466 H   0  0  0  0  0  0  0  0  0  0  0  0
   11.6103    1.0934   20.8112 H   0  0  0  0  0  0  0  0  0  0  0  0
   13.0653   -0.3920   23.1341 H   0  0  0  0  0  0  0  0  0  0  0  0
   12.7387    0.6267   25.6500 H   0  0  0  0  0  0  0  0  0  0  0  0
    8.3238    1.3991   23.6241 H   0  0  0  0  0  0  0  0  0  0  0  0
    9.0309    2.9993   23.6077 H   0  0  0  0  0  0  0  0  0  0  0  0
    9.6193    2.8393   21.2431 H   0  0  0  0  0  0  0  0  0  0  0  0
    7.9676    2.2357   21.3451 H   0  0  0  0  0  0  0  0  0  0  0  0
    9.4104    0.7554   19.9431 H   0  0  0  0  0  0  0  0  0  0  0  0
    8.8296   -1.3134   22.4284 N   0  0  0  0  0  0  0  0  0  0  0  0
    8.4652   -3.3451   24.5003 C   0  0  0  0  0  0  0  0  0  0  0  0
    8.2510   -4.3292   25.4609 C   0  0  0  0  0  0  0  0  0  0  0  0
    9.0286   -4.5618   26.1853 H   0  0  0  0  0  0  0  0  0  0  0  0
    9.4141   -2.8109   24.4881 H   0  0  0  0  0  0  0  0  0  0  0  0
    5.4632   -3.5380   22.8800 H   0  0  0  0  0  0  0  0  0  0  0  0
    5.1130   -5.2938   24.5965 H   0  0  0  0  0  0  0  0  0  0  0  0
    7.1609   -7.0705   26.1495 H   0  0  0  0  0  0  0  0  0  0  0  0
    7.3847   -5.9307   27.4633 H   0  0  0  0  0  0  0  0  0  0  0  0
    5.7679   -6.2308   26.8042 H   0  0  0  0  0  0  0  0  0  0  0  0
  1  2  1  0
  2  3  2  0
  3  4  1  0
  4  5  2  0
  5  6  1  0
  6  7  2  0
  7  8  1  0
  8  9  1  0
  9 10  2  0
 10 11  1  0
 11 12  2  0
 12 13  1  0
 13 14  2  0
 14 15  1  0
 12 16  1  0
 11 17  1  0
 10 18  1  0
  8 19  1  0
 19 20  1  0
 20 21  1  0
 21 22  1  0
 22 23  1  0
 23 24  2  0
 24 25  1  0
 25 26  2  0
 26 27  1  0
 27 28  1  0
 28 29  1  0
 28 30  1  0
 26 31  1  0
 25 32  1  0
 22 33  1  0
 22 34  1  0
 21 35  1  0
 21 36  1  0
 20 37  1  0
 19 38  2  0
  5 39  1  0
 39 40  2  0
 40 41  1  0
 39 42  1  0
  4 43  1  0
  3 44  1  0
  1 45  1  0
  1 46  1  0
  1 47  1  0
 40  2  1  0
 38  6  1  0
 14  9  1  0
 28 20  1  0
 27 23  1  0
M  END
>  <cnnaffinity>  (1) 
-6.22591

>  <filename>  (1) 
Cc1ccc(-c2nc(C3CCc4nccn4C3)n(-c3cccnc3)n2)cc1

$$$$
