
     RDKit          3D

 49 52  0  0  0  0  0  0  0  0999 V2000
    4.5084   -5.3058   24.9314 C   0  0  0  0  0  0  0  0  0  0  0  0
    5.8689   -4.6806   24.7501 C   0  0  0  0  0  0  0  0  0  0  0  0
    6.9478   -5.0263   25.5791 C   0  0  0  0  0  0  0  0  0  0  0  0
    8.1972   -4.4177   25.4059 C   0  0  0  0  0  0  0  0  0  0  0  0
    8.3802   -3.4646   24.4054 C   0  0  0  0  0  0  0  0  0  0  0  0
    7.3103   -3.1091   23.5578 C   0  0  0  0  0  0  0  0  0  0  0  0
    7.5229   -2.1306   22.4715 C   0  0  0  0  0  0  0  0  0  0  0  0
    6.5848   -1.7289   21.6261 N   0  0  0  0  0  0  0  0  0  0  0  0
    7.2393   -0.8483   20.8316 N   0  0  0  0  0  0  0  0  0  0  0  0
    6.5524   -0.1514   19.8043 C   0  0  0  0  0  0  0  0  0  0  0  0
    5.3581    0.5265   20.0777 C   0  0  0  0  0  0  0  0  0  0  0  0
    4.8017    1.3065   19.0602 C   0  0  0  0  0  0  0  0  0  0  0  0
    5.4218    1.3283   17.8036 C   0  0  0  0  0  0  0  0  0  0  0  0
    6.5264    0.6216   17.5152 N   0  0  0  0  0  0  0  0  0  0  0  0
    7.0680   -0.1084   18.4982 C   0  0  0  0  0  0  0  0  0  0  0  0
    7.9488   -0.7006   18.2507 H   0  0  0  0  0  0  0  0  0  0  0  0
    5.0067    1.9177   16.9887 H   0  0  0  0  0  0  0  0  0  0  0  0
    3.9005    1.8892   19.2257 H   0  0  0  0  0  0  0  0  0  0  0  0
    4.8994    0.4387   21.0646 H   0  0  0  0  0  0  0  0  0  0  0  0
    8.5231   -0.7282   21.2727 C   0  0  0  0  0  0  0  0  0  0  0  0
    9.5546    0.2237   20.7873 C   0  0  0  0  0  0  0  0  0  0  0  0
    9.7992    1.2720   21.7632 N   0  0  0  0  0  0  0  0  0  0  0  0
   10.9825    1.2534   22.3985 N   0  0  0  0  0  0  0  0  0  0  0  0
   10.9171    2.2081   23.3096 C   0  0  0  0  0  0  0  0  0  0  0  0
   12.1000    2.4538   24.1863 C   0  0  0  0  0  0  0  0  0  0  0  0
   12.9018    1.7743   23.8904 H   0  0  0  0  0  0  0  0  0  0  0  0
   12.4541    3.4825   24.0675 H   0  0  0  0  0  0  0  0  0  0  0  0
   11.8734    2.2758   25.2433 H   0  0  0  0  0  0  0  0  0  0  0  0
    9.6588    2.8542   23.2981 C   0  0  0  0  0  0  0  0  0  0  0  0
    9.2275    4.0111   24.1608 C   0  0  0  0  0  0  0  0  0  0  0  0
    8.2330    3.8614   24.5988 H   0  0  0  0  0  0  0  0  0  0  0  0
    9.9244    4.1633   24.9943 H   0  0  0  0  0  0  0  0  0  0  0  0
    9.1872    4.9585   23.6039 H   0  0  0  0  0  0  0  0  0  0  0  0
    8.9730    2.2409   22.2563 C   0  0  0  0  0  0  0  0  0  0  0  0
    7.5893    2.5434   21.7581 C   0  0  0  0  0  0  0  0  0  0  0  0
    7.3709    3.6019   21.9311 H   0  0  0  0  0  0  0  0  0  0  0  0
    6.8308    1.9669   22.3032 H   0  0  0  0  0  0  0  0  0  0  0  0
    7.4586    2.3297   20.6939 H   0  0  0  0  0  0  0  0  0  0  0  0
   10.4898   -0.3293   20.7096 H   0  0  0  0  0  0  0  0  0  0  0  0
    9.3449    0.6616   19.8148 H   0  0  0  0  0  0  0  0  0  0  0  0
    8.7353   -1.5436   22.2745 N   0  0  0  0  0  0  0  0  0  0  0  0
    6.0569   -3.7154   23.7552 C   0  0  0  0  0  0  0  0  0  0  0  0
    5.2074   -3.4371   23.1304 H   0  0  0  0  0  0  0  0  0  0  0  0
    9.3499   -2.9912   24.2637 H   0  0  0  0  0  0  0  0  0  0  0  0
    9.0287   -4.6971   26.0484 H   0  0  0  0  0  0  0  0  0  0  0  0
    6.8021   -5.7755   26.3546 H   0  0  0  0  0  0  0  0  0  0  0  0
    4.5685   -6.3136   25.3520 H   0  0  0  0  0  0  0  0  0  0  0  0
    3.8947   -4.6964   25.6045 H   0  0  0  0  0  0  0  0  0  0  0  0
    3.9793   -5.3760   23.9753 H   0  0  0  0  0  0  0  0  0  0  0  0
  1  2  1  0
  2  3  2  0
  3  4  1  0
  4  5  2  0
  5  6  1  0
  6  7  1  0
  7  8  2  0
  8  9  1  0
  9 10  1  0
 10 11  2  0
 11 12  1  0
 12 13  2  0
 13 14  1  0
 14 15  2  0
 15 16  1  0
 13 17  1  0
 12 18  1  0
 11 19  1  0
  9 20  1  0
 20 21  1  0
 21 22  1  0
 22 23  1  0
 23 24  2  0
 24 25  1  0
 25 26  1  0
 25 27  1  0
 25 28  1  0
 24 29  1  0
 29 30  1  0
 30 31  1  0
 30 32  1  0
 30 33  1  0
 29 34  2  0
 34 35  1  0
 35 36  1  0
 35 37  1  0
 35 38  1  0
 21 39  1  0
 21 40  1  0
 20 41  2  0
  6 42  2  0
 42 43  1  0
  5 44  1  0
  4 45  1  0
  3 46  1  0
  1 47  1  0
  1 48  1  0
  1 49  1  0
 42  2  1  0
 41  7  1  0
 15 10  1  0
 34 22  1  0
M  END
>  <cnnaffinity>  (1) 
-6.2532

>  <filename>  (1) 
Cc1cccc(-c2nc(Cn3nc(C)c(C)c3C)n(-c3cccnc3)n2)c1

$$$$
