
     RDKit          3D

 42 45  0  0  0  0  0  0  0  0999 V2000
    8.8350   -0.4491   27.2092 C   0  0  0  0  0  0  0  0  0  0  0  0
    7.9826    0.0720   26.0897 C   0  0  0  0  0  0  0  0  0  0  0  0
    8.3826    0.8600   25.0599 C   0  0  0  0  0  0  0  0  0  0  0  0
    7.3703    1.1143   24.0802 C   0  0  0  0  0  0  0  0  0  0  0  0
    7.6993    1.8409   22.7854 C   0  0  0  0  0  0  0  0  0  0  0  0
    8.7612    1.1029   22.0240 C   0  0  0  0  0  0  0  0  0  0  0  0
   10.0572    1.3054   22.1494 N   0  0  0  0  0  0  0  0  0  0  0  0
   10.6062    0.1734   21.6291 C   0  0  0  0  0  0  0  0  0  0  0  0
   12.0535   -0.1392   21.8077 C   0  0  0  0  0  0  0  0  0  0  0  0
   12.6090   -1.3677   21.3999 C   0  0  0  0  0  0  0  0  0  0  0  0
   13.9291   -1.6695   21.7343 C   0  0  0  0  0  0  0  0  0  0  0  0
   14.6978   -0.8481   22.4559 N   0  0  0  0  0  0  0  0  0  0  0  0
   14.1859    0.3313   22.8197 C   0  0  0  0  0  0  0  0  0  0  0  0
   12.8909    0.7451   22.5110 C   0  0  0  0  0  0  0  0  0  0  0  0
   12.5027    1.7042   22.8477 H   0  0  0  0  0  0  0  0  0  0  0  0
   14.8304    0.9558   23.4287 H   0  0  0  0  0  0  0  0  0  0  0  0
   14.3849   -2.6233   21.4706 H   0  0  0  0  0  0  0  0  0  0  0  0
   12.0119   -2.0686   20.8356 H   0  0  0  0  0  0  0  0  0  0  0  0
    9.7200   -0.6728   21.1337 N   0  0  0  0  0  0  0  0  0  0  0  0
    8.5416   -0.0661   21.3877 N   0  0  0  0  0  0  0  0  0  0  0  0
    7.2931   -0.7006   20.9878 C   0  0  0  0  0  0  0  0  0  0  0  0
    6.5569    0.0339   19.8905 C   0  0  0  0  0  0  0  0  0  0  0  0
    5.3295    0.6772   20.0820 C   0  0  0  0  0  0  0  0  0  0  0  0
    4.7437    1.3494   19.0060 C   0  0  0  0  0  0  0  0  0  0  0  0
    5.4030    1.3410   17.7734 C   0  0  0  0  0  0  0  0  0  0  0  0
    6.5672    0.7084   17.5632 N   0  0  0  0  0  0  0  0  0  0  0  0
    7.1213    0.0795   18.6053 C   0  0  0  0  0  0  0  0  0  0  0  0
    8.0582   -0.4406   18.4074 H   0  0  0  0  0  0  0  0  0  0  0  0
    4.9753    1.8509   16.9123 H   0  0  0  0  0  0  0  0  0  0  0  0
    3.8037    1.8782   19.1070 H   0  0  0  0  0  0  0  0  0  0  0  0
    4.8285    0.6459   21.0532 H   0  0  0  0  0  0  0  0  0  0  0  0
    7.5780   -1.7061   20.6658 H   0  0  0  0  0  0  0  0  0  0  0  0
    6.6585   -0.8140   21.8721 H   0  0  0  0  0  0  0  0  0  0  0  0
    6.8129    1.9611   22.1573 H   0  0  0  0  0  0  0  0  0  0  0  0
    8.0988    2.8363   23.0016 H   0  0  0  0  0  0  0  0  0  0  0  0
    6.1905    0.5369   24.4280 C   0  0  0  0  0  0  0  0  0  0  0  0
    6.3081   -0.3465   25.9115 S   0  0  0  0  0  0  0  0  0  0  0  0
    5.2500    0.5458   23.8923 H   0  0  0  0  0  0  0  0  0  0  0  0
    9.3969    1.2354   24.9511 H   0  0  0  0  0  0  0  0  0  0  0  0
    9.8439   -0.0330   27.1295 H   0  0  0  0  0  0  0  0  0  0  0  0
    8.4337   -0.1824   28.1925 H   0  0  0  0  0  0  0  0  0  0  0  0
    8.9269   -1.5410   27.1650 H   0  0  0  0  0  0  0  0  0  0  0  0
  1  2  1  0
  2  3  2  0
  3  4  1  0
  4  5  1  0
  5  6  1  0
  6  7  2  0
  7  8  1  0
  8  9  1  0
  9 10  2  0
 10 11  1  0
 11 12  2  0
 12 13  1  0
 13 14  2  0
 14 15  1  0
 13 16  1  0
 11 17  1  0
 10 18  1  0
  8 19  2  0
 19 20  1  0
 20 21  1  0
 21 22  1  0
 22 23  2  0
 23 24  1  0
 24 25  2  0
 25 26  1  0
 26 27  2  0
 27 28  1  0
 25 29  1  0
 24 30  1  0
 23 31  1  0
 21 32  1  0
 21 33  1  0
  5 34  1  0
  5 35  1  0
  4 36  2  0
 36 37  1  0
 36 38  1  0
  3 39  1  0
  1 40  1  0
  1 41  1  0
  1 42  1  0
 37  2  1  0
 20  6  1  0
 27 22  1  0
 14  9  1  0
M  END
>  <cnnaffinity>  (1) 
-6.58799

>  <filename>  (1) 
Cc1cc(Cc2nc(-c3ccncc3)nn2Cc2cccnc2)cs1

$$$$
