
     RDKit          3D

 50 54  0  0  0  0  0  0  0  0999 V2000
    6.0009    3.7056   28.8806 C   0  0  0  0  0  0  0  0  0  0  0  0
    6.4173    3.0961   27.5652 C   0  0  0  0  0  0  0  0  0  0  0  0
    7.6071    3.4832   26.9315 C   0  0  0  0  0  0  0  0  0  0  0  0
    8.0068    2.9094   25.7277 C   0  0  0  0  0  0  0  0  0  0  0  0
    7.2138    1.9158   25.1084 C   0  0  0  0  0  0  0  0  0  0  0  0
    7.6670    1.2830   23.8488 C   0  0  0  0  0  0  0  0  0  0  0  0
    6.9836    0.3696   23.1715 N   0  0  0  0  0  0  0  0  0  0  0  0
    7.7872    0.0889   22.1207 N   0  0  0  0  0  0  0  0  0  0  0  0
    7.3069   -0.7650   21.0366 C   0  0  0  0  0  0  0  0  0  0  0  0
    6.6618   -0.0174   19.8802 C   0  0  0  0  0  0  0  0  0  0  0  0
    5.4655    0.6749   20.1054 C   0  0  0  0  0  0  0  0  0  0  0  0
    4.8518    1.3285   19.0361 C   0  0  0  0  0  0  0  0  0  0  0  0
    5.4711    1.2895   17.7838 C   0  0  0  0  0  0  0  0  0  0  0  0
    6.6136    0.6271   17.5435 N   0  0  0  0  0  0  0  0  0  0  0  0
    7.1792   -0.0140   18.5763 C   0  0  0  0  0  0  0  0  0  0  0  0
    8.0820   -0.5837   18.3403 H   0  0  0  0  0  0  0  0  0  0  0  0
    5.0302    1.8088   16.9340 H   0  0  0  0  0  0  0  0  0  0  0  0
    3.9126    1.8571   19.1625 H   0  0  0  0  0  0  0  0  0  0  0  0
    5.0347    0.6851   21.1071 H   0  0  0  0  0  0  0  0  0  0  0  0
    8.1418   -1.3809   20.6828 H   0  0  0  0  0  0  0  0  0  0  0  0
    6.5645   -1.4201   21.5049 H   0  0  0  0  0  0  0  0  0  0  0  0
    8.9074    0.8458   22.1998 C   0  0  0  0  0  0  0  0  0  0  0  0
   10.0684    0.7355   21.2477 C   0  0  0  0  0  0  0  0  0  0  0  0
   11.1110   -0.3237   21.7027 C   0  0  0  0  0  0  0  0  0  0  0  0
   11.8997    0.1272   22.9461 C   0  0  0  0  0  0  0  0  0  0  0  0
   12.3066    1.5770   22.9021 C   0  0  0  0  0  0  0  0  0  0  0  0
   13.1903    2.1702   23.6704 N   0  0  0  0  0  0  0  0  0  0  0  0
   13.1236    3.5068   23.3335 C   0  0  0  0  0  0  0  0  0  0  0  0
   12.1859    3.7117   22.3601 C   0  0  0  0  0  0  0  0  0  0  0  0
   11.6756    2.4627   22.0825 N   0  0  0  0  0  0  0  0  0  0  0  0
   10.7173    2.1225   21.0389 C   0  0  0  0  0  0  0  0  0  0  0  0
    9.9377    2.8834   21.0441 H   0  0  0  0  0  0  0  0  0  0  0  0
   11.2280    2.1890   20.0744 H   0  0  0  0  0  0  0  0  0  0  0  0
   11.7881    4.5965   21.8749 H   0  0  0  0  0  0  0  0  0  0  0  0
   13.7342    4.2572   23.8230 H   0  0  0  0  0  0  0  0  0  0  0  0
   11.2757    0.0208   23.8435 H   0  0  0  0  0  0  0  0  0  0  0  0
   12.7970   -0.4822   23.0998 H   0  0  0  0  0  0  0  0  0  0  0  0
   10.6046   -1.2780   21.9124 H   0  0  0  0  0  0  0  0  0  0  0  0
   11.7914   -0.5170   20.8657 H   0  0  0  0  0  0  0  0  0  0  0  0
    9.6566    0.4284   20.2796 H   0  0  0  0  0  0  0  0  0  0  0  0
    8.8578    1.6027   23.2748 N   0  0  0  0  0  0  0  0  0  0  0  0
    6.0070    1.5355   25.7329 C   0  0  0  0  0  0  0  0  0  0  0  0
    5.6284    2.1177   26.9412 C   0  0  0  0  0  0  0  0  0  0  0  0
    4.7086    1.8050   27.4281 H   0  0  0  0  0  0  0  0  0  0  0  0
    5.3689    0.7796   25.2765 H   0  0  0  0  0  0  0  0  0  0  0  0
    8.9406    3.2321   25.2692 H   0  0  0  0  0  0  0  0  0  0  0  0
    8.2259    4.2426   27.4026 H   0  0  0  0  0  0  0  0  0  0  0  0
    5.4066    3.0039   29.4750 H   0  0  0  0  0  0  0  0  0  0  0  0
    5.3923    4.6059   28.7363 H   0  0  0  0  0  0  0  0  0  0  0  0
    6.8698    3.9926   29.4818 H   0  0  0  0  0  0  0  0  0  0  0  0
  1  2  1  0
  2  3  2  0
  3  4  1  0
  4  5  2  0
  5  6  1  0
  6  7  2  0
  7  8  1  0
  8  9  1  0
  9 10  1  0
 10 11  2  0
 11 12  1  0
 12 13  2  0
 13 14  1  0
 14 15  2  0
 15 16  1  0
 13 17  1  0
 12 18  1  0
 11 19  1  0
  9 20  1  0
  9 21  1  0
  8 22  1  0
 22 23  1  0
 23 24  1  0
 24 25  1  0
 25 26  1  0
 26 27  2  0
 27 28  1  0
 28 29  2  0
 29 30  1  0
 30 31  1  0
 31 32  1  0
 31 33  1  0
 29 34  1  0
 28 35  1  0
 25 36  1  0
 25 37  1  0
 24 38  1  0
 24 39  1  0
 23 40  1  0
 22 41  2  0
  5 42  1  0
 42 43  2  0
 43 44  1  0
 42 45  1  0
  4 46  1  0
  3 47  1  0
  1 48  1  0
  1 49  1  0
  1 50  1  0
 43  2  1  0
 41  6  1  0
 15 10  1  0
 31 23  1  0
 30 26  1  0
M  END
>  <cnnaffinity>  (1) 
-6.10472

>  <filename>  (1) 
Cc1ccc(-c2nc(C3CCc4nccn4C3)n(Cc3cccnc3)n2)cc1

$$$$
