
     RDKit          3D

 43 47  0  0  0  0  0  0  0  0999 V2000
   12.2034   -1.3775   21.1779 C   0  0  0  0  0  0  0  0  0  0  0  0
   11.9144   -0.0941   21.9179 C   0  0  0  0  0  0  0  0  0  0  0  0
   12.8107    0.3924   22.8737 C   0  0  0  0  0  0  0  0  0  0  0  0
   12.4988    1.5639   23.5715 C   0  0  0  0  0  0  0  0  0  0  0  0
   11.2984    2.2123   23.2817 C   0  0  0  0  0  0  0  0  0  0  0  0
   10.4266    1.7688   22.3656 N   0  0  0  0  0  0  0  0  0  0  0  0
   10.7308    0.6569   21.6931 C   0  0  0  0  0  0  0  0  0  0  0  0
    9.6856    0.2404   20.7049 C   0  0  0  0  0  0  0  0  0  0  0  0
    8.6444   -0.5649   21.3754 C   0  0  0  0  0  0  0  0  0  0  0  0
    8.8682   -1.4151   22.3599 N   0  0  0  0  0  0  0  0  0  0  0  0
    7.6507   -1.9737   22.5555 C   0  0  0  0  0  0  0  0  0  0  0  0
    7.2866   -3.0077   23.5668 C   0  0  0  0  0  0  0  0  0  0  0  0
    6.3412   -2.5752   24.6406 C   0  0  0  0  0  0  0  0  0  0  0  0
    7.7486   -3.1008   25.0490 C   0  0  0  0  0  0  0  0  0  0  0  0
    8.0475   -3.4848   26.4956 C   0  0  0  0  0  0  0  0  0  0  0  0
    8.9517   -3.9622   25.3967 C   0  0  0  0  0  0  0  0  0  0  0  0
    8.9378   -5.0144   25.0914 H   0  0  0  0  0  0  0  0  0  0  0  0
    9.9394   -3.5008   25.3541 H   0  0  0  0  0  0  0  0  0  0  0  0
    8.4484   -2.7138   27.1509 H   0  0  0  0  0  0  0  0  0  0  0  0
    7.3620   -4.1895   26.9725 H   0  0  0  0  0  0  0  0  0  0  0  0
    6.1678   -1.5016   24.7012 H   0  0  0  0  0  0  0  0  0  0  0  0
    5.4621   -3.1680   24.9128 H   0  0  0  0  0  0  0  0  0  0  0  0
    7.1198   -3.9760   23.0951 H   0  0  0  0  0  0  0  0  0  0  0  0
    6.7034   -1.5528   21.7296 N   0  0  0  0  0  0  0  0  0  0  0  0
    7.3492   -0.6549   20.9459 N   0  0  0  0  0  0  0  0  0  0  0  0
    6.6615    0.0148   19.8926 C   0  0  0  0  0  0  0  0  0  0  0  0
    5.4380    0.6462   20.1457 C   0  0  0  0  0  0  0  0  0  0  0  0
    4.8069    1.3135   19.0924 C   0  0  0  0  0  0  0  0  0  0  0  0
    5.3995    1.3012   17.8249 C   0  0  0  0  0  0  0  0  0  0  0  0
    6.5509    0.6651   17.5654 N   0  0  0  0  0  0  0  0  0  0  0  0
    7.1638    0.0416   18.5783 C   0  0  0  0  0  0  0  0  0  0  0  0
    8.0992   -0.4605   18.3346 H   0  0  0  0  0  0  0  0  0  0  0  0
    4.9343    1.8202   16.9894 H   0  0  0  0  0  0  0  0  0  0  0  0
    3.8741    1.8418   19.2457 H   0  0  0  0  0  0  0  0  0  0  0  0
    5.0116    0.5971   21.1463 H   0  0  0  0  0  0  0  0  0  0  0  0
   10.0930   -0.3926   19.9117 H   0  0  0  0  0  0  0  0  0  0  0  0
    9.2502    1.1386   20.2715 H   0  0  0  0  0  0  0  0  0  0  0  0
   11.0121    3.1255   23.7995 H   0  0  0  0  0  0  0  0  0  0  0  0
   13.1590    1.9598   24.3315 H   0  0  0  0  0  0  0  0  0  0  0  0
   13.7354   -0.1564   23.0665 H   0  0  0  0  0  0  0  0  0  0  0  0
   12.4446   -1.1955   20.1272 H   0  0  0  0  0  0  0  0  0  0  0  0
   13.0636   -1.9066   21.5963 H   0  0  0  0  0  0  0  0  0  0  0  0
   11.3385   -2.0490   21.2191 H   0  0  0  0  0  0  0  0  0  0  0  0
  1  2  1  0
  2  3  2  0
  3  4  1  0
  4  5  2  0
  5  6  1  0
  6  7  2  0
  7  8  1  0
  8  9  1  0
  9 10  2  0
 10 11  1  0
 11 12  1  0
 12 13  1  0
 13 14  1  0
 14 15  1  0
 15 16  1  0
 16 17  1  0
 16 18  1  0
 15 19  1  0
 15 20  1  0
 13 21  1  0
 13 22  1  0
 12 23  1  0
 11 24  2  0
 24 25  1  0
 25 26  1  0
 26 27  2  0
 27 28  1  0
 28 29  2  0
 29 30  1  0
 30 31  2  0
 31 32  1  0
 29 33  1  0
 28 34  1  0
 27 35  1  0
  8 36  1  0
  8 37  1  0
  5 38  1  0
  4 39  1  0
  3 40  1  0
  1 41  1  0
  1 42  1  0
  1 43  1  0
  7  2  1  0
 25  9  1  0
 31 26  1  0
 14 12  1  0
 16 14  1  0
M  END
>  <cnnaffinity>  (1) 
-6.60297

>  <filename>  (1) 
Cc1cccnc1Cc1nc(C2CC23CC3)nn1-c1cccnc1

$$$$
