
     RDKit          3D

 32 34  0  0  0  0  0  0  0  0999 V2000
    4.9074    1.7762   17.0013 H   0  0  0  0  0  0  0  0  0  0  0  0
    5.3980    1.2938   17.8424 C   0  0  0  0  0  0  0  0  0  0  0  0
    6.5628    0.6781   17.5796 N   0  0  0  0  0  0  0  0  0  0  0  0
    7.1803    0.0586   18.5924 C   0  0  0  0  0  0  0  0  0  0  0  0
    8.1288   -0.4302   18.3813 H   0  0  0  0  0  0  0  0  0  0  0  0
    6.6670    0.0022   19.9078 C   0  0  0  0  0  0  0  0  0  0  0  0
    7.3585   -0.6841   20.9478 N   0  0  0  0  0  0  0  0  0  0  0  0
    6.7683   -1.4476   21.9481 C   0  0  0  0  0  0  0  0  0  0  0  0
    5.7015   -1.5997   21.9858 H   0  0  0  0  0  0  0  0  0  0  0  0
    7.7392   -1.9371   22.7507 C   0  0  0  0  0  0  0  0  0  0  0  0
    7.6101   -2.7849   23.9307 C   0  0  0  0  0  0  0  0  0  0  0  0
    6.3654   -2.8542   24.5804 C   0  0  0  0  0  0  0  0  0  0  0  0
    5.5279   -2.2623   24.2239 H   0  0  0  0  0  0  0  0  0  0  0  0
    6.2023   -3.6685   25.6942 C   0  0  0  0  0  0  0  0  0  0  0  0
    5.2387   -3.7201   26.1886 H   0  0  0  0  0  0  0  0  0  0  0  0
    7.2785   -4.4184   26.1725 C   0  0  0  0  0  0  0  0  0  0  0  0
    7.1448   -5.0608   27.0384 H   0  0  0  0  0  0  0  0  0  0  0  0
    8.5291   -4.3605   25.5422 C   0  0  0  0  0  0  0  0  0  0  0  0
    9.6785   -5.1938   26.0368 C   0  0  0  0  0  0  0  0  0  0  0  0
    9.5969   -5.3796   27.1112 H   0  0  0  0  0  0  0  0  0  0  0  0
    9.6828   -6.1619   25.5239 H   0  0  0  0  0  0  0  0  0  0  0  0
   10.6383   -4.7029   25.8490 H   0  0  0  0  0  0  0  0  0  0  0  0
    8.6819   -3.5471   24.4186 C   0  0  0  0  0  0  0  0  0  0  0  0
    9.6432   -3.5239   23.9066 H   0  0  0  0  0  0  0  0  0  0  0  0
    8.9441   -1.4760   22.2315 N   0  0  0  0  0  0  0  0  0  0  0  0
    9.8702   -1.6052   22.5929 H   0  0  0  0  0  0  0  0  0  0  0  0
    8.7519   -0.6800   21.1338 C   0  0  0  0  0  0  0  0  0  0  0  0
    9.5962   -0.1075   20.4753 O   0  0  0  0  0  0  0  0  0  0  0  0
    5.4469    0.6452   20.1622 C   0  0  0  0  0  0  0  0  0  0  0  0
    5.0160    0.6296   21.1637 H   0  0  0  0  0  0  0  0  0  0  0  0
    4.8078    1.3115   19.1110 C   0  0  0  0  0  0  0  0  0  0  0  0
    3.8728    1.8444   19.2669 H   0  0  0  0  0  0  0  0  0  0  0  0
  1  2  1  0
  2  3  2  0
  3  4  1  0
  4  5  1  0
  4  6  2  0
  6  7  1  0
  7  8  1  0
  8  9  1  0
  8 10  2  0
 10 11  1  0
 11 12  2  0
 12 13  1  0
 12 14  1  0
 14 15  1  0
 14 16  2  0
 16 17  1  0
 16 18  1  0
 18 19  1  0
 19 20  1  0
 19 21  1  0
 19 22  1  0
 18 23  2  0
 23 24  1  0
 10 25  1  0
 25 26  1  0
 25 27  1  0
 27 28  2  0
  6 29  1  0
 29 30  1  0
 29 31  2  0
 31 32  1  0
 31  2  1  0
 27  7  1  0
 23 11  1  0
M  END
>  <cnnaffinity>  (1) 
-5.39448

>  <filename>  (1) 
Cc1cccc(-c2cn(-c3cccnc3)c(=O)[nH]2)c1

$$$$
