
     RDKit          3D

 43 46  0  0  0  0  0  0  0  0999 V2000
    4.8993   -0.8182   26.4302 C   0  0  0  0  0  0  0  0  0  0  0  0
    5.7939    0.1800   25.7524 C   0  0  0  0  0  0  0  0  0  0  0  0
    5.6703    0.6815   24.4740 C   0  0  0  0  0  0  0  0  0  0  0  0
    6.7441    1.4727   24.2259 N   0  0  0  0  0  0  0  0  0  0  0  0
    7.2289    1.9269   22.9316 C   0  0  0  0  0  0  0  0  0  0  0  0
    8.2122    0.9489   22.3818 C   0  0  0  0  0  0  0  0  0  0  0  0
    9.5181    1.0570   22.5076 N   0  0  0  0  0  0  0  0  0  0  0  0
    9.9733   -0.1347   22.0488 C   0  0  0  0  0  0  0  0  0  0  0  0
   11.3975   -0.4995   21.9173 C   0  0  0  0  0  0  0  0  0  0  0  0
   12.4512    0.2846   22.4336 C   0  0  0  0  0  0  0  0  0  0  0  0
   13.7802   -0.0664   22.1671 C   0  0  0  0  0  0  0  0  0  0  0  0
   14.0474   -1.2018   21.3961 C   0  0  0  0  0  0  0  0  0  0  0  0
   13.0143   -1.9604   20.8678 C   0  0  0  0  0  0  0  0  0  0  0  0
   11.6939   -1.6456   21.1615 C   0  0  0  0  0  0  0  0  0  0  0  0
   10.8666   -2.2517   20.8107 H   0  0  0  0  0  0  0  0  0  0  0  0
   13.2695   -2.7548   20.1760 H   0  0  0  0  0  0  0  0  0  0  0  0
   15.0398   -1.5199   21.1405 H   0  0  0  0  0  0  0  0  0  0  0  0
   14.6035    0.5636   22.4987 H   0  0  0  0  0  0  0  0  0  0  0  0
   12.2361    1.1778   23.0125 H   0  0  0  0  0  0  0  0  0  0  0  0
    9.0094   -0.9438   21.6228 N   0  0  0  0  0  0  0  0  0  0  0  0
    7.8815   -0.2479   21.8492 N   0  0  0  0  0  0  0  0  0  0  0  0
    6.6173   -0.7247   21.2909 C   0  0  0  0  0  0  0  0  0  0  0  0
    6.1832    0.0444   20.0581 C   0  0  0  0  0  0  0  0  0  0  0  0
    4.9904    0.7718   20.0113 C   0  0  0  0  0  0  0  0  0  0  0  0
    4.6735    1.4773   18.8477 C   0  0  0  0  0  0  0  0  0  0  0  0
    5.5614    1.4257   17.7696 C   0  0  0  0  0  0  0  0  0  0  0  0
    6.7113    0.7343   17.7911 N   0  0  0  0  0  0  0  0  0  0  0  0
    7.0126    0.0805   18.9197 C   0  0  0  0  0  0  0  0  0  0  0  0
    7.9731   -0.4353   18.9284 H   0  0  0  0  0  0  0  0  0  0  0  0
    5.3460    1.9704   16.8521 H   0  0  0  0  0  0  0  0  0  0  0  0
    3.7729    2.0752   18.7695 H   0  0  0  0  0  0  0  0  0  0  0  0
    4.3262    0.8071   20.8790 H   0  0  0  0  0  0  0  0  0  0  0  0
    6.7713   -1.7876   21.0761 H   0  0  0  0  0  0  0  0  0  0  0  0
    5.8627   -0.6574   22.0774 H   0  0  0  0  0  0  0  0  0  0  0  0
    6.3784    2.0615   22.2575 H   0  0  0  0  0  0  0  0  0  0  0  0
    7.7546    2.8698   23.0815 H   0  0  0  0  0  0  0  0  0  0  0  0
    7.5538    1.5445   25.2872 N   0  0  0  0  0  0  0  0  0  0  0  0
    6.9920    0.7856   26.2131 C   0  0  0  0  0  0  0  0  0  0  0  0
    7.4835    0.6755   27.1747 H   0  0  0  0  0  0  0  0  0  0  0  0
    4.8818    0.5911   23.7422 H   0  0  0  0  0  0  0  0  0  0  0  0
    5.4676   -1.6461   26.8705 H   0  0  0  0  0  0  0  0  0  0  0  0
    4.3115   -0.3658   27.2359 H   0  0  0  0  0  0  0  0  0  0  0  0
    4.1903   -1.2549   25.7197 H   0  0  0  0  0  0  0  0  0  0  0  0
  1  2  1  0
  2  3  2  0
  3  4  1  0
  4  5  1  0
  5  6  1  0
  6  7  2  0
  7  8  1  0
  8  9  1  0
  9 10  2  0
 10 11  1  0
 11 12  2  0
 12 13  1  0
 13 14  2  0
 14 15  1  0
 13 16  1  0
 12 17  1  0
 11 18  1  0
 10 19  1  0
  8 20  2  0
 20 21  1  0
 21 22  1  0
 22 23  1  0
 23 24  2  0
 24 25  1  0
 25 26  2  0
 26 27  1  0
 27 28  2  0
 28 29  1  0
 26 30  1  0
 25 31  1  0
 24 32  1  0
 22 33  1  0
 22 34  1  0
  5 35  1  0
  5 36  1  0
  4 37  1  0
 37 38  2  0
 38 39  1  0
  3 40  1  0
  1 41  1  0
  1 42  1  0
  1 43  1  0
 38  2  1  0
 21  6  1  0
 28 23  1  0
 14  9  1  0
M  END
>  <cnnaffinity>  (1) 
-6.18428

>  <filename>  (1) 
Cc1cnn(Cc2nc(-c3ccccc3)nn2Cc2cccnc2)c1

$$$$
