
     RDKit          3D

 53 56  0  0  0  0  0  0  0  0999 V2000
   10.6178   -4.9925   25.5491 C   0  0  0  0  0  0  0  0  0  0  0  0
    9.1360   -4.5820   25.6008 C   0  0  0  0  0  0  0  0  0  0  0  0
    8.2940   -5.2713   24.4911 C   0  0  0  0  0  0  0  0  0  0  0  0
    8.1668   -4.3917   23.2418 C   0  0  0  0  0  0  0  0  0  0  0  0
    7.3220   -3.1189   23.5536 C   0  0  0  0  0  0  0  0  0  0  0  0
    7.5678   -2.0660   22.5068 C   0  0  0  0  0  0  0  0  0  0  0  0
    6.6805   -1.6946   21.6115 N   0  0  0  0  0  0  0  0  0  0  0  0
    7.3467   -0.7473   20.8875 N   0  0  0  0  0  0  0  0  0  0  0  0
    6.6644   -0.0599   19.8368 C   0  0  0  0  0  0  0  0  0  0  0  0
    5.4537    0.5959   20.1016 C   0  0  0  0  0  0  0  0  0  0  0  0
    4.8400    1.3122   19.0674 C   0  0  0  0  0  0  0  0  0  0  0  0
    5.4436    1.3179   17.8041 C   0  0  0  0  0  0  0  0  0  0  0  0
    6.5711    0.6441   17.5265 N   0  0  0  0  0  0  0  0  0  0  0  0
    7.1580   -0.0363   18.5202 C   0  0  0  0  0  0  0  0  0  0  0  0
    8.0522   -0.6025   18.2566 H   0  0  0  0  0  0  0  0  0  0  0  0
    4.9968    1.8655   16.9763 H   0  0  0  0  0  0  0  0  0  0  0  0
    3.9133    1.8579   19.2282 H   0  0  0  0  0  0  0  0  0  0  0  0
    5.0124    0.5168   21.0960 H   0  0  0  0  0  0  0  0  0  0  0  0
    8.5913   -0.5778   21.4312 C   0  0  0  0  0  0  0  0  0  0  0  0
    9.5700    0.5252   21.1572 C   0  0  0  0  0  0  0  0  0  0  0  0
    9.4364    1.6739   22.1899 C   0  0  0  0  0  0  0  0  0  0  0  0
    8.0569    2.3489   22.1076 C   0  0  0  0  0  0  0  0  0  0  0  0
    7.9845    3.5098   23.1035 C   0  0  0  0  0  0  0  0  0  0  0  0
    9.1466    4.4801   22.8860 C   0  0  0  0  0  0  0  0  0  0  0  0
   10.3948    3.8030   22.9708 O   0  0  0  0  0  0  0  0  0  0  0  0
   10.5679    2.7059   22.0805 C   0  0  0  0  0  0  0  0  0  0  0  0
   11.5372    2.2759   22.3640 H   0  0  0  0  0  0  0  0  0  0  0  0
   10.6736    3.0129   21.0324 H   0  0  0  0  0  0  0  0  0  0  0  0
    9.0273    5.0293   21.9295 H   0  0  0  0  0  0  0  0  0  0  0  0
    9.1742    5.2356   23.6812 H   0  0  0  0  0  0  0  0  0  0  0  0
    7.0360    4.0537   23.0242 H   0  0  0  0  0  0  0  0  0  0  0  0
    8.0563    3.1024   24.1231 H   0  0  0  0  0  0  0  0  0  0  0  0
    7.8666    2.6907   21.0796 H   0  0  0  0  0  0  0  0  0  0  0  0
    7.2771    1.6107   22.3410 H   0  0  0  0  0  0  0  0  0  0  0  0
    9.5326    1.2582   23.2006 H   0  0  0  0  0  0  0  0  0  0  0  0
   10.5717    0.0865   21.2270 H   0  0  0  0  0  0  0  0  0  0  0  0
    9.4345    0.9026   20.1388 H   0  0  0  0  0  0  0  0  0  0  0  0
    8.7591   -1.4229   22.4302 N   0  0  0  0  0  0  0  0  0  0  0  0
    7.6009   -2.5901   25.0041 C   0  0  0  0  0  0  0  0  0  0  0  0
    8.9787   -3.0357   25.5360 C   0  0  0  0  0  0  0  0  0  0  0  0
    9.1730   -2.5922   26.5189 H   0  0  0  0  0  0  0  0  0  0  0  0
    9.7467   -2.6200   24.8674 H   0  0  0  0  0  0  0  0  0  0  0  0
    7.5162   -1.4968   25.0470 H   0  0  0  0  0  0  0  0  0  0  0  0
    6.8212   -2.9739   25.6760 H   0  0  0  0  0  0  0  0  0  0  0  0
    6.2589   -3.3708   23.4733 H   0  0  0  0  0  0  0  0  0  0  0  0
    9.1698   -4.0824   22.9136 H   0  0  0  0  0  0  0  0  0  0  0  0
    7.7211   -4.9482   22.4108 H   0  0  0  0  0  0  0  0  0  0  0  0
    7.2850   -5.4712   24.8788 H   0  0  0  0  0  0  0  0  0  0  0  0
    8.7231   -6.2495   24.2431 H   0  0  0  0  0  0  0  0  0  0  0  0
    8.7445   -4.9377   26.5664 H   0  0  0  0  0  0  0  0  0  0  0  0
   11.1769   -4.4527   24.7754 H   0  0  0  0  0  0  0  0  0  0  0  0
   11.0987   -4.8052   26.5135 H   0  0  0  0  0  0  0  0  0  0  0  0
   10.7302   -6.0559   25.3227 H   0  0  0  0  0  0  0  0  0  0  0  0
  1  2  1  0
  2  3  1  0
  3  4  1  0
  4  5  1  0
  5  6  1  0
  6  7  2  0
  7  8  1  0
  8  9  1  0
  9 10  2  0
 10 11  1  0
 11 12  2  0
 12 13  1  0
 13 14  2  0
 14 15  1  0
 12 16  1  0
 11 17  1  0
 10 18  1  0
  8 19  1  0
 19 20  1  0
 20 21  1  0
 21 22  1  0
 22 23  1  0
 23 24  1  0
 24 25  1  0
 25 26  1  0
 26 27  1  0
 26 28  1  0
 24 29  1  0
 24 30  1  0
 23 31  1  0
 23 32  1  0
 22 33  1  0
 22 34  1  0
 21 35  1  0
 20 36  1  0
 20 37  1  0
 19 38  2  0
  5 39  1  0
 39 40  1  0
 40 41  1  0
 40 42  1  0
 39 43  1  0
 39 44  1  0
  5 45  1  0
  4 46  1  0
  4 47  1  0
  3 48  1  0
  3 49  1  0
  2 50  1  0
  1 51  1  0
  1 52  1  0
  1 53  1  0
 40  2  1  0
 38  6  1  0
 14  9  1  0
 26 21  1  0
M  END
>  <cnnaffinity>  (1) 
-6.4647

>  <filename>  (1) 
CC1CCC(c2nc(CC3CCCOC3)n(-c3cccnc3)n2)CC1

$$$$
