
     RDKit          3D

 46 50  0  0  0  0  0  0  0  0999 V2000
    6.0954    7.0858   21.9461 C   0  0  0  0  0  0  0  0  0  0  0  0
    7.1879    6.1100   22.3009 C   0  0  0  0  0  0  0  0  0  0  0  0
    8.3575    6.5009   22.9691 C   0  0  0  0  0  0  0  0  0  0  0  0
    9.3460    5.6677   23.3147 N   0  0  0  0  0  0  0  0  0  0  0  0
    9.2171    4.3870   22.9511 C   0  0  0  0  0  0  0  0  0  0  0  0
    8.1168    3.8656   22.2533 C   0  0  0  0  0  0  0  0  0  0  0  0
    8.0495    2.4118   21.8672 C   0  0  0  0  0  0  0  0  0  0  0  0
    7.3089    1.5318   22.9017 C   0  0  0  0  0  0  0  0  0  0  0  0
    7.3547    0.0782   22.5543 C   0  0  0  0  0  0  0  0  0  0  0  0
    7.9804   -0.8426   23.2622 N   0  0  0  0  0  0  0  0  0  0  0  0
    7.9184   -1.9429   22.4688 C   0  0  0  0  0  0  0  0  0  0  0  0
    8.7027   -3.1842   22.7082 C   0  0  0  0  0  0  0  0  0  0  0  0
    8.0343   -4.5530   22.5581 C   0  0  0  0  0  0  0  0  0  0  0  0
    8.6088   -4.1151   23.8720 C   0  0  0  0  0  0  0  0  0  0  0  0
    9.6268   -4.5925   24.8488 C   0  0  0  0  0  0  0  0  0  0  0  0
    8.2337   -4.1503   25.3103 C   0  0  0  0  0  0  0  0  0  0  0  0
    8.1188   -3.2014   25.8274 H   0  0  0  0  0  0  0  0  0  0  0  0
    7.5306   -4.9288   25.5995 H   0  0  0  0  0  0  0  0  0  0  0  0
    9.8894   -5.6490   24.8494 H   0  0  0  0  0  0  0  0  0  0  0  0
   10.4575   -3.9136   25.0395 H   0  0  0  0  0  0  0  0  0  0  0  0
    8.5380   -5.3509   22.0124 H   0  0  0  0  0  0  0  0  0  0  0  0
    6.9475   -4.5581   22.4679 H   0  0  0  0  0  0  0  0  0  0  0  0
    9.7169   -3.0630   22.3168 H   0  0  0  0  0  0  0  0  0  0  0  0
    7.3017   -1.7622   21.3172 N   0  0  0  0  0  0  0  0  0  0  0  0
    6.9002   -0.4625   21.3732 N   0  0  0  0  0  0  0  0  0  0  0  0
    6.3804    0.1314   20.1809 C   0  0  0  0  0  0  0  0  0  0  0  0
    5.3929    1.1244   20.1810 C   0  0  0  0  0  0  0  0  0  0  0  0
    5.0962    1.7555   18.9653 C   0  0  0  0  0  0  0  0  0  0  0  0
    5.7294    1.3224   17.7968 C   0  0  0  0  0  0  0  0  0  0  0  0
    6.6285    0.3238   17.7758 N   0  0  0  0  0  0  0  0  0  0  0  0
    6.9263   -0.2614   18.9385 C   0  0  0  0  0  0  0  0  0  0  0  0
    7.6398   -1.0802   18.9107 H   0  0  0  0  0  0  0  0  0  0  0  0
    5.5237    1.7943   16.8401 H   0  0  0  0  0  0  0  0  0  0  0  0
    4.3798    2.5685   18.9111 H   0  0  0  0  0  0  0  0  0  0  0  0
    4.8736    1.4111   21.0951 H   0  0  0  0  0  0  0  0  0  0  0  0
    7.7809    1.6333   23.8834 H   0  0  0  0  0  0  0  0  0  0  0  0
    6.2704    1.8544   23.0250 H   0  0  0  0  0  0  0  0  0  0  0  0
    7.5640    2.3101   20.8904 H   0  0  0  0  0  0  0  0  0  0  0  0
    9.0658    2.0115   21.7529 H   0  0  0  0  0  0  0  0  0  0  0  0
    7.0835    4.7599   21.9515 C   0  0  0  0  0  0  0  0  0  0  0  0
    6.1943    4.4181   21.4162 H   0  0  0  0  0  0  0  0  0  0  0  0
   10.0522    3.7429   23.2160 H   0  0  0  0  0  0  0  0  0  0  0  0
    8.5011    7.5442   23.2434 H   0  0  0  0  0  0  0  0  0  0  0  0
    6.2163    8.0447   22.4578 H   0  0  0  0  0  0  0  0  0  0  0  0
    5.1098    6.6885   22.2146 H   0  0  0  0  0  0  0  0  0  0  0  0
    6.0811    7.2873   20.8688 H   0  0  0  0  0  0  0  0  0  0  0  0
  1  2  1  0
  2  3  2  0
  3  4  1  0
  4  5  2  0
  5  6  1  0
  6  7  1  0
  7  8  1  0
  8  9  1  0
  9 10  2  0
 10 11  1  0
 11 12  1  0
 12 13  1  0
 13 14  1  0
 14 15  1  0
 15 16  1  0
 16 17  1  0
 16 18  1  0
 15 19  1  0
 15 20  1  0
 13 21  1  0
 13 22  1  0
 12 23  1  0
 11 24  2  0
 24 25  1  0
 25 26  1  0
 26 27  2  0
 27 28  1  0
 28 29  2  0
 29 30  1  0
 30 31  2  0
 31 32  1  0
 29 33  1  0
 28 34  1  0
 27 35  1  0
  8 36  1  0
  8 37  1  0
  7 38  1  0
  7 39  1  0
  6 40  2  0
 40 41  1  0
  5 42  1  0
  3 43  1  0
  1 44  1  0
  1 45  1  0
  1 46  1  0
 40  2  1  0
 25  9  1  0
 31 26  1  0
 14 12  1  0
 16 14  1  0
M  END
>  <cnnaffinity>  (1) 
-6.25715

>  <filename>  (1) 
Cc1cncc(CCc2nc(C3CC34CC4)nn2-c2cccnc2)c1

$$$$
