
     RDKit          3D

 33 35  0  0  0  0  0  0  0  0999 V2000
    4.9470    1.7822   16.9635 H   0  0  0  0  0  0  0  0  0  0  0  0
    5.4403    1.3145   17.8112 C   0  0  0  0  0  0  0  0  0  0  0  0
    6.6174    0.7249   17.5495 N   0  0  0  0  0  0  0  0  0  0  0  0
    7.2421    0.1243   18.5685 C   0  0  0  0  0  0  0  0  0  0  0  0
    8.2019   -0.3408   18.3469 H   0  0  0  0  0  0  0  0  0  0  0  0
    6.7068    0.0371   19.8640 C   0  0  0  0  0  0  0  0  0  0  0  0
    7.4534   -0.7460   20.8959 C   0  0  0  0  0  0  0  0  0  0  0  0
    8.7364   -0.4579   20.9905 N   0  0  0  0  0  0  0  0  0  0  0  0
    9.4863   -1.0669   21.9524 N   0  0  0  0  0  0  0  0  0  0  0  0
   10.8946   -0.8050   21.9975 C   0  0  0  0  0  0  0  0  0  0  0  0
   11.7633   -1.9073   22.0439 C   0  0  0  0  0  0  0  0  0  0  0  0
   11.3352   -2.9049   22.0755 H   0  0  0  0  0  0  0  0  0  0  0  0
   13.1451   -1.7113   22.0091 C   0  0  0  0  0  0  0  0  0  0  0  0
   13.8111   -2.5664   21.9461 H   0  0  0  0  0  0  0  0  0  0  0  0
   13.6497   -0.4149   22.0797 C   0  0  0  0  0  0  0  0  0  0  0  0
   14.7198   -0.2472   22.1039 H   0  0  0  0  0  0  0  0  0  0  0  0
   12.7811    0.6774   22.1255 C   0  0  0  0  0  0  0  0  0  0  0  0
   13.1871    1.6832   22.1939 H   0  0  0  0  0  0  0  0  0  0  0  0
   11.3868    0.5210   22.0500 C   0  0  0  0  0  0  0  0  0  0  0  0
   10.4856    1.7303   22.0903 C   0  0  0  0  0  0  0  0  0  0  0  0
   11.0423    2.6293   22.3697 H   0  0  0  0  0  0  0  0  0  0  0  0
   10.0273    1.8928   21.1097 H   0  0  0  0  0  0  0  0  0  0  0  0
    9.6722    1.5888   22.8109 H   0  0  0  0  0  0  0  0  0  0  0  0
    8.9143   -1.8946   22.8812 C   0  0  0  0  0  0  0  0  0  0  0  0
    9.5858   -2.2778   23.6563 H   0  0  0  0  0  0  0  0  0  0  0  0
    7.6093   -2.2092   22.8624 C   0  0  0  0  0  0  0  0  0  0  0  0
    7.1626   -2.8327   23.6209 H   0  0  0  0  0  0  0  0  0  0  0  0
    6.7709   -1.7916   21.7534 C   0  0  0  0  0  0  0  0  0  0  0  0
    5.6574   -2.2666   21.5578 O   0  0  0  0  0  0  0  0  0  0  0  0
    5.4762    0.6694   20.1217 C   0  0  0  0  0  0  0  0  0  0  0  0
    5.0237    0.6156   21.1151 H   0  0  0  0  0  0  0  0  0  0  0  0
    4.8369    1.3279   19.0725 C   0  0  0  0  0  0  0  0  0  0  0  0
    3.8829    1.8286   19.2092 H   0  0  0  0  0  0  0  0  0  0  0  0
  1  2  1  0
  2  3  2  0
  3  4  1  0
  4  5  1  0
  4  6  2  0
  6  7  1  0
  7  8  2  0
  8  9  1  0
  9 10  1  0
 10 11  2  0
 11 12  1  0
 11 13  1  0
 13 14  1  0
 13 15  2  0
 15 16  1  0
 15 17  1  0
 17 18  1  0
 17 19  2  0
 19 20  1  0
 20 21  1  0
 20 22  1  0
 20 23  1  0
  9 24  1  0
 24 25  1  0
 24 26  2  0
 26 27  1  0
 26 28  1  0
 28 29  2  0
  6 30  1  0
 30 31  1  0
 30 32  2  0
 32 33  1  0
 32  2  1  0
 28  7  1  0
 19 10  1  0
M  END
>  <cnnaffinity>  (1) 
-5.5492

>  <filename>  (1) 
Cc1ccccc1-n1ccc(=O)c(-c2cccnc2)n1

$$$$
