
     RDKit          3D

 53 56  0  0  0  0  0  0  0  0999 V2000
    2.9746    3.0064   27.8875 C   0  0  0  0  0  0  0  0  0  0  0  0
    3.9020    1.9163   27.3465 C   0  0  0  0  0  0  0  0  0  0  0  0
    3.4574    1.4903   25.9222 C   0  0  0  0  0  0  0  0  0  0  0  0
    3.5861   -0.0199   25.6632 C   0  0  0  0  0  0  0  0  0  0  0  0
    4.9067   -0.6355   26.1877 C   0  0  0  0  0  0  0  0  0  0  0  0
    6.1072   -0.1132   25.4240 C   0  0  0  0  0  0  0  0  0  0  0  0
    6.5870    1.0953   25.6312 N   0  0  0  0  0  0  0  0  0  0  0  0
    7.5828    1.2221   24.7115 N   0  0  0  0  0  0  0  0  0  0  0  0
    8.3509    2.4222   24.6822 C   0  0  0  0  0  0  0  0  0  0  0  0
    8.8904    2.9190   23.5222 C   0  0  0  0  0  0  0  0  0  0  0  0
    9.6491    4.1516   23.5625 C   0  0  0  0  0  0  0  0  0  0  0  0
   10.2835    4.6915   22.6738 O   0  0  0  0  0  0  0  0  0  0  0  0
    9.6719    4.7932   24.8020 N   0  0  0  0  0  0  0  0  0  0  0  0
    9.1749    4.2960   25.9684 C   0  0  0  0  0  0  0  0  0  0  0  0
    8.5084    3.1148   25.9363 C   0  0  0  0  0  0  0  0  0  0  0  0
    8.1142    2.6719   26.8429 H   0  0  0  0  0  0  0  0  0  0  0  0
    9.3569    4.8646   26.8808 H   0  0  0  0  0  0  0  0  0  0  0  0
   10.1736    5.6581   24.6880 H   0  0  0  0  0  0  0  0  0  0  0  0
    8.7673    2.4686   22.5479 H   0  0  0  0  0  0  0  0  0  0  0  0
    7.6784    0.0572   24.0167 C   0  0  0  0  0  0  0  0  0  0  0  0
    8.6891   -0.2112   22.9283 C   0  0  0  0  0  0  0  0  0  0  0  0
    8.2743    0.2052   21.6308 O   0  0  0  0  0  0  0  0  0  0  0  0
    7.3828   -0.7072   20.9792 C   0  0  0  0  0  0  0  0  0  0  0  0
    6.6486    0.0168   19.8794 C   0  0  0  0  0  0  0  0  0  0  0  0
    5.4298    0.6713   20.1061 C   0  0  0  0  0  0  0  0  0  0  0  0
    4.8115    1.3397   19.0481 C   0  0  0  0  0  0  0  0  0  0  0  0
    5.4378    1.3275   17.7981 C   0  0  0  0  0  0  0  0  0  0  0  0
    6.6017    0.7039   17.5545 N   0  0  0  0  0  0  0  0  0  0  0  0
    7.1837    0.0751   18.5846 C   0  0  0  0  0  0  0  0  0  0  0  0
    8.1264   -0.4272   18.3603 H   0  0  0  0  0  0  0  0  0  0  0  0
    4.9832    1.8323   16.9493 H   0  0  0  0  0  0  0  0  0  0  0  0
    3.8705    1.8659   19.1786 H   0  0  0  0  0  0  0  0  0  0  0  0
    4.9769    0.6576   21.0994 H   0  0  0  0  0  0  0  0  0  0  0  0
    6.6665   -1.1156   21.7105 H   0  0  0  0  0  0  0  0  0  0  0  0
    7.9539   -1.5563   20.5648 H   0  0  0  0  0  0  0  0  0  0  0  0
    9.6217    0.3206   23.1343 H   0  0  0  0  0  0  0  0  0  0  0  0
    8.9235   -1.2847   22.9412 H   0  0  0  0  0  0  0  0  0  0  0  0
    6.7579   -0.8008   24.4469 N   0  0  0  0  0  0  0  0  0  0  0  0
    4.9772   -0.3945   27.7372 C   0  0  0  0  0  0  0  0  0  0  0  0
    4.0041    0.6930   28.2721 C   0  0  0  0  0  0  0  0  0  0  0  0
    3.0008    0.2527   28.3723 H   0  0  0  0  0  0  0  0  0  0  0  0
    4.3058    0.9969   29.2837 H   0  0  0  0  0  0  0  0  0  0  0  0
    4.7366   -1.3361   28.2444 H   0  0  0  0  0  0  0  0  0  0  0  0
    6.0014   -0.1455   28.0357 H   0  0  0  0  0  0  0  0  0  0  0  0
    4.9072   -1.7127   25.9853 H   0  0  0  0  0  0  0  0  0  0  0  0
    2.7643   -0.5315   26.1769 H   0  0  0  0  0  0  0  0  0  0  0  0
    3.4534   -0.2157   24.6080 H   0  0  0  0  0  0  0  0  0  0  0  0
    2.4050    1.7617   25.7459 H   0  0  0  0  0  0  0  0  0  0  0  0
    4.0434    2.0535   25.1877 H   0  0  0  0  0  0  0  0  0  0  0  0
    4.9104    2.3418   27.2764 H   0  0  0  0  0  0  0  0  0  0  0  0
    2.9509    3.8677   27.2104 H   0  0  0  0  0  0  0  0  0  0  0  0
    3.2873    3.3644   28.8728 H   0  0  0  0  0  0  0  0  0  0  0  0
    1.9455    2.6390   27.9754 H   0  0  0  0  0  0  0  0  0  0  0  0
  1  2  1  0
  2  3  1  0
  3  4  1  0
  4  5  1  0
  5  6  1  0
  6  7  2  0
  7  8  1  0
  8  9  1  0
  9 10  2  0
 10 11  1  0
 11 12  2  0
 11 13  1  0
 13 14  1  0
 14 15  2  0
 15 16  1  0
 14 17  1  0
 13 18  1  0
 10 19  1  0
  8 20  1  0
 20 21  1  0
 21 22  1  0
 22 23  1  0
 23 24  1  0
 24 25  2  0
 25 26  1  0
 26 27  2  0
 27 28  1  0
 28 29  2  0
 29 30  1  0
 27 31  1  0
 26 32  1  0
 25 33  1  0
 23 34  1  0
 23 35  1  0
 21 36  1  0
 21 37  1  0
 20 38  2  0
  5 39  1  0
 39 40  1  0
 40 41  1  0
 40 42  1  0
 39 43  1  0
 39 44  1  0
  5 45  1  0
  4 46  1  0
  4 47  1  0
  3 48  1  0
  3 49  1  0
  2 50  1  0
  1 51  1  0
  1 52  1  0
  1 53  1  0
 40  2  1  0
 38  6  1  0
 15  9  1  0
 29 24  1  0
M  END
>  <cnnaffinity>  (1) 
-5.81313

>  <filename>  (1) 
CC1CCC(c2nc(COCc3cccnc3)n(-c3cc[nH]c(=O)c3)n2)CC1

$$$$
