
     RDKit          3D

 43 46  0  0  0  0  0  0  0  0999 V2000
    6.0793    3.8489   28.9274 C   0  0  0  0  0  0  0  0  0  0  0  0
    6.4167    3.2437   27.5896 C   0  0  0  0  0  0  0  0  0  0  0  0
    5.6781    2.1896   27.0245 C   0  0  0  0  0  0  0  0  0  0  0  0
    6.0498    1.5806   25.8194 C   0  0  0  0  0  0  0  0  0  0  0  0
    7.1883    2.0310   25.1246 C   0  0  0  0  0  0  0  0  0  0  0  0
    7.6562    1.4239   23.8499 C   0  0  0  0  0  0  0  0  0  0  0  0
    7.0598    0.4424   23.1919 N   0  0  0  0  0  0  0  0  0  0  0  0
    7.8458    0.2651   22.1008 N   0  0  0  0  0  0  0  0  0  0  0  0
    7.4423   -0.6529   21.0379 C   0  0  0  0  0  0  0  0  0  0  0  0
    6.7215    0.0279   19.8901 C   0  0  0  0  0  0  0  0  0  0  0  0
    5.5051    0.6881   20.1123 C   0  0  0  0  0  0  0  0  0  0  0  0
    4.8834    1.3260   19.0367 C   0  0  0  0  0  0  0  0  0  0  0  0
    5.4945    1.2802   17.7795 C   0  0  0  0  0  0  0  0  0  0  0  0
    6.6434    0.6301   17.5427 N   0  0  0  0  0  0  0  0  0  0  0  0
    7.2288    0.0207   18.5821 C   0  0  0  0  0  0  0  0  0  0  0  0
    8.1503   -0.5187   18.3525 H   0  0  0  0  0  0  0  0  0  0  0  0
    5.0343    1.7704   16.9215 H   0  0  0  0  0  0  0  0  0  0  0  0
    3.9442    1.8564   19.1533 H   0  0  0  0  0  0  0  0  0  0  0  0
    5.0588    0.6973   21.1108 H   0  0  0  0  0  0  0  0  0  0  0  0
    8.3280   -1.1900   20.6792 H   0  0  0  0  0  0  0  0  0  0  0  0
    6.7895   -1.3909   21.5134 H   0  0  0  0  0  0  0  0  0  0  0  0
    8.8573    1.1571   22.1485 C   0  0  0  0  0  0  0  0  0  0  0  0
    9.9444    1.3020   21.1540 C   0  0  0  0  0  0  0  0  0  0  0  0
   11.0454    0.4213   21.4749 N   0  0  0  0  0  0  0  0  0  0  0  0
   12.0204    0.6156   22.3840 C   0  0  0  0  0  0  0  0  0  0  0  0
   12.8609   -0.4758   22.3017 C   0  0  0  0  0  0  0  0  0  0  0  0
   12.2625   -1.3060   21.3335 C   0  0  0  0  0  0  0  0  0  0  0  0
   11.1513   -0.7520   20.8553 N   0  0  0  0  0  0  0  0  0  0  0  0
   12.6062   -2.2479   20.9171 H   0  0  0  0  0  0  0  0  0  0  0  0
   13.7865   -0.6783   22.8182 H   0  0  0  0  0  0  0  0  0  0  0  0
   11.9999    1.4977   23.0105 H   0  0  0  0  0  0  0  0  0  0  0  0
   10.2777    2.3465   21.1741 H   0  0  0  0  0  0  0  0  0  0  0  0
    9.6052    1.0394   20.1545 H   0  0  0  0  0  0  0  0  0  0  0  0
    8.7793    1.8871   23.2317 N   0  0  0  0  0  0  0  0  0  0  0  0
    7.9275    3.1044   25.6670 C   0  0  0  0  0  0  0  0  0  0  0  0
    7.5318    3.6828   26.8614 C   0  0  0  0  0  0  0  0  0  0  0  0
    8.2724    4.7034   27.3370 F   0  0  0  0  0  0  0  0  0  0  0  0
    8.8235    3.4789   25.1811 H   0  0  0  0  0  0  0  0  0  0  0  0
    5.4719    0.7435   25.4329 H   0  0  0  0  0  0  0  0  0  0  0  0
    4.7908    1.8352   27.5448 H   0  0  0  0  0  0  0  0  0  0  0  0
    6.7537    3.4761   29.7071 H   0  0  0  0  0  0  0  0  0  0  0  0
    6.1866    4.9368   28.9020 H   0  0  0  0  0  0  0  0  0  0  0  0
    5.0554    3.6129   29.2301 H   0  0  0  0  0  0  0  0  0  0  0  0
  1  2  1  0
  2  3  2  0
  3  4  1  0
  4  5  2  0
  5  6  1  0
  6  7  2  0
  7  8  1  0
  8  9  1  0
  9 10  1  0
 10 11  2  0
 11 12  1  0
 12 13  2  0
 13 14  1  0
 14 15  2  0
 15 16  1  0
 13 17  1  0
 12 18  1  0
 11 19  1  0
  9 20  1  0
  9 21  1  0
  8 22  1  0
 22 23  1  0
 23 24  1  0
 24 25  1  0
 25 26  2  0
 26 27  1  0
 27 28  2  0
 27 29  1  0
 26 30  1  0
 25 31  1  0
 23 32  1  0
 23 33  1  0
 22 34  2  0
  5 35  1  0
 35 36  2  0
 36 37  1  0
 35 38  1  0
  4 39  1  0
  3 40  1  0
  1 41  1  0
  1 42  1  0
  1 43  1  0
 36  2  1  0
 34  6  1  0
 15 10  1  0
 28 24  1  0
M  END
>  <cnnaffinity>  (1) 
-6.12448

>  <filename>  (1) 
Cc1ccc(-c2nc(Cn3cccn3)n(Cc3cccnc3)n2)cc1F

$$$$
