
     RDKit          3D

 34 37  0  0  0  0  0  0  0  0999 V2000
    5.0990    1.7571   17.2197 H   0  0  0  0  0  0  0  0  0  0  0  0
    5.6197    1.1453   17.9561 C   0  0  0  0  0  0  0  0  0  0  0  0
    6.8019    0.6332   17.5826 N   0  0  0  0  0  0  0  0  0  0  0  0
    7.4796   -0.0962   18.4726 C   0  0  0  0  0  0  0  0  0  0  0  0
    8.4155   -0.5271   18.1182 H   0  0  0  0  0  0  0  0  0  0  0  0
    7.0202   -0.3352   19.7752 C   0  0  0  0  0  0  0  0  0  0  0  0
    7.9007   -1.0255   20.7215 C   0  0  0  0  0  0  0  0  0  0  0  0
    9.2117   -1.0532   20.7536 N   0  0  0  0  0  0  0  0  0  0  0  0
    9.6131   -1.7024   21.9075 N   0  0  0  0  0  0  0  0  0  0  0  0
    8.5162   -2.0456   22.5312 C   0  0  0  0  0  0  0  0  0  0  0  0
    8.0269   -2.8764   23.9958 S   0  0  0  0  0  0  0  0  0  0  0  0
    6.3700   -2.6329   23.4615 C   0  0  0  0  0  0  0  0  0  0  0  0
    5.2567   -3.1036   24.0727 N   0  0  0  0  0  0  0  0  0  0  0  0
    4.4699   -2.8311   23.4981 H   0  0  0  0  0  0  0  0  0  0  0  0
    5.0297   -3.4305   25.4218 C   0  0  0  0  0  0  0  0  0  0  0  0
    5.5327   -2.6676   26.4794 C   0  0  0  0  0  0  0  0  0  0  0  0
    6.0879   -1.7606   26.2586 H   0  0  0  0  0  0  0  0  0  0  0  0
    5.2663   -3.0553   27.8000 C   0  0  0  0  0  0  0  0  0  0  0  0
    5.6343   -2.4280   28.6137 H   0  0  0  0  0  0  0  0  0  0  0  0
    4.5275   -4.2184   28.0850 C   0  0  0  0  0  0  0  0  0  0  0  0
    4.2683   -4.6866   29.5002 C   0  0  0  0  0  0  0  0  0  0  0  0
    3.2116   -4.9463   29.6345 H   0  0  0  0  0  0  0  0  0  0  0  0
    4.8523   -5.5830   29.7462 H   0  0  0  0  0  0  0  0  0  0  0  0
    4.5128   -3.9266   30.2492 H   0  0  0  0  0  0  0  0  0  0  0  0
    4.0014   -4.9526   27.0025 C   0  0  0  0  0  0  0  0  0  0  0  0
    3.3917   -5.8378   27.1934 H   0  0  0  0  0  0  0  0  0  0  0  0
    4.2323   -4.5479   25.6862 C   0  0  0  0  0  0  0  0  0  0  0  0
    3.7978   -5.0662   24.8361 H   0  0  0  0  0  0  0  0  0  0  0  0
    6.1893   -2.0606   22.3037 N   0  0  0  0  0  0  0  0  0  0  0  0
    7.4139   -1.6728   21.8352 N   0  0  0  0  0  0  0  0  0  0  0  0
    5.7486    0.1434   20.1374 C   0  0  0  0  0  0  0  0  0  0  0  0
    5.3310   -0.0942   21.1181 H   0  0  0  0  0  0  0  0  0  0  0  0
    5.0472    0.9090   19.2130 C   0  0  0  0  0  0  0  0  0  0  0  0
    4.0798    1.3315   19.4605 H   0  0  0  0  0  0  0  0  0  0  0  0
  1  2  1  0
  2  3  2  0
  3  4  1  0
  4  5  1  0
  4  6  2  0
  6  7  1  0
  7  8  2  0
  8  9  1  0
  9 10  2  0
 10 11  1  0
 11 12  1  0
 12 13  1  0
 13 14  1  0
 13 15  1  0
 15 16  2  0
 16 17  1  0
 16 18  1  0
 18 19  1  0
 18 20  2  0
 20 21  1  0
 21 22  1  0
 21 23  1  0
 21 24  1  0
 20 25  1  0
 25 26  1  0
 25 27  2  0
 27 28  1  0
 12 29  2  0
 29 30  1  0
  6 31  1  0
 31 32  1  0
 31 33  2  0
 33 34  1  0
 33  2  1  0
 30  7  1  0
 30 10  1  0
 27 15  1  0
M  END
>  <cnnaffinity>  (1) 
-5.23659

>  <filename>  (1) 
Cc1ccc(Nc2nn3c(-c4cccnc4)nnc3s2)cc1

$$$$
