
     RDKit          3D

 43 46  0  0  0  0  0  0  0  0999 V2000
    7.1789    1.4104   26.0008 C   0  0  0  0  0  0  0  0  0  0  0  0
    8.1426    1.7573   24.9179 C   0  0  0  0  0  0  0  0  0  0  0  0
    9.4747    2.0162   25.0655 C   0  0  0  0  0  0  0  0  0  0  0  0
    9.9409    2.2191   23.7826 N   0  0  0  0  0  0  0  0  0  0  0  0
    8.8864    2.0804   22.9316 C   0  0  0  0  0  0  0  0  0  0  0  0
    9.0510    2.0057   21.4380 C   0  0  0  0  0  0  0  0  0  0  0  0
    9.5309    0.6037   20.9336 C   0  0  0  0  0  0  0  0  0  0  0  0
    8.6572   -0.5306   21.3747 C   0  0  0  0  0  0  0  0  0  0  0  0
    8.8960   -1.3564   22.3781 N   0  0  0  0  0  0  0  0  0  0  0  0
    7.6865   -1.9385   22.5806 C   0  0  0  0  0  0  0  0  0  0  0  0
    7.4108   -2.8341   23.7408 C   0  0  0  0  0  0  0  0  0  0  0  0
    6.3925   -2.2765   24.7902 C   0  0  0  0  0  0  0  0  0  0  0  0
    5.4356   -3.4445   24.4605 C   0  0  0  0  0  0  0  0  0  0  0  0
    6.4564   -4.0286   23.4568 C   0  0  0  0  0  0  0  0  0  0  0  0
    6.8635   -5.0074   23.7228 H   0  0  0  0  0  0  0  0  0  0  0  0
    6.1115   -4.0775   22.4189 H   0  0  0  0  0  0  0  0  0  0  0  0
    5.1935   -4.0937   25.3059 H   0  0  0  0  0  0  0  0  0  0  0  0
    4.4876   -3.1398   24.0069 H   0  0  0  0  0  0  0  0  0  0  0  0
    6.0096   -1.2766   24.5444 H   0  0  0  0  0  0  0  0  0  0  0  0
    6.7611   -2.2589   25.8219 H   0  0  0  0  0  0  0  0  0  0  0  0
    8.3783   -3.1071   24.1633 H   0  0  0  0  0  0  0  0  0  0  0  0
    6.7441   -1.5729   21.7301 N   0  0  0  0  0  0  0  0  0  0  0  0
    7.3729   -0.6725   20.9365 N   0  0  0  0  0  0  0  0  0  0  0  0
    6.6587    0.0004   19.9014 C   0  0  0  0  0  0  0  0  0  0  0  0
    5.4404    0.6377   20.1692 C   0  0  0  0  0  0  0  0  0  0  0  0
    4.8137    1.3077   19.1110 C   0  0  0  0  0  0  0  0  0  0  0  0
    5.4012    1.2955   17.8385 C   0  0  0  0  0  0  0  0  0  0  0  0
    6.5599    0.6726   17.5766 N   0  0  0  0  0  0  0  0  0  0  0  0
    7.1676    0.0511   18.5927 C   0  0  0  0  0  0  0  0  0  0  0  0
    8.1123   -0.4339   18.3656 H   0  0  0  0  0  0  0  0  0  0  0  0
    4.9203    1.7859   16.9937 H   0  0  0  0  0  0  0  0  0  0  0  0
    3.8811    1.8392   19.2610 H   0  0  0  0  0  0  0  0  0  0  0  0
    5.0209    0.6103   21.1796 H   0  0  0  0  0  0  0  0  0  0  0  0
   10.5287    0.3864   21.3199 H   0  0  0  0  0  0  0  0  0  0  0  0
    9.5884    0.6121   19.8433 H   0  0  0  0  0  0  0  0  0  0  0  0
    8.0790    2.2445   20.9952 H   0  0  0  0  0  0  0  0  0  0  0  0
    9.7634    2.7733   21.1166 H   0  0  0  0  0  0  0  0  0  0  0  0
    7.7796    1.8290   23.5935 N   0  0  0  0  0  0  0  0  0  0  0  0
   10.8869    2.3835   23.4888 H   0  0  0  0  0  0  0  0  0  0  0  0
   10.0808    2.0865   25.9608 H   0  0  0  0  0  0  0  0  0  0  0  0
    6.1447    1.5260   25.6737 H   0  0  0  0  0  0  0  0  0  0  0  0
    7.3517    2.0386   26.8770 H   0  0  0  0  0  0  0  0  0  0  0  0
    7.3170    0.3742   26.3299 H   0  0  0  0  0  0  0  0  0  0  0  0
  1  2  1  0
  2  3  2  0
  3  4  1  0
  4  5  1  0
  5  6  1  0
  6  7  1  0
  7  8  1  0
  8  9  2  0
  9 10  1  0
 10 11  1  0
 11 12  1  0
 12 13  1  0
 13 14  1  0
 14 15  1  0
 14 16  1  0
 13 17  1  0
 13 18  1  0
 12 19  1  0
 12 20  1  0
 11 21  1  0
 10 22  2  0
 22 23  1  0
 23 24  1  0
 24 25  2  0
 25 26  1  0
 26 27  2  0
 27 28  1  0
 28 29  2  0
 29 30  1  0
 27 31  1  0
 26 32  1  0
 25 33  1  0
  7 34  1  0
  7 35  1  0
  6 36  1  0
  6 37  1  0
  5 38  2  0
  4 39  1  0
  3 40  1  0
  1 41  1  0
  1 42  1  0
  1 43  1  0
 38  2  1  0
 23  8  1  0
 29 24  1  0
 14 11  1  0
M  END
>  <cnnaffinity>  (1) 
-5.96649

>  <filename>  (1) 
Cc1c[nH]c(CCc2nc(C3CCC3)nn2-c2cccnc2)n1

$$$$
