
     RDKit          3D

 50 53  0  0  0  0  0  0  0  0999 V2000
    7.3590   -4.4668   26.8477 C   0  0  0  0  0  0  0  0  0  0  0  0
    6.1413   -4.3408   25.9208 C   0  0  0  0  0  0  0  0  0  0  0  0
    5.7144   -2.8685   25.7481 C   0  0  0  0  0  0  0  0  0  0  0  0
    6.7144   -2.0239   24.9323 C   0  0  0  0  0  0  0  0  0  0  0  0
    7.3880   -2.8150   23.7635 C   0  0  0  0  0  0  0  0  0  0  0  0
    7.6654   -1.9250   22.5892 C   0  0  0  0  0  0  0  0  0  0  0  0
    6.7316   -1.5685   21.7248 N   0  0  0  0  0  0  0  0  0  0  0  0
    7.3728   -0.6754   20.9303 N   0  0  0  0  0  0  0  0  0  0  0  0
    6.6575    0.0006   19.8985 C   0  0  0  0  0  0  0  0  0  0  0  0
    5.4405    0.6380   20.1682 C   0  0  0  0  0  0  0  0  0  0  0  0
    4.8141    1.3081   19.1099 C   0  0  0  0  0  0  0  0  0  0  0  0
    5.4003    1.2965   17.8371 C   0  0  0  0  0  0  0  0  0  0  0  0
    6.5574    0.6713   17.5727 N   0  0  0  0  0  0  0  0  0  0  0  0
    7.1647    0.0495   18.5893 C   0  0  0  0  0  0  0  0  0  0  0  0
    8.1106   -0.4343   18.3620 H   0  0  0  0  0  0  0  0  0  0  0  0
    4.9229    1.7887   16.9919 H   0  0  0  0  0  0  0  0  0  0  0  0
    3.8818    1.8391   19.2589 H   0  0  0  0  0  0  0  0  0  0  0  0
    5.0206    0.6079   21.1792 H   0  0  0  0  0  0  0  0  0  0  0  0
    8.6471   -0.5179   21.3876 C   0  0  0  0  0  0  0  0  0  0  0  0
    9.5213    0.6215   20.9694 C   0  0  0  0  0  0  0  0  0  0  0  0
    9.0449    2.0041   21.5256 C   0  0  0  0  0  0  0  0  0  0  0  0
    8.9010    2.0245   23.0275 C   0  0  0  0  0  0  0  0  0  0  0  0
    7.6851    1.8011   23.5402 N   0  0  0  0  0  0  0  0  0  0  0  0
    7.6030    1.6950   24.8667 C   0  0  0  0  0  0  0  0  0  0  0  0
    8.7029    1.8288   25.6898 C   0  0  0  0  0  0  0  0  0  0  0  0
    8.5686    1.7575   27.0197 F   0  0  0  0  0  0  0  0  0  0  0  0
    9.9220    2.0516   25.0679 C   0  0  0  0  0  0  0  0  0  0  0  0
   10.0245    2.1605   23.7440 N   0  0  0  0  0  0  0  0  0  0  0  0
   10.8377    2.1307   25.6493 H   0  0  0  0  0  0  0  0  0  0  0  0
    6.6213    1.5177   25.3047 H   0  0  0  0  0  0  0  0  0  0  0  0
    8.0744    2.2612   21.1003 H   0  0  0  0  0  0  0  0  0  0  0  0
    9.7607    2.7754   21.2415 H   0  0  0  0  0  0  0  0  0  0  0  0
   10.5302    0.3960   21.3240 H   0  0  0  0  0  0  0  0  0  0  0  0
    9.5620    0.6576   19.8779 H   0  0  0  0  0  0  0  0  0  0  0  0
    8.8740   -1.3369   22.4010 N   0  0  0  0  0  0  0  0  0  0  0  0
    6.5696   -4.0550   23.3636 C   0  0  0  0  0  0  0  0  0  0  0  0
    6.3868   -5.0269   24.5441 C   0  0  0  0  0  0  0  0  0  0  0  0
    7.2781   -5.6637   24.6180 H   0  0  0  0  0  0  0  0  0  0  0  0
    5.5589   -5.7046   24.3064 H   0  0  0  0  0  0  0  0  0  0  0  0
    5.5950   -3.7129   22.9950 H   0  0  0  0  0  0  0  0  0  0  0  0
    7.0450   -4.5684   22.5212 H   0  0  0  0  0  0  0  0  0  0  0  0
    8.3779   -3.1412   24.0995 H   0  0  0  0  0  0  0  0  0  0  0  0
    7.5028   -1.6284   25.5866 H   0  0  0  0  0  0  0  0  0  0  0  0
    6.1878   -1.1405   24.5419 H   0  0  0  0  0  0  0  0  0  0  0  0
    5.5570   -2.4088   26.7307 H   0  0  0  0  0  0  0  0  0  0  0  0
    4.7376   -2.8435   25.2481 H   0  0  0  0  0  0  0  0  0  0  0  0
    5.3137   -4.8666   26.4146 H   0  0  0  0  0  0  0  0  0  0  0  0
    8.2508   -3.9898   26.4256 H   0  0  0  0  0  0  0  0  0  0  0  0
    7.1682   -3.9921   27.8147 H   0  0  0  0  0  0  0  0  0  0  0  0
    7.6103   -5.5160   27.0343 H   0  0  0  0  0  0  0  0  0  0  0  0
  1  2  1  0
  2  3  1  0
  3  4  1  0
  4  5  1  0
  5  6  1  0
  6  7  2  0
  7  8  1  0
  8  9  1  0
  9 10  2  0
 10 11  1  0
 11 12  2  0
 12 13  1  0
 13 14  2  0
 14 15  1  0
 12 16  1  0
 11 17  1  0
 10 18  1  0
  8 19  1  0
 19 20  1  0
 20 21  1  0
 21 22  1  0
 22 23  2  0
 23 24  1  0
 24 25  2  0
 25 26  1  0
 25 27  1  0
 27 28  2  0
 27 29  1  0
 24 30  1  0
 21 31  1  0
 21 32  1  0
 20 33  1  0
 20 34  1  0
 19 35  2  0
  5 36  1  0
 36 37  1  0
 37 38  1  0
 37 39  1  0
 36 40  1  0
 36 41  1  0
  5 42  1  0
  4 43  1  0
  4 44  1  0
  3 45  1  0
  3 46  1  0
  2 47  1  0
  1 48  1  0
  1 49  1  0
  1 50  1  0
 37  2  1  0
 35  6  1  0
 14  9  1  0
 28 22  1  0
M  END
>  <cnnaffinity>  (1) 
-6.43135

>  <filename>  (1) 
CC1CCC(c2nc(CCc3ncc(F)cn3)n(-c3cccnc3)n2)CC1

$$$$
