
     RDKit          3D

 43 46  0  0  0  0  0  0  0  0999 V2000
    5.6182    0.4221   27.3296 C   0  0  0  0  0  0  0  0  0  0  0  0
    5.7653    0.7944   25.8808 C   0  0  0  0  0  0  0  0  0  0  0  0
    6.9410    0.8666   25.1687 C   0  0  0  0  0  0  0  0  0  0  0  0
    6.6307    1.2443   23.9042 N   0  0  0  0  0  0  0  0  0  0  0  0
    7.4961    1.2531   22.7412 C   0  0  0  0  0  0  0  0  0  0  0  0
    7.6126   -0.1268   22.1880 C   0  0  0  0  0  0  0  0  0  0  0  0
    8.1661   -1.1018   22.8797 N   0  0  0  0  0  0  0  0  0  0  0  0
    8.1420   -2.1483   22.0242 C   0  0  0  0  0  0  0  0  0  0  0  0
    8.6636   -3.5157   22.3964 C   0  0  0  0  0  0  0  0  0  0  0  0
    8.6801   -3.8845   23.9062 C   0  0  0  0  0  0  0  0  0  0  0  0
    8.5855   -5.4306   23.9854 C   0  0  0  0  0  0  0  0  0  0  0  0
    8.2288   -5.9169   22.5665 C   0  0  0  0  0  0  0  0  0  0  0  0
    7.8716   -4.6711   21.7530 C   0  0  0  0  0  0  0  0  0  0  0  0
    6.8041   -4.4350   21.8575 H   0  0  0  0  0  0  0  0  0  0  0  0
    8.0834   -4.8097   20.6880 H   0  0  0  0  0  0  0  0  0  0  0  0
    9.0970   -6.4261   22.1397 H   0  0  0  0  0  0  0  0  0  0  0  0
    7.4176   -6.6516   22.5676 H   0  0  0  0  0  0  0  0  0  0  0  0
    7.8309   -5.7455   24.7165 H   0  0  0  0  0  0  0  0  0  0  0  0
    9.5349   -5.8798   24.3021 H   0  0  0  0  0  0  0  0  0  0  0  0
    9.5857   -3.4970   24.3844 H   0  0  0  0  0  0  0  0  0  0  0  0
    7.8245   -3.4153   24.4032 H   0  0  0  0  0  0  0  0  0  0  0  0
    9.6962   -3.4698   22.0406 H   0  0  0  0  0  0  0  0  0  0  0  0
    7.6669   -1.8585   20.8200 N   0  0  0  0  0  0  0  0  0  0  0  0
    7.2865   -0.5589   20.9377 N   0  0  0  0  0  0  0  0  0  0  0  0
    6.5835    0.0775   19.8754 C   0  0  0  0  0  0  0  0  0  0  0  0
    5.3841    0.7739   20.0875 C   0  0  0  0  0  0  0  0  0  0  0  0
    4.7844    1.3949   18.9840 C   0  0  0  0  0  0  0  0  0  0  0  0
    5.4084    1.3197   17.7360 C   0  0  0  0  0  0  0  0  0  0  0  0
    6.5382    0.6233   17.5231 N   0  0  0  0  0  0  0  0  0  0  0  0
    7.0916   -0.0051   18.5644 C   0  0  0  0  0  0  0  0  0  0  0  0
    7.9882   -0.5853   18.3560 H   0  0  0  0  0  0  0  0  0  0  0  0
    4.9856    1.8286   16.8700 H   0  0  0  0  0  0  0  0  0  0  0  0
    3.8512    1.9382   19.0820 H   0  0  0  0  0  0  0  0  0  0  0  0
    4.9329    0.8246   21.0804 H   0  0  0  0  0  0  0  0  0  0  0  0
    7.0925    1.9621   22.0176 H   0  0  0  0  0  0  0  0  0  0  0  0
    8.4887    1.5807   23.0654 H   0  0  0  0  0  0  0  0  0  0  0  0
    5.3113    1.3755   23.7287 N   0  0  0  0  0  0  0  0  0  0  0  0
    4.7809    1.1278   24.9232 C   0  0  0  0  0  0  0  0  0  0  0  0
    3.7050    1.1900   25.0485 H   0  0  0  0  0  0  0  0  0  0  0  0
    7.9637    0.6209   25.4411 H   0  0  0  0  0  0  0  0  0  0  0  0
    4.8049    0.9747   27.8107 H   0  0  0  0  0  0  0  0  0  0  0  0
    5.4113   -0.6474   27.4705 H   0  0  0  0  0  0  0  0  0  0  0  0
    6.5389    0.6450   27.8790 H   0  0  0  0  0  0  0  0  0  0  0  0
  1  2  1  0
  2  3  2  0
  3  4  1  0
  4  5  1  0
  5  6  1  0
  6  7  2  0
  7  8  1  0
  8  9  1  0
  9 10  1  0
 10 11  1  0
 11 12  1  0
 12 13  1  0
 13 14  1  0
 13 15  1  0
 12 16  1  0
 12 17  1  0
 11 18  1  0
 11 19  1  0
 10 20  1  0
 10 21  1  0
  9 22  1  0
  8 23  2  0
 23 24  1  0
 24 25  1  0
 25 26  2  0
 26 27  1  0
 27 28  2  0
 28 29  1  0
 29 30  2  0
 30 31  1  0
 28 32  1  0
 27 33  1  0
 26 34  1  0
  5 35  1  0
  5 36  1  0
  4 37  1  0
 37 38  2  0
 38 39  1  0
  3 40  1  0
  1 41  1  0
  1 42  1  0
  1 43  1  0
 38  2  1  0
 24  6  1  0
 30 25  1  0
 13  9  1  0
M  END
>  <cnnaffinity>  (1) 
-5.89977

>  <filename>  (1) 
Cc1cnn(Cc2nc(C3CCCC3)nn2-c2cccnc2)c1

$$$$
