
     RDKit          3D

 46 49  0  0  0  0  0  0  0  0999 V2000
    5.9275    3.6443   29.1561 C   0  0  0  0  0  0  0  0  0  0  0  0
    6.2786    3.0612   27.8077 C   0  0  0  0  0  0  0  0  0  0  0  0
    5.5891    1.9824   27.2256 C   0  0  0  0  0  0  0  0  0  0  0  0
    5.9448    1.4602   25.9763 C   0  0  0  0  0  0  0  0  0  0  0  0
    7.0123    2.0279   25.2477 C   0  0  0  0  0  0  0  0  0  0  0  0
    7.4680    1.4839   23.9393 C   0  0  0  0  0  0  0  0  0  0  0  0
    6.8588    0.5189   23.2668 N   0  0  0  0  0  0  0  0  0  0  0  0
    7.6672    0.3190   22.2017 N   0  0  0  0  0  0  0  0  0  0  0  0
    7.3072   -0.5994   21.1256 C   0  0  0  0  0  0  0  0  0  0  0  0
    6.6575    0.0789   19.9300 C   0  0  0  0  0  0  0  0  0  0  0  0
    5.4509    0.7676   20.1020 C   0  0  0  0  0  0  0  0  0  0  0  0
    4.8611    1.3723   18.9909 C   0  0  0  0  0  0  0  0  0  0  0  0
    5.4958    1.2783   17.7500 C   0  0  0  0  0  0  0  0  0  0  0  0
    6.6500    0.6226   17.5617 N   0  0  0  0  0  0  0  0  0  0  0  0
    7.2084    0.0493   18.6381 C   0  0  0  0  0  0  0  0  0  0  0  0
    8.1477   -0.4701   18.4451 H   0  0  0  0  0  0  0  0  0  0  0  0
    5.0574    1.7529   16.8725 H   0  0  0  0  0  0  0  0  0  0  0  0
    3.9368    1.9306   19.0777 H   0  0  0  0  0  0  0  0  0  0  0  0
    4.9932    0.8374   21.0909 H   0  0  0  0  0  0  0  0  0  0  0  0
    8.2125   -1.1314   20.8160 H   0  0  0  0  0  0  0  0  0  0  0  0
    6.6342   -1.3344   21.5785 H   0  0  0  0  0  0  0  0  0  0  0  0
    8.7170    1.1634   22.2729 C   0  0  0  0  0  0  0  0  0  0  0  0
    9.8450    1.2006   21.2844 C   0  0  0  0  0  0  0  0  0  0  0  0
   11.0470    0.3228   21.6202 C   0  0  0  0  0  0  0  0  0  0  0  0
   11.2107   -0.9557   21.1804 C   0  0  0  0  0  0  0  0  0  0  0  0
   12.3740   -1.6371   21.4774 N   0  0  0  0  0  0  0  0  0  0  0  0
   13.4472   -1.1033   22.1820 C   0  0  0  0  0  0  0  0  0  0  0  0
   14.4695   -1.7598   22.2629 O   0  0  0  0  0  0  0  0  0  0  0  0
   13.2087    0.2081   22.7556 C   0  0  0  0  0  0  0  0  0  0  0  0
   12.0664    0.8877   22.4685 C   0  0  0  0  0  0  0  0  0  0  0  0
   11.9027    1.8814   22.8874 H   0  0  0  0  0  0  0  0  0  0  0  0
   13.9925    0.5975   23.3883 H   0  0  0  0  0  0  0  0  0  0  0  0
   12.6345   -2.5646   21.1772 H   0  0  0  0  0  0  0  0  0  0  0  0
   10.4582   -1.4748   20.5921 H   0  0  0  0  0  0  0  0  0  0  0  0
    9.4418    0.9946   20.2880 H   0  0  0  0  0  0  0  0  0  0  0  0
   10.1790    2.2419   21.2482 H   0  0  0  0  0  0  0  0  0  0  0  0
    8.6119    1.9243   23.3391 N   0  0  0  0  0  0  0  0  0  0  0  0
    7.7056    3.1218   25.8085 C   0  0  0  0  0  0  0  0  0  0  0  0
    7.3387    3.5971   27.0582 C   0  0  0  0  0  0  0  0  0  0  0  0
    8.0261    4.6373   27.5692 F   0  0  0  0  0  0  0  0  0  0  0  0
    8.5341    3.5908   25.2820 H   0  0  0  0  0  0  0  0  0  0  0  0
    5.4045    0.6027   25.5800 H   0  0  0  0  0  0  0  0  0  0  0  0
    4.7490    1.5447   27.7640 H   0  0  0  0  0  0  0  0  0  0  0  0
    4.9241    3.3548   29.4829 H   0  0  0  0  0  0  0  0  0  0  0  0
    6.6335    3.3236   29.9305 H   0  0  0  0  0  0  0  0  0  0  0  0
    5.9694    4.7381   29.1294 H   0  0  0  0  0  0  0  0  0  0  0  0
  1  2  1  0
  2  3  2  0
  3  4  1  0
  4  5  2  0
  5  6  1  0
  6  7  2  0
  7  8  1  0
  8  9  1  0
  9 10  1  0
 10 11  2  0
 11 12  1  0
 12 13  2  0
 13 14  1  0
 14 15  2  0
 15 16  1  0
 13 17  1  0
 12 18  1  0
 11 19  1  0
  9 20  1  0
  9 21  1  0
  8 22  1  0
 22 23  1  0
 23 24  1  0
 24 25  2  0
 25 26  1  0
 26 27  1  0
 27 28  2  0
 27 29  1  0
 29 30  2  0
 30 31  1  0
 29 32  1  0
 26 33  1  0
 25 34  1  0
 23 35  1  0
 23 36  1  0
 22 37  2  0
  5 38  1  0
 38 39  2  0
 39 40  1  0
 38 41  1  0
  4 42  1  0
  3 43  1  0
  1 44  1  0
  1 45  1  0
  1 46  1  0
 39  2  1  0
 37  6  1  0
 15 10  1  0
 30 24  1  0
M  END
>  <cnnaffinity>  (1) 
-6.58099

>  <filename>  (1) 
Cc1ccc(-c2nc(Cc3ccc(=O)[nH]c3)n(Cc3cccnc3)n2)cc1F

$$$$
