
     RDKit          3D

 45 48  0  0  0  0  0  0  0  0999 V2000
    8.8897   -0.3432   27.1102 C   0  0  0  0  0  0  0  0  0  0  0  0
    7.7181    0.0340   26.2371 C   0  0  0  0  0  0  0  0  0  0  0  0
    6.4358   -0.4918   26.4627 C   0  0  0  0  0  0  0  0  0  0  0  0
    5.4059   -0.1612   25.5880 C   0  0  0  0  0  0  0  0  0  0  0  0
    4.1708   -0.6332   25.8331 F   0  0  0  0  0  0  0  0  0  0  0  0
    5.6106    0.6379   24.4621 C   0  0  0  0  0  0  0  0  0  0  0  0
    6.8943    1.1247   24.2020 C   0  0  0  0  0  0  0  0  0  0  0  0
    7.2968    1.8063   22.8940 C   0  0  0  0  0  0  0  0  0  0  0  0
    8.3632    0.9986   22.2136 C   0  0  0  0  0  0  0  0  0  0  0  0
    9.6699    1.1721   22.3212 N   0  0  0  0  0  0  0  0  0  0  0  0
   10.1905    0.0201   21.8191 C   0  0  0  0  0  0  0  0  0  0  0  0
   11.6374   -0.4103   21.7363 C   0  0  0  0  0  0  0  0  0  0  0  0
   11.8503   -1.6417   21.0894 C   0  0  0  0  0  0  0  0  0  0  0  0
   13.1313   -2.0114   20.7352 C   0  0  0  0  0  0  0  0  0  0  0  0
   14.1768   -1.2584   21.2344 C   0  0  0  0  0  0  0  0  0  0  0  0
   13.9053   -0.1252   22.0133 C   0  0  0  0  0  0  0  0  0  0  0  0
   12.6613    0.3200   22.2365 N   0  0  0  0  0  0  0  0  0  0  0  0
   14.7085    0.4748   22.4324 H   0  0  0  0  0  0  0  0  0  0  0  0
   15.1545   -1.5943   20.9819 H   0  0  0  0  0  0  0  0  0  0  0  0
   13.3307   -2.8345   20.0469 H   0  0  0  0  0  0  0  0  0  0  0  0
   10.9923   -2.2437   20.8324 H   0  0  0  0  0  0  0  0  0  0  0  0
    9.2505   -0.8149   21.3664 N   0  0  0  0  0  0  0  0  0  0  0  0
    8.0978   -0.1936   21.6432 N   0  0  0  0  0  0  0  0  0  0  0  0
    6.8322   -0.7420   21.1605 C   0  0  0  0  0  0  0  0  0  0  0  0
    6.2940    0.0059   19.9604 C   0  0  0  0  0  0  0  0  0  0  0  0
    5.0791    0.6968   19.9644 C   0  0  0  0  0  0  0  0  0  0  0  0
    4.7044    1.4124   18.8236 C   0  0  0  0  0  0  0  0  0  0  0  0
    5.5557    1.3990   17.7148 C   0  0  0  0  0  0  0  0  0  0  0  0
    6.7216    0.7361   17.6862 N   0  0  0  0  0  0  0  0  0  0  0  0
    7.0757    0.0745   18.7935 C   0  0  0  0  0  0  0  0  0  0  0  0
    8.0398   -0.4310   18.7638 H   0  0  0  0  0  0  0  0  0  0  0  0
    5.2968    1.9446   16.8095 H   0  0  0  0  0  0  0  0  0  0  0  0
    3.7869    1.9887   18.7857 H   0  0  0  0  0  0  0  0  0  0  0  0
    4.4389    0.6934   20.8502 H   0  0  0  0  0  0  0  0  0  0  0  0
    6.1181   -0.7225   21.9871 H   0  0  0  0  0  0  0  0  0  0  0  0
    7.0334   -1.7944   20.9302 H   0  0  0  0  0  0  0  0  0  0  0  0
    7.7463    2.7808   23.0911 H   0  0  0  0  0  0  0  0  0  0  0  0
    6.4416    1.9513   22.2246 H   0  0  0  0  0  0  0  0  0  0  0  0
    7.9106    0.8686   25.1350 C   0  0  0  0  0  0  0  0  0  0  0  0
    8.8948    1.2908   24.9483 H   0  0  0  0  0  0  0  0  0  0  0  0
    4.7683    0.8479   23.8120 H   0  0  0  0  0  0  0  0  0  0  0  0
    6.2374   -1.1641   27.2908 H   0  0  0  0  0  0  0  0  0  0  0  0
    9.1116   -1.4136   27.0339 H   0  0  0  0  0  0  0  0  0  0  0  0
    9.7947    0.1927   26.8108 H   0  0  0  0  0  0  0  0  0  0  0  0
    8.7023   -0.1174   28.1644 H   0  0  0  0  0  0  0  0  0  0  0  0
  1  2  1  0
  2  3  2  0
  3  4  1  0
  4  5  1  0
  4  6  2  0
  6  7  1  0
  7  8  1  0
  8  9  1  0
  9 10  2  0
 10 11  1  0
 11 12  1  0
 12 13  2  0
 13 14  1  0
 14 15  2  0
 15 16  1  0
 16 17  2  0
 16 18  1  0
 15 19  1  0
 14 20  1  0
 13 21  1  0
 11 22  2  0
 22 23  1  0
 23 24  1  0
 24 25  1  0
 25 26  2  0
 26 27  1  0
 27 28  2  0
 28 29  1  0
 29 30  2  0
 30 31  1  0
 28 32  1  0
 27 33  1  0
 26 34  1  0
 24 35  1  0
 24 36  1  0
  8 37  1  0
  8 38  1  0
  7 39  2  0
 39 40  1  0
  6 41  1  0
  3 42  1  0
  1 43  1  0
  1 44  1  0
  1 45  1  0
 39  2  1  0
 23  9  1  0
 30 25  1  0
 17 12  1  0
M  END
>  <cnnaffinity>  (1) 
-6.45498

>  <filename>  (1) 
Cc1cc(F)cc(Cc2nc(-c3ccccn3)nn2Cc2cccnc2)c1

$$$$
