
     RDKit          3D

 43 46  0  0  0  0  0  0  0  0999 V2000
    8.1208   -0.4758   27.3135 C   0  0  0  0  0  0  0  0  0  0  0  0
    7.3994    0.1201   26.1506 C   0  0  0  0  0  0  0  0  0  0  0  0
    7.7078    1.1951   25.3527 C   0  0  0  0  0  0  0  0  0  0  0  0
    6.7968    1.1358   24.2766 C   0  0  0  0  0  0  0  0  0  0  0  0
    6.9265    1.8220   22.9526 C   0  0  0  0  0  0  0  0  0  0  0  0
    8.0230    1.0757   22.2528 C   0  0  0  0  0  0  0  0  0  0  0  0
    9.2794    1.3560   22.4847 N   0  0  0  0  0  0  0  0  0  0  0  0
    9.9400    0.2427   22.0709 C   0  0  0  0  0  0  0  0  0  0  0  0
   11.4051    0.1632   22.2575 C   0  0  0  0  0  0  0  0  0  0  0  0
   12.1730   -0.8857   21.7279 C   0  0  0  0  0  0  0  0  0  0  0  0
   13.5601   -0.8054   21.8096 C   0  0  0  0  0  0  0  0  0  0  0  0
   14.4782   -1.9990   20.9578 Cl  0  0  0  0  0  0  0  0  0  0  0  0
   14.1927    0.2619   22.4515 C   0  0  0  0  0  0  0  0  0  0  0  0
   13.4225    1.2519   23.0653 C   0  0  0  0  0  0  0  0  0  0  0  0
   12.0389    1.2153   22.9513 C   0  0  0  0  0  0  0  0  0  0  0  0
   11.4322    2.0123   23.3696 H   0  0  0  0  0  0  0  0  0  0  0  0
   13.8954    2.0527   23.6294 H   0  0  0  0  0  0  0  0  0  0  0  0
   15.2626    0.3520   22.4259 H   0  0  0  0  0  0  0  0  0  0  0  0
   11.7176   -1.7572   21.2586 H   0  0  0  0  0  0  0  0  0  0  0  0
    9.1567   -0.6868   21.5515 N   0  0  0  0  0  0  0  0  0  0  0  0
    7.9214   -0.1466   21.6972 N   0  0  0  0  0  0  0  0  0  0  0  0
    6.7277   -0.7732   21.1459 C   0  0  0  0  0  0  0  0  0  0  0  0
    6.2103   -0.0051   19.9493 C   0  0  0  0  0  0  0  0  0  0  0  0
    5.0057    0.7056   19.9552 C   0  0  0  0  0  0  0  0  0  0  0  0
    4.6333    1.4038   18.8013 C   0  0  0  0  0  0  0  0  0  0  0  0
    5.4927    1.3863   17.6986 C   0  0  0  0  0  0  0  0  0  0  0  0
    6.6585    0.7216   17.6798 N   0  0  0  0  0  0  0  0  0  0  0  0
    7.0046    0.0603   18.7904 C   0  0  0  0  0  0  0  0  0  0  0  0
    7.9729   -0.4422   18.7663 H   0  0  0  0  0  0  0  0  0  0  0  0
    5.2452    1.9440   16.7961 H   0  0  0  0  0  0  0  0  0  0  0  0
    3.7137    1.9768   18.7555 H   0  0  0  0  0  0  0  0  0  0  0  0
    4.3793    0.7246   20.8527 H   0  0  0  0  0  0  0  0  0  0  0  0
    6.9972   -1.8012   20.8797 H   0  0  0  0  0  0  0  0  0  0  0  0
    5.9943   -0.8062   21.9590 H   0  0  0  0  0  0  0  0  0  0  0  0
    5.9839    1.7923   22.4065 H   0  0  0  0  0  0  0  0  0  0  0  0
    7.2777    2.8463   23.0799 H   0  0  0  0  0  0  0  0  0  0  0  0
    5.9455    0.1348   24.4169 N   0  0  0  0  0  0  0  0  0  0  0  0
    6.3074   -0.4487   25.5774 N   0  0  0  0  0  0  0  0  0  0  0  0
    5.8067   -1.2644   25.8937 H   0  0  0  0  0  0  0  0  0  0  0  0
    8.5540    1.8632   25.4212 H   0  0  0  0  0  0  0  0  0  0  0  0
    8.8211    0.2485   27.7355 H   0  0  0  0  0  0  0  0  0  0  0  0
    8.7010   -1.3528   27.0019 H   0  0  0  0  0  0  0  0  0  0  0  0
    7.4164   -0.7816   28.0881 H   0  0  0  0  0  0  0  0  0  0  0  0
  1  2  1  0
  2  3  2  0
  3  4  1  0
  4  5  1  0
  5  6  1  0
  6  7  2  0
  7  8  1  0
  8  9  1  0
  9 10  2  0
 10 11  1  0
 11 12  1  0
 11 13  2  0
 13 14  1  0
 14 15  2  0
 15 16  1  0
 14 17  1  0
 13 18  1  0
 10 19  1  0
  8 20  2  0
 20 21  1  0
 21 22  1  0
 22 23  1  0
 23 24  2  0
 24 25  1  0
 25 26  2  0
 26 27  1  0
 27 28  2  0
 28 29  1  0
 26 30  1  0
 25 31  1  0
 24 32  1  0
 22 33  1  0
 22 34  1  0
  5 35  1  0
  5 36  1  0
  4 37  2  0
 37 38  1  0
 38 39  1  0
  3 40  1  0
  1 41  1  0
  1 42  1  0
  1 43  1  0
 38  2  1  0
 21  6  1  0
 28 23  1  0
 15  9  1  0
M  END
>  <cnnaffinity>  (1) 
-6.57628

>  <filename>  (1) 
Cc1cc(Cc2nc(-c3cccc(Cl)c3)nn2Cc2cccnc2)n[nH]1

$$$$
