
     RDKit          3D

 52 55  0  0  0  0  0  0  0  0999 V2000
   11.0652    1.6472   23.9110 C   0  0  0  0  0  0  0  0  0  0  0  0
    9.5659    1.8059   23.8962 C   0  0  0  0  0  0  0  0  0  0  0  0
    8.6920    2.0571   22.8532 C   0  0  0  0  0  0  0  0  0  0  0  0
    9.0424    2.0290   21.3914 C   0  0  0  0  0  0  0  0  0  0  0  0
    9.5313    0.6276   20.9389 C   0  0  0  0  0  0  0  0  0  0  0  0
    8.6435   -0.4863   21.3920 C   0  0  0  0  0  0  0  0  0  0  0  0
    8.8803   -1.3085   22.3955 N   0  0  0  0  0  0  0  0  0  0  0  0
    7.6749   -1.9040   22.6029 C   0  0  0  0  0  0  0  0  0  0  0  0
    7.3867   -2.7951   23.7838 C   0  0  0  0  0  0  0  0  0  0  0  0
    6.9586   -1.9155   25.0192 C   0  0  0  0  0  0  0  0  0  0  0  0
    7.2053   -2.6493   26.3484 C   0  0  0  0  0  0  0  0  0  0  0  0
    8.6931   -2.9728   26.5341 C   0  0  0  0  0  0  0  0  0  0  0  0
    9.2975   -1.9540   27.2419 F   0  0  0  0  0  0  0  0  0  0  0  0
    8.7963   -4.0992   27.3129 F   0  0  0  0  0  0  0  0  0  0  0  0
    9.4767   -3.1713   25.2325 C   0  0  0  0  0  0  0  0  0  0  0  0
    8.5865   -3.7422   24.1117 C   0  0  0  0  0  0  0  0  0  0  0  0
    9.1865   -3.9181   23.2108 H   0  0  0  0  0  0  0  0  0  0  0  0
    8.1980   -4.7245   24.4188 H   0  0  0  0  0  0  0  0  0  0  0  0
    9.8567   -2.1881   24.9207 H   0  0  0  0  0  0  0  0  0  0  0  0
   10.3404   -3.8102   25.4470 H   0  0  0  0  0  0  0  0  0  0  0  0
    6.8687   -2.0719   27.2168 H   0  0  0  0  0  0  0  0  0  0  0  0
    6.6601   -3.6028   26.3633 H   0  0  0  0  0  0  0  0  0  0  0  0
    5.9016   -1.6367   24.9198 H   0  0  0  0  0  0  0  0  0  0  0  0
    7.5287   -0.9738   25.0276 H   0  0  0  0  0  0  0  0  0  0  0  0
    6.5262   -3.4036   23.4784 H   0  0  0  0  0  0  0  0  0  0  0  0
    6.7273   -1.5459   21.7572 N   0  0  0  0  0  0  0  0  0  0  0  0
    7.3626   -0.6513   20.9491 N   0  0  0  0  0  0  0  0  0  0  0  0
    6.6638    0.0067   19.9000 C   0  0  0  0  0  0  0  0  0  0  0  0
    5.4456    0.6415   20.1557 C   0  0  0  0  0  0  0  0  0  0  0  0
    4.8103    1.3110   19.1064 C   0  0  0  0  0  0  0  0  0  0  0  0
    5.4011    1.2963   17.8364 C   0  0  0  0  0  0  0  0  0  0  0  0
    6.5567    0.6645   17.5763 N   0  0  0  0  0  0  0  0  0  0  0  0
    7.1710    0.0442   18.5916 C   0  0  0  0  0  0  0  0  0  0  0  0
    8.1113   -0.4488   18.3530 H   0  0  0  0  0  0  0  0  0  0  0  0
    4.9336    1.8035   16.9962 H   0  0  0  0  0  0  0  0  0  0  0  0
    3.8748    1.8422   19.2566 H   0  0  0  0  0  0  0  0  0  0  0  0
    5.0162    0.5883   21.1574 H   0  0  0  0  0  0  0  0  0  0  0  0
    9.5870    0.5958   19.8532 H   0  0  0  0  0  0  0  0  0  0  0  0
   10.5323    0.4179   21.3279 H   0  0  0  0  0  0  0  0  0  0  0  0
    9.8239    2.7640   21.1644 H   0  0  0  0  0  0  0  0  0  0  0  0
    8.1611    2.3194   20.8098 H   0  0  0  0  0  0  0  0  0  0  0  0
    7.4099    2.0283   23.4542 C   0  0  0  0  0  0  0  0  0  0  0  0
    7.4803    1.7932   24.7586 N   0  0  0  0  0  0  0  0  0  0  0  0
    8.7897    1.6317   24.9963 N   0  0  0  0  0  0  0  0  0  0  0  0
    9.2569    1.4767   26.3461 C   0  0  0  0  0  0  0  0  0  0  0  0
    8.3882    1.3807   26.9955 H   0  0  0  0  0  0  0  0  0  0  0  0
    9.8874    0.5860   26.4244 H   0  0  0  0  0  0  0  0  0  0  0  0
    9.8232    2.3712   26.6004 H   0  0  0  0  0  0  0  0  0  0  0  0
    6.4278    2.1175   22.9960 H   0  0  0  0  0  0  0  0  0  0  0  0
   11.3548    0.5863   23.8794 H   0  0  0  0  0  0  0  0  0  0  0  0
   11.5510    2.0772   24.7993 H   0  0  0  0  0  0  0  0  0  0  0  0
   11.5046    2.1376   23.0371 H   0  0  0  0  0  0  0  0  0  0  0  0
  1  2  1  0
  2  3  2  0
  3  4  1  0
  4  5  1  0
  5  6  1  0
  6  7  2  0
  7  8  1  0
  8  9  1  0
  9 10  1  0
 10 11  1  0
 11 12  1  0
 12 13  1  0
 12 14  1  0
 12 15  1  0
 15 16  1  0
 16 17  1  0
 16 18  1  0
 15 19  1  0
 15 20  1  0
 11 21  1  0
 11 22  1  0
 10 23  1  0
 10 24  1  0
  9 25  1  0
  8 26  2  0
 26 27  1  0
 27 28  1  0
 28 29  2  0
 29 30  1  0
 30 31  2  0
 31 32  1  0
 32 33  2  0
 33 34  1  0
 31 35  1  0
 30 36  1  0
 29 37  1  0
  5 38  1  0
  5 39  1  0
  4 40  1  0
  4 41  1  0
  3 42  1  0
 42 43  2  0
 43 44  1  0
 44 45  1  0
 45 46  1  0
 45 47  1  0
 45 48  1  0
 42 49  1  0
  1 50  1  0
  1 51  1  0
  1 52  1  0
 44  2  1  0
 27  6  1  0
 33 28  1  0
 16  9  1  0
M  END
>  <cnnaffinity>  (1) 
-6.59891

>  <filename>  (1) 
Cc1c(CCc2nc(C3CCC(F)(F)CC3)nn2-c2cccnc2)cnn1C

$$$$
