
     RDKit          3D

 46 49  0  0  0  0  0  0  0  0999 V2000
    6.0547    3.3294   29.0678 C   0  0  0  0  0  0  0  0  0  0  0  0
    6.4579    2.8256   27.7072 C   0  0  0  0  0  0  0  0  0  0  0  0
    5.7318    1.7946   27.0903 C   0  0  0  0  0  0  0  0  0  0  0  0
    6.0991    1.2916   25.8450 C   0  0  0  0  0  0  0  0  0  0  0  0
    7.2255    1.8178   25.1857 C   0  0  0  0  0  0  0  0  0  0  0  0
    7.6578    1.2930   23.8789 C   0  0  0  0  0  0  0  0  0  0  0  0
    7.0861    0.2911   23.2320 N   0  0  0  0  0  0  0  0  0  0  0  0
    7.8063    0.2056   22.0864 N   0  0  0  0  0  0  0  0  0  0  0  0
    7.3721   -0.7063   21.0267 C   0  0  0  0  0  0  0  0  0  0  0  0
    6.6530   -0.0126   19.8787 C   0  0  0  0  0  0  0  0  0  0  0  0
    5.4431    0.6511   20.1248 C   0  0  0  0  0  0  0  0  0  0  0  0
    4.8152    1.3094   19.0678 C   0  0  0  0  0  0  0  0  0  0  0  0
    5.4152    1.2982   17.8049 C   0  0  0  0  0  0  0  0  0  0  0  0
    6.5619    0.6540   17.5437 N   0  0  0  0  0  0  0  0  0  0  0  0
    7.1531    0.0206   18.5656 C   0  0  0  0  0  0  0  0  0  0  0  0
    8.0839   -0.4917   18.3145 H   0  0  0  0  0  0  0  0  0  0  0  0
    4.9555    1.8243   16.9698 H   0  0  0  0  0  0  0  0  0  0  0  0
    3.8823    1.8428   19.2089 H   0  0  0  0  0  0  0  0  0  0  0  0
    5.0167    0.6693   21.1318 H   0  0  0  0  0  0  0  0  0  0  0  0
    6.7003   -1.4169   21.5165 H   0  0  0  0  0  0  0  0  0  0  0  0
    8.2336   -1.2871   20.6761 H   0  0  0  0  0  0  0  0  0  0  0  0
    8.7771    1.1503   22.1039 C   0  0  0  0  0  0  0  0  0  0  0  0
    9.8101    1.4578   21.0615 C   0  0  0  0  0  0  0  0  0  0  0  0
   11.2249    1.2890   21.5602 C   0  0  0  0  0  0  0  0  0  0  0  0
   12.1420    2.2273   22.0014 C   0  0  0  0  0  0  0  0  0  0  0  0
   11.9829    3.9450   21.9719 Cl  0  0  0  0  0  0  0  0  0  0  0  0
   13.2319    1.5013   22.5193 C   0  0  0  0  0  0  0  0  0  0  0  0
   13.0049    0.2005   22.4149 N   0  0  0  0  0  0  0  0  0  0  0  0
   11.8016    0.0846   21.8307 N   0  0  0  0  0  0  0  0  0  0  0  0
   11.2384   -1.2446   21.6944 C   0  0  0  0  0  0  0  0  0  0  0  0
   12.0749   -1.9465   21.6893 H   0  0  0  0  0  0  0  0  0  0  0  0
   10.6953   -1.3176   20.7520 H   0  0  0  0  0  0  0  0  0  0  0  0
   10.5608   -1.4729   22.5271 H   0  0  0  0  0  0  0  0  0  0  0  0
   14.1699    1.8576   22.9293 H   0  0  0  0  0  0  0  0  0  0  0  0
    9.6667    2.5155   20.8081 H   0  0  0  0  0  0  0  0  0  0  0  0
    9.6168    0.8545   20.1674 H   0  0  0  0  0  0  0  0  0  0  0  0
    8.6991    1.8522   23.2128 N   0  0  0  0  0  0  0  0  0  0  0  0
    7.9478    2.8685   25.7859 C   0  0  0  0  0  0  0  0  0  0  0  0
    7.5649    3.3623   27.0298 C   0  0  0  0  0  0  0  0  0  0  0  0
    8.1296    4.1762   27.4779 H   0  0  0  0  0  0  0  0  0  0  0  0
    8.8083    3.2857   25.2646 H   0  0  0  0  0  0  0  0  0  0  0  0
    5.5270    0.4916   25.3786 H   0  0  0  0  0  0  0  0  0  0  0  0
    4.8647    1.3813   27.5995 H   0  0  0  0  0  0  0  0  0  0  0  0
    6.5465    2.7641   29.8675 H   0  0  0  0  0  0  0  0  0  0  0  0
    6.3143    4.3832   29.2040 H   0  0  0  0  0  0  0  0  0  0  0  0
    4.9756    3.2280   29.2161 H   0  0  0  0  0  0  0  0  0  0  0  0
  1  2  1  0
  2  3  2  0
  3  4  1  0
  4  5  2  0
  5  6  1  0
  6  7  2  0
  7  8  1  0
  8  9  1  0
  9 10  1  0
 10 11  2  0
 11 12  1  0
 12 13  2  0
 13 14  1  0
 14 15  2  0
 15 16  1  0
 13 17  1  0
 12 18  1  0
 11 19  1  0
  9 20  1  0
  9 21  1  0
  8 22  1  0
 22 23  1  0
 23 24  1  0
 24 25  2  0
 25 26  1  0
 25 27  1  0
 27 28  2  0
 28 29  1  0
 29 30  1  0
 30 31  1  0
 30 32  1  0
 30 33  1  0
 27 34  1  0
 23 35  1  0
 23 36  1  0
 22 37  2  0
  5 38  1  0
 38 39  2  0
 39 40  1  0
 38 41  1  0
  4 42  1  0
  3 43  1  0
  1 44  1  0
  1 45  1  0
  1 46  1  0
 39  2  1  0
 37  6  1  0
 15 10  1  0
 29 24  1  0
M  END
>  <cnnaffinity>  (1) 
-6.28937

>  <filename>  (1) 
Cc1ccc(-c2nc(Cc3c(Cl)cnn3C)n(Cc3cccnc3)n2)cc1

$$$$
