
     RDKit          3D

 52 55  0  0  0  0  0  0  0  0999 V2000
    7.4574   -5.2382   27.3794 C   0  0  0  0  0  0  0  0  0  0  0  0
    7.2803   -4.4264   26.0945 C   0  0  0  0  0  0  0  0  0  0  0  0
    8.1760   -4.9728   24.9518 C   0  0  0  0  0  0  0  0  0  0  0  0
    8.5076   -3.9374   23.8512 C   0  0  0  0  0  0  0  0  0  0  0  0
    7.4081   -2.8605   23.7361 C   0  0  0  0  0  0  0  0  0  0  0  0
    7.6527   -1.9328   22.5863 C   0  0  0  0  0  0  0  0  0  0  0  0
    6.7188   -1.5771   21.7295 N   0  0  0  0  0  0  0  0  0  0  0  0
    7.3534   -0.6605   20.9467 N   0  0  0  0  0  0  0  0  0  0  0  0
    6.6572    0.0083   19.9031 C   0  0  0  0  0  0  0  0  0  0  0  0
    5.4401    0.6463   20.1636 C   0  0  0  0  0  0  0  0  0  0  0  0
    4.8137    1.3131   19.1076 C   0  0  0  0  0  0  0  0  0  0  0  0
    5.3995    1.2971   17.8373 C   0  0  0  0  0  0  0  0  0  0  0  0
    6.5572    0.6706   17.5774 N   0  0  0  0  0  0  0  0  0  0  0  0
    7.1670    0.0493   18.5935 C   0  0  0  0  0  0  0  0  0  0  0  0
    8.1125   -0.4394   18.3636 H   0  0  0  0  0  0  0  0  0  0  0  0
    4.9241    1.7909   16.9931 H   0  0  0  0  0  0  0  0  0  0  0  0
    3.8812    1.8391   19.2592 H   0  0  0  0  0  0  0  0  0  0  0  0
    5.0080    0.5989   21.1656 H   0  0  0  0  0  0  0  0  0  0  0  0
    8.6277   -0.5000   21.4052 C   0  0  0  0  0  0  0  0  0  0  0  0
    9.5198    0.6077   20.9454 C   0  0  0  0  0  0  0  0  0  0  0  0
    9.0407    2.0063   21.4415 C   0  0  0  0  0  0  0  0  0  0  0  0
    8.9447    2.0659   22.9337 C   0  0  0  0  0  0  0  0  0  0  0  0
   10.0418    2.1968   23.7466 C   0  0  0  0  0  0  0  0  0  0  0  0
    9.8875    2.0962   25.1542 C   0  0  0  0  0  0  0  0  0  0  0  0
    8.6609    1.9133   25.7256 C   0  0  0  0  0  0  0  0  0  0  0  0
    7.4846    1.7326   24.8912 C   0  0  0  0  0  0  0  0  0  0  0  0
    6.3475    1.4944   25.2709 O   0  0  0  0  0  0  0  0  0  0  0  0
    7.7236    1.8305   23.5251 N   0  0  0  0  0  0  0  0  0  0  0  0
    6.8874    1.6199   23.0094 H   0  0  0  0  0  0  0  0  0  0  0  0
    8.4843    1.8531   26.7896 H   0  0  0  0  0  0  0  0  0  0  0  0
   10.7843    2.1234   25.7685 H   0  0  0  0  0  0  0  0  0  0  0  0
   11.0176    2.3410   23.2945 H   0  0  0  0  0  0  0  0  0  0  0  0
    8.0820    2.2630   20.9742 H   0  0  0  0  0  0  0  0  0  0  0  0
    9.7676    2.7589   21.1177 H   0  0  0  0  0  0  0  0  0  0  0  0
   10.5267    0.3934   21.3177 H   0  0  0  0  0  0  0  0  0  0  0  0
    9.5722    0.6060   19.8563 H   0  0  0  0  0  0  0  0  0  0  0  0
    8.8553   -1.3175   22.4109 N   0  0  0  0  0  0  0  0  0  0  0  0
    7.2593   -2.0658   25.0739 C   0  0  0  0  0  0  0  0  0  0  0  0
    7.5440   -2.9284   26.3259 C   0  0  0  0  0  0  0  0  0  0  0  0
    6.9464   -2.5676   27.1726 H   0  0  0  0  0  0  0  0  0  0  0  0
    8.5960   -2.8073   26.6284 H   0  0  0  0  0  0  0  0  0  0  0  0
    6.2432   -1.6508   25.1155 H   0  0  0  0  0  0  0  0  0  0  0  0
    7.9435   -1.2053   25.0759 H   0  0  0  0  0  0  0  0  0  0  0  0
    6.4518   -3.3523   23.5178 H   0  0  0  0  0  0  0  0  0  0  0  0
    9.4629   -3.4385   24.0697 H   0  0  0  0  0  0  0  0  0  0  0  0
    8.6480   -4.4429   22.8893 H   0  0  0  0  0  0  0  0  0  0  0  0
    7.6742   -5.8458   24.5126 H   0  0  0  0  0  0  0  0  0  0  0  0
    9.1191   -5.3504   25.3703 H   0  0  0  0  0  0  0  0  0  0  0  0
    6.2314   -4.5279   25.7712 H   0  0  0  0  0  0  0  0  0  0  0  0
    6.7782   -4.8894   28.1665 H   0  0  0  0  0  0  0  0  0  0  0  0
    8.4830   -5.1423   27.7606 H   0  0  0  0  0  0  0  0  0  0  0  0
    7.2630   -6.3046   27.2118 H   0  0  0  0  0  0  0  0  0  0  0  0
  1  2  1  0
  2  3  1  0
  3  4  1  0
  4  5  1  0
  5  6  1  0
  6  7  2  0
  7  8  1  0
  8  9  1  0
  9 10  2  0
 10 11  1  0
 11 12  2  0
 12 13  1  0
 13 14  2  0
 14 15  1  0
 12 16  1  0
 11 17  1  0
 10 18  1  0
  8 19  1  0
 19 20  1  0
 20 21  1  0
 21 22  1  0
 22 23  2  0
 23 24  1  0
 24 25  2  0
 25 26  1  0
 26 27  2  0
 26 28  1  0
 28 29  1  0
 25 30  1  0
 24 31  1  0
 23 32  1  0
 21 33  1  0
 21 34  1  0
 20 35  1  0
 20 36  1  0
 19 37  2  0
  5 38  1  0
 38 39  1  0
 39 40  1  0
 39 41  1  0
 38 42  1  0
 38 43  1  0
  5 44  1  0
  4 45  1  0
  4 46  1  0
  3 47  1  0
  3 48  1  0
  2 49  1  0
  1 50  1  0
  1 51  1  0
  1 52  1  0
 39  2  1  0
 37  6  1  0
 14  9  1  0
 28 22  1  0
M  END
>  <cnnaffinity>  (1) 
-6.32431

>  <filename>  (1) 
CC1CCC(c2nc(CCc3cccc(=O)[nH]3)n(-c3cccnc3)n2)CC1

$$$$
