
     RDKit          3D

 44 47  0  0  0  0  0  0  0  0999 V2000
    8.2820    0.6918   25.7283 C   0  0  0  0  0  0  0  0  0  0  0  0
    6.9164    1.0317   25.2190 C   0  0  0  0  0  0  0  0  0  0  0  0
    5.7243    0.8866   25.8966 C   0  0  0  0  0  0  0  0  0  0  0  0
    5.5757    0.3524   27.5365 Cl  0  0  0  0  0  0  0  0  0  0  0  0
    4.7063    1.1609   24.9668 C   0  0  0  0  0  0  0  0  0  0  0  0
    5.2257    1.4499   23.7790 N   0  0  0  0  0  0  0  0  0  0  0  0
    6.5617    1.4086   23.9509 N   0  0  0  0  0  0  0  0  0  0  0  0
    7.3851    1.4214   22.7476 C   0  0  0  0  0  0  0  0  0  0  0  0
    7.5047    0.0302   22.2172 C   0  0  0  0  0  0  0  0  0  0  0  0
    8.0654   -0.9173   22.9395 N   0  0  0  0  0  0  0  0  0  0  0  0
    8.0084   -2.0147   22.1470 C   0  0  0  0  0  0  0  0  0  0  0  0
    8.5258   -3.3741   22.5655 C   0  0  0  0  0  0  0  0  0  0  0  0
    9.6759   -3.2376   23.6010 C   0  0  0  0  0  0  0  0  0  0  0  0
    9.1793   -3.1341   25.0280 C   0  0  0  0  0  0  0  0  0  0  0  0
    7.9130   -3.3307   25.4018 C   0  0  0  0  0  0  0  0  0  0  0  0
    6.8439   -3.8185   24.4565 C   0  0  0  0  0  0  0  0  0  0  0  0
    7.4273   -4.3270   23.1283 C   0  0  0  0  0  0  0  0  0  0  0  0
    6.6327   -4.4828   22.3879 H   0  0  0  0  0  0  0  0  0  0  0  0
    7.8961   -5.3065   23.3091 H   0  0  0  0  0  0  0  0  0  0  0  0
    6.2770   -4.6188   24.9482 H   0  0  0  0  0  0  0  0  0  0  0  0
    6.1190   -3.0127   24.2802 H   0  0  0  0  0  0  0  0  0  0  0  0
    7.5973   -3.0841   26.4191 H   0  0  0  0  0  0  0  0  0  0  0  0
    9.9092   -2.8717   25.7875 H   0  0  0  0  0  0  0  0  0  0  0  0
   10.2936   -2.3565   23.3847 H   0  0  0  0  0  0  0  0  0  0  0  0
   10.3617   -4.0887   23.5262 H   0  0  0  0  0  0  0  0  0  0  0  0
    8.9056   -3.8133   21.6407 H   0  0  0  0  0  0  0  0  0  0  0  0
    7.4866   -1.7933   20.9541 N   0  0  0  0  0  0  0  0  0  0  0  0
    7.1385   -0.4746   21.0048 N   0  0  0  0  0  0  0  0  0  0  0  0
    6.4969    0.1528   19.9044 C   0  0  0  0  0  0  0  0  0  0  0  0
    5.3609    0.9591   20.0627 C   0  0  0  0  0  0  0  0  0  0  0  0
    4.8062    1.5327   18.9120 C   0  0  0  0  0  0  0  0  0  0  0  0
    5.4127    1.3102   17.6733 C   0  0  0  0  0  0  0  0  0  0  0  0
    6.5048    0.5382   17.5233 N   0  0  0  0  0  0  0  0  0  0  0  0
    7.0180   -0.0364   18.6128 C   0  0  0  0  0  0  0  0  0  0  0  0
    7.9003   -0.6574   18.4682 H   0  0  0  0  0  0  0  0  0  0  0  0
    5.0047    1.7518   16.7655 H   0  0  0  0  0  0  0  0  0  0  0  0
    3.9142    2.1484   18.9679 H   0  0  0  0  0  0  0  0  0  0  0  0
    4.9232    1.1297   21.0494 H   0  0  0  0  0  0  0  0  0  0  0  0
    8.3819    1.7744   23.0329 H   0  0  0  0  0  0  0  0  0  0  0  0
    6.9398    2.1167   22.0358 H   0  0  0  0  0  0  0  0  0  0  0  0
    3.6364    1.1087   25.1082 H   0  0  0  0  0  0  0  0  0  0  0  0
    9.0996    1.1084   25.1353 H   0  0  0  0  0  0  0  0  0  0  0  0
    8.3832    1.0192   26.7676 H   0  0  0  0  0  0  0  0  0  0  0  0
    8.3926   -0.3983   25.7264 H   0  0  0  0  0  0  0  0  0  0  0  0
  1  2  1  0
  2  3  2  0
  3  4  1  0
  3  5  1  0
  5  6  2  0
  6  7  1  0
  7  8  1  0
  8  9  1  0
  9 10  2  0
 10 11  1  0
 11 12  1  0
 12 13  1  0
 13 14  1  0
 14 15  2  0
 15 16  1  0
 16 17  1  0
 17 18  1  0
 17 19  1  0
 16 20  1  0
 16 21  1  0
 15 22  1  0
 14 23  1  0
 13 24  1  0
 13 25  1  0
 12 26  1  0
 11 27  2  0
 27 28  1  0
 28 29  1  0
 29 30  2  0
 30 31  1  0
 31 32  2  0
 32 33  1  0
 33 34  2  0
 34 35  1  0
 32 36  1  0
 31 37  1  0
 30 38  1  0
  8 39  1  0
  8 40  1  0
  5 41  1  0
  1 42  1  0
  1 43  1  0
  1 44  1  0
  7  2  1  0
 28  9  1  0
 34 29  1  0
 17 12  1  0
M  END
>  <cnnaffinity>  (1) 
-6.23568

>  <filename>  (1) 
Cc1c(Cl)cnn1Cc1nc(C2CC=CCC2)nn1-c1cccnc1

$$$$
