
     RDKit          3D

 42 45  0  0  0  0  0  0  0  0999 V2000
    5.3053   -7.5496   18.0815 C   0  0  0  0  0  0  0  0  0  0  0  0
    6.2831   -6.4656   18.6390 C   0  0  0  0  0  0  0  0  0  0  0  0
    6.2140   -6.5385   18.6880 N   0  0  0  0  0  0  0  0  0  0  0  0
    5.9186   -4.0076   19.1017 O   0  0  0  0  0  0  0  0  0  0  0  0
    5.9153   -4.6417   20.1387 C   0  0  0  0  0  0  0  0  0  0  0  0
    6.0213   -3.9193   21.5437 C   0  0  0  0  0  0  0  0  0  0  0  0
    7.3055   -3.2930   21.7669 C   0  0  0  0  0  0  0  0  0  0  0  0
    7.5858   -1.9961   22.3106 C   0  0  0  0  0  0  0  0  0  0  0  0
    8.1960   -1.8236   23.4864 N   0  0  0  0  0  0  0  0  0  0  0  0
    8.2958   -0.4784   23.6053 C   0  0  0  0  0  0  0  0  0  0  0  0
    8.8651    0.2273   24.7934 C   0  0  0  0  0  0  0  0  0  0  0  0
    8.1281   -0.0264   26.1531 C   0  0  0  0  0  0  0  0  0  0  0  0
    9.2321   -1.0374   26.5347 C   0  0  0  0  0  0  0  0  0  0  0  0
   10.1240   -0.4487   25.4202 C   0  0  0  0  0  0  0  0  0  0  0  0
   10.6632   -1.1575   24.7819 H   0  0  0  0  0  0  0  0  0  0  0  0
   10.8344    0.2963   25.7961 H   0  0  0  0  0  0  0  0  0  0  0  0
    8.9290   -2.0615   26.3001 H   0  0  0  0  0  0  0  0  0  0  0  0
    9.6193   -1.0079   27.5599 H   0  0  0  0  0  0  0  0  0  0  0  0
    8.1506    0.8751   26.7765 H   0  0  0  0  0  0  0  0  0  0  0  0
    7.0937   -0.3863   26.0982 H   0  0  0  0  0  0  0  0  0  0  0  0
    8.9702    1.2803   24.5094 H   0  0  0  0  0  0  0  0  0  0  0  0
    7.8382    0.1989   22.5710 N   0  0  0  0  0  0  0  0  0  0  0  0
    7.3767   -0.7607   21.7375 N   0  0  0  0  0  0  0  0  0  0  0  0
    6.8185   -0.3586   20.4409 C   0  0  0  0  0  0  0  0  0  0  0  0
    5.6859    0.5045   20.4550 C   0  0  0  0  0  0  0  0  0  0  0  0
    5.3581    1.1725   19.2804 C   0  0  0  0  0  0  0  0  0  0  0  0
    6.2244    1.1062   18.1871 C   0  0  0  0  0  0  0  0  0  0  0  0
    7.3889    0.4361   18.2186 N   0  0  0  0  0  0  0  0  0  0  0  0
    7.7176   -0.2073   19.3341 C   0  0  0  0  0  0  0  0  0  0  0  0
    8.6855   -0.7032   19.3490 H   0  0  0  0  0  0  0  0  0  0  0  0
    5.9845    1.6304   17.2638 H   0  0  0  0  0  0  0  0  0  0  0  0
    4.4514    1.7650   19.2194 H   0  0  0  0  0  0  0  0  0  0  0  0
    5.0818    0.5713   21.3559 H   0  0  0  0  0  0  0  0  0  0  0  0
    6.0951   -1.8442   20.0256 H   0  0  0  0  0  0  0  0  0  0  0  0
    8.1824   -3.9212   21.6670 H   0  0  0  0  0  0  0  0  0  0  0  0
    5.8508   -4.6971   22.3157 H   0  0  0  0  0  0  0  0  0  0  0  0
    5.1639   -3.2271   21.6478 H   0  0  0  0  0  0  0  0  0  0  0  0
    5.7803   -6.0622   20.1419 C   0  0  0  0  0  0  0  0  0  0  0  0
    5.9121   -6.6934   21.0386 H   0  0  0  0  0  0  0  0  0  0  0  0
    5.8833   -8.3710   17.6665 H   0  0  0  0  0  0  0  0  0  0  0  0
    4.3910   -7.8680   18.6827 H   0  0  0  0  0  0  0  0  0  0  0  0
    5.1554   -7.1201   17.0660 H   0  0  0  0  0  0  0  0  0  0  0  0
  1  2  1  0
  2  3  2  0
  3  4  1  0
  4  5  1  0
  5  6  1  0
  6  7  1  0
  7  8  1  0
  8  9  2  0
  9 10  1  0
 10 11  1  0
 11 12  1  0
 12 13  1  0
 13 14  1  0
 14 15  1  0
 14 16  1  0
 13 17  1  0
 13 18  1  0
 12 19  1  0
 12 20  1  0
 11 21  1  0
 10 22  2  0
 22 23  1  0
 23 24  1  0
 24 25  2  0
 25 26  1  0
 26 27  2  0
 27 28  1  0
 28 29  2  0
 29 30  1  0
 27 31  1  0
 26 32  1  0
 25 33  1  0
  7 34  1  0
  7 35  1  0
  6 36  1  0
  6 37  1  0
  5 38  2  0
 38 39  1  0
  1 40  1  0
  1 41  1  0
  1 42  1  0
 38  2  1  0
 23  8  1  0
 29 24  1  0
 14 11  1  0
M  END
>  <cnnaffinity>  (1) 
-5.7543

>  <filename>  (1) 
Cc1cc(CCc2nc(C3CCC3)nn2-c2cccnc2)on1

$$$$
