
     RDKit          3D

 50 54  0  0  0  0  0  0  0  0999 V2000
    5.9897    3.6980   28.8998 C   0  0  0  0  0  0  0  0  0  0  0  0
    6.4209    3.1085   27.5798 C   0  0  0  0  0  0  0  0  0  0  0  0
    7.6140    3.4779   26.9402 C   0  0  0  0  0  0  0  0  0  0  0  0
    8.0106    2.9003   25.7318 C   0  0  0  0  0  0  0  0  0  0  0  0
    7.2141    1.9132   25.1146 C   0  0  0  0  0  0  0  0  0  0  0  0
    7.6714    1.2752   23.8505 C   0  0  0  0  0  0  0  0  0  0  0  0
    6.9847    0.3681   23.1733 N   0  0  0  0  0  0  0  0  0  0  0  0
    7.7853    0.0845   22.1200 N   0  0  0  0  0  0  0  0  0  0  0  0
    7.3013   -0.7689   21.0338 C   0  0  0  0  0  0  0  0  0  0  0  0
    6.6601   -0.0192   19.8780 C   0  0  0  0  0  0  0  0  0  0  0  0
    5.4631    0.6746   20.1021 C   0  0  0  0  0  0  0  0  0  0  0  0
    4.8561    1.3302   19.0338 C   0  0  0  0  0  0  0  0  0  0  0  0
    5.4742    1.2908   17.7820 C   0  0  0  0  0  0  0  0  0  0  0  0
    6.6157    0.6235   17.5435 N   0  0  0  0  0  0  0  0  0  0  0  0
    7.1784   -0.0191   18.5746 C   0  0  0  0  0  0  0  0  0  0  0  0
    8.0825   -0.5899   18.3386 H   0  0  0  0  0  0  0  0  0  0  0  0
    5.0361    1.8082   16.9312 H   0  0  0  0  0  0  0  0  0  0  0  0
    3.9186    1.8612   19.1582 H   0  0  0  0  0  0  0  0  0  0  0  0
    5.0346    0.6862   21.1053 H   0  0  0  0  0  0  0  0  0  0  0  0
    8.1318   -1.3943   20.6841 H   0  0  0  0  0  0  0  0  0  0  0  0
    6.5576   -1.4217   21.5035 H   0  0  0  0  0  0  0  0  0  0  0  0
    8.9095    0.8364   22.2015 C   0  0  0  0  0  0  0  0  0  0  0  0
   10.0721    0.7245   21.2508 C   0  0  0  0  0  0  0  0  0  0  0  0
   11.1170   -0.3319   21.7093 C   0  0  0  0  0  0  0  0  0  0  0  0
   11.9025    0.1243   22.9540 C   0  0  0  0  0  0  0  0  0  0  0  0
   12.3130    1.5687   22.9051 C   0  0  0  0  0  0  0  0  0  0  0  0
   13.1966    2.1651   23.6740 N   0  0  0  0  0  0  0  0  0  0  0  0
   13.1278    3.4982   23.3305 C   0  0  0  0  0  0  0  0  0  0  0  0
   12.1904    3.6983   22.3592 C   0  0  0  0  0  0  0  0  0  0  0  0
   11.6797    2.4513   22.0831 N   0  0  0  0  0  0  0  0  0  0  0  0
   10.7238    2.1097   21.0353 C   0  0  0  0  0  0  0  0  0  0  0  0
    9.9462    2.8736   21.0396 H   0  0  0  0  0  0  0  0  0  0  0  0
   11.2382    2.1686   20.0702 H   0  0  0  0  0  0  0  0  0  0  0  0
   11.7978    4.5832   21.8750 H   0  0  0  0  0  0  0  0  0  0  0  0
   13.7373    4.2449   23.8232 H   0  0  0  0  0  0  0  0  0  0  0  0
   11.2783    0.0168   23.8501 H   0  0  0  0  0  0  0  0  0  0  0  0
   12.7947   -0.4882   23.1117 H   0  0  0  0  0  0  0  0  0  0  0  0
   10.6114   -1.2878   21.9176 H   0  0  0  0  0  0  0  0  0  0  0  0
   11.7991   -0.5316   20.8754 H   0  0  0  0  0  0  0  0  0  0  0  0
    9.6623    0.4143   20.2832 H   0  0  0  0  0  0  0  0  0  0  0  0
    8.8622    1.5936   23.2772 N   0  0  0  0  0  0  0  0  0  0  0  0
    5.9977    1.5425   25.7323 C   0  0  0  0  0  0  0  0  0  0  0  0
    5.6353    2.1427   26.9325 C   0  0  0  0  0  0  0  0  0  0  0  0
    4.4750    1.7745   27.5123 F   0  0  0  0  0  0  0  0  0  0  0  0
    5.3322    0.7955   25.3097 H   0  0  0  0  0  0  0  0  0  0  0  0
    8.9446    3.2178   25.2733 H   0  0  0  0  0  0  0  0  0  0  0  0
    8.2431    4.2322   27.4081 H   0  0  0  0  0  0  0  0  0  0  0  0
    5.7080    2.9079   29.6045 H   0  0  0  0  0  0  0  0  0  0  0  0
    5.1142    4.3477   28.7843 H   0  0  0  0  0  0  0  0  0  0  0  0
    6.7902    4.2867   29.3595 H   0  0  0  0  0  0  0  0  0  0  0  0
  1  2  1  0
  2  3  2  0
  3  4  1  0
  4  5  2  0
  5  6  1  0
  6  7  2  0
  7  8  1  0
  8  9  1  0
  9 10  1  0
 10 11  2  0
 11 12  1  0
 12 13  2  0
 13 14  1  0
 14 15  2  0
 15 16  1  0
 13 17  1  0
 12 18  1  0
 11 19  1  0
  9 20  1  0
  9 21  1  0
  8 22  1  0
 22 23  1  0
 23 24  1  0
 24 25  1  0
 25 26  1  0
 26 27  2  0
 27 28  1  0
 28 29  2  0
 29 30  1  0
 30 31  1  0
 31 32  1  0
 31 33  1  0
 29 34  1  0
 28 35  1  0
 25 36  1  0
 25 37  1  0
 24 38  1  0
 24 39  1  0
 23 40  1  0
 22 41  2  0
  5 42  1  0
 42 43  2  0
 43 44  1  0
 42 45  1  0
  4 46  1  0
  3 47  1  0
  1 48  1  0
  1 49  1  0
  1 50  1  0
 43  2  1  0
 41  6  1  0
 15 10  1  0
 31 23  1  0
 30 26  1  0
M  END
>  <cnnaffinity>  (1) 
-6.22365

>  <filename>  (1) 
Cc1ccc(-c2nc(C3CCc4nccn4C3)n(Cc3cccnc3)n2)cc1F

$$$$
