
     RDKit          3D

 44 47  0  0  0  0  0  0  0  0999 V2000
    7.1583    1.2997   27.9697 C   0  0  0  0  0  0  0  0  0  0  0  0
    7.1491    1.4537   26.4651 C   0  0  0  0  0  0  0  0  0  0  0  0
    5.9501    1.5746   25.7391 C   0  0  0  0  0  0  0  0  0  0  0  0
    5.9778    1.6452   24.3451 C   0  0  0  0  0  0  0  0  0  0  0  0
    4.7994    1.7336   23.6879 F   0  0  0  0  0  0  0  0  0  0  0  0
    7.1697    1.5910   23.6108 C   0  0  0  0  0  0  0  0  0  0  0  0
    7.1706    1.3666   22.1123 C   0  0  0  0  0  0  0  0  0  0  0  0
    7.2548   -0.0992   21.7788 C   0  0  0  0  0  0  0  0  0  0  0  0
    7.8856   -1.0057   22.4963 N   0  0  0  0  0  0  0  0  0  0  0  0
    7.8198   -2.1195   21.7332 C   0  0  0  0  0  0  0  0  0  0  0  0
    8.4372   -3.3947   22.1990 C   0  0  0  0  0  0  0  0  0  0  0  0
    7.8012   -4.7085   21.6974 C   0  0  0  0  0  0  0  0  0  0  0  0
    8.1618   -5.7148   22.8145 C   0  0  0  0  0  0  0  0  0  0  0  0
    8.7676   -4.9651   23.8593 O   0  0  0  0  0  0  0  0  0  0  0  0
    8.3811   -3.6122   23.7165 C   0  0  0  0  0  0  0  0  0  0  0  0
    7.3654   -3.4288   24.1141 H   0  0  0  0  0  0  0  0  0  0  0  0
    9.0787   -2.9898   24.2820 H   0  0  0  0  0  0  0  0  0  0  0  0
    8.8764   -6.4830   22.4949 H   0  0  0  0  0  0  0  0  0  0  0  0
    7.2615   -6.2221   23.1906 H   0  0  0  0  0  0  0  0  0  0  0  0
    6.7134   -4.5803   21.6314 H   0  0  0  0  0  0  0  0  0  0  0  0
    8.1545   -5.0144   20.7103 H   0  0  0  0  0  0  0  0  0  0  0  0
    9.4955   -3.3389   21.9237 H   0  0  0  0  0  0  0  0  0  0  0  0
    7.2226   -1.9598   20.5656 N   0  0  0  0  0  0  0  0  0  0  0  0
    6.8294   -0.6610   20.6086 N   0  0  0  0  0  0  0  0  0  0  0  0
    6.1898   -0.0578   19.4995 C   0  0  0  0  0  0  0  0  0  0  0  0
    5.0316    0.7177   19.6410 C   0  0  0  0  0  0  0  0  0  0  0  0
    4.5963    1.4433   18.5267 C   0  0  0  0  0  0  0  0  0  0  0  0
    5.3021    1.3334   17.3268 C   0  0  0  0  0  0  0  0  0  0  0  0
    6.3568    0.5139   17.1662 N   0  0  0  0  0  0  0  0  0  0  0  0
    6.7690   -0.1829   18.2266 C   0  0  0  0  0  0  0  0  0  0  0  0
    7.6081   -0.8596   18.0817 H   0  0  0  0  0  0  0  0  0  0  0  0
    5.0205    1.9258   16.4611 H   0  0  0  0  0  0  0  0  0  0  0  0
    3.7544    2.1202   18.5962 H   0  0  0  0  0  0  0  0  0  0  0  0
    4.4978    0.7636   20.5911 H   0  0  0  0  0  0  0  0  0  0  0  0
    8.0279    1.8589   21.6381 H   0  0  0  0  0  0  0  0  0  0  0  0
    6.2890    1.8029   21.6415 H   0  0  0  0  0  0  0  0  0  0  0  0
    8.3731    1.5370   24.3362 C   0  0  0  0  0  0  0  0  0  0  0  0
    8.3431    1.4741   25.7234 C   0  0  0  0  0  0  0  0  0  0  0  0
    9.5231    1.4025   26.3671 F   0  0  0  0  0  0  0  0  0  0  0  0
    9.3406    1.4476   23.8454 H   0  0  0  0  0  0  0  0  0  0  0  0
    4.9865    1.6090   26.2437 H   0  0  0  0  0  0  0  0  0  0  0  0
    7.8676    0.5267   28.2852 H   0  0  0  0  0  0  0  0  0  0  0  0
    7.4553    2.2319   28.4627 H   0  0  0  0  0  0  0  0  0  0  0  0
    6.1699    1.0161   28.3478 H   0  0  0  0  0  0  0  0  0  0  0  0
  1  2  1  0
  2  3  2  0
  3  4  1  0
  4  5  1  0
  4  6  2  0
  6  7  1  0
  7  8  1  0
  8  9  2  0
  9 10  1  0
 10 11  1  0
 11 12  1  0
 12 13  1  0
 13 14  1  0
 14 15  1  0
 15 16  1  0
 15 17  1  0
 13 18  1  0
 13 19  1  0
 12 20  1  0
 12 21  1  0
 11 22  1  0
 10 23  2  0
 23 24  1  0
 24 25  1  0
 25 26  2  0
 26 27  1  0
 27 28  2  0
 28 29  1  0
 29 30  2  0
 30 31  1  0
 28 32  1  0
 27 33  1  0
 26 34  1  0
  7 35  1  0
  7 36  1  0
  6 37  1  0
 37 38  2  0
 38 39  1  0
 37 40  1  0
  3 41  1  0
  1 42  1  0
  1 43  1  0
  1 44  1  0
 38  2  1  0
 24  8  1  0
 30 25  1  0
 15 11  1  0
M  END
>  <cnnaffinity>  (1) 
-5.75884

>  <filename>  (1) 
Cc1cc(F)c(Cc2nc(C3CCOC3)nn2-c2cccnc2)cc1F

$$$$
