
     RDKit          3D

 48 51  0  0  0  0  0  0  0  0999 V2000
    8.6235    0.2904   27.2569 C   0  0  0  0  0  0  0  0  0  0  0  0
    9.3433    0.7403   26.0095 C   0  0  0  0  0  0  0  0  0  0  0  0
   10.7353    0.6240   25.9082 C   0  0  0  0  0  0  0  0  0  0  0  0
   11.4258    1.0669   24.7764 C   0  0  0  0  0  0  0  0  0  0  0  0
   12.9212    0.9219   24.6667 C   0  0  0  0  0  0  0  0  0  0  0  0
   13.1977    0.1909   23.8944 H   0  0  0  0  0  0  0  0  0  0  0  0
   13.3736    1.8830   24.3974 H   0  0  0  0  0  0  0  0  0  0  0  0
   13.3776    0.5836   25.6027 H   0  0  0  0  0  0  0  0  0  0  0  0
   10.6914    1.6334   23.7208 C   0  0  0  0  0  0  0  0  0  0  0  0
    9.2979    1.6941   23.7777 C   0  0  0  0  0  0  0  0  0  0  0  0
    8.5080    2.1073   22.7424 O   0  0  0  0  0  0  0  0  0  0  0  0
    9.0108    2.0421   21.4146 C   0  0  0  0  0  0  0  0  0  0  0  0
    9.4883    0.6429   20.9763 C   0  0  0  0  0  0  0  0  0  0  0  0
    8.6027   -0.4636   21.4374 C   0  0  0  0  0  0  0  0  0  0  0  0
    8.8654   -1.3200   22.4003 N   0  0  0  0  0  0  0  0  0  0  0  0
    7.6812   -1.9649   22.5695 C   0  0  0  0  0  0  0  0  0  0  0  0
    7.4241   -2.9040   23.7019 C   0  0  0  0  0  0  0  0  0  0  0  0
    8.6617   -3.7023   24.1837 C   0  0  0  0  0  0  0  0  0  0  0  0
    8.6542   -2.8899   25.8233 S   0  0  0  0  0  0  0  0  0  0  0  0
    7.1674   -2.1707   25.0543 C   0  0  0  0  0  0  0  0  0  0  0  0
    6.2453   -2.4666   25.5596 H   0  0  0  0  0  0  0  0  0  0  0  0
    7.2260   -1.0809   24.9909 H   0  0  0  0  0  0  0  0  0  0  0  0
    9.5759   -3.4864   23.6237 H   0  0  0  0  0  0  0  0  0  0  0  0
    8.4970   -4.7819   24.2415 H   0  0  0  0  0  0  0  0  0  0  0  0
    6.5780   -3.5282   23.4085 H   0  0  0  0  0  0  0  0  0  0  0  0
    6.7317   -1.6119   21.7323 N   0  0  0  0  0  0  0  0  0  0  0  0
    7.3404   -0.6611   20.9681 N   0  0  0  0  0  0  0  0  0  0  0  0
    6.6514   -0.0093   19.9064 C   0  0  0  0  0  0  0  0  0  0  0  0
    5.4346    0.6304   20.1606 C   0  0  0  0  0  0  0  0  0  0  0  0
    4.8172    1.3039   19.1042 C   0  0  0  0  0  0  0  0  0  0  0  0
    5.4183    1.2935   17.8399 C   0  0  0  0  0  0  0  0  0  0  0  0
    6.5664    0.6487   17.5799 N   0  0  0  0  0  0  0  0  0  0  0  0
    7.1640    0.0144   18.5957 C   0  0  0  0  0  0  0  0  0  0  0  0
    8.0949   -0.5029   18.3620 H   0  0  0  0  0  0  0  0  0  0  0  0
    4.9571    1.8155   17.0045 H   0  0  0  0  0  0  0  0  0  0  0  0
    3.8869    1.8404   19.2527 H   0  0  0  0  0  0  0  0  0  0  0  0
    5.0068    0.5931   21.1639 H   0  0  0  0  0  0  0  0  0  0  0  0
   10.4846    0.4250   21.3657 H   0  0  0  0  0  0  0  0  0  0  0  0
    9.5626    0.6391   19.8899 H   0  0  0  0  0  0  0  0  0  0  0  0
    9.8206    2.7747   21.2894 H   0  0  0  0  0  0  0  0  0  0  0  0
    8.1710    2.3672   20.7962 H   0  0  0  0  0  0  0  0  0  0  0  0
    8.6301    1.3122   24.9466 C   0  0  0  0  0  0  0  0  0  0  0  0
    7.5535    1.4695   24.9859 H   0  0  0  0  0  0  0  0  0  0  0  0
   11.1865    2.0370   22.8426 H   0  0  0  0  0  0  0  0  0  0  0  0
   11.2581    0.1823   26.7552 H   0  0  0  0  0  0  0  0  0  0  0  0
    9.2869   -0.2162   27.9682 H   0  0  0  0  0  0  0  0  0  0  0  0
    8.1749    1.1525   27.7639 H   0  0  0  0  0  0  0  0  0  0  0  0
    7.8210   -0.4110   27.0097 H   0  0  0  0  0  0  0  0  0  0  0  0
  1  2  1  0
  2  3  2  0
  3  4  1  0
  4  5  1  0
  5  6  1  0
  5  7  1  0
  5  8  1  0
  4  9  2  0
  9 10  1  0
 10 11  1  0
 11 12  1  0
 12 13  1  0
 13 14  1  0
 14 15  2  0
 15 16  1  0
 16 17  1  0
 17 18  1  0
 18 19  1  0
 19 20  1  0
 20 21  1  0
 20 22  1  0
 18 23  1  0
 18 24  1  0
 17 25  1  0
 16 26  2  0
 26 27  1  0
 27 28  1  0
 28 29  2  0
 29 30  1  0
 30 31  2  0
 31 32  1  0
 32 33  2  0
 33 34  1  0
 31 35  1  0
 30 36  1  0
 29 37  1  0
 13 38  1  0
 13 39  1  0
 12 40  1  0
 12 41  1  0
 10 42  2  0
 42 43  1  0
  9 44  1  0
  3 45  1  0
  1 46  1  0
  1 47  1  0
  1 48  1  0
 42  2  1  0
 27 14  1  0
 33 28  1  0
 20 17  1  0
M  END
>  <cnnaffinity>  (1) 
-6.15468

>  <filename>  (1) 
Cc1cc(C)cc(OCCc2nc(C3CSC3)nn2-c2cccnc2)c1

$$$$
