
     RDKit          3D

 47 50  0  0  0  0  0  0  0  0999 V2000
    7.8464    0.7200   27.1371 C   0  0  0  0  0  0  0  0  0  0  0  0
    8.6869    1.0836   25.9285 C   0  0  0  0  0  0  0  0  0  0  0  0
   10.0851    1.0952   26.0288 C   0  0  0  0  0  0  0  0  0  0  0  0
   10.8785    1.5791   24.9945 C   0  0  0  0  0  0  0  0  0  0  0  0
   10.2931    1.9996   23.8021 C   0  0  0  0  0  0  0  0  0  0  0  0
    8.9089    1.8584   23.6347 C   0  0  0  0  0  0  0  0  0  0  0  0
    8.2786    2.1374   22.4511 O   0  0  0  0  0  0  0  0  0  0  0  0
    8.9694    2.0162   21.2177 C   0  0  0  0  0  0  0  0  0  0  0  0
    9.5149    0.6030   20.9408 C   0  0  0  0  0  0  0  0  0  0  0  0
    8.6107   -0.4759   21.4231 C   0  0  0  0  0  0  0  0  0  0  0  0
    8.8697   -1.3102   22.4001 N   0  0  0  0  0  0  0  0  0  0  0  0
    7.6682   -1.9241   22.6091 C   0  0  0  0  0  0  0  0  0  0  0  0
    7.4451   -2.8577   23.7307 C   0  0  0  0  0  0  0  0  0  0  0  0
    8.5924   -3.6484   24.3130 C   0  0  0  0  0  0  0  0  0  0  0  0
    7.9975   -2.5303   25.1065 C   0  0  0  0  0  0  0  0  0  0  0  0
    8.5768   -1.6077   25.2028 H   0  0  0  0  0  0  0  0  0  0  0  0
    7.3759   -2.7850   25.9614 H   0  0  0  0  0  0  0  0  0  0  0  0
    9.5778   -3.4926   23.8739 H   0  0  0  0  0  0  0  0  0  0  0  0
    8.3938   -4.6679   24.6355 H   0  0  0  0  0  0  0  0  0  0  0  0
    6.4614   -3.3197   23.6883 H   0  0  0  0  0  0  0  0  0  0  0  0
    6.7125   -1.5595   21.7744 N   0  0  0  0  0  0  0  0  0  0  0  0
    7.3329   -0.6412   20.9839 N   0  0  0  0  0  0  0  0  0  0  0  0
    6.6453    0.0003   19.9149 C   0  0  0  0  0  0  0  0  0  0  0  0
    5.4265    0.6419   20.1544 C   0  0  0  0  0  0  0  0  0  0  0  0
    4.8108    1.3115   19.0954 C   0  0  0  0  0  0  0  0  0  0  0  0
    5.4172    1.2962   17.8335 C   0  0  0  0  0  0  0  0  0  0  0  0
    6.5685    0.6541   17.5848 N   0  0  0  0  0  0  0  0  0  0  0  0
    7.1639    0.0247   18.6060 C   0  0  0  0  0  0  0  0  0  0  0  0
    8.0950   -0.4912   18.3751 H   0  0  0  0  0  0  0  0  0  0  0  0
    4.9581    1.8087   16.9914 H   0  0  0  0  0  0  0  0  0  0  0  0
    3.8794    1.8463   19.2388 H   0  0  0  0  0  0  0  0  0  0  0  0
    4.9916    0.6071   21.1547 H   0  0  0  0  0  0  0  0  0  0  0  0
   10.4857    0.4518   21.4232 H   0  0  0  0  0  0  0  0  0  0  0  0
    9.6553    0.5000   19.8671 H   0  0  0  0  0  0  0  0  0  0  0  0
    9.7863    2.7505   21.1598 H   0  0  0  0  0  0  0  0  0  0  0  0
    8.2156    2.2863   20.4732 H   0  0  0  0  0  0  0  0  0  0  0  0
    8.0775    1.4307   24.7003 C   0  0  0  0  0  0  0  0  0  0  0  0
    6.5700    1.3256   24.5239 C   0  0  0  0  0  0  0  0  0  0  0  0
    6.2795    0.2777   24.3785 H   0  0  0  0  0  0  0  0  0  0  0  0
    6.2321    1.8887   23.6502 H   0  0  0  0  0  0  0  0  0  0  0  0
    6.0151    1.7008   25.3940 H   0  0  0  0  0  0  0  0  0  0  0  0
   10.8920    2.4229   22.9990 H   0  0  0  0  0  0  0  0  0  0  0  0
   11.9547    1.6233   25.1319 H   0  0  0  0  0  0  0  0  0  0  0  0
   10.5699    0.6527   26.8952 H   0  0  0  0  0  0  0  0  0  0  0  0
    7.1297   -0.0797   26.9131 H   0  0  0  0  0  0  0  0  0  0  0  0
    8.4654    0.3903   27.9759 H   0  0  0  0  0  0  0  0  0  0  0  0
    7.2650    1.5875   27.4752 H   0  0  0  0  0  0  0  0  0  0  0  0
  1  2  1  0
  2  3  2  0
  3  4  1  0
  4  5  2  0
  5  6  1  0
  6  7  1  0
  7  8  1  0
  8  9  1  0
  9 10  1  0
 10 11  2  0
 11 12  1  0
 12 13  1  0
 13 14  1  0
 14 15  1  0
 15 16  1  0
 15 17  1  0
 14 18  1  0
 14 19  1  0
 13 20  1  0
 12 21  2  0
 21 22  1  0
 22 23  1  0
 23 24  2  0
 24 25  1  0
 25 26  2  0
 26 27  1  0
 27 28  2  0
 28 29  1  0
 26 30  1  0
 25 31  1  0
 24 32  1  0
  9 33  1  0
  9 34  1  0
  8 35  1  0
  8 36  1  0
  6 37  2  0
 37 38  1  0
 38 39  1  0
 38 40  1  0
 38 41  1  0
  5 42  1  0
  4 43  1  0
  3 44  1  0
  1 45  1  0
  1 46  1  0
  1 47  1  0
 37  2  1  0
 22 10  1  0
 28 23  1  0
 15 13  1  0
M  END
>  <cnnaffinity>  (1) 
-6.0195

>  <filename>  (1) 
Cc1cccc(OCCc2nc(C3CC3)nn2-c2cccnc2)c1C

$$$$
