
     RDKit          3D

 43 46  0  0  0  0  0  0  0  0999 V2000
    8.1839   -0.4732   27.0932 C   0  0  0  0  0  0  0  0  0  0  0  0
    7.4347    0.1152   25.9327 C   0  0  0  0  0  0  0  0  0  0  0  0
    8.0855    0.8783   25.0675 N   0  0  0  0  0  0  0  0  0  0  0  0
    7.2177    1.1655   24.0886 N   0  0  0  0  0  0  0  0  0  0  0  0
    7.7250    1.7918   22.8732 C   0  0  0  0  0  0  0  0  0  0  0  0
    8.7374    0.8968   22.2355 C   0  0  0  0  0  0  0  0  0  0  0  0
   10.0299    0.9948   22.4424 N   0  0  0  0  0  0  0  0  0  0  0  0
   10.5165   -0.1870   21.9799 C   0  0  0  0  0  0  0  0  0  0  0  0
   11.9708   -0.4628   21.9548 C   0  0  0  0  0  0  0  0  0  0  0  0
   12.8854    0.4378   22.5459 C   0  0  0  0  0  0  0  0  0  0  0  0
   14.2051    0.4777   22.1044 C   0  0  0  0  0  0  0  0  0  0  0  0
   14.5636   -0.3569   21.0408 C   0  0  0  0  0  0  0  0  0  0  0  0
   15.5549    0.1349   20.1398 F   0  0  0  0  0  0  0  0  0  0  0  0
   13.8118   -1.4825   20.7108 C   0  0  0  0  0  0  0  0  0  0  0  0
   12.4927   -1.5149   21.1770 C   0  0  0  0  0  0  0  0  0  0  0  0
   11.8034   -2.2798   20.8508 H   0  0  0  0  0  0  0  0  0  0  0  0
   14.2057   -2.2468   20.0545 H   0  0  0  0  0  0  0  0  0  0  0  0
   14.8919    1.2426   22.4542 H   0  0  0  0  0  0  0  0  0  0  0  0
   12.5418    1.1812   23.2615 H   0  0  0  0  0  0  0  0  0  0  0  0
    9.5872   -0.9752   21.4554 N   0  0  0  0  0  0  0  0  0  0  0  0
    8.4501   -0.2587   21.5991 N   0  0  0  0  0  0  0  0  0  0  0  0
    7.1819   -0.7632   21.0814 C   0  0  0  0  0  0  0  0  0  0  0  0
    6.5501    0.0501   19.9616 C   0  0  0  0  0  0  0  0  0  0  0  0
    5.3192    0.7058   20.1015 C   0  0  0  0  0  0  0  0  0  0  0  0
    4.7686    1.3658   18.9980 C   0  0  0  0  0  0  0  0  0  0  0  0
    5.4701    1.3487   17.7895 C   0  0  0  0  0  0  0  0  0  0  0  0
    6.6507    0.7291   17.6315 N   0  0  0  0  0  0  0  0  0  0  0  0
    7.1703    0.1113   18.7002 C   0  0  0  0  0  0  0  0  0  0  0  0
    8.1296   -0.3803   18.5410 H   0  0  0  0  0  0  0  0  0  0  0  0
    5.0706    1.8551   16.9113 H   0  0  0  0  0  0  0  0  0  0  0  0
    3.8274    1.9011   19.0652 H   0  0  0  0  0  0  0  0  0  0  0  0
    4.7873    0.6992   21.0563 H   0  0  0  0  0  0  0  0  0  0  0  0
    7.4002   -1.7807   20.7394 H   0  0  0  0  0  0  0  0  0  0  0  0
    6.4932   -0.8307   21.9305 H   0  0  0  0  0  0  0  0  0  0  0  0
    6.8952    2.0094   22.1958 H   0  0  0  0  0  0  0  0  0  0  0  0
    8.2436    2.7084   23.1576 H   0  0  0  0  0  0  0  0  0  0  0  0
    6.0061    0.6137   24.3221 C   0  0  0  0  0  0  0  0  0  0  0  0
    6.0969   -0.0721   25.5147 C   0  0  0  0  0  0  0  0  0  0  0  0
    5.3342   -0.6533   26.0139 H   0  0  0  0  0  0  0  0  0  0  0  0
    5.1893    0.7739   23.6291 H   0  0  0  0  0  0  0  0  0  0  0  0
    9.2161   -0.6733   26.7878 H   0  0  0  0  0  0  0  0  0  0  0  0
    8.2122    0.2100   27.9489 H   0  0  0  0  0  0  0  0  0  0  0  0
    7.7318   -1.4135   27.4195 H   0  0  0  0  0  0  0  0  0  0  0  0
  1  2  1  0
  2  3  2  0
  3  4  1  0
  4  5  1  0
  5  6  1  0
  6  7  2  0
  7  8  1  0
  8  9  1  0
  9 10  2  0
 10 11  1  0
 11 12  2  0
 12 13  1  0
 12 14  1  0
 14 15  2  0
 15 16  1  0
 14 17  1  0
 11 18  1  0
 10 19  1  0
  8 20  2  0
 20 21  1  0
 21 22  1  0
 22 23  1  0
 23 24  2  0
 24 25  1  0
 25 26  2  0
 26 27  1  0
 27 28  2  0
 28 29  1  0
 26 30  1  0
 25 31  1  0
 24 32  1  0
 22 33  1  0
 22 34  1  0
  5 35  1  0
  5 36  1  0
  4 37  1  0
 37 38  2  0
 38 39  1  0
 37 40  1  0
  1 41  1  0
  1 42  1  0
  1 43  1  0
 38  2  1  0
 21  6  1  0
 28 23  1  0
 15  9  1  0
M  END
>  <cnnaffinity>  (1) 
-6.41308

>  <filename>  (1) 
Cc1ccn(Cc2nc(-c3ccc(F)cc3)nn2Cc2cccnc2)n1

$$$$
