
     RDKit          3D

 44 47  0  0  0  0  0  0  0  0999 V2000
   11.0385    3.7403   23.9329 C   0  0  0  0  0  0  0  0  0  0  0  0
   11.3199    2.4089   23.2651 C   0  0  0  0  0  0  0  0  0  0  0  0
   12.4704    1.6640   23.5585 C   0  0  0  0  0  0  0  0  0  0  0  0
   12.7742    0.4790   22.8790 C   0  0  0  0  0  0  0  0  0  0  0  0
   11.8992    0.0310   21.8957 C   0  0  0  0  0  0  0  0  0  0  0  0
   12.2202   -1.0922   21.2231 F   0  0  0  0  0  0  0  0  0  0  0  0
   10.7028    0.7015   21.6027 C   0  0  0  0  0  0  0  0  0  0  0  0
    9.6651    0.1350   20.6513 C   0  0  0  0  0  0  0  0  0  0  0  0
    8.5909   -0.6422   21.3427 C   0  0  0  0  0  0  0  0  0  0  0  0
    8.7803   -1.4395   22.3772 N   0  0  0  0  0  0  0  0  0  0  0  0
    7.5679   -1.9993   22.5655 C   0  0  0  0  0  0  0  0  0  0  0  0
    7.3416   -3.0085   23.6366 C   0  0  0  0  0  0  0  0  0  0  0  0
    6.7211   -4.3432   23.1775 C   0  0  0  0  0  0  0  0  0  0  0  0
    5.9580   -4.8171   24.4179 C   0  0  0  0  0  0  0  0  0  0  0  0
    5.7726   -3.6892   25.2573 O   0  0  0  0  0  0  0  0  0  0  0  0
    6.3595   -2.5277   24.7125 C   0  0  0  0  0  0  0  0  0  0  0  0
    6.8660   -1.9822   25.5195 H   0  0  0  0  0  0  0  0  0  0  0  0
    5.5862   -1.8789   24.2809 H   0  0  0  0  0  0  0  0  0  0  0  0
    6.5151   -5.5756   24.9841 H   0  0  0  0  0  0  0  0  0  0  0  0
    4.9799   -5.2383   24.1501 H   0  0  0  0  0  0  0  0  0  0  0  0
    7.4793   -5.0659   22.8593 H   0  0  0  0  0  0  0  0  0  0  0  0
    6.0288   -4.1671   22.3455 H   0  0  0  0  0  0  0  0  0  0  0  0
    8.3166   -3.1907   24.0964 H   0  0  0  0  0  0  0  0  0  0  0  0
    6.6261   -1.5902   21.7328 N   0  0  0  0  0  0  0  0  0  0  0  0
    7.2948   -0.7333   20.9188 N   0  0  0  0  0  0  0  0  0  0  0  0
    6.6147   -0.0418   19.8786 C   0  0  0  0  0  0  0  0  0  0  0  0
    5.4104    0.6165   20.1447 C   0  0  0  0  0  0  0  0  0  0  0  0
    4.8018    1.3091   19.0937 C   0  0  0  0  0  0  0  0  0  0  0  0
    5.3957    1.3025   17.8263 C   0  0  0  0  0  0  0  0  0  0  0  0
    6.5379    0.6511   17.5607 N   0  0  0  0  0  0  0  0  0  0  0  0
    7.1282    0.0014   18.5704 C   0  0  0  0  0  0  0  0  0  0  0  0
    8.0624   -0.5069   18.3362 H   0  0  0  0  0  0  0  0  0  0  0  0
    4.9373    1.8355   16.9948 H   0  0  0  0  0  0  0  0  0  0  0  0
    3.8785    1.8523   19.2516 H   0  0  0  0  0  0  0  0  0  0  0  0
    4.9833    0.5834   21.1476 H   0  0  0  0  0  0  0  0  0  0  0  0
    9.2083    0.9466   20.0766 H   0  0  0  0  0  0  0  0  0  0  0  0
   10.1280   -0.5596   19.9413 H   0  0  0  0  0  0  0  0  0  0  0  0
   10.4370    1.8849   22.3032 C   0  0  0  0  0  0  0  0  0  0  0  0
    9.4975    2.3961   22.0938 H   0  0  0  0  0  0  0  0  0  0  0  0
   13.6678   -0.1008   23.0973 H   0  0  0  0  0  0  0  0  0  0  0  0
   13.1384    2.0032   24.3443 H   0  0  0  0  0  0  0  0  0  0  0  0
   11.7817    3.9823   24.6989 H   0  0  0  0  0  0  0  0  0  0  0  0
   11.0535    4.5599   23.1988 H   0  0  0  0  0  0  0  0  0  0  0  0
   10.0486    3.7341   24.4087 H   0  0  0  0  0  0  0  0  0  0  0  0
  1  2  1  0
  2  3  2  0
  3  4  1  0
  4  5  2  0
  5  6  1  0
  5  7  1  0
  7  8  1  0
  8  9  1  0
  9 10  2  0
 10 11  1  0
 11 12  1  0
 12 13  1  0
 13 14  1  0
 14 15  1  0
 15 16  1  0
 16 17  1  0
 16 18  1  0
 14 19  1  0
 14 20  1  0
 13 21  1  0
 13 22  1  0
 12 23  1  0
 11 24  2  0
 24 25  1  0
 25 26  1  0
 26 27  2  0
 27 28  1  0
 28 29  2  0
 29 30  1  0
 30 31  2  0
 31 32  1  0
 29 33  1  0
 28 34  1  0
 27 35  1  0
  8 36  1  0
  8 37  1  0
  7 38  2  0
 38 39  1  0
  4 40  1  0
  3 41  1  0
  1 42  1  0
  1 43  1  0
  1 44  1  0
 38  2  1  0
 25  9  1  0
 31 26  1  0
 16 12  1  0
M  END
>  <cnnaffinity>  (1) 
-6.5072

>  <filename>  (1) 
Cc1ccc(F)c(Cc2nc(C3CCOC3)nn2-c2cccnc2)c1

$$$$
