
     RDKit          3D

 53 56  0  0  0  0  0  0  0  0999 V2000
    9.0784   -4.2447   26.6763 C   0  0  0  0  0  0  0  0  0  0  0  0
    9.0514   -3.5833   25.2940 C   0  0  0  0  0  0  0  0  0  0  0  0
    7.7978   -4.0067   24.4760 C   0  0  0  0  0  0  0  0  0  0  0  0
    8.1036   -4.3218   23.0015 C   0  0  0  0  0  0  0  0  0  0  0  0
    8.9745   -3.2159   22.3500 C   0  0  0  0  0  0  0  0  0  0  0  0
    8.2234   -1.9322   22.0945 C   0  0  0  0  0  0  0  0  0  0  0  0
    7.7260   -1.6882   20.8982 N   0  0  0  0  0  0  0  0  0  0  0  0
    7.1760   -0.4545   21.0238 N   0  0  0  0  0  0  0  0  0  0  0  0
    6.5168    0.1492   19.9201 C   0  0  0  0  0  0  0  0  0  0  0  0
    5.3355    0.8807   20.0948 C   0  0  0  0  0  0  0  0  0  0  0  0
    4.7517    1.4643   18.9634 C   0  0  0  0  0  0  0  0  0  0  0  0
    5.3724    1.3120   17.7215 C   0  0  0  0  0  0  0  0  0  0  0  0
    6.4905    0.5844   17.5487 N   0  0  0  0  0  0  0  0  0  0  0  0
    7.0334    0.0009   18.6206 C   0  0  0  0  0  0  0  0  0  0  0  0
    7.9115   -0.6180   18.4469 H   0  0  0  0  0  0  0  0  0  0  0  0
    4.9740    1.7925   16.8286 H   0  0  0  0  0  0  0  0  0  0  0  0
    3.8374    2.0426   19.0334 H   0  0  0  0  0  0  0  0  0  0  0  0
    4.8849    0.9772   21.0819 H   0  0  0  0  0  0  0  0  0  0  0  0
    7.4124    0.0024   22.2907 C   0  0  0  0  0  0  0  0  0  0  0  0
    7.1908    1.4106   22.7669 C   0  0  0  0  0  0  0  0  0  0  0  0
    5.9680    1.5651   23.4684 O   0  0  0  0  0  0  0  0  0  0  0  0
    6.0788    1.8191   24.8678 C   0  0  0  0  0  0  0  0  0  0  0  0
    6.7892    0.7397   25.6834 C   0  0  0  0  0  0  0  0  0  0  0  0
    6.1375   -0.4110   26.0624 C   0  0  0  0  0  0  0  0  0  0  0  0
    6.7606   -1.4109   26.9175 C   0  0  0  0  0  0  0  0  0  0  0  0
    6.2449   -2.4399   27.3254 O   0  0  0  0  0  0  0  0  0  0  0  0
    8.0675   -1.1327   27.2928 N   0  0  0  0  0  0  0  0  0  0  0  0
    8.7579   -0.0037   26.9130 C   0  0  0  0  0  0  0  0  0  0  0  0
    8.1505    0.9264   26.1241 C   0  0  0  0  0  0  0  0  0  0  0  0
    8.6980    1.8220   25.8307 H   0  0  0  0  0  0  0  0  0  0  0  0
    9.7681    0.0971   27.3015 H   0  0  0  0  0  0  0  0  0  0  0  0
    8.4148   -1.8745   27.8832 H   0  0  0  0  0  0  0  0  0  0  0  0
    5.1205   -0.6336   25.7818 H   0  0  0  0  0  0  0  0  0  0  0  0
    5.0419    1.9126   25.1995 H   0  0  0  0  0  0  0  0  0  0  0  0
    6.5821    2.7809   25.0543 H   0  0  0  0  0  0  0  0  0  0  0  0
    8.0588    1.6733   23.3932 H   0  0  0  0  0  0  0  0  0  0  0  0
    7.1888    2.1043   21.9182 H   0  0  0  0  0  0  0  0  0  0  0  0
    8.0489   -0.9287   22.9883 N   0  0  0  0  0  0  0  0  0  0  0  0
   10.2956   -2.9951   23.1597 C   0  0  0  0  0  0  0  0  0  0  0  0
   10.3478   -3.7828   24.4854 C   0  0  0  0  0  0  0  0  0  0  0  0
   10.5056   -4.8512   24.2768 H   0  0  0  0  0  0  0  0  0  0  0  0
   11.2129   -3.4575   25.0708 H   0  0  0  0  0  0  0  0  0  0  0  0
   10.3915   -1.9283   23.3924 H   0  0  0  0  0  0  0  0  0  0  0  0
   11.1736   -3.2492   22.5551 H   0  0  0  0  0  0  0  0  0  0  0  0
    9.1951   -3.5261   21.3295 H   0  0  0  0  0  0  0  0  0  0  0  0
    8.6621   -5.2672   22.9313 H   0  0  0  0  0  0  0  0  0  0  0  0
    7.1781   -4.4834   22.4403 H   0  0  0  0  0  0  0  0  0  0  0  0
    7.3184   -4.8864   24.9296 H   0  0  0  0  0  0  0  0  0  0  0  0
    7.0648   -3.1900   24.5182 H   0  0  0  0  0  0  0  0  0  0  0  0
    8.9717   -2.5009   25.4499 H   0  0  0  0  0  0  0  0  0  0  0  0
    9.8822   -3.8394   27.2993 H   0  0  0  0  0  0  0  0  0  0  0  0
    9.2391   -5.3297   26.6111 H   0  0  0  0  0  0  0  0  0  0  0  0
    8.1347   -4.0796   27.2077 H   0  0  0  0  0  0  0  0  0  0  0  0
  1  2  1  0
  2  3  1  0
  3  4  1  0
  4  5  1  0
  5  6  1  0
  6  7  2  0
  7  8  1  0
  8  9  1  0
  9 10  2  0
 10 11  1  0
 11 12  2  0
 12 13  1  0
 13 14  2  0
 14 15  1  0
 12 16  1  0
 11 17  1  0
 10 18  1  0
  8 19  1  0
 19 20  1  0
 20 21  1  0
 21 22  1  0
 22 23  1  0
 23 24  2  0
 24 25  1  0
 25 26  2  0
 25 27  1  0
 27 28  1  0
 28 29  2  0
 29 30  1  0
 28 31  1  0
 27 32  1  0
 24 33  1  0
 22 34  1  0
 22 35  1  0
 20 36  1  0
 20 37  1  0
 19 38  2  0
  5 39  1  0
 39 40  1  0
 40 41  1  0
 40 42  1  0
 39 43  1  0
 39 44  1  0
  5 45  1  0
  4 46  1  0
  4 47  1  0
  3 48  1  0
  3 49  1  0
  2 50  1  0
  1 51  1  0
  1 52  1  0
  1 53  1  0
 40  2  1  0
 38  6  1  0
 14  9  1  0
 29 23  1  0
M  END
>  <cnnaffinity>  (1) 
-6.24394

>  <filename>  (1) 
CC1CCC(c2nc(COCc3cc[nH]c(=O)c3)n(-c3cccnc3)n2)CC1

$$$$
