
     RDKit          3D

 50 53  0  0  0  0  0  0  0  0999 V2000
    9.2221   -1.6485   27.2149 C   0  0  0  0  0  0  0  0  0  0  0  0
    8.6615   -2.9098   26.5206 C   0  0  0  0  0  0  0  0  0  0  0  0
    9.4360   -3.1960   25.1965 C   0  0  0  0  0  0  0  0  0  0  0  0
    8.5757   -3.8061   24.0707 C   0  0  0  0  0  0  0  0  0  0  0  0
    7.3702   -2.8938   23.6918 C   0  0  0  0  0  0  0  0  0  0  0  0
    7.6617   -1.9825   22.5245 C   0  0  0  0  0  0  0  0  0  0  0  0
    6.7134   -1.5907   21.6956 N   0  0  0  0  0  0  0  0  0  0  0  0
    7.3533   -0.6824   20.9039 N   0  0  0  0  0  0  0  0  0  0  0  0
    6.6539   -0.0300   19.8548 C   0  0  0  0  0  0  0  0  0  0  0  0
    5.4409    0.6126   20.1272 C   0  0  0  0  0  0  0  0  0  0  0  0
    4.8208    1.3018   19.0828 C   0  0  0  0  0  0  0  0  0  0  0  0
    5.4118    1.3053   17.8144 C   0  0  0  0  0  0  0  0  0  0  0  0
    6.5496    0.6489   17.5357 N   0  0  0  0  0  0  0  0  0  0  0  0
    7.1485   -0.0035   18.5389 C   0  0  0  0  0  0  0  0  0  0  0  0
    8.0667   -0.5355   18.2895 H   0  0  0  0  0  0  0  0  0  0  0  0
    4.9514    1.8486   16.9903 H   0  0  0  0  0  0  0  0  0  0  0  0
    3.8966    1.8413   19.2469 H   0  0  0  0  0  0  0  0  0  0  0  0
    5.0235    0.5676   21.1354 H   0  0  0  0  0  0  0  0  0  0  0  0
    8.6295   -0.5273   21.3532 C   0  0  0  0  0  0  0  0  0  0  0  0
    9.5058    0.6401   20.9891 C   0  0  0  0  0  0  0  0  0  0  0  0
    9.0533    2.0126   21.5877 C   0  0  0  0  0  0  0  0  0  0  0  0
    8.9162    2.0119   23.0930 C   0  0  0  0  0  0  0  0  0  0  0  0
    7.6859    2.0066   23.6141 N   0  0  0  0  0  0  0  0  0  0  0  0
    7.6022    1.9041   24.9416 C   0  0  0  0  0  0  0  0  0  0  0  0
    8.7074    1.8184   25.7654 C   0  0  0  0  0  0  0  0  0  0  0  0
    9.9340    1.8655   25.1199 C   0  0  0  0  0  0  0  0  0  0  0  0
   10.0559    1.9703   23.8013 N   0  0  0  0  0  0  0  0  0  0  0  0
   10.8635    1.8088   25.6871 H   0  0  0  0  0  0  0  0  0  0  0  0
    8.6242    1.6892   26.8375 H   0  0  0  0  0  0  0  0  0  0  0  0
    6.5934    1.8732   25.3556 H   0  0  0  0  0  0  0  0  0  0  0  0
    9.8032    2.7672   21.3330 H   0  0  0  0  0  0  0  0  0  0  0  0
    8.0946    2.3239   21.1630 H   0  0  0  0  0  0  0  0  0  0  0  0
    9.5663    0.7300   19.9022 H   0  0  0  0  0  0  0  0  0  0  0  0
   10.5111    0.4102   21.3535 H   0  0  0  0  0  0  0  0  0  0  0  0
    8.8695   -1.3867   22.3261 N   0  0  0  0  0  0  0  0  0  0  0  0
    6.8852   -2.0431   24.9158 C   0  0  0  0  0  0  0  0  0  0  0  0
    7.1359   -2.7711   26.2435 C   0  0  0  0  0  0  0  0  0  0  0  0
    6.6619   -3.7653   26.2133 H   0  0  0  0  0  0  0  0  0  0  0  0
    6.6486   -2.2316   27.0646 H   0  0  0  0  0  0  0  0  0  0  0  0
    7.4456   -1.0924   24.9346 H   0  0  0  0  0  0  0  0  0  0  0  0
    5.8281   -1.7812   24.7956 H   0  0  0  0  0  0  0  0  0  0  0  0
    6.5414   -3.5313   23.3647 H   0  0  0  0  0  0  0  0  0  0  0  0
    9.1981   -3.9908   23.1868 H   0  0  0  0  0  0  0  0  0  0  0  0
    8.2000   -4.7853   24.3971 H   0  0  0  0  0  0  0  0  0  0  0  0
   10.3068   -3.8305   25.3925 H   0  0  0  0  0  0  0  0  0  0  0  0
    9.8333   -2.2547   24.7965 H   0  0  0  0  0  0  0  0  0  0  0  0
    8.7925   -3.7695   27.1967 H   0  0  0  0  0  0  0  0  0  0  0  0
    9.4089   -0.8476   26.4872 H   0  0  0  0  0  0  0  0  0  0  0  0
    8.5104   -1.2629   27.9490 H   0  0  0  0  0  0  0  0  0  0  0  0
   10.1550   -1.8376   27.7507 H   0  0  0  0  0  0  0  0  0  0  0  0
  1  2  1  0
  2  3  1  0
  3  4  1  0
  4  5  1  0
  5  6  1  0
  6  7  2  0
  7  8  1  0
  8  9  1  0
  9 10  2  0
 10 11  1  0
 11 12  2  0
 12 13  1  0
 13 14  2  0
 14 15  1  0
 12 16  1  0
 11 17  1  0
 10 18  1  0
  8 19  1  0
 19 20  1  0
 20 21  1  0
 21 22  1  0
 22 23  2  0
 23 24  1  0
 24 25  2  0
 25 26  1  0
 26 27  2  0
 26 28  1  0
 25 29  1  0
 24 30  1  0
 21 31  1  0
 21 32  1  0
 20 33  1  0
 20 34  1  0
 19 35  2  0
  5 36  1  0
 36 37  1  0
 37 38  1  0
 37 39  1  0
 36 40  1  0
 36 41  1  0
  5 42  1  0
  4 43  1  0
  4 44  1  0
  3 45  1  0
  3 46  1  0
  2 47  1  0
  1 48  1  0
  1 49  1  0
  1 50  1  0
 37  2  1  0
 35  6  1  0
 14  9  1  0
 27 22  1  0
M  END
>  <cnnaffinity>  (1) 
-6.45277

>  <filename>  (1) 
CC1CCC(c2nc(CCc3ncccn3)n(-c3cccnc3)n2)CC1

$$$$
