
     RDKit          3D

 43 46  0  0  0  0  0  0  0  0999 V2000
    9.3889   -4.6109   26.5552 C   0  0  0  0  0  0  0  0  0  0  0  0
    8.2432   -4.3949   25.5922 C   0  0  0  0  0  0  0  0  0  0  0  0
    7.0222   -5.0773   25.6968 C   0  0  0  0  0  0  0  0  0  0  0  0
    5.9711   -4.8079   24.8065 C   0  0  0  0  0  0  0  0  0  0  0  0
    6.1235   -3.8591   23.7903 C   0  0  0  0  0  0  0  0  0  0  0  0
    7.3542   -3.1809   23.6593 C   0  0  0  0  0  0  0  0  0  0  0  0
    7.6353   -2.1583   22.6277 C   0  0  0  0  0  0  0  0  0  0  0  0
    6.7863   -1.7400   21.7111 N   0  0  0  0  0  0  0  0  0  0  0  0
    7.4883   -0.7741   21.0549 N   0  0  0  0  0  0  0  0  0  0  0  0
    6.8373   -0.0766   19.9894 C   0  0  0  0  0  0  0  0  0  0  0  0
    5.6187    0.5686   20.2377 C   0  0  0  0  0  0  0  0  0  0  0  0
    4.9824    1.2311   19.1856 C   0  0  0  0  0  0  0  0  0  0  0  0
    5.5810    1.2302   17.9218 C   0  0  0  0  0  0  0  0  0  0  0  0
    6.7347    0.5910   17.6719 N   0  0  0  0  0  0  0  0  0  0  0  0
    7.3350   -0.0595   18.6772 C   0  0  0  0  0  0  0  0  0  0  0  0
    8.2434   -0.6022   18.4173 H   0  0  0  0  0  0  0  0  0  0  0  0
    5.1211    1.7541   17.0830 H   0  0  0  0  0  0  0  0  0  0  0  0
    4.0405    1.7487   19.3322 H   0  0  0  0  0  0  0  0  0  0  0  0
    5.1962    0.5370   21.2413 H   0  0  0  0  0  0  0  0  0  0  0  0
    8.7148   -0.6370   21.6552 C   0  0  0  0  0  0  0  0  0  0  0  0
    9.7087    0.4540   21.4198 C   0  0  0  0  0  0  0  0  0  0  0  0
    9.1307    1.7660   21.8061 C   0  0  0  0  0  0  0  0  0  0  0  0
    8.3318    2.5290   21.0249 C   0  0  0  0  0  0  0  0  0  0  0  0
    7.9167    3.5679   21.8285 N   0  0  0  0  0  0  0  0  0  0  0  0
    8.4836    3.3708   23.0463 C   0  0  0  0  0  0  0  0  0  0  0  0
    8.2046    4.2573   24.2025 C   0  0  0  0  0  0  0  0  0  0  0  0
    7.1544    4.1542   24.4916 H   0  0  0  0  0  0  0  0  0  0  0  0
    8.3866    5.3012   23.9383 H   0  0  0  0  0  0  0  0  0  0  0  0
    8.8321    3.9784   25.0488 H   0  0  0  0  0  0  0  0  0  0  0  0
    9.2155    2.2859   23.0685 N   0  0  0  0  0  0  0  0  0  0  0  0
    7.2982    4.3336   21.6028 H   0  0  0  0  0  0  0  0  0  0  0  0
    8.0262    2.3485   20.0126 H   0  0  0  0  0  0  0  0  0  0  0  0
    9.9978    0.4502   20.3715 H   0  0  0  0  0  0  0  0  0  0  0  0
   10.5885    0.2559   22.0320 H   0  0  0  0  0  0  0  0  0  0  0  0
    8.8401   -1.5159   22.6047 N   0  0  0  0  0  0  0  0  0  0  0  0
    8.3843   -3.4599   24.5698 C   0  0  0  0  0  0  0  0  0  0  0  0
    9.3193   -2.9163   24.4684 H   0  0  0  0  0  0  0  0  0  0  0  0
    5.2968   -3.6362   23.1175 H   0  0  0  0  0  0  0  0  0  0  0  0
    5.0292   -5.3418   24.9171 H   0  0  0  0  0  0  0  0  0  0  0  0
    6.9016   -5.8182   26.4834 H   0  0  0  0  0  0  0  0  0  0  0  0
    9.3154   -3.9224   27.4064 H   0  0  0  0  0  0  0  0  0  0  0  0
   10.3486   -4.4222   26.0584 H   0  0  0  0  0  0  0  0  0  0  0  0
    9.4018   -5.6325   26.9448 H   0  0  0  0  0  0  0  0  0  0  0  0
  1  2  1  0
  2  3  2  0
  3  4  1  0
  4  5  2  0
  5  6  1  0
  6  7  1  0
  7  8  2  0
  8  9  1  0
  9 10  1  0
 10 11  2  0
 11 12  1  0
 12 13  2  0
 13 14  1  0
 14 15  2  0
 15 16  1  0
 13 17  1  0
 12 18  1  0
 11 19  1  0
  9 20  1  0
 20 21  1  0
 21 22  1  0
 22 23  2  0
 23 24  1  0
 24 25  1  0
 25 26  1  0
 26 27  1  0
 26 28  1  0
 26 29  1  0
 25 30  2  0
 24 31  1  0
 23 32  1  0
 21 33  1  0
 21 34  1  0
 20 35  2  0
  6 36  2  0
 36 37  1  0
  5 38  1  0
  4 39  1  0
  3 40  1  0
  1 41  1  0
  1 42  1  0
  1 43  1  0
 36  2  1  0
 35  7  1  0
 15 10  1  0
 30 22  1  0
M  END
>  <cnnaffinity>  (1) 
-6.06501

>  <filename>  (1) 
Cc1cccc(-c2nc(Cc3c[nH]c(C)n3)n(-c3cccnc3)n2)c1

$$$$
