
     RDKit          3D

 48 51  0  0  0  0  0  0  0  0999 V2000
    5.2762   -2.8791   25.1668 C   0  0  0  0  0  0  0  0  0  0  0  0
    6.1581   -1.6702   25.1885 C   0  0  0  0  0  0  0  0  0  0  0  0
    7.4597   -1.7724   25.4515 N   0  0  0  0  0  0  0  0  0  0  0  0
    7.9320   -0.5174   25.3403 N   0  0  0  0  0  0  0  0  0  0  0  0
    6.9863    0.3957   24.9914 C   0  0  0  0  0  0  0  0  0  0  0  0
    7.3152    1.8194   24.6375 C   0  0  0  0  0  0  0  0  0  0  0  0
    7.4993    2.0467   23.1118 C   0  0  0  0  0  0  0  0  0  0  0  0
    8.4950    1.1094   22.5099 C   0  0  0  0  0  0  0  0  0  0  0  0
    9.8082    1.1138   22.7041 N   0  0  0  0  0  0  0  0  0  0  0  0
   10.2127   -0.0324   22.0975 C   0  0  0  0  0  0  0  0  0  0  0  0
   11.5883   -0.5323   21.9231 C   0  0  0  0  0  0  0  0  0  0  0  0
   11.7323   -1.6932   21.1439 C   0  0  0  0  0  0  0  0  0  0  0  0
   12.9445   -2.0050   20.5608 C   0  0  0  0  0  0  0  0  0  0  0  0
   14.0727   -1.2440   20.8484 C   0  0  0  0  0  0  0  0  0  0  0  0
   15.1338   -1.3529   19.9714 N   0  0  0  0  0  0  0  0  0  0  0  0
   16.0364   -1.3235   20.4251 H   0  0  0  0  0  0  0  0  0  0  0  0
   15.0786   -2.2123   19.4448 H   0  0  0  0  0  0  0  0  0  0  0  0
   14.0047   -0.2564   21.8490 C   0  0  0  0  0  0  0  0  0  0  0  0
   12.7560    0.1276   22.3458 C   0  0  0  0  0  0  0  0  0  0  0  0
   12.6917    0.9730   23.0213 H   0  0  0  0  0  0  0  0  0  0  0  0
   14.8987    0.2877   22.1297 H   0  0  0  0  0  0  0  0  0  0  0  0
   13.0311   -2.7663   19.7911 H   0  0  0  0  0  0  0  0  0  0  0  0
   10.8519   -2.2909   20.9362 H   0  0  0  0  0  0  0  0  0  0  0  0
    9.2148   -0.7199   21.5499 N   0  0  0  0  0  0  0  0  0  0  0  0
    8.1244    0.0016   21.8297 N   0  0  0  0  0  0  0  0  0  0  0  0
    6.8227   -0.4447   21.3339 C   0  0  0  0  0  0  0  0  0  0  0  0
    6.3601    0.2546   20.0689 C   0  0  0  0  0  0  0  0  0  0  0  0
    5.1358    0.9236   19.9607 C   0  0  0  0  0  0  0  0  0  0  0  0
    4.7982    1.5227   18.7423 C   0  0  0  0  0  0  0  0  0  0  0  0
    5.6961    1.4266   17.6766 C   0  0  0  0  0  0  0  0  0  0  0  0
    6.8611    0.7658   17.7503 N   0  0  0  0  0  0  0  0  0  0  0  0
    7.1736    0.2025   18.9229 C   0  0  0  0  0  0  0  0  0  0  0  0
    8.1152   -0.3450   18.9591 H   0  0  0  0  0  0  0  0  0  0  0  0
    5.4785    1.8977   16.7193 H   0  0  0  0  0  0  0  0  0  0  0  0
    3.8718    2.0713   18.6098 H   0  0  0  0  0  0  0  0  0  0  0  0
    4.4490    0.9751   20.8092 H   0  0  0  0  0  0  0  0  0  0  0  0
    6.0944   -0.3471   22.1402 H   0  0  0  0  0  0  0  0  0  0  0  0
    6.9389   -1.5195   21.1573 H   0  0  0  0  0  0  0  0  0  0  0  0
    6.5389    1.9239   22.5964 H   0  0  0  0  0  0  0  0  0  0  0  0
    7.8364    3.0675   22.9206 H   0  0  0  0  0  0  0  0  0  0  0  0
    8.2403    2.1112   25.1498 H   0  0  0  0  0  0  0  0  0  0  0  0
    6.5193    2.4768   25.0004 H   0  0  0  0  0  0  0  0  0  0  0  0
    5.8143   -0.3262   24.9158 C   0  0  0  0  0  0  0  0  0  0  0  0
    4.8319    0.0524   24.6655 H   0  0  0  0  0  0  0  0  0  0  0  0
    8.9309   -0.3631   25.3223 H   0  0  0  0  0  0  0  0  0  0  0  0
    4.8993   -3.0627   24.1544 H   0  0  0  0  0  0  0  0  0  0  0  0
    5.8371   -3.7584   25.4925 H   0  0  0  0  0  0  0  0  0  0  0  0
    4.4078   -2.7519   25.8184 H   0  0  0  0  0  0  0  0  0  0  0  0
  1  2  1  0
  2  3  2  0
  3  4  1  0
  4  5  1  0
  5  6  1  0
  6  7  1  0
  7  8  1  0
  8  9  2  0
  9 10  1  0
 10 11  1  0
 11 12  2  0
 12 13  1  0
 13 14  2  0
 14 15  1  0
 15 16  1  0
 15 17  1  0
 14 18  1  0
 18 19  2  0
 19 20  1  0
 18 21  1  0
 13 22  1  0
 12 23  1  0
 10 24  2  0
 24 25  1  0
 25 26  1  0
 26 27  1  0
 27 28  2  0
 28 29  1  0
 29 30  2  0
 30 31  1  0
 31 32  2  0
 32 33  1  0
 30 34  1  0
 29 35  1  0
 28 36  1  0
 26 37  1  0
 26 38  1  0
  7 39  1  0
  7 40  1  0
  6 41  1  0
  6 42  1  0
  5 43  2  0
 43 44  1  0
  4 45  1  0
  1 46  1  0
  1 47  1  0
  1 48  1  0
 43  2  1  0
 25  8  1  0
 32 27  1  0
 19 11  1  0
M  END
>  <cnnaffinity>  (1) 
-6.62862

>  <filename>  (1) 
Cc1cc(CCc2nc(-c3ccc(N)cc3)nn2Cc2cccnc2)[nH]n1

$$$$
