
     RDKit          3D

 45 48  0  0  0  0  0  0  0  0999 V2000
    5.3490   -2.8861   25.2879 C   0  0  0  0  0  0  0  0  0  0  0  0
    6.1549   -1.6290   25.2349 C   0  0  0  0  0  0  0  0  0  0  0  0
    7.4526   -1.6604   25.4345 N   0  0  0  0  0  0  0  0  0  0  0  0
    7.8884   -0.3643   25.2704 O   0  0  0  0  0  0  0  0  0  0  0  0
    6.8533    0.4353   24.9683 C   0  0  0  0  0  0  0  0  0  0  0  0
    7.1800    1.8507   24.5903 C   0  0  0  0  0  0  0  0  0  0  0  0
    7.6079    2.0517   23.0987 C   0  0  0  0  0  0  0  0  0  0  0  0
    8.5263    1.0085   22.5476 C   0  0  0  0  0  0  0  0  0  0  0  0
    9.8335    0.9630   22.7177 N   0  0  0  0  0  0  0  0  0  0  0  0
   10.1849   -0.2263   22.1635 C   0  0  0  0  0  0  0  0  0  0  0  0
   11.5845   -0.6578   21.9530 C   0  0  0  0  0  0  0  0  0  0  0  0
   11.7874   -1.7356   21.0782 C   0  0  0  0  0  0  0  0  0  0  0  0
   13.0274   -1.9845   20.5098 C   0  0  0  0  0  0  0  0  0  0  0  0
   14.0926   -1.1852   20.8846 C   0  0  0  0  0  0  0  0  0  0  0  0
   15.1808   -1.2787   20.1186 F   0  0  0  0  0  0  0  0  0  0  0  0
   13.9819   -0.2002   21.8751 C   0  0  0  0  0  0  0  0  0  0  0  0
   12.7135    0.0603   22.4034 C   0  0  0  0  0  0  0  0  0  0  0  0
   12.5995    0.8783   23.1109 H   0  0  0  0  0  0  0  0  0  0  0  0
   14.8349    0.4289   22.1166 H   0  0  0  0  0  0  0  0  0  0  0  0
   13.1924   -2.7410   19.7473 H   0  0  0  0  0  0  0  0  0  0  0  0
   10.9092   -2.2936   20.7752 H   0  0  0  0  0  0  0  0  0  0  0  0
    9.1516   -0.8974   21.6574 N   0  0  0  0  0  0  0  0  0  0  0  0
    8.0954   -0.1051   21.9157 N   0  0  0  0  0  0  0  0  0  0  0  0
    6.7752   -0.4656   21.4060 C   0  0  0  0  0  0  0  0  0  0  0  0
    6.3518    0.2602   20.1393 C   0  0  0  0  0  0  0  0  0  0  0  0
    5.1312    0.9368   20.0479 C   0  0  0  0  0  0  0  0  0  0  0  0
    4.7554    1.5042   18.8276 C   0  0  0  0  0  0  0  0  0  0  0  0
    5.6213    1.3873   17.7388 C   0  0  0  0  0  0  0  0  0  0  0  0
    6.8016    0.7530   17.8054 N   0  0  0  0  0  0  0  0  0  0  0  0
    7.1547    0.2196   18.9831 C   0  0  0  0  0  0  0  0  0  0  0  0
    8.1304   -0.2654   19.0029 H   0  0  0  0  0  0  0  0  0  0  0  0
    5.3514    1.8131   16.7715 H   0  0  0  0  0  0  0  0  0  0  0  0
    3.8194    2.0385   18.7133 H   0  0  0  0  0  0  0  0  0  0  0  0
    4.4790    1.0261   20.9192 H   0  0  0  0  0  0  0  0  0  0  0  0
    6.0445   -0.3127   22.2060 H   0  0  0  0  0  0  0  0  0  0  0  0
    6.8225   -1.5444   21.2286 H   0  0  0  0  0  0  0  0  0  0  0  0
    6.7252    2.1262   22.4512 H   0  0  0  0  0  0  0  0  0  0  0  0
    8.1482    2.9961   23.0105 H   0  0  0  0  0  0  0  0  0  0  0  0
    7.9939    2.1885   25.2368 H   0  0  0  0  0  0  0  0  0  0  0  0
    6.3154    2.4879   24.7985 H   0  0  0  0  0  0  0  0  0  0  0  0
    5.7135   -0.3025   24.9742 C   0  0  0  0  0  0  0  0  0  0  0  0
    4.7054    0.0338   24.7929 H   0  0  0  0  0  0  0  0  0  0  0  0
    5.9605   -3.7428   24.9910 H   0  0  0  0  0  0  0  0  0  0  0  0
    4.4902   -2.8148   24.6163 H   0  0  0  0  0  0  0  0  0  0  0  0
    4.9786   -3.0649   26.3020 H   0  0  0  0  0  0  0  0  0  0  0  0
  1  2  1  0
  2  3  2  0
  3  4  1  0
  4  5  1  0
  5  6  1  0
  6  7  1  0
  7  8  1  0
  8  9  2  0
  9 10  1  0
 10 11  1  0
 11 12  2  0
 12 13  1  0
 13 14  2  0
 14 15  1  0
 14 16  1  0
 16 17  2  0
 17 18  1  0
 16 19  1  0
 13 20  1  0
 12 21  1  0
 10 22  2  0
 22 23  1  0
 23 24  1  0
 24 25  1  0
 25 26  2  0
 26 27  1  0
 27 28  2  0
 28 29  1  0
 29 30  2  0
 30 31  1  0
 28 32  1  0
 27 33  1  0
 26 34  1  0
 24 35  1  0
 24 36  1  0
  7 37  1  0
  7 38  1  0
  6 39  1  0
  6 40  1  0
  5 41  2  0
 41 42  1  0
  1 43  1  0
  1 44  1  0
  1 45  1  0
 41  2  1  0
 23  8  1  0
 30 25  1  0
 17 11  1  0
M  END
>  <cnnaffinity>  (1) 
-6.49118

>  <filename>  (1) 
Cc1cc(CCc2nc(-c3ccc(F)cc3)nn2Cc2cccnc2)on1

$$$$
