
     RDKit          3D

 49 52  0  0  0  0  0  0  0  0999 V2000
    3.0132    2.8666   26.0876 C   0  0  0  0  0  0  0  0  0  0  0  0
    4.4600    2.6128   25.8138 C   0  0  0  0  0  0  0  0  0  0  0  0
    5.0379    1.6685   24.9967 C   0  0  0  0  0  0  0  0  0  0  0  0
    6.4108    1.9702   24.9998 C   0  0  0  0  0  0  0  0  0  0  0  0
    7.4696    1.3178   24.1912 C   0  0  0  0  0  0  0  0  0  0  0  0
    7.6070    1.8374   22.7251 C   0  0  0  0  0  0  0  0  0  0  0  0
    8.5972    0.9706   22.0384 C   0  0  0  0  0  0  0  0  0  0  0  0
    9.9057    1.0391   22.2405 N   0  0  0  0  0  0  0  0  0  0  0  0
   10.3302   -0.1867   21.8667 C   0  0  0  0  0  0  0  0  0  0  0  0
   11.7401   -0.6183   21.8636 C   0  0  0  0  0  0  0  0  0  0  0  0
   12.8037    0.1805   22.3160 C   0  0  0  0  0  0  0  0  0  0  0  0
   14.0882   -0.1574   21.9067 C   0  0  0  0  0  0  0  0  0  0  0  0
   15.0921    0.6504   22.2670 F   0  0  0  0  0  0  0  0  0  0  0  0
   14.3173   -1.2383   21.0457 C   0  0  0  0  0  0  0  0  0  0  0  0
   13.2685   -2.0806   20.7058 C   0  0  0  0  0  0  0  0  0  0  0  0
   11.9969   -1.8181   21.1891 C   0  0  0  0  0  0  0  0  0  0  0  0
   11.1288   -2.4345   21.0068 H   0  0  0  0  0  0  0  0  0  0  0  0
   13.4533   -2.8887   19.9990 H   0  0  0  0  0  0  0  0  0  0  0  0
   15.2566   -1.4382   20.5745 H   0  0  0  0  0  0  0  0  0  0  0  0
   12.6499    1.0695   22.9176 H   0  0  0  0  0  0  0  0  0  0  0  0
    9.3685   -0.9855   21.4214 N   0  0  0  0  0  0  0  0  0  0  0  0
    8.2657   -0.2245   21.5009 N   0  0  0  0  0  0  0  0  0  0  0  0
    6.9849   -0.7478   21.0308 C   0  0  0  0  0  0  0  0  0  0  0  0
    6.3639    0.0380   19.8923 C   0  0  0  0  0  0  0  0  0  0  0  0
    5.1495    0.7255   20.0062 C   0  0  0  0  0  0  0  0  0  0  0  0
    4.6592    1.4248   18.8988 C   0  0  0  0  0  0  0  0  0  0  0  0
    5.3959    1.4015   17.7108 C   0  0  0  0  0  0  0  0  0  0  0  0
    6.5504    0.7298   17.5731 N   0  0  0  0  0  0  0  0  0  0  0  0
    7.0124    0.0756   18.6452 C   0  0  0  0  0  0  0  0  0  0  0  0
    7.9453   -0.4690   18.5012 H   0  0  0  0  0  0  0  0  0  0  0  0
    5.0497    1.9500   16.8354 H   0  0  0  0  0  0  0  0  0  0  0  0
    3.7392    1.9982   18.9497 H   0  0  0  0  0  0  0  0  0  0  0  0
    4.5892    0.7145   20.9443 H   0  0  0  0  0  0  0  0  0  0  0  0
    6.2977   -0.8062   21.8842 H   0  0  0  0  0  0  0  0  0  0  0  0
    7.2025   -1.7727   20.7124 H   0  0  0  0  0  0  0  0  0  0  0  0
    7.9824    2.8635   22.7003 H   0  0  0  0  0  0  0  0  0  0  0  0
    6.6509    1.8074   22.1878 H   0  0  0  0  0  0  0  0  0  0  0  0
    7.2682    0.2366   24.1574 H   0  0  0  0  0  0  0  0  0  0  0  0
    8.4375    1.4399   24.6947 H   0  0  0  0  0  0  0  0  0  0  0  0
    6.6742    2.9993   25.7886 N   0  0  0  0  0  0  0  0  0  0  0  0
    5.4840    3.3737   26.2873 N   0  0  0  0  0  0  0  0  0  0  0  0
    5.4266    4.5086   27.1861 C   0  0  0  0  0  0  0  0  0  0  0  0
    4.9777    4.2283   28.1444 H   0  0  0  0  0  0  0  0  0  0  0  0
    4.8525    5.3269   26.7401 H   0  0  0  0  0  0  0  0  0  0  0  0
    6.4516    4.8431   27.3562 H   0  0  0  0  0  0  0  0  0  0  0  0
    4.5476    0.8590   24.4722 H   0  0  0  0  0  0  0  0  0  0  0  0
    2.7885    2.9080   27.1592 H   0  0  0  0  0  0  0  0  0  0  0  0
    2.6816    3.8087   25.6337 H   0  0  0  0  0  0  0  0  0  0  0  0
    2.4205    2.0619   25.6464 H   0  0  0  0  0  0  0  0  0  0  0  0
  1  2  1  0
  2  3  2  0
  3  4  1  0
  4  5  1  0
  5  6  1  0
  6  7  1  0
  7  8  2  0
  8  9  1  0
  9 10  1  0
 10 11  2  0
 11 12  1  0
 12 13  1  0
 12 14  2  0
 14 15  1  0
 15 16  2  0
 16 17  1  0
 15 18  1  0
 14 19  1  0
 11 20  1  0
  9 21  2  0
 21 22  1  0
 22 23  1  0
 23 24  1  0
 24 25  2  0
 25 26  1  0
 26 27  2  0
 27 28  1  0
 28 29  2  0
 29 30  1  0
 27 31  1  0
 26 32  1  0
 25 33  1  0
 23 34  1  0
 23 35  1  0
  6 36  1  0
  6 37  1  0
  5 38  1  0
  5 39  1  0
  4 40  2  0
 40 41  1  0
 41 42  1  0
 42 43  1  0
 42 44  1  0
 42 45  1  0
  3 46  1  0
  1 47  1  0
  1 48  1  0
  1 49  1  0
 41  2  1  0
 22  7  1  0
 29 24  1  0
 16 10  1  0
M  END
>  <cnnaffinity>  (1) 
-6.56171

>  <filename>  (1) 
Cc1cc(CCc2nc(-c3cccc(F)c3)nn2Cc2cccnc2)nn1C

$$$$
