
     RDKit          3D

 44 47  0  0  0  0  0  0  0  0999 V2000
    9.3754   -1.1720   27.4104 C   0  0  0  0  0  0  0  0  0  0  0  0
    8.3310   -1.5642   26.3999 C   0  0  0  0  0  0  0  0  0  0  0  0
    7.3445   -2.5316   26.6788 C   0  0  0  0  0  0  0  0  0  0  0  0
    6.3864   -2.9003   25.8131 N   0  0  0  0  0  0  0  0  0  0  0  0
    6.4223   -2.3862   24.5811 C   0  0  0  0  0  0  0  0  0  0  0  0
    7.4293   -1.5075   24.1698 C   0  0  0  0  0  0  0  0  0  0  0  0
    7.5963   -1.2414   22.7834 N   0  0  0  0  0  0  0  0  0  0  0  0
    6.6411   -0.6316   22.0521 N   0  0  0  0  0  0  0  0  0  0  0  0
    7.1829   -0.5809   20.8498 C   0  0  0  0  0  0  0  0  0  0  0  0
    6.5292    0.0817   19.7233 C   0  0  0  0  0  0  0  0  0  0  0  0
    5.3207    0.7888   19.8540 C   0  0  0  0  0  0  0  0  0  0  0  0
    4.8139    1.4276   18.7270 C   0  0  0  0  0  0  0  0  0  0  0  0
    5.5192    1.3379   17.5214 C   0  0  0  0  0  0  0  0  0  0  0  0
    6.6683    0.6581   17.3884 N   0  0  0  0  0  0  0  0  0  0  0  0
    7.1579    0.0509   18.4746 C   0  0  0  0  0  0  0  0  0  0  0  0
    8.0964   -0.4859   18.3490 H   0  0  0  0  0  0  0  0  0  0  0  0
    5.1421    1.8313   16.6269 H   0  0  0  0  0  0  0  0  0  0  0  0
    3.8984    2.0067   18.7722 H   0  0  0  0  0  0  0  0  0  0  0  0
    4.8126    0.8378   20.8200 H   0  0  0  0  0  0  0  0  0  0  0  0
    8.4054   -1.1805   20.7513 N   0  0  0  0  0  0  0  0  0  0  0  0
    8.6228   -1.6186   21.9751 C   0  0  0  0  0  0  0  0  0  0  0  0
    9.7532   -2.4893   22.4794 C   0  0  0  0  0  0  0  0  0  0  0  0
    9.3323   -3.7245   23.2949 C   0  0  0  0  0  0  0  0  0  0  0  0
    9.8773   -3.9754   24.5644 C   0  0  0  0  0  0  0  0  0  0  0  0
    9.4775   -4.9474   25.3917 N   0  0  0  0  0  0  0  0  0  0  0  0
    8.4902   -5.7454   24.9666 C   0  0  0  0  0  0  0  0  0  0  0  0
    7.9037   -5.6205   23.7109 C   0  0  0  0  0  0  0  0  0  0  0  0
    8.3575   -4.6267   22.8270 C   0  0  0  0  0  0  0  0  0  0  0  0
    7.8010   -4.6025   21.4282 C   0  0  0  0  0  0  0  0  0  0  0  0
    7.7432   -5.6181   21.0226 H   0  0  0  0  0  0  0  0  0  0  0  0
    6.7899   -4.1834   21.3921 H   0  0  0  0  0  0  0  0  0  0  0  0
    8.4094   -3.9936   20.7619 H   0  0  0  0  0  0  0  0  0  0  0  0
    7.1407   -6.3238   23.3948 H   0  0  0  0  0  0  0  0  0  0  0  0
    8.1862   -6.5424   25.6460 H   0  0  0  0  0  0  0  0  0  0  0  0
   10.7028   -3.3583   24.9239 H   0  0  0  0  0  0  0  0  0  0  0  0
   10.4196   -1.8646   23.0898 H   0  0  0  0  0  0  0  0  0  0  0  0
   10.3237   -2.7673   21.5887 H   0  0  0  0  0  0  0  0  0  0  0  0
    8.3417   -1.0201   25.1128 C   0  0  0  0  0  0  0  0  0  0  0  0
    9.0805   -0.2609   24.8444 H   0  0  0  0  0  0  0  0  0  0  0  0
    5.6588   -2.7167   23.8761 H   0  0  0  0  0  0  0  0  0  0  0  0
    7.3386   -3.0365   27.6430 H   0  0  0  0  0  0  0  0  0  0  0  0
    8.9291   -0.8218   28.3427 H   0  0  0  0  0  0  0  0  0  0  0  0
   10.0206   -0.3697   27.0417 H   0  0  0  0  0  0  0  0  0  0  0  0
   10.0160   -2.0250   27.6476 H   0  0  0  0  0  0  0  0  0  0  0  0
  1  2  1  0
  2  3  2  0
  3  4  1  0
  4  5  2  0
  5  6  1  0
  6  7  1  0
  7  8  1  0
  8  9  2  0
  9 10  1  0
 10 11  2  0
 11 12  1  0
 12 13  2  0
 13 14  1  0
 14 15  2  0
 15 16  1  0
 13 17  1  0
 12 18  1  0
 11 19  1  0
  9 20  1  0
 20 21  2  0
 21 22  1  0
 22 23  1  0
 23 24  2  0
 24 25  1  0
 25 26  2  0
 26 27  1  0
 27 28  2  0
 28 29  1  0
 29 30  1  0
 29 31  1  0
 29 32  1  0
 27 33  1  0
 26 34  1  0
 24 35  1  0
 22 36  1  0
 22 37  1  0
  6 38  2  0
 38 39  1  0
  5 40  1  0
  3 41  1  0
  1 42  1  0
  1 43  1  0
  1 44  1  0
 38  2  1  0
 21  7  1  0
 28 23  1  0
 15 10  1  0
M  END
>  <cnnaffinity>  (1) 
-6.01243

>  <filename>  (1) 
Cc1cncc(-n2nc(-c3cccnc3)nc2Cc2cnccc2C)c1

$$$$
