
     RDKit          3D

 43 46  0  0  0  0  0  0  0  0999 V2000
   14.1213   -0.0613   23.0854 C   0  0  0  0  0  0  0  0  0  0  0  0
   12.7823    0.6017   22.8630 C   0  0  0  0  0  0  0  0  0  0  0  0
   12.3642    1.7181   23.6042 C   0  0  0  0  0  0  0  0  0  0  0  0
   11.2142    2.3757   23.4113 N   0  0  0  0  0  0  0  0  0  0  0  0
   10.3961    1.9153   22.4573 C   0  0  0  0  0  0  0  0  0  0  0  0
   10.6605    0.7771   21.6802 C   0  0  0  0  0  0  0  0  0  0  0  0
    9.6470    0.2033   20.7033 C   0  0  0  0  0  0  0  0  0  0  0  0
    8.5923   -0.6542   21.3289 C   0  0  0  0  0  0  0  0  0  0  0  0
    8.7861   -1.5064   22.3088 N   0  0  0  0  0  0  0  0  0  0  0  0
    7.5551   -2.0505   22.5001 C   0  0  0  0  0  0  0  0  0  0  0  0
    7.3621   -2.9718   23.6808 C   0  0  0  0  0  0  0  0  0  0  0  0
    6.8848   -2.2181   24.9567 C   0  0  0  0  0  0  0  0  0  0  0  0
    5.9859   -3.2462   25.6519 C   0  0  0  0  0  0  0  0  0  0  0  0
    5.4404   -4.0608   24.4791 C   0  0  0  0  0  0  0  0  0  0  0  0
    6.4434   -4.0322   23.4696 O   0  0  0  0  0  0  0  0  0  0  0  0
    5.2587   -5.1136   24.7236 H   0  0  0  0  0  0  0  0  0  0  0  0
    4.5079   -3.6320   24.0805 H   0  0  0  0  0  0  0  0  0  0  0  0
    5.1834   -2.7888   26.2388 H   0  0  0  0  0  0  0  0  0  0  0  0
    6.5635   -3.8853   26.3279 H   0  0  0  0  0  0  0  0  0  0  0  0
    7.7310   -1.8831   25.5674 H   0  0  0  0  0  0  0  0  0  0  0  0
    6.3101   -1.3256   24.6751 H   0  0  0  0  0  0  0  0  0  0  0  0
    8.3633   -3.4008   23.8220 H   0  0  0  0  0  0  0  0  0  0  0  0
    6.6112   -1.5855   21.7050 N   0  0  0  0  0  0  0  0  0  0  0  0
    7.2861   -0.7051   20.9226 N   0  0  0  0  0  0  0  0  0  0  0  0
    6.6287   -0.0095   19.8753 C   0  0  0  0  0  0  0  0  0  0  0  0
    5.4195    0.6417   20.1331 C   0  0  0  0  0  0  0  0  0  0  0  0
    4.7965    1.3200   19.0855 C   0  0  0  0  0  0  0  0  0  0  0  0
    5.3958    1.3054   17.8196 C   0  0  0  0  0  0  0  0  0  0  0  0
    6.5395    0.6566   17.5543 N   0  0  0  0  0  0  0  0  0  0  0  0
    7.1449    0.0220   18.5639 C   0  0  0  0  0  0  0  0  0  0  0  0
    8.0835   -0.4804   18.3215 H   0  0  0  0  0  0  0  0  0  0  0  0
    4.9385    1.8369   16.9905 H   0  0  0  0  0  0  0  0  0  0  0  0
    3.8675    1.8572   19.2428 H   0  0  0  0  0  0  0  0  0  0  0  0
    5.0007    0.5929   21.1371 H   0  0  0  0  0  0  0  0  0  0  0  0
    9.1536    1.0027   20.1452 H   0  0  0  0  0  0  0  0  0  0  0  0
   10.1464   -0.4519   19.9801 H   0  0  0  0  0  0  0  0  0  0  0  0
   11.8751    0.1211   21.9099 C   0  0  0  0  0  0  0  0  0  0  0  0
   12.1156   -0.7833   21.3520 H   0  0  0  0  0  0  0  0  0  0  0  0
    9.4747    2.4763   22.3119 H   0  0  0  0  0  0  0  0  0  0  0  0
   12.9768    2.0767   24.4246 H   0  0  0  0  0  0  0  0  0  0  0  0
   14.0712   -1.1342   22.8776 H   0  0  0  0  0  0  0  0  0  0  0  0
   14.9051    0.3578   22.4441 H   0  0  0  0  0  0  0  0  0  0  0  0
   14.4563    0.0537   24.1206 H   0  0  0  0  0  0  0  0  0  0  0  0
  1  2  1  0
  2  3  2  0
  3  4  1  0
  4  5  2  0
  5  6  1  0
  6  7  1  0
  7  8  1  0
  8  9  2  0
  9 10  1  0
 10 11  1  0
 11 12  1  0
 12 13  1  0
 13 14  1  0
 14 15  1  0
 14 16  1  0
 14 17  1  0
 13 18  1  0
 13 19  1  0
 12 20  1  0
 12 21  1  0
 11 22  1  0
 10 23  2  0
 23 24  1  0
 24 25  1  0
 25 26  2  0
 26 27  1  0
 27 28  2  0
 28 29  1  0
 29 30  2  0
 30 31  1  0
 28 32  1  0
 27 33  1  0
 26 34  1  0
  7 35  1  0
  7 36  1  0
  6 37  2  0
 37 38  1  0
  5 39  1  0
  3 40  1  0
  1 41  1  0
  1 42  1  0
  1 43  1  0
 37  2  1  0
 24  8  1  0
 30 25  1  0
 15 11  1  0
M  END
>  <cnnaffinity>  (1) 
-6.26649

>  <filename>  (1) 
Cc1cncc(Cc2nc(C3CCCO3)nn2-c2cccnc2)c1

$$$$
