
     RDKit          3D

 46 49  0  0  0  0  0  0  0  0999 V2000
    9.6291    1.4383   25.3885 C   0  0  0  0  0  0  0  0  0  0  0  0
    8.1879    1.0392   25.3039 C   0  0  0  0  0  0  0  0  0  0  0  0
    7.2396    1.3038   24.3284 C   0  0  0  0  0  0  0  0  0  0  0  0
    7.5632    1.9560   22.9914 C   0  0  0  0  0  0  0  0  0  0  0  0
    8.5489    1.1102   22.2284 C   0  0  0  0  0  0  0  0  0  0  0  0
    9.8705    1.1928   22.3179 N   0  0  0  0  0  0  0  0  0  0  0  0
   10.2993   -0.0034   21.8464 C   0  0  0  0  0  0  0  0  0  0  0  0
   11.6986   -0.4642   21.7756 C   0  0  0  0  0  0  0  0  0  0  0  0
   11.9293   -1.6629   21.0771 C   0  0  0  0  0  0  0  0  0  0  0  0
   13.2039   -2.0195   20.6623 C   0  0  0  0  0  0  0  0  0  0  0  0
   14.2793   -1.2429   21.0547 C   0  0  0  0  0  0  0  0  0  0  0  0
   14.1108   -0.1490   21.9095 C   0  0  0  0  0  0  0  0  0  0  0  0
   12.8146    0.2369   22.2722 C   0  0  0  0  0  0  0  0  0  0  0  0
   12.6723    1.6245   23.3144 Cl  0  0  0  0  0  0  0  0  0  0  0  0
   14.9434    0.4605   22.2402 H   0  0  0  0  0  0  0  0  0  0  0  0
   15.2182   -1.5057   20.5994 H   0  0  0  0  0  0  0  0  0  0  0  0
   13.3797   -2.8609   19.9973 H   0  0  0  0  0  0  0  0  0  0  0  0
   11.0695   -2.2747   20.8333 H   0  0  0  0  0  0  0  0  0  0  0  0
    9.3172   -0.7819   21.4178 N   0  0  0  0  0  0  0  0  0  0  0  0
    8.2041   -0.0669   21.6699 N   0  0  0  0  0  0  0  0  0  0  0  0
    6.9051   -0.5788   21.2477 C   0  0  0  0  0  0  0  0  0  0  0  0
    6.3447    0.1400   20.0373 C   0  0  0  0  0  0  0  0  0  0  0  0
    5.1212    0.8138   20.0525 C   0  0  0  0  0  0  0  0  0  0  0  0
    4.6870    1.4506   18.8862 C   0  0  0  0  0  0  0  0  0  0  0  0
    5.4956    1.3904   17.7487 C   0  0  0  0  0  0  0  0  0  0  0  0
    6.6781    0.7572   17.7146 N   0  0  0  0  0  0  0  0  0  0  0  0
    7.0864    0.1649   18.8425 C   0  0  0  0  0  0  0  0  0  0  0  0
    8.0613   -0.3198   18.8016 H   0  0  0  0  0  0  0  0  0  0  0  0
    5.1855    1.8748   16.8245 H   0  0  0  0  0  0  0  0  0  0  0  0
    3.7535    2.0012   18.8531 H   0  0  0  0  0  0  0  0  0  0  0  0
    4.5227    0.8545   20.9651 H   0  0  0  0  0  0  0  0  0  0  0  0
    7.0808   -1.6385   21.0335 H   0  0  0  0  0  0  0  0  0  0  0  0
    6.2152   -0.5266   22.0948 H   0  0  0  0  0  0  0  0  0  0  0  0
    6.6539    2.1210   22.4041 H   0  0  0  0  0  0  0  0  0  0  0  0
    8.0345    2.9358   23.1348 H   0  0  0  0  0  0  0  0  0  0  0  0
    6.0773    0.6582   24.7933 C   0  0  0  0  0  0  0  0  0  0  0  0
    6.2836    0.0239   25.9424 N   0  0  0  0  0  0  0  0  0  0  0  0
    7.5766    0.2484   26.2264 N   0  0  0  0  0  0  0  0  0  0  0  0
    8.1753   -0.3552   27.4007 C   0  0  0  0  0  0  0  0  0  0  0  0
    7.4859   -1.1103   27.7750 H   0  0  0  0  0  0  0  0  0  0  0  0
    9.1231   -0.8313   27.1328 H   0  0  0  0  0  0  0  0  0  0  0  0
    8.3644    0.3939   28.1756 H   0  0  0  0  0  0  0  0  0  0  0  0
    5.0920    0.6173   24.3371 H   0  0  0  0  0  0  0  0  0  0  0  0
   10.2739    0.6244   25.0384 H   0  0  0  0  0  0  0  0  0  0  0  0
    9.9392    1.7022   26.4018 H   0  0  0  0  0  0  0  0  0  0  0  0
    9.8277    2.2903   24.7344 H   0  0  0  0  0  0  0  0  0  0  0  0
  1  2  1  0
  2  3  2  0
  3  4  1  0
  4  5  1  0
  5  6  2  0
  6  7  1  0
  7  8  1  0
  8  9  2  0
  9 10  1  0
 10 11  2  0
 11 12  1  0
 12 13  2  0
 13 14  1  0
 12 15  1  0
 11 16  1  0
 10 17  1  0
  9 18  1  0
  7 19  2  0
 19 20  1  0
 20 21  1  0
 21 22  1  0
 22 23  2  0
 23 24  1  0
 24 25  2  0
 25 26  1  0
 26 27  2  0
 27 28  1  0
 25 29  1  0
 24 30  1  0
 23 31  1  0
 21 32  1  0
 21 33  1  0
  4 34  1  0
  4 35  1  0
  3 36  1  0
 36 37  2  0
 37 38  1  0
 38 39  1  0
 39 40  1  0
 39 41  1  0
 39 42  1  0
 36 43  1  0
  1 44  1  0
  1 45  1  0
  1 46  1  0
 38  2  1  0
 20  5  1  0
 27 22  1  0
 13  8  1  0
M  END
>  <cnnaffinity>  (1) 
-6.73951

>  <filename>  (1) 
Cc1c(Cc2nc(-c3ccccc3Cl)nn2Cc2cccnc2)cnn1C

$$$$
