
     RDKit          3D

 45 48  0  0  0  0  0  0  0  0999 V2000
    4.8146   -0.6948   25.9710 C   0  0  0  0  0  0  0  0  0  0  0  0
    6.1167    0.0009   25.6560 C   0  0  0  0  0  0  0  0  0  0  0  0
    7.1936    0.0170   26.5574 C   0  0  0  0  0  0  0  0  0  0  0  0
    8.3700    0.6078   26.3183 N   0  0  0  0  0  0  0  0  0  0  0  0
    8.5332    1.2045   25.1354 C   0  0  0  0  0  0  0  0  0  0  0  0
    7.5436    1.2486   24.1330 C   0  0  0  0  0  0  0  0  0  0  0  0
    7.8682    1.7843   22.7360 C   0  0  0  0  0  0  0  0  0  0  0  0
    8.8165    0.8530   22.0335 C   0  0  0  0  0  0  0  0  0  0  0  0
   10.1160    0.9049   22.2121 N   0  0  0  0  0  0  0  0  0  0  0  0
   10.5444   -0.3200   21.7961 C   0  0  0  0  0  0  0  0  0  0  0  0
   11.9517   -0.6734   21.8577 C   0  0  0  0  0  0  0  0  0  0  0  0
   12.7381   -1.5413   21.1301 C   0  0  0  0  0  0  0  0  0  0  0  0
   14.0545   -1.1345   21.3128 C   0  0  0  0  0  0  0  0  0  0  0  0
   14.0165    0.0107   22.1571 C   0  0  0  0  0  0  0  0  0  0  0  0
   14.9353    0.9563   22.3853 C   0  0  0  0  0  0  0  0  0  0  0  0
   14.6617    1.8647   22.9015 H   0  0  0  0  0  0  0  0  0  0  0  0
   15.8368    0.9581   21.7439 H   0  0  0  0  0  0  0  0  0  0  0  0
   16.4028    0.5169   20.0570 H   0  0  0  0  0  0  0  0  0  0  0  0
   12.7294    0.1764   22.5706 O   0  0  0  0  0  0  0  0  0  0  0  0
   14.9592   -1.3755   20.7671 H   0  0  0  0  0  0  0  0  0  0  0  0
   12.3697   -2.2972   20.4588 H   0  0  0  0  0  0  0  0  0  0  0  0
    9.5863   -1.0874   21.3052 N   0  0  0  0  0  0  0  0  0  0  0  0
    8.4846   -0.3210   21.4514 N   0  0  0  0  0  0  0  0  0  0  0  0
    7.1930   -0.8078   21.0051 C   0  0  0  0  0  0  0  0  0  0  0  0
    6.5663    0.0107   19.8942 C   0  0  0  0  0  0  0  0  0  0  0  0
    5.3507    0.6802   20.0627 C   0  0  0  0  0  0  0  0  0  0  0  0
    4.7874    1.3544   18.9777 C   0  0  0  0  0  0  0  0  0  0  0  0
    5.4715    1.3453   17.7595 C   0  0  0  0  0  0  0  0  0  0  0  0
    6.6512    0.7307   17.5803 N   0  0  0  0  0  0  0  0  0  0  0  0
    7.1859    0.1004   18.6337 C   0  0  0  0  0  0  0  0  0  0  0  0
    8.1559   -0.3646   18.4591 H   0  0  0  0  0  0  0  0  0  0  0  0
    5.0594    1.8594   16.8929 H   0  0  0  0  0  0  0  0  0  0  0  0
    3.8506    1.8917   19.0670 H   0  0  0  0  0  0  0  0  0  0  0  0
    4.8521    0.6793   21.0344 H   0  0  0  0  0  0  0  0  0  0  0  0
    7.3810   -1.8332   20.6770 H   0  0  0  0  0  0  0  0  0  0  0  0
    6.5349   -0.8599   21.8808 H   0  0  0  0  0  0  0  0  0  0  0  0
    8.3662    2.7592   22.7924 H   0  0  0  0  0  0  0  0  0  0  0  0
    6.9667    1.9210   22.1339 H   0  0  0  0  0  0  0  0  0  0  0  0
    6.3188    0.6478   24.4267 C   0  0  0  0  0  0  0  0  0  0  0  0
    5.5098    0.6761   23.6941 H   0  0  0  0  0  0  0  0  0  0  0  0
    9.5175    1.6364   24.9444 H   0  0  0  0  0  0  0  0  0  0  0  0
    7.1044   -0.4721   27.5275 H   0  0  0  0  0  0  0  0  0  0  0  0
    4.8124   -1.7299   25.6086 H   0  0  0  0  0  0  0  0  0  0  0  0
    4.6196   -0.7241   27.0479 H   0  0  0  0  0  0  0  0  0  0  0  0
    3.9742   -0.1811   25.4941 H   0  0  0  0  0  0  0  0  0  0  0  0
  1  2  1  0
  2  3  2  0
  3  4  1  0
  4  5  2  0
  5  6  1  0
  6  7  1  0
  7  8  1  0
  8  9  2  0
  9 10  1  0
 10 11  1  0
 11 12  2  0
 12 13  1  0
 13 14  2  0
 14 15  1  0
 15 16  1  0
 15 17  1  0
 15 18  1  0
 14 19  1  0
 13 20  1  0
 12 21  1  0
 10 22  2  0
 22 23  1  0
 23 24  1  0
 24 25  1  0
 25 26  2  0
 26 27  1  0
 27 28  2  0
 28 29  1  0
 29 30  2  0
 30 31  1  0
 28 32  1  0
 27 33  1  0
 26 34  1  0
 24 35  1  0
 24 36  1  0
  7 37  1  0
  7 38  1  0
  6 39  2  0
 39 40  1  0
  5 41  1  0
  3 42  1  0
  1 43  1  0
  1 44  1  0
  1 45  1  0
 39  2  1  0
 23  8  1  0
 30 25  1  0
 19 11  1  0
M  END
>  <cnnaffinity>  (1) 
-6.43241

>  <filename>  (1) 
Cc1cncc(Cc2nc(-c3ccc(C)o3)nn2Cc2cccnc2)c1

$$$$
