
     RDKit          3D

 46 49  0  0  0  0  0  0  0  0999 V2000
    9.3384   -4.7689   26.4124 C   0  0  0  0  0  0  0  0  0  0  0  0
    8.2340   -4.3862   25.4527 C   0  0  0  0  0  0  0  0  0  0  0  0
    6.9619   -4.9670   25.5641 C   0  0  0  0  0  0  0  0  0  0  0  0
    5.9274   -4.5978   24.6973 C   0  0  0  0  0  0  0  0  0  0  0  0
    6.1483   -3.6440   23.7063 C   0  0  0  0  0  0  0  0  0  0  0  0
    7.4189   -3.0479   23.5724 C   0  0  0  0  0  0  0  0  0  0  0  0
    7.6555   -2.0294   22.5248 C   0  0  0  0  0  0  0  0  0  0  0  0
    6.7093   -1.6076   21.6954 N   0  0  0  0  0  0  0  0  0  0  0  0
    7.3456   -0.6899   20.9333 N   0  0  0  0  0  0  0  0  0  0  0  0
    6.6516   -0.0003   19.8998 C   0  0  0  0  0  0  0  0  0  0  0  0
    5.4397    0.6421   20.1653 C   0  0  0  0  0  0  0  0  0  0  0  0
    4.8125    1.3111   19.1091 C   0  0  0  0  0  0  0  0  0  0  0  0
    5.3989    1.2960   17.8378 C   0  0  0  0  0  0  0  0  0  0  0  0
    6.5556    0.6695   17.5748 N   0  0  0  0  0  0  0  0  0  0  0  0
    7.1641    0.0465   18.5913 C   0  0  0  0  0  0  0  0  0  0  0  0
    8.1119   -0.4373   18.3639 H   0  0  0  0  0  0  0  0  0  0  0  0
    4.9210    1.7883   16.9942 H   0  0  0  0  0  0  0  0  0  0  0  0
    3.8798    1.8397   19.2599 H   0  0  0  0  0  0  0  0  0  0  0  0
    5.0125    0.6075   21.1711 H   0  0  0  0  0  0  0  0  0  0  0  0
    8.6235   -0.5583   21.3882 C   0  0  0  0  0  0  0  0  0  0  0  0
    9.6047    0.4336   20.8840 C   0  0  0  0  0  0  0  0  0  0  0  0
    9.9959    1.3599   21.9165 N   0  0  0  0  0  0  0  0  0  0  0  0
   11.1446    1.1529   22.5851 N   0  0  0  0  0  0  0  0  0  0  0  0
   11.1175    2.0335   23.5649 C   0  0  0  0  0  0  0  0  0  0  0  0
   12.1596    2.1731   24.5892 C   0  0  0  0  0  0  0  0  0  0  0  0
   13.1524    1.8812   24.2476 H   0  0  0  0  0  0  0  0  0  0  0  0
   11.8822    1.5739   25.4536 H   0  0  0  0  0  0  0  0  0  0  0  0
   12.1123    3.2256   24.8621 H   0  0  0  0  0  0  0  0  0  0  0  0
    9.9478    2.8143   23.5433 C   0  0  0  0  0  0  0  0  0  0  0  0
    9.2333    2.3390   22.4774 C   0  0  0  0  0  0  0  0  0  0  0  0
    7.8661    2.7248   22.0387 C   0  0  0  0  0  0  0  0  0  0  0  0
    7.7995    2.7843   20.9555 H   0  0  0  0  0  0  0  0  0  0  0  0
    7.6112    3.6919   22.4740 H   0  0  0  0  0  0  0  0  0  0  0  0
    7.1251    1.9932   22.3733 H   0  0  0  0  0  0  0  0  0  0  0  0
    9.6686    3.6176   24.2132 H   0  0  0  0  0  0  0  0  0  0  0  0
   10.5002   -0.1043   20.5875 H   0  0  0  0  0  0  0  0  0  0  0  0
    9.2043    1.0080   20.0542 H   0  0  0  0  0  0  0  0  0  0  0  0
    8.8585   -1.4184   22.3472 N   0  0  0  0  0  0  0  0  0  0  0  0
    8.4502   -3.4254   24.4558 C   0  0  0  0  0  0  0  0  0  0  0  0
    9.4324   -2.9591   24.3693 H   0  0  0  0  0  0  0  0  0  0  0  0
    5.3468   -3.3447   23.0336 H   0  0  0  0  0  0  0  0  0  0  0  0
    4.9464   -5.0516   24.8000 H   0  0  0  0  0  0  0  0  0  0  0  0
    6.7874   -5.7085   26.3413 H   0  0  0  0  0  0  0  0  0  0  0  0
    9.3397   -4.1132   27.2900 H   0  0  0  0  0  0  0  0  0  0  0  0
    9.2202   -5.7939   26.7767 H   0  0  0  0  0  0  0  0  0  0  0  0
   10.3264   -4.6935   25.9475 H   0  0  0  0  0  0  0  0  0  0  0  0
  1  2  1  0
  2  3  2  0
  3  4  1  0
  4  5  2  0
  5  6  1  0
  6  7  1  0
  7  8  2  0
  8  9  1  0
  9 10  1  0
 10 11  2  0
 11 12  1  0
 12 13  2  0
 13 14  1  0
 14 15  2  0
 15 16  1  0
 13 17  1  0
 12 18  1  0
 11 19  1  0
  9 20  1  0
 20 21  1  0
 21 22  1  0
 22 23  1  0
 23 24  2  0
 24 25  1  0
 25 26  1  0
 25 27  1  0
 25 28  1  0
 24 29  1  0
 29 30  2  0
 30 31  1  0
 31 32  1  0
 31 33  1  0
 31 34  1  0
 29 35  1  0
 21 36  1  0
 21 37  1  0
 20 38  2  0
  6 39  2  0
 39 40  1  0
  5 41  1  0
  4 42  1  0
  3 43  1  0
  1 44  1  0
  1 45  1  0
  1 46  1  0
 39  2  1  0
 38  7  1  0
 15 10  1  0
 30 22  1  0
M  END
>  <cnnaffinity>  (1) 
-6.08053

>  <filename>  (1) 
Cc1cccc(-c2nc(Cn3nc(C)cc3C)n(-c3cccnc3)n2)c1

$$$$
