
     RDKit          3D

 46 49  0  0  0  0  0  0  0  0999 V2000
    3.1938    2.7128   26.1738 C   0  0  0  0  0  0  0  0  0  0  0  0
    4.6350    2.5426   25.8323 C   0  0  0  0  0  0  0  0  0  0  0  0
    5.5664    3.3517   26.3214 N   0  0  0  0  0  0  0  0  0  0  0  0
    6.7145    2.9134   25.7770 N   0  0  0  0  0  0  0  0  0  0  0  0
    6.5489    1.8460   24.9631 C   0  0  0  0  0  0  0  0  0  0  0  0
    7.6437    1.2288   24.1852 C   0  0  0  0  0  0  0  0  0  0  0  0
    7.8338    1.8146   22.7605 C   0  0  0  0  0  0  0  0  0  0  0  0
    8.8214    0.9545   22.0605 C   0  0  0  0  0  0  0  0  0  0  0  0
   10.1207    1.0111   22.3003 N   0  0  0  0  0  0  0  0  0  0  0  0
   10.5656   -0.1792   21.8474 C   0  0  0  0  0  0  0  0  0  0  0  0
   11.9734   -0.6022   21.8325 C   0  0  0  0  0  0  0  0  0  0  0  0
   13.0685    0.1796   22.2517 C   0  0  0  0  0  0  0  0  0  0  0  0
   14.3313   -0.0914   21.7263 C   0  0  0  0  0  0  0  0  0  0  0  0
   14.4466   -1.1368   20.7938 C   0  0  0  0  0  0  0  0  0  0  0  0
   15.4420   -1.1630   19.9037 F   0  0  0  0  0  0  0  0  0  0  0  0
   13.4632   -2.0897   20.6160 C   0  0  0  0  0  0  0  0  0  0  0  0
   12.2200   -1.8022   21.1452 C   0  0  0  0  0  0  0  0  0  0  0  0
   11.3587   -2.4218   20.9728 H   0  0  0  0  0  0  0  0  0  0  0  0
   13.7037   -2.9718   20.0343 H   0  0  0  0  0  0  0  0  0  0  0  0
   15.1568    0.5931   21.8895 H   0  0  0  0  0  0  0  0  0  0  0  0
   12.9557    1.0237   22.9275 H   0  0  0  0  0  0  0  0  0  0  0  0
    9.6192   -0.9432   21.3132 N   0  0  0  0  0  0  0  0  0  0  0  0
    8.5046   -0.2034   21.4380 N   0  0  0  0  0  0  0  0  0  0  0  0
    7.2199   -0.7475   20.9965 C   0  0  0  0  0  0  0  0  0  0  0  0
    6.5390    0.0309   19.8903 C   0  0  0  0  0  0  0  0  0  0  0  0
    5.3219    0.6958   20.0782 C   0  0  0  0  0  0  0  0  0  0  0  0
    4.7451    1.3688   18.9986 C   0  0  0  0  0  0  0  0  0  0  0  0
    5.4106    1.3541   17.7699 C   0  0  0  0  0  0  0  0  0  0  0  0
    6.5764    0.7202   17.5672 N   0  0  0  0  0  0  0  0  0  0  0  0
    7.1196    0.0834   18.6112 C   0  0  0  0  0  0  0  0  0  0  0  0
    8.0621   -0.4292   18.4175 H   0  0  0  0  0  0  0  0  0  0  0  0
    4.9888    1.8680   16.9087 H   0  0  0  0  0  0  0  0  0  0  0  0
    3.8089    1.9059   19.0992 H   0  0  0  0  0  0  0  0  0  0  0  0
    4.8337    0.6870   21.0566 H   0  0  0  0  0  0  0  0  0  0  0  0
    6.5564   -0.8325   21.8662 H   0  0  0  0  0  0  0  0  0  0  0  0
    7.4423   -1.7667   20.6679 H   0  0  0  0  0  0  0  0  0  0  0  0
    8.2385    2.8288   22.8109 H   0  0  0  0  0  0  0  0  0  0  0  0
    6.8923    1.8513   22.2025 H   0  0  0  0  0  0  0  0  0  0  0  0
    7.4261    0.1563   24.0994 H   0  0  0  0  0  0  0  0  0  0  0  0
    8.6003    1.3034   24.7189 H   0  0  0  0  0  0  0  0  0  0  0  0
    5.2008    1.5701   24.9836 C   0  0  0  0  0  0  0  0  0  0  0  0
    4.6888    0.7721   24.4635 H   0  0  0  0  0  0  0  0  0  0  0  0
    7.5848    3.3623   26.0204 H   0  0  0  0  0  0  0  0  0  0  0  0
    2.8955    2.0133   26.9607 H   0  0  0  0  0  0  0  0  0  0  0  0
    3.0019    3.7296   26.5212 H   0  0  0  0  0  0  0  0  0  0  0  0
    2.5713    2.5144   25.2974 H   0  0  0  0  0  0  0  0  0  0  0  0
  1  2  1  0
  2  3  2  0
  3  4  1  0
  4  5  1  0
  5  6  1  0
  6  7  1  0
  7  8  1  0
  8  9  2  0
  9 10  1  0
 10 11  1  0
 11 12  2  0
 12 13  1  0
 13 14  2  0
 14 15  1  0
 14 16  1  0
 16 17  2  0
 17 18  1  0
 16 19  1  0
 13 20  1  0
 12 21  1  0
 10 22  2  0
 22 23  1  0
 23 24  1  0
 24 25  1  0
 25 26  2  0
 26 27  1  0
 27 28  2  0
 28 29  1  0
 29 30  2  0
 30 31  1  0
 28 32  1  0
 27 33  1  0
 26 34  1  0
 24 35  1  0
 24 36  1  0
  7 37  1  0
  7 38  1  0
  6 39  1  0
  6 40  1  0
  5 41  2  0
 41 42  1  0
  4 43  1  0
  1 44  1  0
  1 45  1  0
  1 46  1  0
 41  2  1  0
 23  8  1  0
 30 25  1  0
 17 11  1  0
M  END
>  <cnnaffinity>  (1) 
-6.54499

>  <filename>  (1) 
Cc1cc(CCc2nc(-c3ccc(F)cc3)nn2Cc2cccnc2)[nH]n1

$$$$
