
     RDKit          3D

 43 46  0  0  0  0  0  0  0  0999 V2000
   12.2811   -1.3856   21.1877 C   0  0  0  0  0  0  0  0  0  0  0  0
   11.8896   -0.1206   21.8782 C   0  0  0  0  0  0  0  0  0  0  0  0
   12.5177    0.5487   22.8993 C   0  0  0  0  0  0  0  0  0  0  0  0
   11.6824    1.6510   23.1707 C   0  0  0  0  0  0  0  0  0  0  0  0
   10.6190    1.6641   22.3799 N   0  0  0  0  0  0  0  0  0  0  0  0
   10.7626    0.5883   21.5817 N   0  0  0  0  0  0  0  0  0  0  0  0
    9.6734    0.2235   20.6976 C   0  0  0  0  0  0  0  0  0  0  0  0
    8.6411   -0.6096   21.3632 C   0  0  0  0  0  0  0  0  0  0  0  0
    8.8524   -1.4752   22.3245 N   0  0  0  0  0  0  0  0  0  0  0  0
    7.6134   -1.9807   22.5638 C   0  0  0  0  0  0  0  0  0  0  0  0
    7.3872   -2.9433   23.6812 C   0  0  0  0  0  0  0  0  0  0  0  0
    8.2410   -4.2240   23.5718 C   0  0  0  0  0  0  0  0  0  0  0  0
    8.3450   -4.7743   25.0052 C   0  0  0  0  0  0  0  0  0  0  0  0
    8.0260   -3.5971   25.9619 C   0  0  0  0  0  0  0  0  0  0  0  0
    7.7317   -2.3715   25.0769 C   0  0  0  0  0  0  0  0  0  0  0  0
    8.6139   -1.7224   25.0055 H   0  0  0  0  0  0  0  0  0  0  0  0
    6.9172   -1.7537   25.4724 H   0  0  0  0  0  0  0  0  0  0  0  0
    7.1658   -3.8435   26.5947 H   0  0  0  0  0  0  0  0  0  0  0  0
    8.8532   -3.3949   26.6499 H   0  0  0  0  0  0  0  0  0  0  0  0
    9.3385   -5.1940   25.1930 H   0  0  0  0  0  0  0  0  0  0  0  0
    7.6385   -5.5967   25.1643 H   0  0  0  0  0  0  0  0  0  0  0  0
    9.2352   -3.9749   23.1821 H   0  0  0  0  0  0  0  0  0  0  0  0
    7.7976   -4.9436   22.8749 H   0  0  0  0  0  0  0  0  0  0  0  0
    6.3254   -3.1982   23.6434 H   0  0  0  0  0  0  0  0  0  0  0  0
    6.6731   -1.5330   21.7598 N   0  0  0  0  0  0  0  0  0  0  0  0
    7.3415   -0.6761   20.9431 N   0  0  0  0  0  0  0  0  0  0  0  0
    6.6576    0.0091   19.9043 C   0  0  0  0  0  0  0  0  0  0  0  0
    5.4384    0.6468   20.1657 C   0  0  0  0  0  0  0  0  0  0  0  0
    4.8131    1.3108   19.1089 C   0  0  0  0  0  0  0  0  0  0  0  0
    5.4023    1.2956   17.8371 C   0  0  0  0  0  0  0  0  0  0  0  0
    6.5614    0.6727   17.5777 N   0  0  0  0  0  0  0  0  0  0  0  0
    7.1696    0.0534   18.5945 C   0  0  0  0  0  0  0  0  0  0  0  0
    8.1125   -0.4335   18.3617 H   0  0  0  0  0  0  0  0  0  0  0  0
    4.9230    1.7848   16.9929 H   0  0  0  0  0  0  0  0  0  0  0  0
    3.8807    1.8395   19.2600 H   0  0  0  0  0  0  0  0  0  0  0  0
    5.0155    0.6097   21.1730 H   0  0  0  0  0  0  0  0  0  0  0  0
   10.0506   -0.3786   19.8701 H   0  0  0  0  0  0  0  0  0  0  0  0
    9.2499    1.1430   20.2997 H   0  0  0  0  0  0  0  0  0  0  0  0
   11.8254    2.4261   23.9131 H   0  0  0  0  0  0  0  0  0  0  0  0
   13.4547    0.2683   23.3623 H   0  0  0  0  0  0  0  0  0  0  0  0
   13.1662   -1.7933   21.6790 H   0  0  0  0  0  0  0  0  0  0  0  0
   11.4769   -2.1290   21.2330 H   0  0  0  0  0  0  0  0  0  0  0  0
   12.5423   -1.2259   20.1375 H   0  0  0  0  0  0  0  0  0  0  0  0
  1  2  1  0
  2  3  2  0
  3  4  1  0
  4  5  2  0
  5  6  1  0
  6  7  1  0
  7  8  1  0
  8  9  2  0
  9 10  1  0
 10 11  1  0
 11 12  1  0
 12 13  1  0
 13 14  1  0
 14 15  1  0
 15 16  1  0
 15 17  1  0
 14 18  1  0
 14 19  1  0
 13 20  1  0
 13 21  1  0
 12 22  1  0
 12 23  1  0
 11 24  1  0
 10 25  2  0
 25 26  1  0
 26 27  1  0
 27 28  2  0
 28 29  1  0
 29 30  2  0
 30 31  1  0
 31 32  2  0
 32 33  1  0
 30 34  1  0
 29 35  1  0
 28 36  1  0
  7 37  1  0
  7 38  1  0
  4 39  1  0
  3 40  1  0
  1 41  1  0
  1 42  1  0
  1 43  1  0
  6  2  1  0
 26  8  1  0
 32 27  1  0
 15 11  1  0
M  END
>  <cnnaffinity>  (1) 
-6.39362

>  <filename>  (1) 
Cc1ccnn1Cc1nc(C2CCCC2)nn1-c1cccnc1

$$$$
