
     RDKit          3D

 45 48  0  0  0  0  0  0  0  0999 V2000
    8.6873   -0.2935   27.1665 C   0  0  0  0  0  0  0  0  0  0  0  0
    7.4413    0.0568   26.3775 C   0  0  0  0  0  0  0  0  0  0  0  0
    6.1749   -0.4349   26.7461 C   0  0  0  0  0  0  0  0  0  0  0  0
    5.0562   -0.2046   25.9409 C   0  0  0  0  0  0  0  0  0  0  0  0
    5.1778    0.5370   24.7608 C   0  0  0  0  0  0  0  0  0  0  0  0
    6.4217    1.0301   24.3637 C   0  0  0  0  0  0  0  0  0  0  0  0
    6.6364    1.7304   23.0133 C   0  0  0  0  0  0  0  0  0  0  0  0
    7.7207    1.0574   22.2199 C   0  0  0  0  0  0  0  0  0  0  0  0
    9.0022    1.3554   22.3313 N   0  0  0  0  0  0  0  0  0  0  0  0
    9.6398    0.2442   21.8691 C   0  0  0  0  0  0  0  0  0  0  0  0
   11.1230   -0.0203   21.9774 C   0  0  0  0  0  0  0  0  0  0  0  0
   11.6201   -1.2471   21.4896 C   0  0  0  0  0  0  0  0  0  0  0  0
   12.9787   -1.5263   21.5995 C   0  0  0  0  0  0  0  0  0  0  0  0
   13.7961   -0.5939   22.2358 C   0  0  0  0  0  0  0  0  0  0  0  0
   13.2272    0.5941   22.6985 C   0  0  0  0  0  0  0  0  0  0  0  0
   11.9305    0.8904   22.5674 N   0  0  0  0  0  0  0  0  0  0  0  0
   13.8504    1.3317   23.2013 H   0  0  0  0  0  0  0  0  0  0  0  0
   14.8482   -0.7815   22.3858 H   0  0  0  0  0  0  0  0  0  0  0  0
   13.3915   -2.4448   21.1934 H   0  0  0  0  0  0  0  0  0  0  0  0
   10.9343   -1.9561   21.0458 H   0  0  0  0  0  0  0  0  0  0  0  0
    8.8005   -0.6788   21.3993 N   0  0  0  0  0  0  0  0  0  0  0  0
    7.5798   -0.1406   21.6055 N   0  0  0  0  0  0  0  0  0  0  0  0
    6.4046   -0.7223   20.9490 C   0  0  0  0  0  0  0  0  0  0  0  0
    6.0102    0.0087   19.6731 C   0  0  0  0  0  0  0  0  0  0  0  0
    4.8345    0.7623   19.5718 C   0  0  0  0  0  0  0  0  0  0  0  0
    4.5994    1.5219   18.4243 C   0  0  0  0  0  0  0  0  0  0  0  0
    5.5529    1.5079   17.4050 C   0  0  0  0  0  0  0  0  0  0  0  0
    6.6590    0.7500   17.4533 N   0  0  0  0  0  0  0  0  0  0  0  0
    6.8678    0.0214   18.5578 C   0  0  0  0  0  0  0  0  0  0  0  0
    7.7756   -0.5833   18.5524 H   0  0  0  0  0  0  0  0  0  0  0  0
    5.4160    2.1228   16.5141 H   0  0  0  0  0  0  0  0  0  0  0  0
    3.7193    2.1460   18.3219 H   0  0  0  0  0  0  0  0  0  0  0  0
    4.1055    0.7697   20.3829 H   0  0  0  0  0  0  0  0  0  0  0  0
    5.5713   -0.7087   21.6565 H   0  0  0  0  0  0  0  0  0  0  0  0
    6.6543   -1.7732   20.7673 H   0  0  0  0  0  0  0  0  0  0  0  0
    5.7153    1.7810   22.4220 H   0  0  0  0  0  0  0  0  0  0  0  0
    6.9816    2.7557   23.1751 H   0  0  0  0  0  0  0  0  0  0  0  0
    7.5291    0.8183   25.2054 C   0  0  0  0  0  0  0  0  0  0  0  0
    8.4886    1.2300   24.8970 H   0  0  0  0  0  0  0  0  0  0  0  0
    4.2988    0.7138   24.1466 H   0  0  0  0  0  0  0  0  0  0  0  0
    4.0937   -0.6319   26.2109 H   0  0  0  0  0  0  0  0  0  0  0  0
    6.0603   -0.9995   27.6688 H   0  0  0  0  0  0  0  0  0  0  0  0
    8.5941   -0.0176   28.2238 H   0  0  0  0  0  0  0  0  0  0  0  0
    8.8818   -1.3749   27.1264 H   0  0  0  0  0  0  0  0  0  0  0  0
    9.5695    0.2166   26.7610 H   0  0  0  0  0  0  0  0  0  0  0  0
  1  2  1  0
  2  3  2  0
  3  4  1  0
  4  5  2  0
  5  6  1  0
  6  7  1  0
  7  8  1  0
  8  9  2  0
  9 10  1  0
 10 11  1  0
 11 12  2  0
 12 13  1  0
 13 14  2  0
 14 15  1  0
 15 16  2  0
 15 17  1  0
 14 18  1  0
 13 19  1  0
 12 20  1  0
 10 21  2  0
 21 22  1  0
 22 23  1  0
 23 24  1  0
 24 25  2  0
 25 26  1  0
 26 27  2  0
 27 28  1  0
 28 29  2  0
 29 30  1  0
 27 31  1  0
 26 32  1  0
 25 33  1  0
 23 34  1  0
 23 35  1  0
  7 36  1  0
  7 37  1  0
  6 38  2  0
 38 39  1  0
  5 40  1  0
  4 41  1  0
  3 42  1  0
  1 43  1  0
  1 44  1  0
  1 45  1  0
 38  2  1  0
 22  8  1  0
 29 24  1  0
 16 11  1  0
M  END
>  <cnnaffinity>  (1) 
-5.96838

>  <filename>  (1) 
Cc1cccc(Cc2nc(-c3ccccn3)nn2Cc2cccnc2)c1

$$$$
