
     RDKit          3D

 43 46  0  0  0  0  0  0  0  0999 V2000
   16.0146   -0.3208   19.6615 C   0  0  0  0  0  0  0  0  0  0  0  0
   14.7169   -0.7623   20.5697 C   0  0  0  0  0  0  0  0  0  0  0  0
   14.4298    0.1425   21.6582 C   0  0  0  0  0  0  0  0  0  0  0  0
   13.1451    0.3585   22.1542 C   0  0  0  0  0  0  0  0  0  0  0  0
   12.0984   -0.4578   21.6714 C   0  0  0  0  0  0  0  0  0  0  0  0
   10.6525   -0.1026   21.7790 C   0  0  0  0  0  0  0  0  0  0  0  0
    9.7024   -0.8636   21.2494 N   0  0  0  0  0  0  0  0  0  0  0  0
    8.5649   -0.1820   21.4967 N   0  0  0  0  0  0  0  0  0  0  0  0
    7.2712   -0.7123   21.0676 C   0  0  0  0  0  0  0  0  0  0  0  0
    6.5927    0.0605   19.9504 C   0  0  0  0  0  0  0  0  0  0  0  0
    5.3653    0.7151   20.1186 C   0  0  0  0  0  0  0  0  0  0  0  0
    4.7831    1.3621   19.0239 C   0  0  0  0  0  0  0  0  0  0  0  0
    5.4522    1.3350   17.7973 C   0  0  0  0  0  0  0  0  0  0  0  0
    6.6268    0.7129   17.6136 N   0  0  0  0  0  0  0  0  0  0  0  0
    7.1752    0.1028   18.6716 C   0  0  0  0  0  0  0  0  0  0  0  0
    8.1253   -0.3962   18.4872 H   0  0  0  0  0  0  0  0  0  0  0  0
    5.0248    1.8280   16.9244 H   0  0  0  0  0  0  0  0  0  0  0  0
    3.8379    1.8875   19.1086 H   0  0  0  0  0  0  0  0  0  0  0  0
    4.8617    0.7129   21.0897 H   0  0  0  0  0  0  0  0  0  0  0  0
    6.6074   -0.7577   21.9385 H   0  0  0  0  0  0  0  0  0  0  0  0
    7.4746   -1.7407   20.7551 H   0  0  0  0  0  0  0  0  0  0  0  0
    8.8689    0.9481   22.1635 C   0  0  0  0  0  0  0  0  0  0  0  0
    7.8335    1.7841   22.8501 C   0  0  0  0  0  0  0  0  0  0  0  0
    7.5030    1.1813   24.1371 N   0  0  0  0  0  0  0  0  0  0  0  0
    8.3482    1.0326   25.1792 C   0  0  0  0  0  0  0  0  0  0  0  0
    7.7259    0.1855   26.0607 C   0  0  0  0  0  0  0  0  0  0  0  0
    8.3867   -0.4186   27.5324 Cl  0  0  0  0  0  0  0  0  0  0  0  0
    6.4885   -0.1307   25.4642 C   0  0  0  0  0  0  0  0  0  0  0  0
    6.3805    0.4697   24.2812 N   0  0  0  0  0  0  0  0  0  0  0  0
    5.7004   -0.7669   25.8425 H   0  0  0  0  0  0  0  0  0  0  0  0
    9.3281    1.4931   25.1722 H   0  0  0  0  0  0  0  0  0  0  0  0
    8.2275    2.7908   23.0121 H   0  0  0  0  0  0  0  0  0  0  0  0
    6.9098    1.8383   22.2727 H   0  0  0  0  0  0  0  0  0  0  0  0
   10.1742    1.0407   22.3457 N   0  0  0  0  0  0  0  0  0  0  0  0
   12.4744   -1.6121   20.9617 C   0  0  0  0  0  0  0  0  0  0  0  0
   13.7733   -1.7818   20.4680 C   0  0  0  0  0  0  0  0  0  0  0  0
   14.0860   -2.9588   19.9105 F   0  0  0  0  0  0  0  0  0  0  0  0
   11.7152   -2.3458   20.7624 H   0  0  0  0  0  0  0  0  0  0  0  0
   12.9625    1.2067   22.8116 H   0  0  0  0  0  0  0  0  0  0  0  0
   15.2247    0.8099   21.9853 H   0  0  0  0  0  0  0  0  0  0  0  0
   16.4055    0.5561   20.1558 H   0  0  0  0  0  0  0  0  0  0  0  0
   16.8292   -1.0442   19.6505 H   0  0  0  0  0  0  0  0  0  0  0  0
   15.9379    0.1307   18.6622 H   0  0  0  0  0  0  0  0  0  0  0  0
  1  2  1  0
  2  3  2  0
  3  4  1  0
  4  5  2  0
  5  6  1  0
  6  7  2  0
  7  8  1  0
  8  9  1  0
  9 10  1  0
 10 11  2  0
 11 12  1  0
 12 13  2  0
 13 14  1  0
 14 15  2  0
 15 16  1  0
 13 17  1  0
 12 18  1  0
 11 19  1  0
  9 20  1  0
  9 21  1  0
  8 22  1  0
 22 23  1  0
 23 24  1  0
 24 25  1  0
 25 26  2  0
 26 27  1  0
 26 28  1  0
 28 29  2  0
 28 30  1  0
 25 31  1  0
 23 32  1  0
 23 33  1  0
 22 34  2  0
  5 35  1  0
 35 36  2  0
 36 37  1  0
 35 38  1  0
  4 39  1  0
  3 40  1  0
  1 41  1  0
  1 42  1  0
  1 43  1  0
 36  2  1  0
 34  6  1  0
 15 10  1  0
 29 24  1  0
M  END
>  <cnnaffinity>  (1) 
-6.7821

>  <filename>  (1) 
Cc1ccc(-c2nc(Cn3cc(Cl)cn3)n(Cc3cccnc3)n2)cc1F

$$$$
