
     RDKit          3D

 43 46  0  0  0  0  0  0  0  0999 V2000
    9.4993    1.1534   25.1866 C   0  0  0  0  0  0  0  0  0  0  0  0
    8.0329    0.9414   24.9394 C   0  0  0  0  0  0  0  0  0  0  0  0
    7.1172    0.2796   25.7294 C   0  0  0  0  0  0  0  0  0  0  0  0
    5.9155    0.2928   24.9966 C   0  0  0  0  0  0  0  0  0  0  0  0
    6.0715    0.9122   23.8333 N   0  0  0  0  0  0  0  0  0  0  0  0
    7.3498    1.3254   23.8198 N   0  0  0  0  0  0  0  0  0  0  0  0
    7.8628    1.9342   22.5971 C   0  0  0  0  0  0  0  0  0  0  0  0
    8.8535    1.0297   21.9492 C   0  0  0  0  0  0  0  0  0  0  0  0
   10.1650    1.1422   22.0784 N   0  0  0  0  0  0  0  0  0  0  0  0
   10.6273   -0.0707   21.6692 C   0  0  0  0  0  0  0  0  0  0  0  0
   12.0560   -0.4597   21.6705 C   0  0  0  0  0  0  0  0  0  0  0  0
   13.0768    0.3633   22.1909 C   0  0  0  0  0  0  0  0  0  0  0  0
   14.3760    0.1906   21.7189 C   0  0  0  0  0  0  0  0  0  0  0  0
   14.6364   -0.7565   20.7012 C   0  0  0  0  0  0  0  0  0  0  0  0
   16.0745   -0.2946   19.6307 Cl  0  0  0  0  0  0  0  0  0  0  0  0
   13.7276   -1.7676   20.4386 C   0  0  0  0  0  0  0  0  0  0  0  0
   12.4348   -1.6044   20.9516 C   0  0  0  0  0  0  0  0  0  0  0  0
   11.6399   -2.2940   20.7245 H   0  0  0  0  0  0  0  0  0  0  0  0
   13.9890   -2.6291   19.8449 H   0  0  0  0  0  0  0  0  0  0  0  0
   15.1549    0.8988   21.9790 H   0  0  0  0  0  0  0  0  0  0  0  0
   12.8564    1.1659   22.8908 H   0  0  0  0  0  0  0  0  0  0  0  0
    9.6696   -0.8803   21.2358 N   0  0  0  0  0  0  0  0  0  0  0  0
    8.5391   -0.1711   21.4237 N   0  0  0  0  0  0  0  0  0  0  0  0
    7.2501   -0.7283   21.0295 C   0  0  0  0  0  0  0  0  0  0  0  0
    6.5587    0.0307   19.9165 C   0  0  0  0  0  0  0  0  0  0  0  0
    5.3575    0.7139   20.1317 C   0  0  0  0  0  0  0  0  0  0  0  0
    4.7544    1.3718   19.0532 C   0  0  0  0  0  0  0  0  0  0  0  0
    5.3861    1.3308   17.8066 C   0  0  0  0  0  0  0  0  0  0  0  0
    6.5418    0.6878   17.5831 N   0  0  0  0  0  0  0  0  0  0  0  0
    7.1079    0.0613   18.6236 C   0  0  0  0  0  0  0  0  0  0  0  0
    8.0449   -0.4522   18.4114 H   0  0  0  0  0  0  0  0  0  0  0  0
    4.9423    1.8354   16.9486 H   0  0  0  0  0  0  0  0  0  0  0  0
    3.8234    1.9163   19.1662 H   0  0  0  0  0  0  0  0  0  0  0  0
    4.9186    0.7373   21.1346 H   0  0  0  0  0  0  0  0  0  0  0  0
    7.4646   -1.7570   20.7268 H   0  0  0  0  0  0  0  0  0  0  0  0
    6.6037   -0.7600   21.9122 H   0  0  0  0  0  0  0  0  0  0  0  0
    8.3572    2.8808   22.8309 H   0  0  0  0  0  0  0  0  0  0  0  0
    7.0033    2.1203   21.9515 H   0  0  0  0  0  0  0  0  0  0  0  0
    4.9501   -0.1185   25.2613 H   0  0  0  0  0  0  0  0  0  0  0  0
    7.3037   -0.1476   26.7070 H   0  0  0  0  0  0  0  0  0  0  0  0
    9.8535    2.1113   24.7967 H   0  0  0  0  0  0  0  0  0  0  0  0
   10.0906    0.3738   24.6925 H   0  0  0  0  0  0  0  0  0  0  0  0
    9.7103    1.1007   26.2563 H   0  0  0  0  0  0  0  0  0  0  0  0
  1  2  1  0
  2  3  2  0
  3  4  1  0
  4  5  2  0
  5  6  1  0
  6  7  1  0
  7  8  1  0
  8  9  2  0
  9 10  1  0
 10 11  1  0
 11 12  2  0
 12 13  1  0
 13 14  2  0
 14 15  1  0
 14 16  1  0
 16 17  2  0
 17 18  1  0
 16 19  1  0
 13 20  1  0
 12 21  1  0
 10 22  2  0
 22 23  1  0
 23 24  1  0
 24 25  1  0
 25 26  2  0
 26 27  1  0
 27 28  2  0
 28 29  1  0
 29 30  2  0
 30 31  1  0
 28 32  1  0
 27 33  1  0
 26 34  1  0
 24 35  1  0
 24 36  1  0
  7 37  1  0
  7 38  1  0
  4 39  1  0
  3 40  1  0
  1 41  1  0
  1 42  1  0
  1 43  1  0
  6  2  1  0
 23  8  1  0
 30 25  1  0
 17 11  1  0
M  END
>  <cnnaffinity>  (1) 
-6.54502

>  <filename>  (1) 
Cc1ccnn1Cc1nc(-c2ccc(Cl)cc2)nn1Cc1cccnc1

$$$$
