
     RDKit          3D

 41 43  0  0  0  0  0  0  0  0999 V2000
   12.2247   -1.3033   21.1248 C   0  0  0  0  0  0  0  0  0  0  0  0
   11.8979   -0.0353   21.8771 C   0  0  0  0  0  0  0  0  0  0  0  0
   12.7589    0.4639   22.8683 C   0  0  0  0  0  0  0  0  0  0  0  0
   12.5398    1.5573   23.6054 N   0  0  0  0  0  0  0  0  0  0  0  0
   11.4018    2.2187   23.3744 C   0  0  0  0  0  0  0  0  0  0  0  0
   10.4723    1.8279   22.4129 C   0  0  0  0  0  0  0  0  0  0  0  0
   10.7273    0.6995   21.6312 C   0  0  0  0  0  0  0  0  0  0  0  0
    9.6626    0.2312   20.6710 C   0  0  0  0  0  0  0  0  0  0  0  0
    8.6400   -0.6177   21.3384 C   0  0  0  0  0  0  0  0  0  0  0  0
    8.8606   -1.4693   22.3152 N   0  0  0  0  0  0  0  0  0  0  0  0
    7.6295   -1.9905   22.5540 C   0  0  0  0  0  0  0  0  0  0  0  0
    7.3981   -2.9735   23.6662 C   0  0  0  0  0  0  0  0  0  0  0  0
    7.6750   -2.3379   25.0445 C   0  0  0  0  0  0  0  0  0  0  0  0
    7.4447   -3.0486   25.8456 H   0  0  0  0  0  0  0  0  0  0  0  0
    8.7294   -2.0505   25.1388 H   0  0  0  0  0  0  0  0  0  0  0  0
    7.0658   -1.4415   25.2026 H   0  0  0  0  0  0  0  0  0  0  0  0
    8.2404   -4.2469   23.4648 C   0  0  0  0  0  0  0  0  0  0  0  0
    8.0139   -4.9804   24.2459 H   0  0  0  0  0  0  0  0  0  0  0  0
    8.0369   -4.7102   22.4939 H   0  0  0  0  0  0  0  0  0  0  0  0
    9.3122   -4.0190   23.5132 H   0  0  0  0  0  0  0  0  0  0  0  0
    6.3372   -3.2311   23.6045 H   0  0  0  0  0  0  0  0  0  0  0  0
    6.6798   -1.5515   21.7546 N   0  0  0  0  0  0  0  0  0  0  0  0
    7.3360   -0.6852   20.9387 N   0  0  0  0  0  0  0  0  0  0  0  0
    6.6509    0.0031   19.9020 C   0  0  0  0  0  0  0  0  0  0  0  0
    5.4364    0.6464   20.1649 C   0  0  0  0  0  0  0  0  0  0  0  0
    4.8117    1.3119   19.1089 C   0  0  0  0  0  0  0  0  0  0  0  0
    5.4001    1.2956   17.8375 C   0  0  0  0  0  0  0  0  0  0  0  0
    6.5599    0.6731   17.5772 N   0  0  0  0  0  0  0  0  0  0  0  0
    7.1663    0.0509   18.5935 C   0  0  0  0  0  0  0  0  0  0  0  0
    8.1135   -0.4316   18.3649 H   0  0  0  0  0  0  0  0  0  0  0  0
    4.9197    1.7843   16.9941 H   0  0  0  0  0  0  0  0  0  0  0  0
    3.8800    1.8406   19.2604 H   0  0  0  0  0  0  0  0  0  0  0  0
    5.0157    0.6104   21.1722 H   0  0  0  0  0  0  0  0  0  0  0  0
    9.1829    1.1051   20.2289 H   0  0  0  0  0  0  0  0  0  0  0  0
   10.0521   -0.3901   19.8572 H   0  0  0  0  0  0  0  0  0  0  0  0
    9.5536    2.3873   22.2825 H   0  0  0  0  0  0  0  0  0  0  0  0
   11.2259    3.1022   23.9822 H   0  0  0  0  0  0  0  0  0  0  0  0
   13.6895   -0.0653   23.0671 H   0  0  0  0  0  0  0  0  0  0  0  0
   11.3823   -2.0030   21.1455 H   0  0  0  0  0  0  0  0  0  0  0  0
   13.1060   -1.8060   21.5316 H   0  0  0  0  0  0  0  0  0  0  0  0
   12.4442   -1.1124   20.0715 H   0  0  0  0  0  0  0  0  0  0  0  0
  1  2  1  0
  2  3  2  0
  3  4  1  0
  4  5  2  0
  5  6  1  0
  6  7  2  0
  7  8  1  0
  8  9  1  0
  9 10  2  0
 10 11  1  0
 11 12  1  0
 12 13  1  0
 13 14  1  0
 13 15  1  0
 13 16  1  0
 12 17  1  0
 17 18  1  0
 17 19  1  0
 17 20  1  0
 12 21  1  0
 11 22  2  0
 22 23  1  0
 23 24  1  0
 24 25  2  0
 25 26  1  0
 26 27  2  0
 27 28  1  0
 28 29  2  0
 29 30  1  0
 27 31  1  0
 26 32  1  0
 25 33  1  0
  8 34  1  0
  8 35  1  0
  6 36  1  0
  5 37  1  0
  3 38  1  0
  1 39  1  0
  1 40  1  0
  1 41  1  0
  7  2  1  0
 23  9  1  0
 29 24  1  0
M  END
>  <cnnaffinity>  (1) 
-6.17661

>  <filename>  (1) 
Cc1cnccc1Cc1nc(C(C)C)nn1-c1cccnc1

$$$$
