
     RDKit          3D

 40 43  0  0  0  0  0  0  0  0999 V2000
    7.8541    2.7058   22.0513 C   0  0  0  0  0  0  0  0  0  0  0  0
    9.2348    2.3434   22.4985 C   0  0  0  0  0  0  0  0  0  0  0  0
    9.9728    2.8267   23.5553 C   0  0  0  0  0  0  0  0  0  0  0  0
    9.4936    4.0935   24.6165 Cl  0  0  0  0  0  0  0  0  0  0  0  0
   11.1639    2.0782   23.5782 C   0  0  0  0  0  0  0  0  0  0  0  0
   11.1683    1.1892   22.5994 N   0  0  0  0  0  0  0  0  0  0  0  0
   10.0111    1.3723   21.9450 N   0  0  0  0  0  0  0  0  0  0  0  0
    9.6160    0.4410   20.9085 C   0  0  0  0  0  0  0  0  0  0  0  0
    8.6280   -0.5517   21.3995 C   0  0  0  0  0  0  0  0  0  0  0  0
    8.8602   -1.4172   22.3530 N   0  0  0  0  0  0  0  0  0  0  0  0
    7.6565   -2.0294   22.5249 C   0  0  0  0  0  0  0  0  0  0  0  0
    7.4260   -3.0525   23.5739 C   0  0  0  0  0  0  0  0  0  0  0  0
    6.1547   -3.6483   23.7130 C   0  0  0  0  0  0  0  0  0  0  0  0
    5.9350   -4.6115   24.6979 C   0  0  0  0  0  0  0  0  0  0  0  0
    6.9705   -4.9917   25.5593 C   0  0  0  0  0  0  0  0  0  0  0  0
    8.2331   -4.4007   25.4314 C   0  0  0  0  0  0  0  0  0  0  0  0
    8.4664   -3.4357   24.4482 C   0  0  0  0  0  0  0  0  0  0  0  0
    9.4501   -2.9749   24.3551 H   0  0  0  0  0  0  0  0  0  0  0  0
    9.0378   -4.6943   26.1020 H   0  0  0  0  0  0  0  0  0  0  0  0
    6.7925   -5.7430   26.3274 H   0  0  0  0  0  0  0  0  0  0  0  0
    4.9509   -5.0629   24.7940 H   0  0  0  0  0  0  0  0  0  0  0  0
    5.3492   -3.3418   23.0460 H   0  0  0  0  0  0  0  0  0  0  0  0
    6.7134   -1.6063   21.6959 N   0  0  0  0  0  0  0  0  0  0  0  0
    7.3495   -0.6872   20.9336 N   0  0  0  0  0  0  0  0  0  0  0  0
    6.6531   -0.0005   19.9000 C   0  0  0  0  0  0  0  0  0  0  0  0
    5.4384    0.6409   20.1666 C   0  0  0  0  0  0  0  0  0  0  0  0
    4.8130    1.3107   19.1091 C   0  0  0  0  0  0  0  0  0  0  0  0
    5.3992    1.2965   17.8368 C   0  0  0  0  0  0  0  0  0  0  0  0
    6.5550    0.6691   17.5731 N   0  0  0  0  0  0  0  0  0  0  0  0
    7.1641    0.0469   18.5899 C   0  0  0  0  0  0  0  0  0  0  0  0
    8.1110   -0.4362   18.3632 H   0  0  0  0  0  0  0  0  0  0  0  0
    4.9224    1.7890   16.9924 H   0  0  0  0  0  0  0  0  0  0  0  0
    3.8809    1.8392   19.2590 H   0  0  0  0  0  0  0  0  0  0  0  0
    5.0126    0.6047   21.1747 H   0  0  0  0  0  0  0  0  0  0  0  0
    9.2174    1.0034   20.0687 H   0  0  0  0  0  0  0  0  0  0  0  0
   10.5069   -0.1006   20.6112 H   0  0  0  0  0  0  0  0  0  0  0  0
   11.9865    2.1623   24.2758 H   0  0  0  0  0  0  0  0  0  0  0  0
    7.1081    1.9924   22.4244 H   0  0  0  0  0  0  0  0  0  0  0  0
    7.7599    2.7149   20.9629 H   0  0  0  0  0  0  0  0  0  0  0  0
    7.5952    3.6917   22.4425 H   0  0  0  0  0  0  0  0  0  0  0  0
  1  2  1  0
  2  3  2  0
  3  4  1  0
  3  5  1  0
  5  6  2  0
  6  7  1  0
  7  8  1  0
  8  9  1  0
  9 10  2  0
 10 11  1  0
 11 12  1  0
 12 13  2  0
 13 14  1  0
 14 15  2  0
 15 16  1  0
 16 17  2  0
 17 18  1  0
 16 19  1  0
 15 20  1  0
 14 21  1  0
 13 22  1  0
 11 23  2  0
 23 24  1  0
 24 25  1  0
 25 26  2  0
 26 27  1  0
 27 28  2  0
 28 29  1  0
 29 30  2  0
 30 31  1  0
 28 32  1  0
 27 33  1  0
 26 34  1  0
  8 35  1  0
  8 36  1  0
  5 37  1  0
  1 38  1  0
  1 39  1  0
  1 40  1  0
  7  2  1  0
 24  9  1  0
 30 25  1  0
 17 12  1  0
M  END
>  <cnnaffinity>  (1) 
-5.9772

>  <filename>  (1) 
Cc1c(Cl)cnn1Cc1nc(-c2ccccc2)nn1-c1cccnc1

$$$$
