
     RDKit          3D

 45 48  0  0  0  0  0  0  0  0999 V2000
   16.0175   -0.3387   19.6512 C   0  0  0  0  0  0  0  0  0  0  0  0
   14.7181   -0.7979   20.5316 C   0  0  0  0  0  0  0  0  0  0  0  0
   13.7573   -1.7943   20.3150 C   0  0  0  0  0  0  0  0  0  0  0  0
   12.4754   -1.6356   20.8642 C   0  0  0  0  0  0  0  0  0  0  0  0
   12.1125   -0.5300   21.6494 C   0  0  0  0  0  0  0  0  0  0  0  0
   10.6731   -0.1696   21.7666 C   0  0  0  0  0  0  0  0  0  0  0  0
    9.7114   -0.9071   21.2254 N   0  0  0  0  0  0  0  0  0  0  0  0
    8.5853   -0.2090   21.4877 N   0  0  0  0  0  0  0  0  0  0  0  0
    7.2794   -0.7131   21.0649 C   0  0  0  0  0  0  0  0  0  0  0  0
    6.6059    0.0630   19.9454 C   0  0  0  0  0  0  0  0  0  0  0  0
    5.3723    0.7071   20.1070 C   0  0  0  0  0  0  0  0  0  0  0  0
    4.7900    1.3496   19.0106 C   0  0  0  0  0  0  0  0  0  0  0  0
    5.4639    1.3267   17.7865 C   0  0  0  0  0  0  0  0  0  0  0  0
    6.6415    0.7099   17.6074 N   0  0  0  0  0  0  0  0  0  0  0  0
    7.1923    0.1058   18.6680 C   0  0  0  0  0  0  0  0  0  0  0  0
    8.1455   -0.3887   18.4868 H   0  0  0  0  0  0  0  0  0  0  0  0
    5.0372    1.8176   16.9121 H   0  0  0  0  0  0  0  0  0  0  0  0
    3.8431    1.8706   19.0917 H   0  0  0  0  0  0  0  0  0  0  0  0
    4.8655    0.7007   21.0767 H   0  0  0  0  0  0  0  0  0  0  0  0
    7.4670   -1.7472   20.7595 H   0  0  0  0  0  0  0  0  0  0  0  0
    6.6316   -0.7307   21.9486 H   0  0  0  0  0  0  0  0  0  0  0  0
    8.9108    0.9012   22.1784 C   0  0  0  0  0  0  0  0  0  0  0  0
    7.9188    1.7685   22.8716 C   0  0  0  0  0  0  0  0  0  0  0  0
    7.6427    1.1387   24.2117 C   0  0  0  0  0  0  0  0  0  0  0  0
    8.5874    1.2343   25.2444 C   0  0  0  0  0  0  0  0  0  0  0  0
    8.3792    0.5219   26.4236 C   0  0  0  0  0  0  0  0  0  0  0  0
    7.2134   -0.2433   26.5319 C   0  0  0  0  0  0  0  0  0  0  0  0
    6.3201   -0.2577   25.4590 C   0  0  0  0  0  0  0  0  0  0  0  0
    6.5321    0.4021   24.3068 N   0  0  0  0  0  0  0  0  0  0  0  0
    5.4022   -0.8386   25.5171 H   0  0  0  0  0  0  0  0  0  0  0  0
    7.0075   -0.8300   27.4191 H   0  0  0  0  0  0  0  0  0  0  0  0
    9.1184    0.5438   27.2226 H   0  0  0  0  0  0  0  0  0  0  0  0
    9.4852    1.8140   25.0609 H   0  0  0  0  0  0  0  0  0  0  0  0
    8.3572    2.7638   22.9766 H   0  0  0  0  0  0  0  0  0  0  0  0
    6.9973    1.8426   22.2913 H   0  0  0  0  0  0  0  0  0  0  0  0
   10.2159    0.9684   22.3532 N   0  0  0  0  0  0  0  0  0  0  0  0
   13.1625    0.2625   22.1598 C   0  0  0  0  0  0  0  0  0  0  0  0
   14.4404    0.0793   21.6433 C   0  0  0  0  0  0  0  0  0  0  0  0
   15.2362    0.7240   22.0156 H   0  0  0  0  0  0  0  0  0  0  0  0
   12.9818    1.0618   22.8732 H   0  0  0  0  0  0  0  0  0  0  0  0
   11.6731   -2.3149   20.6476 H   0  0  0  0  0  0  0  0  0  0  0  0
   13.9618   -2.7093   19.7657 H   0  0  0  0  0  0  0  0  0  0  0  0
   16.4295    0.5279   20.1455 H   0  0  0  0  0  0  0  0  0  0  0  0
   16.8185   -1.0784   19.6283 H   0  0  0  0  0  0  0  0  0  0  0  0
   15.9223    0.1162   18.6526 H   0  0  0  0  0  0  0  0  0  0  0  0
  1  2  1  0
  2  3  2  0
  3  4  1  0
  4  5  2  0
  5  6  1  0
  6  7  2  0
  7  8  1  0
  8  9  1  0
  9 10  1  0
 10 11  2  0
 11 12  1  0
 12 13  2  0
 13 14  1  0
 14 15  2  0
 15 16  1  0
 13 17  1  0
 12 18  1  0
 11 19  1  0
  9 20  1  0
  9 21  1  0
  8 22  1  0
 22 23  1  0
 23 24  1  0
 24 25  2  0
 25 26  1  0
 26 27  2  0
 27 28  1  0
 28 29  2  0
 28 30  1  0
 27 31  1  0
 26 32  1  0
 25 33  1  0
 23 34  1  0
 23 35  1  0
 22 36  2  0
  5 37  1  0
 37 38  2  0
 38 39  1  0
 37 40  1  0
  4 41  1  0
  3 42  1  0
  1 43  1  0
  1 44  1  0
  1 45  1  0
 38  2  1  0
 36  6  1  0
 15 10  1  0
 29 24  1  0
M  END
>  <cnnaffinity>  (1) 
-6.51575

>  <filename>  (1) 
Cc1ccc(-c2nc(Cc3ccccn3)n(Cc3cccnc3)n2)cc1

$$$$
