
     RDKit          3D

 51 54  0  0  0  0  0  0  0  0999 V2000
    7.3026    5.9582   26.5946 C   0  0  0  0  0  0  0  0  0  0  0  0
    7.7420    4.8831   25.6210 C   0  0  0  0  0  0  0  0  0  0  0  0
    8.1552    3.6174   26.0668 C   0  0  0  0  0  0  0  0  0  0  0  0
    8.5801    2.6293   25.1773 C   0  0  0  0  0  0  0  0  0  0  0  0
    8.6032    2.8907   23.7938 C   0  0  0  0  0  0  0  0  0  0  0  0
    9.0379    1.8686   23.0037 O   0  0  0  0  0  0  0  0  0  0  0  0
    9.0522    1.9940   21.5860 C   0  0  0  0  0  0  0  0  0  0  0  0
    9.5008    0.6474   21.0176 C   0  0  0  0  0  0  0  0  0  0  0  0
    8.6122   -0.4645   21.4450 C   0  0  0  0  0  0  0  0  0  0  0  0
    8.8432   -1.3019   22.4299 N   0  0  0  0  0  0  0  0  0  0  0  0
    7.6591   -1.9621   22.5559 C   0  0  0  0  0  0  0  0  0  0  0  0
    7.4219   -2.9361   23.6742 C   0  0  0  0  0  0  0  0  0  0  0  0
    8.5243   -4.0192   23.7477 C   0  0  0  0  0  0  0  0  0  0  0  0
    8.3246   -4.9039   24.9793 C   0  0  0  0  0  0  0  0  0  0  0  0
    8.2754   -4.1408   26.1723 O   0  0  0  0  0  0  0  0  0  0  0  0
    7.1939   -3.2259   26.1810 C   0  0  0  0  0  0  0  0  0  0  0  0
    7.3022   -2.2101   25.0432 C   0  0  0  0  0  0  0  0  0  0  0  0
    6.4288   -1.5459   25.0545 H   0  0  0  0  0  0  0  0  0  0  0  0
    8.1916   -1.5859   25.2041 H   0  0  0  0  0  0  0  0  0  0  0  0
    6.2411   -3.7789   26.0979 H   0  0  0  0  0  0  0  0  0  0  0  0
    7.2123   -2.7352   27.1573 H   0  0  0  0  0  0  0  0  0  0  0  0
    9.1482   -5.6120   25.1002 H   0  0  0  0  0  0  0  0  0  0  0  0
    7.3911   -5.4857   24.8746 H   0  0  0  0  0  0  0  0  0  0  0  0
    8.5226   -4.6367   22.8414 H   0  0  0  0  0  0  0  0  0  0  0  0
    9.5065   -3.5354   23.8103 H   0  0  0  0  0  0  0  0  0  0  0  0
    6.4605   -3.4110   23.4466 H   0  0  0  0  0  0  0  0  0  0  0  0
    6.7339   -1.6145   21.6875 N   0  0  0  0  0  0  0  0  0  0  0  0
    7.3572   -0.6612   20.9428 N   0  0  0  0  0  0  0  0  0  0  0  0
    6.6586    0.0127   19.9008 C   0  0  0  0  0  0  0  0  0  0  0  0
    5.4389    0.6458   20.1656 C   0  0  0  0  0  0  0  0  0  0  0  0
    4.8129    1.3114   19.1075 C   0  0  0  0  0  0  0  0  0  0  0  0
    5.4006    1.2970   17.8361 C   0  0  0  0  0  0  0  0  0  0  0  0
    6.5580    0.6713   17.5721 N   0  0  0  0  0  0  0  0  0  0  0  0
    7.1667    0.0515   18.5901 C   0  0  0  0  0  0  0  0  0  0  0  0
    8.1111   -0.4377   18.3631 H   0  0  0  0  0  0  0  0  0  0  0  0
    4.9223    1.7883   16.9917 H   0  0  0  0  0  0  0  0  0  0  0  0
    3.8803    1.8395   19.2580 H   0  0  0  0  0  0  0  0  0  0  0  0
    5.0149    0.6064   21.1733 H   0  0  0  0  0  0  0  0  0  0  0  0
    9.5212    0.7135   19.9294 H   0  0  0  0  0  0  0  0  0  0  0  0
   10.5149    0.4131   21.3419 H   0  0  0  0  0  0  0  0  0  0  0  0
    8.0517    2.2515   21.2076 H   0  0  0  0  0  0  0  0  0  0  0  0
    9.7492    2.7847   21.2755 H   0  0  0  0  0  0  0  0  0  0  0  0
    8.2001    4.1489   23.3291 C   0  0  0  0  0  0  0  0  0  0  0  0
    7.7759    5.1243   24.2436 C   0  0  0  0  0  0  0  0  0  0  0  0
    7.4632    6.0998   23.8776 H   0  0  0  0  0  0  0  0  0  0  0  0
    8.2207    4.3751   22.2667 H   0  0  0  0  0  0  0  0  0  0  0  0
    8.8957    1.6552   25.5386 H   0  0  0  0  0  0  0  0  0  0  0  0
    8.1373    3.4163   27.1364 H   0  0  0  0  0  0  0  0  0  0  0  0
    6.5715    6.6423   26.1495 H   0  0  0  0  0  0  0  0  0  0  0  0
    6.8478    5.5420   27.5003 H   0  0  0  0  0  0  0  0  0  0  0  0
    8.1496    6.5733   26.9201 H   0  0  0  0  0  0  0  0  0  0  0  0
  1  2  1  0
  2  3  2  0
  3  4  1  0
  4  5  2  0
  5  6  1  0
  6  7  1  0
  7  8  1  0
  8  9  1  0
  9 10  2  0
 10 11  1  0
 11 12  1  0
 12 13  1  0
 13 14  1  0
 14 15  1  0
 15 16  1  0
 16 17  1  0
 17 18  1  0
 17 19  1  0
 16 20  1  0
 16 21  1  0
 14 22  1  0
 14 23  1  0
 13 24  1  0
 13 25  1  0
 12 26  1  0
 11 27  2  0
 27 28  1  0
 28 29  1  0
 29 30  2  0
 30 31  1  0
 31 32  2  0
 32 33  1  0
 33 34  2  0
 34 35  1  0
 32 36  1  0
 31 37  1  0
 30 38  1  0
  8 39  1  0
  8 40  1  0
  7 41  1  0
  7 42  1  0
  5 43  1  0
 43 44  2  0
 44 45  1  0
 43 46  1  0
  4 47  1  0
  3 48  1  0
  1 49  1  0
  1 50  1  0
  1 51  1  0
 44  2  1  0
 28  9  1  0
 34 29  1  0
 17 12  1  0
M  END
>  <cnnaffinity>  (1) 
-6.03655

>  <filename>  (1) 
Cc1ccc(OCCc2nc(C3CCOCC3)nn2-c2cccnc2)cc1

$$$$
