
     RDKit          3D

 45 48  0  0  0  0  0  0  0  0999 V2000
   16.0259   -0.3229   19.6537 C   0  0  0  0  0  0  0  0  0  0  0  0
   14.7134   -0.7806   20.5428 C   0  0  0  0  0  0  0  0  0  0  0  0
   13.7440   -1.7700   20.3219 C   0  0  0  0  0  0  0  0  0  0  0  0
   12.4637   -1.6119   20.8792 C   0  0  0  0  0  0  0  0  0  0  0  0
   12.1068   -0.5005   21.6607 C   0  0  0  0  0  0  0  0  0  0  0  0
   10.6737   -0.1322   21.7779 C   0  0  0  0  0  0  0  0  0  0  0  0
    9.7200   -0.8683   21.2151 N   0  0  0  0  0  0  0  0  0  0  0  0
    8.5946   -0.1604   21.4416 N   0  0  0  0  0  0  0  0  0  0  0  0
    7.2800   -0.6746   21.0691 C   0  0  0  0  0  0  0  0  0  0  0  0
    6.5828    0.0746   19.9447 C   0  0  0  0  0  0  0  0  0  0  0  0
    5.3445    0.7101   20.1081 C   0  0  0  0  0  0  0  0  0  0  0  0
    4.7586    1.3512   19.0119 C   0  0  0  0  0  0  0  0  0  0  0  0
    5.4285    1.3288   17.7858 C   0  0  0  0  0  0  0  0  0  0  0  0
    6.6047    0.7088   17.6015 N   0  0  0  0  0  0  0  0  0  0  0  0
    7.1579    0.1063   18.6615 C   0  0  0  0  0  0  0  0  0  0  0  0
    8.1065   -0.3965   18.4776 H   0  0  0  0  0  0  0  0  0  0  0  0
    5.0034    1.8283   16.9156 H   0  0  0  0  0  0  0  0  0  0  0  0
    3.8114    1.8727   19.0965 H   0  0  0  0  0  0  0  0  0  0  0  0
    4.8363    0.6986   21.0770 H   0  0  0  0  0  0  0  0  0  0  0  0
    7.4629   -1.7143   20.7835 H   0  0  0  0  0  0  0  0  0  0  0  0
    6.6540   -0.6680   21.9714 H   0  0  0  0  0  0  0  0  0  0  0  0
    8.9085    0.9536   22.1258 C   0  0  0  0  0  0  0  0  0  0  0  0
    7.8813    1.8157   22.7662 C   0  0  0  0  0  0  0  0  0  0  0  0
    7.4693    1.1691   24.0516 C   0  0  0  0  0  0  0  0  0  0  0  0
    6.3118    0.6149   24.3305 N   0  0  0  0  0  0  0  0  0  0  0  0
    6.5219    0.0513   25.5623 C   0  0  0  0  0  0  0  0  0  0  0  0
    5.4847   -0.7129   26.3055 C   0  0  0  0  0  0  0  0  0  0  0  0
    5.9700   -1.4303   26.9694 H   0  0  0  0  0  0  0  0  0  0  0  0
    4.8692   -0.0408   26.9107 H   0  0  0  0  0  0  0  0  0  0  0  0
    4.8362   -1.2395   25.6047 H   0  0  0  0  0  0  0  0  0  0  0  0
    7.7402    0.2256   26.0382 N   0  0  0  0  0  0  0  0  0  0  0  0
    8.3281    0.9510   25.0581 N   0  0  0  0  0  0  0  0  0  0  0  0
    9.3288    1.0977   25.0269 H   0  0  0  0  0  0  0  0  0  0  0  0
    8.3189    2.7952   22.9534 H   0  0  0  0  0  0  0  0  0  0  0  0
    7.0031    1.9156   22.1277 H   0  0  0  0  0  0  0  0  0  0  0  0
   10.2002    1.0025   22.3722 N   0  0  0  0  0  0  0  0  0  0  0  0
   13.1596    0.2875   22.1649 C   0  0  0  0  0  0  0  0  0  0  0  0
   14.4396    0.1002   21.6528 C   0  0  0  0  0  0  0  0  0  0  0  0
   15.2299    0.7519   22.0254 H   0  0  0  0  0  0  0  0  0  0  0  0
   12.9873    1.0845   22.8823 H   0  0  0  0  0  0  0  0  0  0  0  0
   11.6646   -2.3021   20.6713 H   0  0  0  0  0  0  0  0  0  0  0  0
   13.9458   -2.6795   19.7646 H   0  0  0  0  0  0  0  0  0  0  0  0
   16.4430    0.5425   20.1476 H   0  0  0  0  0  0  0  0  0  0  0  0
   16.8261   -1.0635   19.6296 H   0  0  0  0  0  0  0  0  0  0  0  0
   15.9431    0.1235   18.6516 H   0  0  0  0  0  0  0  0  0  0  0  0
  1  2  1  0
  2  3  2  0
  3  4  1  0
  4  5  2  0
  5  6  1  0
  6  7  2  0
  7  8  1  0
  8  9  1  0
  9 10  1  0
 10 11  2  0
 11 12  1  0
 12 13  2  0
 13 14  1  0
 14 15  2  0
 15 16  1  0
 13 17  1  0
 12 18  1  0
 11 19  1  0
  9 20  1  0
  9 21  1  0
  8 22  1  0
 22 23  1  0
 23 24  1  0
 24 25  2  0
 25 26  1  0
 26 27  1  0
 27 28  1  0
 27 29  1  0
 27 30  1  0
 26 31  2  0
 31 32  1  0
 32 33  1  0
 23 34  1  0
 23 35  1  0
 22 36  2  0
  5 37  1  0
 37 38  2  0
 38 39  1  0
 37 40  1  0
  4 41  1  0
  3 42  1  0
  1 43  1  0
  1 44  1  0
  1 45  1  0
 38  2  1  0
 36  6  1  0
 15 10  1  0
 32 24  1  0
M  END
>  <cnnaffinity>  (1) 
-6.34287

>  <filename>  (1) 
Cc1ccc(-c2nc(Cc3nc(C)n[nH]3)n(Cc3cccnc3)n2)cc1

$$$$
