
     RDKit          3D

 41 44  0  0  0  0  0  0  0  0999 V2000
    4.7279    0.2980   26.6969 C   0  0  0  0  0  0  0  0  0  0  0  0
    5.1823    0.9483   25.4161 C   0  0  0  0  0  0  0  0  0  0  0  0
    6.3133    0.6621   24.7157 C   0  0  0  0  0  0  0  0  0  0  0  0
    6.4812    1.4568   23.5341 C   0  0  0  0  0  0  0  0  0  0  0  0
    7.6610    1.2938   22.5930 C   0  0  0  0  0  0  0  0  0  0  0  0
    7.8255   -0.1180   22.1198 C   0  0  0  0  0  0  0  0  0  0  0  0
    8.4182   -1.0690   22.8183 N   0  0  0  0  0  0  0  0  0  0  0  0
    8.3507   -2.1495   21.9988 C   0  0  0  0  0  0  0  0  0  0  0  0
    8.7673   -3.5601   22.3604 C   0  0  0  0  0  0  0  0  0  0  0  0
    7.7711   -4.3642   23.2496 C   0  0  0  0  0  0  0  0  0  0  0  0
    8.6998   -5.2545   24.0897 C   0  0  0  0  0  0  0  0  0  0  0  0
    9.9461   -4.3830   24.2159 C   0  0  0  0  0  0  0  0  0  0  0  0
   10.0240   -3.6320   23.0144 O   0  0  0  0  0  0  0  0  0  0  0  0
   10.8815   -4.9475   24.3045 H   0  0  0  0  0  0  0  0  0  0  0  0
    9.8769   -3.6878   25.0645 H   0  0  0  0  0  0  0  0  0  0  0  0
    8.9382   -6.1872   23.5668 H   0  0  0  0  0  0  0  0  0  0  0  0
    8.2937   -5.5347   25.0689 H   0  0  0  0  0  0  0  0  0  0  0  0
    7.2070   -3.6821   23.8962 H   0  0  0  0  0  0  0  0  0  0  0  0
    7.0415   -4.9268   22.6556 H   0  0  0  0  0  0  0  0  0  0  0  0
    8.8506   -4.0320   21.3767 H   0  0  0  0  0  0  0  0  0  0  0  0
    7.7556   -1.9174   20.8423 N   0  0  0  0  0  0  0  0  0  0  0  0
    7.3922   -0.6148   20.9278 N   0  0  0  0  0  0  0  0  0  0  0  0
    6.6479    0.0139   19.8854 C   0  0  0  0  0  0  0  0  0  0  0  0
    5.4322    0.6642   20.1384 C   0  0  0  0  0  0  0  0  0  0  0  0
    4.7973    1.3153   19.0739 C   0  0  0  0  0  0  0  0  0  0  0  0
    5.4038    1.2931   17.8146 C   0  0  0  0  0  0  0  0  0  0  0  0
    6.5479    0.6341   17.5580 N   0  0  0  0  0  0  0  0  0  0  0  0
    7.1448   -0.0004   18.5707 C   0  0  0  0  0  0  0  0  0  0  0  0
    8.0775   -0.5187   18.3527 H   0  0  0  0  0  0  0  0  0  0  0  0
    4.9547    1.8281   16.9768 H   0  0  0  0  0  0  0  0  0  0  0  0
    3.8659    1.8577   19.2199 H   0  0  0  0  0  0  0  0  0  0  0  0
    5.0125    0.6638   21.1435 H   0  0  0  0  0  0  0  0  0  0  0  0
    8.5974    1.5261   23.1119 H   0  0  0  0  0  0  0  0  0  0  0  0
    7.5839    1.9770   21.7394 H   0  0  0  0  0  0  0  0  0  0  0  0
    5.4483    2.3210   23.3583 C   0  0  0  0  0  0  0  0  0  0  0  0
    4.2725    2.1966   24.6199 S   0  0  0  0  0  0  0  0  0  0  0  0
    5.2951    3.0087   22.5345 H   0  0  0  0  0  0  0  0  0  0  0  0
    7.0123   -0.1246   25.0013 H   0  0  0  0  0  0  0  0  0  0  0  0
    4.1220    0.9607   27.3211 H   0  0  0  0  0  0  0  0  0  0  0  0
    4.1304   -0.6011   26.4970 H   0  0  0  0  0  0  0  0  0  0  0  0
    5.5944   -0.0195   27.2856 H   0  0  0  0  0  0  0  0  0  0  0  0
  1  2  1  0
  2  3  2  0
  3  4  1  0
  4  5  1  0
  5  6  1  0
  6  7  2  0
  7  8  1  0
  8  9  1  0
  9 10  1  0
 10 11  1  0
 11 12  1  0
 12 13  1  0
 12 14  1  0
 12 15  1  0
 11 16  1  0
 11 17  1  0
 10 18  1  0
 10 19  1  0
  9 20  1  0
  8 21  2  0
 21 22  1  0
 22 23  1  0
 23 24  2  0
 24 25  1  0
 25 26  2  0
 26 27  1  0
 27 28  2  0
 28 29  1  0
 26 30  1  0
 25 31  1  0
 24 32  1  0
  5 33  1  0
  5 34  1  0
  4 35  2  0
 35 36  1  0
 35 37  1  0
  3 38  1  0
  1 39  1  0
  1 40  1  0
  1 41  1  0
 36  2  1  0
 22  6  1  0
 28 23  1  0
 13  9  1  0
M  END
>  <cnnaffinity>  (1) 
-5.90641

>  <filename>  (1) 
Cc1cc(Cc2nc(C3CCCO3)nn2-c2cccnc2)cs1

$$$$
