
     RDKit          3D

 40 43  0  0  0  0  0  0  0  0999 V2000
    7.8532    2.7070   22.0515 C   0  0  0  0  0  0  0  0  0  0  0  0
    9.2338    2.3454   22.4977 C   0  0  0  0  0  0  0  0  0  0  0  0
    9.9710    2.8299   23.5546 C   0  0  0  0  0  0  0  0  0  0  0  0
    9.4914    4.0962   24.6168 Cl  0  0  0  0  0  0  0  0  0  0  0  0
   11.1625    2.0818   23.5780 C   0  0  0  0  0  0  0  0  0  0  0  0
   11.1672    1.1918   22.5996 N   0  0  0  0  0  0  0  0  0  0  0  0
   10.0100    1.3736   21.9445 N   0  0  0  0  0  0  0  0  0  0  0  0
    9.6153    0.4430   20.9058 C   0  0  0  0  0  0  0  0  0  0  0  0
    8.6285   -0.5499   21.3973 C   0  0  0  0  0  0  0  0  0  0  0  0
    8.8630   -1.4130   22.3524 N   0  0  0  0  0  0  0  0  0  0  0  0
    7.6600   -2.0251   22.5241 C   0  0  0  0  0  0  0  0  0  0  0  0
    7.4271   -3.0491   23.5742 C   0  0  0  0  0  0  0  0  0  0  0  0
    6.1544   -3.6416   23.7079 C   0  0  0  0  0  0  0  0  0  0  0  0
    5.9633   -4.5973   24.6986 C   0  0  0  0  0  0  0  0  0  0  0  0
    4.7520   -5.1602   24.8168 F   0  0  0  0  0  0  0  0  0  0  0  0
    6.9752   -4.9946   25.5700 C   0  0  0  0  0  0  0  0  0  0  0  0
    8.2324   -4.3973   25.4331 C   0  0  0  0  0  0  0  0  0  0  0  0
    8.4671   -3.4322   24.4494 C   0  0  0  0  0  0  0  0  0  0  0  0
    9.4495   -2.9731   24.3578 H   0  0  0  0  0  0  0  0  0  0  0  0
    9.0343   -4.6925   26.1048 H   0  0  0  0  0  0  0  0  0  0  0  0
    6.7623   -5.7480   26.3253 H   0  0  0  0  0  0  0  0  0  0  0  0
    5.3239   -3.3630   23.0609 H   0  0  0  0  0  0  0  0  0  0  0  0
    6.7147   -1.6058   21.6970 N   0  0  0  0  0  0  0  0  0  0  0  0
    7.3495   -0.6866   20.9333 N   0  0  0  0  0  0  0  0  0  0  0  0
    6.6530   -0.0006   19.9001 C   0  0  0  0  0  0  0  0  0  0  0  0
    5.4382    0.6412   20.1664 C   0  0  0  0  0  0  0  0  0  0  0  0
    4.8128    1.3107   19.1092 C   0  0  0  0  0  0  0  0  0  0  0  0
    5.3990    1.2963   17.8373 C   0  0  0  0  0  0  0  0  0  0  0  0
    6.5554    0.6696   17.5743 N   0  0  0  0  0  0  0  0  0  0  0  0
    7.1647    0.0470   18.5904 C   0  0  0  0  0  0  0  0  0  0  0  0
    8.1117   -0.4364   18.3638 H   0  0  0  0  0  0  0  0  0  0  0  0
    4.9217    1.7883   16.9931 H   0  0  0  0  0  0  0  0  0  0  0  0
    3.8809    1.8393   19.2593 H   0  0  0  0  0  0  0  0  0  0  0  0
    5.0122    0.6053   21.1741 H   0  0  0  0  0  0  0  0  0  0  0  0
    9.2166    1.0065   20.0667 H   0  0  0  0  0  0  0  0  0  0  0  0
   10.5063   -0.0981   20.6072 H   0  0  0  0  0  0  0  0  0  0  0  0
   11.9842    2.1679   24.2764 H   0  0  0  0  0  0  0  0  0  0  0  0
    7.7591    2.7154   20.9630 H   0  0  0  0  0  0  0  0  0  0  0  0
    7.5942    3.6934   22.4419 H   0  0  0  0  0  0  0  0  0  0  0  0
    7.1084    1.9929   22.4264 H   0  0  0  0  0  0  0  0  0  0  0  0
  1  2  1  0
  2  3  2  0
  3  4  1  0
  3  5  1  0
  5  6  2  0
  6  7  1  0
  7  8  1  0
  8  9  1  0
  9 10  2  0
 10 11  1  0
 11 12  1  0
 12 13  2  0
 13 14  1  0
 14 15  1  0
 14 16  2  0
 16 17  1  0
 17 18  2  0
 18 19  1  0
 17 20  1  0
 16 21  1  0
 13 22  1  0
 11 23  2  0
 23 24  1  0
 24 25  1  0
 25 26  2  0
 26 27  1  0
 27 28  2  0
 28 29  1  0
 29 30  2  0
 30 31  1  0
 28 32  1  0
 27 33  1  0
 26 34  1  0
  8 35  1  0
  8 36  1  0
  5 37  1  0
  1 38  1  0
  1 39  1  0
  1 40  1  0
  7  2  1  0
 24  9  1  0
 30 25  1  0
 18 12  1  0
M  END
>  <cnnaffinity>  (1) 
-6.11886

>  <filename>  (1) 
Cc1c(Cl)cnn1Cc1nc(-c2cccc(F)c2)nn1-c1cccnc1

$$$$
