
     RDKit          3D

 43 46  0  0  0  0  0  0  0  0999 V2000
    5.4828    1.3144   27.9831 C   0  0  0  0  0  0  0  0  0  0  0  0
    6.1019    1.3231   26.6137 C   0  0  0  0  0  0  0  0  0  0  0  0
    7.4863    1.1481   26.4356 C   0  0  0  0  0  0  0  0  0  0  0  0
    8.0095    1.1579   25.1429 C   0  0  0  0  0  0  0  0  0  0  0  0
    7.1473    1.3518   24.0507 C   0  0  0  0  0  0  0  0  0  0  0  0
    7.6809    1.2735   22.6229 C   0  0  0  0  0  0  0  0  0  0  0  0
    7.7540   -0.1366   22.1024 C   0  0  0  0  0  0  0  0  0  0  0  0
    8.3722   -1.0969   22.7634 N   0  0  0  0  0  0  0  0  0  0  0  0
    8.2134   -2.1756   21.9758 C   0  0  0  0  0  0  0  0  0  0  0  0
    8.7997   -3.4887   22.3533 C   0  0  0  0  0  0  0  0  0  0  0  0
    8.8415   -3.8979   23.8491 C   0  0  0  0  0  0  0  0  0  0  0  0
    8.6879   -5.4370   23.8032 C   0  0  0  0  0  0  0  0  0  0  0  0
    8.5901   -5.7909   22.4319 O   0  0  0  0  0  0  0  0  0  0  0  0
    8.0747   -4.6800   21.7315 C   0  0  0  0  0  0  0  0  0  0  0  0
    6.9859   -4.5871   21.8870 H   0  0  0  0  0  0  0  0  0  0  0  0
    8.2656   -4.8092   20.6605 H   0  0  0  0  0  0  0  0  0  0  0  0
    9.5158   -6.0141   24.2355 H   0  0  0  0  0  0  0  0  0  0  0  0
    7.7788   -5.7372   24.3427 H   0  0  0  0  0  0  0  0  0  0  0  0
    7.9963   -3.4676   24.3955 H   0  0  0  0  0  0  0  0  0  0  0  0
    9.7635   -3.5725   24.3364 H   0  0  0  0  0  0  0  0  0  0  0  0
    9.8269   -3.4106   21.9984 H   0  0  0  0  0  0  0  0  0  0  0  0
    7.5972   -1.9443   20.8261 N   0  0  0  0  0  0  0  0  0  0  0  0
    7.2767   -0.6274   20.9200 N   0  0  0  0  0  0  0  0  0  0  0  0
    6.5829    0.0171   19.8535 C   0  0  0  0  0  0  0  0  0  0  0  0
    5.3805    0.6962   20.0779 C   0  0  0  0  0  0  0  0  0  0  0  0
    4.7748    1.3531   19.0015 C   0  0  0  0  0  0  0  0  0  0  0  0
    5.3973    1.3206   17.7525 C   0  0  0  0  0  0  0  0  0  0  0  0
    6.5344    0.6390   17.5221 N   0  0  0  0  0  0  0  0  0  0  0  0
    7.0998   -0.0119   18.5455 C   0  0  0  0  0  0  0  0  0  0  0  0
    8.0098   -0.5651   18.3223 H   0  0  0  0  0  0  0  0  0  0  0  0
    4.9731    1.8556   16.9030 H   0  0  0  0  0  0  0  0  0  0  0  0
    3.8438    1.8954   19.1267 H   0  0  0  0  0  0  0  0  0  0  0  0
    4.9240    0.6890   21.0672 H   0  0  0  0  0  0  0  0  0  0  0  0
    7.1053    1.9057   21.9399 H   0  0  0  0  0  0  0  0  0  0  0  0
    8.7084    1.6578   22.6048 H   0  0  0  0  0  0  0  0  0  0  0  0
    5.7866    1.5083   24.3404 C   0  0  0  0  0  0  0  0  0  0  0  0
    5.2684    1.4970   25.5767 N   0  0  0  0  0  0  0  0  0  0  0  0
    5.0643    1.6452   23.5335 H   0  0  0  0  0  0  0  0  0  0  0  0
    9.0714    0.9783   24.9679 H   0  0  0  0  0  0  0  0  0  0  0  0
    8.1246    1.0013   27.3013 H   0  0  0  0  0  0  0  0  0  0  0  0
    5.5725    0.3265   28.4473 H   0  0  0  0  0  0  0  0  0  0  0  0
    5.9750    2.0310   28.6484 H   0  0  0  0  0  0  0  0  0  0  0  0
    4.4231    1.5689   27.9189 H   0  0  0  0  0  0  0  0  0  0  0  0
  1  2  1  0
  2  3  2  0
  3  4  1  0
  4  5  2  0
  5  6  1  0
  6  7  1  0
  7  8  2  0
  8  9  1  0
  9 10  1  0
 10 11  1  0
 11 12  1  0
 12 13  1  0
 13 14  1  0
 14 15  1  0
 14 16  1  0
 12 17  1  0
 12 18  1  0
 11 19  1  0
 11 20  1  0
 10 21  1  0
  9 22  2  0
 22 23  1  0
 23 24  1  0
 24 25  2  0
 25 26  1  0
 26 27  2  0
 27 28  1  0
 28 29  2  0
 29 30  1  0
 27 31  1  0
 26 32  1  0
 25 33  1  0
  6 34  1  0
  6 35  1  0
  5 36  1  0
 36 37  2  0
 36 38  1  0
  4 39  1  0
  3 40  1  0
  1 41  1  0
  1 42  1  0
  1 43  1  0
 37  2  1  0
 23  7  1  0
 29 24  1  0
 14 10  1  0
M  END
>  <cnnaffinity>  (1) 
-5.92178

>  <filename>  (1) 
Cc1ccc(Cc2nc(C3CCOC3)nn2-c2cccnc2)cn1

$$$$
