
     RDKit          3D

 44 47  0  0  0  0  0  0  0  0999 V2000
    9.4402   -1.3897   27.3971 C   0  0  0  0  0  0  0  0  0  0  0  0
    8.3599   -1.7492   26.4122 C   0  0  0  0  0  0  0  0  0  0  0  0
    7.2864   -2.6125   26.7111 C   0  0  0  0  0  0  0  0  0  0  0  0
    6.3097   -2.9299   25.8445 N   0  0  0  0  0  0  0  0  0  0  0  0
    6.3964   -2.4518   24.6013 C   0  0  0  0  0  0  0  0  0  0  0  0
    7.4806   -1.6787   24.1785 C   0  0  0  0  0  0  0  0  0  0  0  0
    7.6524   -1.4005   22.8011 N   0  0  0  0  0  0  0  0  0  0  0  0
    6.7057   -0.7483   22.0985 N   0  0  0  0  0  0  0  0  0  0  0  0
    7.2389   -0.6751   20.8927 C   0  0  0  0  0  0  0  0  0  0  0  0
    6.5632    0.0228   19.8040 C   0  0  0  0  0  0  0  0  0  0  0  0
    5.3520    0.7138   19.9923 C   0  0  0  0  0  0  0  0  0  0  0  0
    4.7996    1.3705   18.8997 C   0  0  0  0  0  0  0  0  0  0  0  0
    5.4653    1.3172   17.6694 C   0  0  0  0  0  0  0  0  0  0  0  0
    6.6164    0.6533   17.4803 N   0  0  0  0  0  0  0  0  0  0  0  0
    7.1501    0.0255   18.5349 C   0  0  0  0  0  0  0  0  0  0  0  0
    8.0890   -0.4979   18.3676 H   0  0  0  0  0  0  0  0  0  0  0  0
    5.0555    1.8263   16.7994 H   0  0  0  0  0  0  0  0  0  0  0  0
    3.8769    1.9345   18.9890 H   0  0  0  0  0  0  0  0  0  0  0  0
    4.8771    0.7343   20.9767 H   0  0  0  0  0  0  0  0  0  0  0  0
    8.4468   -1.3007   20.7701 N   0  0  0  0  0  0  0  0  0  0  0  0
    8.6695   -1.7620   21.9791 C   0  0  0  0  0  0  0  0  0  0  0  0
    9.7947   -2.6302   22.4423 C   0  0  0  0  0  0  0  0  0  0  0  0
    9.3279   -3.8845   23.1717 C   0  0  0  0  0  0  0  0  0  0  0  0
    9.9134   -4.0788   24.3556 N   0  0  0  0  0  0  0  0  0  0  0  0
    9.4749   -5.0897   25.1213 C   0  0  0  0  0  0  0  0  0  0  0  0
    8.4818   -5.9722   24.7127 C   0  0  0  0  0  0  0  0  0  0  0  0
    7.8986   -5.7998   23.4537 C   0  0  0  0  0  0  0  0  0  0  0  0
    8.3365   -4.7520   22.6336 C   0  0  0  0  0  0  0  0  0  0  0  0
    7.8278   -4.6166   21.2169 C   0  0  0  0  0  0  0  0  0  0  0  0
    8.5631   -4.0549   20.6431 H   0  0  0  0  0  0  0  0  0  0  0  0
    6.8756   -4.0792   21.1332 H   0  0  0  0  0  0  0  0  0  0  0  0
    7.6881   -5.5945   20.7464 H   0  0  0  0  0  0  0  0  0  0  0  0
    7.1162   -6.4722   23.0965 H   0  0  0  0  0  0  0  0  0  0  0  0
    8.1799   -6.7760   25.3694 H   0  0  0  0  0  0  0  0  0  0  0  0
    9.9456   -5.1872   26.0998 H   0  0  0  0  0  0  0  0  0  0  0  0
   10.4287   -2.0674   23.1308 H   0  0  0  0  0  0  0  0  0  0  0  0
   10.4026   -2.8593   21.5695 H   0  0  0  0  0  0  0  0  0  0  0  0
    8.4356   -1.2629   25.1068 C   0  0  0  0  0  0  0  0  0  0  0  0
    9.2784   -0.6349   24.8070 H   0  0  0  0  0  0  0  0  0  0  0  0
    5.5831   -2.6822   23.9129 H   0  0  0  0  0  0  0  0  0  0  0  0
    7.1963   -3.0616   27.6961 H   0  0  0  0  0  0  0  0  0  0  0  0
    9.0497   -1.0092   28.3453 H   0  0  0  0  0  0  0  0  0  0  0  0
   10.1152   -0.6343   26.9835 H   0  0  0  0  0  0  0  0  0  0  0  0
   10.0503   -2.2691   27.6068 H   0  0  0  0  0  0  0  0  0  0  0  0
  1  2  1  0
  2  3  2  0
  3  4  1  0
  4  5  2  0
  5  6  1  0
  6  7  1  0
  7  8  1  0
  8  9  2  0
  9 10  1  0
 10 11  2  0
 11 12  1  0
 12 13  2  0
 13 14  1  0
 14 15  2  0
 15 16  1  0
 13 17  1  0
 12 18  1  0
 11 19  1  0
  9 20  1  0
 20 21  2  0
 21 22  1  0
 22 23  1  0
 23 24  2  0
 24 25  1  0
 25 26  2  0
 26 27  1  0
 27 28  2  0
 28 29  1  0
 29 30  1  0
 29 31  1  0
 29 32  1  0
 27 33  1  0
 26 34  1  0
 25 35  1  0
 22 36  1  0
 22 37  1  0
  6 38  2  0
 38 39  1  0
  5 40  1  0
  3 41  1  0
  1 42  1  0
  1 43  1  0
  1 44  1  0
 38  2  1  0
 21  7  1  0
 28 23  1  0
 15 10  1  0
M  END
>  <cnnaffinity>  (1) 
-6.31639

>  <filename>  (1) 
Cc1cncc(-n2nc(-c3cccnc3)nc2Cc2ncccc2C)c1

$$$$
