
     RDKit          3D

 45 48  0  0  0  0  0  0  0  0999 V2000
   12.0741    1.9459   22.4744 C   0  0  0  0  0  0  0  0  0  0  0  0
   10.8383    1.9024   23.3506 C   0  0  0  0  0  0  0  0  0  0  0  0
   10.9849    1.7124   24.7328 C   0  0  0  0  0  0  0  0  0  0  0  0
    9.8775    1.5667   25.5692 C   0  0  0  0  0  0  0  0  0  0  0  0
    8.5915    1.6836   25.0496 C   0  0  0  0  0  0  0  0  0  0  0  0
    8.4197    1.8600   23.6733 C   0  0  0  0  0  0  0  0  0  0  0  0
    6.8043    1.8726   23.0348 Cl  0  0  0  0  0  0  0  0  0  0  0  0
    9.5317    1.9133   22.8100 C   0  0  0  0  0  0  0  0  0  0  0  0
    9.3330    1.8515   21.4438 O   0  0  0  0  0  0  0  0  0  0  0  0
    9.5777    0.5397   20.9053 C   0  0  0  0  0  0  0  0  0  0  0  0
    8.6362   -0.5438   21.3763 C   0  0  0  0  0  0  0  0  0  0  0  0
    8.8564   -1.4100   22.3568 N   0  0  0  0  0  0  0  0  0  0  0  0
    7.6481   -2.0014   22.5277 C   0  0  0  0  0  0  0  0  0  0  0  0
    7.3644   -2.9471   23.6529 C   0  0  0  0  0  0  0  0  0  0  0  0
    6.4711   -4.1639   23.3373 C   0  0  0  0  0  0  0  0  0  0  0  0
    5.8165   -4.4691   24.6908 C   0  0  0  0  0  0  0  0  0  0  0  0
    5.9027   -3.2908   25.4767 O   0  0  0  0  0  0  0  0  0  0  0  0
    6.5710   -2.2599   24.7831 C   0  0  0  0  0  0  0  0  0  0  0  0
    5.8436   -1.5412   24.3685 H   0  0  0  0  0  0  0  0  0  0  0  0
    7.2176   -1.7315   25.4948 H   0  0  0  0  0  0  0  0  0  0  0  0
    4.7662   -4.7608   24.5700 H   0  0  0  0  0  0  0  0  0  0  0  0
    6.3228   -5.2792   25.2320 H   0  0  0  0  0  0  0  0  0  0  0  0
    7.0359   -5.0221   22.9590 H   0  0  0  0  0  0  0  0  0  0  0  0
    5.7071   -3.8839   22.5998 H   0  0  0  0  0  0  0  0  0  0  0  0
    8.3319   -3.2769   24.0425 H   0  0  0  0  0  0  0  0  0  0  0  0
    6.7093   -1.5843   21.6996 N   0  0  0  0  0  0  0  0  0  0  0  0
    7.3582   -0.6799   20.9218 N   0  0  0  0  0  0  0  0  0  0  0  0
    6.6522   -0.0193   19.8802 C   0  0  0  0  0  0  0  0  0  0  0  0
    5.4426    0.6254   20.1506 C   0  0  0  0  0  0  0  0  0  0  0  0
    4.8232    1.3083   19.1003 C   0  0  0  0  0  0  0  0  0  0  0  0
    5.4075    1.2996   17.8270 C   0  0  0  0  0  0  0  0  0  0  0  0
    6.5436    0.6397   17.5540 N   0  0  0  0  0  0  0  0  0  0  0  0
    7.1389   -0.0058   18.5625 C   0  0  0  0  0  0  0  0  0  0  0  0
    8.0515   -0.5465   18.3250 H   0  0  0  0  0  0  0  0  0  0  0  0
    4.9405    1.8188   16.9910 H   0  0  0  0  0  0  0  0  0  0  0  0
    3.8916    1.8387   19.2560 H   0  0  0  0  0  0  0  0  0  0  0  0
    5.0231    0.5964   21.1571 H   0  0  0  0  0  0  0  0  0  0  0  0
   10.5920    0.2229   21.1654 H   0  0  0  0  0  0  0  0  0  0  0  0
    9.5218    0.6676   19.8239 H   0  0  0  0  0  0  0  0  0  0  0  0
    7.7223    1.6025   25.6922 H   0  0  0  0  0  0  0  0  0  0  0  0
   10.0125    1.2774   26.6026 H   0  0  0  0  0  0  0  0  0  0  0  0
   11.9830    1.6701   25.1525 H   0  0  0  0  0  0  0  0  0  0  0  0
   12.4308    0.9205   22.2930 H   0  0  0  0  0  0  0  0  0  0  0  0
   12.8970    2.4832   22.9632 H   0  0  0  0  0  0  0  0  0  0  0  0
   11.8639    2.4111   21.5044 H   0  0  0  0  0  0  0  0  0  0  0  0
  1  2  1  0
  2  3  2  0
  3  4  1  0
  4  5  2  0
  5  6  1  0
  6  7  1  0
  6  8  2  0
  8  9  1  0
  9 10  1  0
 10 11  1  0
 11 12  2  0
 12 13  1  0
 13 14  1  0
 14 15  1  0
 15 16  1  0
 16 17  1  0
 17 18  1  0
 18 19  1  0
 18 20  1  0
 16 21  1  0
 16 22  1  0
 15 23  1  0
 15 24  1  0
 14 25  1  0
 13 26  2  0
 26 27  1  0
 27 28  1  0
 28 29  2  0
 29 30  1  0
 30 31  2  0
 31 32  1  0
 32 33  2  0
 33 34  1  0
 31 35  1  0
 30 36  1  0
 29 37  1  0
 10 38  1  0
 10 39  1  0
  5 40  1  0
  4 41  1  0
  3 42  1  0
  1 43  1  0
  1 44  1  0
  1 45  1  0
  8  2  1  0
 27 11  1  0
 33 28  1  0
 18 14  1  0
M  END
>  <cnnaffinity>  (1) 
-6.16304

>  <filename>  (1) 
Cc1cccc(Cl)c1OCc1nc(C2CCOC2)nn1-c1cccnc1

$$$$
