
     RDKit          3D

 46 49  0  0  0  0  0  0  0  0999 V2000
    4.8848    4.1393   27.6018 C   0  0  0  0  0  0  0  0  0  0  0  0
    5.2667    3.1529   26.5487 C   0  0  0  0  0  0  0  0  0  0  0  0
    4.3706    2.3721   25.9556 N   0  0  0  0  0  0  0  0  0  0  0  0
    5.0953    1.5958   25.1319 N   0  0  0  0  0  0  0  0  0  0  0  0
    6.4256    1.8432   25.1843 C   0  0  0  0  0  0  0  0  0  0  0  0
    7.4308    1.0835   24.3999 C   0  0  0  0  0  0  0  0  0  0  0  0
    7.7810    1.6769   23.0160 C   0  0  0  0  0  0  0  0  0  0  0  0
    8.8390    0.8445   22.3648 C   0  0  0  0  0  0  0  0  0  0  0  0
   10.1352    0.8947   22.6365 N   0  0  0  0  0  0  0  0  0  0  0  0
   10.6398   -0.1871   21.9902 C   0  0  0  0  0  0  0  0  0  0  0  0
   12.0802   -0.5393   21.8694 C   0  0  0  0  0  0  0  0  0  0  0  0
   12.4202   -1.6072   21.0243 C   0  0  0  0  0  0  0  0  0  0  0  0
   13.6763   -1.7308   20.4330 C   0  0  0  0  0  0  0  0  0  0  0  0
   14.6144   -0.7616   20.7468 C   0  0  0  0  0  0  0  0  0  0  0  0
   16.0368   -0.3245   19.6430 Cl  0  0  0  0  0  0  0  0  0  0  0  0
   14.4010    0.1163   21.8398 C   0  0  0  0  0  0  0  0  0  0  0  0
   13.1297    0.2335   22.4060 C   0  0  0  0  0  0  0  0  0  0  0  0
   12.9506    0.9326   23.2213 H   0  0  0  0  0  0  0  0  0  0  0  0
   15.2021    0.7708   22.1620 H   0  0  0  0  0  0  0  0  0  0  0  0
   13.8698   -2.5334   19.7383 H   0  0  0  0  0  0  0  0  0  0  0  0
   11.6237   -2.2890   20.7826 H   0  0  0  0  0  0  0  0  0  0  0  0
    9.7219   -0.8769   21.3258 N   0  0  0  0  0  0  0  0  0  0  0  0
    8.5749   -0.2271   21.5841 N   0  0  0  0  0  0  0  0  0  0  0  0
    7.3248   -0.7607   21.0493 C   0  0  0  0  0  0  0  0  0  0  0  0
    6.6944    0.0483   19.9324 C   0  0  0  0  0  0  0  0  0  0  0  0
    5.4583    0.6830   20.0837 C   0  0  0  0  0  0  0  0  0  0  0  0
    4.8887    1.3406   18.9898 C   0  0  0  0  0  0  0  0  0  0  0  0
    5.5858    1.3455   17.7787 C   0  0  0  0  0  0  0  0  0  0  0  0
    6.7793    0.7543   17.6139 N   0  0  0  0  0  0  0  0  0  0  0  0
    7.3165    0.1360   18.6740 C   0  0  0  0  0  0  0  0  0  0  0  0
    8.2843   -0.3343   18.5065 H   0  0  0  0  0  0  0  0  0  0  0  0
    5.1687    1.8476   16.9055 H   0  0  0  0  0  0  0  0  0  0  0  0
    3.9353    1.8508   19.0674 H   0  0  0  0  0  0  0  0  0  0  0  0
    4.9453    0.6570   21.0476 H   0  0  0  0  0  0  0  0  0  0  0  0
    7.5833   -1.7615   20.6897 H   0  0  0  0  0  0  0  0  0  0  0  0
    6.6052   -0.8856   21.8695 H   0  0  0  0  0  0  0  0  0  0  0  0
    8.1748    2.6863   23.1367 H   0  0  0  0  0  0  0  0  0  0  0  0
    6.8878    1.7650   22.3830 H   0  0  0  0  0  0  0  0  0  0  0  0
    8.3530    1.0321   24.9889 H   0  0  0  0  0  0  0  0  0  0  0  0
    7.0904    0.0476   24.2670 H   0  0  0  0  0  0  0  0  0  0  0  0
    6.5696    2.8719   26.0885 C   0  0  0  0  0  0  0  0  0  0  0  0
    7.4881    3.3682   26.3748 H   0  0  0  0  0  0  0  0  0  0  0  0
    4.6410    0.8677   24.5985 H   0  0  0  0  0  0  0  0  0  0  0  0
    5.0927    3.7259   28.5955 H   0  0  0  0  0  0  0  0  0  0  0  0
    5.4733    5.0548   27.4950 H   0  0  0  0  0  0  0  0  0  0  0  0
    3.8219    4.3810   27.5401 H   0  0  0  0  0  0  0  0  0  0  0  0
  1  2  1  0
  2  3  2  0
  3  4  1  0
  4  5  1  0
  5  6  1  0
  6  7  1  0
  7  8  1  0
  8  9  2  0
  9 10  1  0
 10 11  1  0
 11 12  2  0
 12 13  1  0
 13 14  2  0
 14 15  1  0
 14 16  1  0
 16 17  2  0
 17 18  1  0
 16 19  1  0
 13 20  1  0
 12 21  1  0
 10 22  2  0
 22 23  1  0
 23 24  1  0
 24 25  1  0
 25 26  2  0
 26 27  1  0
 27 28  2  0
 28 29  1  0
 29 30  2  0
 30 31  1  0
 28 32  1  0
 27 33  1  0
 26 34  1  0
 24 35  1  0
 24 36  1  0
  7 37  1  0
  7 38  1  0
  6 39  1  0
  6 40  1  0
  5 41  2  0
 41 42  1  0
  4 43  1  0
  1 44  1  0
  1 45  1  0
  1 46  1  0
 41  2  1  0
 23  8  1  0
 30 25  1  0
 17 11  1  0
M  END
>  <cnnaffinity>  (1) 
-6.52917

>  <filename>  (1) 
Cc1cc(CCc2nc(-c3ccc(Cl)cc3)nn2Cc2cccnc2)[nH]n1

$$$$
