
     RDKit          3D

 49 52  0  0  0  0  0  0  0  0999 V2000
    6.2798   -5.6165   25.6653 C   0  0  0  0  0  0  0  0  0  0  0  0
    7.6831   -5.0060   25.7702 C   0  0  0  0  0  0  0  0  0  0  0  0
    8.5234   -5.2005   24.4906 C   0  0  0  0  0  0  0  0  0  0  0  0
    7.9949   -4.4102   23.2749 C   0  0  0  0  0  0  0  0  0  0  0  0
    7.3635   -3.0319   23.6509 C   0  0  0  0  0  0  0  0  0  0  0  0
    7.5744   -2.0270   22.5570 C   0  0  0  0  0  0  0  0  0  0  0  0
    6.6332   -1.5793   21.7556 N   0  0  0  0  0  0  0  0  0  0  0  0
    7.3013   -0.7183   20.9411 N   0  0  0  0  0  0  0  0  0  0  0  0
    6.6256   -0.0324   19.8876 C   0  0  0  0  0  0  0  0  0  0  0  0
    5.4168    0.6262   20.1421 C   0  0  0  0  0  0  0  0  0  0  0  0
    4.7974    1.3122   19.0941 C   0  0  0  0  0  0  0  0  0  0  0  0
    5.4004    1.3014   17.8298 C   0  0  0  0  0  0  0  0  0  0  0  0
    6.5462    0.6539   17.5681 N   0  0  0  0  0  0  0  0  0  0  0  0
    7.1429    0.0117   18.5788 C   0  0  0  0  0  0  0  0  0  0  0  0
    8.0888   -0.4762   18.3396 H   0  0  0  0  0  0  0  0  0  0  0  0
    4.9422    1.8293   16.9970 H   0  0  0  0  0  0  0  0  0  0  0  0
    3.8709    1.8597   19.2478 H   0  0  0  0  0  0  0  0  0  0  0  0
    4.9945    0.5946   21.1460 H   0  0  0  0  0  0  0  0  0  0  0  0
    8.6093   -0.6785   21.3275 C   0  0  0  0  0  0  0  0  0  0  0  0
    9.6526    0.1726   20.6601 C   0  0  0  0  0  0  0  0  0  0  0  0
   10.7177    0.7090   21.5839 C   0  0  0  0  0  0  0  0  0  0  0  0
   10.7071    1.7967   22.4214 C   0  0  0  0  0  0  0  0  0  0  0  0
   11.8023    1.8002   23.2463 N   0  0  0  0  0  0  0  0  0  0  0  0
   12.4669    0.7213   22.9219 C   0  0  0  0  0  0  0  0  0  0  0  0
   11.8675    0.0229   21.9119 N   0  0  0  0  0  0  0  0  0  0  0  0
   12.2702   -1.2813   21.4201 C   0  0  0  0  0  0  0  0  0  0  0  0
   13.1313   -1.6350   21.9894 H   0  0  0  0  0  0  0  0  0  0  0  0
   11.4414   -1.9780   21.5601 H   0  0  0  0  0  0  0  0  0  0  0  0
   12.5574   -1.2479   20.3642 H   0  0  0  0  0  0  0  0  0  0  0  0
   13.3647    0.3621   23.4139 H   0  0  0  0  0  0  0  0  0  0  0  0
    9.9704    2.5857   22.4947 H   0  0  0  0  0  0  0  0  0  0  0  0
   10.0848   -0.4623   19.8768 H   0  0  0  0  0  0  0  0  0  0  0  0
    9.1498    1.0099   20.1733 H   0  0  0  0  0  0  0  0  0  0  0  0
    8.8158   -1.5208   22.3119 N   0  0  0  0  0  0  0  0  0  0  0  0
    7.9116   -2.5217   25.0013 C   0  0  0  0  0  0  0  0  0  0  0  0
    7.5801   -3.4958   26.1478 C   0  0  0  0  0  0  0  0  0  0  0  0
    8.2277   -3.2712   27.0036 H   0  0  0  0  0  0  0  0  0  0  0  0
    6.5563   -3.2835   26.4868 H   0  0  0  0  0  0  0  0  0  0  0  0
    7.5122   -1.5275   25.2320 H   0  0  0  0  0  0  0  0  0  0  0  0
    8.9970   -2.3936   24.9100 H   0  0  0  0  0  0  0  0  0  0  0  0
    6.2765   -3.1526   23.7454 H   0  0  0  0  0  0  0  0  0  0  0  0
    8.8327   -4.2580   22.5819 H   0  0  0  0  0  0  0  0  0  0  0  0
    7.2485   -4.9996   22.7260 H   0  0  0  0  0  0  0  0  0  0  0  0
    9.5452   -4.8595   24.7083 H   0  0  0  0  0  0  0  0  0  0  0  0
    8.6126   -6.2652   24.2379 H   0  0  0  0  0  0  0  0  0  0  0  0
    8.2038   -5.5297   26.5835 H   0  0  0  0  0  0  0  0  0  0  0  0
    6.2887   -6.6956   25.5043 H   0  0  0  0  0  0  0  0  0  0  0  0
    5.7004   -5.1666   24.8527 H   0  0  0  0  0  0  0  0  0  0  0  0
    5.7181   -5.4356   26.5855 H   0  0  0  0  0  0  0  0  0  0  0  0
  1  2  1  0
  2  3  1  0
  3  4  1  0
  4  5  1  0
  5  6  1  0
  6  7  2  0
  7  8  1  0
  8  9  1  0
  9 10  2  0
 10 11  1  0
 11 12  2  0
 12 13  1  0
 13 14  2  0
 14 15  1  0
 12 16  1  0
 11 17  1  0
 10 18  1  0
  8 19  1  0
 19 20  1  0
 20 21  1  0
 21 22  2  0
 22 23  1  0
 23 24  2  0
 24 25  1  0
 25 26  1  0
 26 27  1  0
 26 28  1  0
 26 29  1  0
 24 30  1  0
 22 31  1  0
 20 32  1  0
 20 33  1  0
 19 34  2  0
  5 35  1  0
 35 36  1  0
 36 37  1  0
 36 38  1  0
 35 39  1  0
 35 40  1  0
  5 41  1  0
  4 42  1  0
  4 43  1  0
  3 44  1  0
  3 45  1  0
  2 46  1  0
  1 47  1  0
  1 48  1  0
  1 49  1  0
 36  2  1  0
 34  6  1  0
 14  9  1  0
 25 21  1  0
M  END
>  <cnnaffinity>  (1) 
-6.57516

>  <filename>  (1) 
CC1CCC(c2nc(Cc3cncn3C)n(-c3cccnc3)n2)CC1

$$$$
