
     RDKit          3D

 52 55  0  0  0  0  0  0  0  0999 V2000
    8.0197   -5.5674   27.1902 C   0  0  0  0  0  0  0  0  0  0  0  0
    8.2607   -4.5257   26.0969 C   0  0  0  0  0  0  0  0  0  0  0  0
    7.1941   -3.4147   26.1267 C   0  0  0  0  0  0  0  0  0  0  0  0
    7.3803   -2.3819   25.0061 C   0  0  0  0  0  0  0  0  0  0  0  0
    7.4036   -3.0631   23.6111 C   0  0  0  0  0  0  0  0  0  0  0  0
    7.6105   -2.0540   22.5209 C   0  0  0  0  0  0  0  0  0  0  0  0
    6.6827   -1.6711   21.6715 N   0  0  0  0  0  0  0  0  0  0  0  0
    7.3226   -0.7250   20.9289 N   0  0  0  0  0  0  0  0  0  0  0  0
    6.6470   -0.0475   19.8748 C   0  0  0  0  0  0  0  0  0  0  0  0
    5.4408    0.6081   20.1335 C   0  0  0  0  0  0  0  0  0  0  0  0
    4.8295    1.3030   19.0881 C   0  0  0  0  0  0  0  0  0  0  0  0
    5.4320    1.3057   17.8222 C   0  0  0  0  0  0  0  0  0  0  0  0
    6.5719    0.6485   17.5577 N   0  0  0  0  0  0  0  0  0  0  0  0
    7.1578   -0.0089   18.5642 C   0  0  0  0  0  0  0  0  0  0  0  0
    8.0685   -0.5473   18.3130 H   0  0  0  0  0  0  0  0  0  0  0  0
    4.9729    1.8463   16.9948 H   0  0  0  0  0  0  0  0  0  0  0  0
    3.9013    1.8436   19.2454 H   0  0  0  0  0  0  0  0  0  0  0  0
    5.0035    0.5573   21.1321 H   0  0  0  0  0  0  0  0  0  0  0  0
    8.5831   -0.5613   21.4175 C   0  0  0  0  0  0  0  0  0  0  0  0
    9.5448    0.4848   21.0141 C   0  0  0  0  0  0  0  0  0  0  0  0
    9.3056    1.8579   21.6332 C   0  0  0  0  0  0  0  0  0  0  0  0
   10.3281    2.6859   21.1213 O   0  0  0  0  0  0  0  0  0  0  0  0
   11.4846    2.8995   21.7988 C   0  0  0  0  0  0  0  0  0  0  0  0
   11.9187    2.2078   22.9419 C   0  0  0  0  0  0  0  0  0  0  0  0
   13.1618    2.5717   23.4842 C   0  0  0  0  0  0  0  0  0  0  0  0
   13.8770    3.6363   22.9248 C   0  0  0  0  0  0  0  0  0  0  0  0
   13.4718    4.2914   21.8255 N   0  0  0  0  0  0  0  0  0  0  0  0
   12.3272    3.9045   21.2661 C   0  0  0  0  0  0  0  0  0  0  0  0
   12.0465    4.3941   20.3359 H   0  0  0  0  0  0  0  0  0  0  0  0
   14.7983    4.0226   23.3442 H   0  0  0  0  0  0  0  0  0  0  0  0
   13.5674    2.0304   24.3316 H   0  0  0  0  0  0  0  0  0  0  0  0
   11.3235    1.4155   23.4027 H   0  0  0  0  0  0  0  0  0  0  0  0
    9.2980    1.8741   22.7328 H   0  0  0  0  0  0  0  0  0  0  0  0
    8.3639    2.2999   21.2908 H   0  0  0  0  0  0  0  0  0  0  0  0
    9.5389    0.6113   19.9302 H   0  0  0  0  0  0  0  0  0  0  0  0
   10.5463    0.1523   21.2995 H   0  0  0  0  0  0  0  0  0  0  0  0
    8.8027   -1.4101   22.3938 N   0  0  0  0  0  0  0  0  0  0  0  0
    8.5016   -4.1534   23.5794 C   0  0  0  0  0  0  0  0  0  0  0  0
    8.3034   -5.1786   24.7022 C   0  0  0  0  0  0  0  0  0  0  0  0
    7.3559   -5.7190   24.5327 H   0  0  0  0  0  0  0  0  0  0  0  0
    9.1049   -5.9287   24.6624 H   0  0  0  0  0  0  0  0  0  0  0  0
    8.5018   -4.6550   22.6038 H   0  0  0  0  0  0  0  0  0  0  0  0
    9.4828   -3.6630   23.6884 H   0  0  0  0  0  0  0  0  0  0  0  0
    6.4235   -3.5277   23.4324 H   0  0  0  0  0  0  0  0  0  0  0  0
    6.5762   -1.6349   25.0484 H   0  0  0  0  0  0  0  0  0  0  0  0
    8.3310   -1.8403   25.1466 H   0  0  0  0  0  0  0  0  0  0  0  0
    6.1967   -3.8767   26.0234 H   0  0  0  0  0  0  0  0  0  0  0  0
    7.2054   -2.9088   27.1016 H   0  0  0  0  0  0  0  0  0  0  0  0
    9.2437   -4.0559   26.2812 H   0  0  0  0  0  0  0  0  0  0  0  0
    8.7919   -6.3425   27.1704 H   0  0  0  0  0  0  0  0  0  0  0  0
    7.0495   -6.0610   27.0492 H   0  0  0  0  0  0  0  0  0  0  0  0
    8.0230   -5.1098   28.1850 H   0  0  0  0  0  0  0  0  0  0  0  0
  1  2  1  0
  2  3  1  0
  3  4  1  0
  4  5  1  0
  5  6  1  0
  6  7  2  0
  7  8  1  0
  8  9  1  0
  9 10  2  0
 10 11  1  0
 11 12  2  0
 12 13  1  0
 13 14  2  0
 14 15  1  0
 12 16  1  0
 11 17  1  0
 10 18  1  0
  8 19  1  0
 19 20  1  0
 20 21  1  0
 21 22  1  0
 22 23  1  0
 23 24  2  0
 24 25  1  0
 25 26  2  0
 26 27  1  0
 27 28  2  0
 28 29  1  0
 26 30  1  0
 25 31  1  0
 24 32  1  0
 21 33  1  0
 21 34  1  0
 20 35  1  0
 20 36  1  0
 19 37  2  0
  5 38  1  0
 38 39  1  0
 39 40  1  0
 39 41  1  0
 38 42  1  0
 38 43  1  0
  5 44  1  0
  4 45  1  0
  4 46  1  0
  3 47  1  0
  3 48  1  0
  2 49  1  0
  1 50  1  0
  1 51  1  0
  1 52  1  0
 39  2  1  0
 37  6  1  0
 14  9  1  0
 28 23  1  0
M  END
>  <cnnaffinity>  (1) 
-6.53552

>  <filename>  (1) 
CC1CCC(c2nc(CCOc3cccnc3)n(-c3cccnc3)n2)CC1

$$$$
