
     RDKit          3D

 53 56  0  0  0  0  0  0  0  0999 V2000
    5.9997    6.0012   23.6291 C   0  0  0  0  0  0  0  0  0  0  0  0
    7.2548    5.2065   23.5199 C   0  0  0  0  0  0  0  0  0  0  0  0
    7.2660    3.9006   23.2952 N   0  0  0  0  0  0  0  0  0  0  0  0
    8.5723    3.5673   23.2372 N   0  0  0  0  0  0  0  0  0  0  0  0
    8.9673    2.2235   22.8568 C   0  0  0  0  0  0  0  0  0  0  0  0
    9.0424    2.0194   21.3375 C   0  0  0  0  0  0  0  0  0  0  0  0
    9.5287    0.6141   20.9455 C   0  0  0  0  0  0  0  0  0  0  0  0
    8.6328   -0.4758   21.4248 C   0  0  0  0  0  0  0  0  0  0  0  0
    8.8649   -1.2920   22.4328 N   0  0  0  0  0  0  0  0  0  0  0  0
    7.6895   -1.9564   22.5616 C   0  0  0  0  0  0  0  0  0  0  0  0
    7.4448   -2.9705   23.6385 C   0  0  0  0  0  0  0  0  0  0  0  0
    7.0811   -4.3547   23.0489 C   0  0  0  0  0  0  0  0  0  0  0  0
    6.5898   -5.3198   24.0951 C   0  0  0  0  0  0  0  0  0  0  0  0
    6.1621   -4.9457   25.3040 C   0  0  0  0  0  0  0  0  0  0  0  0
    6.1849   -3.5113   25.7782 C   0  0  0  0  0  0  0  0  0  0  0  0
    6.3540   -2.5061   24.6306 C   0  0  0  0  0  0  0  0  0  0  0  0
    5.4146   -2.4060   24.0784 H   0  0  0  0  0  0  0  0  0  0  0  0
    6.5922   -1.5132   25.0299 H   0  0  0  0  0  0  0  0  0  0  0  0
    7.0105   -3.3952   26.4935 H   0  0  0  0  0  0  0  0  0  0  0  0
    5.2757   -3.2811   26.3467 H   0  0  0  0  0  0  0  0  0  0  0  0
    5.7809   -5.6928   25.9999 H   0  0  0  0  0  0  0  0  0  0  0  0
    6.5785   -6.3675   23.8101 H   0  0  0  0  0  0  0  0  0  0  0  0
    6.2957   -4.2232   22.2932 H   0  0  0  0  0  0  0  0  0  0  0  0
    7.9380   -4.7805   22.5114 H   0  0  0  0  0  0  0  0  0  0  0  0
    8.3902   -3.0535   24.1817 H   0  0  0  0  0  0  0  0  0  0  0  0
    6.7575   -1.6126   21.6908 N   0  0  0  0  0  0  0  0  0  0  0  0
    7.3719   -0.6671   20.9380 N   0  0  0  0  0  0  0  0  0  0  0  0
    6.6617    0.0056   19.9035 C   0  0  0  0  0  0  0  0  0  0  0  0
    5.4408    0.6400   20.1687 C   0  0  0  0  0  0  0  0  0  0  0  0
    4.8130    1.3083   19.1106 C   0  0  0  0  0  0  0  0  0  0  0  0
    5.4013    1.2958   17.8384 C   0  0  0  0  0  0  0  0  0  0  0  0
    6.5609    0.6743   17.5765 N   0  0  0  0  0  0  0  0  0  0  0  0
    7.1698    0.0555   18.5938 C   0  0  0  0  0  0  0  0  0  0  0  0
    8.1135   -0.4336   18.3688 H   0  0  0  0  0  0  0  0  0  0  0  0
    4.9194    1.7854   16.9940 H   0  0  0  0  0  0  0  0  0  0  0  0
    3.8806    1.8396   19.2611 H   0  0  0  0  0  0  0  0  0  0  0  0
    5.0166    0.6101   21.1755 H   0  0  0  0  0  0  0  0  0  0  0  0
   10.5228    0.4091   21.3543 H   0  0  0  0  0  0  0  0  0  0  0  0
    9.6100    0.5480   19.8579 H   0  0  0  0  0  0  0  0  0  0  0  0
    8.0543    2.2079   20.9015 H   0  0  0  0  0  0  0  0  0  0  0  0
    9.7328    2.7548   20.9117 H   0  0  0  0  0  0  0  0  0  0  0  0
    8.2654    1.5244   23.3122 H   0  0  0  0  0  0  0  0  0  0  0  0
    9.9392    2.0169   23.3101 H   0  0  0  0  0  0  0  0  0  0  0  0
    9.3847    4.6465   23.4027 C   0  0  0  0  0  0  0  0  0  0  0  0
   10.8753    4.6028   23.3604 C   0  0  0  0  0  0  0  0  0  0  0  0
   11.2884    4.0099   24.1846 H   0  0  0  0  0  0  0  0  0  0  0  0
   11.2508    4.1914   22.4144 H   0  0  0  0  0  0  0  0  0  0  0  0
   11.2599    5.6205   23.4529 H   0  0  0  0  0  0  0  0  0  0  0  0
    8.5590    5.7234   23.6015 C   0  0  0  0  0  0  0  0  0  0  0  0
    8.8564    6.7469   23.7793 H   0  0  0  0  0  0  0  0  0  0  0  0
    5.7546    6.4523   22.6632 H   0  0  0  0  0  0  0  0  0  0  0  0
    5.1576    5.3907   23.9554 H   0  0  0  0  0  0  0  0  0  0  0  0
    6.1351    6.8252   24.3335 H   0  0  0  0  0  0  0  0  0  0  0  0
  1  2  1  0
  2  3  2  0
  3  4  1  0
  4  5  1  0
  5  6  1  0
  6  7  1  0
  7  8  1  0
  8  9  2  0
  9 10  1  0
 10 11  1  0
 11 12  1  0
 12 13  1  0
 13 14  2  0
 14 15  1  0
 15 16  1  0
 16 17  1  0
 16 18  1  0
 15 19  1  0
 15 20  1  0
 14 21  1  0
 13 22  1  0
 12 23  1  0
 12 24  1  0
 11 25  1  0
 10 26  2  0
 26 27  1  0
 27 28  1  0
 28 29  2  0
 29 30  1  0
 30 31  2  0
 31 32  1  0
 32 33  2  0
 33 34  1  0
 31 35  1  0
 30 36  1  0
 29 37  1  0
  7 38  1  0
  7 39  1  0
  6 40  1  0
  6 41  1  0
  5 42  1  0
  5 43  1  0
  4 44  1  0
 44 45  1  0
 45 46  1  0
 45 47  1  0
 45 48  1  0
 44 49  2  0
 49 50  1  0
  1 51  1  0
  1 52  1  0
  1 53  1  0
 49  2  1  0
 27  8  1  0
 33 28  1  0
 16 11  1  0
M  END
>  <cnnaffinity>  (1) 
-6.38188

>  <filename>  (1) 
Cc1cc(C)n(CCCc2nc(C3CC=CCC3)nn2-c2cccnc2)n1

$$$$
