
     RDKit          3D

 46 49  0  0  0  0  0  0  0  0999 V2000
    8.3013    2.7418   22.0830 C   0  0  0  0  0  0  0  0  0  0  0  0
    9.6574    2.2663   22.5142 C   0  0  0  0  0  0  0  0  0  0  0  0
   10.3189    2.8950   23.5678 C   0  0  0  0  0  0  0  0  0  0  0  0
   11.5632    2.4223   23.9744 C   0  0  0  0  0  0  0  0  0  0  0  0
   12.1869    1.3795   23.4251 N   0  0  0  0  0  0  0  0  0  0  0  0
   11.5509    0.7882   22.4071 C   0  0  0  0  0  0  0  0  0  0  0  0
   10.3152    1.1874   21.8922 C   0  0  0  0  0  0  0  0  0  0  0  0
    9.6249    0.3770   20.8112 C   0  0  0  0  0  0  0  0  0  0  0  0
    8.6117   -0.5790   21.3562 C   0  0  0  0  0  0  0  0  0  0  0  0
    8.8537   -1.4414   22.3211 N   0  0  0  0  0  0  0  0  0  0  0  0
    7.6413   -2.0215   22.5220 C   0  0  0  0  0  0  0  0  0  0  0  0
    7.4325   -3.0420   23.5969 C   0  0  0  0  0  0  0  0  0  0  0  0
    8.2647   -4.3240   23.3371 C   0  0  0  0  0  0  0  0  0  0  0  0
    8.2406   -5.2766   24.5073 C   0  0  0  0  0  0  0  0  0  0  0  0
    7.8908   -4.9110   25.7435 C   0  0  0  0  0  0  0  0  0  0  0  0
    7.4103   -3.5195   26.0867 C   0  0  0  0  0  0  0  0  0  0  0  0
    7.7496   -2.4826   25.0028 C   0  0  0  0  0  0  0  0  0  0  0  0
    7.1907   -1.5571   25.1845 H   0  0  0  0  0  0  0  0  0  0  0  0
    8.8151   -2.2202   25.0466 H   0  0  0  0  0  0  0  0  0  0  0  0
    7.8183   -3.2017   27.0537 H   0  0  0  0  0  0  0  0  0  0  0  0
    6.3203   -3.5584   26.2273 H   0  0  0  0  0  0  0  0  0  0  0  0
    7.9361   -5.6380   26.5548 H   0  0  0  0  0  0  0  0  0  0  0  0
    8.5448   -6.3045   24.3156 H   0  0  0  0  0  0  0  0  0  0  0  0
    9.3078   -4.0417   23.1357 H   0  0  0  0  0  0  0  0  0  0  0  0
    7.9093   -4.8300   22.4312 H   0  0  0  0  0  0  0  0  0  0  0  0
    6.3693   -3.2957   23.5562 H   0  0  0  0  0  0  0  0  0  0  0  0
    6.6882   -1.6052   21.7158 N   0  0  0  0  0  0  0  0  0  0  0  0
    7.3259   -0.6975   20.9282 N   0  0  0  0  0  0  0  0  0  0  0  0
    6.6449   -0.0032   19.8961 C   0  0  0  0  0  0  0  0  0  0  0  0
    5.4362    0.6468   20.1643 C   0  0  0  0  0  0  0  0  0  0  0  0
    4.8105    1.3146   19.1089 C   0  0  0  0  0  0  0  0  0  0  0  0
    5.4004    1.2965   17.8387 C   0  0  0  0  0  0  0  0  0  0  0  0
    6.5593    0.6734   17.5770 N   0  0  0  0  0  0  0  0  0  0  0  0
    7.1659    0.0483   18.5914 C   0  0  0  0  0  0  0  0  0  0  0  0
    8.1158   -0.4322   18.3681 H   0  0  0  0  0  0  0  0  0  0  0  0
    4.9164    1.7832   16.9951 H   0  0  0  0  0  0  0  0  0  0  0  0
    3.8780    1.8423   19.2621 H   0  0  0  0  0  0  0  0  0  0  0  0
    5.0137    0.6112   21.1720 H   0  0  0  0  0  0  0  0  0  0  0  0
    9.1590    1.0443   20.0822 H   0  0  0  0  0  0  0  0  0  0  0  0
   10.3306   -0.2712   20.2907 H   0  0  0  0  0  0  0  0  0  0  0  0
   12.0433   -0.0780   21.9669 H   0  0  0  0  0  0  0  0  0  0  0  0
   12.0774    2.9116   24.7907 H   0  0  0  0  0  0  0  0  0  0  0  0
    9.8653    3.7461   24.0612 H   0  0  0  0  0  0  0  0  0  0  0  0
    8.3334    3.0712   21.0447 H   0  0  0  0  0  0  0  0  0  0  0  0
    7.9626    3.5838   22.6902 H   0  0  0  0  0  0  0  0  0  0  0  0
    7.5488    1.9486   22.1489 H   0  0  0  0  0  0  0  0  0  0  0  0
  1  2  1  0
  2  3  2  0
  3  4  1  0
  4  5  2  0
  5  6  1  0
  6  7  2  0
  7  8  1  0
  8  9  1  0
  9 10  2  0
 10 11  1  0
 11 12  1  0
 12 13  1  0
 13 14  1  0
 14 15  2  0
 15 16  1  0
 16 17  1  0
 17 18  1  0
 17 19  1  0
 16 20  1  0
 16 21  1  0
 15 22  1  0
 14 23  1  0
 13 24  1  0
 13 25  1  0
 12 26  1  0
 11 27  2  0
 27 28  1  0
 28 29  1  0
 29 30  2  0
 30 31  1  0
 31 32  2  0
 32 33  1  0
 33 34  2  0
 34 35  1  0
 32 36  1  0
 31 37  1  0
 30 38  1  0
  8 39  1  0
  8 40  1  0
  6 41  1  0
  4 42  1  0
  3 43  1  0
  1 44  1  0
  1 45  1  0
  1 46  1  0
  7  2  1  0
 28  9  1  0
 34 29  1  0
 17 12  1  0
M  END
>  <cnnaffinity>  (1) 
-6.42273

>  <filename>  (1) 
Cc1ccncc1Cc1nc(C2CC=CCC2)nn1-c1cccnc1

$$$$
