
     RDKit          3D

 32 34  0  0  0  0  0  0  0  0999 V2000
    4.9383    1.7873   16.9968 H   0  0  0  0  0  0  0  0  0  0  0  0
    5.3992    1.2883   17.8475 C   0  0  0  0  0  0  0  0  0  0  0  0
    6.5590    0.6700   17.5937 N   0  0  0  0  0  0  0  0  0  0  0  0
    7.1668    0.0542   18.6084 C   0  0  0  0  0  0  0  0  0  0  0  0
    8.1128   -0.4213   18.3592 H   0  0  0  0  0  0  0  0  0  0  0  0
    6.6600    0.0036   19.9143 C   0  0  0  0  0  0  0  0  0  0  0  0
    7.3959   -0.7060   20.9572 C   0  0  0  0  0  0  0  0  0  0  0  0
    6.8483   -0.7914   22.2284 N   0  0  0  0  0  0  0  0  0  0  0  0
    7.7127   -1.4641   22.9068 C   0  0  0  0  0  0  0  0  0  0  0  0
    7.6931   -1.8339   24.2052 N   0  0  0  0  0  0  0  0  0  0  0  0
    8.3473   -2.5636   24.4079 H   0  0  0  0  0  0  0  0  0  0  0  0
    6.7146   -1.4363   25.1333 C   0  0  0  0  0  0  0  0  0  0  0  0
    6.2105   -0.1308   25.0793 C   0  0  0  0  0  0  0  0  0  0  0  0
    6.5902    0.5277   24.3014 H   0  0  0  0  0  0  0  0  0  0  0  0
    5.2380    0.2753   25.9955 C   0  0  0  0  0  0  0  0  0  0  0  0
    4.8383    1.2858   25.9342 H   0  0  0  0  0  0  0  0  0  0  0  0
    4.7437   -0.5988   26.9778 C   0  0  0  0  0  0  0  0  0  0  0  0
    3.6947   -0.1344   27.9659 C   0  0  0  0  0  0  0  0  0  0  0  0
    4.1539    0.3120   28.8563 H   0  0  0  0  0  0  0  0  0  0  0  0
    3.0379    0.6286   27.5333 H   0  0  0  0  0  0  0  0  0  0  0  0
    3.0584   -0.9563   28.3115 H   0  0  0  0  0  0  0  0  0  0  0  0
    5.2784   -1.8974   27.0265 C   0  0  0  0  0  0  0  0  0  0  0  0
    4.9170   -2.5855   27.7882 H   0  0  0  0  0  0  0  0  0  0  0  0
    6.2634   -2.3179   26.1213 C   0  0  0  0  0  0  0  0  0  0  0  0
    6.6762   -3.3227   26.1658 H   0  0  0  0  0  0  0  0  0  0  0  0
    8.7958   -1.8650   22.2192 O   0  0  0  0  0  0  0  0  0  0  0  0
    8.5847   -1.3495   20.9527 C   0  0  0  0  0  0  0  0  0  0  0  0
    9.3512   -1.5059   20.2145 H   0  0  0  0  0  0  0  0  0  0  0  0
    5.4355    0.6505   20.1693 C   0  0  0  0  0  0  0  0  0  0  0  0
    5.0039    0.6372   21.1720 H   0  0  0  0  0  0  0  0  0  0  0  0
    4.8046    1.3057   19.1137 C   0  0  0  0  0  0  0  0  0  0  0  0
    3.8739    1.8401   19.2475 H   0  0  0  0  0  0  0  0  0  0  0  0
  1  2  1  0
  2  3  2  0
  3  4  1  0
  4  5  1  0
  4  6  2  0
  6  7  1  0
  7  8  1  0
  8  9  2  0
  9 10  1  0
 10 11  1  0
 10 12  1  0
 12 13  2  0
 13 14  1  0
 13 15  1  0
 15 16  1  0
 15 17  2  0
 17 18  1  0
 18 19  1  0
 18 20  1  0
 18 21  1  0
 17 22  1  0
 22 23  1  0
 22 24  2  0
 24 25  1  0
  9 26  1  0
 26 27  1  0
 27 28  1  0
  6 29  1  0
 29 30  1  0
 29 31  2  0
 31 32  1  0
 31  2  1  0
 27  7  2  0
 24 12  1  0
M  END
>  <cnnaffinity>  (1) 
-5.06362

>  <filename>  (1) 
Cc1ccc(Nc2nc(-c3cccnc3)co2)cc1

$$$$
