
     RDKit          3D

 43 46  0  0  0  0  0  0  0  0999 V2000
   12.2084   -1.3805   21.1004 C   0  0  0  0  0  0  0  0  0  0  0  0
   11.9276   -0.1159   21.8692 C   0  0  0  0  0  0  0  0  0  0  0  0
   12.8386    0.3493   22.8234 C   0  0  0  0  0  0  0  0  0  0  0  0
   12.5547    1.5166   23.5402 C   0  0  0  0  0  0  0  0  0  0  0  0
   11.3618    2.1889   23.2687 C   0  0  0  0  0  0  0  0  0  0  0  0
   10.4773    1.7621   22.3547 N   0  0  0  0  0  0  0  0  0  0  0  0
   10.7499    0.6494   21.6723 C   0  0  0  0  0  0  0  0  0  0  0  0
    9.6806    0.2473   20.6974 C   0  0  0  0  0  0  0  0  0  0  0  0
    8.6486   -0.5614   21.3787 C   0  0  0  0  0  0  0  0  0  0  0  0
    8.8638   -1.4037   22.3668 N   0  0  0  0  0  0  0  0  0  0  0  0
    7.6357   -1.9519   22.5700 C   0  0  0  0  0  0  0  0  0  0  0  0
    7.4320   -3.0176   23.6085 C   0  0  0  0  0  0  0  0  0  0  0  0
    7.5071   -4.4579   23.0248 C   0  0  0  0  0  0  0  0  0  0  0  0
    6.5202   -5.2399   23.9067 C   0  0  0  0  0  0  0  0  0  0  0  0
    5.5088   -4.1647   24.3390 C   0  0  0  0  0  0  0  0  0  0  0  0
    6.1721   -2.9113   24.2566 O   0  0  0  0  0  0  0  0  0  0  0  0
    4.6184   -4.1445   23.6965 H   0  0  0  0  0  0  0  0  0  0  0  0
    5.1595   -4.2882   25.3699 H   0  0  0  0  0  0  0  0  0  0  0  0
    7.0263   -5.6619   24.7832 H   0  0  0  0  0  0  0  0  0  0  0  0
    6.0384   -6.0710   23.3783 H   0  0  0  0  0  0  0  0  0  0  0  0
    8.5339   -4.8439   23.0419 H   0  0  0  0  0  0  0  0  0  0  0  0
    7.1817   -4.4451   21.9749 H   0  0  0  0  0  0  0  0  0  0  0  0
    8.2288   -2.8324   24.3442 H   0  0  0  0  0  0  0  0  0  0  0  0
    6.6932   -1.5417   21.7398 N   0  0  0  0  0  0  0  0  0  0  0  0
    7.3523   -0.6589   20.9507 N   0  0  0  0  0  0  0  0  0  0  0  0
    6.6639    0.0090   19.8965 C   0  0  0  0  0  0  0  0  0  0  0  0
    5.4441    0.6393   20.1568 C   0  0  0  0  0  0  0  0  0  0  0  0
    4.8097    1.3076   19.1066 C   0  0  0  0  0  0  0  0  0  0  0  0
    5.3966    1.2948   17.8361 C   0  0  0  0  0  0  0  0  0  0  0  0
    6.5527    0.6666   17.5722 N   0  0  0  0  0  0  0  0  0  0  0  0
    7.1678    0.0445   18.5856 C   0  0  0  0  0  0  0  0  0  0  0  0
    8.1132   -0.4403   18.3459 H   0  0  0  0  0  0  0  0  0  0  0  0
    4.9293    1.8014   16.9951 H   0  0  0  0  0  0  0  0  0  0  0  0
    3.8784    1.8415   19.2557 H   0  0  0  0  0  0  0  0  0  0  0  0
    5.0252    0.5956   21.1630 H   0  0  0  0  0  0  0  0  0  0  0  0
    9.2237    1.1497   20.2890 H   0  0  0  0  0  0  0  0  0  0  0  0
   10.0597   -0.3890   19.8907 H   0  0  0  0  0  0  0  0  0  0  0  0
   11.0881    3.1011   23.8027 H   0  0  0  0  0  0  0  0  0  0  0  0
   13.2298    1.9033   24.2943 H   0  0  0  0  0  0  0  0  0  0  0  0
   13.7565   -0.2172   22.9977 H   0  0  0  0  0  0  0  0  0  0  0  0
   13.0702   -1.9048   21.5199 H   0  0  0  0  0  0  0  0  0  0  0  0
   12.4561   -1.1637   20.0571 H   0  0  0  0  0  0  0  0  0  0  0  0
   11.3350   -2.0440   21.1313 H   0  0  0  0  0  0  0  0  0  0  0  0
  1  2  1  0
  2  3  2  0
  3  4  1  0
  4  5  2  0
  5  6  1  0
  6  7  2  0
  7  8  1  0
  8  9  1  0
  9 10  2  0
 10 11  1  0
 11 12  1  0
 12 13  1  0
 13 14  1  0
 14 15  1  0
 15 16  1  0
 15 17  1  0
 15 18  1  0
 14 19  1  0
 14 20  1  0
 13 21  1  0
 13 22  1  0
 12 23  1  0
 11 24  2  0
 24 25  1  0
 25 26  1  0
 26 27  2  0
 27 28  1  0
 28 29  2  0
 29 30  1  0
 30 31  2  0
 31 32  1  0
 29 33  1  0
 28 34  1  0
 27 35  1  0
  8 36  1  0
  8 37  1  0
  5 38  1  0
  4 39  1  0
  3 40  1  0
  1 41  1  0
  1 42  1  0
  1 43  1  0
  7  2  1  0
 25  9  1  0
 31 26  1  0
 16 12  1  0
M  END
>  <cnnaffinity>  (1) 
-6.3481

>  <filename>  (1) 
Cc1cccnc1Cc1nc(C2CCCO2)nn1-c1cccnc1

$$$$
