
     RDKit          3D

 47 50  0  0  0  0  0  0  0  0999 V2000
    6.2070    4.8176   27.4766 C   0  0  0  0  0  0  0  0  0  0  0  0
    5.8520    3.6524   26.5823 C   0  0  0  0  0  0  0  0  0  0  0  0
    4.5259    3.2213   26.3921 C   0  0  0  0  0  0  0  0  0  0  0  0
    4.1710    2.1886   25.6187 N   0  0  0  0  0  0  0  0  0  0  0  0
    5.1456    1.5389   24.9701 C   0  0  0  0  0  0  0  0  0  0  0  0
    6.5040    1.8842   25.0460 C   0  0  0  0  0  0  0  0  0  0  0  0
    7.5332    1.2015   24.1885 C   0  0  0  0  0  0  0  0  0  0  0  0
    7.6394    1.8130   22.7629 C   0  0  0  0  0  0  0  0  0  0  0  0
    8.6377    1.0506   21.9593 C   0  0  0  0  0  0  0  0  0  0  0  0
    9.9464    1.1983   22.0797 N   0  0  0  0  0  0  0  0  0  0  0  0
   10.4345    0.0189   21.6263 C   0  0  0  0  0  0  0  0  0  0  0  0
   11.8703   -0.3775   21.7469 C   0  0  0  0  0  0  0  0  0  0  0  0
   12.2952   -1.6313   21.2680 C   0  0  0  0  0  0  0  0  0  0  0  0
   13.6421   -1.9744   21.3304 C   0  0  0  0  0  0  0  0  0  0  0  0
   14.5566   -1.1985   21.9158 N   0  0  0  0  0  0  0  0  0  0  0  0
   14.1581   -0.0102   22.3819 C   0  0  0  0  0  0  0  0  0  0  0  0
   12.8460    0.4583   22.3214 C   0  0  0  0  0  0  0  0  0  0  0  0
   12.6145    1.4577   22.6800 H   0  0  0  0  0  0  0  0  0  0  0  0
   14.9359    0.6153   22.8097 H   0  0  0  0  0  0  0  0  0  0  0  0
   14.0185   -2.8956   20.8867 H   0  0  0  0  0  0  0  0  0  0  0  0
   11.5582   -2.2845   20.8285 H   0  0  0  0  0  0  0  0  0  0  0  0
    9.5080   -0.8113   21.1715 N   0  0  0  0  0  0  0  0  0  0  0  0
    8.3612   -0.1391   21.3743 N   0  0  0  0  0  0  0  0  0  0  0  0
    7.0828   -0.7301   20.9838 C   0  0  0  0  0  0  0  0  0  0  0  0
    6.3932    0.0156   19.8628 C   0  0  0  0  0  0  0  0  0  0  0  0
    5.1771    0.6924   20.0136 C   0  0  0  0  0  0  0  0  0  0  0  0
    4.6605    1.3956   18.9204 C   0  0  0  0  0  0  0  0  0  0  0  0
    5.3727    1.3856   17.7185 C   0  0  0  0  0  0  0  0  0  0  0  0
    6.5250    0.7183   17.5477 N   0  0  0  0  0  0  0  0  0  0  0  0
    7.0155    0.0640   18.6055 C   0  0  0  0  0  0  0  0  0  0  0  0
    7.9644   -0.4531   18.4552 H   0  0  0  0  0  0  0  0  0  0  0  0
    5.0116    1.9394   16.8528 H   0  0  0  0  0  0  0  0  0  0  0  0
    3.7465    1.9744   18.9960 H   0  0  0  0  0  0  0  0  0  0  0  0
    4.6502    0.6836   20.9709 H   0  0  0  0  0  0  0  0  0  0  0  0
    6.4408   -0.7870   21.8697 H   0  0  0  0  0  0  0  0  0  0  0  0
    7.3133   -1.7589   20.6875 H   0  0  0  0  0  0  0  0  0  0  0  0
    6.6666    1.8060   22.2636 H   0  0  0  0  0  0  0  0  0  0  0  0
    7.9688    2.8524   22.8261 H   0  0  0  0  0  0  0  0  0  0  0  0
    7.3055    0.1287   24.0955 H   0  0  0  0  0  0  0  0  0  0  0  0
    8.5238    1.2585   24.6611 H   0  0  0  0  0  0  0  0  0  0  0  0
    6.8454    2.9480   25.8923 C   0  0  0  0  0  0  0  0  0  0  0  0
    7.8930    3.2345   26.0222 H   0  0  0  0  0  0  0  0  0  0  0  0
    4.8227    0.6971   24.3564 H   0  0  0  0  0  0  0  0  0  0  0  0
    3.7068    3.7427   26.8876 H   0  0  0  0  0  0  0  0  0  0  0  0
    6.4543    4.4867   28.4921 H   0  0  0  0  0  0  0  0  0  0  0  0
    7.0791    5.3526   27.0853 H   0  0  0  0  0  0  0  0  0  0  0  0
    5.3865    5.5384   27.5596 H   0  0  0  0  0  0  0  0  0  0  0  0
  1  2  1  0
  2  3  2  0
  3  4  1  0
  4  5  2  0
  5  6  1  0
  6  7  1  0
  7  8  1  0
  8  9  1  0
  9 10  2  0
 10 11  1  0
 11 12  1  0
 12 13  2  0
 13 14  1  0
 14 15  2  0
 15 16  1  0
 16 17  2  0
 17 18  1  0
 16 19  1  0
 14 20  1  0
 13 21  1  0
 11 22  2  0
 22 23  1  0
 23 24  1  0
 24 25  1  0
 25 26  2  0
 26 27  1  0
 27 28  2  0
 28 29  1  0
 29 30  2  0
 30 31  1  0
 28 32  1  0
 27 33  1  0
 26 34  1  0
 24 35  1  0
 24 36  1  0
  8 37  1  0
  8 38  1  0
  7 39  1  0
  7 40  1  0
  6 41  2  0
 41 42  1  0
  5 43  1  0
  3 44  1  0
  1 45  1  0
  1 46  1  0
  1 47  1  0
 41  2  1  0
 23  9  1  0
 30 25  1  0
 17 12  1  0
M  END
>  <cnnaffinity>  (1) 
-6.62725

>  <filename>  (1) 
Cc1cncc(CCc2nc(-c3ccncc3)nn2Cc2cccnc2)c1

$$$$
