
     RDKit          3D

 45 48  0  0  0  0  0  0  0  0999 V2000
    8.2810    2.7408   22.0669 C   0  0  0  0  0  0  0  0  0  0  0  0
    9.6424    2.2778   22.5057 C   0  0  0  0  0  0  0  0  0  0  0  0
   10.2944    2.9178   23.5588 C   0  0  0  0  0  0  0  0  0  0  0  0
   11.5410    2.4548   23.9756 C   0  0  0  0  0  0  0  0  0  0  0  0
   12.1693    1.4128   23.4334 N   0  0  0  0  0  0  0  0  0  0  0  0
   11.5455    0.8119   22.4150 C   0  0  0  0  0  0  0  0  0  0  0  0
   10.3080    1.1995   21.8920 C   0  0  0  0  0  0  0  0  0  0  0  0
    9.6290    0.3764   20.8162 C   0  0  0  0  0  0  0  0  0  0  0  0
    8.6165   -0.5717   21.3614 C   0  0  0  0  0  0  0  0  0  0  0  0
    8.8609   -1.4498   22.3175 N   0  0  0  0  0  0  0  0  0  0  0  0
    7.6544   -2.0341   22.5025 C   0  0  0  0  0  0  0  0  0  0  0  0
    7.3975   -3.0433   23.5845 C   0  0  0  0  0  0  0  0  0  0  0  0
    6.4206   -2.5190   24.6518 C   0  0  0  0  0  0  0  0  0  0  0  0
    6.2774   -3.2605   25.4446 H   0  0  0  0  0  0  0  0  0  0  0  0
    6.7930   -1.5942   25.1056 H   0  0  0  0  0  0  0  0  0  0  0  0
    5.4485   -2.3090   24.1962 H   0  0  0  0  0  0  0  0  0  0  0  0
    6.9266   -4.3593   22.9815 C   0  0  0  0  0  0  0  0  0  0  0  0
    7.9443   -5.2864   22.3958 C   0  0  0  0  0  0  0  0  0  0  0  0
    7.2393   -5.6441   23.6789 C   0  0  0  0  0  0  0  0  0  0  0  0
    7.8082   -5.5872   24.6058 H   0  0  0  0  0  0  0  0  0  0  0  0
    6.4991   -6.4366   23.6542 H   0  0  0  0  0  0  0  0  0  0  0  0
    8.9847   -4.9805   22.4665 H   0  0  0  0  0  0  0  0  0  0  0  0
    7.7074   -5.8461   21.4934 H   0  0  0  0  0  0  0  0  0  0  0  0
    5.9669   -4.2910   22.4713 H   0  0  0  0  0  0  0  0  0  0  0  0
    8.3728   -3.2121   24.0547 H   0  0  0  0  0  0  0  0  0  0  0  0
    6.6957   -1.6035   21.6999 N   0  0  0  0  0  0  0  0  0  0  0  0
    7.3344   -0.6921   20.9260 N   0  0  0  0  0  0  0  0  0  0  0  0
    6.6428   -0.0048   19.8955 C   0  0  0  0  0  0  0  0  0  0  0  0
    5.4344    0.6425   20.1645 C   0  0  0  0  0  0  0  0  0  0  0  0
    4.8111    1.3131   19.1096 C   0  0  0  0  0  0  0  0  0  0  0  0
    5.3982    1.2972   17.8384 C   0  0  0  0  0  0  0  0  0  0  0  0
    6.5552    0.6720   17.5757 N   0  0  0  0  0  0  0  0  0  0  0  0
    7.1615    0.0450   18.5890 C   0  0  0  0  0  0  0  0  0  0  0  0
    8.1129   -0.4331   18.3641 H   0  0  0  0  0  0  0  0  0  0  0  0
    4.9196    1.7867   16.9948 H   0  0  0  0  0  0  0  0  0  0  0  0
    3.8801    1.8414   19.2608 H   0  0  0  0  0  0  0  0  0  0  0  0
    5.0138    0.6102   21.1734 H   0  0  0  0  0  0  0  0  0  0  0  0
   10.3408   -0.2789   20.3137 H   0  0  0  0  0  0  0  0  0  0  0  0
    9.1635    1.0312   20.0767 H   0  0  0  0  0  0  0  0  0  0  0  0
   12.0470   -0.0558   21.9870 H   0  0  0  0  0  0  0  0  0  0  0  0
   12.0531    2.9513   24.7904 H   0  0  0  0  0  0  0  0  0  0  0  0
    9.8332    3.7681   24.0435 H   0  0  0  0  0  0  0  0  0  0  0  0
    8.3145    3.0532   21.0235 H   0  0  0  0  0  0  0  0  0  0  0  0
    7.9390    3.5901   22.6626 H   0  0  0  0  0  0  0  0  0  0  0  0
    7.5296    1.9456   22.1401 H   0  0  0  0  0  0  0  0  0  0  0  0
  1  2  1  0
  2  3  2  0
  3  4  1  0
  4  5  2  0
  5  6  1  0
  6  7  2  0
  7  8  1  0
  8  9  1  0
  9 10  2  0
 10 11  1  0
 11 12  1  0
 12 13  1  0
 13 14  1  0
 13 15  1  0
 13 16  1  0
 12 17  1  0
 17 18  1  0
 18 19  1  0
 19 20  1  0
 19 21  1  0
 18 22  1  0
 18 23  1  0
 17 24  1  0
 12 25  1  0
 11 26  2  0
 26 27  1  0
 27 28  1  0
 28 29  2  0
 29 30  1  0
 30 31  2  0
 31 32  1  0
 32 33  2  0
 33 34  1  0
 31 35  1  0
 30 36  1  0
 29 37  1  0
  8 38  1  0
  8 39  1  0
  6 40  1  0
  4 41  1  0
  3 42  1  0
  1 43  1  0
  1 44  1  0
  1 45  1  0
  7  2  1  0
 27  9  1  0
 33 28  1  0
 19 17  1  0
M  END
>  <cnnaffinity>  (1) 
-6.24646

>  <filename>  (1) 
Cc1ccncc1Cc1nc(C(C)C2CC2)nn1-c1cccnc1

$$$$
