
     RDKit          3D

 45 48  0  0  0  0  0  0  0  0999 V2000
    9.0340   -0.2847   27.1235 C   0  0  0  0  0  0  0  0  0  0  0  0
    7.9239    0.0658   26.1624 C   0  0  0  0  0  0  0  0  0  0  0  0
    6.6068   -0.4063   26.3185 C   0  0  0  0  0  0  0  0  0  0  0  0
    5.6041   -0.1322   25.4773 N   0  0  0  0  0  0  0  0  0  0  0  0
    5.8794    0.6231   24.4024 C   0  0  0  0  0  0  0  0  0  0  0  0
    7.1469    1.1465   24.1249 C   0  0  0  0  0  0  0  0  0  0  0  0
    7.5235    1.8368   22.8069 C   0  0  0  0  0  0  0  0  0  0  0  0
    8.5470    1.0019   22.0856 C   0  0  0  0  0  0  0  0  0  0  0  0
    9.8554    1.0989   22.2683 N   0  0  0  0  0  0  0  0  0  0  0  0
   10.3087   -0.1274   21.9122 C   0  0  0  0  0  0  0  0  0  0  0  0
   11.7304   -0.5309   21.8878 C   0  0  0  0  0  0  0  0  0  0  0  0
   12.8082    0.2777   22.3013 C   0  0  0  0  0  0  0  0  0  0  0  0
   14.1106   -0.0609   21.9128 C   0  0  0  0  0  0  0  0  0  0  0  0
   14.3197   -1.1568   21.0589 C   0  0  0  0  0  0  0  0  0  0  0  0
   13.2745   -2.0235   20.7847 C   0  0  0  0  0  0  0  0  0  0  0  0
   12.0032   -1.7598   21.2692 C   0  0  0  0  0  0  0  0  0  0  0  0
   11.1723   -2.4397   21.1305 H   0  0  0  0  0  0  0  0  0  0  0  0
   13.4738   -2.8722   20.1453 H   0  0  0  0  0  0  0  0  0  0  0  0
   15.2340   -1.3640   20.5189 H   0  0  0  0  0  0  0  0  0  0  0  0
   14.9395    0.5726   22.2183 H   0  0  0  0  0  0  0  0  0  0  0  0
   12.6227    1.1756   22.8886 H   0  0  0  0  0  0  0  0  0  0  0  0
    9.3564   -0.9398   21.4688 N   0  0  0  0  0  0  0  0  0  0  0  0
    8.2356   -0.1990   21.5508 N   0  0  0  0  0  0  0  0  0  0  0  0
    6.9807   -0.7428   21.0258 C   0  0  0  0  0  0  0  0  0  0  0  0
    6.3647    0.0378   19.8809 C   0  0  0  0  0  0  0  0  0  0  0  0
    5.1422    0.7111   19.9857 C   0  0  0  0  0  0  0  0  0  0  0  0
    4.6517    1.4121   18.8796 C   0  0  0  0  0  0  0  0  0  0  0  0
    5.3978    1.4034   17.6978 C   0  0  0  0  0  0  0  0  0  0  0  0
    6.5590    0.7428   17.5673 N   0  0  0  0  0  0  0  0  0  0  0  0
    7.0210    0.0872   18.6389 C   0  0  0  0  0  0  0  0  0  0  0  0
    7.9664   -0.4373   18.5020 H   0  0  0  0  0  0  0  0  0  0  0  0
    5.0502    1.9436   16.8171 H   0  0  0  0  0  0  0  0  0  0  0  0
    3.7248    1.9725   18.9224 H   0  0  0  0  0  0  0  0  0  0  0  0
    4.5767    0.6934   20.9196 H   0  0  0  0  0  0  0  0  0  0  0  0
    7.2293   -1.7568   20.6954 H   0  0  0  0  0  0  0  0  0  0  0  0
    6.2707   -0.8360   21.8529 H   0  0  0  0  0  0  0  0  0  0  0  0
    7.9954    2.8022   23.0057 H   0  0  0  0  0  0  0  0  0  0  0  0
    6.6533    2.0081   22.1667 H   0  0  0  0  0  0  0  0  0  0  0  0
    8.1635    0.8817   25.0577 C   0  0  0  0  0  0  0  0  0  0  0  0
    9.1611    1.2917   24.8913 H   0  0  0  0  0  0  0  0  0  0  0  0
    5.0480    0.8074   23.7201 H   0  0  0  0  0  0  0  0  0  0  0  0
    6.3563   -1.0326   27.1739 H   0  0  0  0  0  0  0  0  0  0  0  0
    8.8010    0.0600   28.1379 H   0  0  0  0  0  0  0  0  0  0  0  0
    9.9717    0.1895   26.8179 H   0  0  0  0  0  0  0  0  0  0  0  0
    9.2138   -1.3661   27.1660 H   0  0  0  0  0  0  0  0  0  0  0  0
  1  2  1  0
  2  3  2  0
  3  4  1  0
  4  5  2  0
  5  6  1  0
  6  7  1  0
  7  8  1  0
  8  9  2  0
  9 10  1  0
 10 11  1  0
 11 12  2  0
 12 13  1  0
 13 14  2  0
 14 15  1  0
 15 16  2  0
 16 17  1  0
 15 18  1  0
 14 19  1  0
 13 20  1  0
 12 21  1  0
 10 22  2  0
 22 23  1  0
 23 24  1  0
 24 25  1  0
 25 26  2  0
 26 27  1  0
 27 28  2  0
 28 29  1  0
 29 30  2  0
 30 31  1  0
 28 32  1  0
 27 33  1  0
 26 34  1  0
 24 35  1  0
 24 36  1  0
  7 37  1  0
  7 38  1  0
  6 39  2  0
 39 40  1  0
  5 41  1  0
  3 42  1  0
  1 43  1  0
  1 44  1  0
  1 45  1  0
 39  2  1  0
 23  8  1  0
 30 25  1  0
 16 11  1  0
M  END
>  <cnnaffinity>  (1) 
-6.5579

>  <filename>  (1) 
Cc1cncc(Cc2nc(-c3ccccc3)nn2Cc2cccnc2)c1

$$$$
