
     RDKit          3D

 48 51  0  0  0  0  0  0  0  0999 V2000
    4.8492   -0.7971   26.1204 C   0  0  0  0  0  0  0  0  0  0  0  0
    6.0373    0.0831   25.8247 C   0  0  0  0  0  0  0  0  0  0  0  0
    7.1195    0.1981   26.7135 C   0  0  0  0  0  0  0  0  0  0  0  0
    8.1942    0.9622   26.4975 N   0  0  0  0  0  0  0  0  0  0  0  0
    8.2636    1.6124   25.3343 C   0  0  0  0  0  0  0  0  0  0  0  0
    7.2777    1.5496   24.3335 C   0  0  0  0  0  0  0  0  0  0  0  0
    7.5898    2.0844   22.9369 C   0  0  0  0  0  0  0  0  0  0  0  0
    8.5806    1.1808   22.2647 C   0  0  0  0  0  0  0  0  0  0  0  0
    9.8949    1.2645   22.3849 N   0  0  0  0  0  0  0  0  0  0  0  0
   10.3365    0.0780   21.8896 C   0  0  0  0  0  0  0  0  0  0  0  0
   11.7282   -0.4028   21.8296 C   0  0  0  0  0  0  0  0  0  0  0  0
   11.9328   -1.5816   21.0969 C   0  0  0  0  0  0  0  0  0  0  0  0
   13.2035   -1.9493   20.7040 C   0  0  0  0  0  0  0  0  0  0  0  0
   14.2864   -1.2138   21.1519 C   0  0  0  0  0  0  0  0  0  0  0  0
   14.1118   -0.1530   22.0510 C   0  0  0  0  0  0  0  0  0  0  0  0
   12.8275    0.2696   22.4263 C   0  0  0  0  0  0  0  0  0  0  0  0
   12.6345    1.3312   23.4858 C   0  0  0  0  0  0  0  0  0  0  0  0
   11.9854    0.9428   24.2797 H   0  0  0  0  0  0  0  0  0  0  0  0
   13.5832    1.6312   23.9465 H   0  0  0  0  0  0  0  0  0  0  0  0
   12.1286    2.2113   23.0781 H   0  0  0  0  0  0  0  0  0  0  0  0
   14.9710    0.3804   22.4512 H   0  0  0  0  0  0  0  0  0  0  0  0
   15.2251   -1.5013   20.7196 H   0  0  0  0  0  0  0  0  0  0  0  0
   13.3586   -2.7839   20.0288 H   0  0  0  0  0  0  0  0  0  0  0  0
   11.0614   -2.1535   20.7993 H   0  0  0  0  0  0  0  0  0  0  0  0
    9.3576   -0.6893   21.4287 N   0  0  0  0  0  0  0  0  0  0  0  0
    8.2428    0.0062   21.6988 N   0  0  0  0  0  0  0  0  0  0  0  0
    6.9441   -0.5343   21.3062 C   0  0  0  0  0  0  0  0  0  0  0  0
    6.3548    0.1519   20.0952 C   0  0  0  0  0  0  0  0  0  0  0  0
    5.1325    0.8305   20.0940 C   0  0  0  0  0  0  0  0  0  0  0  0
    4.7270    1.4767   18.9221 C   0  0  0  0  0  0  0  0  0  0  0  0
    5.5446    1.3908   17.7907 C   0  0  0  0  0  0  0  0  0  0  0  0
    6.7037    0.7151   17.7610 N   0  0  0  0  0  0  0  0  0  0  0  0
    7.0919    0.1280   18.8970 C   0  0  0  0  0  0  0  0  0  0  0  0
    8.0448   -0.4006   18.8712 H   0  0  0  0  0  0  0  0  0  0  0  0
    5.2544    1.8782   16.8630 H   0  0  0  0  0  0  0  0  0  0  0  0
    3.8077    2.0502   18.8753 H   0  0  0  0  0  0  0  0  0  0  0  0
    4.5071    0.8640   20.9909 H   0  0  0  0  0  0  0  0  0  0  0  0
    6.2792   -0.4931   22.1725 H   0  0  0  0  0  0  0  0  0  0  0  0
    7.1411   -1.5901   21.0913 H   0  0  0  0  0  0  0  0  0  0  0  0
    6.6884    2.1604   22.3192 H   0  0  0  0  0  0  0  0  0  0  0  0
    8.0436    3.0797   22.9870 H   0  0  0  0  0  0  0  0  0  0  0  0
    6.1271    0.8154   24.6287 C   0  0  0  0  0  0  0  0  0  0  0  0
    5.2926    0.7961   23.9233 H   0  0  0  0  0  0  0  0  0  0  0  0
    9.1644    2.2006   25.1589 H   0  0  0  0  0  0  0  0  0  0  0  0
    7.1174   -0.3543   27.6544 H   0  0  0  0  0  0  0  0  0  0  0  0
    4.6646   -0.8830   27.1960 H   0  0  0  0  0  0  0  0  0  0  0  0
    5.0023   -1.8124   25.7380 H   0  0  0  0  0  0  0  0  0  0  0  0
    3.9432   -0.4050   25.6486 H   0  0  0  0  0  0  0  0  0  0  0  0
  1  2  1  0
  2  3  2  0
  3  4  1  0
  4  5  2  0
  5  6  1  0
  6  7  1  0
  7  8  1  0
  8  9  2  0
  9 10  1  0
 10 11  1  0
 11 12  2  0
 12 13  1  0
 13 14  2  0
 14 15  1  0
 15 16  2  0
 16 17  1  0
 17 18  1  0
 17 19  1  0
 17 20  1  0
 15 21  1  0
 14 22  1  0
 13 23  1  0
 12 24  1  0
 10 25  2  0
 25 26  1  0
 26 27  1  0
 27 28  1  0
 28 29  2  0
 29 30  1  0
 30 31  2  0
 31 32  1  0
 32 33  2  0
 33 34  1  0
 31 35  1  0
 30 36  1  0
 29 37  1  0
 27 38  1  0
 27 39  1  0
  7 40  1  0
  7 41  1  0
  6 42  2  0
 42 43  1  0
  5 44  1  0
  3 45  1  0
  1 46  1  0
  1 47  1  0
  1 48  1  0
 42  2  1  0
 26  8  1  0
 33 28  1  0
 16 11  1  0
M  END
>  <cnnaffinity>  (1) 
-6.68725

>  <filename>  (1) 
Cc1cncc(Cc2nc(-c3ccccc3C)nn2Cc2cccnc2)c1

$$$$
