
     RDKit          3D

 43 46  0  0  0  0  0  0  0  0999 V2000
    9.3553    1.2517   25.1911 C   0  0  0  0  0  0  0  0  0  0  0  0
    7.8891    1.0178   24.9669 C   0  0  0  0  0  0  0  0  0  0  0  0
    7.0315    0.2680   25.7407 C   0  0  0  0  0  0  0  0  0  0  0  0
    5.8127    0.2552   25.0365 C   0  0  0  0  0  0  0  0  0  0  0  0
    5.9068    0.9373   23.9019 N   0  0  0  0  0  0  0  0  0  0  0  0
    7.1609    1.4239   23.8823 N   0  0  0  0  0  0  0  0  0  0  0  0
    7.6478    2.0005   22.6300 C   0  0  0  0  0  0  0  0  0  0  0  0
    8.6108    1.0598   21.9971 C   0  0  0  0  0  0  0  0  0  0  0  0
    9.9229    1.1501   22.1419 N   0  0  0  0  0  0  0  0  0  0  0  0
   10.3482   -0.1024   21.8397 C   0  0  0  0  0  0  0  0  0  0  0  0
   11.7570   -0.5286   21.8142 C   0  0  0  0  0  0  0  0  0  0  0  0
   12.0312   -1.7115   21.1164 C   0  0  0  0  0  0  0  0  0  0  0  0
   13.3162   -1.9375   20.6798 C   0  0  0  0  0  0  0  0  0  0  0  0
   13.5936   -2.9174   19.8211 F   0  0  0  0  0  0  0  0  0  0  0  0
   14.3688   -1.1228   21.0296 C   0  0  0  0  0  0  0  0  0  0  0  0
   14.1068   -0.0648   21.9016 C   0  0  0  0  0  0  0  0  0  0  0  0
   15.0952    0.7292   22.3086 F   0  0  0  0  0  0  0  0  0  0  0  0
   12.8107    0.2723   22.2810 C   0  0  0  0  0  0  0  0  0  0  0  0
   12.6556    1.1722   22.8618 H   0  0  0  0  0  0  0  0  0  0  0  0
   15.2568   -1.3089   20.4528 H   0  0  0  0  0  0  0  0  0  0  0  0
   11.2108   -2.3665   20.8843 H   0  0  0  0  0  0  0  0  0  0  0  0
    9.3794   -0.9221   21.4596 N   0  0  0  0  0  0  0  0  0  0  0  0
    8.2686   -0.1665   21.5490 N   0  0  0  0  0  0  0  0  0  0  0  0
    7.0004   -0.7140   21.0780 C   0  0  0  0  0  0  0  0  0  0  0  0
    6.3732    0.0486   19.9336 C   0  0  0  0  0  0  0  0  0  0  0  0
    5.1915    0.7817   20.0891 C   0  0  0  0  0  0  0  0  0  0  0  0
    4.6737    1.4650   18.9835 C   0  0  0  0  0  0  0  0  0  0  0  0
    5.3596    1.3899   17.7674 C   0  0  0  0  0  0  0  0  0  0  0  0
    6.4888    0.6847   17.5979 N   0  0  0  0  0  0  0  0  0  0  0  0
    6.9755    0.0403   18.6641 C   0  0  0  0  0  0  0  0  0  0  0  0
    7.8982   -0.5167   18.5007 H   0  0  0  0  0  0  0  0  0  0  0  0
    4.9893    1.9162   16.8890 H   0  0  0  0  0  0  0  0  0  0  0  0
    3.7711    2.0622   19.0515 H   0  0  0  0  0  0  0  0  0  0  0  0
    4.7084    0.8298   21.0706 H   0  0  0  0  0  0  0  0  0  0  0  0
    6.3133   -0.7725   21.9254 H   0  0  0  0  0  0  0  0  0  0  0  0
    7.2395   -1.7353   20.7690 H   0  0  0  0  0  0  0  0  0  0  0  0
    8.1552    2.9471   22.8266 H   0  0  0  0  0  0  0  0  0  0  0  0
    6.7828    2.1730   21.9925 H   0  0  0  0  0  0  0  0  0  0  0  0
    4.8872   -0.2454   25.2912 H   0  0  0  0  0  0  0  0  0  0  0  0
    7.2796   -0.2192   26.6749 H   0  0  0  0  0  0  0  0  0  0  0  0
    9.5780    1.2104   26.2586 H   0  0  0  0  0  0  0  0  0  0  0  0
    9.7034    2.2009   24.7765 H   0  0  0  0  0  0  0  0  0  0  0  0
    9.9340    0.4596   24.7008 H   0  0  0  0  0  0  0  0  0  0  0  0
  1  2  1  0
  2  3  2  0
  3  4  1  0
  4  5  2  0
  5  6  1  0
  6  7  1  0
  7  8  1  0
  8  9  2  0
  9 10  1  0
 10 11  1  0
 11 12  2  0
 12 13  1  0
 13 14  1  0
 13 15  2  0
 15 16  1  0
 16 17  1  0
 16 18  2  0
 18 19  1  0
 15 20  1  0
 12 21  1  0
 10 22  2  0
 22 23  1  0
 23 24  1  0
 24 25  1  0
 25 26  2  0
 26 27  1  0
 27 28  2  0
 28 29  1  0
 29 30  2  0
 30 31  1  0
 28 32  1  0
 27 33  1  0
 26 34  1  0
 24 35  1  0
 24 36  1  0
  7 37  1  0
  7 38  1  0
  4 39  1  0
  3 40  1  0
  1 41  1  0
  1 42  1  0
  1 43  1  0
  6  2  1  0
 23  8  1  0
 30 25  1  0
 18 11  1  0
M  END
>  <cnnaffinity>  (1) 
-6.66337

>  <filename>  (1) 
Cc1ccnn1Cc1nc(-c2cc(F)cc(F)c2)nn1Cc1cccnc1

$$$$
