
     RDKit          3D

 50 53  0  0  0  0  0  0  0  0999 V2000
   10.5761    2.9486   23.4536 C   0  0  0  0  0  0  0  0  0  0  0  0
   10.4538    1.6922   24.2816 C   0  0  0  0  0  0  0  0  0  0  0  0
   11.5359    1.2294   25.0418 C   0  0  0  0  0  0  0  0  0  0  0  0
   11.4257    0.2738   25.9772 N   0  0  0  0  0  0  0  0  0  0  0  0
   10.2529   -0.3231   26.1537 C   0  0  0  0  0  0  0  0  0  0  0  0
    9.1740   -0.1005   25.2887 C   0  0  0  0  0  0  0  0  0  0  0  0
    8.1030   -1.0340   25.3344 N   0  0  0  0  0  0  0  0  0  0  0  0
    7.5907   -1.4554   26.5171 N   0  0  0  0  0  0  0  0  0  0  0  0
    6.7030   -2.3667   26.1475 C   0  0  0  0  0  0  0  0  0  0  0  0
    5.8099   -3.0738   27.1277 C   0  0  0  0  0  0  0  0  0  0  0  0
    6.5158   -4.2871   27.8084 C   0  0  0  0  0  0  0  0  0  0  0  0
    5.8521   -4.7231   29.0947 C   0  0  0  0  0  0  0  0  0  0  0  0
    4.8283   -4.0747   29.6560 C   0  0  0  0  0  0  0  0  0  0  0  0
    4.2687   -2.7785   29.1234 C   0  0  0  0  0  0  0  0  0  0  0  0
    5.2370   -2.0798   28.1646 C   0  0  0  0  0  0  0  0  0  0  0  0
    6.0702   -1.6088   28.7024 H   0  0  0  0  0  0  0  0  0  0  0  0
    4.7100   -1.2743   27.6445 H   0  0  0  0  0  0  0  0  0  0  0  0
    4.0023   -2.1058   29.9487 H   0  0  0  0  0  0  0  0  0  0  0  0
    3.3210   -2.9881   28.6056 H   0  0  0  0  0  0  0  0  0  0  0  0
    4.3566   -4.4773   30.5494 H   0  0  0  0  0  0  0  0  0  0  0  0
    6.2682   -5.6045   29.5870 H   0  0  0  0  0  0  0  0  0  0  0  0
    6.5549   -5.1263   27.1018 H   0  0  0  0  0  0  0  0  0  0  0  0
    7.5681   -4.0622   28.0221 H   0  0  0  0  0  0  0  0  0  0  0  0
    4.9714   -3.4699   26.5396 H   0  0  0  0  0  0  0  0  0  0  0  0
    6.6701   -2.6155   24.8111 N   0  0  0  0  0  0  0  0  0  0  0  0
    7.5741   -1.7835   24.3293 C   0  0  0  0  0  0  0  0  0  0  0  0
    7.9218   -1.6495   22.8935 C   0  0  0  0  0  0  0  0  0  0  0  0
    6.9173   -0.7847   22.1438 C   0  0  0  0  0  0  0  0  0  0  0  0
    7.4142   -0.6727   20.8194 O   0  0  0  0  0  0  0  0  0  0  0  0
    6.6795   -0.0083   19.8925 C   0  0  0  0  0  0  0  0  0  0  0  0
    5.4606    0.6377   20.1372 C   0  0  0  0  0  0  0  0  0  0  0  0
    4.8343    1.2983   19.0722 C   0  0  0  0  0  0  0  0  0  0  0  0
    5.4405    1.2894   17.8137 C   0  0  0  0  0  0  0  0  0  0  0  0
    6.6050    0.6602   17.5604 N   0  0  0  0  0  0  0  0  0  0  0  0
    7.2028    0.0315   18.5769 C   0  0  0  0  0  0  0  0  0  0  0  0
    8.1419   -0.4782   18.3713 H   0  0  0  0  0  0  0  0  0  0  0  0
    4.9716    1.7986   16.9764 H   0  0  0  0  0  0  0  0  0  0  0  0
    3.8948    1.8239   19.2266 H   0  0  0  0  0  0  0  0  0  0  0  0
    5.0253    0.6223   21.1360 H   0  0  0  0  0  0  0  0  0  0  0  0
    6.8143    0.2126   22.6006 H   0  0  0  0  0  0  0  0  0  0  0  0
    5.9305   -1.2650   22.1417 H   0  0  0  0  0  0  0  0  0  0  0  0
    7.9298   -2.6459   22.4462 H   0  0  0  0  0  0  0  0  0  0  0  0
    8.9201   -1.2228   22.7727 H   0  0  0  0  0  0  0  0  0  0  0  0
    9.2514    0.9655   24.3754 C   0  0  0  0  0  0  0  0  0  0  0  0
    8.4120    1.2209   23.7236 H   0  0  0  0  0  0  0  0  0  0  0  0
   10.1602   -1.0334   26.9766 H   0  0  0  0  0  0  0  0  0  0  0  0
   12.5308    1.6587   24.8959 H   0  0  0  0  0  0  0  0  0  0  0  0
   10.0501    2.8622   22.4997 H   0  0  0  0  0  0  0  0  0  0  0  0
   11.6170    3.2083   23.2328 H   0  0  0  0  0  0  0  0  0  0  0  0
   10.1478    3.8051   23.9870 H   0  0  0  0  0  0  0  0  0  0  0  0
  1  2  1  0
  2  3  2  0
  3  4  1  0
  4  5  2  0
  5  6  1  0
  6  7  1  0
  7  8  1  0
  8  9  2  0
  9 10  1  0
 10 11  1  0
 11 12  1  0
 12 13  2  0
 13 14  1  0
 14 15  1  0
 15 16  1  0
 15 17  1  0
 14 18  1  0
 14 19  1  0
 13 20  1  0
 12 21  1  0
 11 22  1  0
 11 23  1  0
 10 24  1  0
  9 25  1  0
 25 26  2  0
 26 27  1  0
 27 28  1  0
 28 29  1  0
 29 30  1  0
 30 31  2  0
 31 32  1  0
 32 33  2  0
 33 34  1  0
 34 35  2  0
 35 36  1  0
 33 37  1  0
 32 38  1  0
 31 39  1  0
 28 40  1  0
 28 41  1  0
 27 42  1  0
 27 43  1  0
  6 44  2  0
 44 45  1  0
  5 46  1  0
  3 47  1  0
  1 48  1  0
  1 49  1  0
  1 50  1  0
 44  2  1  0
 26  7  1  0
 35 30  1  0
 15 10  1  0
M  END
>  <cnnaffinity>  (1) 
-6.19001

>  <filename>  (1) 
Cc1cncc(-n2nc(C3CC=CCC3)nc2CCOc2cccnc2)c1

$$$$
