
     RDKit          3D

 45 48  0  0  0  0  0  0  0  0999 V2000
    6.2004    3.5929   28.9257 C   0  0  0  0  0  0  0  0  0  0  0  0
    6.6070    3.0410   27.5764 C   0  0  0  0  0  0  0  0  0  0  0  0
    7.7854    3.4658   26.9420 C   0  0  0  0  0  0  0  0  0  0  0  0
    8.1826    2.9380   25.7123 C   0  0  0  0  0  0  0  0  0  0  0  0
    7.3894    1.9662   25.0622 C   0  0  0  0  0  0  0  0  0  0  0  0
    7.7859    1.4155   23.7576 C   0  0  0  0  0  0  0  0  0  0  0  0
    7.1428    0.4289   23.1502 N   0  0  0  0  0  0  0  0  0  0  0  0
    7.8745    0.2107   22.0266 N   0  0  0  0  0  0  0  0  0  0  0  0
    7.3616   -0.7027   20.9944 C   0  0  0  0  0  0  0  0  0  0  0  0
    6.6305   -0.0050   19.8750 C   0  0  0  0  0  0  0  0  0  0  0  0
    5.4235    0.6510   20.1332 C   0  0  0  0  0  0  0  0  0  0  0  0
    4.7902    1.3147   19.0812 C   0  0  0  0  0  0  0  0  0  0  0  0
    5.3850    1.3029   17.8159 C   0  0  0  0  0  0  0  0  0  0  0  0
    6.5436    0.6775   17.5418 N   0  0  0  0  0  0  0  0  0  0  0  0
    7.1391    0.0500   18.5662 C   0  0  0  0  0  0  0  0  0  0  0  0
    8.0927   -0.4241   18.3215 H   0  0  0  0  0  0  0  0  0  0  0  0
    4.9196    1.8124   16.9745 H   0  0  0  0  0  0  0  0  0  0  0  0
    3.8695    1.8479   19.2345 H   0  0  0  0  0  0  0  0  0  0  0  0
    5.0294    0.6432   21.1565 H   0  0  0  0  0  0  0  0  0  0  0  0
    6.7172   -1.3735   21.5671 H   0  0  0  0  0  0  0  0  0  0  0  0
    8.1639   -1.3159   20.5932 H   0  0  0  0  0  0  0  0  0  0  0  0
    8.8821    1.1175   22.0145 C   0  0  0  0  0  0  0  0  0  0  0  0
    9.9675    1.0636   21.0388 C   0  0  0  0  0  0  0  0  0  0  0  0
   10.7998   -0.2496   21.2487 C   0  0  0  0  0  0  0  0  0  0  0  0
   10.8000   -0.2493   21.2487 N   0  0  0  0  0  0  0  0  0  0  0  0
   11.9374   -2.0962   20.9579 O   0  0  0  0  0  0  0  0  0  0  0  0
   12.5141   -1.4858   21.8247 C   0  0  0  0  0  0  0  0  0  0  0  0
   12.0673   -0.1434   22.0542 C   0  0  0  0  0  0  0  0  0  0  0  0
   12.0234    0.5310   23.3955 C   0  0  0  0  0  0  0  0  0  0  0  0
   11.9609    1.6129   23.2210 H   0  0  0  0  0  0  0  0  0  0  0  0
   12.9811    0.3455   23.8815 H   0  0  0  0  0  0  0  0  0  0  0  0
   11.1773    0.2490   24.0305 H   0  0  0  0  0  0  0  0  0  0  0  0
   13.2253   -1.9893   22.4825 H   0  0  0  0  0  0  0  0  0  0  0  0
   10.4826    1.9861   21.0556 H   0  0  0  0  0  0  0  0  0  0  0  0
    9.4406    1.0088   20.0951 H   0  0  0  0  0  0  0  0  0  0  0  0
    8.8719    1.8763   23.0841 N   0  0  0  0  0  0  0  0  0  0  0  0
    6.2045    1.5386   25.6945 C   0  0  0  0  0  0  0  0  0  0  0  0
    5.8256    2.0722   26.9283 C   0  0  0  0  0  0  0  0  0  0  0  0
    4.9056    1.7359   27.4090 H   0  0  0  0  0  0  0  0  0  0  0  0
    5.5845    0.7838   25.2142 H   0  0  0  0  0  0  0  0  0  0  0  0
    9.1069    3.2862   25.2523 H   0  0  0  0  0  0  0  0  0  0  0  0
    8.3889    4.2327   27.4237 H   0  0  0  0  0  0  0  0  0  0  0  0
    6.5520    4.6178   29.0718 H   0  0  0  0  0  0  0  0  0  0  0  0
    6.6132    2.9931   29.7450 H   0  0  0  0  0  0  0  0  0  0  0  0
    5.1141    3.5932   29.0503 H   0  0  0  0  0  0  0  0  0  0  0  0
  1  2  1  0
  2  3  2  0
  3  4  1  0
  4  5  2  0
  5  6  1  0
  6  7  2  0
  7  8  1  0
  8  9  1  0
  9 10  1  0
 10 11  2  0
 11 12  1  0
 12 13  2  0
 13 14  1  0
 14 15  2  0
 15 16  1  0
 13 17  1  0
 12 18  1  0
 11 19  1  0
  9 20  1  0
  9 21  1  0
  8 22  1  0
 22 23  1  0
 23 24  1  0
 24 25  2  0
 25 26  1  0
 26 27  1  0
 27 28  2  0
 28 29  1  0
 29 30  1  0
 29 31  1  0
 29 32  1  0
 27 33  1  0
 23 34  1  0
 23 35  1  0
 22 36  2  0
  5 37  1  0
 37 38  2  0
 38 39  1  0
 37 40  1  0
  4 41  1  0
  3 42  1  0
  1 43  1  0
  1 44  1  0
  1 45  1  0
 38  2  1  0
 36  6  1  0
 15 10  1  0
 28 24  1  0
M  END
>  <cnnaffinity>  (1) 
-6.22093

>  <filename>  (1) 
Cc1ccc(-c2nc(Cc3nocc3C)n(Cc3cccnc3)n2)cc1

$$$$
