
     RDKit          3D

 53 56  0  0  0  0  0  0  0  0999 V2000
    3.7990    0.0942   29.6464 C   0  0  0  0  0  0  0  0  0  0  0  0
    5.0115   -0.4847   28.9041 C   0  0  0  0  0  0  0  0  0  0  0  0
    5.2282    0.1857   27.5189 C   0  0  0  0  0  0  0  0  0  0  0  0
    4.5638   -0.6029   26.3797 C   0  0  0  0  0  0  0  0  0  0  0  0
    5.1934   -2.0248   26.2281 C   0  0  0  0  0  0  0  0  0  0  0  0
    6.2966   -2.0737   25.2008 C   0  0  0  0  0  0  0  0  0  0  0  0
    7.3585   -1.2868   25.2367 N   0  0  0  0  0  0  0  0  0  0  0  0
    8.0621   -1.6874   24.1424 N   0  0  0  0  0  0  0  0  0  0  0  0
    9.2982   -1.0917   23.8044 C   0  0  0  0  0  0  0  0  0  0  0  0
   10.3628   -1.8187   23.2892 C   0  0  0  0  0  0  0  0  0  0  0  0
   11.4537   -1.0881   22.8075 C   0  0  0  0  0  0  0  0  0  0  0  0
   11.5458    0.2471   22.9133 N   0  0  0  0  0  0  0  0  0  0  0  0
   10.5559    0.9260   23.4994 N   0  0  0  0  0  0  0  0  0  0  0  0
    9.4638    0.2971   23.9402 C   0  0  0  0  0  0  0  0  0  0  0  0
    8.6924    0.9009   24.4050 H   0  0  0  0  0  0  0  0  0  0  0  0
   12.2701   -1.5881   22.2995 H   0  0  0  0  0  0  0  0  0  0  0  0
   10.3647   -2.9064   23.2698 H   0  0  0  0  0  0  0  0  0  0  0  0
    7.3506   -2.6355   23.4728 C   0  0  0  0  0  0  0  0  0  0  0  0
    7.5978   -3.0859   22.0692 C   0  0  0  0  0  0  0  0  0  0  0  0
    6.8536   -2.2002   21.0447 C   0  0  0  0  0  0  0  0  0  0  0  0
    7.3596   -0.7518   20.9714 C   0  0  0  0  0  0  0  0  0  0  0  0
    6.6684    0.0415   19.8810 C   0  0  0  0  0  0  0  0  0  0  0  0
    5.4489    0.6968   20.1165 C   0  0  0  0  0  0  0  0  0  0  0  0
    4.8024    1.3387   19.0588 C   0  0  0  0  0  0  0  0  0  0  0  0
    5.3990    1.3171   17.7965 C   0  0  0  0  0  0  0  0  0  0  0  0
    6.5617    0.7003   17.5392 N   0  0  0  0  0  0  0  0  0  0  0  0
    7.1704    0.0899   18.5672 C   0  0  0  0  0  0  0  0  0  0  0  0
    8.1204   -0.3880   18.3191 H   0  0  0  0  0  0  0  0  0  0  0  0
    4.9207    1.8118   16.9542 H   0  0  0  0  0  0  0  0  0  0  0  0
    3.8579    1.8541   19.1998 H   0  0  0  0  0  0  0  0  0  0  0  0
    5.0095    0.7119   21.1165 H   0  0  0  0  0  0  0  0  0  0  0  0
    8.4437   -0.7532   20.8004 H   0  0  0  0  0  0  0  0  0  0  0  0
    7.1955   -0.2611   21.9392 H   0  0  0  0  0  0  0  0  0  0  0  0
    6.9301   -2.6565   20.0565 H   0  0  0  0  0  0  0  0  0  0  0  0
    5.7848   -2.1922   21.2902 H   0  0  0  0  0  0  0  0  0  0  0  0
    7.2559   -4.1232   21.9927 H   0  0  0  0  0  0  0  0  0  0  0  0
    8.6672   -3.0846   21.8544 H   0  0  0  0  0  0  0  0  0  0  0  0
    6.2537   -2.9291   24.1474 N   0  0  0  0  0  0  0  0  0  0  0  0
    5.6933   -2.5831   27.5969 C   0  0  0  0  0  0  0  0  0  0  0  0
    4.8909   -2.0281   28.7786 C   0  0  0  0  0  0  0  0  0  0  0  0
    5.2098   -2.5008   29.7155 H   0  0  0  0  0  0  0  0  0  0  0  0
    3.8356   -2.3040   28.6429 H   0  0  0  0  0  0  0  0  0  0  0  0
    6.7457   -2.3026   27.7248 H   0  0  0  0  0  0  0  0  0  0  0  0
    5.6616   -3.6781   27.5859 H   0  0  0  0  0  0  0  0  0  0  0  0
    4.4251   -2.6897   25.8261 H   0  0  0  0  0  0  0  0  0  0  0  0
    4.6297   -0.0512   25.4363 H   0  0  0  0  0  0  0  0  0  0  0  0
    3.4897   -0.7105   26.5936 H   0  0  0  0  0  0  0  0  0  0  0  0
    4.8606    1.2185   27.5411 H   0  0  0  0  0  0  0  0  0  0  0  0
    6.3024    0.2454   27.2986 H   0  0  0  0  0  0  0  0  0  0  0  0
    5.9049   -0.2664   29.5064 H   0  0  0  0  0  0  0  0  0  0  0  0
    2.8786   -0.0552   29.0684 H   0  0  0  0  0  0  0  0  0  0  0  0
    3.9073    1.1702   29.8193 H   0  0  0  0  0  0  0  0  0  0  0  0
    3.6567   -0.3844   30.6215 H   0  0  0  0  0  0  0  0  0  0  0  0
  1  2  1  0
  2  3  1  0
  3  4  1  0
  4  5  1  0
  5  6  1  0
  6  7  2  0
  7  8  1  0
  8  9  1  0
  9 10  2  0
 10 11  1  0
 11 12  2  0
 12 13  1  0
 13 14  2  0
 14 15  1  0
 11 16  1  0
 10 17  1  0
  8 18  1  0
 18 19  1  0
 19 20  1  0
 20 21  1  0
 21 22  1  0
 22 23  2  0
 23 24  1  0
 24 25  2  0
 25 26  1  0
 26 27  2  0
 27 28  1  0
 25 29  1  0
 24 30  1  0
 23 31  1  0
 21 32  1  0
 21 33  1  0
 20 34  1  0
 20 35  1  0
 19 36  1  0
 19 37  1  0
 18 38  2  0
  5 39  1  0
 39 40  1  0
 40 41  1  0
 40 42  1  0
 39 43  1  0
 39 44  1  0
  5 45  1  0
  4 46  1  0
  4 47  1  0
  3 48  1  0
  3 49  1  0
  2 50  1  0
  1 51  1  0
  1 52  1  0
  1 53  1  0
 40  2  1  0
 38  6  1  0
 14  9  1  0
 27 22  1  0
M  END
>  <cnnaffinity>  (1) 
-6.41399

>  <filename>  (1) 
CC1CCC(c2nc(CCCc3cccnc3)n(-c3ccnnc3)n2)CC1

$$$$
