
     RDKit          3D

 33 35  0  0  0  0  0  0  0  0999 V2000
    4.9303    1.7913   16.9886 H   0  0  0  0  0  0  0  0  0  0  0  0
    5.3959    1.2961   17.8386 C   0  0  0  0  0  0  0  0  0  0  0  0
    6.5512    0.6680   17.5822 N   0  0  0  0  0  0  0  0  0  0  0  0
    7.1398    0.0367   18.5995 C   0  0  0  0  0  0  0  0  0  0  0  0
    8.1101   -0.4102   18.3952 H   0  0  0  0  0  0  0  0  0  0  0  0
    6.5992   -0.0333   19.8984 C   0  0  0  0  0  0  0  0  0  0  0  0
    7.3158   -0.7472   20.9907 C   0  0  0  0  0  0  0  0  0  0  0  0
    6.5761   -1.5077   21.7575 N   0  0  0  0  0  0  0  0  0  0  0  0
    7.1579   -2.1829   22.8014 N   0  0  0  0  0  0  0  0  0  0  0  0
    6.2916   -2.9922   23.6273 C   0  0  0  0  0  0  0  0  0  0  0  0
    6.5166   -3.1110   25.0112 C   0  0  0  0  0  0  0  0  0  0  0  0
    7.3348   -2.5615   25.4654 H   0  0  0  0  0  0  0  0  0  0  0  0
    5.6695   -3.9042   25.7891 C   0  0  0  0  0  0  0  0  0  0  0  0
    5.8490   -4.0003   26.8591 H   0  0  0  0  0  0  0  0  0  0  0  0
    4.6016   -4.5832   25.1946 C   0  0  0  0  0  0  0  0  0  0  0  0
    3.9413   -5.2032   25.7978 H   0  0  0  0  0  0  0  0  0  0  0  0
    4.3613   -4.4753   23.8155 C   0  0  0  0  0  0  0  0  0  0  0  0
    3.2096   -5.2243   23.1804 C   0  0  0  0  0  0  0  0  0  0  0  0
    3.5246   -6.2159   22.8371 H   0  0  0  0  0  0  0  0  0  0  0  0
    2.3856   -5.3756   23.8856 H   0  0  0  0  0  0  0  0  0  0  0  0
    2.8098   -4.6966   22.3094 H   0  0  0  0  0  0  0  0  0  0  0  0
    5.2165   -3.6740   23.0413 C   0  0  0  0  0  0  0  0  0  0  0  0
    5.0619   -3.5481   21.9740 H   0  0  0  0  0  0  0  0  0  0  0  0
    8.5203   -2.1171   23.0196 C   0  0  0  0  0  0  0  0  0  0  0  0
    8.8827   -2.7368   23.8356 H   0  0  0  0  0  0  0  0  0  0  0  0
    9.3467   -1.3629   22.2754 C   0  0  0  0  0  0  0  0  0  0  0  0
   10.4153   -1.2889   22.4486 H   0  0  0  0  0  0  0  0  0  0  0  0
    8.8049   -0.5645   21.1856 C   0  0  0  0  0  0  0  0  0  0  0  0
    9.5113    0.1702   20.4993 O   0  0  0  0  0  0  0  0  0  0  0  0
    5.3982    0.6362   20.1557 C   0  0  0  0  0  0  0  0  0  0  0  0
    4.9918    0.6197   21.1703 H   0  0  0  0  0  0  0  0  0  0  0  0
    4.7930    1.3216   19.1024 C   0  0  0  0  0  0  0  0  0  0  0  0
    3.8657    1.8610   19.2414 H   0  0  0  0  0  0  0  0  0  0  0  0
  1  2  1  0
  2  3  2  0
  3  4  1  0
  4  5  1  0
  4  6  2  0
  6  7  1  0
  7  8  2  0
  8  9  1  0
  9 10  1  0
 10 11  2  0
 11 12  1  0
 11 13  1  0
 13 14  1  0
 13 15  2  0
 15 16  1  0
 15 17  1  0
 17 18  1  0
 18 19  1  0
 18 20  1  0
 18 21  1  0
 17 22  2  0
 22 23  1  0
  9 24  1  0
 24 25  1  0
 24 26  2  0
 26 27  1  0
 26 28  1  0
 28 29  2  0
  6 30  1  0
 30 31  1  0
 30 32  2  0
 32 33  1  0
 32  2  1  0
 28  7  1  0
 22 10  1  0
M  END
>  <cnnaffinity>  (1) 
-5.2304

>  <filename>  (1) 
Cc1cccc(-n2ccc(=O)c(-c3cccnc3)n2)c1

$$$$
