
     RDKit          3D

 42 45  0  0  0  0  0  0  0  0999 V2000
    9.6151    2.2933   21.0818 C   0  0  0  0  0  0  0  0  0  0  0  0
    9.7274    2.2615   22.5759 C   0  0  0  0  0  0  0  0  0  0  0  0
   10.9044    2.6912   23.2036 C   0  0  0  0  0  0  0  0  0  0  0  0
   11.1539    2.5891   24.5117 N   0  0  0  0  0  0  0  0  0  0  0  0
   10.1925    2.0361   25.2610 C   0  0  0  0  0  0  0  0  0  0  0  0
    8.9587    1.6235   24.7566 C   0  0  0  0  0  0  0  0  0  0  0  0
    8.7022    1.7567   23.3942 C   0  0  0  0  0  0  0  0  0  0  0  0
    7.4222    1.2148   22.7870 C   0  0  0  0  0  0  0  0  0  0  0  0
    7.6250   -0.1595   22.2179 C   0  0  0  0  0  0  0  0  0  0  0  0
    8.1517   -1.1656   22.8922 N   0  0  0  0  0  0  0  0  0  0  0  0
    8.1722   -2.1736   21.9864 C   0  0  0  0  0  0  0  0  0  0  0  0
    8.7245   -3.5303   22.2304 C   0  0  0  0  0  0  0  0  0  0  0  0
    7.7523   -4.5219   22.8448 C   0  0  0  0  0  0  0  0  0  0  0  0
    8.0135   -5.9848   22.6653 C   0  0  0  0  0  0  0  0  0  0  0  0
    6.9133   -5.3132   21.8868 C   0  0  0  0  0  0  0  0  0  0  0  0
    7.0965   -5.1101   20.8327 H   0  0  0  0  0  0  0  0  0  0  0  0
    5.8759   -5.5326   22.1235 H   0  0  0  0  0  0  0  0  0  0  0  0
    7.7304   -6.6352   23.4841 H   0  0  0  0  0  0  0  0  0  0  0  0
    8.9199   -6.2910   22.1519 H   0  0  0  0  0  0  0  0  0  0  0  0
    7.3021   -4.2403   23.7974 H   0  0  0  0  0  0  0  0  0  0  0  0
    9.6342   -3.4309   22.8232 H   0  0  0  0  0  0  0  0  0  0  0  0
    8.9801   -3.8789   21.2294 H   0  0  0  0  0  0  0  0  0  0  0  0
    7.7012   -1.8609   20.7987 N   0  0  0  0  0  0  0  0  0  0  0  0
    7.3184   -0.5725   20.9496 N   0  0  0  0  0  0  0  0  0  0  0  0
    6.6260    0.0601   19.8897 C   0  0  0  0  0  0  0  0  0  0  0  0
    5.3995    0.6896   20.1202 C   0  0  0  0  0  0  0  0  0  0  0  0
    4.7839    1.3252   19.0399 C   0  0  0  0  0  0  0  0  0  0  0  0
    5.4114    1.2991   17.7918 C   0  0  0  0  0  0  0  0  0  0  0  0
    6.5583    0.6340   17.5534 N   0  0  0  0  0  0  0  0  0  0  0  0
    7.1416    0.0119   18.5835 C   0  0  0  0  0  0  0  0  0  0  0  0
    8.0532   -0.5485   18.3722 H   0  0  0  0  0  0  0  0  0  0  0  0
    4.9872    1.8396   16.9490 H   0  0  0  0  0  0  0  0  0  0  0  0
    3.8511    1.8587   19.1737 H   0  0  0  0  0  0  0  0  0  0  0  0
    4.9494    0.6556   21.1134 H   0  0  0  0  0  0  0  0  0  0  0  0
    6.6427    1.1492   23.5503 H   0  0  0  0  0  0  0  0  0  0  0  0
    7.0474    1.8890   22.0150 H   0  0  0  0  0  0  0  0  0  0  0  0
    8.2325    1.1619   25.4176 H   0  0  0  0  0  0  0  0  0  0  0  0
   10.4237    1.9155   26.3120 H   0  0  0  0  0  0  0  0  0  0  0  0
   11.6973    3.1245   22.5916 H   0  0  0  0  0  0  0  0  0  0  0  0
    9.3678    1.3042   20.6806 H   0  0  0  0  0  0  0  0  0  0  0  0
    8.8308    2.9784   20.7495 H   0  0  0  0  0  0  0  0  0  0  0  0
   10.5518    2.6078   20.6150 H   0  0  0  0  0  0  0  0  0  0  0  0
  1  2  1  0
  2  3  2  0
  3  4  1  0
  4  5  2  0
  5  6  1  0
  6  7  2  0
  7  8  1  0
  8  9  1  0
  9 10  2  0
 10 11  1  0
 11 12  1  0
 12 13  1  0
 13 14  1  0
 14 15  1  0
 15 16  1  0
 15 17  1  0
 14 18  1  0
 14 19  1  0
 13 20  1  0
 12 21  1  0
 12 22  1  0
 11 23  2  0
 23 24  1  0
 24 25  1  0
 25 26  2  0
 26 27  1  0
 27 28  2  0
 28 29  1  0
 29 30  2  0
 30 31  1  0
 28 32  1  0
 27 33  1  0
 26 34  1  0
  8 35  1  0
  8 36  1  0
  6 37  1  0
  5 38  1  0
  3 39  1  0
  1 40  1  0
  1 41  1  0
  1 42  1  0
  7  2  1  0
 24  9  1  0
 30 25  1  0
 15 13  1  0
M  END
>  <cnnaffinity>  (1) 
-6.1323

>  <filename>  (1) 
Cc1cnccc1Cc1nc(CC2CC2)nn1-c1cccnc1

$$$$
