
     RDKit          3D

 42 45  0  0  0  0  0  0  0  0999 V2000
   14.0248    0.7521   23.4774 C   0  0  0  0  0  0  0  0  0  0  0  0
   12.9458   -0.0158   22.7479 C   0  0  0  0  0  0  0  0  0  0  0  0
   11.5815    0.2586   22.8932 C   0  0  0  0  0  0  0  0  0  0  0  0
   10.5964   -0.4492   22.1698 C   0  0  0  0  0  0  0  0  0  0  0  0
    9.1721   -0.0967   22.2776 C   0  0  0  0  0  0  0  0  0  0  0  0
    8.2251   -0.6784   21.5520 N   0  0  0  0  0  0  0  0  0  0  0  0
    7.1084    0.0112   21.8794 N   0  0  0  0  0  0  0  0  0  0  0  0
    5.8560   -0.2600   21.1791 C   0  0  0  0  0  0  0  0  0  0  0  0
    5.7087    0.4184   19.8309 C   0  0  0  0  0  0  0  0  0  0  0  0
    4.6182    1.2356   19.5143 C   0  0  0  0  0  0  0  0  0  0  0  0
    4.5617    1.8169   18.2465 C   0  0  0  0  0  0  0  0  0  0  0  0
    5.5853    1.5453   17.3385 C   0  0  0  0  0  0  0  0  0  0  0  0
    6.6244    0.7401   17.6072 N   0  0  0  0  0  0  0  0  0  0  0  0
    6.6720    0.2066   18.8318 C   0  0  0  0  0  0  0  0  0  0  0  0
    7.5191   -0.4366   19.0550 H   0  0  0  0  0  0  0  0  0  0  0  0
    5.5781    1.9804   16.3440 H   0  0  0  0  0  0  0  0  0  0  0  0
    3.7503    2.4752   17.9565 H   0  0  0  0  0  0  0  0  0  0  0  0
    3.8304    1.4227   20.2448 H   0  0  0  0  0  0  0  0  0  0  0  0
    5.7924   -1.3490   21.0712 H   0  0  0  0  0  0  0  0  0  0  0  0
    5.0440    0.0676   21.8251 H   0  0  0  0  0  0  0  0  0  0  0  0
    7.4303    0.9539   22.7995 C   0  0  0  0  0  0  0  0  0  0  0  0
    6.5547    1.9614   23.4575 C   0  0  0  0  0  0  0  0  0  0  0  0
    6.3127    1.5846   24.8877 C   0  0  0  0  0  0  0  0  0  0  0  0
    5.3486    0.7332   25.3193 C   0  0  0  0  0  0  0  0  0  0  0  0
    5.5195    0.4405   27.0051 S   0  0  0  0  0  0  0  0  0  0  0  0
    6.8727    1.5152   27.0103 C   0  0  0  0  0  0  0  0  0  0  0  0
    7.1652    2.0441   25.8627 N   0  0  0  0  0  0  0  0  0  0  0  0
    7.4219    1.7129   27.9251 H   0  0  0  0  0  0  0  0  0  0  0  0
    4.5593    0.2892   24.7333 H   0  0  0  0  0  0  0  0  0  0  0  0
    5.6173    2.0977   22.9129 H   0  0  0  0  0  0  0  0  0  0  0  0
    7.1210    2.8957   23.4452 H   0  0  0  0  0  0  0  0  0  0  0  0
    8.7150    0.9016   23.0659 N   0  0  0  0  0  0  0  0  0  0  0  0
   10.9954   -1.4364   21.2578 C   0  0  0  0  0  0  0  0  0  0  0  0
   12.3473   -1.7135   21.0770 C   0  0  0  0  0  0  0  0  0  0  0  0
   13.2810   -1.0403   21.8526 C   0  0  0  0  0  0  0  0  0  0  0  0
   14.5700   -1.3787   21.6960 F   0  0  0  0  0  0  0  0  0  0  0  0
   12.7082   -2.4059   20.3285 H   0  0  0  0  0  0  0  0  0  0  0  0
   10.2342   -1.9558   20.6814 H   0  0  0  0  0  0  0  0  0  0  0  0
   11.2783    1.0624   23.5611 H   0  0  0  0  0  0  0  0  0  0  0  0
   14.5133    0.1268   24.2330 H   0  0  0  0  0  0  0  0  0  0  0  0
   14.7984    1.0841   22.7740 H   0  0  0  0  0  0  0  0  0  0  0  0
   13.6214    1.6425   23.9702 H   0  0  0  0  0  0  0  0  0  0  0  0
  1  2  1  0
  2  3  2  0
  3  4  1  0
  4  5  1  0
  5  6  2  0
  6  7  1  0
  7  8  1  0
  8  9  1  0
  9 10  2  0
 10 11  1  0
 11 12  2  0
 12 13  1  0
 13 14  2  0
 14 15  1  0
 12 16  1  0
 11 17  1  0
 10 18  1  0
  8 19  1  0
  8 20  1  0
  7 21  1  0
 21 22  1  0
 22 23  1  0
 23 24  2  0
 24 25  1  0
 25 26  1  0
 26 27  2  0
 26 28  1  0
 24 29  1  0
 22 30  1  0
 22 31  1  0
 21 32  2  0
  4 33  2  0
 33 34  1  0
 34 35  2  0
 35 36  1  0
 34 37  1  0
 33 38  1  0
  3 39  1  0
  1 40  1  0
  1 41  1  0
  1 42  1  0
 35  2  1  0
 32  5  1  0
 14  9  1  0
 27 23  1  0
M  END
>  <cnnaffinity>  (1) 
-6.34438

>  <filename>  (1) 
Cc1cc(-c2nc(Cc3cscn3)n(Cc3cccnc3)n2)ccc1F

$$$$
