
     RDKit          3D

 42 45  0  0  0  0  0  0  0  0999 V2000
    8.2661    2.7600   22.0415 C   0  0  0  0  0  0  0  0  0  0  0  0
    9.6222    2.3011   22.4974 C   0  0  0  0  0  0  0  0  0  0  0  0
   10.2652    2.9517   23.5494 C   0  0  0  0  0  0  0  0  0  0  0  0
   11.5077    2.4926   23.9819 C   0  0  0  0  0  0  0  0  0  0  0  0
   12.1407    1.4454   23.4551 N   0  0  0  0  0  0  0  0  0  0  0  0
   11.5254    0.8359   22.4363 C   0  0  0  0  0  0  0  0  0  0  0  0
   10.2924    1.2175   21.8985 C   0  0  0  0  0  0  0  0  0  0  0  0
    9.6237    0.3832   20.8229 C   0  0  0  0  0  0  0  0  0  0  0  0
    8.6097   -0.5655   21.3656 C   0  0  0  0  0  0  0  0  0  0  0  0
    8.8464   -1.4130   22.3467 N   0  0  0  0  0  0  0  0  0  0  0  0
    7.6389   -1.9934   22.5428 C   0  0  0  0  0  0  0  0  0  0  0  0
    7.4082   -2.9860   23.6345 C   0  0  0  0  0  0  0  0  0  0  0  0
    6.4690   -4.1688   23.2771 C   0  0  0  0  0  0  0  0  0  0  0  0
    7.6254   -5.1590   23.5538 C   0  0  0  0  0  0  0  0  0  0  0  0
    8.5642   -3.9855   23.9253 C   0  0  0  0  0  0  0  0  0  0  0  0
    8.9147   -3.9849   24.9617 H   0  0  0  0  0  0  0  0  0  0  0  0
    9.4367   -3.8565   23.2778 H   0  0  0  0  0  0  0  0  0  0  0  0
    7.4331   -5.8708   24.3640 H   0  0  0  0  0  0  0  0  0  0  0  0
    7.9466   -5.7323   22.6803 H   0  0  0  0  0  0  0  0  0  0  0  0
    6.1140   -4.1400   22.2426 H   0  0  0  0  0  0  0  0  0  0  0  0
    5.5978   -4.2653   23.9290 H   0  0  0  0  0  0  0  0  0  0  0  0
    7.0959   -2.4274   24.5243 H   0  0  0  0  0  0  0  0  0  0  0  0
    6.6833   -1.5831   21.7249 N   0  0  0  0  0  0  0  0  0  0  0  0
    7.3301   -0.6970   20.9234 N   0  0  0  0  0  0  0  0  0  0  0  0
    6.6416   -0.0068   19.8935 C   0  0  0  0  0  0  0  0  0  0  0  0
    5.4346    0.6428   20.1635 C   0  0  0  0  0  0  0  0  0  0  0  0
    4.8110    1.3136   19.1088 C   0  0  0  0  0  0  0  0  0  0  0  0
    5.3984    1.2973   17.8378 C   0  0  0  0  0  0  0  0  0  0  0  0
    6.5553    0.6719   17.5745 N   0  0  0  0  0  0  0  0  0  0  0  0
    7.1616    0.0446   18.5879 C   0  0  0  0  0  0  0  0  0  0  0  0
    8.1131   -0.4333   18.3632 H   0  0  0  0  0  0  0  0  0  0  0  0
    4.9203    1.7871   16.9940 H   0  0  0  0  0  0  0  0  0  0  0  0
    3.8799    1.8415   19.2604 H   0  0  0  0  0  0  0  0  0  0  0  0
    5.0156    0.6091   21.1736 H   0  0  0  0  0  0  0  0  0  0  0  0
   10.3445   -0.2689   20.3296 H   0  0  0  0  0  0  0  0  0  0  0  0
    9.1607    1.0313   20.0765 H   0  0  0  0  0  0  0  0  0  0  0  0
   12.0301   -0.0357   22.0212 H   0  0  0  0  0  0  0  0  0  0  0  0
   12.0142    2.9957   24.7961 H   0  0  0  0  0  0  0  0  0  0  0  0
    9.7988    3.8067   24.0206 H   0  0  0  0  0  0  0  0  0  0  0  0
    8.3176    3.0643   20.9977 H   0  0  0  0  0  0  0  0  0  0  0  0
    7.5135    1.9651   22.1056 H   0  0  0  0  0  0  0  0  0  0  0  0
    7.9158    3.6137   22.6262 H   0  0  0  0  0  0  0  0  0  0  0  0
  1  2  1  0
  2  3  2  0
  3  4  1  0
  4  5  2  0
  5  6  1  0
  6  7  2  0
  7  8  1  0
  8  9  1  0
  9 10  2  0
 10 11  1  0
 11 12  1  0
 12 13  1  0
 13 14  1  0
 14 15  1  0
 15 16  1  0
 15 17  1  0
 14 18  1  0
 14 19  1  0
 13 20  1  0
 13 21  1  0
 12 22  1  0
 11 23  2  0
 23 24  1  0
 24 25  1  0
 25 26  2  0
 26 27  1  0
 27 28  2  0
 28 29  1  0
 29 30  2  0
 30 31  1  0
 28 32  1  0
 27 33  1  0
 26 34  1  0
  8 35  1  0
  8 36  1  0
  6 37  1  0
  4 38  1  0
  3 39  1  0
  1 40  1  0
  1 41  1  0
  1 42  1  0
  7  2  1  0
 24  9  1  0
 30 25  1  0
 15 12  1  0
M  END
>  <cnnaffinity>  (1) 
-6.09502

>  <filename>  (1) 
Cc1ccncc1Cc1nc(C2CCC2)nn1-c1cccnc1

$$$$
