
     RDKit          3D

 44 47  0  0  0  0  0  0  0  0999 V2000
    5.2627   -3.7166   26.4988 C   0  0  0  0  0  0  0  0  0  0  0  0
    6.4475   -2.9046   26.0180 C   0  0  0  0  0  0  0  0  0  0  0  0
    7.5872   -2.6739   26.8109 C   0  0  0  0  0  0  0  0  0  0  0  0
    8.5814   -1.8334   26.4812 N   0  0  0  0  0  0  0  0  0  0  0  0
    8.5296   -1.2563   25.2774 C   0  0  0  0  0  0  0  0  0  0  0  0
    7.5359   -1.5580   24.3298 C   0  0  0  0  0  0  0  0  0  0  0  0
    7.7093   -1.2105   22.9562 N   0  0  0  0  0  0  0  0  0  0  0  0
    6.7958   -0.4908   22.2603 N   0  0  0  0  0  0  0  0  0  0  0  0
    7.2622   -0.5208   21.0252 C   0  0  0  0  0  0  0  0  0  0  0  0
    6.5856    0.1219   19.8909 C   0  0  0  0  0  0  0  0  0  0  0  0
    5.3589    0.7994   20.0185 C   0  0  0  0  0  0  0  0  0  0  0  0
    4.8111    1.3905   18.8842 C   0  0  0  0  0  0  0  0  0  0  0  0
    5.4953    1.2889   17.6658 C   0  0  0  0  0  0  0  0  0  0  0  0
    6.6573    0.6318   17.5280 N   0  0  0  0  0  0  0  0  0  0  0  0
    7.1814    0.0655   18.6220 C   0  0  0  0  0  0  0  0  0  0  0  0
    8.1234   -0.4598   18.4872 H   0  0  0  0  0  0  0  0  0  0  0  0
    5.0908    1.7541   16.7690 H   0  0  0  0  0  0  0  0  0  0  0  0
    3.8791    1.9431   18.9304 H   0  0  0  0  0  0  0  0  0  0  0  0
    4.8638    0.8573   20.9908 H   0  0  0  0  0  0  0  0  0  0  0  0
    8.4144   -1.2376   20.8769 N   0  0  0  0  0  0  0  0  0  0  0  0
    8.6495   -1.6897   22.0935 C   0  0  0  0  0  0  0  0  0  0  0  0
    9.7463   -2.6077   22.5482 C   0  0  0  0  0  0  0  0  0  0  0  0
    9.2844   -3.8912   23.2486 C   0  0  0  0  0  0  0  0  0  0  0  0
    9.8524   -4.2484   24.4808 C   0  0  0  0  0  0  0  0  0  0  0  0
    9.4895   -5.4513   25.0903 C   0  0  0  0  0  0  0  0  0  0  0  0
    8.6044   -6.2959   24.5528 N   0  0  0  0  0  0  0  0  0  0  0  0
    8.0319   -5.9332   23.4031 C   0  0  0  0  0  0  0  0  0  0  0  0
    8.3041   -4.7445   22.6981 C   0  0  0  0  0  0  0  0  0  0  0  0
    7.5211   -4.4513   21.4375 C   0  0  0  0  0  0  0  0  0  0  0  0
    7.3635   -5.3454   20.8208 H   0  0  0  0  0  0  0  0  0  0  0  0
    8.0346   -3.7086   20.8258 H   0  0  0  0  0  0  0  0  0  0  0  0
    6.5294   -4.0437   21.6799 H   0  0  0  0  0  0  0  0  0  0  0  0
    7.3068   -6.6367   22.9958 H   0  0  0  0  0  0  0  0  0  0  0  0
    9.9224   -5.7591   26.0436 H   0  0  0  0  0  0  0  0  0  0  0  0
   10.5212   -3.5719   25.0044 H   0  0  0  0  0  0  0  0  0  0  0  0
   10.3841   -2.0357   23.2313 H   0  0  0  0  0  0  0  0  0  0  0  0
   10.3643   -2.8231   21.6715 H   0  0  0  0  0  0  0  0  0  0  0  0
    6.4424   -2.3247   24.7409 C   0  0  0  0  0  0  0  0  0  0  0  0
    5.6089   -2.4852   24.0570 H   0  0  0  0  0  0  0  0  0  0  0  0
    9.3198   -0.5458   25.0383 H   0  0  0  0  0  0  0  0  0  0  0  0
    7.7091   -3.1904   27.7588 H   0  0  0  0  0  0  0  0  0  0  0  0
    5.5118   -4.3348   27.3695 H   0  0  0  0  0  0  0  0  0  0  0  0
    4.8924   -4.3772   25.7046 H   0  0  0  0  0  0  0  0  0  0  0  0
    4.4309   -3.0555   26.7789 H   0  0  0  0  0  0  0  0  0  0  0  0
  1  2  1  0
  2  3  2  0
  3  4  1  0
  4  5  2  0
  5  6  1  0
  6  7  1  0
  7  8  1  0
  8  9  2  0
  9 10  1  0
 10 11  2  0
 11 12  1  0
 12 13  2  0
 13 14  1  0
 14 15  2  0
 15 16  1  0
 13 17  1  0
 12 18  1  0
 11 19  1  0
  9 20  1  0
 20 21  2  0
 21 22  1  0
 22 23  1  0
 23 24  2  0
 24 25  1  0
 25 26  2  0
 26 27  1  0
 27 28  2  0
 28 29  1  0
 29 30  1  0
 29 31  1  0
 29 32  1  0
 27 33  1  0
 25 34  1  0
 24 35  1  0
 22 36  1  0
 22 37  1  0
  6 38  2  0
 38 39  1  0
  5 40  1  0
  3 41  1  0
  1 42  1  0
  1 43  1  0
  1 44  1  0
 38  2  1  0
 21  7  1  0
 28 23  1  0
 15 10  1  0
M  END
>  <cnnaffinity>  (1) 
-6.35336

>  <filename>  (1) 
Cc1cncc(-n2nc(-c3cccnc3)nc2Cc2ccncc2C)c1

$$$$
