
     RDKit          3D

 51 54  0  0  0  0  0  0  0  0999 V2000
    5.6757   -5.0945   27.0943 C   0  0  0  0  0  0  0  0  0  0  0  0
    6.4238   -4.2996   26.0177 C   0  0  0  0  0  0  0  0  0  0  0  0
    5.9561   -2.8395   25.9405 C   0  0  0  0  0  0  0  0  0  0  0  0
    6.7728   -1.9910   24.9372 C   0  0  0  0  0  0  0  0  0  0  0  0
    7.3559   -2.8086   23.7356 C   0  0  0  0  0  0  0  0  0  0  0  0
    7.6369   -1.9174   22.5493 C   0  0  0  0  0  0  0  0  0  0  0  0
    6.6980   -1.4999   21.7219 N   0  0  0  0  0  0  0  0  0  0  0  0
    7.3699   -0.6498   20.9004 N   0  0  0  0  0  0  0  0  0  0  0  0
    6.6787   -0.0025   19.8462 C   0  0  0  0  0  0  0  0  0  0  0  0
    5.4597    0.6246   20.1177 C   0  0  0  0  0  0  0  0  0  0  0  0
    4.8276    1.3111   19.0805 C   0  0  0  0  0  0  0  0  0  0  0  0
    5.4129    1.3187   17.8093 C   0  0  0  0  0  0  0  0  0  0  0  0
    6.5490    0.6623   17.5254 N   0  0  0  0  0  0  0  0  0  0  0  0
    7.1605    0.0114   18.5238 C   0  0  0  0  0  0  0  0  0  0  0  0
    8.0695   -0.5333   18.2681 H   0  0  0  0  0  0  0  0  0  0  0  0
    4.9462    1.8641   16.9914 H   0  0  0  0  0  0  0  0  0  0  0  0
    3.8940    1.8335   19.2520 H   0  0  0  0  0  0  0  0  0  0  0  0
    5.0291    0.5492   21.1167 H   0  0  0  0  0  0  0  0  0  0  0  0
    8.6618   -0.5482   21.3240 C   0  0  0  0  0  0  0  0  0  0  0  0
    9.5591    0.5733   20.8820 C   0  0  0  0  0  0  0  0  0  0  0  0
    9.1378    1.9751   21.4295 C   0  0  0  0  0  0  0  0  0  0  0  0
    8.9169    2.0356   22.9301 C   0  0  0  0  0  0  0  0  0  0  0  0
    9.9557    2.2236   23.6995 N   0  0  0  0  0  0  0  0  0  0  0  0
    9.7388    2.2142   25.0490 N   0  0  0  0  0  0  0  0  0  0  0  0
    8.5446    2.0288   25.7371 C   0  0  0  0  0  0  0  0  0  0  0  0
    8.5206    2.0758   26.9538 O   0  0  0  0  0  0  0  0  0  0  0  0
    7.4181    1.7961   24.8443 C   0  0  0  0  0  0  0  0  0  0  0  0
    7.5973    1.8246   23.4940 C   0  0  0  0  0  0  0  0  0  0  0  0
    6.7736    1.6694   22.8083 H   0  0  0  0  0  0  0  0  0  0  0  0
    6.4746    1.6037   25.3365 H   0  0  0  0  0  0  0  0  0  0  0  0
   10.5324    2.2395   25.6714 H   0  0  0  0  0  0  0  0  0  0  0  0
    9.9110    2.7054   21.1726 H   0  0  0  0  0  0  0  0  0  0  0  0
    8.2162    2.2765   20.9168 H   0  0  0  0  0  0  0  0  0  0  0  0
    9.5709    0.6118   19.7892 H   0  0  0  0  0  0  0  0  0  0  0  0
   10.5751    0.3368   21.2059 H   0  0  0  0  0  0  0  0  0  0  0  0
    8.8709   -1.3837   22.3265 N   0  0  0  0  0  0  0  0  0  0  0  0
    6.4651   -4.0257   23.4099 C   0  0  0  0  0  0  0  0  0  0  0  0
    6.2912   -4.9721   24.6266 C   0  0  0  0  0  0  0  0  0  0  0  0
    5.3013   -5.4424   24.5480 H   0  0  0  0  0  0  0  0  0  0  0  0
    7.0196   -5.7916   24.5713 H   0  0  0  0  0  0  0  0  0  0  0  0
    5.4857   -3.6545   23.0791 H   0  0  0  0  0  0  0  0  0  0  0  0
    6.8820   -4.5946   22.5710 H   0  0  0  0  0  0  0  0  0  0  0  0
    8.3425   -3.1791   24.0357 H   0  0  0  0  0  0  0  0  0  0  0  0
    7.6160   -1.5138   25.4545 H   0  0  0  0  0  0  0  0  0  0  0  0
    6.1307   -1.1752   24.5760 H   0  0  0  0  0  0  0  0  0  0  0  0
    6.0016   -2.3733   26.9328 H   0  0  0  0  0  0  0  0  0  0  0  0
    4.8940   -2.8344   25.6503 H   0  0  0  0  0  0  0  0  0  0  0  0
    7.4898   -4.2934   26.2949 H   0  0  0  0  0  0  0  0  0  0  0  0
    6.0308   -6.1311   27.1431 H   0  0  0  0  0  0  0  0  0  0  0  0
    4.5987   -5.1213   26.8814 H   0  0  0  0  0  0  0  0  0  0  0  0
    5.8051   -4.6516   28.0893 H   0  0  0  0  0  0  0  0  0  0  0  0
  1  2  1  0
  2  3  1  0
  3  4  1  0
  4  5  1  0
  5  6  1  0
  6  7  2  0
  7  8  1  0
  8  9  1  0
  9 10  2  0
 10 11  1  0
 11 12  2  0
 12 13  1  0
 13 14  2  0
 14 15  1  0
 12 16  1  0
 11 17  1  0
 10 18  1  0
  8 19  1  0
 19 20  1  0
 20 21  1  0
 21 22  1  0
 22 23  2  0
 23 24  1  0
 24 25  1  0
 25 26  2  0
 25 27  1  0
 27 28  2  0
 28 29  1  0
 27 30  1  0
 24 31  1  0
 21 32  1  0
 21 33  1  0
 20 34  1  0
 20 35  1  0
 19 36  2  0
  5 37  1  0
 37 38  1  0
 38 39  1  0
 38 40  1  0
 37 41  1  0
 37 42  1  0
  5 43  1  0
  4 44  1  0
  4 45  1  0
  3 46  1  0
  3 47  1  0
  2 48  1  0
  1 49  1  0
  1 50  1  0
  1 51  1  0
 38  2  1  0
 36  6  1  0
 14  9  1  0
 28 22  1  0
M  END
>  <cnnaffinity>  (1) 
-6.13101

>  <filename>  (1) 
CC1CCC(c2nc(CCc3ccc(=O)[nH]n3)n(-c3cccnc3)n2)CC1

$$$$
