
     RDKit          3D

 46 49  0  0  0  0  0  0  0  0999 V2000
   16.0212   -0.3152   19.6515 C   0  0  0  0  0  0  0  0  0  0  0  0
   14.7165   -0.7919   20.5438 C   0  0  0  0  0  0  0  0  0  0  0  0
   14.4386    0.0965   21.6470 C   0  0  0  0  0  0  0  0  0  0  0  0
   13.1620    0.2861   22.1648 C   0  0  0  0  0  0  0  0  0  0  0  0
   12.1104   -0.5065   21.6488 C   0  0  0  0  0  0  0  0  0  0  0  0
   10.6666   -0.1348   21.7362 C   0  0  0  0  0  0  0  0  0  0  0  0
    9.7011   -0.9051   21.2425 N   0  0  0  0  0  0  0  0  0  0  0  0
    8.5760   -0.1881   21.4344 N   0  0  0  0  0  0  0  0  0  0  0  0
    7.2760   -0.7201   21.0276 C   0  0  0  0  0  0  0  0  0  0  0  0
    6.5754    0.0481   19.9253 C   0  0  0  0  0  0  0  0  0  0  0  0
    5.3668    0.7260   20.1384 C   0  0  0  0  0  0  0  0  0  0  0  0
    4.7608    1.3766   19.0599 C   0  0  0  0  0  0  0  0  0  0  0  0
    5.3910    1.3376   17.8127 C   0  0  0  0  0  0  0  0  0  0  0  0
    6.5476    0.6930   17.5907 N   0  0  0  0  0  0  0  0  0  0  0  0
    7.1166    0.0736   18.6299 C   0  0  0  0  0  0  0  0  0  0  0  0
    8.0506   -0.4474   18.4193 H   0  0  0  0  0  0  0  0  0  0  0  0
    4.9486    1.8356   16.9521 H   0  0  0  0  0  0  0  0  0  0  0  0
    3.8290    1.9203   19.1684 H   0  0  0  0  0  0  0  0  0  0  0  0
    4.9241    0.7491   21.1404 H   0  0  0  0  0  0  0  0  0  0  0  0
    6.6316   -0.7593   21.9108 H   0  0  0  0  0  0  0  0  0  0  0  0
    7.4753   -1.7495   20.7178 H   0  0  0  0  0  0  0  0  0  0  0  0
    8.8935    0.9703   22.0469 C   0  0  0  0  0  0  0  0  0  0  0  0
    7.8588    1.8632   22.6590 C   0  0  0  0  0  0  0  0  0  0  0  0
    7.3589    1.2618   23.8855 N   0  0  0  0  0  0  0  0  0  0  0  0
    8.1029    0.9275   24.9615 C   0  0  0  0  0  0  0  0  0  0  0  0
    7.2891    0.2488   25.8379 C   0  0  0  0  0  0  0  0  0  0  0  0
    7.6967   -0.3184   27.1697 C   0  0  0  0  0  0  0  0  0  0  0  0
    8.7355   -0.6681   27.1446 H   0  0  0  0  0  0  0  0  0  0  0  0
    7.0728   -1.1664   27.4687 H   0  0  0  0  0  0  0  0  0  0  0  0
    7.6332    0.4317   27.9680 H   0  0  0  0  0  0  0  0  0  0  0  0
    6.0428    0.2233   25.1717 C   0  0  0  0  0  0  0  0  0  0  0  0
    6.0994    0.8292   23.9846 N   0  0  0  0  0  0  0  0  0  0  0  0
    5.1120   -0.2226   25.5051 H   0  0  0  0  0  0  0  0  0  0  0  0
    9.1664    1.1500   24.9872 H   0  0  0  0  0  0  0  0  0  0  0  0
    6.9974    2.0124   22.0049 H   0  0  0  0  0  0  0  0  0  0  0  0
    8.3094    2.8330   22.8834 H   0  0  0  0  0  0  0  0  0  0  0  0
   10.1988    1.0432   22.2417 N   0  0  0  0  0  0  0  0  0  0  0  0
   12.4803   -1.6357   20.8978 C   0  0  0  0  0  0  0  0  0  0  0  0
   13.7651   -1.8022   20.3482 C   0  0  0  0  0  0  0  0  0  0  0  0
   13.9891   -2.7105   19.7990 H   0  0  0  0  0  0  0  0  0  0  0  0
   11.6851   -2.3380   20.7148 H   0  0  0  0  0  0  0  0  0  0  0  0
   12.9937    1.0879   22.8817 H   0  0  0  0  0  0  0  0  0  0  0  0
   15.2149    0.7912   21.9559 H   0  0  0  0  0  0  0  0  0  0  0  0
   16.3777    0.5702   20.1563 H   0  0  0  0  0  0  0  0  0  0  0  0
   15.9416    0.1222   18.6397 H   0  0  0  0  0  0  0  0  0  0  0  0
   16.8408   -1.0358   19.6560 H   0  0  0  0  0  0  0  0  0  0  0  0
  1  2  1  0
  2  3  2  0
  3  4  1  0
  4  5  2  0
  5  6  1  0
  6  7  2  0
  7  8  1  0
  8  9  1  0
  9 10  1  0
 10 11  2  0
 11 12  1  0
 12 13  2  0
 13 14  1  0
 14 15  2  0
 15 16  1  0
 13 17  1  0
 12 18  1  0
 11 19  1  0
  9 20  1  0
  9 21  1  0
  8 22  1  0
 22 23  1  0
 23 24  1  0
 24 25  1  0
 25 26  2  0
 26 27  1  0
 27 28  1  0
 27 29  1  0
 27 30  1  0
 26 31  1  0
 31 32  2  0
 31 33  1  0
 25 34  1  0
 23 35  1  0
 23 36  1  0
 22 37  2  0
  5 38  1  0
 38 39  2  0
 39 40  1  0
 38 41  1  0
  4 42  1  0
  3 43  1  0
  1 44  1  0
  1 45  1  0
  1 46  1  0
 39  2  1  0
 37  6  1  0
 15 10  1  0
 32 24  1  0
M  END
>  <cnnaffinity>  (1) 
-6.38811

>  <filename>  (1) 
Cc1ccc(-c2nc(Cn3cc(C)cn3)n(Cc3cccnc3)n2)cc1

$$$$
