
     RDKit          3D

 44 47  0  0  0  0  0  0  0  0999 V2000
   12.7144    1.0815   23.4557 C   0  0  0  0  0  0  0  0  0  0  0  0
   11.3672    1.7569   23.5617 C   0  0  0  0  0  0  0  0  0  0  0  0
   11.1068    2.6015   24.6320 C   0  0  0  0  0  0  0  0  0  0  0  0
    9.8685    3.2378   24.8107 C   0  0  0  0  0  0  0  0  0  0  0  0
    8.8568    3.0192   23.8840 C   0  0  0  0  0  0  0  0  0  0  0  0
    9.0812    2.1781   22.7863 C   0  0  0  0  0  0  0  0  0  0  0  0
   10.3308    1.5613   22.6234 C   0  0  0  0  0  0  0  0  0  0  0  0
   10.6547    0.7396   21.5755 O   0  0  0  0  0  0  0  0  0  0  0  0
    9.6476    0.2536   20.7187 C   0  0  0  0  0  0  0  0  0  0  0  0
    8.6219   -0.6193   21.3618 C   0  0  0  0  0  0  0  0  0  0  0  0
    8.8392   -1.4705   22.3370 N   0  0  0  0  0  0  0  0  0  0  0  0
    7.6024   -1.9738   22.5856 C   0  0  0  0  0  0  0  0  0  0  0  0
    7.3643   -2.8784   23.7397 C   0  0  0  0  0  0  0  0  0  0  0  0
    8.4147   -4.0210   23.9269 C   0  0  0  0  0  0  0  0  0  0  0  0
    8.8350   -3.4195   25.2923 C   0  0  0  0  0  0  0  0  0  0  0  0
    7.7831   -2.2923   25.1354 C   0  0  0  0  0  0  0  0  0  0  0  0
    6.9816   -2.2813   25.8816 H   0  0  0  0  0  0  0  0  0  0  0  0
    8.1987   -1.2756   25.0853 H   0  0  0  0  0  0  0  0  0  0  0  0
    8.6877   -4.0770   26.1572 H   0  0  0  0  0  0  0  0  0  0  0  0
    9.8740   -3.0692   25.3322 H   0  0  0  0  0  0  0  0  0  0  0  0
    7.9790   -5.0242   23.9645 H   0  0  0  0  0  0  0  0  0  0  0  0
    9.2057   -4.0316   23.1658 H   0  0  0  0  0  0  0  0  0  0  0  0
    6.3171   -3.1986   23.6702 H   0  0  0  0  0  0  0  0  0  0  0  0
    6.6550   -1.5362   21.7789 N   0  0  0  0  0  0  0  0  0  0  0  0
    7.3219   -0.6819   20.9569 N   0  0  0  0  0  0  0  0  0  0  0  0
    6.6530   -0.0017   19.9011 C   0  0  0  0  0  0  0  0  0  0  0  0
    5.4384    0.6451   20.1558 C   0  0  0  0  0  0  0  0  0  0  0  0
    4.8078    1.3134   19.1040 C   0  0  0  0  0  0  0  0  0  0  0  0
    5.3989    1.2968   17.8337 C   0  0  0  0  0  0  0  0  0  0  0  0
    6.5544    0.6658   17.5756 N   0  0  0  0  0  0  0  0  0  0  0  0
    7.1646    0.0409   18.5896 C   0  0  0  0  0  0  0  0  0  0  0  0
    8.1061   -0.4461   18.3428 H   0  0  0  0  0  0  0  0  0  0  0  0
    4.9283    1.7989   16.9918 H   0  0  0  0  0  0  0  0  0  0  0  0
    3.8736    1.8461   19.2548 H   0  0  0  0  0  0  0  0  0  0  0  0
    5.0175    0.6047   21.1611 H   0  0  0  0  0  0  0  0  0  0  0  0
   10.1757   -0.3946   20.0185 H   0  0  0  0  0  0  0  0  0  0  0  0
    9.1685    1.0911   20.2001 H   0  0  0  0  0  0  0  0  0  0  0  0
    8.2828    1.9964   22.0733 H   0  0  0  0  0  0  0  0  0  0  0  0
    7.8918    3.5053   24.0112 H   0  0  0  0  0  0  0  0  0  0  0  0
    9.6837    3.8937   25.6577 H   0  0  0  0  0  0  0  0  0  0  0  0
   11.9380    2.7274   25.3146 H   0  0  0  0  0  0  0  0  0  0  0  0
   12.6318   -0.0057   23.5658 H   0  0  0  0  0  0  0  0  0  0  0  0
   13.1926    1.2863   22.4930 H   0  0  0  0  0  0  0  0  0  0  0  0
   13.3777    1.4445   24.2473 H   0  0  0  0  0  0  0  0  0  0  0  0
  1  2  1  0
  2  3  2  0
  3  4  1  0
  4  5  2  0
  5  6  1  0
  6  7  2  0
  7  8  1  0
  8  9  1  0
  9 10  1  0
 10 11  2  0
 11 12  1  0
 12 13  1  0
 13 14  1  0
 14 15  1  0
 15 16  1  0
 16 17  1  0
 16 18  1  0
 15 19  1  0
 15 20  1  0
 14 21  1  0
 14 22  1  0
 13 23  1  0
 12 24  2  0
 24 25  1  0
 25 26  1  0
 26 27  2  0
 27 28  1  0
 28 29  2  0
 29 30  1  0
 30 31  2  0
 31 32  1  0
 29 33  1  0
 28 34  1  0
 27 35  1  0
  9 36  1  0
  9 37  1  0
  6 38  1  0
  5 39  1  0
  4 40  1  0
  3 41  1  0
  1 42  1  0
  1 43  1  0
  1 44  1  0
  7  2  1  0
 25 10  1  0
 31 26  1  0
 16 13  1  0
M  END
>  <cnnaffinity>  (1) 
-6.09287

>  <filename>  (1) 
Cc1ccccc1OCc1nc(C2CCC2)nn1-c1cccnc1

$$$$
