
     RDKit          3D

 51 54  0  0  0  0  0  0  0  0999 V2000
   11.2133    2.5041   24.2533 C   0  0  0  0  0  0  0  0  0  0  0  0
    9.8059    2.2049   24.6965 C   0  0  0  0  0  0  0  0  0  0  0  0
    8.9218    3.2412   25.0196 C   0  0  0  0  0  0  0  0  0  0  0  0
    7.6232    2.9560   25.4552 C   0  0  0  0  0  0  0  0  0  0  0  0
    7.1923    1.6326   25.5695 C   0  0  0  0  0  0  0  0  0  0  0  0
    8.0694    0.5877   25.2421 C   0  0  0  0  0  0  0  0  0  0  0  0
    7.6169   -0.7690   25.3433 N   0  0  0  0  0  0  0  0  0  0  0  0
    7.0227   -1.2391   26.4772 N   0  0  0  0  0  0  0  0  0  0  0  0
    6.7366   -2.4819   26.1719 C   0  0  0  0  0  0  0  0  0  0  0  0
    6.0577   -3.4298   27.1325 C   0  0  0  0  0  0  0  0  0  0  0  0
    4.7263   -4.0128   26.5600 C   0  0  0  0  0  0  0  0  0  0  0  0
    4.9246   -5.4270   26.0137 C   0  0  0  0  0  0  0  0  0  0  0  0
    5.3766   -6.3341   27.0096 O   0  0  0  0  0  0  0  0  0  0  0  0
    6.2238   -5.8073   28.0257 C   0  0  0  0  0  0  0  0  0  0  0  0
    7.0112   -4.5834   27.5653 C   0  0  0  0  0  0  0  0  0  0  0  0
    7.6818   -4.2609   28.3642 H   0  0  0  0  0  0  0  0  0  0  0  0
    7.6510   -4.8773   26.7239 H   0  0  0  0  0  0  0  0  0  0  0  0
    5.6109   -5.5505   28.9044 H   0  0  0  0  0  0  0  0  0  0  0  0
    6.8965   -6.6197   28.3249 H   0  0  0  0  0  0  0  0  0  0  0  0
    3.9831   -5.8372   25.6318 H   0  0  0  0  0  0  0  0  0  0  0  0
    5.6454   -5.4011   25.1815 H   0  0  0  0  0  0  0  0  0  0  0  0
    3.9693   -4.0585   27.3533 H   0  0  0  0  0  0  0  0  0  0  0  0
    4.3155   -3.3698   25.7764 H   0  0  0  0  0  0  0  0  0  0  0  0
    5.8107   -2.8244   28.0093 H   0  0  0  0  0  0  0  0  0  0  0  0
    7.0789   -2.8515   24.9061 N   0  0  0  0  0  0  0  0  0  0  0  0
    7.6224   -1.7581   24.4081 C   0  0  0  0  0  0  0  0  0  0  0  0
    8.0151   -1.5816   22.9780 C   0  0  0  0  0  0  0  0  0  0  0  0
    6.9747   -0.7714   22.2070 C   0  0  0  0  0  0  0  0  0  0  0  0
    7.4187   -0.6835   20.8560 O   0  0  0  0  0  0  0  0  0  0  0  0
    6.6690   -0.0021   19.9379 C   0  0  0  0  0  0  0  0  0  0  0  0
    5.4467    0.6415   20.1832 C   0  0  0  0  0  0  0  0  0  0  0  0
    4.8161    1.3020   19.1124 C   0  0  0  0  0  0  0  0  0  0  0  0
    5.4028    1.2900   17.8440 C   0  0  0  0  0  0  0  0  0  0  0  0
    6.5698    0.6679   17.5969 N   0  0  0  0  0  0  0  0  0  0  0  0
    7.1780    0.0549   18.6158 C   0  0  0  0  0  0  0  0  0  0  0  0
    8.1231   -0.4346   18.3982 H   0  0  0  0  0  0  0  0  0  0  0  0
    4.9188    1.7807   16.9961 H   0  0  0  0  0  0  0  0  0  0  0  0
    3.8819    1.8366   19.2623 H   0  0  0  0  0  0  0  0  0  0  0  0
    5.0009    0.6307   21.1802 H   0  0  0  0  0  0  0  0  0  0  0  0
    6.0074   -1.2860   22.2506 H   0  0  0  0  0  0  0  0  0  0  0  0
    6.8570    0.2294   22.6500 H   0  0  0  0  0  0  0  0  0  0  0  0
    8.9833   -1.0835   22.8953 H   0  0  0  0  0  0  0  0  0  0  0  0
    8.1240   -2.5672   22.5224 H   0  0  0  0  0  0  0  0  0  0  0  0
    9.3726    0.8758   24.8166 C   0  0  0  0  0  0  0  0  0  0  0  0
   10.0628    0.0658   24.6034 H   0  0  0  0  0  0  0  0  0  0  0  0
    6.1924    1.3983   25.9218 H   0  0  0  0  0  0  0  0  0  0  0  0
    6.9525    3.7705   25.7174 H   0  0  0  0  0  0  0  0  0  0  0  0
    9.2602    4.2727   24.9330 H   0  0  0  0  0  0  0  0  0  0  0  0
   11.5980    1.7392   23.5729 H   0  0  0  0  0  0  0  0  0  0  0  0
   11.2899    3.4730   23.7496 H   0  0  0  0  0  0  0  0  0  0  0  0
   11.8942    2.5266   25.1075 H   0  0  0  0  0  0  0  0  0  0  0  0
  1  2  1  0
  2  3  2  0
  3  4  1  0
  4  5  2  0
  5  6  1  0
  6  7  1  0
  7  8  1  0
  8  9  2  0
  9 10  1  0
 10 11  1  0
 11 12  1  0
 12 13  1  0
 13 14  1  0
 14 15  1  0
 15 16  1  0
 15 17  1  0
 14 18  1  0
 14 19  1  0
 12 20  1  0
 12 21  1  0
 11 22  1  0
 11 23  1  0
 10 24  1  0
  9 25  1  0
 25 26  2  0
 26 27  1  0
 27 28  1  0
 28 29  1  0
 29 30  1  0
 30 31  2  0
 31 32  1  0
 32 33  2  0
 33 34  1  0
 34 35  2  0
 35 36  1  0
 33 37  1  0
 32 38  1  0
 31 39  1  0
 28 40  1  0
 28 41  1  0
 27 42  1  0
 27 43  1  0
  6 44  2  0
 44 45  1  0
  5 46  1  0
  4 47  1  0
  3 48  1  0
  1 49  1  0
  1 50  1  0
  1 51  1  0
 44  2  1  0
 26  7  1  0
 35 30  1  0
 15 10  1  0
M  END
>  <cnnaffinity>  (1) 
-5.76152

>  <filename>  (1) 
Cc1cccc(-n2nc(C3CCOCC3)nc2CCOc2cccnc2)c1

$$$$
