
     RDKit          3D

 43 46  0  0  0  0  0  0  0  0999 V2000
    6.0691    3.6511   29.0948 C   0  0  0  0  0  0  0  0  0  0  0  0
    6.4418    3.0405   27.7644 C   0  0  0  0  0  0  0  0  0  0  0  0
    5.6557    2.0431   27.1575 C   0  0  0  0  0  0  0  0  0  0  0  0
    5.9828    1.5158   25.9026 C   0  0  0  0  0  0  0  0  0  0  0  0
    7.1223    1.9818   25.2140 C   0  0  0  0  0  0  0  0  0  0  0  0
    7.5473    1.4722   23.8861 C   0  0  0  0  0  0  0  0  0  0  0  0
    6.9724    0.4865   23.2147 N   0  0  0  0  0  0  0  0  0  0  0  0
    7.7692    0.3341   22.1272 N   0  0  0  0  0  0  0  0  0  0  0  0
    7.3927   -0.6126   21.0784 C   0  0  0  0  0  0  0  0  0  0  0  0
    6.6824    0.0418   19.9114 C   0  0  0  0  0  0  0  0  0  0  0  0
    5.4684    0.7092   20.1141 C   0  0  0  0  0  0  0  0  0  0  0  0
    4.8617    1.3312   19.0217 C   0  0  0  0  0  0  0  0  0  0  0  0
    5.4822    1.2720   17.7706 C   0  0  0  0  0  0  0  0  0  0  0  0
    6.6310    0.6154   17.5552 N   0  0  0  0  0  0  0  0  0  0  0  0
    7.2030    0.0219   18.6106 C   0  0  0  0  0  0  0  0  0  0  0  0
    8.1250   -0.5195   18.3963 H   0  0  0  0  0  0  0  0  0  0  0  0
    5.0318    1.7626   16.9058 H   0  0  0  0  0  0  0  0  0  0  0  0
    3.9301    1.8722   19.1277 H   0  0  0  0  0  0  0  0  0  0  0  0
    5.0173    0.7424   21.1094 H   0  0  0  0  0  0  0  0  0  0  0  0
    8.2793   -1.1585   20.7360 H   0  0  0  0  0  0  0  0  0  0  0  0
    6.7404   -1.3462   21.5602 H   0  0  0  0  0  0  0  0  0  0  0  0
    8.7745    1.2320   22.1898 C   0  0  0  0  0  0  0  0  0  0  0  0
    9.9500    1.2895   21.2599 C   0  0  0  0  0  0  0  0  0  0  0  0
   11.0724    0.3651   21.6461 C   0  0  0  0  0  0  0  0  0  0  0  0
   12.0059    0.4020   22.6529 C   0  0  0  0  0  0  0  0  0  0  0  0
   12.8413   -0.6843   22.5800 N   0  0  0  0  0  0  0  0  0  0  0  0
   12.4221   -1.3847   21.5627 C   0  0  0  0  0  0  0  0  0  0  0  0
   11.3418   -0.8051   20.9779 N   0  0  0  0  0  0  0  0  0  0  0  0
   10.8881   -1.1545   20.1494 H   0  0  0  0  0  0  0  0  0  0  0  0
   12.8617   -2.3038   21.1898 H   0  0  0  0  0  0  0  0  0  0  0  0
   12.1552    1.1572   23.4165 H   0  0  0  0  0  0  0  0  0  0  0  0
   10.3164    2.3196   21.2906 H   0  0  0  0  0  0  0  0  0  0  0  0
    9.6350    1.0736   20.2358 H   0  0  0  0  0  0  0  0  0  0  0  0
    8.6524    1.9768   23.2622 N   0  0  0  0  0  0  0  0  0  0  0  0
    7.9218    2.9642   25.8348 C   0  0  0  0  0  0  0  0  0  0  0  0
    7.5867    3.4797   27.0812 C   0  0  0  0  0  0  0  0  0  0  0  0
    8.2314    4.2284   27.5366 H   0  0  0  0  0  0  0  0  0  0  0  0
    8.8255    3.2986   25.3298 H   0  0  0  0  0  0  0  0  0  0  0  0
    5.3712    0.7240   25.4713 H   0  0  0  0  0  0  0  0  0  0  0  0
    4.7825    1.6639   27.6854 H   0  0  0  0  0  0  0  0  0  0  0  0
    6.9590    3.9591   29.6555 H   0  0  0  0  0  0  0  0  0  0  0  0
    5.4517    4.5471   28.9537 H   0  0  0  0  0  0  0  0  0  0  0  0
    5.5027    2.9562   29.7240 H   0  0  0  0  0  0  0  0  0  0  0  0
  1  2  1  0
  2  3  2  0
  3  4  1  0
  4  5  2  0
  5  6  1  0
  6  7  2  0
  7  8  1  0
  8  9  1  0
  9 10  1  0
 10 11  2  0
 11 12  1  0
 12 13  2  0
 13 14  1  0
 14 15  2  0
 15 16  1  0
 13 17  1  0
 12 18  1  0
 11 19  1  0
  9 20  1  0
  9 21  1  0
  8 22  1  0
 22 23  1  0
 23 24  1  0
 24 25  2  0
 25 26  1  0
 26 27  2  0
 27 28  1  0
 28 29  1  0
 27 30  1  0
 25 31  1  0
 23 32  1  0
 23 33  1  0
 22 34  2  0
  5 35  1  0
 35 36  2  0
 36 37  1  0
 35 38  1  0
  4 39  1  0
  3 40  1  0
  1 41  1  0
  1 42  1  0
  1 43  1  0
 36  2  1  0
 34  6  1  0
 15 10  1  0
 28 24  1  0
M  END
>  <cnnaffinity>  (1) 
-5.72611

>  <filename>  (1) 
Cc1ccc(-c2nc(Cc3cnc[nH]3)n(Cc3cccnc3)n2)cc1

$$$$
