
     RDKit          3D

 45 48  0  0  0  0  0  0  0  0999 V2000
    9.3153   -1.2597   27.3138 C   0  0  0  0  0  0  0  0  0  0  0  0
    8.2751   -1.6929   26.3070 C   0  0  0  0  0  0  0  0  0  0  0  0
    7.2663   -2.6153   26.6259 C   0  0  0  0  0  0  0  0  0  0  0  0
    6.2409   -2.9009   25.7138 C   0  0  0  0  0  0  0  0  0  0  0  0
    6.2506   -2.3151   24.4481 C   0  0  0  0  0  0  0  0  0  0  0  0
    7.3358   -1.5220   24.0721 C   0  0  0  0  0  0  0  0  0  0  0  0
    7.5169   -1.1807   22.6947 N   0  0  0  0  0  0  0  0  0  0  0  0
    6.6196   -0.4537   21.9911 N   0  0  0  0  0  0  0  0  0  0  0  0
    7.1274   -0.4564   20.7733 C   0  0  0  0  0  0  0  0  0  0  0  0
    6.4780    0.2237   19.6586 C   0  0  0  0  0  0  0  0  0  0  0  0
    5.2555    0.9071   19.7915 C   0  0  0  0  0  0  0  0  0  0  0  0
    4.7176    1.5135   18.6614 C   0  0  0  0  0  0  0  0  0  0  0  0
    5.4141    1.4235   17.4501 C   0  0  0  0  0  0  0  0  0  0  0  0
    6.5736    0.7635   17.3128 N   0  0  0  0  0  0  0  0  0  0  0  0
    7.0895    0.1810   18.3993 C   0  0  0  0  0  0  0  0  0  0  0  0
    8.0307   -0.3468   18.2655 H   0  0  0  0  0  0  0  0  0  0  0  0
    5.0236    1.8946   16.5514 H   0  0  0  0  0  0  0  0  0  0  0  0
    3.7827    2.0616   18.7019 H   0  0  0  0  0  0  0  0  0  0  0  0
    4.7538    0.9543   20.7601 H   0  0  0  0  0  0  0  0  0  0  0  0
    8.2767   -1.1751   20.6408 N   0  0  0  0  0  0  0  0  0  0  0  0
    8.4768   -1.6477   21.8521 C   0  0  0  0  0  0  0  0  0  0  0  0
    9.5627   -2.5885   22.2832 C   0  0  0  0  0  0  0  0  0  0  0  0
    9.1197   -3.8366   23.0607 C   0  0  0  0  0  0  0  0  0  0  0  0
    7.9271   -4.5119   22.7780 C   0  0  0  0  0  0  0  0  0  0  0  0
    7.3493   -5.4162   23.5799 N   0  0  0  0  0  0  0  0  0  0  0  0
    7.9807   -5.6890   24.7341 C   0  0  0  0  0  0  0  0  0  0  0  0
    9.2320   -5.1715   25.0622 C   0  0  0  0  0  0  0  0  0  0  0  0
    9.8603   -4.3009   24.1598 C   0  0  0  0  0  0  0  0  0  0  0  0
   11.2775   -3.8792   24.3826 C   0  0  0  0  0  0  0  0  0  0  0  0
   11.2675   -2.9533   24.9468 H   0  0  0  0  0  0  0  0  0  0  0  0
   11.8307   -4.6279   24.9540 H   0  0  0  0  0  0  0  0  0  0  0  0
   11.8155   -3.6679   23.4541 H   0  0  0  0  0  0  0  0  0  0  0  0
    9.7065   -5.4418   26.0029 H   0  0  0  0  0  0  0  0  0  0  0  0
    7.4678   -6.3606   25.4217 H   0  0  0  0  0  0  0  0  0  0  0  0
    7.3953   -4.2697   21.8555 H   0  0  0  0  0  0  0  0  0  0  0  0
   10.2607   -1.9930   22.8868 H   0  0  0  0  0  0  0  0  0  0  0  0
   10.1218   -2.8309   21.3797 H   0  0  0  0  0  0  0  0  0  0  0  0
    8.3206   -1.1808   25.0057 C   0  0  0  0  0  0  0  0  0  0  0  0
    9.1435   -0.5342   24.7191 H   0  0  0  0  0  0  0  0  0  0  0  0
    5.4787   -2.5501   23.7191 H   0  0  0  0  0  0  0  0  0  0  0  0
    5.4497   -3.5964   25.9878 H   0  0  0  0  0  0  0  0  0  0  0  0
    7.2866   -3.1209   27.5869 H   0  0  0  0  0  0  0  0  0  0  0  0
    8.8612   -0.8621   28.2276 H   0  0  0  0  0  0  0  0  0  0  0  0
    9.9516   -2.1041   27.5941 H   0  0  0  0  0  0  0  0  0  0  0  0
    9.9668   -0.4805   26.9042 H   0  0  0  0  0  0  0  0  0  0  0  0
  1  2  1  0
  2  3  2  0
  3  4  1  0
  4  5  2  0
  5  6  1  0
  6  7  1  0
  7  8  1  0
  8  9  2  0
  9 10  1  0
 10 11  2  0
 11 12  1  0
 12 13  2  0
 13 14  1  0
 14 15  2  0
 15 16  1  0
 13 17  1  0
 12 18  1  0
 11 19  1  0
  9 20  1  0
 20 21  2  0
 21 22  1  0
 22 23  1  0
 23 24  2  0
 24 25  1  0
 25 26  2  0
 26 27  1  0
 27 28  2  0
 28 29  1  0
 29 30  1  0
 29 31  1  0
 29 32  1  0
 27 33  1  0
 26 34  1  0
 24 35  1  0
 22 36  1  0
 22 37  1  0
  6 38  2  0
 38 39  1  0
  5 40  1  0
  4 41  1  0
  3 42  1  0
  1 43  1  0
  1 44  1  0
  1 45  1  0
 38  2  1  0
 21  7  1  0
 28 23  1  0
 15 10  1  0
M  END
>  <cnnaffinity>  (1) 
-6.36092

>  <filename>  (1) 
Cc1cccc(-n2nc(-c3cccnc3)nc2Cc2cnccc2C)c1

$$$$
