
     RDKit          3D

 50 54  0  0  0  0  0  0  0  0999 V2000
    4.3081    1.7111   27.5772 C   0  0  0  0  0  0  0  0  0  0  0  0
    5.6033    2.1298   26.9232 C   0  0  0  0  0  0  0  0  0  0  0  0
    6.0305    1.5559   25.7232 C   0  0  0  0  0  0  0  0  0  0  0  0
    7.2393    1.9316   25.1046 C   0  0  0  0  0  0  0  0  0  0  0  0
    7.6847    1.2844   23.8538 C   0  0  0  0  0  0  0  0  0  0  0  0
    6.9884    0.3823   23.1789 N   0  0  0  0  0  0  0  0  0  0  0  0
    7.7887    0.0886   22.1287 N   0  0  0  0  0  0  0  0  0  0  0  0
    7.2976   -0.7648   21.0480 C   0  0  0  0  0  0  0  0  0  0  0  0
    6.6592   -0.0134   19.8921 C   0  0  0  0  0  0  0  0  0  0  0  0
    5.4670    0.6865   20.1118 C   0  0  0  0  0  0  0  0  0  0  0  0
    4.8588    1.3362   19.0377 C   0  0  0  0  0  0  0  0  0  0  0  0
    5.4812    1.2867   17.7873 C   0  0  0  0  0  0  0  0  0  0  0  0
    6.6214    0.6185   17.5546 N   0  0  0  0  0  0  0  0  0  0  0  0
    7.1818   -0.0212   18.5905 C   0  0  0  0  0  0  0  0  0  0  0  0
    8.0839   -0.5958   18.3616 H   0  0  0  0  0  0  0  0  0  0  0  0
    5.0435    1.7987   16.9322 H   0  0  0  0  0  0  0  0  0  0  0  0
    3.9212    1.8662   19.1565 H   0  0  0  0  0  0  0  0  0  0  0  0
    5.0387    0.7087   21.1156 H   0  0  0  0  0  0  0  0  0  0  0  0
    6.5500   -1.4108   21.5214 H   0  0  0  0  0  0  0  0  0  0  0  0
    8.1219   -1.3971   20.6968 H   0  0  0  0  0  0  0  0  0  0  0  0
    8.9173    0.8340   22.2087 C   0  0  0  0  0  0  0  0  0  0  0  0
   10.0773    0.7188   21.2580 C   0  0  0  0  0  0  0  0  0  0  0  0
   11.1174   -0.3396   21.7208 C   0  0  0  0  0  0  0  0  0  0  0  0
   11.9053    0.1143   22.9642 C   0  0  0  0  0  0  0  0  0  0  0  0
   12.3198    1.5581   22.9118 C   0  0  0  0  0  0  0  0  0  0  0  0
   13.2067    2.1538   23.6766 N   0  0  0  0  0  0  0  0  0  0  0  0
   13.1407    3.4867   23.3317 C   0  0  0  0  0  0  0  0  0  0  0  0
   12.2003    3.6884   22.3624 C   0  0  0  0  0  0  0  0  0  0  0  0
   11.6877    2.4415   22.0890 N   0  0  0  0  0  0  0  0  0  0  0  0
   10.7280    2.1050   21.0443 C   0  0  0  0  0  0  0  0  0  0  0  0
    9.9525    2.8716   21.0552 H   0  0  0  0  0  0  0  0  0  0  0  0
   11.2362    2.1708   20.0769 H   0  0  0  0  0  0  0  0  0  0  0  0
   11.8032    4.5729   21.8799 H   0  0  0  0  0  0  0  0  0  0  0  0
   13.7535    4.2342   23.8191 H   0  0  0  0  0  0  0  0  0  0  0  0
   12.7958   -0.5022   23.1190 H   0  0  0  0  0  0  0  0  0  0  0  0
   11.2835    0.0101   23.8629 H   0  0  0  0  0  0  0  0  0  0  0  0
   10.6068   -1.2921   21.9317 H   0  0  0  0  0  0  0  0  0  0  0  0
   11.7993   -0.5428   20.8888 H   0  0  0  0  0  0  0  0  0  0  0  0
    9.6689    0.4066   20.2905 H   0  0  0  0  0  0  0  0  0  0  0  0
    8.8775    1.5910   23.2836 N   0  0  0  0  0  0  0  0  0  0  0  0
    8.0307    2.9296   25.7087 C   0  0  0  0  0  0  0  0  0  0  0  0
    7.6306    3.5133   26.9077 C   0  0  0  0  0  0  0  0  0  0  0  0
    6.4355    3.1029   27.4940 C   0  0  0  0  0  0  0  0  0  0  0  0
    6.0697    3.6574   28.6646 F   0  0  0  0  0  0  0  0  0  0  0  0
    8.2238    4.2717   27.4047 H   0  0  0  0  0  0  0  0  0  0  0  0
    8.9627    3.2475   25.2428 H   0  0  0  0  0  0  0  0  0  0  0  0
    5.4023    0.7913   25.2650 H   0  0  0  0  0  0  0  0  0  0  0  0
    3.5472    2.4971   27.5089 H   0  0  0  0  0  0  0  0  0  0  0  0
    4.4582    1.4913   28.6388 H   0  0  0  0  0  0  0  0  0  0  0  0
    3.9111    0.8107   27.0971 H   0  0  0  0  0  0  0  0  0  0  0  0
  1  2  1  0
  2  3  2  0
  3  4  1  0
  4  5  1  0
  5  6  2  0
  6  7  1  0
  7  8  1  0
  8  9  1  0
  9 10  2  0
 10 11  1  0
 11 12  2  0
 12 13  1  0
 13 14  2  0
 14 15  1  0
 12 16  1  0
 11 17  1  0
 10 18  1  0
  8 19  1  0
  8 20  1  0
  7 21  1  0
 21 22  1  0
 22 23  1  0
 23 24  1  0
 24 25  1  0
 25 26  2  0
 26 27  1  0
 27 28  2  0
 28 29  1  0
 29 30  1  0
 30 31  1  0
 30 32  1  0
 28 33  1  0
 27 34  1  0
 24 35  1  0
 24 36  1  0
 23 37  1  0
 23 38  1  0
 22 39  1  0
 21 40  2  0
  4 41  2  0
 41 42  1  0
 42 43  2  0
 43 44  1  0
 42 45  1  0
 41 46  1  0
  3 47  1  0
  1 48  1  0
  1 49  1  0
  1 50  1  0
 43  2  1  0
 40  5  1  0
 14  9  1  0
 30 22  1  0
 29 25  1  0
M  END
>  <cnnaffinity>  (1) 
-6.22622

>  <filename>  (1) 
Cc1cc(-c2nc(C3CCc4nccn4C3)n(Cc3cccnc3)n2)ccc1F

$$$$
