
     RDKit          3D

 45 48  0  0  0  0  0  0  0  0999 V2000
    8.2328    6.6631   24.6843 C   0  0  0  0  0  0  0  0  0  0  0  0
    7.6493    5.9293   23.5015 C   0  0  0  0  0  0  0  0  0  0  0  0
    6.4725    6.3785   22.8806 C   0  0  0  0  0  0  0  0  0  0  0  0
    5.8798    5.6431   21.8491 C   0  0  0  0  0  0  0  0  0  0  0  0
    6.4628    4.4483   21.4276 C   0  0  0  0  0  0  0  0  0  0  0  0
    7.6536    4.0044   22.0121 C   0  0  0  0  0  0  0  0  0  0  0  0
    8.3523    2.4526   21.5145 S   0  0  0  0  0  0  0  0  0  0  0  0
    7.4157    1.3827   22.6740 C   0  0  0  0  0  0  0  0  0  0  0  0
    7.5779   -0.0415   22.2815 C   0  0  0  0  0  0  0  0  0  0  0  0
    8.1398   -0.9530   23.0489 N   0  0  0  0  0  0  0  0  0  0  0  0
    8.2984   -2.0042   22.2041 C   0  0  0  0  0  0  0  0  0  0  0  0
    8.9756   -3.2512   22.6573 C   0  0  0  0  0  0  0  0  0  0  0  0
    8.3421   -3.9540   23.8826 C   0  0  0  0  0  0  0  0  0  0  0  0
    9.5350   -4.6356   24.5694 C   0  0  0  0  0  0  0  0  0  0  0  0
   10.7120   -4.0641   24.0322 O   0  0  0  0  0  0  0  0  0  0  0  0
   10.4217   -3.0107   23.1411 C   0  0  0  0  0  0  0  0  0  0  0  0
   11.1742   -3.0511   22.3435 H   0  0  0  0  0  0  0  0  0  0  0  0
   10.5056   -2.0426   23.6623 H   0  0  0  0  0  0  0  0  0  0  0  0
    9.5626   -5.7173   24.3823 H   0  0  0  0  0  0  0  0  0  0  0  0
    9.5279   -4.4827   25.6581 H   0  0  0  0  0  0  0  0  0  0  0  0
    7.5656   -4.6667   23.5847 H   0  0  0  0  0  0  0  0  0  0  0  0
    7.8945   -3.2285   24.5719 H   0  0  0  0  0  0  0  0  0  0  0  0
    8.9540   -3.9213   21.7987 H   0  0  0  0  0  0  0  0  0  0  0  0
    7.8649   -1.8077   20.9762 N   0  0  0  0  0  0  0  0  0  0  0  0
    7.3512   -0.5456   21.0387 N   0  0  0  0  0  0  0  0  0  0  0  0
    6.6562    0.0359   19.9376 C   0  0  0  0  0  0  0  0  0  0  0  0
    5.4465    0.7143   20.1279 C   0  0  0  0  0  0  0  0  0  0  0  0
    4.8576    1.3345   19.0242 C   0  0  0  0  0  0  0  0  0  0  0  0
    5.4838    1.2411   17.7777 C   0  0  0  0  0  0  0  0  0  0  0  0
    6.6208    0.5499   17.5813 N   0  0  0  0  0  0  0  0  0  0  0  0
    7.1840   -0.0466   18.6384 C   0  0  0  0  0  0  0  0  0  0  0  0
    8.1003   -0.6069   18.4617 H   0  0  0  0  0  0  0  0  0  0  0  0
    5.0553    1.7304   16.9044 H   0  0  0  0  0  0  0  0  0  0  0  0
    3.9374    1.8985   19.1317 H   0  0  0  0  0  0  0  0  0  0  0  0
    4.9714    0.7329   21.1087 H   0  0  0  0  0  0  0  0  0  0  0  0
    6.3731    1.7086   22.6851 H   0  0  0  0  0  0  0  0  0  0  0  0
    7.8147    1.4882   23.6821 H   0  0  0  0  0  0  0  0  0  0  0  0
    8.2512    4.7509   23.0347 C   0  0  0  0  0  0  0  0  0  0  0  0
    9.1789    4.4018   23.4798 H   0  0  0  0  0  0  0  0  0  0  0  0
    6.0081    3.8446   20.6441 H   0  0  0  0  0  0  0  0  0  0  0  0
    4.9643    5.9922   21.3768 H   0  0  0  0  0  0  0  0  0  0  0  0
    6.0173    7.3090   23.2125 H   0  0  0  0  0  0  0  0  0  0  0  0
    7.7783    6.3109   25.6183 H   0  0  0  0  0  0  0  0  0  0  0  0
    8.0545    7.7412   24.6219 H   0  0  0  0  0  0  0  0  0  0  0  0
    9.3120    6.5018   24.7664 H   0  0  0  0  0  0  0  0  0  0  0  0
  1  2  1  0
  2  3  2  0
  3  4  1  0
  4  5  2  0
  5  6  1  0
  6  7  1  0
  7  8  1  0
  8  9  1  0
  9 10  2  0
 10 11  1  0
 11 12  1  0
 12 13  1  0
 13 14  1  0
 14 15  1  0
 15 16  1  0
 16 17  1  0
 16 18  1  0
 14 19  1  0
 14 20  1  0
 13 21  1  0
 13 22  1  0
 12 23  1  0
 11 24  2  0
 24 25  1  0
 25 26  1  0
 26 27  2  0
 27 28  1  0
 28 29  2  0
 29 30  1  0
 30 31  2  0
 31 32  1  0
 29 33  1  0
 28 34  1  0
 27 35  1  0
  8 36  1  0
  8 37  1  0
  6 38  2  0
 38 39  1  0
  5 40  1  0
  4 41  1  0
  3 42  1  0
  1 43  1  0
  1 44  1  0
  1 45  1  0
 38  2  1  0
 25  9  1  0
 31 26  1  0
 16 12  1  0
M  END
>  <cnnaffinity>  (1) 
-5.95842

>  <filename>  (1) 
Cc1cccc(SCc2nc(C3CCOC3)nn2-c2cccnc2)c1

$$$$
