
     RDKit          3D

 49 52  0  0  0  0  0  0  0  0999 V2000
    5.9960    3.3905   29.0475 C   0  0  0  0  0  0  0  0  0  0  0  0
    6.3787    2.8740   27.6875 C   0  0  0  0  0  0  0  0  0  0  0  0
    5.6882    1.8161   27.0764 C   0  0  0  0  0  0  0  0  0  0  0  0
    6.0682    1.3002   25.8386 C   0  0  0  0  0  0  0  0  0  0  0  0
    7.1822    1.8391   25.1674 C   0  0  0  0  0  0  0  0  0  0  0  0
    7.6093    1.3222   23.8461 C   0  0  0  0  0  0  0  0  0  0  0  0
    7.0500    0.2998   23.2175 N   0  0  0  0  0  0  0  0  0  0  0  0
    7.7671    0.2085   22.0749 N   0  0  0  0  0  0  0  0  0  0  0  0
    7.3550   -0.7058   21.0149 C   0  0  0  0  0  0  0  0  0  0  0  0
    6.6444   -0.0077   19.8734 C   0  0  0  0  0  0  0  0  0  0  0  0
    5.4379    0.6571   20.1206 C   0  0  0  0  0  0  0  0  0  0  0  0
    4.8122    1.3187   19.0630 C   0  0  0  0  0  0  0  0  0  0  0  0
    5.4172    1.2937   17.8023 C   0  0  0  0  0  0  0  0  0  0  0  0
    6.5655    0.6509   17.5441 N   0  0  0  0  0  0  0  0  0  0  0  0
    7.1541    0.0201   18.5684 C   0  0  0  0  0  0  0  0  0  0  0  0
    8.0832   -0.5041   18.3345 H   0  0  0  0  0  0  0  0  0  0  0  0
    4.9575    1.8081   16.9607 H   0  0  0  0  0  0  0  0  0  0  0  0
    3.8827    1.8578   19.2057 H   0  0  0  0  0  0  0  0  0  0  0  0
    5.0109    0.6546   21.1264 H   0  0  0  0  0  0  0  0  0  0  0  0
    6.6846   -1.4233   21.4977 H   0  0  0  0  0  0  0  0  0  0  0  0
    8.2351   -1.2523   20.6557 H   0  0  0  0  0  0  0  0  0  0  0  0
    8.7150    1.1694   22.0656 C   0  0  0  0  0  0  0  0  0  0  0  0
    9.7695    1.3960   21.0259 C   0  0  0  0  0  0  0  0  0  0  0  0
   11.1573    1.1126   21.5380 C   0  0  0  0  0  0  0  0  0  0  0  0
   11.7383   -0.1095   21.7913 C   0  0  0  0  0  0  0  0  0  0  0  0
   11.1707   -1.4921   21.6245 C   0  0  0  0  0  0  0  0  0  0  0  0
   10.5584   -1.7701   22.4906 H   0  0  0  0  0  0  0  0  0  0  0  0
   11.9291   -2.2727   21.5099 H   0  0  0  0  0  0  0  0  0  0  0  0
   10.5055   -1.5302   20.7547 H   0  0  0  0  0  0  0  0  0  0  0  0
   12.9431    0.1719   22.3781 N   0  0  0  0  0  0  0  0  0  0  0  0
   14.1236   -0.6564   22.3480 C   0  0  0  0  0  0  0  0  0  0  0  0
   14.6915   -0.5073   23.2610 H   0  0  0  0  0  0  0  0  0  0  0  0
   13.8297   -1.7020   22.2990 H   0  0  0  0  0  0  0  0  0  0  0  0
   14.6992   -0.3825   21.4633 H   0  0  0  0  0  0  0  0  0  0  0  0
   13.1496    1.4919   22.5487 N   0  0  0  0  0  0  0  0  0  0  0  0
   12.0676    2.0619   22.0560 C   0  0  0  0  0  0  0  0  0  0  0  0
   11.9587    3.1401   22.0627 H   0  0  0  0  0  0  0  0  0  0  0  0
    9.7130    2.4560   20.7650 H   0  0  0  0  0  0  0  0  0  0  0  0
    9.5308    0.8337   20.1177 H   0  0  0  0  0  0  0  0  0  0  0  0
    8.6291    1.8953   23.1589 N   0  0  0  0  0  0  0  0  0  0  0  0
    7.8926    2.9064   25.7606 C   0  0  0  0  0  0  0  0  0  0  0  0
    7.4684    3.4074   26.9802 C   0  0  0  0  0  0  0  0  0  0  0  0
    8.1189    4.4659   27.5010 F   0  0  0  0  0  0  0  0  0  0  0  0
    8.7639    3.3495   25.2813 H   0  0  0  0  0  0  0  0  0  0  0  0
    5.5059    0.4803   25.3940 H   0  0  0  0  0  0  0  0  0  0  0  0
    4.8315    1.3911   27.5960 H   0  0  0  0  0  0  0  0  0  0  0  0
    5.9948    4.4839   29.0761 H   0  0  0  0  0  0  0  0  0  0  0  0
    4.9996    3.0411   29.3348 H   0  0  0  0  0  0  0  0  0  0  0  0
    6.7050    3.0462   29.8083 H   0  0  0  0  0  0  0  0  0  0  0  0
  1  2  1  0
  2  3  2  0
  3  4  1  0
  4  5  2  0
  5  6  1  0
  6  7  2  0
  7  8  1  0
  8  9  1  0
  9 10  1  0
 10 11  2  0
 11 12  1  0
 12 13  2  0
 13 14  1  0
 14 15  2  0
 15 16  1  0
 13 17  1  0
 12 18  1  0
 11 19  1  0
  9 20  1  0
  9 21  1  0
  8 22  1  0
 22 23  1  0
 23 24  1  0
 24 25  2  0
 25 26  1  0
 26 27  1  0
 26 28  1  0
 26 29  1  0
 25 30  1  0
 30 31  1  0
 31 32  1  0
 31 33  1  0
 31 34  1  0
 30 35  1  0
 35 36  2  0
 36 37  1  0
 23 38  1  0
 23 39  1  0
 22 40  2  0
  5 41  1  0
 41 42  2  0
 42 43  1  0
 41 44  1  0
  4 45  1  0
  3 46  1  0
  1 47  1  0
  1 48  1  0
  1 49  1  0
 42  2  1  0
 40  6  1  0
 15 10  1  0
 36 24  1  0
M  END
>  <cnnaffinity>  (1) 
-6.35461

>  <filename>  (1) 
Cc1ccc(-c2nc(Cc3cnn(C)c3C)n(Cc3cccnc3)n2)cc1F

$$$$
