
     RDKit          3D

 45 48  0  0  0  0  0  0  0  0999 V2000
    4.9898   -0.8537   26.3360 C   0  0  0  0  0  0  0  0  0  0  0  0
    6.0421    0.1169   25.8791 C   0  0  0  0  0  0  0  0  0  0  0  0
    7.1611    0.4623   26.5733 C   0  0  0  0  0  0  0  0  0  0  0  0
    8.1666    1.5660   25.7178 S   0  0  0  0  0  0  0  0  0  0  0  0
    7.1152    1.5287   24.3410 C   0  0  0  0  0  0  0  0  0  0  0  0
    7.5955    2.0235   22.9876 C   0  0  0  0  0  0  0  0  0  0  0  0
    8.5562    1.0233   22.4085 C   0  0  0  0  0  0  0  0  0  0  0  0
    9.8683    1.0698   22.5457 N   0  0  0  0  0  0  0  0  0  0  0  0
   10.2659   -0.1590   22.1388 C   0  0  0  0  0  0  0  0  0  0  0  0
   11.6574   -0.5957   21.9686 C   0  0  0  0  0  0  0  0  0  0  0  0
   12.7978    0.1383   22.3497 C   0  0  0  0  0  0  0  0  0  0  0  0
   14.0492   -0.2004   21.8283 C   0  0  0  0  0  0  0  0  0  0  0  0
   14.1434   -1.2044   20.8408 C   0  0  0  0  0  0  0  0  0  0  0  0
   15.1755   -1.3164   19.9254 N   0  0  0  0  0  0  0  0  0  0  0  0
   16.0918   -1.0726   20.2678 H   0  0  0  0  0  0  0  0  0  0  0  0
   15.1967   -2.2405   19.5224 H   0  0  0  0  0  0  0  0  0  0  0  0
   13.0391   -2.0133   20.5878 C   0  0  0  0  0  0  0  0  0  0  0  0
   11.8315   -1.7528   21.1904 C   0  0  0  0  0  0  0  0  0  0  0  0
   10.9604   -2.3725   20.9989 H   0  0  0  0  0  0  0  0  0  0  0  0
   13.1265   -2.7817   19.8263 H   0  0  0  0  0  0  0  0  0  0  0  0
   14.9074    0.4142   22.0748 H   0  0  0  0  0  0  0  0  0  0  0  0
   12.7069    1.0113   22.9984 H   0  0  0  0  0  0  0  0  0  0  0  0
    9.2650   -0.9360   21.7379 N   0  0  0  0  0  0  0  0  0  0  0  0
    8.1739   -0.1662   21.8916 N   0  0  0  0  0  0  0  0  0  0  0  0
    6.8861   -0.6363   21.3679 C   0  0  0  0  0  0  0  0  0  0  0  0
    6.4045    0.1118   20.1384 C   0  0  0  0  0  0  0  0  0  0  0  0
    5.1943    0.8131   20.0811 C   0  0  0  0  0  0  0  0  0  0  0  0
    4.8425    1.4587   18.8901 C   0  0  0  0  0  0  0  0  0  0  0  0
    5.7192    1.3860   17.8027 C   0  0  0  0  0  0  0  0  0  0  0  0
    6.8822    0.7164   17.8358 N   0  0  0  0  0  0  0  0  0  0  0  0
    7.2031    0.0983   18.9790 C   0  0  0  0  0  0  0  0  0  0  0  0
    8.1400   -0.4606   18.9756 H   0  0  0  0  0  0  0  0  0  0  0  0
    5.4774    1.8801   16.8612 H   0  0  0  0  0  0  0  0  0  0  0  0
    3.9176    2.0186   18.7960 H   0  0  0  0  0  0  0  0  0  0  0  0
    4.5269    0.8486   20.9479 H   0  0  0  0  0  0  0  0  0  0  0  0
    7.0500   -1.6920   21.1245 H   0  0  0  0  0  0  0  0  0  0  0  0
    6.1519   -0.5981   22.1778 H   0  0  0  0  0  0  0  0  0  0  0  0
    6.7451    2.1603   22.3087 H   0  0  0  0  0  0  0  0  0  0  0  0
    8.1356    2.9708   23.0614 H   0  0  0  0  0  0  0  0  0  0  0  0
    6.0175    0.7684   24.6039 C   0  0  0  0  0  0  0  0  0  0  0  0
    5.1919    0.6580   23.9083 H   0  0  0  0  0  0  0  0  0  0  0  0
    7.4802    0.0792   27.5325 H   0  0  0  0  0  0  0  0  0  0  0  0
    5.1092   -1.8131   25.8181 H   0  0  0  0  0  0  0  0  0  0  0  0
    5.0455   -1.0454   27.4122 H   0  0  0  0  0  0  0  0  0  0  0  0
    3.9842   -0.4830   26.1081 H   0  0  0  0  0  0  0  0  0  0  0  0
  1  2  1  0
  2  3  2  0
  3  4  1  0
  4  5  1  0
  5  6  1  0
  6  7  1  0
  7  8  2  0
  8  9  1  0
  9 10  1  0
 10 11  2  0
 11 12  1  0
 12 13  2  0
 13 14  1  0
 14 15  1  0
 14 16  1  0
 13 17  1  0
 17 18  2  0
 18 19  1  0
 17 20  1  0
 12 21  1  0
 11 22  1  0
  9 23  2  0
 23 24  1  0
 24 25  1  0
 25 26  1  0
 26 27  2  0
 27 28  1  0
 28 29  2  0
 29 30  1  0
 30 31  2  0
 31 32  1  0
 29 33  1  0
 28 34  1  0
 27 35  1  0
 25 36  1  0
 25 37  1  0
  6 38  1  0
  6 39  1  0
  5 40  2  0
 40 41  1  0
  3 42  1  0
  1 43  1  0
  1 44  1  0
  1 45  1  0
 40  2  1  0
 24  7  1  0
 31 26  1  0
 18 10  1  0
M  END
>  <cnnaffinity>  (1) 
-6.70193

>  <filename>  (1) 
Cc1csc(Cc2nc(-c3ccc(N)cc3)nn2Cc2cccnc2)c1

$$$$
