
     RDKit          3D

 45 48  0  0  0  0  0  0  0  0999 V2000
    8.0861    2.5915   22.1840 C   0  0  0  0  0  0  0  0  0  0  0  0
    9.4990    2.2381   22.5863 C   0  0  0  0  0  0  0  0  0  0  0  0
   10.1064    2.9183   23.6435 C   0  0  0  0  0  0  0  0  0  0  0  0
   11.4042    2.5678   24.0216 C   0  0  0  0  0  0  0  0  0  0  0  0
   12.0497    1.5484   23.3282 C   0  0  0  0  0  0  0  0  0  0  0  0
   11.4919    0.8792   22.3091 N   0  0  0  0  0  0  0  0  0  0  0  0
   10.2510    1.2138   21.9500 C   0  0  0  0  0  0  0  0  0  0  0  0
    9.6408    0.3973   20.8429 C   0  0  0  0  0  0  0  0  0  0  0  0
    8.6352   -0.5411   21.3817 C   0  0  0  0  0  0  0  0  0  0  0  0
    8.8637   -1.3875   22.3643 N   0  0  0  0  0  0  0  0  0  0  0  0
    7.6587   -1.9815   22.5408 C   0  0  0  0  0  0  0  0  0  0  0  0
    7.3812   -2.9618   23.6484 C   0  0  0  0  0  0  0  0  0  0  0  0
    6.6666   -4.2286   23.1569 C   0  0  0  0  0  0  0  0  0  0  0  0
    6.5266   -4.9377   23.9805 H   0  0  0  0  0  0  0  0  0  0  0  0
    7.2466   -4.7226   22.3708 H   0  0  0  0  0  0  0  0  0  0  0  0
    5.6849   -3.9688   22.7452 H   0  0  0  0  0  0  0  0  0  0  0  0
    6.6129   -2.2796   24.7809 C   0  0  0  0  0  0  0  0  0  0  0  0
    6.8117   -2.7334   26.1943 C   0  0  0  0  0  0  0  0  0  0  0  0
    7.3625   -1.4065   25.7381 C   0  0  0  0  0  0  0  0  0  0  0  0
    8.4378   -1.3215   25.5912 H   0  0  0  0  0  0  0  0  0  0  0  0
    6.9009   -0.4936   26.1062 H   0  0  0  0  0  0  0  0  0  0  0  0
    7.5146   -3.5453   26.3646 H   0  0  0  0  0  0  0  0  0  0  0  0
    5.9644   -2.7385   26.8748 H   0  0  0  0  0  0  0  0  0  0  0  0
    5.6097   -1.9572   24.5078 H   0  0  0  0  0  0  0  0  0  0  0  0
    8.3675   -3.2306   24.0406 H   0  0  0  0  0  0  0  0  0  0  0  0
    6.7160   -1.5855   21.7041 N   0  0  0  0  0  0  0  0  0  0  0  0
    7.3564   -0.6790   20.9255 N   0  0  0  0  0  0  0  0  0  0  0  0
    6.6504   -0.0018   19.8956 C   0  0  0  0  0  0  0  0  0  0  0  0
    5.4377    0.6416   20.1652 C   0  0  0  0  0  0  0  0  0  0  0  0
    4.8119    1.3108   19.1097 C   0  0  0  0  0  0  0  0  0  0  0  0
    5.3980    1.2963   17.8377 C   0  0  0  0  0  0  0  0  0  0  0  0
    6.5549    0.6711   17.5733 N   0  0  0  0  0  0  0  0  0  0  0  0
    7.1623    0.0454   18.5868 C   0  0  0  0  0  0  0  0  0  0  0  0
    8.1128   -0.4343   18.3646 H   0  0  0  0  0  0  0  0  0  0  0  0
    4.9189    1.7866   16.9943 H   0  0  0  0  0  0  0  0  0  0  0  0
    3.8807    1.8401   19.2613 H   0  0  0  0  0  0  0  0  0  0  0  0
    5.0148    0.6110   21.1738 H   0  0  0  0  0  0  0  0  0  0  0  0
   10.4076   -0.2349   20.4058 H   0  0  0  0  0  0  0  0  0  0  0  0
    9.1885    1.0407   20.0893 H   0  0  0  0  0  0  0  0  0  0  0  0
   13.0588    1.2474   23.6015 H   0  0  0  0  0  0  0  0  0  0  0  0
   11.9043    3.0763   24.8305 H   0  0  0  0  0  0  0  0  0  0  0  0
    9.5589    3.7117   24.1584 H   0  0  0  0  0  0  0  0  0  0  0  0
    7.9942    2.7828   21.1117 H   0  0  0  0  0  0  0  0  0  0  0  0
    7.3843    1.7831   22.4172 H   0  0  0  0  0  0  0  0  0  0  0  0
    7.7414    3.4853   22.7084 H   0  0  0  0  0  0  0  0  0  0  0  0
  1  2  1  0
  2  3  2  0
  3  4  1  0
  4  5  2  0
  5  6  1  0
  6  7  2  0
  7  8  1  0
  8  9  1  0
  9 10  2  0
 10 11  1  0
 11 12  1  0
 12 13  1  0
 13 14  1  0
 13 15  1  0
 13 16  1  0
 12 17  1  0
 17 18  1  0
 18 19  1  0
 19 20  1  0
 19 21  1  0
 18 22  1  0
 18 23  1  0
 17 24  1  0
 12 25  1  0
 11 26  2  0
 26 27  1  0
 27 28  1  0
 28 29  2  0
 29 30  1  0
 30 31  2  0
 31 32  1  0
 32 33  2  0
 33 34  1  0
 31 35  1  0
 30 36  1  0
 29 37  1  0
  8 38  1  0
  8 39  1  0
  5 40  1  0
  4 41  1  0
  3 42  1  0
  1 43  1  0
  1 44  1  0
  1 45  1  0
  7  2  1  0
 27  9  1  0
 33 28  1  0
 19 17  1  0
M  END
>  <cnnaffinity>  (1) 
-6.19966

>  <filename>  (1) 
Cc1cccnc1Cc1nc(C(C)C2CC2)nn1-c1cccnc1

$$$$
