
     RDKit          3D

 41 44  0  0  0  0  0  0  0  0999 V2000
    5.2770    1.5919   17.0387 H   0  0  0  0  0  0  0  0  0  0  0  0
    5.8417    1.1888   17.8795 C   0  0  0  0  0  0  0  0  0  0  0  0
    7.0227    0.6238   17.5866 N   0  0  0  0  0  0  0  0  0  0  0  0
    7.7368    0.1131   18.5963 C   0  0  0  0  0  0  0  0  0  0  0  0
    8.6981   -0.3180   18.3226 H   0  0  0  0  0  0  0  0  0  0  0  0
    7.3053    0.0966   19.9338 C   0  0  0  0  0  0  0  0  0  0  0  0
    8.0914   -0.6229   20.9526 C   0  0  0  0  0  0  0  0  0  0  0  0
    9.4253   -0.5404   20.9934 N   0  0  0  0  0  0  0  0  0  0  0  0
    9.7453   -1.3379   22.0157 N   0  0  0  0  0  0  0  0  0  0  0  0
    8.7033   -1.9550   22.5888 C   0  0  0  0  0  0  0  0  0  0  0  0
    7.5716   -1.5208   21.9453 C   0  0  0  0  0  0  0  0  0  0  0  0
    6.1749   -2.0558   22.1680 C   0  0  0  0  0  0  0  0  0  0  0  0
    5.4882   -1.3070   21.7682 H   0  0  0  0  0  0  0  0  0  0  0  0
    5.9669   -2.1865   23.2392 H   0  0  0  0  0  0  0  0  0  0  0  0
    5.8730   -3.3109   21.3842 C   0  0  0  0  0  0  0  0  0  0  0  0
    5.7403   -3.1172   20.0082 C   0  0  0  0  0  0  0  0  0  0  0  0
    5.7954   -2.1022   19.6114 H   0  0  0  0  0  0  0  0  0  0  0  0
    5.5641   -4.1876   19.1537 C   0  0  0  0  0  0  0  0  0  0  0  0
    5.4086   -3.9304   18.1157 H   0  0  0  0  0  0  0  0  0  0  0  0
    5.5760   -5.5070   19.6369 C   0  0  0  0  0  0  0  0  0  0  0  0
    5.6593   -6.6780   18.6935 C   0  0  0  0  0  0  0  0  0  0  0  0
    5.1261   -7.5515   19.0740 H   0  0  0  0  0  0  0  0  0  0  0  0
    5.2593   -6.4692   17.7047 H   0  0  0  0  0  0  0  0  0  0  0  0
    6.7089   -6.9316   18.5279 H   0  0  0  0  0  0  0  0  0  0  0  0
    5.5822   -5.6906   21.0304 C   0  0  0  0  0  0  0  0  0  0  0  0
    5.4700   -6.6955   21.4354 H   0  0  0  0  0  0  0  0  0  0  0  0
    5.7232   -4.6024   21.9035 C   0  0  0  0  0  0  0  0  0  0  0  0
    5.7103   -4.7623   22.9840 H   0  0  0  0  0  0  0  0  0  0  0  0
    9.1654   -2.9351   23.6128 C   0  0  0  0  0  0  0  0  0  0  0  0
    8.6217   -2.8077   24.5505 H   0  0  0  0  0  0  0  0  0  0  0  0
    8.9802   -3.9602   23.2839 H   0  0  0  0  0  0  0  0  0  0  0  0
   10.6714   -2.6071   23.7299 C   0  0  0  0  0  0  0  0  0  0  0  0
   11.2983   -3.4959   23.8179 H   0  0  0  0  0  0  0  0  0  0  0  0
   10.8091   -2.0025   24.6272 H   0  0  0  0  0  0  0  0  0  0  0  0
   11.0455   -1.7700   22.4726 C   0  0  0  0  0  0  0  0  0  0  0  0
   11.5371   -2.3605   21.6945 H   0  0  0  0  0  0  0  0  0  0  0  0
   11.6897   -0.9160   22.6924 H   0  0  0  0  0  0  0  0  0  0  0  0
    6.0825    0.7263   20.2238 C   0  0  0  0  0  0  0  0  0  0  0  0
    5.7225    0.7948   21.2522 H   0  0  0  0  0  0  0  0  0  0  0  0
    5.3392    1.2759   19.1806 C   0  0  0  0  0  0  0  0  0  0  0  0
    4.3880    1.7646   19.3613 H   0  0  0  0  0  0  0  0  0  0  0  0
  1  2  1  0
  2  3  2  0
  3  4  1  0
  4  5  1  0
  4  6  2  0
  6  7  1  0
  7  8  2  0
  8  9  1  0
  9 10  1  0
 10 11  2  0
 11 12  1  0
 12 13  1  0
 12 14  1  0
 12 15  1  0
 15 16  2  0
 16 17  1  0
 16 18  1  0
 18 19  1  0
 18 20  2  0
 20 21  1  0
 21 22  1  0
 21 23  1  0
 21 24  1  0
 20 25  1  0
 25 26  1  0
 25 27  2  0
 27 28  1  0
 10 29  1  0
 29 30  1  0
 29 31  1  0
 29 32  1  0
 32 33  1  0
 32 34  1  0
 32 35  1  0
 35 36  1  0
 35 37  1  0
  6 38  1  0
 38 39  1  0
 38 40  2  0
 40 41  1  0
 40  2  1  0
 11  7  1  0
 27 15  1  0
 35  9  1  0
M  END
>  <cnnaffinity>  (1) 
-5.64899

>  <filename>  (1) 
Cc1ccc(Cc2c(-c3cccnc3)nn3c2CCC3)cc1

$$$$
