
     RDKit          3D

 43 46  0  0  0  0  0  0  0  0999 V2000
    7.7372    2.7858   21.9790 C   0  0  0  0  0  0  0  0  0  0  0  0
    9.1168    2.4280   22.4286 C   0  0  0  0  0  0  0  0  0  0  0  0
    9.9201    1.4417   21.9427 C   0  0  0  0  0  0  0  0  0  0  0  0
    9.6411    0.4275   20.8877 C   0  0  0  0  0  0  0  0  0  0  0  0
    8.6356   -0.5558   21.3742 C   0  0  0  0  0  0  0  0  0  0  0  0
    8.8731   -1.4097   22.3461 N   0  0  0  0  0  0  0  0  0  0  0  0
    7.6798   -2.0273   22.5134 C   0  0  0  0  0  0  0  0  0  0  0  0
    7.4255   -3.0501   23.5785 C   0  0  0  0  0  0  0  0  0  0  0  0
    6.4073   -2.5873   24.6486 C   0  0  0  0  0  0  0  0  0  0  0  0
    5.7934   -3.8735   25.2319 C   0  0  0  0  0  0  0  0  0  0  0  0
    6.0932   -5.0120   24.2223 C   0  0  0  0  0  0  0  0  0  0  0  0
    6.8454   -4.3754   23.0388 C   0  0  0  0  0  0  0  0  0  0  0  0
    6.1592   -4.1589   22.2117 H   0  0  0  0  0  0  0  0  0  0  0  0
    7.6299   -5.0264   22.6368 H   0  0  0  0  0  0  0  0  0  0  0  0
    6.6973   -5.7913   24.6995 H   0  0  0  0  0  0  0  0  0  0  0  0
    5.1785   -5.5073   23.8817 H   0  0  0  0  0  0  0  0  0  0  0  0
    4.7186   -3.7487   25.3992 H   0  0  0  0  0  0  0  0  0  0  0  0
    6.2240   -4.1065   26.2116 H   0  0  0  0  0  0  0  0  0  0  0  0
    5.6361   -1.9769   24.1741 H   0  0  0  0  0  0  0  0  0  0  0  0
    6.8721   -1.9516   25.4101 H   0  0  0  0  0  0  0  0  0  0  0  0
    8.3929   -3.2299   24.0551 H   0  0  0  0  0  0  0  0  0  0  0  0
    6.7255   -1.6228   21.6887 N   0  0  0  0  0  0  0  0  0  0  0  0
    7.3542   -0.6903   20.9260 N   0  0  0  0  0  0  0  0  0  0  0  0
    6.6478   -0.0061   19.8989 C   0  0  0  0  0  0  0  0  0  0  0  0
    5.4352    0.6370   20.1668 C   0  0  0  0  0  0  0  0  0  0  0  0
    4.8122    1.3099   19.1095 C   0  0  0  0  0  0  0  0  0  0  0  0
    5.3983    1.2968   17.8379 C   0  0  0  0  0  0  0  0  0  0  0  0
    6.5549    0.6696   17.5731 N   0  0  0  0  0  0  0  0  0  0  0  0
    7.1610    0.0458   18.5906 C   0  0  0  0  0  0  0  0  0  0  0  0
    8.1096   -0.4353   18.3645 H   0  0  0  0  0  0  0  0  0  0  0  0
    4.9209    1.7897   16.9946 H   0  0  0  0  0  0  0  0  0  0  0  0
    3.8816    1.8393   19.2601 H   0  0  0  0  0  0  0  0  0  0  0  0
    5.0077    0.6054   21.1736 H   0  0  0  0  0  0  0  0  0  0  0  0
    9.2405    0.9428   20.0146 H   0  0  0  0  0  0  0  0  0  0  0  0
   10.5424   -0.1249   20.6270 H   0  0  0  0  0  0  0  0  0  0  0  0
   11.0656    1.3621   22.6622 O   0  0  0  0  0  0  0  0  0  0  0  0
   11.0109    2.3375   23.6127 C   0  0  0  0  0  0  0  0  0  0  0  0
    9.8492    3.0195   23.5146 C   0  0  0  0  0  0  0  0  0  0  0  0
    9.5156    3.8526   24.1192 H   0  0  0  0  0  0  0  0  0  0  0  0
   11.8650    2.4038   24.2683 H   0  0  0  0  0  0  0  0  0  0  0  0
    7.6494    2.7328   20.8933 H   0  0  0  0  0  0  0  0  0  0  0  0
    7.4699    3.7906   22.3144 H   0  0  0  0  0  0  0  0  0  0  0  0
    6.9845    2.0879   22.3654 H   0  0  0  0  0  0  0  0  0  0  0  0
  1  2  1  0
  2  3  2  0
  3  4  1  0
  4  5  1  0
  5  6  2  0
  6  7  1  0
  7  8  1  0
  8  9  1  0
  9 10  1  0
 10 11  1  0
 11 12  1  0
 12 13  1  0
 12 14  1  0
 11 15  1  0
 11 16  1  0
 10 17  1  0
 10 18  1  0
  9 19  1  0
  9 20  1  0
  8 21  1  0
  7 22  2  0
 22 23  1  0
 23 24  1  0
 24 25  2  0
 25 26  1  0
 26 27  2  0
 27 28  1  0
 28 29  2  0
 29 30  1  0
 27 31  1  0
 26 32  1  0
 25 33  1  0
  4 34  1  0
  4 35  1  0
  3 36  1  0
 36 37  1  0
 37 38  2  0
 38 39  1  0
 37 40  1  0
  1 41  1  0
  1 42  1  0
  1 43  1  0
 38  2  1  0
 23  5  1  0
 29 24  1  0
 12  8  1  0
M  END
>  <cnnaffinity>  (1) 
-5.88399

>  <filename>  (1) 
Cc1ccoc1Cc1nc(C2CCCC2)nn1-c1cccnc1

$$$$
