
     RDKit          3D

 42 45  0  0  0  0  0  0  0  0999 V2000
   16.0279   -0.3218   19.6492 C   0  0  0  0  0  0  0  0  0  0  0  0
   14.7306   -0.7886   20.5284 C   0  0  0  0  0  0  0  0  0  0  0  0
   14.4412    0.0751   21.6500 C   0  0  0  0  0  0  0  0  0  0  0  0
   13.1597    0.2541   22.1609 C   0  0  0  0  0  0  0  0  0  0  0  0
   12.1222   -0.5333   21.6232 C   0  0  0  0  0  0  0  0  0  0  0  0
   10.6854   -0.1902   21.7516 C   0  0  0  0  0  0  0  0  0  0  0  0
    9.7164   -0.9196   21.2106 N   0  0  0  0  0  0  0  0  0  0  0  0
    8.6017   -0.2113   21.4789 N   0  0  0  0  0  0  0  0  0  0  0  0
    7.2865   -0.6982   21.0754 C   0  0  0  0  0  0  0  0  0  0  0  0
    6.6180    0.0838   19.9575 C   0  0  0  0  0  0  0  0  0  0  0  0
    5.3819    0.7202   20.1083 C   0  0  0  0  0  0  0  0  0  0  0  0
    4.8028    1.3574   19.0063 C   0  0  0  0  0  0  0  0  0  0  0  0
    5.4879    1.3362   17.7891 C   0  0  0  0  0  0  0  0  0  0  0  0
    6.6787    0.7422   17.6221 N   0  0  0  0  0  0  0  0  0  0  0  0
    7.2236    0.1431   18.6894 C   0  0  0  0  0  0  0  0  0  0  0  0
    8.1900   -0.3300   18.5240 H   0  0  0  0  0  0  0  0  0  0  0  0
    5.0563    1.8081   16.9067 H   0  0  0  0  0  0  0  0  0  0  0  0
    3.8446    1.8585   19.0767 H   0  0  0  0  0  0  0  0  0  0  0  0
    4.8653    0.7166   21.0708 H   0  0  0  0  0  0  0  0  0  0  0  0
    6.6386   -0.7224   21.9601 H   0  0  0  0  0  0  0  0  0  0  0  0
    7.4518   -1.7339   20.7698 H   0  0  0  0  0  0  0  0  0  0  0  0
    8.9321    0.8896   22.1765 C   0  0  0  0  0  0  0  0  0  0  0  0
    7.9004    1.7462   22.8543 C   0  0  0  0  0  0  0  0  0  0  0  0
    7.4706    1.1469   24.1952 C   0  0  0  0  0  0  0  0  0  0  0  0
    8.3592    0.9793   25.2176 C   0  0  0  0  0  0  0  0  0  0  0  0
    7.6351    0.1433   26.5076 S   0  0  0  0  0  0  0  0  0  0  0  0
    6.1566    0.0186   25.7707 N   0  0  0  0  0  0  0  0  0  0  0  0
    6.2102    0.5823   24.5879 C   0  0  0  0  0  0  0  0  0  0  0  0
    5.2975    0.5883   23.9902 H   0  0  0  0  0  0  0  0  0  0  0  0
    9.3980    1.2960   25.2204 H   0  0  0  0  0  0  0  0  0  0  0  0
    7.0480    1.8873   22.1789 H   0  0  0  0  0  0  0  0  0  0  0  0
    8.3671    2.7255   23.0030 H   0  0  0  0  0  0  0  0  0  0  0  0
   10.2382    0.9437   22.3551 N   0  0  0  0  0  0  0  0  0  0  0  0
   12.4999   -1.6271   20.8342 C   0  0  0  0  0  0  0  0  0  0  0  0
   13.7824   -1.7856   20.2943 C   0  0  0  0  0  0  0  0  0  0  0  0
   13.9900   -2.6908   19.7349 H   0  0  0  0  0  0  0  0  0  0  0  0
   11.7199   -2.3282   20.6260 H   0  0  0  0  0  0  0  0  0  0  0  0
   12.9497    1.0513   22.8726 H   0  0  0  0  0  0  0  0  0  0  0  0
   15.2140    0.7439   22.0127 H   0  0  0  0  0  0  0  0  0  0  0  0
   16.4178    0.5649   20.1219 H   0  0  0  0  0  0  0  0  0  0  0  0
   16.8416   -1.0487   19.6388 H   0  0  0  0  0  0  0  0  0  0  0  0
   15.9311    0.0986   18.6376 H   0  0  0  0  0  0  0  0  0  0  0  0
  1  2  1  0
  2  3  2  0
  3  4  1  0
  4  5  2  0
  5  6  1  0
  6  7  2  0
  7  8  1  0
  8  9  1  0
  9 10  1  0
 10 11  2  0
 11 12  1  0
 12 13  2  0
 13 14  1  0
 14 15  2  0
 15 16  1  0
 13 17  1  0
 12 18  1  0
 11 19  1  0
  9 20  1  0
  9 21  1  0
  8 22  1  0
 22 23  1  0
 23 24  1  0
 24 25  2  0
 25 26  1  0
 26 27  1  0
 27 28  2  0
 28 29  1  0
 25 30  1  0
 23 31  1  0
 23 32  1  0
 22 33  2  0
  5 34  1  0
 34 35  2  0
 35 36  1  0
 34 37  1  0
  4 38  1  0
  3 39  1  0
  1 40  1  0
  1 41  1  0
  1 42  1  0
 35  2  1  0
 33  6  1  0
 15 10  1  0
 28 24  1  0
M  END
>  <cnnaffinity>  (1) 
-6.45674

>  <filename>  (1) 
Cc1ccc(-c2nc(Cc3cnsc3)n(Cc3cccnc3)n2)cc1

$$$$
