
     RDKit          3D

 46 49  0  0  0  0  0  0  0  0999 V2000
    7.4453    0.0749   27.9282 C   0  0  0  0  0  0  0  0  0  0  0  0
    6.7769    0.3258   26.6146 C   0  0  0  0  0  0  0  0  0  0  0  0
    7.0910    1.1353   25.5430 C   0  0  0  0  0  0  0  0  0  0  0  0
    6.1704    0.7891   24.5236 C   0  0  0  0  0  0  0  0  0  0  0  0
    6.1666    1.1934   23.0755 C   0  0  0  0  0  0  0  0  0  0  0  0
    7.2204    0.4063   22.3609 C   0  0  0  0  0  0  0  0  0  0  0  0
    8.4798    0.6586   22.6297 N   0  0  0  0  0  0  0  0  0  0  0  0
    9.1627   -0.3071   21.9726 C   0  0  0  0  0  0  0  0  0  0  0  0
   10.6202   -0.4376   22.1086 C   0  0  0  0  0  0  0  0  0  0  0  0
   11.3372   -1.4578   21.4588 C   0  0  0  0  0  0  0  0  0  0  0  0
   12.7020   -1.6020   21.6872 C   0  0  0  0  0  0  0  0  0  0  0  0
   13.3247   -0.7418   22.5863 C   0  0  0  0  0  0  0  0  0  0  0  0
   14.6284   -0.9491   22.8384 F   0  0  0  0  0  0  0  0  0  0  0  0
   12.6502    0.2833   23.2626 C   0  0  0  0  0  0  0  0  0  0  0  0
   13.3431    1.1781   24.2512 C   0  0  0  0  0  0  0  0  0  0  0  0
   14.4076    1.1332   24.0477 H   0  0  0  0  0  0  0  0  0  0  0  0
   13.1675    0.8493   25.2828 H   0  0  0  0  0  0  0  0  0  0  0  0
   13.0053    2.2156   24.1563 H   0  0  0  0  0  0  0  0  0  0  0  0
   11.2942    0.4264   22.9927 C   0  0  0  0  0  0  0  0  0  0  0  0
   10.7315    1.2029   23.5089 H   0  0  0  0  0  0  0  0  0  0  0  0
   13.3118   -2.3682   21.2231 H   0  0  0  0  0  0  0  0  0  0  0  0
   10.8072   -2.1521   20.8151 H   0  0  0  0  0  0  0  0  0  0  0  0
    8.3873   -1.1208   21.2719 N   0  0  0  0  0  0  0  0  0  0  0  0
    7.1340   -0.6641   21.5300 N   0  0  0  0  0  0  0  0  0  0  0  0
    6.0418   -1.1678   20.6902 C   0  0  0  0  0  0  0  0  0  0  0  0
    5.8053   -0.2908   19.4757 C   0  0  0  0  0  0  0  0  0  0  0  0
    4.7261    0.5889   19.3677 C   0  0  0  0  0  0  0  0  0  0  0  0
    4.6408    1.4108   18.2388 C   0  0  0  0  0  0  0  0  0  0  0  0
    5.6317    1.3097   17.2577 C   0  0  0  0  0  0  0  0  0  0  0  0
    6.6800    0.4788   17.3449 N   0  0  0  0  0  0  0  0  0  0  0  0
    6.7618   -0.2832   18.4411 C   0  0  0  0  0  0  0  0  0  0  0  0
    7.6435   -0.9216   18.5199 H   0  0  0  0  0  0  0  0  0  0  0  0
    5.5951    1.9306   16.3642 H   0  0  0  0  0  0  0  0  0  0  0  0
    3.8390    2.1311   18.1157 H   0  0  0  0  0  0  0  0  0  0  0  0
    3.9650    0.6354   20.1526 H   0  0  0  0  0  0  0  0  0  0  0  0
    5.1337   -1.2901   21.2893 H   0  0  0  0  0  0  0  0  0  0  0  0
    6.3621   -2.1673   20.3761 H   0  0  0  0  0  0  0  0  0  0  0  0
    5.1742    1.0553   22.6371 H   0  0  0  0  0  0  0  0  0  0  0  0
    6.4664    2.2433   23.0027 H   0  0  0  0  0  0  0  0  0  0  0  0
    5.3181   -0.1236   24.9498 N   0  0  0  0  0  0  0  0  0  0  0  0
    5.7008   -0.3939   26.2093 N   0  0  0  0  0  0  0  0  0  0  0  0
    5.1151   -0.9898   26.7763 H   0  0  0  0  0  0  0  0  0  0  0  0
    7.9003    1.8460   25.4637 H   0  0  0  0  0  0  0  0  0  0  0  0
    8.0383    0.9388   28.2318 H   0  0  0  0  0  0  0  0  0  0  0  0
    6.7090   -0.1304   28.7121 H   0  0  0  0  0  0  0  0  0  0  0  0
    8.1233   -0.7856   27.8641 H   0  0  0  0  0  0  0  0  0  0  0  0
  1  2  1  0
  2  3  2  0
  3  4  1  0
  4  5  1  0
  5  6  1  0
  6  7  2  0
  7  8  1  0
  8  9  1  0
  9 10  2  0
 10 11  1  0
 11 12  2  0
 12 13  1  0
 12 14  1  0
 14 15  1  0
 15 16  1  0
 15 17  1  0
 15 18  1  0
 14 19  2  0
 19 20  1  0
 11 21  1  0
 10 22  1  0
  8 23  2  0
 23 24  1  0
 24 25  1  0
 25 26  1  0
 26 27  2  0
 27 28  1  0
 28 29  2  0
 29 30  1  0
 30 31  2  0
 31 32  1  0
 29 33  1  0
 28 34  1  0
 27 35  1  0
 25 36  1  0
 25 37  1  0
  5 38  1  0
  5 39  1  0
  4 40  2  0
 40 41  1  0
 41 42  1  0
  3 43  1  0
  1 44  1  0
  1 45  1  0
  1 46  1  0
 41  2  1  0
 24  6  1  0
 31 26  1  0
 19  9  1  0
M  END
>  <cnnaffinity>  (1) 
-6.30865

>  <filename>  (1) 
Cc1cc(Cc2nc(-c3ccc(F)c(C)c3)nn2Cc2cccnc2)n[nH]1

$$$$
