
     RDKit          3D

 43 46  0  0  0  0  0  0  0  0999 V2000
   14.0528    1.2104   23.1826 C   0  0  0  0  0  0  0  0  0  0  0  0
   13.1295    0.2466   22.5068 C   0  0  0  0  0  0  0  0  0  0  0  0
   13.6355   -0.8857   21.8547 C   0  0  0  0  0  0  0  0  0  0  0  0
   12.7744   -1.7487   21.1762 C   0  0  0  0  0  0  0  0  0  0  0  0
   11.4018   -1.5144   21.1893 C   0  0  0  0  0  0  0  0  0  0  0  0
   10.8764   -0.3871   21.8457 C   0  0  0  0  0  0  0  0  0  0  0  0
    9.4180   -0.1393   21.8491 C   0  0  0  0  0  0  0  0  0  0  0  0
    8.5404   -0.9726   21.3140 N   0  0  0  0  0  0  0  0  0  0  0  0
    7.3450   -0.4013   21.5898 N   0  0  0  0  0  0  0  0  0  0  0  0
    6.1474   -0.8787   20.8985 C   0  0  0  0  0  0  0  0  0  0  0  0
    5.8065   -0.0379   19.6872 C   0  0  0  0  0  0  0  0  0  0  0  0
    4.6631    0.7625   19.6212 C   0  0  0  0  0  0  0  0  0  0  0  0
    4.4814    1.5829   18.5048 C   0  0  0  0  0  0  0  0  0  0  0  0
    5.4432    1.5550   17.4912 C   0  0  0  0  0  0  0  0  0  0  0  0
    6.5332    0.7730   17.5215 N   0  0  0  0  0  0  0  0  0  0  0  0
    6.7033    0.0092   18.6066 C   0  0  0  0  0  0  0  0  0  0  0  0
    7.5973   -0.6147   18.6224 H   0  0  0  0  0  0  0  0  0  0  0  0
    5.3406    2.1939   16.6163 H   0  0  0  0  0  0  0  0  0  0  0  0
    3.6211    2.2378   18.4138 H   0  0  0  0  0  0  0  0  0  0  0  0
    3.9327    0.7507   20.4342 H   0  0  0  0  0  0  0  0  0  0  0  0
    6.3464   -1.9221   20.6294 H   0  0  0  0  0  0  0  0  0  0  0  0
    5.3193   -0.8758   21.6035 H   0  0  0  0  0  0  0  0  0  0  0  0
    7.5520    0.7520   22.2667 C   0  0  0  0  0  0  0  0  0  0  0  0
    6.5035    1.5664   22.9816 C   0  0  0  0  0  0  0  0  0  0  0  0
    6.3711    1.1499   24.4450 C   0  0  0  0  0  0  0  0  0  0  0  0
    7.4223    1.1434   25.3359 C   0  0  0  0  0  0  0  0  0  0  0  0
    6.9550    0.6308   26.4934 N   0  0  0  0  0  0  0  0  0  0  0  0
    5.6619    0.2901   26.4274 N   0  0  0  0  0  0  0  0  0  0  0  0
    5.2985    0.5982   25.1854 C   0  0  0  0  0  0  0  0  0  0  0  0
    4.2785    0.4064   24.8785 H   0  0  0  0  0  0  0  0  0  0  0  0
    7.4814    0.4598   27.3391 H   0  0  0  0  0  0  0  0  0  0  0  0
    8.4582    1.4093   25.1575 H   0  0  0  0  0  0  0  0  0  0  0  0
    6.8437    2.6077   22.9094 H   0  0  0  0  0  0  0  0  0  0  0  0
    5.5400    1.5159   22.4639 H   0  0  0  0  0  0  0  0  0  0  0  0
    8.8488    0.9562   22.4162 N   0  0  0  0  0  0  0  0  0  0  0  0
   11.7515    0.4766   22.5159 C   0  0  0  0  0  0  0  0  0  0  0  0
   11.3493    1.3363   23.0502 H   0  0  0  0  0  0  0  0  0  0  0  0
   10.7008   -2.1850   20.7066 H   0  0  0  0  0  0  0  0  0  0  0  0
   13.1983   -2.5540   20.5864 H   0  0  0  0  0  0  0  0  0  0  0  0
   14.6970   -1.1017   21.8951 H   0  0  0  0  0  0  0  0  0  0  0  0
   15.0791    0.9435   22.9602 H   0  0  0  0  0  0  0  0  0  0  0  0
   13.8859    2.2288   22.8176 H   0  0  0  0  0  0  0  0  0  0  0  0
   13.9067    1.1941   24.2671 H   0  0  0  0  0  0  0  0  0  0  0  0
  1  2  1  0
  2  3  2  0
  3  4  1  0
  4  5  2  0
  5  6  1  0
  6  7  1  0
  7  8  2  0
  8  9  1  0
  9 10  1  0
 10 11  1  0
 11 12  2  0
 12 13  1  0
 13 14  2  0
 14 15  1  0
 15 16  2  0
 16 17  1  0
 14 18  1  0
 13 19  1  0
 12 20  1  0
 10 21  1  0
 10 22  1  0
  9 23  1  0
 23 24  1  0
 24 25  1  0
 25 26  2  0
 26 27  1  0
 27 28  1  0
 28 29  2  0
 29 30  1  0
 27 31  1  0
 26 32  1  0
 24 33  1  0
 24 34  1  0
 23 35  2  0
  6 36  2  0
 36 37  1  0
  5 38  1  0
  4 39  1  0
  3 40  1  0
  1 41  1  0
  1 42  1  0
  1 43  1  0
 36  2  1  0
 35  7  1  0
 16 11  1  0
 29 25  1  0
M  END
>  <cnnaffinity>  (1) 
-6.235

>  <filename>  (1) 
Cc1cccc(-c2nc(Cc3cn[nH]c3)n(Cc3cccnc3)n2)c1

$$$$
