
     RDKit          3D

 46 49  0  0  0  0  0  0  0  0999 V2000
    8.0189    4.7962   27.4515 C   0  0  0  0  0  0  0  0  0  0  0  0
    7.4107    3.5091   26.9332 C   0  0  0  0  0  0  0  0  0  0  0  0
    6.3399    2.8910   27.6011 C   0  0  0  0  0  0  0  0  0  0  0  0
    5.6669    1.8006   27.0335 C   0  0  0  0  0  0  0  0  0  0  0  0
    6.0636    1.2924   25.7981 C   0  0  0  0  0  0  0  0  0  0  0  0
    7.1844    1.8458   25.1507 C   0  0  0  0  0  0  0  0  0  0  0  0
    7.6562    1.3117   23.8572 C   0  0  0  0  0  0  0  0  0  0  0  0
    7.0812    0.3102   23.2108 N   0  0  0  0  0  0  0  0  0  0  0  0
    7.8024    0.2141   22.0736 N   0  0  0  0  0  0  0  0  0  0  0  0
    7.3772   -0.6998   21.0166 C   0  0  0  0  0  0  0  0  0  0  0  0
    6.6546   -0.0093   19.8735 C   0  0  0  0  0  0  0  0  0  0  0  0
    5.4438    0.6503   20.1238 C   0  0  0  0  0  0  0  0  0  0  0  0
    4.8118    1.3088   19.0687 C   0  0  0  0  0  0  0  0  0  0  0  0
    5.4120    1.2971   17.8061 C   0  0  0  0  0  0  0  0  0  0  0  0
    6.5615    0.6582   17.5409 N   0  0  0  0  0  0  0  0  0  0  0  0
    7.1563    0.0273   18.5631 C   0  0  0  0  0  0  0  0  0  0  0  0
    8.0892   -0.4837   18.3171 H   0  0  0  0  0  0  0  0  0  0  0  0
    4.9465    1.8199   16.9718 H   0  0  0  0  0  0  0  0  0  0  0  0
    3.8774    1.8418   19.2138 H   0  0  0  0  0  0  0  0  0  0  0  0
    5.0153    0.6601   21.1300 H   0  0  0  0  0  0  0  0  0  0  0  0
    8.2460   -1.2636   20.6609 H   0  0  0  0  0  0  0  0  0  0  0  0
    6.7078   -1.4188   21.4982 H   0  0  0  0  0  0  0  0  0  0  0  0
    8.7757    1.1552   22.0845 C   0  0  0  0  0  0  0  0  0  0  0  0
    9.8181    1.3935   21.0437 C   0  0  0  0  0  0  0  0  0  0  0  0
   11.2091    1.0770   21.5356 C   0  0  0  0  0  0  0  0  0  0  0  0
   12.1393    2.0083   21.9268 C   0  0  0  0  0  0  0  0  0  0  0  0
   13.1835    1.3224   22.4499 N   0  0  0  0  0  0  0  0  0  0  0  0
   12.9928   -0.0065   22.4189 N   0  0  0  0  0  0  0  0  0  0  0  0
   11.7922   -0.1744   21.8723 C   0  0  0  0  0  0  0  0  0  0  0  0
   11.1946   -1.5379   21.7329 C   0  0  0  0  0  0  0  0  0  0  0  0
   10.5968   -1.6042   20.8189 H   0  0  0  0  0  0  0  0  0  0  0  0
   11.9769   -2.3016   21.7177 H   0  0  0  0  0  0  0  0  0  0  0  0
   10.5132   -1.7400   22.5686 H   0  0  0  0  0  0  0  0  0  0  0  0
   14.0641    1.6858   22.7827 H   0  0  0  0  0  0  0  0  0  0  0  0
   12.1108    3.0879   21.8787 H   0  0  0  0  0  0  0  0  0  0  0  0
    9.7649    2.4605   20.7992 H   0  0  0  0  0  0  0  0  0  0  0  0
    9.5667    0.8367   20.1374 H   0  0  0  0  0  0  0  0  0  0  0  0
    8.7108    1.8566   23.1964 N   0  0  0  0  0  0  0  0  0  0  0  0
    7.8575    2.9343   25.7372 C   0  0  0  0  0  0  0  0  0  0  0  0
    8.7546    3.3087   25.2449 H   0  0  0  0  0  0  0  0  0  0  0  0
    5.5316    0.4585   25.3425 H   0  0  0  0  0  0  0  0  0  0  0  0
    4.8404    1.3347   27.5615 H   0  0  0  0  0  0  0  0  0  0  0  0
    6.0428    3.2522   28.5817 H   0  0  0  0  0  0  0  0  0  0  0  0
    7.5054    5.6605   27.0169 H   0  0  0  0  0  0  0  0  0  0  0  0
    9.0767    4.8974   27.1851 H   0  0  0  0  0  0  0  0  0  0  0  0
    7.9249    4.8888   28.5378 H   0  0  0  0  0  0  0  0  0  0  0  0
  1  2  1  0
  2  3  2  0
  3  4  1  0
  4  5  2  0
  5  6  1  0
  6  7  1  0
  7  8  2  0
  8  9  1  0
  9 10  1  0
 10 11  1  0
 11 12  2  0
 12 13  1  0
 13 14  2  0
 14 15  1  0
 15 16  2  0
 16 17  1  0
 14 18  1  0
 13 19  1  0
 12 20  1  0
 10 21  1  0
 10 22  1  0
  9 23  1  0
 23 24  1  0
 24 25  1  0
 25 26  2  0
 26 27  1  0
 27 28  1  0
 28 29  2  0
 29 30  1  0
 30 31  1  0
 30 32  1  0
 30 33  1  0
 27 34  1  0
 26 35  1  0
 24 36  1  0
 24 37  1  0
 23 38  2  0
  6 39  2  0
 39 40  1  0
  5 41  1  0
  4 42  1  0
  3 43  1  0
  1 44  1  0
  1 45  1  0
  1 46  1  0
 39  2  1  0
 38  7  1  0
 16 11  1  0
 29 25  1  0
M  END
>  <cnnaffinity>  (1) 
-6.19941

>  <filename>  (1) 
Cc1cccc(-c2nc(Cc3c[nH]nc3C)n(Cc3cccnc3)n2)c1

$$$$
