
     RDKit          3D

 52 55  0  0  0  0  0  0  0  0999 V2000
    7.4432   -5.1787   27.5063 C   0  0  0  0  0  0  0  0  0  0  0  0
    7.2637   -4.4325   26.1837 C   0  0  0  0  0  0  0  0  0  0  0  0
    7.4394   -2.9084   26.3244 C   0  0  0  0  0  0  0  0  0  0  0  0
    7.1668   -2.1437   25.0019 C   0  0  0  0  0  0  0  0  0  0  0  0
    7.3172   -3.0391   23.7267 C   0  0  0  0  0  0  0  0  0  0  0  0
    7.5421   -2.1711   22.5280 C   0  0  0  0  0  0  0  0  0  0  0  0
    6.6112   -1.7634   21.6896 N   0  0  0  0  0  0  0  0  0  0  0  0
    7.2733   -0.8391   20.9326 N   0  0  0  0  0  0  0  0  0  0  0  0
    6.6080   -0.1323   19.8899 C   0  0  0  0  0  0  0  0  0  0  0  0
    5.4070    0.5418   20.1379 C   0  0  0  0  0  0  0  0  0  0  0  0
    4.8386    1.2857   19.0998 C   0  0  0  0  0  0  0  0  0  0  0  0
    5.4629    1.2998   17.8474 C   0  0  0  0  0  0  0  0  0  0  0  0
    6.5888    0.6155   17.5893 N   0  0  0  0  0  0  0  0  0  0  0  0
    7.1420   -0.0793   18.5900 C   0  0  0  0  0  0  0  0  0  0  0  0
    8.0521   -0.6279   18.3498 H   0  0  0  0  0  0  0  0  0  0  0  0
    5.0395    1.8663   17.0183 H   0  0  0  0  0  0  0  0  0  0  0  0
    3.9330    1.8626   19.2534 H   0  0  0  0  0  0  0  0  0  0  0  0
    4.9531    0.4776   21.1273 H   0  0  0  0  0  0  0  0  0  0  0  0
    8.5468   -0.7162   21.4079 C   0  0  0  0  0  0  0  0  0  0  0  0
    9.4860    0.3956   21.1273 C   0  0  0  0  0  0  0  0  0  0  0  0
    9.1564    1.7121   21.8734 C   0  0  0  0  0  0  0  0  0  0  0  0
   10.3295    2.6798   21.7462 C   0  0  0  0  0  0  0  0  0  0  0  0
   11.2184    2.3228   22.2810 H   0  0  0  0  0  0  0  0  0  0  0  0
   10.6190    2.7684   20.6975 H   0  0  0  0  0  0  0  0  0  0  0  0
   10.0512    3.6678   22.1267 H   0  0  0  0  0  0  0  0  0  0  0  0
    8.7672    1.5391   23.2854 N   0  0  0  0  0  0  0  0  0  0  0  0
    7.5074    1.7835   23.8081 C   0  0  0  0  0  0  0  0  0  0  0  0
    7.6565    1.8266   25.1683 C   0  0  0  0  0  0  0  0  0  0  0  0
    8.9604    1.5700   25.5095 N   0  0  0  0  0  0  0  0  0  0  0  0
    9.5854    1.3758   24.3756 C   0  0  0  0  0  0  0  0  0  0  0  0
   10.6248    1.0864   24.2839 H   0  0  0  0  0  0  0  0  0  0  0  0
    6.9030    2.0539   25.9143 H   0  0  0  0  0  0  0  0  0  0  0  0
    6.6435    1.8165   23.1593 H   0  0  0  0  0  0  0  0  0  0  0  0
    8.2687    2.1547   21.4007 H   0  0  0  0  0  0  0  0  0  0  0  0
   10.4729    0.0445   21.4322 H   0  0  0  0  0  0  0  0  0  0  0  0
    9.5212    0.6093   20.0576 H   0  0  0  0  0  0  0  0  0  0  0  0
    8.7632   -1.5978   22.3547 N   0  0  0  0  0  0  0  0  0  0  0  0
    8.4890   -4.0225   23.9352 C   0  0  0  0  0  0  0  0  0  0  0  0
    8.2186   -4.9963   25.1015 C   0  0  0  0  0  0  0  0  0  0  0  0
    7.7916   -5.9347   24.7233 H   0  0  0  0  0  0  0  0  0  0  0  0
    9.1802   -5.2653   25.5625 H   0  0  0  0  0  0  0  0  0  0  0  0
    9.3885   -3.4265   24.1518 H   0  0  0  0  0  0  0  0  0  0  0  0
    8.7067   -4.5736   23.0137 H   0  0  0  0  0  0  0  0  0  0  0  0
    6.3820   -3.5895   23.5563 H   0  0  0  0  0  0  0  0  0  0  0  0
    7.8723   -1.3037   24.9245 H   0  0  0  0  0  0  0  0  0  0  0  0
    6.1617   -1.7029   25.0038 H   0  0  0  0  0  0  0  0  0  0  0  0
    6.7852   -2.5254   27.1180 H   0  0  0  0  0  0  0  0  0  0  0  0
    8.4691   -2.7032   26.6587 H   0  0  0  0  0  0  0  0  0  0  0  0
    6.2317   -4.6048   25.8385 H   0  0  0  0  0  0  0  0  0  0  0  0
    8.4567   -5.0354   27.9031 H   0  0  0  0  0  0  0  0  0  0  0  0
    7.2912   -6.2563   27.3694 H   0  0  0  0  0  0  0  0  0  0  0  0
    6.7336   -4.8330   28.2661 H   0  0  0  0  0  0  0  0  0  0  0  0
  1  2  1  0
  2  3  1  0
  3  4  1  0
  4  5  1  0
  5  6  1  0
  6  7  2  0
  7  8  1  0
  8  9  1  0
  9 10  2  0
 10 11  1  0
 11 12  2  0
 12 13  1  0
 13 14  2  0
 14 15  1  0
 12 16  1  0
 11 17  1  0
 10 18  1  0
  8 19  1  0
 19 20  1  0
 20 21  1  0
 21 22  1  0
 22 23  1  0
 22 24  1  0
 22 25  1  0
 21 26  1  0
 26 27  1  0
 27 28  2  0
 28 29  1  0
 29 30  2  0
 30 31  1  0
 28 32  1  0
 27 33  1  0
 21 34  1  0
 20 35  1  0
 20 36  1  0
 19 37  2  0
  5 38  1  0
 38 39  1  0
 39 40  1  0
 39 41  1  0
 38 42  1  0
 38 43  1  0
  5 44  1  0
  4 45  1  0
  4 46  1  0
  3 47  1  0
  3 48  1  0
  2 49  1  0
  1 50  1  0
  1 51  1  0
  1 52  1  0
 39  2  1  0
 37  6  1  0
 14  9  1  0
 30 26  1  0
M  END
>  <cnnaffinity>  (1) 
-6.41333

>  <filename>  (1) 
CC1CCC(c2nc(CC(C)n3ccnc3)n(-c3cccnc3)n2)CC1

$$$$
