
     RDKit          3D

 48 51  0  0  0  0  0  0  0  0999 V2000
    6.0110    5.8281   24.7340 C   0  0  0  0  0  0  0  0  0  0  0  0
    5.4013    4.4487   24.7487 C   0  0  0  0  0  0  0  0  0  0  0  0
    4.1838    4.1954   25.3902 C   0  0  0  0  0  0  0  0  0  0  0  0
    3.6041    2.9148   25.3796 C   0  0  0  0  0  0  0  0  0  0  0  0
    2.2791    2.6534   26.0445 C   0  0  0  0  0  0  0  0  0  0  0  0
    2.1176    3.3265   26.8917 H   0  0  0  0  0  0  0  0  0  0  0  0
    2.2199    1.6217   26.4072 H   0  0  0  0  0  0  0  0  0  0  0  0
    1.4561    2.8000   25.3344 H   0  0  0  0  0  0  0  0  0  0  0  0
    4.2543    1.8817   24.7075 C   0  0  0  0  0  0  0  0  0  0  0  0
    5.4446    2.1410   24.0242 C   0  0  0  0  0  0  0  0  0  0  0  0
    5.9351    1.1052   23.2927 O   0  0  0  0  0  0  0  0  0  0  0  0
    7.2428    1.2397   22.7472 C   0  0  0  0  0  0  0  0  0  0  0  0
    7.6174   -0.0844   22.2069 C   0  0  0  0  0  0  0  0  0  0  0  0
    8.2388   -0.9932   22.9184 N   0  0  0  0  0  0  0  0  0  0  0  0
    8.3379   -2.0368   22.0570 C   0  0  0  0  0  0  0  0  0  0  0  0
    8.9420   -3.2998   22.5398 C   0  0  0  0  0  0  0  0  0  0  0  0
    8.1595   -4.0210   23.6555 C   0  0  0  0  0  0  0  0  0  0  0  0
    9.2649   -4.7545   24.4209 C   0  0  0  0  0  0  0  0  0  0  0  0
   10.4779   -4.0639   24.1728 O   0  0  0  0  0  0  0  0  0  0  0  0
   10.2995   -3.0378   23.2208 C   0  0  0  0  0  0  0  0  0  0  0  0
   10.2981   -2.0615   23.7283 H   0  0  0  0  0  0  0  0  0  0  0  0
   11.1387   -3.0542   22.5147 H   0  0  0  0  0  0  0  0  0  0  0  0
    9.0615   -4.7624   25.4957 H   0  0  0  0  0  0  0  0  0  0  0  0
    9.3934   -5.7981   24.1055 H   0  0  0  0  0  0  0  0  0  0  0  0
    7.6669   -3.2756   24.2949 H   0  0  0  0  0  0  0  0  0  0  0  0
    7.3949   -4.7003   23.2655 H   0  0  0  0  0  0  0  0  0  0  0  0
    9.0298   -3.9505   21.6769 H   0  0  0  0  0  0  0  0  0  0  0  0
    7.8669   -1.8129   20.8484 N   0  0  0  0  0  0  0  0  0  0  0  0
    7.3487   -0.5563   20.9630 N   0  0  0  0  0  0  0  0  0  0  0  0
    6.6186    0.0557   19.9081 C   0  0  0  0  0  0  0  0  0  0  0  0
    5.4079    0.7199   20.1465 C   0  0  0  0  0  0  0  0  0  0  0  0
    4.7972    1.3473   19.0558 C   0  0  0  0  0  0  0  0  0  0  0  0
    5.4115    1.2968   17.8018 C   0  0  0  0  0  0  0  0  0  0  0  0
    6.5523    0.6250   17.5693 N   0  0  0  0  0  0  0  0  0  0  0  0
    7.1281    0.0029   18.6017 C   0  0  0  0  0  0  0  0  0  0  0  0
    8.0394   -0.5548   18.4014 H   0  0  0  0  0  0  0  0  0  0  0  0
    4.9702    1.8063   16.9476 H   0  0  0  0  0  0  0  0  0  0  0  0
    3.8615    1.8797   19.1716 H   0  0  0  0  0  0  0  0  0  0  0  0
    4.9606    0.7386   21.1400 H   0  0  0  0  0  0  0  0  0  0  0  0
    7.9627    1.5065   23.5317 H   0  0  0  0  0  0  0  0  0  0  0  0
    7.2591    2.0126   21.9717 H   0  0  0  0  0  0  0  0  0  0  0  0
    6.0449    3.3992   24.0849 C   0  0  0  0  0  0  0  0  0  0  0  0
    7.0134    3.5603   23.6236 H   0  0  0  0  0  0  0  0  0  0  0  0
    3.8684    0.8662   24.7115 H   0  0  0  0  0  0  0  0  0  0  0  0
    3.6825    5.0041   25.9158 H   0  0  0  0  0  0  0  0  0  0  0  0
    5.7181    6.4038   25.6174 H   0  0  0  0  0  0  0  0  0  0  0  0
    5.6941    6.3914   23.8462 H   0  0  0  0  0  0  0  0  0  0  0  0
    7.1056    5.7778   24.7098 H   0  0  0  0  0  0  0  0  0  0  0  0
  1  2  1  0
  2  3  2  0
  3  4  1  0
  4  5  1  0
  5  6  1  0
  5  7  1  0
  5  8  1  0
  4  9  2  0
  9 10  1  0
 10 11  1  0
 11 12  1  0
 12 13  1  0
 13 14  2  0
 14 15  1  0
 15 16  1  0
 16 17  1  0
 17 18  1  0
 18 19  1  0
 19 20  1  0
 20 21  1  0
 20 22  1  0
 18 23  1  0
 18 24  1  0
 17 25  1  0
 17 26  1  0
 16 27  1  0
 15 28  2  0
 28 29  1  0
 29 30  1  0
 30 31  2  0
 31 32  1  0
 32 33  2  0
 33 34  1  0
 34 35  2  0
 35 36  1  0
 33 37  1  0
 32 38  1  0
 31 39  1  0
 12 40  1  0
 12 41  1  0
 10 42  2  0
 42 43  1  0
  9 44  1  0
  3 45  1  0
  1 46  1  0
  1 47  1  0
  1 48  1  0
 42  2  1  0
 29 13  1  0
 35 30  1  0
 20 16  1  0
M  END
>  <cnnaffinity>  (1) 
-5.96896

>  <filename>  (1) 
Cc1cc(C)cc(OCc2nc(C3CCOC3)nn2-c2cccnc2)c1

$$$$
