
     RDKit          3D

 48 51  0  0  0  0  0  0  0  0999 V2000
   14.1411    1.3808   23.2574 C   0  0  0  0  0  0  0  0  0  0  0  0
   13.4020    0.1728   22.7896 C   0  0  0  0  0  0  0  0  0  0  0  0
   13.9973   -0.9659   22.2510 C   0  0  0  0  0  0  0  0  0  0  0  0
   13.2107   -1.9420   21.6374 C   0  0  0  0  0  0  0  0  0  0  0  0
   11.8211   -1.8166   21.6271 C   0  0  0  0  0  0  0  0  0  0  0  0
   11.2180   -0.6951   22.2045 C   0  0  0  0  0  0  0  0  0  0  0  0
    9.8014   -0.3631   22.0043 C   0  0  0  0  0  0  0  0  0  0  0  0
    8.8441   -1.1469   21.5439 N   0  0  0  0  0  0  0  0  0  0  0  0
    7.7567   -0.3337   21.5571 N   0  0  0  0  0  0  0  0  0  0  0  0
    6.5116   -0.8129   20.9696 C   0  0  0  0  0  0  0  0  0  0  0  0
    6.0586    0.0118   19.7830 C   0  0  0  0  0  0  0  0  0  0  0  0
    4.8731    0.7497   19.8014 C   0  0  0  0  0  0  0  0  0  0  0  0
    4.5302    1.5078   18.6780 C   0  0  0  0  0  0  0  0  0  0  0  0
    5.3912    1.4957   17.5781 C   0  0  0  0  0  0  0  0  0  0  0  0
    6.5332    0.7939   17.5379 N   0  0  0  0  0  0  0  0  0  0  0  0
    6.8555    0.0846   18.6269 C   0  0  0  0  0  0  0  0  0  0  0  0
    7.7995   -0.4569   18.5790 H   0  0  0  0  0  0  0  0  0  0  0  0
    5.1525    2.0732   16.6867 H   0  0  0  0  0  0  0  0  0  0  0  0
    3.6304    2.1113   18.6506 H   0  0  0  0  0  0  0  0  0  0  0  0
    4.2350    0.7400   20.6875 H   0  0  0  0  0  0  0  0  0  0  0  0
    5.7361   -0.8318   21.7425 H   0  0  0  0  0  0  0  0  0  0  0  0
    6.7049   -1.8505   20.6766 H   0  0  0  0  0  0  0  0  0  0  0  0
    8.1095    0.8862   22.0429 C   0  0  0  0  0  0  0  0  0  0  0  0
    7.2686    2.0858   22.4089 C   0  0  0  0  0  0  0  0  0  0  0  0
    7.6952    2.7202   23.7460 C   0  0  0  0  0  0  0  0  0  0  0  0
    8.1735    4.0385   23.7860 C   0  0  0  0  0  0  0  0  0  0  0  0
    8.6112    4.6685   24.8861 N   0  0  0  0  0  0  0  0  0  0  0  0
    8.6117    3.9683   26.0222 C   0  0  0  0  0  0  0  0  0  0  0  0
    8.1947    2.6414   26.1028 C   0  0  0  0  0  0  0  0  0  0  0  0
    7.7314    1.9868   24.9537 C   0  0  0  0  0  0  0  0  0  0  0  0
    7.3373    0.5371   25.0459 C   0  0  0  0  0  0  0  0  0  0  0  0
    6.3077    0.3643   24.7165 H   0  0  0  0  0  0  0  0  0  0  0  0
    7.9878   -0.0957   24.4356 H   0  0  0  0  0  0  0  0  0  0  0  0
    7.4293    0.1750   26.0717 H   0  0  0  0  0  0  0  0  0  0  0  0
    8.2465    2.1095   27.0471 H   0  0  0  0  0  0  0  0  0  0  0  0
    8.9634    4.4893   26.9122 H   0  0  0  0  0  0  0  0  0  0  0  0
    8.2124    4.6251   22.8672 H   0  0  0  0  0  0  0  0  0  0  0  0
    7.4179    2.8232   21.6114 H   0  0  0  0  0  0  0  0  0  0  0  0
    6.2085    1.8087   22.4067 H   0  0  0  0  0  0  0  0  0  0  0  0
    9.3988    0.9006   22.2677 N   0  0  0  0  0  0  0  0  0  0  0  0
   12.0181    0.2358   22.8626 C   0  0  0  0  0  0  0  0  0  0  0  0
   11.5546    1.0398   23.4280 H   0  0  0  0  0  0  0  0  0  0  0  0
   11.1444   -2.5597   21.2469 H   0  0  0  0  0  0  0  0  0  0  0  0
   13.7306   -2.7494   21.1398 H   0  0  0  0  0  0  0  0  0  0  0  0
   15.0617   -1.1207   22.3388 H   0  0  0  0  0  0  0  0  0  0  0  0
   15.1780    1.3954   22.9260 H   0  0  0  0  0  0  0  0  0  0  0  0
   14.0618    1.4144   24.3416 H   0  0  0  0  0  0  0  0  0  0  0  0
   13.6569    2.2884   22.8822 H   0  0  0  0  0  0  0  0  0  0  0  0
  1  2  1  0
  2  3  2  0
  3  4  1  0
  4  5  2  0
  5  6  1  0
  6  7  1  0
  7  8  2  0
  8  9  1  0
  9 10  1  0
 10 11  1  0
 11 12  2  0
 12 13  1  0
 13 14  2  0
 14 15  1  0
 15 16  2  0
 16 17  1  0
 14 18  1  0
 13 19  1  0
 12 20  1  0
 10 21  1  0
 10 22  1  0
  9 23  1  0
 23 24  1  0
 24 25  1  0
 25 26  2  0
 26 27  1  0
 27 28  2  0
 28 29  1  0
 29 30  2  0
 30 31  1  0
 31 32  1  0
 31 33  1  0
 31 34  1  0
 29 35  1  0
 28 36  1  0
 26 37  1  0
 24 38  1  0
 24 39  1  0
 23 40  2  0
  6 41  2  0
 41 42  1  0
  5 43  1  0
  4 44  1  0
  3 45  1  0
  1 46  1  0
  1 47  1  0
  1 48  1  0
 41  2  1  0
 40  7  1  0
 16 11  1  0
 30 25  1  0
M  END
>  <cnnaffinity>  (1) 
-6.56572

>  <filename>  (1) 
Cc1cccc(-c2nc(Cc3cnccc3C)n(Cc3cccnc3)n2)c1

$$$$
