
     RDKit          3D

 39 42  0  0  0  0  0  0  0  0999 V2000
   10.8848   -0.1363   24.4606 C   0  0  0  0  0  0  0  0  0  0  0  0
   11.5239   -0.4873   23.1706 C   0  0  0  0  0  0  0  0  0  0  0  0
   12.5987    0.0929   22.5969 C   0  0  0  0  0  0  0  0  0  0  0  0
   12.9630   -0.5822   21.5282 O   0  0  0  0  0  0  0  0  0  0  0  0
   12.0158   -1.5276   21.2419 N   0  0  0  0  0  0  0  0  0  0  0  0
   11.2172   -1.5059   22.2521 C   0  0  0  0  0  0  0  0  0  0  0  0
   10.0758   -2.4409   22.3912 C   0  0  0  0  0  0  0  0  0  0  0  0
    8.8088   -1.7789   22.0276 C   0  0  0  0  0  0  0  0  0  0  0  0
    8.5493   -1.3446   20.8124 N   0  0  0  0  0  0  0  0  0  0  0  0
    7.3676   -0.7015   20.9835 C   0  0  0  0  0  0  0  0  0  0  0  0
    6.6558    0.0062   19.9127 C   0  0  0  0  0  0  0  0  0  0  0  0
    5.4338    0.6537   20.1674 C   0  0  0  0  0  0  0  0  0  0  0  0
    4.8088    1.3073   19.1106 C   0  0  0  0  0  0  0  0  0  0  0  0
    5.4117    1.2857   17.8449 C   0  0  0  0  0  0  0  0  0  0  0  0
    6.5776    0.6664   17.6001 N   0  0  0  0  0  0  0  0  0  0  0  0
    7.1863    0.0509   18.6165 C   0  0  0  0  0  0  0  0  0  0  0  0
    8.1296   -0.4343   18.3859 H   0  0  0  0  0  0  0  0  0  0  0  0
    4.9191    1.7718   17.0040 H   0  0  0  0  0  0  0  0  0  0  0  0
    3.8699    1.8458   19.2629 H   0  0  0  0  0  0  0  0  0  0  0  0
    5.0016    0.6322   21.1700 H   0  0  0  0  0  0  0  0  0  0  0  0
    6.9005   -0.7369   22.2264 N   0  0  0  0  0  0  0  0  0  0  0  0
    7.8143   -1.4773   22.8915 N   0  0  0  0  0  0  0  0  0  0  0  0
    7.6904   -1.7838   24.3006 C   0  0  0  0  0  0  0  0  0  0  0  0
    7.8453   -3.1075   24.7365 C   0  0  0  0  0  0  0  0  0  0  0  0
    7.7396   -3.4879   26.0843 C   0  0  0  0  0  0  0  0  0  0  0  0
    7.4634   -2.3385   27.1227 C   0  0  0  0  0  0  0  0  0  0  0  0
    7.4634   -2.3385   27.1229 F   0  0  0  0  0  0  0  0  0  0  0  0
    7.2881   -0.9614   26.6235 C   0  0  0  0  0  0  0  0  0  0  0  0
    7.4234   -0.7642   25.2013 C   0  0  0  0  0  0  0  0  0  0  0  0
    7.2949    0.2457   24.8079 H   0  0  0  0  0  0  0  0  0  0  0  0
    7.0350   -0.0489   27.2699 H   0  0  0  0  0  0  0  0  0  0  0  0
    7.8552   -4.6040   26.3819 H   0  0  0  0  0  0  0  0  0  0  0  0
    8.0262   -3.8802   24.0035 H   0  0  0  0  0  0  0  0  0  0  0  0
   10.2076   -3.2065   21.6719 H   0  0  0  0  0  0  0  0  0  0  0  0
   10.0850   -2.8847   23.3844 H   0  0  0  0  0  0  0  0  0  0  0  0
   13.1885    0.9902   22.8444 H   0  0  0  0  0  0  0  0  0  0  0  0
   11.5750    0.4602   25.0585 H   0  0  0  0  0  0  0  0  0  0  0  0
   10.6147   -1.0408   24.9950 H   0  0  0  0  0  0  0  0  0  0  0  0
    9.9928    0.4411   24.2440 H   0  0  0  0  0  0  0  0  0  0  0  0
  1  2  1  0
  2  3  2  0
  3  4  1  0
  4  5  1  0
  5  6  2  0
  6  7  1  0
  7  8  1  0
  8  9  2  0
  9 10  1  0
 10 11  1  0
 11 12  2  0
 12 13  1  0
 13 14  2  0
 14 15  1  0
 15 16  2  0
 16 17  1  0
 14 18  1  0
 13 19  1  0
 12 20  1  0
 10 21  2  0
 21 22  1  0
 22 23  1  0
 23 24  2  0
 24 25  1  0
 25 26  2  0
 26 27  1  0
 26 28  1  0
 28 29  2  0
 29 30  1  0
 28 31  1  0
 25 32  1  0
 24 33  1  0
  7 34  1  0
  7 35  1  0
  3 36  1  0
  1 37  1  0
  1 38  1  0
  1 39  1  0
  6  2  1  0
 22  8  1  0
 29 23  1  0
 16 11  1  0
M  END
>  <cnnaffinity>  (1) 
-6.4763

>  <filename>  (1) 
Cc1conc1Cc1nc(-c2cccnc2)nn1-c1ccc(F)cc1

$$$$
