
     RDKit          3D

 49 52  0  0  0  0  0  0  0  0999 V2000
    3.3376   -7.6954   24.2194 C   0  0  0  0  0  0  0  0  0  0  0  0
    3.9525   -6.5590   23.4252 C   0  0  0  0  0  0  0  0  0  0  0  0
    4.0135   -6.5850   22.0227 C   0  0  0  0  0  0  0  0  0  0  0  0
    4.6876   -5.6945   21.2831 N   0  0  0  0  0  0  0  0  0  0  0  0
    5.2608   -4.6587   21.8998 C   0  0  0  0  0  0  0  0  0  0  0  0
    5.1608   -4.4724   23.2881 C   0  0  0  0  0  0  0  0  0  0  0  0
    5.6458   -3.2896   23.8998 N   0  0  0  0  0  0  0  0  0  0  0  0
    5.0436   -2.8223   25.0217 N   0  0  0  0  0  0  0  0  0  0  0  0
    5.6786   -1.6868   25.2683 C   0  0  0  0  0  0  0  0  0  0  0  0
    5.3195   -0.7695   26.4132 C   0  0  0  0  0  0  0  0  0  0  0  0
    4.6236   -1.4595   27.6091 C   0  0  0  0  0  0  0  0  0  0  0  0
    4.8526   -0.5447   28.8320 C   0  0  0  0  0  0  0  0  0  0  0  0
    6.0172    0.4046   28.4589 C   0  0  0  0  0  0  0  0  0  0  0  0
    6.5141   -0.0451   27.0712 C   0  0  0  0  0  0  0  0  0  0  0  0
    7.3445   -0.7539   27.1810 H   0  0  0  0  0  0  0  0  0  0  0  0
    6.8726    0.7966   26.4688 H   0  0  0  0  0  0  0  0  0  0  0  0
    6.8260    0.3730   29.1990 H   0  0  0  0  0  0  0  0  0  0  0  0
    5.6603    1.4427   28.4335 H   0  0  0  0  0  0  0  0  0  0  0  0
    3.9527    0.0359   29.0716 H   0  0  0  0  0  0  0  0  0  0  0  0
    5.0849   -1.1409   29.7228 H   0  0  0  0  0  0  0  0  0  0  0  0
    3.5601   -1.6423   27.4203 H   0  0  0  0  0  0  0  0  0  0  0  0
    5.1013   -2.4332   27.7706 H   0  0  0  0  0  0  0  0  0  0  0  0
    4.6458   -0.0173   25.9774 H   0  0  0  0  0  0  0  0  0  0  0  0
    6.6838   -1.4155   24.3903 N   0  0  0  0  0  0  0  0  0  0  0  0
    6.6410   -2.4300   23.5481 C   0  0  0  0  0  0  0  0  0  0  0  0
    7.5787   -2.6181   22.3862 C   0  0  0  0  0  0  0  0  0  0  0  0
    7.0786   -2.0957   21.1531 O   0  0  0  0  0  0  0  0  0  0  0  0
    7.3740   -0.7013   21.0161 C   0  0  0  0  0  0  0  0  0  0  0  0
    6.6047   -0.0694   19.8836 C   0  0  0  0  0  0  0  0  0  0  0  0
    5.4017    0.6233   20.0814 C   0  0  0  0  0  0  0  0  0  0  0  0
    4.8161    1.2892   19.0026 C   0  0  0  0  0  0  0  0  0  0  0  0
    5.4475    1.2299   17.7594 C   0  0  0  0  0  0  0  0  0  0  0  0
    6.5745    0.5403   17.5337 N   0  0  0  0  0  0  0  0  0  0  0  0
    7.1247   -0.0910   18.5810 C   0  0  0  0  0  0  0  0  0  0  0  0
    8.0498   -0.6244   18.3683 H   0  0  0  0  0  0  0  0  0  0  0  0
    5.0353    1.7678   16.9065 H   0  0  0  0  0  0  0  0  0  0  0  0
    3.9075    1.8721   19.1169 H   0  0  0  0  0  0  0  0  0  0  0  0
    4.9303    0.6520   21.0654 H   0  0  0  0  0  0  0  0  0  0  0  0
    7.1381   -0.1858   21.9614 H   0  0  0  0  0  0  0  0  0  0  0  0
    8.4599   -0.5913   20.8441 H   0  0  0  0  0  0  0  0  0  0  0  0
    8.5283   -2.1329   22.6592 H   0  0  0  0  0  0  0  0  0  0  0  0
    7.7980   -3.6780   22.2290 H   0  0  0  0  0  0  0  0  0  0  0  0
    4.5228   -5.4495   24.0641 C   0  0  0  0  0  0  0  0  0  0  0  0
    4.4616   -5.3176   25.1494 H   0  0  0  0  0  0  0  0  0  0  0  0
    5.7902   -3.9504   21.2611 H   0  0  0  0  0  0  0  0  0  0  0  0
    3.4718   -7.3467   21.4616 H   0  0  0  0  0  0  0  0  0  0  0  0
    4.0355   -8.0180   25.0018 H   0  0  0  0  0  0  0  0  0  0  0  0
    3.1226   -8.5575   23.5782 H   0  0  0  0  0  0  0  0  0  0  0  0
    2.4020   -7.3972   24.7079 H   0  0  0  0  0  0  0  0  0  0  0  0
  1  2  1  0
  2  3  2  0
  3  4  1  0
  4  5  2  0
  5  6  1  0
  6  7  1  0
  7  8  1  0
  8  9  2  0
  9 10  1  0
 10 11  1  0
 11 12  1  0
 12 13  1  0
 13 14  1  0
 14 15  1  0
 14 16  1  0
 13 17  1  0
 13 18  1  0
 12 19  1  0
 12 20  1  0
 11 21  1  0
 11 22  1  0
 10 23  1  0
  9 24  1  0
 24 25  2  0
 25 26  1  0
 26 27  1  0
 27 28  1  0
 28 29  1  0
 29 30  2  0
 30 31  1  0
 31 32  2  0
 32 33  1  0
 33 34  2  0
 34 35  1  0
 32 36  1  0
 31 37  1  0
 30 38  1  0
 28 39  1  0
 28 40  1  0
 26 41  1  0
 26 42  1  0
  6 43  2  0
 43 44  1  0
  5 45  1  0
  3 46  1  0
  1 47  1  0
  1 48  1  0
  1 49  1  0
 43  2  1  0
 25  7  1  0
 34 29  1  0
 14 10  1  0
M  END
>  <cnnaffinity>  (1) 
-5.53191

>  <filename>  (1) 
Cc1cncc(-n2nc(C3CCCC3)nc2COCc2cccnc2)c1

$$$$
