
     RDKit          3D

 48 51  0  0  0  0  0  0  0  0999 V2000
    4.6585   -0.8027   26.1143 C   0  0  0  0  0  0  0  0  0  0  0  0
    5.8772    0.0314   25.8108 C   0  0  0  0  0  0  0  0  0  0  0  0
    6.9817    0.1264   26.6747 C   0  0  0  0  0  0  0  0  0  0  0  0
    8.0883    0.8329   26.4081 N   0  0  0  0  0  0  0  0  0  0  0  0
    8.1515    1.4655   25.2333 C   0  0  0  0  0  0  0  0  0  0  0  0
    7.1192    1.4467   24.2767 C   0  0  0  0  0  0  0  0  0  0  0  0
    7.3401    1.9609   22.8531 C   0  0  0  0  0  0  0  0  0  0  0  0
    8.2311    0.9857   22.1334 C   0  0  0  0  0  0  0  0  0  0  0  0
    9.5446    1.0551   22.1768 N   0  0  0  0  0  0  0  0  0  0  0  0
    9.9353   -0.1997   21.8421 C   0  0  0  0  0  0  0  0  0  0  0  0
   11.3461   -0.5763   21.7301 C   0  0  0  0  0  0  0  0  0  0  0  0
   12.3623    0.2406   22.2261 C   0  0  0  0  0  0  0  0  0  0  0  0
   13.7050   -0.0629   21.9995 C   0  0  0  0  0  0  0  0  0  0  0  0
   14.7213    0.8841   22.5590 C   0  0  0  0  0  0  0  0  0  0  0  0
   14.3515    1.9142   22.5396 H   0  0  0  0  0  0  0  0  0  0  0  0
   14.9021    0.6291   23.6031 H   0  0  0  0  0  0  0  0  0  0  0  0
   15.6580    0.8746   22.0078 H   0  0  0  0  0  0  0  0  0  0  0  0
   14.0144   -1.1694   21.1907 C   0  0  0  0  0  0  0  0  0  0  0  0
   13.0065   -1.9945   20.7017 C   0  0  0  0  0  0  0  0  0  0  0  0
   11.6822   -1.7417   21.0421 C   0  0  0  0  0  0  0  0  0  0  0  0
   10.8593   -2.3718   20.7248 H   0  0  0  0  0  0  0  0  0  0  0  0
   13.2756   -2.7844   20.0045 H   0  0  0  0  0  0  0  0  0  0  0  0
   15.0133   -1.3768   20.8374 H   0  0  0  0  0  0  0  0  0  0  0  0
   12.1058    1.1613   22.7427 H   0  0  0  0  0  0  0  0  0  0  0  0
    8.9399   -1.0098   21.5275 N   0  0  0  0  0  0  0  0  0  0  0  0
    7.8441   -0.2389   21.7076 N   0  0  0  0  0  0  0  0  0  0  0  0
    6.5652   -0.7020   21.1674 C   0  0  0  0  0  0  0  0  0  0  0  0
    6.1079    0.0815   19.9546 C   0  0  0  0  0  0  0  0  0  0  0  0
    4.9301    0.8337   19.9374 C   0  0  0  0  0  0  0  0  0  0  0  0
    4.5957    1.5338   18.7747 C   0  0  0  0  0  0  0  0  0  0  0  0
    5.4515    1.4521   17.6722 C   0  0  0  0  0  0  0  0  0  0  0  0
    6.5907    0.7417   17.6700 N   0  0  0  0  0  0  0  0  0  0  0  0
    6.9051    0.0881   18.7944 C   0  0  0  0  0  0  0  0  0  0  0  0
    7.8455   -0.4641   18.7761 H   0  0  0  0  0  0  0  0  0  0  0  0
    5.2097    1.9749   16.7477 H   0  0  0  0  0  0  0  0  0  0  0  0
    3.6991    2.1424   18.7164 H   0  0  0  0  0  0  0  0  0  0  0  0
    4.2893    0.8758   20.8221 H   0  0  0  0  0  0  0  0  0  0  0  0
    6.7341   -1.7530   20.9101 H   0  0  0  0  0  0  0  0  0  0  0  0
    5.8227   -0.6740   21.9671 H   0  0  0  0  0  0  0  0  0  0  0  0
    7.8525    2.9285   22.8470 H   0  0  0  0  0  0  0  0  0  0  0  0
    6.3938    2.0794   22.3157 H   0  0  0  0  0  0  0  0  0  0  0  0
    5.9681    0.7309   24.6002 C   0  0  0  0  0  0  0  0  0  0  0  0
    5.1321    0.7003   23.8983 H   0  0  0  0  0  0  0  0  0  0  0  0
    9.0873    1.9825   25.0118 H   0  0  0  0  0  0  0  0  0  0  0  0
    6.9839   -0.4071   27.6251 H   0  0  0  0  0  0  0  0  0  0  0  0
    4.7657   -1.8135   25.7036 H   0  0  0  0  0  0  0  0  0  0  0  0
    3.7684   -0.3603   25.6546 H   0  0  0  0  0  0  0  0  0  0  0  0
    4.4745   -0.8987   27.1889 H   0  0  0  0  0  0  0  0  0  0  0  0
  1  2  1  0
  2  3  2  0
  3  4  1  0
  4  5  2  0
  5  6  1  0
  6  7  1  0
  7  8  1  0
  8  9  2  0
  9 10  1  0
 10 11  1  0
 11 12  2  0
 12 13  1  0
 13 14  1  0
 14 15  1  0
 14 16  1  0
 14 17  1  0
 13 18  2  0
 18 19  1  0
 19 20  2  0
 20 21  1  0
 19 22  1  0
 18 23  1  0
 12 24  1  0
 10 25  2  0
 25 26  1  0
 26 27  1  0
 27 28  1  0
 28 29  2  0
 29 30  1  0
 30 31  2  0
 31 32  1  0
 32 33  2  0
 33 34  1  0
 31 35  1  0
 30 36  1  0
 29 37  1  0
 27 38  1  0
 27 39  1  0
  7 40  1  0
  7 41  1  0
  6 42  2  0
 42 43  1  0
  5 44  1  0
  3 45  1  0
  1 46  1  0
  1 47  1  0
  1 48  1  0
 42  2  1  0
 26  8  1  0
 33 28  1  0
 20 11  1  0
M  END
>  <cnnaffinity>  (1) 
-6.50846

>  <filename>  (1) 
Cc1cncc(Cc2nc(-c3cccc(C)c3)nn2Cc2cccnc2)c1

$$$$
