
     RDKit          3D

 42 45  0  0  0  0  0  0  0  0999 V2000
    7.9591   -0.4612   27.5753 C   0  0  0  0  0  0  0  0  0  0  0  0
    7.4576    0.1280   26.2918 C   0  0  0  0  0  0  0  0  0  0  0  0
    6.2400   -0.0654   25.7135 C   0  0  0  0  0  0  0  0  0  0  0  0
    6.0964    0.6123   24.4655 C   0  0  0  0  0  0  0  0  0  0  0  0
    7.2188    1.2842   24.0858 C   0  0  0  0  0  0  0  0  0  0  0  0
    7.5673    1.9152   22.7527 C   0  0  0  0  0  0  0  0  0  0  0  0
    8.5799    1.0737   22.0244 C   0  0  0  0  0  0  0  0  0  0  0  0
    9.8851    1.2267   22.1225 N   0  0  0  0  0  0  0  0  0  0  0  0
   10.3716    0.0374   21.6824 C   0  0  0  0  0  0  0  0  0  0  0  0
   11.8167   -0.3395   21.7666 C   0  0  0  0  0  0  0  0  0  0  0  0
   12.7852    0.5086   22.3390 C   0  0  0  0  0  0  0  0  0  0  0  0
   14.1019    0.0518   22.4251 C   0  0  0  0  0  0  0  0  0  0  0  0
   14.5147   -1.1287   21.9520 N   0  0  0  0  0  0  0  0  0  0  0  0
   13.6052   -1.9262   21.3841 C   0  0  0  0  0  0  0  0  0  0  0  0
   12.2562   -1.5880   21.2885 C   0  0  0  0  0  0  0  0  0  0  0  0
   11.5279   -2.2828   20.8957 H   0  0  0  0  0  0  0  0  0  0  0  0
   13.9893   -2.8635   20.9916 H   0  0  0  0  0  0  0  0  0  0  0  0
   14.8636    0.6701   22.8908 H   0  0  0  0  0  0  0  0  0  0  0  0
   12.5343    1.5040   22.6962 H   0  0  0  0  0  0  0  0  0  0  0  0
    9.4380   -0.8048   21.2677 N   0  0  0  0  0  0  0  0  0  0  0  0
    8.2927   -0.1235   21.4690 N   0  0  0  0  0  0  0  0  0  0  0  0
    7.0180   -0.7033   21.0523 C   0  0  0  0  0  0  0  0  0  0  0  0
    6.3538    0.0330   19.9063 C   0  0  0  0  0  0  0  0  0  0  0  0
    5.1382    0.7165   20.0190 C   0  0  0  0  0  0  0  0  0  0  0  0
    4.6481    1.4147   18.9109 C   0  0  0  0  0  0  0  0  0  0  0  0
    5.3838    1.3889   17.7230 C   0  0  0  0  0  0  0  0  0  0  0  0
    6.5343    0.7112   17.5829 N   0  0  0  0  0  0  0  0  0  0  0  0
    6.9982    0.0646   18.6576 C   0  0  0  0  0  0  0  0  0  0  0  0
    7.9423   -0.4635   18.5276 H   0  0  0  0  0  0  0  0  0  0  0  0
    5.0398    1.9353   16.8460 H   0  0  0  0  0  0  0  0  0  0  0  0
    3.7340    1.9966   18.9598 H   0  0  0  0  0  0  0  0  0  0  0  0
    4.5858    0.7198   20.9612 H   0  0  0  0  0  0  0  0  0  0  0  0
    7.2581   -1.7296   20.7565 H   0  0  0  0  0  0  0  0  0  0  0  0
    6.3638   -0.7521   21.9290 H   0  0  0  0  0  0  0  0  0  0  0  0
    6.6684    2.0398   22.1387 H   0  0  0  0  0  0  0  0  0  0  0  0
    8.0244    2.8960   22.9050 H   0  0  0  0  0  0  0  0  0  0  0  0
    8.4356    1.1692   25.3168 S   0  0  0  0  0  0  0  0  0  0  0  0
    5.1836    0.6031   23.8818 H   0  0  0  0  0  0  0  0  0  0  0  0
    5.4755   -0.6884   26.1674 H   0  0  0  0  0  0  0  0  0  0  0  0
    8.7649    0.1236   28.0258 H   0  0  0  0  0  0  0  0  0  0  0  0
    8.3317   -1.4817   27.4158 H   0  0  0  0  0  0  0  0  0  0  0  0
    7.1309   -0.5320   28.2876 H   0  0  0  0  0  0  0  0  0  0  0  0
  1  2  1  0
  2  3  2  0
  3  4  1  0
  4  5  2  0
  5  6  1  0
  6  7  1  0
  7  8  2  0
  8  9  1  0
  9 10  1  0
 10 11  2  0
 11 12  1  0
 12 13  2  0
 13 14  1  0
 14 15  2  0
 15 16  1  0
 14 17  1  0
 12 18  1  0
 11 19  1  0
  9 20  2  0
 20 21  1  0
 21 22  1  0
 22 23  1  0
 23 24  2  0
 24 25  1  0
 25 26  2  0
 26 27  1  0
 27 28  2  0
 28 29  1  0
 26 30  1  0
 25 31  1  0
 24 32  1  0
 22 33  1  0
 22 34  1  0
  6 35  1  0
  6 36  1  0
  5 37  1  0
  4 38  1  0
  3 39  1  0
  1 40  1  0
  1 41  1  0
  1 42  1  0
 37  2  1  0
 21  7  1  0
 28 23  1  0
 15 10  1  0
M  END
>  <cnnaffinity>  (1) 
-6.64822

>  <filename>  (1) 
Cc1ccc(Cc2nc(-c3ccncc3)nn2Cc2cccnc2)s1

$$$$
