
     RDKit          3D

 50 53  0  0  0  0  0  0  0  0999 V2000
    9.4431    2.3586   21.2634 C   0  0  0  0  0  0  0  0  0  0  0  0
    9.5833    2.1231   22.7491 C   0  0  0  0  0  0  0  0  0  0  0  0
   10.8224    2.3766   23.3633 C   0  0  0  0  0  0  0  0  0  0  0  0
   11.0385    2.0377   24.7020 C   0  0  0  0  0  0  0  0  0  0  0  0
   10.0045    1.4849   25.4567 C   0  0  0  0  0  0  0  0  0  0  0  0
    8.7450    1.3213   24.8716 C   0  0  0  0  0  0  0  0  0  0  0  0
    7.4638    0.6818   25.8737 Cl  0  0  0  0  0  0  0  0  0  0  0  0
    8.5096    1.6101   23.5160 C   0  0  0  0  0  0  0  0  0  0  0  0
    7.1987    1.1950   22.8367 C   0  0  0  0  0  0  0  0  0  0  0  0
    7.2805   -0.2348   22.3384 C   0  0  0  0  0  0  0  0  0  0  0  0
    7.7591   -1.2770   23.0225 N   0  0  0  0  0  0  0  0  0  0  0  0
    8.1006   -2.1545   22.0384 C   0  0  0  0  0  0  0  0  0  0  0  0
    8.9556   -3.3807   22.2146 C   0  0  0  0  0  0  0  0  0  0  0  0
    9.3382   -3.6271   23.6705 C   0  0  0  0  0  0  0  0  0  0  0  0
    8.0865   -3.9599   24.4660 N   0  0  0  0  0  4  0  0  0  0  0  0
    8.4397   -4.3323   25.8617 C   0  0  0  0  0  0  0  0  0  0  0  0
    8.9804   -3.5268   26.3677 H   0  0  0  0  0  0  0  0  0  0  0  0
    7.5435   -4.5920   26.4351 H   0  0  0  0  0  0  0  0  0  0  0  0
    9.0975   -5.2178   25.8642 H   0  0  0  0  0  0  0  0  0  0  0  0
    7.3787   -5.1420   23.8136 C   0  0  0  0  0  0  0  0  0  0  0  0
    7.1476   -4.9182   22.3218 C   0  0  0  0  0  0  0  0  0  0  0  0
    8.3624   -4.5641   21.6546 O   0  0  0  0  0  0  0  0  0  0  0  0
    6.8051   -5.8515   21.8671 H   0  0  0  0  0  0  0  0  0  0  0  0
    6.3779   -4.1487   22.1597 H   0  0  0  0  0  0  0  0  0  0  0  0
    6.4348   -5.3426   24.3320 H   0  0  0  0  0  0  0  0  0  0  0  0
    8.0205   -6.0276   23.9128 H   0  0  0  0  0  0  0  0  0  0  0  0
    7.4903   -3.0859   24.4422 H   0  0  0  0  0  0  0  0  0  0  0  0
   10.0240   -4.4829   23.7141 H   0  0  0  0  0  0  0  0  0  0  0  0
    9.8362   -2.7563   24.1065 H   0  0  0  0  0  0  0  0  0  0  0  0
    9.8569   -3.1457   21.6461 H   0  0  0  0  0  0  0  0  0  0  0  0
    7.7558   -1.7912   20.8189 N   0  0  0  0  0  0  0  0  0  0  0  0
    7.1504   -0.5945   21.0178 N   0  0  0  0  0  0  0  0  0  0  0  0
    6.5190    0.0415   19.9211 C   0  0  0  0  0  0  0  0  0  0  0  0
    5.3162    0.7331   20.0833 C   0  0  0  0  0  0  0  0  0  0  0  0
    4.7786    1.3788   18.9662 C   0  0  0  0  0  0  0  0  0  0  0  0
    5.4584    1.3121   17.7473 C   0  0  0  0  0  0  0  0  0  0  0  0
    6.5949    0.6132   17.5794 N   0  0  0  0  0  0  0  0  0  0  0  0
    7.0981   -0.0273   18.6395 C   0  0  0  0  0  0  0  0  0  0  0  0
    7.9957   -0.6175   18.4674 H   0  0  0  0  0  0  0  0  0  0  0  0
    5.0682    1.8179   16.8655 H   0  0  0  0  0  0  0  0  0  0  0  0
    3.8509    1.9343   19.0379 H   0  0  0  0  0  0  0  0  0  0  0  0
    4.8277    0.7605   21.0580 H   0  0  0  0  0  0  0  0  0  0  0  0
    6.3691    1.2832   23.5458 H   0  0  0  0  0  0  0  0  0  0  0  0
    6.9804    1.8661   21.9956 H   0  0  0  0  0  0  0  0  0  0  0  0
   10.1490    1.1314   26.4700 H   0  0  0  0  0  0  0  0  0  0  0  0
   12.0064    2.2107   25.1650 H   0  0  0  0  0  0  0  0  0  0  0  0
   11.6213    2.8419   22.7847 H   0  0  0  0  0  0  0  0  0  0  0  0
    8.7271    3.1563   21.0326 H   0  0  0  0  0  0  0  0  0  0  0  0
    9.0846    1.4581   20.7496 H   0  0  0  0  0  0  0  0  0  0  0  0
   10.4085    2.6251   20.8262 H   0  0  0  0  0  0  0  0  0  0  0  0
  1  2  1  0
  2  3  2  0
  3  4  1  0
  4  5  2  0
  5  6  1  0
  6  7  1  0
  6  8  2  0
  8  9  1  0
  9 10  1  0
 10 11  2  0
 11 12  1  0
 12 13  1  0
 13 14  1  0
 14 15  1  0
 15 16  1  0
 16 17  1  0
 16 18  1  0
 16 19  1  0
 15 20  1  0
 20 21  1  0
 21 22  1  0
 21 23  1  0
 21 24  1  0
 20 25  1  0
 20 26  1  0
 15 27  1  0
 14 28  1  0
 14 29  1  0
 13 30  1  0
 12 31  2  0
 31 32  1  0
 32 33  1  0
 33 34  2  0
 34 35  1  0
 35 36  2  0
 36 37  1  0
 37 38  2  0
 38 39  1  0
 36 40  1  0
 35 41  1  0
 34 42  1  0
  9 43  1  0
  9 44  1  0
  5 45  1  0
  4 46  1  0
  3 47  1  0
  1 48  1  0
  1 49  1  0
  1 50  1  0
  8  2  1  0
 32 10  1  0
 38 33  1  0
 22 13  1  0
M  CHG  1  15   1
M  END
>  <cnnaffinity>  (1) 
-6.38327

>  <filename>  (1) 
Cc1cccc(Cl)c1Cc1nc(C2C[NH+](C)CCO2)nn1-c1cccnc1

$$$$
