
     RDKit          3D

 49 52  0  0  0  0  0  0  0  0999 V2000
   14.6037    0.8585   22.7836 C   0  0  0  0  0  0  0  0  0  0  0  0
   13.6046   -0.0606   22.1518 C   0  0  0  0  0  0  0  0  0  0  0  0
   13.9587   -1.1629   21.3511 C   0  0  0  0  0  0  0  0  0  0  0  0
   12.9762   -1.9609   20.7713 C   0  0  0  0  0  0  0  0  0  0  0  0
   11.6359   -1.7023   21.0437 C   0  0  0  0  0  0  0  0  0  0  0  0
   11.2592   -0.5433   21.7332 C   0  0  0  0  0  0  0  0  0  0  0  0
    9.8452   -0.1285   21.7615 C   0  0  0  0  0  0  0  0  0  0  0  0
    8.8539   -0.9446   21.4452 N   0  0  0  0  0  0  0  0  0  0  0  0
    7.7469   -0.2046   21.6741 N   0  0  0  0  0  0  0  0  0  0  0  0
    6.4417   -0.6669   21.2035 C   0  0  0  0  0  0  0  0  0  0  0  0
    5.9811    0.0668   19.9617 C   0  0  0  0  0  0  0  0  0  0  0  0
    4.8735    0.9209   19.9777 C   0  0  0  0  0  0  0  0  0  0  0  0
    4.5789    1.6692   18.8339 C   0  0  0  0  0  0  0  0  0  0  0  0
    5.4046    1.5263   17.7143 C   0  0  0  0  0  0  0  0  0  0  0  0
    6.4515    0.6901   17.6674 N   0  0  0  0  0  0  0  0  0  0  0  0
    6.7267   -0.0139   18.7733 C   0  0  0  0  0  0  0  0  0  0  0  0
    7.5988   -0.6658   18.7200 H   0  0  0  0  0  0  0  0  0  0  0  0
    5.2212    2.1118   16.8147 H   0  0  0  0  0  0  0  0  0  0  0  0
    3.7512    2.3693   18.8070 H   0  0  0  0  0  0  0  0  0  0  0  0
    4.2688    1.0224   20.8841 H   0  0  0  0  0  0  0  0  0  0  0  0
    5.7328   -0.4951   22.0133 H   0  0  0  0  0  0  0  0  0  0  0  0
    6.5292   -1.7474   21.0484 H   0  0  0  0  0  0  0  0  0  0  0  0
    8.1209    1.0302   22.0716 C   0  0  0  0  0  0  0  0  0  0  0  0
    7.2089    2.0349   22.6961 C   0  0  0  0  0  0  0  0  0  0  0  0
    6.7619    1.5539   23.9974 N   0  0  0  0  0  0  0  0  0  0  0  0
    5.5313    1.0087   24.0847 N   0  0  0  0  0  0  0  0  0  0  0  0
    5.4921    0.3924   25.2602 C   0  0  0  0  0  0  0  0  0  0  0  0
    4.2750   -0.3431   25.7161 C   0  0  0  0  0  0  0  0  0  0  0  0
    3.3972   -0.0055   25.1607 H   0  0  0  0  0  0  0  0  0  0  0  0
    4.3957   -1.4209   25.5545 H   0  0  0  0  0  0  0  0  0  0  0  0
    4.1051   -0.1856   26.7850 H   0  0  0  0  0  0  0  0  0  0  0  0
    6.7297    0.5089   25.9211 C   0  0  0  0  0  0  0  0  0  0  0  0
    7.5295    1.2584   25.0883 C   0  0  0  0  0  0  0  0  0  0  0  0
    8.9759    1.6168   25.2744 C   0  0  0  0  0  0  0  0  0  0  0  0
    9.2000    1.7209   26.3386 H   0  0  0  0  0  0  0  0  0  0  0  0
    9.6122    0.8159   24.8824 H   0  0  0  0  0  0  0  0  0  0  0  0
    9.2641    2.5345   24.7530 H   0  0  0  0  0  0  0  0  0  0  0  0
    7.0082    0.0780   26.8740 H   0  0  0  0  0  0  0  0  0  0  0  0
    6.3239    2.2135   22.0860 H   0  0  0  0  0  0  0  0  0  0  0  0
    7.7621    2.9715   22.8093 H   0  0  0  0  0  0  0  0  0  0  0  0
    9.4351    1.1241   22.1023 N   0  0  0  0  0  0  0  0  0  0  0  0
   12.2522    0.2299   22.3410 C   0  0  0  0  0  0  0  0  0  0  0  0
   11.9875    1.0763   22.9734 H   0  0  0  0  0  0  0  0  0  0  0  0
   10.8345   -2.3539   20.7133 H   0  0  0  0  0  0  0  0  0  0  0  0
   13.2845   -2.7639   20.1003 H   0  0  0  0  0  0  0  0  0  0  0  0
   14.9783   -1.4237   21.1201 H   0  0  0  0  0  0  0  0  0  0  0  0
   14.7916    0.5527   23.8181 H   0  0  0  0  0  0  0  0  0  0  0  0
   14.2137    1.8814   22.8189 H   0  0  0  0  0  0  0  0  0  0  0  0
   15.5352    0.8725   22.2150 H   0  0  0  0  0  0  0  0  0  0  0  0
  1  2  1  0
  2  3  2  0
  3  4  1  0
  4  5  2  0
  5  6  1  0
  6  7  1  0
  7  8  2  0
  8  9  1  0
  9 10  1  0
 10 11  1  0
 11 12  2  0
 12 13  1  0
 13 14  2  0
 14 15  1  0
 15 16  2  0
 16 17  1  0
 14 18  1  0
 13 19  1  0
 12 20  1  0
 10 21  1  0
 10 22  1  0
  9 23  1  0
 23 24  1  0
 24 25  1  0
 25 26  1  0
 26 27  2  0
 27 28  1  0
 28 29  1  0
 28 30  1  0
 28 31  1  0
 27 32  1  0
 32 33  2  0
 33 34  1  0
 34 35  1  0
 34 36  1  0
 34 37  1  0
 32 38  1  0
 24 39  1  0
 24 40  1  0
 23 41  2  0
  6 42  2  0
 42 43  1  0
  5 44  1  0
  4 45  1  0
  3 46  1  0
  1 47  1  0
  1 48  1  0
  1 49  1  0
 42  2  1  0
 41  7  1  0
 16 11  1  0
 33 25  1  0
M  END
>  <cnnaffinity>  (1) 
-6.41304

>  <filename>  (1) 
Cc1cccc(-c2nc(Cn3nc(C)cc3C)n(Cc3cccnc3)n2)c1

$$$$
