
     RDKit          3D

 46 49  0  0  0  0  0  0  0  0999 V2000
    6.4416    4.3404   28.5440 C   0  0  0  0  0  0  0  0  0  0  0  0
    6.8364    3.6283   27.2771 C   0  0  0  0  0  0  0  0  0  0  0  0
    8.0716    3.8417   26.6491 C   0  0  0  0  0  0  0  0  0  0  0  0
    8.4206    3.1957   25.4633 C   0  0  0  0  0  0  0  0  0  0  0  0
    7.5268    2.2962   24.8538 C   0  0  0  0  0  0  0  0  0  0  0  0
    7.8956    1.6118   23.5909 C   0  0  0  0  0  0  0  0  0  0  0  0
    7.1765    0.6318   23.0649 N   0  0  0  0  0  0  0  0  0  0  0  0
    7.8939    0.2583   21.9837 N   0  0  0  0  0  0  0  0  0  0  0  0
    7.3463   -0.6942   21.0231 C   0  0  0  0  0  0  0  0  0  0  0  0
    6.6326   -0.0276   19.8623 C   0  0  0  0  0  0  0  0  0  0  0  0
    5.4334    0.6547   20.1068 C   0  0  0  0  0  0  0  0  0  0  0  0
    4.8142    1.3227   19.0479 C   0  0  0  0  0  0  0  0  0  0  0  0
    5.4218    1.2914   17.7885 C   0  0  0  0  0  0  0  0  0  0  0  0
    6.5632    0.6333   17.5315 N   0  0  0  0  0  0  0  0  0  0  0  0
    7.1435   -0.0064   18.5553 C   0  0  0  0  0  0  0  0  0  0  0  0
    8.0699   -0.5336   18.3178 H   0  0  0  0  0  0  0  0  0  0  0  0
    4.9682    1.8083   16.9450 H   0  0  0  0  0  0  0  0  0  0  0  0
    3.8892    1.8742   19.1885 H   0  0  0  0  0  0  0  0  0  0  0  0
    5.0196    0.6731   21.1193 H   0  0  0  0  0  0  0  0  0  0  0  0
    8.1546   -1.3423   20.6661 H   0  0  0  0  0  0  0  0  0  0  0  0
    6.6529   -1.3170   21.5958 H   0  0  0  0  0  0  0  0  0  0  0  0
    9.0003    1.0305   21.8945 C   0  0  0  0  0  0  0  0  0  0  0  0
   10.0910    0.8049   20.8920 C   0  0  0  0  0  0  0  0  0  0  0  0
   11.0766   -0.3739   21.2074 C   0  0  0  0  0  0  0  0  0  0  0  0
   11.8262   -0.1715   22.4807 C   0  0  0  0  0  0  0  0  0  0  0  0
   11.3500   -0.4826   23.6253 N   0  0  0  0  0  0  0  0  0  0  0  0
   12.0714    0.2620   24.5594 C   0  0  0  0  0  0  0  0  0  0  0  0
   11.9528    0.2525   25.7525 O   0  0  0  0  0  0  0  0  0  0  0  0
   13.0041    1.0661   23.8454 N   0  0  0  0  0  0  0  0  0  0  0  0
   12.9968    0.5762   22.5135 N   0  0  0  0  0  0  0  0  0  0  0  0
   13.0248    1.2989   21.7894 H   0  0  0  0  0  0  0  0  0  0  0  0
   13.8993    1.0509   24.3225 H   0  0  0  0  0  0  0  0  0  0  0  0
   10.5153   -1.3047   21.3156 H   0  0  0  0  0  0  0  0  0  0  0  0
   11.7800   -0.5494   20.3967 H   0  0  0  0  0  0  0  0  0  0  0  0
    9.6119    0.6310   19.9233 H   0  0  0  0  0  0  0  0  0  0  0  0
   10.6318    1.7556   20.8083 H   0  0  0  0  0  0  0  0  0  0  0  0
    9.0162    1.9115   22.8749 N   0  0  0  0  0  0  0  0  0  0  0  0
    6.2816    2.0552   25.4749 C   0  0  0  0  0  0  0  0  0  0  0  0
    5.9680    2.7202   26.6506 C   0  0  0  0  0  0  0  0  0  0  0  0
    4.7669    2.4788   27.2135 F   0  0  0  0  0  0  0  0  0  0  0  0
    5.5626    1.3545   25.0618 H   0  0  0  0  0  0  0  0  0  0  0  0
    9.3865    3.3828   25.0032 H   0  0  0  0  0  0  0  0  0  0  0  0
    8.7786    4.5343   27.0988 H   0  0  0  0  0  0  0  0  0  0  0  0
    5.6654    5.0902   28.3512 H   0  0  0  0  0  0  0  0  0  0  0  0
    7.2981    4.8483   28.9974 H   0  0  0  0  0  0  0  0  0  0  0  0
    6.0388    3.6346   29.2771 H   0  0  0  0  0  0  0  0  0  0  0  0
  1  2  1  0
  2  3  2  0
  3  4  1  0
  4  5  2  0
  5  6  1  0
  6  7  2  0
  7  8  1  0
  8  9  1  0
  9 10  1  0
 10 11  2  0
 11 12  1  0
 12 13  2  0
 13 14  1  0
 14 15  2  0
 15 16  1  0
 13 17  1  0
 12 18  1  0
 11 19  1  0
  9 20  1  0
  9 21  1  0
  8 22  1  0
 22 23  1  0
 23 24  1  0
 24 25  1  0
 25 26  2  0
 26 27  1  0
 27 28  2  0
 27 29  1  0
 29 30  1  0
 30 31  1  0
 29 32  1  0
 24 33  1  0
 24 34  1  0
 23 35  1  0
 23 36  1  0
 22 37  2  0
  5 38  1  0
 38 39  2  0
 39 40  1  0
 38 41  1  0
  4 42  1  0
  3 43  1  0
  1 44  1  0
  1 45  1  0
  1 46  1  0
 39  2  1  0
 37  6  1  0
 15 10  1  0
 30 25  1  0
M  END
>  <cnnaffinity>  (1) 
-5.68234

>  <filename>  (1) 
Cc1ccc(-c2nc(CCc3nc(=O)[nH][nH]3)n(Cc3cccnc3)n2)cc1F

$$$$
