
     RDKit          3D

 42 45  0  0  0  0  0  0  0  0999 V2000
    6.2213    3.8917   28.8315 C   0  0  0  0  0  0  0  0  0  0  0  0
    6.6072    3.2686   27.5181 C   0  0  0  0  0  0  0  0  0  0  0  0
    5.7849    2.3048   26.9147 C   0  0  0  0  0  0  0  0  0  0  0  0
    6.1379    1.6999   25.7112 C   0  0  0  0  0  0  0  0  0  0  0  0
    7.3389    2.0665   25.0688 C   0  0  0  0  0  0  0  0  0  0  0  0
    7.7402    1.4797   23.7765 C   0  0  0  0  0  0  0  0  0  0  0  0
    7.1002    0.4846   23.1800 N   0  0  0  0  0  0  0  0  0  0  0  0
    7.8308    0.2720   22.0615 N   0  0  0  0  0  0  0  0  0  0  0  0
    7.3830   -0.6650   21.0334 C   0  0  0  0  0  0  0  0  0  0  0  0
    6.6756    0.0120   19.8766 C   0  0  0  0  0  0  0  0  0  0  0  0
    5.4675    0.6802   20.1136 C   0  0  0  0  0  0  0  0  0  0  0  0
    4.8361    1.3255   19.0502 C   0  0  0  0  0  0  0  0  0  0  0  0
    5.4446    1.2848   17.7920 C   0  0  0  0  0  0  0  0  0  0  0  0
    6.5891    0.6326   17.5375 N   0  0  0  0  0  0  0  0  0  0  0  0
    7.1777    0.0093   18.5672 C   0  0  0  0  0  0  0  0  0  0  0  0
    8.0920   -0.5403   18.3302 H   0  0  0  0  0  0  0  0  0  0  0  0
    4.9932    1.7941   16.9448 H   0  0  0  0  0  0  0  0  0  0  0  0
    3.8982    1.8577   19.1843 H   0  0  0  0  0  0  0  0  0  0  0  0
    5.0453    0.6856   21.1202 H   0  0  0  0  0  0  0  0  0  0  0  0
    8.2630   -1.2265   20.7013 H   0  0  0  0  0  0  0  0  0  0  0  0
    6.7017   -1.3498   21.5483 H   0  0  0  0  0  0  0  0  0  0  0  0
    8.8528    1.1506   22.0325 C   0  0  0  0  0  0  0  0  0  0  0  0
    9.9846    1.0903   21.0766 C   0  0  0  0  0  0  0  0  0  0  0  0
   10.9326    0.0023   21.4722 C   0  0  0  0  0  0  0  0  0  0  0  0
   10.6495   -1.2326   21.1635 N   0  0  0  0  0  0  0  0  0  0  0  0
   11.6805   -1.9961   21.6471 O   0  0  0  0  0  0  0  0  0  0  0  0
   12.5555   -1.2037   22.2690 C   0  0  0  0  0  0  0  0  0  0  0  0
   12.1470    0.0891   22.2053 C   0  0  0  0  0  0  0  0  0  0  0  0
   12.6015    0.9702   22.6378 H   0  0  0  0  0  0  0  0  0  0  0  0
   13.4250   -1.7151   22.6524 H   0  0  0  0  0  0  0  0  0  0  0  0
    9.6121    0.9068   20.0669 H   0  0  0  0  0  0  0  0  0  0  0  0
   10.5018    2.0481   21.1098 H   0  0  0  0  0  0  0  0  0  0  0  0
    8.8294    1.9243   23.0875 N   0  0  0  0  0  0  0  0  0  0  0  0
    8.1705    3.0310   25.6726 C   0  0  0  0  0  0  0  0  0  0  0  0
    7.8005    3.6253   26.8734 C   0  0  0  0  0  0  0  0  0  0  0  0
    8.4293    4.3923   27.3163 H   0  0  0  0  0  0  0  0  0  0  0  0
    9.1048    3.3103   25.1884 H   0  0  0  0  0  0  0  0  0  0  0  0
    5.4886    0.9438   25.2719 H   0  0  0  0  0  0  0  0  0  0  0  0
    4.8486    2.0421   27.3998 H   0  0  0  0  0  0  0  0  0  0  0  0
    5.1347    3.9521   28.9456 H   0  0  0  0  0  0  0  0  0  0  0  0
    6.6063    3.3029   29.6706 H   0  0  0  0  0  0  0  0  0  0  0  0
    6.6197    4.9052   28.9329 H   0  0  0  0  0  0  0  0  0  0  0  0
  1  2  1  0
  2  3  2  0
  3  4  1  0
  4  5  2  0
  5  6  1  0
  6  7  2  0
  7  8  1  0
  8  9  1  0
  9 10  1  0
 10 11  2  0
 11 12  1  0
 12 13  2  0
 13 14  1  0
 14 15  2  0
 15 16  1  0
 13 17  1  0
 12 18  1  0
 11 19  1  0
  9 20  1  0
  9 21  1  0
  8 22  1  0
 22 23  1  0
 23 24  1  0
 24 25  2  0
 25 26  1  0
 26 27  1  0
 27 28  2  0
 28 29  1  0
 27 30  1  0
 23 31  1  0
 23 32  1  0
 22 33  2  0
  5 34  1  0
 34 35  2  0
 35 36  1  0
 34 37  1  0
  4 38  1  0
  3 39  1  0
  1 40  1  0
  1 41  1  0
  1 42  1  0
 35  2  1  0
 33  6  1  0
 15 10  1  0
 28 24  1  0
M  END
>  <cnnaffinity>  (1) 
-6.1031

>  <filename>  (1) 
Cc1ccc(-c2nc(Cc3ccon3)n(Cc3cccnc3)n2)cc1

$$$$
