
     RDKit          3D

 43 47  0  0  0  0  0  0  0  0999 V2000
    8.5154   -2.4764   27.0655 C   0  0  0  0  0  0  0  0  0  0  0  0
    7.7612   -1.6960   26.0205 C   0  0  0  0  0  0  0  0  0  0  0  0
    6.3784   -1.4690   26.1432 C   0  0  0  0  0  0  0  0  0  0  0  0
    5.6665   -0.7116   25.3031 N   0  0  0  0  0  0  0  0  0  0  0  0
    6.3049   -0.1391   24.2776 C   0  0  0  0  0  0  0  0  0  0  0  0
    7.6722   -0.3131   24.0460 C   0  0  0  0  0  0  0  0  0  0  0  0
    8.3443    0.3881   23.0064 N   0  0  0  0  0  0  0  0  0  0  0  0
    9.1986    1.3796   23.3614 N   0  0  0  0  0  0  0  0  0  0  0  0
    9.7012    1.7653   22.2077 C   0  0  0  0  0  0  0  0  0  0  0  0
   10.6113    2.9269   22.0947 C   0  0  0  0  0  0  0  0  0  0  0  0
   11.7381    2.8781   21.0609 C   0  0  0  0  0  0  0  0  0  0  0  0
   12.0463    2.9577   22.5220 C   0  0  0  0  0  0  0  0  0  0  0  0
   12.8216    3.8316   23.4358 C   0  0  0  0  0  0  0  0  0  0  0  0
   12.9852    2.3054   23.4676 C   0  0  0  0  0  0  0  0  0  0  0  0
   12.5772    1.7330   24.3000 H   0  0  0  0  0  0  0  0  0  0  0  0
   13.8855    1.8964   23.0099 H   0  0  0  0  0  0  0  0  0  0  0  0
   12.2665    4.2944   24.2544 H   0  0  0  0  0  0  0  0  0  0  0  0
   13.6307    4.4286   23.0150 H   0  0  0  0  0  0  0  0  0  0  0  0
   11.9000    1.9078   20.5920 H   0  0  0  0  0  0  0  0  0  0  0  0
   11.9461    3.7321   20.4210 H   0  0  0  0  0  0  0  0  0  0  0  0
   10.0733    3.8583   22.2727 H   0  0  0  0  0  0  0  0  0  0  0  0
    9.2247    1.0924   21.1215 N   0  0  0  0  0  0  0  0  0  0  0  0
    8.3548    0.2493   21.6452 C   0  0  0  0  0  0  0  0  0  0  0  0
    7.5148   -0.7388   20.8676 C   0  0  0  0  0  0  0  0  0  0  0  0
    6.7388   -0.1353   19.7033 C   0  0  0  0  0  0  0  0  0  0  0  0
    5.5448    0.5574   19.9334 C   0  0  0  0  0  0  0  0  0  0  0  0
    4.9453    1.2545   18.8843 C   0  0  0  0  0  0  0  0  0  0  0  0
    5.5390    1.2043   17.6197 C   0  0  0  0  0  0  0  0  0  0  0  0
    6.6424    0.4890   17.3564 N   0  0  0  0  0  0  0  0  0  0  0  0
    7.2135   -0.1634   18.3785 C   0  0  0  0  0  0  0  0  0  0  0  0
    8.1058   -0.7376   18.1269 H   0  0  0  0  0  0  0  0  0  0  0  0
    5.0986    1.7390   16.7817 H   0  0  0  0  0  0  0  0  0  0  0  0
    4.0456    1.8387   19.0311 H   0  0  0  0  0  0  0  0  0  0  0  0
    5.0796    0.5392   20.9221 H   0  0  0  0  0  0  0  0  0  0  0  0
    6.8189   -1.2178   21.5624 H   0  0  0  0  0  0  0  0  0  0  0  0
    8.1912   -1.5214   20.5071 H   0  0  0  0  0  0  0  0  0  0  0  0
    8.4093   -1.0973   24.9383 C   0  0  0  0  0  0  0  0  0  0  0  0
    9.4831   -1.2106   24.7954 H   0  0  0  0  0  0  0  0  0  0  0  0
    5.7129    0.4962   23.6205 H   0  0  0  0  0  0  0  0  0  0  0  0
    5.8257   -1.9157   26.9672 H   0  0  0  0  0  0  0  0  0  0  0  0
    9.3663   -3.0144   26.6382 H   0  0  0  0  0  0  0  0  0  0  0  0
    7.8628   -3.2051   27.5556 H   0  0  0  0  0  0  0  0  0  0  0  0
    8.9007   -1.7925   27.8300 H   0  0  0  0  0  0  0  0  0  0  0  0
  1  2  1  0
  2  3  2  0
  3  4  1  0
  4  5  2  0
  5  6  1  0
  6  7  1  0
  7  8  1  0
  8  9  2  0
  9 10  1  0
 10 11  1  0
 11 12  1  0
 12 13  1  0
 13 14  1  0
 14 15  1  0
 14 16  1  0
 13 17  1  0
 13 18  1  0
 11 19  1  0
 11 20  1  0
 10 21  1  0
  9 22  1  0
 22 23  2  0
 23 24  1  0
 24 25  1  0
 25 26  2  0
 26 27  1  0
 27 28  2  0
 28 29  1  0
 29 30  2  0
 30 31  1  0
 28 32  1  0
 27 33  1  0
 26 34  1  0
 24 35  1  0
 24 36  1  0
  6 37  2  0
 37 38  1  0
  5 39  1  0
  3 40  1  0
  1 41  1  0
  1 42  1  0
  1 43  1  0
 37  2  1  0
 23  7  1  0
 30 25  1  0
 12 10  1  0
 14 12  1  0
M  END
>  <cnnaffinity>  (1) 
-6.03345

>  <filename>  (1) 
Cc1cncc(-n2nc(C3CC34CC4)nc2Cc2cccnc2)c1

$$$$
