
     RDKit          3D

 39 42  0  0  0  0  0  0  0  0999 V2000
    8.3019    2.7627   22.0529 C   0  0  0  0  0  0  0  0  0  0  0  0
    9.6558    2.2709   22.4982 C   0  0  0  0  0  0  0  0  0  0  0  0
   10.3414    2.8952   23.5475 C   0  0  0  0  0  0  0  0  0  0  0  0
   11.5332    2.5162   24.0248 N   0  0  0  0  0  0  0  0  0  0  0  0
   12.1020    1.4556   23.4458 C   0  0  0  0  0  0  0  0  0  0  0  0
   11.5261    0.7590   22.3861 C   0  0  0  0  0  0  0  0  0  0  0  0
   10.2987    1.1823   21.8849 C   0  0  0  0  0  0  0  0  0  0  0  0
    9.6208    0.3794   20.8064 C   0  0  0  0  0  0  0  0  0  0  0  0
    8.6204   -0.5682   21.3675 C   0  0  0  0  0  0  0  0  0  0  0  0
    8.8457   -1.4352   22.3273 N   0  0  0  0  0  0  0  0  0  0  0  0
    7.6259   -2.0273   22.5108 C   0  0  0  0  0  0  0  0  0  0  0  0
    7.4060   -3.0482   23.5591 C   0  0  0  0  0  0  0  0  0  0  0  0
    6.2291   -3.6502   23.7643 N   0  0  0  0  0  0  0  0  0  0  0  0
    6.4481   -4.4815   24.7779 N   0  0  0  0  0  0  0  0  0  0  0  0
    7.7195   -4.4556   25.2463 C   0  0  0  0  0  0  0  0  0  0  0  0
    8.3781   -3.5337   24.4787 C   0  0  0  0  0  0  0  0  0  0  0  0
    9.4113   -3.2349   24.5534 H   0  0  0  0  0  0  0  0  0  0  0  0
    8.0383   -5.0845   26.0703 H   0  0  0  0  0  0  0  0  0  0  0  0
    5.6693   -5.0357   25.0983 H   0  0  0  0  0  0  0  0  0  0  0  0
    6.6859   -1.5869   21.6868 N   0  0  0  0  0  0  0  0  0  0  0  0
    7.3349   -0.6832   20.9244 N   0  0  0  0  0  0  0  0  0  0  0  0
    6.6509    0.0073   19.8927 C   0  0  0  0  0  0  0  0  0  0  0  0
    5.4380    0.6468   20.1631 C   0  0  0  0  0  0  0  0  0  0  0  0
    4.8103    1.3141   19.1092 C   0  0  0  0  0  0  0  0  0  0  0  0
    5.3997    1.2969   17.8383 C   0  0  0  0  0  0  0  0  0  0  0  0
    6.5581    0.6742   17.5733 N   0  0  0  0  0  0  0  0  0  0  0  0
    7.1667    0.0503   18.5872 C   0  0  0  0  0  0  0  0  0  0  0  0
    8.1158   -0.4338   18.3672 H   0  0  0  0  0  0  0  0  0  0  0  0
    4.9163    1.7835   16.9955 H   0  0  0  0  0  0  0  0  0  0  0  0
    3.8779    1.8419   19.2624 H   0  0  0  0  0  0  0  0  0  0  0  0
    5.0170    0.6060   21.1716 H   0  0  0  0  0  0  0  0  0  0  0  0
   10.3400   -0.2646   20.3039 H   0  0  0  0  0  0  0  0  0  0  0  0
    9.1592    1.0465   20.0763 H   0  0  0  0  0  0  0  0  0  0  0  0
   12.0146   -0.1115   21.9645 H   0  0  0  0  0  0  0  0  0  0  0  0
   13.0649    1.1463   23.8397 H   0  0  0  0  0  0  0  0  0  0  0  0
    9.8842    3.7589   24.0268 H   0  0  0  0  0  0  0  0  0  0  0  0
    8.3469    3.0879   21.0139 H   0  0  0  0  0  0  0  0  0  0  0  0
    7.5395    1.9763   22.1020 H   0  0  0  0  0  0  0  0  0  0  0  0
    7.9505    3.6102   22.6475 H   0  0  0  0  0  0  0  0  0  0  0  0
  1  2  1  0
  2  3  2  0
  3  4  1  0
  4  5  2  0
  5  6  1  0
  6  7  2  0
  7  8  1  0
  8  9  1  0
  9 10  2  0
 10 11  1  0
 11 12  1  0
 12 13  2  0
 13 14  1  0
 14 15  1  0
 15 16  2  0
 16 17  1  0
 15 18  1  0
 14 19  1  0
 11 20  2  0
 20 21  1  0
 21 22  1  0
 22 23  2  0
 23 24  1  0
 24 25  2  0
 25 26  1  0
 26 27  2  0
 27 28  1  0
 25 29  1  0
 24 30  1  0
 23 31  1  0
  8 32  1  0
  8 33  1  0
  6 34  1  0
  5 35  1  0
  3 36  1  0
  1 37  1  0
  1 38  1  0
  1 39  1  0
  7  2  1  0
 21  9  1  0
 27 22  1  0
 16 12  1  0
M  END
>  <cnnaffinity>  (1) 
-5.92934

>  <filename>  (1) 
Cc1cnccc1Cc1nc(-c2cc[nH]n2)nn1-c1cccnc1

$$$$
