
     RDKit          3D

 41 45  0  0  0  0  0  0  0  0999 V2000
   14.1576    0.2581   22.9870 C   0  0  0  0  0  0  0  0  0  0  0  0
   12.7314    0.6328   22.6927 C   0  0  0  0  0  0  0  0  0  0  0  0
   11.9139    0.0391   21.7813 C   0  0  0  0  0  0  0  0  0  0  0  0
   10.6427    0.6761   21.6395 C   0  0  0  0  0  0  0  0  0  0  0  0
    9.5843    0.1797   20.6934 C   0  0  0  0  0  0  0  0  0  0  0  0
    8.5460   -0.6723   21.3348 C   0  0  0  0  0  0  0  0  0  0  0  0
    8.7471   -1.5252   22.3119 N   0  0  0  0  0  0  0  0  0  0  0  0
    7.5401   -2.1277   22.4455 C   0  0  0  0  0  0  0  0  0  0  0  0
    7.3241   -3.1355   23.4895 C   0  0  0  0  0  0  0  0  0  0  0  0
    5.9058   -3.4611   23.9674 C   0  0  0  0  0  0  0  0  0  0  0  0
    6.7246   -4.4989   23.2733 C   0  0  0  0  0  0  0  0  0  0  0  0
    6.4135   -5.6390   22.3581 C   0  0  0  0  0  0  0  0  0  0  0  0
    7.2154   -5.8459   23.6428 C   0  0  0  0  0  0  0  0  0  0  0  0
    6.7427   -6.2693   24.5242 H   0  0  0  0  0  0  0  0  0  0  0  0
    8.2811   -6.0418   23.5239 H   0  0  0  0  0  0  0  0  0  0  0  0
    5.3729   -5.9644   22.3497 H   0  0  0  0  0  0  0  0  0  0  0  0
    6.9237   -5.6979   21.3982 H   0  0  0  0  0  0  0  0  0  0  0  0
    5.0748   -3.0528   23.3904 H   0  0  0  0  0  0  0  0  0  0  0  0
    5.7236   -3.5214   25.0402 H   0  0  0  0  0  0  0  0  0  0  0  0
    8.1472   -3.1305   24.2041 H   0  0  0  0  0  0  0  0  0  0  0  0
    6.6089   -1.7060   21.6085 N   0  0  0  0  0  0  0  0  0  0  0  0
    7.2618   -0.7794   20.8698 N   0  0  0  0  0  0  0  0  0  0  0  0
    6.5815   -0.0633   19.8412 C   0  0  0  0  0  0  0  0  0  0  0  0
    5.3851    0.6114   20.1113 C   0  0  0  0  0  0  0  0  0  0  0  0
    4.7872    1.3286   19.0695 C   0  0  0  0  0  0  0  0  0  0  0  0
    5.3889    1.3328   17.8047 C   0  0  0  0  0  0  0  0  0  0  0  0
    6.5250    0.6736   17.5353 N   0  0  0  0  0  0  0  0  0  0  0  0
    7.0985   -0.0042   18.5353 C   0  0  0  0  0  0  0  0  0  0  0  0
    8.0267   -0.5190   18.2966 H   0  0  0  0  0  0  0  0  0  0  0  0
    4.9383    1.8656   16.9704 H   0  0  0  0  0  0  0  0  0  0  0  0
    3.8673    1.8821   19.2217 H   0  0  0  0  0  0  0  0  0  0  0  0
    4.9542    0.5784   21.1131 H   0  0  0  0  0  0  0  0  0  0  0  0
    9.1138    1.0266   20.1892 H   0  0  0  0  0  0  0  0  0  0  0  0
   10.0288   -0.4633   19.9234 H   0  0  0  0  0  0  0  0  0  0  0  0
   10.5118    1.7278   22.4861 C   0  0  0  0  0  0  0  0  0  0  0  0
   11.9373    1.9906   23.4239 S   0  0  0  0  0  0  0  0  0  0  0  0
    9.6445    2.3685   22.6036 H   0  0  0  0  0  0  0  0  0  0  0  0
   12.2147   -0.8196   21.1864 H   0  0  0  0  0  0  0  0  0  0  0  0
   14.8213    0.6693   22.2129 H   0  0  0  0  0  0  0  0  0  0  0  0
   14.2665   -0.8305   22.9513 H   0  0  0  0  0  0  0  0  0  0  0  0
   14.4969    0.6200   23.9596 H   0  0  0  0  0  0  0  0  0  0  0  0
  1  2  1  0
  2  3  2  0
  3  4  1  0
  4  5  1  0
  5  6  1  0
  6  7  2  0
  7  8  1  0
  8  9  1  0
  9 10  1  0
 10 11  1  0
 11 12  1  0
 12 13  1  0
 13 14  1  0
 13 15  1  0
 12 16  1  0
 12 17  1  0
 10 18  1  0
 10 19  1  0
  9 20  1  0
  8 21  2  0
 21 22  1  0
 22 23  1  0
 23 24  2  0
 24 25  1  0
 25 26  2  0
 26 27  1  0
 27 28  2  0
 28 29  1  0
 26 30  1  0
 25 31  1  0
 24 32  1  0
  5 33  1  0
  5 34  1  0
  4 35  2  0
 35 36  1  0
 35 37  1  0
  3 38  1  0
  1 39  1  0
  1 40  1  0
  1 41  1  0
 36  2  1  0
 22  6  1  0
 28 23  1  0
 11  9  1  0
 13 11  1  0
M  END
>  <cnnaffinity>  (1) 
-6.56362

>  <filename>  (1) 
Cc1cc(Cc2nc(C3CC34CC4)nn2-c2cccnc2)cs1

$$$$
