
     RDKit          3D

 47 50  0  0  0  0  0  0  0  0999 V2000
   13.1819    1.1889   24.0859 C   0  0  0  0  0  0  0  0  0  0  0  0
   12.5224    0.1462   23.2204 C   0  0  0  0  0  0  0  0  0  0  0  0
   11.1344    0.0339   23.2102 C   0  0  0  0  0  0  0  0  0  0  0  0
   10.4511   -0.8817   22.3921 C   0  0  0  0  0  0  0  0  0  0  0  0
    8.9776   -0.8219   22.3694 C   0  0  0  0  0  0  0  0  0  0  0  0
    8.1814   -1.6151   21.6757 N   0  0  0  0  0  0  0  0  0  0  0  0
    6.9466   -1.0672   21.8570 N   0  0  0  0  0  0  0  0  0  0  0  0
    5.9001   -1.4216   20.8891 C   0  0  0  0  0  0  0  0  0  0  0  0
    5.8121   -0.4493   19.7207 C   0  0  0  0  0  0  0  0  0  0  0  0
    4.7229    0.4065   19.5100 C   0  0  0  0  0  0  0  0  0  0  0  0
    4.7479    1.2811   18.4190 C   0  0  0  0  0  0  0  0  0  0  0  0
    5.8581    1.2670   17.5732 C   0  0  0  0  0  0  0  0  0  0  0  0
    6.9152    0.4612   17.7570 N   0  0  0  0  0  0  0  0  0  0  0  0
    6.8846   -0.3606   18.8127 C   0  0  0  0  0  0  0  0  0  0  0  0
    7.7616   -0.9961   18.9413 H   0  0  0  0  0  0  0  0  0  0  0  0
    5.9086    1.9292   16.7095 H   0  0  0  0  0  0  0  0  0  0  0  0
    3.9327    1.9726   18.2206 H   0  0  0  0  0  0  0  0  0  0  0  0
    3.8677    0.3932   20.1877 H   0  0  0  0  0  0  0  0  0  0  0  0
    6.1512   -2.4296   20.5426 H   0  0  0  0  0  0  0  0  0  0  0  0
    4.9456   -1.4950   21.4085 H   0  0  0  0  0  0  0  0  0  0  0  0
    7.0586    0.0145   22.6768 C   0  0  0  0  0  0  0  0  0  0  0  0
    6.0429    0.9761   23.2391 C   0  0  0  0  0  0  0  0  0  0  0  0
    6.1503    1.0858   24.7961 C   0  0  0  0  0  0  0  0  0  0  0  0
    5.2527    2.0730   25.5030 C   0  0  0  0  0  0  0  0  0  0  0  0
    3.9360    1.9887   25.2704 N   0  0  0  0  0  0  0  0  0  0  0  0
    3.1559    2.8276   25.9478 C   0  0  0  0  0  0  0  0  0  0  0  0
    3.6543    3.7650   26.8411 C   0  0  0  0  0  0  0  0  0  0  0  0
    5.0305    3.7535   27.0187 C   0  0  0  0  0  0  0  0  0  0  0  0
    5.8296    2.9150   26.3683 N   0  0  0  0  0  0  0  0  0  0  0  0
    5.5218    4.4321   27.7191 H   0  0  0  0  0  0  0  0  0  0  0  0
    3.0171    4.4595   27.3647 H   0  0  0  0  0  0  0  0  0  0  0  0
    2.0836    2.7323   25.7669 H   0  0  0  0  0  0  0  0  0  0  0  0
    5.9331    0.1093   25.2448 H   0  0  0  0  0  0  0  0  0  0  0  0
    7.1834    1.3338   25.0664 H   0  0  0  0  0  0  0  0  0  0  0  0
    6.3090    1.9474   22.8028 H   0  0  0  0  0  0  0  0  0  0  0  0
    5.0243    0.7451   22.9123 H   0  0  0  0  0  0  0  0  0  0  0  0
    8.3244    0.1833   22.9979 N   0  0  0  0  0  0  0  0  0  0  0  0
   11.1959   -1.7401   21.5656 C   0  0  0  0  0  0  0  0  0  0  0  0
   12.5889   -1.6543   21.5574 C   0  0  0  0  0  0  0  0  0  0  0  0
   13.2245   -0.7302   22.3852 C   0  0  0  0  0  0  0  0  0  0  0  0
   14.5699   -0.6846   22.3652 F   0  0  0  0  0  0  0  0  0  0  0  0
   13.1996   -2.2859   20.9238 H   0  0  0  0  0  0  0  0  0  0  0  0
   10.6783   -2.4385   20.9159 H   0  0  0  0  0  0  0  0  0  0  0  0
   10.5510    0.6891   23.8511 H   0  0  0  0  0  0  0  0  0  0  0  0
   12.6322    2.1337   24.0175 H   0  0  0  0  0  0  0  0  0  0  0  0
   13.1788    0.8894   25.1393 H   0  0  0  0  0  0  0  0  0  0  0  0
   14.2056    1.3736   23.7691 H   0  0  0  0  0  0  0  0  0  0  0  0
  1  2  1  0
  2  3  2  0
  3  4  1  0
  4  5  1  0
  5  6  2  0
  6  7  1  0
  7  8  1  0
  8  9  1  0
  9 10  2  0
 10 11  1  0
 11 12  2  0
 12 13  1  0
 13 14  2  0
 14 15  1  0
 12 16  1  0
 11 17  1  0
 10 18  1  0
  8 19  1  0
  8 20  1  0
  7 21  1  0
 21 22  1  0
 22 23  1  0
 23 24  1  0
 24 25  2  0
 25 26  1  0
 26 27  2  0
 27 28  1  0
 28 29  2  0
 28 30  1  0
 27 31  1  0
 26 32  1  0
 23 33  1  0
 23 34  1  0
 22 35  1  0
 22 36  1  0
 21 37  2  0
  4 38  2  0
 38 39  1  0
 39 40  2  0
 40 41  1  0
 39 42  1  0
 38 43  1  0
  3 44  1  0
  1 45  1  0
  1 46  1  0
  1 47  1  0
 40  2  1  0
 37  5  1  0
 14  9  1  0
 29 24  1  0
M  END
>  <cnnaffinity>  (1) 
-6.40202

>  <filename>  (1) 
Cc1cc(-c2nc(CCc3ncccn3)n(Cc3cccnc3)n2)ccc1F

$$$$
