
     RDKit          3D

 48 51  0  0  0  0  0  0  0  0999 V2000
   10.6260    3.3066   23.7566 C   0  0  0  0  0  0  0  0  0  0  0  0
    9.5564    4.2122   23.1848 C   0  0  0  0  0  0  0  0  0  0  0  0
    9.4862    5.5485   23.5926 C   0  0  0  0  0  0  0  0  0  0  0  0
    8.4879    6.3816   23.0776 C   0  0  0  0  0  0  0  0  0  0  0  0
    7.5742    5.8407   22.1765 C   0  0  0  0  0  0  0  0  0  0  0  0
    7.6075    4.5623   21.7873 N   0  0  0  0  0  0  0  0  0  0  0  0
    8.5788    3.7675   22.2546 C   0  0  0  0  0  0  0  0  0  0  0  0
    8.5225    2.3335   21.7691 C   0  0  0  0  0  0  0  0  0  0  0  0
    7.6058    1.4333   22.6480 C   0  0  0  0  0  0  0  0  0  0  0  0
    7.6222   -0.0229   22.3037 C   0  0  0  0  0  0  0  0  0  0  0  0
    8.0745   -0.9930   23.0817 N   0  0  0  0  0  0  0  0  0  0  0  0
    8.0592   -2.0696   22.2618 C   0  0  0  0  0  0  0  0  0  0  0  0
    8.5007   -3.4397   22.6168 C   0  0  0  0  0  0  0  0  0  0  0  0
    8.2380   -4.1736   23.9048 C   0  0  0  0  0  0  0  0  0  0  0  0
    7.4819   -4.5578   22.6539 C   0  0  0  0  0  0  0  0  0  0  0  0
    6.0181   -4.1493   22.5564 C   0  0  0  0  0  0  0  0  0  0  0  0
    5.8551   -3.1948   23.0730 H   0  0  0  0  0  0  0  0  0  0  0  0
    5.3436   -4.8953   22.9989 H   0  0  0  0  0  0  0  0  0  0  0  0
    5.7466   -3.9780   21.5063 H   0  0  0  0  0  0  0  0  0  0  0  0
    7.8701   -5.8523   21.9584 C   0  0  0  0  0  0  0  0  0  0  0  0
    7.3135   -6.7029   22.3660 H   0  0  0  0  0  0  0  0  0  0  0  0
    7.6865   -5.8198   20.8755 H   0  0  0  0  0  0  0  0  0  0  0  0
    8.9319   -6.0719   22.1151 H   0  0  0  0  0  0  0  0  0  0  0  0
    7.7199   -3.6807   24.7265 H   0  0  0  0  0  0  0  0  0  0  0  0
    9.0032   -4.8791   24.2290 H   0  0  0  0  0  0  0  0  0  0  0  0
    9.4541   -3.6467   22.1523 H   0  0  0  0  0  0  0  0  0  0  0  0
    7.6442   -1.8348   21.0301 N   0  0  0  0  0  0  0  0  0  0  0  0
    7.3111   -0.5200   21.0721 N   0  0  0  0  0  0  0  0  0  0  0  0
    6.6374    0.0620   19.9614 C   0  0  0  0  0  0  0  0  0  0  0  0
    5.4443    0.7795   20.1083 C   0  0  0  0  0  0  0  0  0  0  0  0
    4.9011    1.3792   18.9669 C   0  0  0  0  0  0  0  0  0  0  0  0
    5.5517    1.2282   17.7386 C   0  0  0  0  0  0  0  0  0  0  0  0
    6.6575    0.4746   17.5848 N   0  0  0  0  0  0  0  0  0  0  0  0
    7.1671   -0.1126   18.6724 C   0  0  0  0  0  0  0  0  0  0  0  0
    8.0407   -0.7475   18.5356 H   0  0  0  0  0  0  0  0  0  0  0  0
    5.1675    1.7113   16.8411 H   0  0  0  0  0  0  0  0  0  0  0  0
    3.9883    1.9621   19.0262 H   0  0  0  0  0  0  0  0  0  0  0  0
    4.9442    0.8274   21.0771 H   0  0  0  0  0  0  0  0  0  0  0  0
    7.9049    1.4891   23.7001 H   0  0  0  0  0  0  0  0  0  0  0  0
    6.5801    1.8091   22.5916 H   0  0  0  0  0  0  0  0  0  0  0  0
    8.1522    2.3433   20.7395 H   0  0  0  0  0  0  0  0  0  0  0  0
    9.5328    1.9136   21.7440 H   0  0  0  0  0  0  0  0  0  0  0  0
    6.7743    6.4445   21.7510 H   0  0  0  0  0  0  0  0  0  0  0  0
    8.3965    7.4182   23.3737 H   0  0  0  0  0  0  0  0  0  0  0  0
   10.2168    5.9246   24.3101 H   0  0  0  0  0  0  0  0  0  0  0  0
   11.1308    2.7166   22.9841 H   0  0  0  0  0  0  0  0  0  0  0  0
   11.3949    3.8951   24.2638 H   0  0  0  0  0  0  0  0  0  0  0  0
   10.2070    2.6039   24.4879 H   0  0  0  0  0  0  0  0  0  0  0  0
  1  2  1  0
  2  3  2  0
  3  4  1  0
  4  5  2  0
  5  6  1  0
  6  7  2  0
  7  8  1  0
  8  9  1  0
  9 10  1  0
 10 11  2  0
 11 12  1  0
 12 13  1  0
 13 14  1  0
 14 15  1  0
 15 16  1  0
 16 17  1  0
 16 18  1  0
 16 19  1  0
 15 20  1  0
 20 21  1  0
 20 22  1  0
 20 23  1  0
 14 24  1  0
 14 25  1  0
 13 26  1  0
 12 27  2  0
 27 28  1  0
 28 29  1  0
 29 30  2  0
 30 31  1  0
 31 32  2  0
 32 33  1  0
 33 34  2  0
 34 35  1  0
 32 36  1  0
 31 37  1  0
 30 38  1  0
  9 39  1  0
  9 40  1  0
  8 41  1  0
  8 42  1  0
  5 43  1  0
  4 44  1  0
  3 45  1  0
  1 46  1  0
  1 47  1  0
  1 48  1  0
  7  2  1  0
 28 10  1  0
 34 29  1  0
 15 13  1  0
M  END
>  <cnnaffinity>  (1) 
-6.29195

>  <filename>  (1) 
Cc1cccnc1CCc1nc(C2CC2(C)C)nn1-c1cccnc1

$$$$
