
     RDKit          3D

 47 50  0  0  0  0  0  0  0  0999 V2000
   12.5195    1.8668   24.3408 C   0  0  0  0  0  0  0  0  0  0  0  0
   11.3663    1.9322   23.3984 C   0  0  0  0  0  0  0  0  0  0  0  0
   11.1550    1.0927   22.3615 C   0  0  0  0  0  0  0  0  0  0  0  0
    9.9042    1.2569   21.7037 C   0  0  0  0  0  0  0  0  0  0  0  0
    9.4949    0.2153   20.6937 C   0  0  0  0  0  0  0  0  0  0  0  0
    8.4703   -0.7166   21.2464 C   0  0  0  0  0  0  0  0  0  0  0  0
    8.7054   -1.5175   22.2643 N   0  0  0  0  0  0  0  0  0  0  0  0
    7.5034   -2.1154   22.4824 C   0  0  0  0  0  0  0  0  0  0  0  0
    7.3363   -3.0936   23.6156 C   0  0  0  0  0  0  0  0  0  0  0  0
    8.4434   -4.1753   23.6326 C   0  0  0  0  0  0  0  0  0  0  0  0
    8.2272   -5.1829   24.7828 C   0  0  0  0  0  0  0  0  0  0  0  0
    7.3911   -4.6954   25.8214 O   0  0  0  0  0  0  0  0  0  0  0  0
    7.5996   -3.3432   26.1773 C   0  0  0  0  0  0  0  0  0  0  0  0
    7.3523   -2.3712   24.9953 C   0  0  0  0  0  0  0  0  0  0  0  0
    6.4030   -1.8426   25.1357 H   0  0  0  0  0  0  0  0  0  0  0  0
    8.1475   -1.6147   25.0016 H   0  0  0  0  0  0  0  0  0  0  0  0
    8.6176   -3.2039   26.5827 H   0  0  0  0  0  0  0  0  0  0  0  0
    6.8970   -3.1414   26.9927 H   0  0  0  0  0  0  0  0  0  0  0  0
    7.7138   -6.0771   24.4123 H   0  0  0  0  0  0  0  0  0  0  0  0
    9.2008   -5.5069   25.1910 H   0  0  0  0  0  0  0  0  0  0  0  0
    9.4232   -3.6885   23.7432 H   0  0  0  0  0  0  0  0  0  0  0  0
    8.4707   -4.7185   22.6834 H   0  0  0  0  0  0  0  0  0  0  0  0
    6.3604   -3.5739   23.4790 H   0  0  0  0  0  0  0  0  0  0  0  0
    6.5425   -1.7324   21.6611 N   0  0  0  0  0  0  0  0  0  0  0  0
    7.1772   -0.8484   20.8409 N   0  0  0  0  0  0  0  0  0  0  0  0
    6.4947   -0.1462   19.8106 C   0  0  0  0  0  0  0  0  0  0  0  0
    5.3218    0.5635   20.0815 C   0  0  0  0  0  0  0  0  0  0  0  0
    4.7582    1.3174   19.0457 C   0  0  0  0  0  0  0  0  0  0  0  0
    5.3731    1.3282   17.7873 C   0  0  0  0  0  0  0  0  0  0  0  0
    6.4823    0.6249   17.5102 N   0  0  0  0  0  0  0  0  0  0  0  0
    7.0193   -0.0892   18.5061 C   0  0  0  0  0  0  0  0  0  0  0  0
    7.9302   -0.6318   18.2685 H   0  0  0  0  0  0  0  0  0  0  0  0
    4.9573    1.9149   16.9701 H   0  0  0  0  0  0  0  0  0  0  0  0
    3.8620    1.9086   19.2050 H   0  0  0  0  0  0  0  0  0  0  0  0
    4.8806    0.5339   21.0800 H   0  0  0  0  0  0  0  0  0  0  0  0
   10.3647   -0.4113   20.4775 H   0  0  0  0  0  0  0  0  0  0  0  0
    9.1915    0.6646   19.7483 H   0  0  0  0  0  0  0  0  0  0  0  0
    9.1585    2.2660   22.2399 C   0  0  0  0  0  0  0  0  0  0  0  0
    7.7408    2.6782   21.9514 C   0  0  0  0  0  0  0  0  0  0  0  0
    7.5130    2.5554   20.8847 H   0  0  0  0  0  0  0  0  0  0  0  0
    7.0403    2.0140   22.4813 H   0  0  0  0  0  0  0  0  0  0  0  0
    7.5435    3.7096   22.2678 H   0  0  0  0  0  0  0  0  0  0  0  0
   10.0285    3.0179   23.5492 S   0  0  0  0  0  0  0  0  0  0  0  0
   11.8605    0.3212   22.0796 H   0  0  0  0  0  0  0  0  0  0  0  0
   13.3478    2.4966   23.9965 H   0  0  0  0  0  0  0  0  0  0  0  0
   12.1980    2.1667   25.3365 H   0  0  0  0  0  0  0  0  0  0  0  0
   12.9114    0.8463   24.3974 H   0  0  0  0  0  0  0  0  0  0  0  0
  1  2  1  0
  2  3  2  0
  3  4  1  0
  4  5  1  0
  5  6  1  0
  6  7  2  0
  7  8  1  0
  8  9  1  0
  9 10  1  0
 10 11  1  0
 11 12  1  0
 12 13  1  0
 13 14  1  0
 14 15  1  0
 14 16  1  0
 13 17  1  0
 13 18  1  0
 11 19  1  0
 11 20  1  0
 10 21  1  0
 10 22  1  0
  9 23  1  0
  8 24  2  0
 24 25  1  0
 25 26  1  0
 26 27  2  0
 27 28  1  0
 28 29  2  0
 29 30  1  0
 30 31  2  0
 31 32  1  0
 29 33  1  0
 28 34  1  0
 27 35  1  0
  5 36  1  0
  5 37  1  0
  4 38  2  0
 38 39  1  0
 39 40  1  0
 39 41  1  0
 39 42  1  0
 38 43  1  0
  3 44  1  0
  1 45  1  0
  1 46  1  0
  1 47  1  0
 43  2  1  0
 25  6  1  0
 31 26  1  0
 14  9  1  0
M  END
>  <cnnaffinity>  (1) 
-6.24671

>  <filename>  (1) 
Cc1cc(Cc2nc(C3CCOCC3)nn2-c2cccnc2)c(C)s1

$$$$
