
     RDKit          3D

 44 46  0  0  0  0  0  0  0  0999 V2000
    6.9054    1.7694   23.7505 C   0  0  0  0  0  0  0  0  0  0  0  0
    8.3618    1.7241   24.1546 C   0  0  0  0  0  0  0  0  0  0  0  0
    8.7273    1.4683   25.4793 C   0  0  0  0  0  0  0  0  0  0  0  0
   10.0773    1.3093   25.8122 C   0  0  0  0  0  0  0  0  0  0  0  0
   11.0311    1.5370   24.8274 C   0  0  0  0  0  0  0  0  0  0  0  0
   10.7142    1.8132   23.5621 N   0  0  0  0  0  0  0  0  0  0  0  0
    9.4216    1.8565   23.2179 C   0  0  0  0  0  0  0  0  0  0  0  0
    9.1878    1.9651   21.7262 C   0  0  0  0  0  0  0  0  0  0  0  0
    9.5083    0.6266   20.9881 C   0  0  0  0  0  0  0  0  0  0  0  0
    8.6203   -0.5086   21.3941 C   0  0  0  0  0  0  0  0  0  0  0  0
    8.8526   -1.3510   22.3829 N   0  0  0  0  0  0  0  0  0  0  0  0
    7.6498   -1.9679   22.5594 C   0  0  0  0  0  0  0  0  0  0  0  0
    7.3931   -2.9061   23.7089 C   0  0  0  0  0  0  0  0  0  0  0  0
    8.4960   -3.9787   23.8126 C   0  0  0  0  0  0  0  0  0  0  0  0
    8.2629   -4.6890   24.6146 H   0  0  0  0  0  0  0  0  0  0  0  0
    9.4688   -3.5197   24.0333 H   0  0  0  0  0  0  0  0  0  0  0  0
    8.6005   -4.5390   22.8767 H   0  0  0  0  0  0  0  0  0  0  0  0
    7.2571   -2.1198   25.0393 C   0  0  0  0  0  0  0  0  0  0  0  0
    6.4647   -1.3591   24.9900 H   0  0  0  0  0  0  0  0  0  0  0  0
    7.0202   -2.8003   25.8660 H   0  0  0  0  0  0  0  0  0  0  0  0
    8.1975   -1.6021   25.2813 H   0  0  0  0  0  0  0  0  0  0  0  0
    6.4302   -3.3831   23.4768 H   0  0  0  0  0  0  0  0  0  0  0  0
    6.7082   -1.5902   21.7152 N   0  0  0  0  0  0  0  0  0  0  0  0
    7.3448   -0.6730   20.9387 N   0  0  0  0  0  0  0  0  0  0  0  0
    6.6504   -0.0043   19.8906 C   0  0  0  0  0  0  0  0  0  0  0  0
    5.4367    0.6377   20.1496 C   0  0  0  0  0  0  0  0  0  0  0  0
    4.8057    1.3124   19.1004 C   0  0  0  0  0  0  0  0  0  0  0  0
    5.3957    1.2968   17.8318 C   0  0  0  0  0  0  0  0  0  0  0  0
    6.5469    0.6602   17.5691 N   0  0  0  0  0  0  0  0  0  0  0  0
    7.1582    0.0343   18.5804 C   0  0  0  0  0  0  0  0  0  0  0  0
    8.1031   -0.4550   18.3429 H   0  0  0  0  0  0  0  0  0  0  0  0
    4.9308    1.8074   16.9908 H   0  0  0  0  0  0  0  0  0  0  0  0
    3.8739    1.8462   19.2550 H   0  0  0  0  0  0  0  0  0  0  0  0
    5.0100    0.5906   21.1521 H   0  0  0  0  0  0  0  0  0  0  0  0
    9.4160    0.7719   19.9115 H   0  0  0  0  0  0  0  0  0  0  0  0
   10.5435    0.3239   21.1882 H   0  0  0  0  0  0  0  0  0  0  0  0
    8.1538    2.2774   21.5236 H   0  0  0  0  0  0  0  0  0  0  0  0
    9.8590    2.7492   21.3639 H   0  0  0  0  0  0  0  0  0  0  0  0
   12.0914    1.4826   25.0502 H   0  0  0  0  0  0  0  0  0  0  0  0
   10.4295    0.9192   26.7517 H   0  0  0  0  0  0  0  0  0  0  0  0
    7.9416    1.3781   26.2270 H   0  0  0  0  0  0  0  0  0  0  0  0
    6.6636    0.9878   23.0152 H   0  0  0  0  0  0  0  0  0  0  0  0
    6.6226    2.7344   23.3120 H   0  0  0  0  0  0  0  0  0  0  0  0
    6.2727    1.6015   24.6247 H   0  0  0  0  0  0  0  0  0  0  0  0
  1  2  1  0
  2  3  2  0
  3  4  1  0
  4  5  2  0
  5  6  1  0
  6  7  2  0
  7  8  1  0
  8  9  1  0
  9 10  1  0
 10 11  2  0
 11 12  1  0
 12 13  1  0
 13 14  1  0
 14 15  1  0
 14 16  1  0
 14 17  1  0
 13 18  1  0
 18 19  1  0
 18 20  1  0
 18 21  1  0
 13 22  1  0
 12 23  2  0
 23 24  1  0
 24 25  1  0
 25 26  2  0
 26 27  1  0
 27 28  2  0
 28 29  1  0
 29 30  2  0
 30 31  1  0
 28 32  1  0
 27 33  1  0
 26 34  1  0
  9 35  1  0
  9 36  1  0
  8 37  1  0
  8 38  1  0
  5 39  1  0
  4 40  1  0
  3 41  1  0
  1 42  1  0
  1 43  1  0
  1 44  1  0
  7  2  1  0
 24 10  1  0
 30 25  1  0
M  END
>  <cnnaffinity>  (1) 
-5.75663

>  <filename>  (1) 
Cc1cccnc1CCc1nc(C(C)C)nn1-c1cccnc1

$$$$
