
     RDKit          3D

 46 49  0  0  0  0  0  0  0  0999 V2000
    9.3622    7.0105   23.6706 C   0  0  0  0  0  0  0  0  0  0  0  0
    8.7486    5.6704   23.4577 C   0  0  0  0  0  0  0  0  0  0  0  0
    9.4664    4.5623   23.3388 N   0  0  0  0  0  0  0  0  0  0  0  0
    8.5623    3.5831   23.1160 N   0  0  0  0  0  0  0  0  0  0  0  0
    8.9989    2.2408   22.7741 C   0  0  0  0  0  0  0  0  0  0  0  0
    9.0934    1.9997   21.2618 C   0  0  0  0  0  0  0  0  0  0  0  0
    9.5526    0.5723   20.9190 C   0  0  0  0  0  0  0  0  0  0  0  0
    8.6369   -0.4936   21.4174 C   0  0  0  0  0  0  0  0  0  0  0  0
    8.8668   -1.3209   22.4153 N   0  0  0  0  0  0  0  0  0  0  0  0
    7.6755   -1.9627   22.5564 C   0  0  0  0  0  0  0  0  0  0  0  0
    7.4337   -2.9231   23.6620 C   0  0  0  0  0  0  0  0  0  0  0  0
    7.6877   -2.4951   25.0867 C   0  0  0  0  0  0  0  0  0  0  0  0
    6.2812   -2.6908   24.6027 C   0  0  0  0  0  0  0  0  0  0  0  0
    5.7123   -3.5473   24.9541 H   0  0  0  0  0  0  0  0  0  0  0  0
    5.6825   -1.8036   24.4128 H   0  0  0  0  0  0  0  0  0  0  0  0
    8.1067   -3.2146   25.7860 H   0  0  0  0  0  0  0  0  0  0  0  0
    8.0427   -1.4762   25.2345 H   0  0  0  0  0  0  0  0  0  0  0  0
    7.6830   -3.9474   23.4002 H   0  0  0  0  0  0  0  0  0  0  0  0
    6.7436   -1.6096   21.6927 N   0  0  0  0  0  0  0  0  0  0  0  0
    7.3660   -0.6631   20.9438 N   0  0  0  0  0  0  0  0  0  0  0  0
    6.6647    0.0106   19.9071 C   0  0  0  0  0  0  0  0  0  0  0  0
    5.4454    0.6466   20.1682 C   0  0  0  0  0  0  0  0  0  0  0  0
    4.8147    1.3123   19.1124 C   0  0  0  0  0  0  0  0  0  0  0  0
    5.4004    1.2974   17.8405 C   0  0  0  0  0  0  0  0  0  0  0  0
    6.5599    0.6748   17.5788 N   0  0  0  0  0  0  0  0  0  0  0  0
    7.1701    0.0554   18.5963 C   0  0  0  0  0  0  0  0  0  0  0  0
    8.1129   -0.4366   18.3697 H   0  0  0  0  0  0  0  0  0  0  0  0
    4.9186    1.7857   16.9970 H   0  0  0  0  0  0  0  0  0  0  0  0
    3.8788    1.8373   19.2586 H   0  0  0  0  0  0  0  0  0  0  0  0
    5.0201    0.6118   21.1738 H   0  0  0  0  0  0  0  0  0  0  0  0
   10.5427    0.3685   21.3378 H   0  0  0  0  0  0  0  0  0  0  0  0
    9.6323    0.4746   19.8336 H   0  0  0  0  0  0  0  0  0  0  0  0
    9.8060    2.7187   20.8492 H   0  0  0  0  0  0  0  0  0  0  0  0
    8.1200    2.1908   20.7884 H   0  0  0  0  0  0  0  0  0  0  0  0
    8.2960    1.5317   23.2197 H   0  0  0  0  0  0  0  0  0  0  0  0
    9.9636    2.0734   23.2569 H   0  0  0  0  0  0  0  0  0  0  0  0
    7.2895    4.0604   23.0706 C   0  0  0  0  0  0  0  0  0  0  0  0
    6.0719    3.2611   22.7393 C   0  0  0  0  0  0  0  0  0  0  0  0
    6.0724    2.2696   23.2041 H   0  0  0  0  0  0  0  0  0  0  0  0
    5.1912    3.8058   23.0886 H   0  0  0  0  0  0  0  0  0  0  0  0
    5.9671    3.1309   21.6545 H   0  0  0  0  0  0  0  0  0  0  0  0
    7.3767    5.4097   23.3047 C   0  0  0  0  0  0  0  0  0  0  0  0
    6.5613    6.1199   23.3428 H   0  0  0  0  0  0  0  0  0  0  0  0
    9.4965    7.5105   22.7081 H   0  0  0  0  0  0  0  0  0  0  0  0
    8.6982    7.6399   24.2687 H   0  0  0  0  0  0  0  0  0  0  0  0
   10.3311    6.9379   24.1653 H   0  0  0  0  0  0  0  0  0  0  0  0
  1  2  1  0
  2  3  2  0
  3  4  1  0
  4  5  1  0
  5  6  1  0
  6  7  1  0
  7  8  1  0
  8  9  2  0
  9 10  1  0
 10 11  1  0
 11 12  1  0
 12 13  1  0
 13 14  1  0
 13 15  1  0
 12 16  1  0
 12 17  1  0
 11 18  1  0
 10 19  2  0
 19 20  1  0
 20 21  1  0
 21 22  2  0
 22 23  1  0
 23 24  2  0
 24 25  1  0
 25 26  2  0
 26 27  1  0
 24 28  1  0
 23 29  1  0
 22 30  1  0
  7 31  1  0
  7 32  1  0
  6 33  1  0
  6 34  1  0
  5 35  1  0
  5 36  1  0
  4 37  1  0
 37 38  1  0
 38 39  1  0
 38 40  1  0
 38 41  1  0
 37 42  2  0
 42 43  1  0
  1 44  1  0
  1 45  1  0
  1 46  1  0
 42  2  1  0
 20  8  1  0
 26 21  1  0
 13 11  1  0
M  END
>  <cnnaffinity>  (1) 
-5.95229

>  <filename>  (1) 
Cc1cc(C)n(CCCc2nc(C3CC3)nn2-c2cccnc2)n1

$$$$
