
     RDKit          3D

 44 47  0  0  0  0  0  0  0  0999 V2000
    3.8378    1.1669   26.5801 C   0  0  0  0  0  0  0  0  0  0  0  0
    5.1250    1.2294   25.8192 C   0  0  0  0  0  0  0  0  0  0  0  0
    6.3915    1.1210   26.3008 C   0  0  0  0  0  0  0  0  0  0  0  0
    7.4067    1.2241   25.2949 C   0  0  0  0  0  0  0  0  0  0  0  0
    8.8765    1.0777   25.5538 C   0  0  0  0  0  0  0  0  0  0  0  0
    9.4222    1.9847   25.2676 H   0  0  0  0  0  0  0  0  0  0  0  0
    9.2686    0.2426   24.9607 H   0  0  0  0  0  0  0  0  0  0  0  0
    9.0841    0.8818   26.6085 H   0  0  0  0  0  0  0  0  0  0  0  0
    6.8764    1.4100   24.0508 C   0  0  0  0  0  0  0  0  0  0  0  0
    7.5908    1.3405   22.7224 C   0  0  0  0  0  0  0  0  0  0  0  0
    7.6542   -0.0773   22.2109 C   0  0  0  0  0  0  0  0  0  0  0  0
    8.1839   -1.0791   22.8924 N   0  0  0  0  0  0  0  0  0  0  0  0
    8.1216   -2.1176   22.0284 C   0  0  0  0  0  0  0  0  0  0  0  0
    8.6627   -3.4817   22.3010 C   0  0  0  0  0  0  0  0  0  0  0  0
    7.8650   -4.6574   21.6768 C   0  0  0  0  0  0  0  0  0  0  0  0
    8.2543   -5.8516   22.5601 C   0  0  0  0  0  0  0  0  0  0  0  0
    8.8628   -5.3226   23.7271 O   0  0  0  0  0  0  0  0  0  0  0  0
    8.7352   -3.9124   23.7663 C   0  0  0  0  0  0  0  0  0  0  0  0
    9.6113   -3.5167   24.2886 H   0  0  0  0  0  0  0  0  0  0  0  0
    7.8346   -3.6231   24.3277 H   0  0  0  0  0  0  0  0  0  0  0  0
    8.9900   -6.5049   22.0788 H   0  0  0  0  0  0  0  0  0  0  0  0
    7.3798   -6.4664   22.8241 H   0  0  0  0  0  0  0  0  0  0  0  0
    8.1000   -4.8305   20.6245 H   0  0  0  0  0  0  0  0  0  0  0  0
    6.7829   -4.4743   21.7445 H   0  0  0  0  0  0  0  0  0  0  0  0
    9.6876   -3.4244   21.9239 H   0  0  0  0  0  0  0  0  0  0  0  0
    7.6131   -1.8234   20.8486 N   0  0  0  0  0  0  0  0  0  0  0  0
    7.2853   -0.5153   20.9721 N   0  0  0  0  0  0  0  0  0  0  0  0
    6.5839    0.1054   19.9050 C   0  0  0  0  0  0  0  0  0  0  0  0
    5.3858    0.7949   20.1162 C   0  0  0  0  0  0  0  0  0  0  0  0
    4.7817    1.3997   19.0087 C   0  0  0  0  0  0  0  0  0  0  0  0
    5.4076    1.3169   17.7602 C   0  0  0  0  0  0  0  0  0  0  0  0
    6.5313    0.6078   17.5477 N   0  0  0  0  0  0  0  0  0  0  0  0
    7.0816   -0.0122   18.5946 C   0  0  0  0  0  0  0  0  0  0  0  0
    7.9542   -0.6303   18.3951 H   0  0  0  0  0  0  0  0  0  0  0  0
    4.9765    1.8123   16.8936 H   0  0  0  0  0  0  0  0  0  0  0  0
    3.8378    1.9243   19.1024 H   0  0  0  0  0  0  0  0  0  0  0  0
    4.9334    0.8424   21.1096 H   0  0  0  0  0  0  0  0  0  0  0  0
    7.1217    1.9975   21.9844 H   0  0  0  0  0  0  0  0  0  0  0  0
    8.6323    1.6831   22.8432 H   0  0  0  0  0  0  0  0  0  0  0  0
    5.1484    1.4798   24.1046 S   0  0  0  0  0  0  0  0  0  0  0  0
    6.6185    0.9354   27.3467 H   0  0  0  0  0  0  0  0  0  0  0  0
    3.9808    0.6275   27.5230 H   0  0  0  0  0  0  0  0  0  0  0  0
    3.0554    0.6674   25.9999 H   0  0  0  0  0  0  0  0  0  0  0  0
    3.4858    2.1769   26.8305 H   0  0  0  0  0  0  0  0  0  0  0  0
  1  2  1  0
  2  3  2  0
  3  4  1  0
  4  5  1  0
  5  6  1  0
  5  7  1  0
  5  8  1  0
  4  9  2  0
  9 10  1  0
 10 11  1  0
 11 12  2  0
 12 13  1  0
 13 14  1  0
 14 15  1  0
 15 16  1  0
 16 17  1  0
 17 18  1  0
 18 19  1  0
 18 20  1  0
 16 21  1  0
 16 22  1  0
 15 23  1  0
 15 24  1  0
 14 25  1  0
 13 26  2  0
 26 27  1  0
 27 28  1  0
 28 29  2  0
 29 30  1  0
 30 31  2  0
 31 32  1  0
 32 33  2  0
 33 34  1  0
 31 35  1  0
 30 36  1  0
 29 37  1  0
 10 38  1  0
 10 39  1  0
  9 40  1  0
  3 41  1  0
  1 42  1  0
  1 43  1  0
  1 44  1  0
 40  2  1  0
 27 11  1  0
 33 28  1  0
 18 14  1  0
M  END
>  <cnnaffinity>  (1) 
-5.9268

>  <filename>  (1) 
Cc1cc(C)c(Cc2nc(C3CCOC3)nn2-c2cccnc2)s1

$$$$
