
     RDKit          3D

 44 47  0  0  0  0  0  0  0  0999 V2000
   14.0472   -0.1321   23.1487 C   0  0  0  0  0  0  0  0  0  0  0  0
   12.7351    0.5671   22.9223 C   0  0  0  0  0  0  0  0  0  0  0  0
   12.3838    1.6977   23.6690 C   0  0  0  0  0  0  0  0  0  0  0  0
   11.1791    2.3703   23.4397 C   0  0  0  0  0  0  0  0  0  0  0  0
   10.3156    1.9102   22.4433 C   0  0  0  0  0  0  0  0  0  0  0  0
   10.6579    0.7916   21.6735 C   0  0  0  0  0  0  0  0  0  0  0  0
    9.6629    0.2381   20.6846 C   0  0  0  0  0  0  0  0  0  0  0  0
    8.6400   -0.6126   21.3352 C   0  0  0  0  0  0  0  0  0  0  0  0
    8.8701   -1.4898   22.2898 N   0  0  0  0  0  0  0  0  0  0  0  0
    7.6443   -2.0252   22.5065 C   0  0  0  0  0  0  0  0  0  0  0  0
    7.4014   -2.9398   23.6738 C   0  0  0  0  0  0  0  0  0  0  0  0
    6.9367   -2.1869   24.9513 C   0  0  0  0  0  0  0  0  0  0  0  0
    6.0076   -3.2060   25.6206 C   0  0  0  0  0  0  0  0  0  0  0  0
    5.4646   -4.0275   24.4422 C   0  0  0  0  0  0  0  0  0  0  0  0
    6.4066   -3.9075   23.3878 O   0  0  0  0  0  0  0  0  0  0  0  0
    4.4879   -3.6643   24.0891 H   0  0  0  0  0  0  0  0  0  0  0  0
    5.3733   -5.0960   24.6683 H   0  0  0  0  0  0  0  0  0  0  0  0
    5.1985   -2.7336   26.1832 H   0  0  0  0  0  0  0  0  0  0  0  0
    6.5618   -3.8468   26.3153 H   0  0  0  0  0  0  0  0  0  0  0  0
    7.7826   -1.8816   25.5773 H   0  0  0  0  0  0  0  0  0  0  0  0
    6.3935   -1.2735   24.6764 H   0  0  0  0  0  0  0  0  0  0  0  0
    8.3588   -3.4472   23.8501 H   0  0  0  0  0  0  0  0  0  0  0  0
    6.6818   -1.5533   21.7349 N   0  0  0  0  0  0  0  0  0  0  0  0
    7.3355   -0.6780   20.9370 N   0  0  0  0  0  0  0  0  0  0  0  0
    6.6505    0.0081   19.8986 C   0  0  0  0  0  0  0  0  0  0  0  0
    5.4354    0.6441   20.1651 C   0  0  0  0  0  0  0  0  0  0  0  0
    4.8120    1.3111   19.1085 C   0  0  0  0  0  0  0  0  0  0  0  0
    5.3995    1.2964   17.8356 C   0  0  0  0  0  0  0  0  0  0  0  0
    6.5561    0.6703   17.5726 N   0  0  0  0  0  0  0  0  0  0  0  0
    7.1638    0.0507   18.5891 C   0  0  0  0  0  0  0  0  0  0  0  0
    8.1114   -0.4294   18.3593 H   0  0  0  0  0  0  0  0  0  0  0  0
    4.9230    1.7874   16.9917 H   0  0  0  0  0  0  0  0  0  0  0  0
    3.8808    1.8399   19.2588 H   0  0  0  0  0  0  0  0  0  0  0  0
    5.0184    0.6055   21.1756 H   0  0  0  0  0  0  0  0  0  0  0  0
   10.1182   -0.4338   19.9501 H   0  0  0  0  0  0  0  0  0  0  0  0
    9.1761    1.0595   20.1566 H   0  0  0  0  0  0  0  0  0  0  0  0
   11.8525    0.1187   21.9319 C   0  0  0  0  0  0  0  0  0  0  0  0
   12.0914   -0.7833   21.3681 H   0  0  0  0  0  0  0  0  0  0  0  0
    9.3589    2.4015   22.2699 H   0  0  0  0  0  0  0  0  0  0  0  0
   10.9211    3.2496   24.0239 H   0  0  0  0  0  0  0  0  0  0  0  0
   13.0769    2.0468   24.4261 H   0  0  0  0  0  0  0  0  0  0  0  0
   14.8286    0.2689   22.4997 H   0  0  0  0  0  0  0  0  0  0  0  0
   13.9795   -1.1988   22.9168 H   0  0  0  0  0  0  0  0  0  0  0  0
   14.3940    0.0019   24.1775 H   0  0  0  0  0  0  0  0  0  0  0  0
  1  2  1  0
  2  3  2  0
  3  4  1  0
  4  5  2  0
  5  6  1  0
  6  7  1  0
  7  8  1  0
  8  9  2  0
  9 10  1  0
 10 11  1  0
 11 12  1  0
 12 13  1  0
 13 14  1  0
 14 15  1  0
 14 16  1  0
 14 17  1  0
 13 18  1  0
 13 19  1  0
 12 20  1  0
 12 21  1  0
 11 22  1  0
 10 23  2  0
 23 24  1  0
 24 25  1  0
 25 26  2  0
 26 27  1  0
 27 28  2  0
 28 29  1  0
 29 30  2  0
 30 31  1  0
 28 32  1  0
 27 33  1  0
 26 34  1  0
  7 35  1  0
  7 36  1  0
  6 37  2  0
 37 38  1  0
  5 39  1  0
  4 40  1  0
  3 41  1  0
  1 42  1  0
  1 43  1  0
  1 44  1  0
 37  2  1  0
 24  8  1  0
 30 25  1  0
 15 11  1  0
M  END
>  <cnnaffinity>  (1) 
-6.22546

>  <filename>  (1) 
Cc1cccc(Cc2nc(C3CCCO3)nn2-c2cccnc2)c1

$$$$
