
     RDKit          3D

 43 46  0  0  0  0  0  0  0  0999 V2000
   12.6324    1.2731   23.3766 C   0  0  0  0  0  0  0  0  0  0  0  0
   11.3110    2.0204   23.3864 C   0  0  0  0  0  0  0  0  0  0  0  0
   11.0575    3.0328   24.3141 C   0  0  0  0  0  0  0  0  0  0  0  0
    9.7693    3.5589   24.5014 C   0  0  0  0  0  0  0  0  0  0  0  0
    8.7354    3.1372   23.6685 C   0  0  0  0  0  0  0  0  0  0  0  0
    8.9836    2.2204   22.6407 C   0  0  0  0  0  0  0  0  0  0  0  0
   10.2620    1.6629   22.5016 C   0  0  0  0  0  0  0  0  0  0  0  0
   10.5977    0.7408   21.5436 O   0  0  0  0  0  0  0  0  0  0  0  0
    9.6215    0.1658   20.7025 C   0  0  0  0  0  0  0  0  0  0  0  0
    8.5818   -0.6683   21.3911 C   0  0  0  0  0  0  0  0  0  0  0  0
    8.7492   -1.4743   22.4109 N   0  0  0  0  0  0  0  0  0  0  0  0
    7.5141   -2.0141   22.5832 C   0  0  0  0  0  0  0  0  0  0  0  0
    7.2438   -2.9787   23.6398 C   0  0  0  0  0  0  0  0  0  0  0  0
    5.9668   -3.5130   23.8874 C   0  0  0  0  0  0  0  0  0  0  0  0
    5.8653   -4.4024   24.9449 C   0  0  0  0  0  0  0  0  0  0  0  0
    4.6791   -4.9460   25.2441 F   0  0  0  0  0  0  0  0  0  0  0  0
    6.9940   -4.7296   25.7127 C   0  0  0  0  0  0  0  0  0  0  0  0
    8.2036   -4.2122   25.4626 N   0  0  0  0  0  0  0  0  0  0  0  0
    8.3243   -3.3518   24.4472 C   0  0  0  0  0  0  0  0  0  0  0  0
    9.3052   -2.9256   24.2528 H   0  0  0  0  0  0  0  0  0  0  0  0
    6.8989   -5.4212   26.5463 H   0  0  0  0  0  0  0  0  0  0  0  0
    5.0951   -3.2261   23.2961 H   0  0  0  0  0  0  0  0  0  0  0  0
    6.6045   -1.6003   21.7282 N   0  0  0  0  0  0  0  0  0  0  0  0
    7.2973   -0.7485   20.9383 N   0  0  0  0  0  0  0  0  0  0  0  0
    6.6316   -0.0612   19.8939 C   0  0  0  0  0  0  0  0  0  0  0  0
    5.4263    0.5956   20.1587 C   0  0  0  0  0  0  0  0  0  0  0  0
    4.8205    1.2921   19.1133 C   0  0  0  0  0  0  0  0  0  0  0  0
    5.4199    1.2858   17.8466 C   0  0  0  0  0  0  0  0  0  0  0  0
    6.5499    0.6142   17.5752 N   0  0  0  0  0  0  0  0  0  0  0  0
    7.1356   -0.0434   18.5818 C   0  0  0  0  0  0  0  0  0  0  0  0
    8.0505   -0.5846   18.3467 H   0  0  0  0  0  0  0  0  0  0  0  0
    4.9724    1.8349   17.0213 H   0  0  0  0  0  0  0  0  0  0  0  0
    3.8976    1.8389   19.2720 H   0  0  0  0  0  0  0  0  0  0  0  0
    4.9941    0.5461   21.1595 H   0  0  0  0  0  0  0  0  0  0  0  0
    9.1394    0.9310   20.0854 H   0  0  0  0  0  0  0  0  0  0  0  0
   10.1721   -0.5141   20.0473 H   0  0  0  0  0  0  0  0  0  0  0  0
    8.1855    1.9367   21.9635 H   0  0  0  0  0  0  0  0  0  0  0  0
    7.7289    3.5188   23.8056 H   0  0  0  0  0  0  0  0  0  0  0  0
    9.5790    4.2621   25.3090 H   0  0  0  0  0  0  0  0  0  0  0  0
   11.8962    3.4259   24.8848 H   0  0  0  0  0  0  0  0  0  0  0  0
   13.1787    1.3997   22.4350 H   0  0  0  0  0  0  0  0  0  0  0  0
   13.2872    1.6152   24.1846 H   0  0  0  0  0  0  0  0  0  0  0  0
   12.4720    0.1953   23.5222 H   0  0  0  0  0  0  0  0  0  0  0  0
  1  2  1  0
  2  3  2  0
  3  4  1  0
  4  5  2  0
  5  6  1  0
  6  7  2  0
  7  8  1  0
  8  9  1  0
  9 10  1  0
 10 11  2  0
 11 12  1  0
 12 13  1  0
 13 14  2  0
 14 15  1  0
 15 16  1  0
 15 17  2  0
 17 18  1  0
 18 19  2  0
 19 20  1  0
 17 21  1  0
 14 22  1  0
 12 23  2  0
 23 24  1  0
 24 25  1  0
 25 26  2  0
 26 27  1  0
 27 28  2  0
 28 29  1  0
 29 30  2  0
 30 31  1  0
 28 32  1  0
 27 33  1  0
 26 34  1  0
  9 35  1  0
  9 36  1  0
  6 37  1  0
  5 38  1  0
  4 39  1  0
  3 40  1  0
  1 41  1  0
  1 42  1  0
  1 43  1  0
  7  2  1  0
 24 10  1  0
 30 25  1  0
 19 13  1  0
M  END
>  <cnnaffinity>  (1) 
-6.15681

>  <filename>  (1) 
Cc1ccccc1OCc1nc(-c2cncc(F)c2)nn1-c1cccnc1

$$$$
