
     RDKit          3D

 41 44  0  0  0  0  0  0  0  0999 V2000
    7.6486    6.8933   24.6698 C   0  0  0  0  0  0  0  0  0  0  0  0
    7.6114    5.3998   24.7857 C   0  0  0  0  0  0  0  0  0  0  0  0
    6.9716    4.6266   25.7038 C   0  0  0  0  0  0  0  0  0  0  0  0
    7.1989    3.2292   25.5168 C   0  0  0  0  0  0  0  0  0  0  0  0
    7.9910    2.9611   24.4421 C   0  0  0  0  0  0  0  0  0  0  0  0
    8.2775    1.6421   23.8133 C   0  0  0  0  0  0  0  0  0  0  0  0
    7.1776    1.2550   22.7908 C   0  0  0  0  0  0  0  0  0  0  0  0
    7.3880   -0.1250   22.2676 C   0  0  0  0  0  0  0  0  0  0  0  0
    7.9243   -1.0836   23.0001 N   0  0  0  0  0  0  0  0  0  0  0  0
    8.1737   -2.0574   22.1015 C   0  0  0  0  0  0  0  0  0  0  0  0
    8.9583   -3.2692   22.4535 C   0  0  0  0  0  0  0  0  0  0  0  0
   10.3381   -2.9565   23.1172 C   0  0  0  0  0  0  0  0  0  0  0  0
   10.0481   -4.1861   24.4302 S   0  0  0  0  0  0  0  0  0  0  0  0
    8.4287   -4.1911   23.5904 C   0  0  0  0  0  0  0  0  0  0  0  0
    7.6476   -3.7554   24.2210 H   0  0  0  0  0  0  0  0  0  0  0  0
    8.1202   -5.1948   23.2747 H   0  0  0  0  0  0  0  0  0  0  0  0
   10.3952   -1.9418   23.5316 H   0  0  0  0  0  0  0  0  0  0  0  0
   11.2393   -3.1378   22.5226 H   0  0  0  0  0  0  0  0  0  0  0  0
    9.0130   -3.8160   21.5152 H   0  0  0  0  0  0  0  0  0  0  0  0
    7.7796   -1.8021   20.8715 N   0  0  0  0  0  0  0  0  0  0  0  0
    7.2191   -0.5666   20.9824 N   0  0  0  0  0  0  0  0  0  0  0  0
    6.5636    0.0391   19.8760 C   0  0  0  0  0  0  0  0  0  0  0  0
    5.3556    0.7245   20.0566 C   0  0  0  0  0  0  0  0  0  0  0  0
    4.7925    1.3711   18.9535 C   0  0  0  0  0  0  0  0  0  0  0  0
    5.4485    1.3029   17.7211 C   0  0  0  0  0  0  0  0  0  0  0  0
    6.5809    0.6015   17.5295 N   0  0  0  0  0  0  0  0  0  0  0  0
    7.1118   -0.0348   18.5795 C   0  0  0  0  0  0  0  0  0  0  0  0
    8.0113   -0.6176   18.3874 H   0  0  0  0  0  0  0  0  0  0  0  0
    5.0363    1.8054   16.8478 H   0  0  0  0  0  0  0  0  0  0  0  0
    3.8603    1.9181   19.0463 H   0  0  0  0  0  0  0  0  0  0  0  0
    4.8693    0.7362   21.0319 H   0  0  0  0  0  0  0  0  0  0  0  0
    6.1956    1.2856   23.2816 H   0  0  0  0  0  0  0  0  0  0  0  0
    7.1455    1.9831   21.9705 H   0  0  0  0  0  0  0  0  0  0  0  0
    8.3431    0.8695   24.5902 H   0  0  0  0  0  0  0  0  0  0  0  0
    9.2578    1.6570   23.3207 H   0  0  0  0  0  0  0  0  0  0  0  0
    8.5108    4.4237   23.6787 S   0  0  0  0  0  0  0  0  0  0  0  0
    6.7798    2.4529   26.1507 H   0  0  0  0  0  0  0  0  0  0  0  0
    6.3365    5.0379   26.4816 H   0  0  0  0  0  0  0  0  0  0  0  0
    8.4925    7.2908   25.2456 H   0  0  0  0  0  0  0  0  0  0  0  0
    6.7360    7.3398   25.0753 H   0  0  0  0  0  0  0  0  0  0  0  0
    7.7700    7.2196   23.6339 H   0  0  0  0  0  0  0  0  0  0  0  0
  1  2  1  0
  2  3  2  0
  3  4  1  0
  4  5  2  0
  5  6  1  0
  6  7  1  0
  7  8  1  0
  8  9  2  0
  9 10  1  0
 10 11  1  0
 11 12  1  0
 12 13  1  0
 13 14  1  0
 14 15  1  0
 14 16  1  0
 12 17  1  0
 12 18  1  0
 11 19  1  0
 10 20  2  0
 20 21  1  0
 21 22  1  0
 22 23  2  0
 23 24  1  0
 24 25  2  0
 25 26  1  0
 26 27  2  0
 27 28  1  0
 25 29  1  0
 24 30  1  0
 23 31  1  0
  7 32  1  0
  7 33  1  0
  6 34  1  0
  6 35  1  0
  5 36  1  0
  4 37  1  0
  3 38  1  0
  1 39  1  0
  1 40  1  0
  1 41  1  0
 36  2  1  0
 21  8  1  0
 27 22  1  0
 14 11  1  0
M  END
>  <cnnaffinity>  (1) 
-5.97455

>  <filename>  (1) 
Cc1ccc(CCc2nc(C3CSC3)nn2-c2cccnc2)s1

$$$$
