
     RDKit          3D

 46 49  0  0  0  0  0  0  0  0999 V2000
   12.0617    2.2075   24.4848 C   0  0  0  0  0  0  0  0  0  0  0  0
   10.9783    2.0864   23.4763 C   0  0  0  0  0  0  0  0  0  0  0  0
   11.0315    1.1925   22.5084 N   0  0  0  0  0  0  0  0  0  0  0  0
    9.8594    1.2942   21.8484 N   0  0  0  0  0  0  0  0  0  0  0  0
    9.5698    0.2585   20.8655 C   0  0  0  0  0  0  0  0  0  0  0  0
    8.5149   -0.6800   21.3543 C   0  0  0  0  0  0  0  0  0  0  0  0
    8.6649   -1.4591   22.4083 N   0  0  0  0  0  0  0  0  0  0  0  0
    7.4545   -2.0613   22.5415 C   0  0  0  0  0  0  0  0  0  0  0  0
    7.2143   -3.0916   23.6262 C   0  0  0  0  0  0  0  0  0  0  0  0
    5.9011   -2.9000   24.4036 C   0  0  0  0  0  0  0  0  0  0  0  0
    5.8636   -3.6366   25.2161 H   0  0  0  0  0  0  0  0  0  0  0  0
    5.0388   -3.0716   23.7485 H   0  0  0  0  0  0  0  0  0  0  0  0
    5.8091   -1.9035   24.8505 H   0  0  0  0  0  0  0  0  0  0  0  0
    7.2828   -4.5366   23.1015 C   0  0  0  0  0  0  0  0  0  0  0  0
    6.6377   -4.9551   21.8101 C   0  0  0  0  0  0  0  0  0  0  0  0
    8.1334   -4.8934   21.9177 C   0  0  0  0  0  0  0  0  0  0  0  0
    8.6250   -4.0614   21.4117 H   0  0  0  0  0  0  0  0  0  0  0  0
    8.7133   -5.8124   21.9719 H   0  0  0  0  0  0  0  0  0  0  0  0
    6.1593   -5.9324   21.7979 H   0  0  0  0  0  0  0  0  0  0  0  0
    6.1360   -4.1750   21.2355 H   0  0  0  0  0  0  0  0  0  0  0  0
    7.2108   -5.2709   23.9111 H   0  0  0  0  0  0  0  0  0  0  0  0
    8.0645   -2.9354   24.3006 H   0  0  0  0  0  0  0  0  0  0  0  0
    6.5693   -1.7110   21.6259 N   0  0  0  0  0  0  0  0  0  0  0  0
    7.2658   -0.8501   20.8312 N   0  0  0  0  0  0  0  0  0  0  0  0
    6.5962   -0.1341   19.8032 C   0  0  0  0  0  0  0  0  0  0  0  0
    5.4139    0.5502   20.0926 C   0  0  0  0  0  0  0  0  0  0  0  0
    4.8213    1.2996   19.0721 C   0  0  0  0  0  0  0  0  0  0  0  0
    5.4168    1.3229   17.8047 C   0  0  0  0  0  0  0  0  0  0  0  0
    6.5340    0.6383   17.5119 N   0  0  0  0  0  0  0  0  0  0  0  0
    7.1013   -0.0728   18.4959 C   0  0  0  0  0  0  0  0  0  0  0  0
    8.0035   -0.6276   18.2469 H   0  0  0  0  0  0  0  0  0  0  0  0
    4.9726    1.8951   16.9924 H   0  0  0  0  0  0  0  0  0  0  0  0
    3.9103    1.8576   19.2476 H   0  0  0  0  0  0  0  0  0  0  0  0
    4.9877    0.4860   21.0945 H   0  0  0  0  0  0  0  0  0  0  0  0
   10.4865   -0.3237   20.7646 H   0  0  0  0  0  0  0  0  0  0  0  0
    9.3387    0.7090   19.8982 H   0  0  0  0  0  0  0  0  0  0  0  0
    9.0498    2.2538   22.3946 C   0  0  0  0  0  0  0  0  0  0  0  0
    7.6703    2.6303   21.9377 C   0  0  0  0  0  0  0  0  0  0  0  0
    6.8950    1.9932   22.3839 H   0  0  0  0  0  0  0  0  0  0  0  0
    7.5874    2.5466   20.8528 H   0  0  0  0  0  0  0  0  0  0  0  0
    7.4583    3.6596   22.2477 H   0  0  0  0  0  0  0  0  0  0  0  0
    9.7595    2.7894   23.4446 C   0  0  0  0  0  0  0  0  0  0  0  0
    9.4588    3.5941   24.0993 H   0  0  0  0  0  0  0  0  0  0  0  0
   11.9090    1.4657   25.2771 H   0  0  0  0  0  0  0  0  0  0  0  0
   12.0099    3.2077   24.9126 H   0  0  0  0  0  0  0  0  0  0  0  0
   13.0485    2.0501   24.0415 H   0  0  0  0  0  0  0  0  0  0  0  0
  1  2  1  0
  2  3  2  0
  3  4  1  0
  4  5  1  0
  5  6  1  0
  6  7  2  0
  7  8  1  0
  8  9  1  0
  9 10  1  0
 10 11  1  0
 10 12  1  0
 10 13  1  0
  9 14  1  0
 14 15  1  0
 15 16  1  0
 16 17  1  0
 16 18  1  0
 15 19  1  0
 15 20  1  0
 14 21  1  0
  9 22  1  0
  8 23  2  0
 23 24  1  0
 24 25  1  0
 25 26  2  0
 26 27  1  0
 27 28  2  0
 28 29  1  0
 29 30  2  0
 30 31  1  0
 28 32  1  0
 27 33  1  0
 26 34  1  0
  5 35  1  0
  5 36  1  0
  4 37  1  0
 37 38  1  0
 38 39  1  0
 38 40  1  0
 38 41  1  0
 37 42  2  0
 42 43  1  0
  1 44  1  0
  1 45  1  0
  1 46  1  0
 42  2  1  0
 24  6  1  0
 30 25  1  0
 16 14  1  0
M  END
>  <cnnaffinity>  (1) 
-5.89659

>  <filename>  (1) 
Cc1cc(C)n(Cc2nc(C(C)C3CC3)nn2-c2cccnc2)n1

$$$$
