
     RDKit          3D

 47 50  0  0  0  0  0  0  0  0999 V2000
   16.0372   -0.2896   19.6537 C   0  0  0  0  0  0  0  0  0  0  0  0
   14.7344   -0.7621   20.5559 C   0  0  0  0  0  0  0  0  0  0  0  0
   14.4797    0.0842   21.7078 C   0  0  0  0  0  0  0  0  0  0  0  0
   13.2121    0.1764   22.2743 C   0  0  0  0  0  0  0  0  0  0  0  0
   12.1637   -0.5772   21.7104 C   0  0  0  0  0  0  0  0  0  0  0  0
   10.7296   -0.1971   21.8383 C   0  0  0  0  0  0  0  0  0  0  0  0
    9.7824   -0.8904   21.2189 N   0  0  0  0  0  0  0  0  0  0  0  0
    8.6605   -0.1830   21.4511 N   0  0  0  0  0  0  0  0  0  0  0  0
    7.3634   -0.7030   21.0237 C   0  0  0  0  0  0  0  0  0  0  0  0
    6.6421    0.0714   19.9289 C   0  0  0  0  0  0  0  0  0  0  0  0
    5.4006    0.6995   20.1134 C   0  0  0  0  0  0  0  0  0  0  0  0
    4.7962    1.3400   19.0268 C   0  0  0  0  0  0  0  0  0  0  0  0
    5.4500    1.3300   17.7916 C   0  0  0  0  0  0  0  0  0  0  0  0
    6.6298    0.7214   17.5889 N   0  0  0  0  0  0  0  0  0  0  0  0
    7.1980    0.1167   18.6383 C   0  0  0  0  0  0  0  0  0  0  0  0
    8.1479   -0.3791   18.4439 H   0  0  0  0  0  0  0  0  0  0  0  0
    5.0132    1.8324   16.9294 H   0  0  0  0  0  0  0  0  0  0  0  0
    3.8457    1.8555   19.1235 H   0  0  0  0  0  0  0  0  0  0  0  0
    4.9012    0.6902   21.0869 H   0  0  0  0  0  0  0  0  0  0  0  0
    7.5690   -1.7237   20.6890 H   0  0  0  0  0  0  0  0  0  0  0  0
    6.7268   -0.7834   21.9121 H   0  0  0  0  0  0  0  0  0  0  0  0
    8.9617    0.8869   22.2233 C   0  0  0  0  0  0  0  0  0  0  0  0
    7.9200    1.7281   22.9011 C   0  0  0  0  0  0  0  0  0  0  0  0
    7.5769    1.1619   24.3211 C   0  0  0  0  0  0  0  0  0  0  0  0
    6.5148    1.8687   25.1162 C   0  0  0  0  0  0  0  0  0  0  0  0
    5.2539    1.4410   24.9897 N   0  0  0  0  0  0  0  0  0  0  0  0
    4.3229    2.0364   25.7368 C   0  0  0  0  0  0  0  0  0  0  0  0
    4.6362    3.0728   26.6044 C   0  0  0  0  0  0  0  0  0  0  0  0
    3.6963    3.6760   27.3464 F   0  0  0  0  0  0  0  0  0  0  0  0
    5.9660    3.4613   26.6584 C   0  0  0  0  0  0  0  0  0  0  0  0
    6.9030    2.8664   25.9203 N   0  0  0  0  0  0  0  0  0  0  0  0
    6.2771    4.2693   27.3248 H   0  0  0  0  0  0  0  0  0  0  0  0
    3.2965    1.6758   25.6534 H   0  0  0  0  0  0  0  0  0  0  0  0
    7.2538    0.1184   24.2171 H   0  0  0  0  0  0  0  0  0  0  0  0
    8.4903    1.1710   24.9244 H   0  0  0  0  0  0  0  0  0  0  0  0
    7.0246    1.7601   22.2657 H   0  0  0  0  0  0  0  0  0  0  0  0
    8.3143    2.7479   22.9694 H   0  0  0  0  0  0  0  0  0  0  0  0
   10.2629    0.9238   22.4582 N   0  0  0  0  0  0  0  0  0  0  0  0
   12.5228   -1.4779   20.6839 C   0  0  0  0  0  0  0  0  0  0  0  0
   13.8628   -1.8143   20.3666 C   0  0  0  0  0  0  0  0  0  0  0  0
   14.0719   -2.6408   19.7004 H   0  0  0  0  0  0  0  0  0  0  0  0
   12.2355   -0.9391   19.7796 H   0  0  0  0  0  0  0  0  0  0  0  0
   13.0329    0.9019   23.0685 H   0  0  0  0  0  0  0  0  0  0  0  0
   15.2461    0.7681   22.0684 H   0  0  0  0  0  0  0  0  0  0  0  0
   16.8286   -1.0361   19.6424 H   0  0  0  0  0  0  0  0  0  0  0  0
   16.4437    0.5764   20.1453 H   0  0  0  0  0  0  0  0  0  0  0  0
   15.9520    0.1308   18.6440 H   0  0  0  0  0  0  0  0  0  0  0  0
  1  2  1  0
  2  3  2  0
  3  4  1  0
  4  5  2  0
  5  6  1  0
  6  7  2  0
  7  8  1  0
  8  9  1  0
  9 10  1  0
 10 11  2  0
 11 12  1  0
 12 13  2  0
 13 14  1  0
 14 15  2  0
 15 16  1  0
 13 17  1  0
 12 18  1  0
 11 19  1  0
  9 20  1  0
  9 21  1  0
  8 22  1  0
 22 23  1  0
 23 24  1  0
 24 25  1  0
 25 26  2  0
 26 27  1  0
 27 28  2  0
 28 29  1  0
 28 30  1  0
 30 31  2  0
 30 32  1  0
 27 33  1  0
 24 34  1  0
 24 35  1  0
 23 36  1  0
 23 37  1  0
 22 38  2  0
  5 39  1  0
 39 40  2  0
 40 41  1  0
 39 42  1  0
  4 43  1  0
  3 44  1  0
  1 45  1  0
  1 46  1  0
  1 47  1  0
 40  2  1  0
 38  6  1  0
 15 10  1  0
 31 25  1  0
M  END
>  <cnnaffinity>  (1) 
-6.58355

>  <filename>  (1) 
Cc1ccc(-c2nc(CCc3ncc(F)cn3)n(Cc3cccnc3)n2)cc1

$$$$
