
     RDKit          3D

 45 48  0  0  0  0  0  0  0  0999 V2000
    8.1983    1.6943   27.0646 C   0  0  0  0  0  0  0  0  0  0  0  0
    8.4100    1.8598   25.5817 C   0  0  0  0  0  0  0  0  0  0  0  0
    9.6736    2.1428   25.0363 C   0  0  0  0  0  0  0  0  0  0  0  0
    9.8426    2.3012   23.6607 C   0  0  0  0  0  0  0  0  0  0  0  0
    8.7510    2.1540   22.7977 C   0  0  0  0  0  0  0  0  0  0  0  0
    8.9849    2.1772   21.0356 S   0  0  0  0  0  0  0  0  0  0  0  0
    9.5540    0.4497   20.7732 C   0  0  0  0  0  0  0  0  0  0  0  0
    8.6334   -0.5945   21.3071 C   0  0  0  0  0  0  0  0  0  0  0  0
    8.8831   -1.4117   22.3089 N   0  0  0  0  0  0  0  0  0  0  0  0
    7.6754   -1.9854   22.5364 C   0  0  0  0  0  0  0  0  0  0  0  0
    7.4674   -2.8765   23.7121 C   0  0  0  0  0  0  0  0  0  0  0  0
    6.6102   -2.1655   24.8963 C   0  0  0  0  0  0  0  0  0  0  0  0
    5.3948   -2.8081   24.6847 C   0  0  0  0  0  0  0  0  0  0  0  0
    5.2315   -3.7655   23.7863 O   0  0  0  0  0  0  0  0  0  0  0  0
    6.5950   -4.1029   23.3932 C   0  0  0  0  0  0  0  0  0  0  0  0
    6.5475   -4.3861   22.3441 H   0  0  0  0  0  0  0  0  0  0  0  0
    6.9326   -4.9634   23.9847 H   0  0  0  0  0  0  0  0  0  0  0  0
    6.1207   -4.7322   26.7502 H   0  0  0  0  0  0  0  0  0  0  0  0
    4.5024   -2.5494   25.2424 H   0  0  0  0  0  0  0  0  0  0  0  0
    6.4704   -1.0377   24.9118 H   0  0  0  0  0  0  0  0  0  0  0  0
    7.0233   -2.2801   25.9517 H   0  0  0  0  0  0  0  0  0  0  0  0
    8.4567   -3.1719   24.0496 H   0  0  0  0  0  0  0  0  0  0  0  0
    6.7114   -1.6189   21.7154 N   0  0  0  0  0  0  0  0  0  0  0  0
    7.3420   -0.7375   20.8918 N   0  0  0  0  0  0  0  0  0  0  0  0
    6.6365   -0.0568   19.8626 C   0  0  0  0  0  0  0  0  0  0  0  0
    5.4343    0.5994   20.1365 C   0  0  0  0  0  0  0  0  0  0  0  0
    4.8161    1.2994   19.0955 C   0  0  0  0  0  0  0  0  0  0  0  0
    5.4035    1.2932   17.8246 C   0  0  0  0  0  0  0  0  0  0  0  0
    6.5333    0.6258   17.5450 N   0  0  0  0  0  0  0  0  0  0  0  0
    7.1282   -0.0298   18.5461 C   0  0  0  0  0  0  0  0  0  0  0  0
    8.0402   -0.5722   18.3020 H   0  0  0  0  0  0  0  0  0  0  0  0
    4.9495    1.8356   16.9984 H   0  0  0  0  0  0  0  0  0  0  0  0
    3.8970    1.8486   19.2625 H   0  0  0  0  0  0  0  0  0  0  0  0
    5.0018    0.5463   21.1372 H   0  0  0  0  0  0  0  0  0  0  0  0
    9.6359    0.3459   19.6929 H   0  0  0  0  0  0  0  0  0  0  0  0
   10.5377    0.3107   21.2285 H   0  0  0  0  0  0  0  0  0  0  0  0
    7.4797    1.8817   23.3260 C   0  0  0  0  0  0  0  0  0  0  0  0
    7.3183    1.7363   24.7052 C   0  0  0  0  0  0  0  0  0  0  0  0
    6.3375    1.4904   25.1095 H   0  0  0  0  0  0  0  0  0  0  0  0
    6.6467    1.7324   22.6417 H   0  0  0  0  0  0  0  0  0  0  0  0
   10.8245    2.5008   23.2336 H   0  0  0  0  0  0  0  0  0  0  0  0
   10.5341    2.2072   25.6936 H   0  0  0  0  0  0  0  0  0  0  0  0
    8.4807    2.5974   27.6137 H   0  0  0  0  0  0  0  0  0  0  0  0
    7.1411    1.5296   27.2787 H   0  0  0  0  0  0  0  0  0  0  0  0
    8.7622    0.8419   27.4665 H   0  0  0  0  0  0  0  0  0  0  0  0
  1  2  1  0
  2  3  2  0
  3  4  1  0
  4  5  2  0
  5  6  1  0
  6  7  1  0
  7  8  1  0
  8  9  2  0
  9 10  1  0
 10 11  1  0
 11 12  1  0
 12 13  1  0
 13 14  1  0
 14 15  1  0
 15 16  1  0
 15 17  1  0
 13 18  1  0
 13 19  1  0
 12 20  1  0
 12 21  1  0
 11 22  1  0
 10 23  2  0
 23 24  1  0
 24 25  1  0
 25 26  2  0
 26 27  1  0
 27 28  2  0
 28 29  1  0
 29 30  2  0
 30 31  1  0
 28 32  1  0
 27 33  1  0
 26 34  1  0
  7 35  1  0
  7 36  1  0
  5 37  1  0
 37 38  2  0
 38 39  1  0
 37 40  1  0
  4 41  1  0
  3 42  1  0
  1 43  1  0
  1 44  1  0
  1 45  1  0
 38  2  1  0
 24  8  1  0
 30 25  1  0
 15 11  1  0
M  END
>  <cnnaffinity>  (1) 
-5.78158

>  <filename>  (1) 
Cc1ccc(SCc2nc(C3CCOC3)nn2-c2cccnc2)cc1

$$$$
