
     RDKit          3D

 35 36  0  0  0  0  0  0  0  0999 V2000
    5.3544   -4.4523   23.5347 C   0  0  0  0  0  0  0  0  0  0  0  0
    5.4743   -4.9054   22.1030 C   0  0  0  0  0  0  0  0  0  0  0  0
    5.2599   -6.2423   21.7715 C   0  0  0  0  0  0  0  0  0  0  0  0
    5.2504   -6.6217   20.4321 C   0  0  0  0  0  0  0  0  0  0  0  0
    5.4228   -5.6764   19.4190 C   0  0  0  0  0  0  0  0  0  0  0  0
    5.6322   -4.3371   19.7320 C   0  0  0  0  0  0  0  0  0  0  0  0
    5.6591   -2.9949   18.3586 Br  0  0  0  0  0  0  0  0  0  0  0  0
    5.6982   -3.9630   21.0817 C   0  0  0  0  0  0  0  0  0  0  0  0
    5.9800   -2.5347   21.4368 C   0  0  0  0  0  0  0  0  0  0  0  0
    7.4075   -2.2686   21.2170 N   0  0  0  0  0  0  0  0  0  0  0  0
    8.3871   -3.1058   21.9275 C   0  0  0  0  0  0  0  0  0  0  0  0
    8.2208   -4.1628   21.6961 H   0  0  0  0  0  0  0  0  0  0  0  0
    9.4053   -2.8525   21.6162 H   0  0  0  0  0  0  0  0  0  0  0  0
    8.3134   -2.9757   23.0133 H   0  0  0  0  0  0  0  0  0  0  0  0
    7.7791   -0.5884   21.3011 S   0  0  0  0  0  0  0  0  0  0  0  0
    9.1856   -0.3915   20.9220 O   0  0  0  0  0  0  0  0  0  0  0  0
    7.4228   -0.0549   22.6229 O   0  0  0  0  0  0  0  0  0  0  0  0
    6.7168    0.0210   20.0318 C   0  0  0  0  0  0  0  0  0  0  0  0
    5.4950    0.6569   20.2201 C   0  0  0  0  0  0  0  0  0  0  0  0
    4.9060    1.1540   19.0697 C   0  0  0  0  0  0  0  0  0  0  0  0
    5.5390    0.9957   17.8319 C   0  0  0  0  0  0  0  0  0  0  0  0
    6.6886    0.3126   17.6938 N   0  0  0  0  0  0  0  0  0  0  0  0
    7.2610   -0.1787   18.7876 C   0  0  0  0  0  0  0  0  0  0  0  0
    8.1981   -0.7135   18.6736 H   0  0  0  0  0  0  0  0  0  0  0  0
    5.0839    1.4460   16.9554 H   0  0  0  0  0  0  0  0  0  0  0  0
    3.9682    1.6925   19.1231 H   0  0  0  0  0  0  0  0  0  0  0  0
    5.0258    0.7953   21.1995 H   0  0  0  0  0  0  0  0  0  0  0  0
    5.3661   -1.8788   20.8130 H   0  0  0  0  0  0  0  0  0  0  0  0
    5.7057   -2.3416   22.4774 H   0  0  0  0  0  0  0  0  0  0  0  0
    5.3368   -5.9744   18.3829 H   0  0  0  0  0  0  0  0  0  0  0  0
    5.0134   -7.6455   20.1719 H   0  0  0  0  0  0  0  0  0  0  0  0
    5.0454   -6.9727   22.5480 H   0  0  0  0  0  0  0  0  0  0  0  0
    6.2829   -3.9936   23.8918 H   0  0  0  0  0  0  0  0  0  0  0  0
    4.5545   -3.7105   23.5996 H   0  0  0  0  0  0  0  0  0  0  0  0
    5.0927   -5.2871   24.1912 H   0  0  0  0  0  0  0  0  0  0  0  0
  1  2  1  0
  2  3  2  0
  3  4  1  0
  4  5  2  0
  5  6  1  0
  6  7  1  0
  6  8  2  0
  8  9  1  0
  9 10  1  0
 10 11  1  0
 11 12  1  0
 11 13  1  0
 11 14  1  0
 10 15  1  0
 15 16  2  0
 15 17  2  0
 15 18  1  0
 18 19  2  0
 19 20  1  0
 20 21  2  0
 21 22  1  0
 22 23  2  0
 23 24  1  0
 21 25  1  0
 20 26  1  0
 19 27  1  0
  9 28  1  0
  9 29  1  0
  5 30  1  0
  4 31  1  0
  3 32  1  0
  1 33  1  0
  1 34  1  0
  1 35  1  0
  8  2  1  0
 23 18  1  0
M  END
>  <cnnaffinity>  (1) 
-5.43403

>  <filename>  (1) 
Cc1cccc(Br)c1CN(C)S(=O)(=O)c1cccnc1

$$$$
