
     RDKit          3D

 46 48  0  0  0  0  0  0  0  0999 V2000
    7.7748    4.4796   24.5147 C   0  0  0  0  0  0  0  0  0  0  0  0
    7.2932    3.4994   25.5644 C   0  0  0  0  0  0  0  0  0  0  0  0
    7.8978    3.4806   26.8302 C   0  0  0  0  0  0  0  0  0  0  0  0
    7.5713    2.5011   27.7759 C   0  0  0  0  0  0  0  0  0  0  0  0
    6.6418    1.5114   27.4597 C   0  0  0  0  0  0  0  0  0  0  0  0
    6.0012    1.5407   26.2177 C   0  0  0  0  0  0  0  0  0  0  0  0
    6.2686    2.5632   25.2918 C   0  0  0  0  0  0  0  0  0  0  0  0
    5.4810    2.5792   23.9885 C   0  0  0  0  0  0  0  0  0  0  0  0
    5.7537    1.4627   23.1542 O   0  0  0  0  0  0  0  0  0  0  0  0
    7.0894    1.4146   22.6726 C   0  0  0  0  0  0  0  0  0  0  0  0
    7.4052    0.0337   22.2258 C   0  0  0  0  0  0  0  0  0  0  0  0
    8.0719   -0.8330   22.9588 N   0  0  0  0  0  0  0  0  0  0  0  0
    8.2631   -1.8702   22.1103 C   0  0  0  0  0  0  0  0  0  0  0  0
    9.0671   -3.0779   22.5019 C   0  0  0  0  0  0  0  0  0  0  0  0
    8.3749   -3.9778   23.5524 C   0  0  0  0  0  0  0  0  0  0  0  0
    8.4526   -3.5545   24.5642 H   0  0  0  0  0  0  0  0  0  0  0  0
    7.3159   -4.1531   23.3306 H   0  0  0  0  0  0  0  0  0  0  0  0
    8.8810   -4.9528   23.5581 H   0  0  0  0  0  0  0  0  0  0  0  0
   10.4816   -2.7107   22.9976 C   0  0  0  0  0  0  0  0  0  0  0  0
   10.4284   -1.8964   23.7329 H   0  0  0  0  0  0  0  0  0  0  0  0
   11.1240   -2.3741   22.1783 H   0  0  0  0  0  0  0  0  0  0  0  0
   10.9564   -3.5860   23.4590 H   0  0  0  0  0  0  0  0  0  0  0  0
    9.1300   -3.6314   21.5658 H   0  0  0  0  0  0  0  0  0  0  0  0
    7.7470   -1.7043   20.9067 N   0  0  0  0  0  0  0  0  0  0  0  0
    7.1652   -0.4769   20.9877 N   0  0  0  0  0  0  0  0  0  0  0  0
    6.5018    0.1134   19.8809 C   0  0  0  0  0  0  0  0  0  0  0  0
    5.3315    0.8637   20.0483 C   0  0  0  0  0  0  0  0  0  0  0  0
    4.7754    1.4621   18.9129 C   0  0  0  0  0  0  0  0  0  0  0  0
    5.4044    1.2913   17.6759 C   0  0  0  0  0  0  0  0  0  0  0  0
    6.5142    0.5518   17.5115 N   0  0  0  0  0  0  0  0  0  0  0  0
    7.0418   -0.0325   18.5907 C   0  0  0  0  0  0  0  0  0  0  0  0
    7.9369   -0.6322   18.4497 H   0  0  0  0  0  0  0  0  0  0  0  0
    5.0033    1.7591   16.7794 H   0  0  0  0  0  0  0  0  0  0  0  0
    3.8799    2.0691   18.9789 H   0  0  0  0  0  0  0  0  0  0  0  0
    4.8825    0.9778   21.0333 H   0  0  0  0  0  0  0  0  0  0  0  0
    7.8085    1.6335   23.4763 H   0  0  0  0  0  0  0  0  0  0  0  0
    7.2478    2.1368   21.8552 H   0  0  0  0  0  0  0  0  0  0  0  0
    5.6316    3.5133   23.4295 H   0  0  0  0  0  0  0  0  0  0  0  0
    4.4109    2.4814   24.1937 H   0  0  0  0  0  0  0  0  0  0  0  0
    5.2873    0.7648   25.9478 H   0  0  0  0  0  0  0  0  0  0  0  0
    6.4158    0.7262   28.1790 H   0  0  0  0  0  0  0  0  0  0  0  0
    8.0555    2.4898   28.7493 H   0  0  0  0  0  0  0  0  0  0  0  0
    8.6388    4.2442   27.0595 H   0  0  0  0  0  0  0  0  0  0  0  0
    8.5922    5.0975   24.8968 H   0  0  0  0  0  0  0  0  0  0  0  0
    6.9742    5.1492   24.1812 H   0  0  0  0  0  0  0  0  0  0  0  0
    8.1511    3.9545   23.6272 H   0  0  0  0  0  0  0  0  0  0  0  0
  1  2  1  0
  2  3  2  0
  3  4  1  0
  4  5  2  0
  5  6  1  0
  6  7  2  0
  7  8  1  0
  8  9  1  0
  9 10  1  0
 10 11  1  0
 11 12  2  0
 12 13  1  0
 13 14  1  0
 14 15  1  0
 15 16  1  0
 15 17  1  0
 15 18  1  0
 14 19  1  0
 19 20  1  0
 19 21  1  0
 19 22  1  0
 14 23  1  0
 13 24  2  0
 24 25  1  0
 25 26  1  0
 26 27  2  0
 27 28  1  0
 28 29  2  0
 29 30  1  0
 30 31  2  0
 31 32  1  0
 29 33  1  0
 28 34  1  0
 27 35  1  0
 10 36  1  0
 10 37  1  0
  8 38  1  0
  8 39  1  0
  6 40  1  0
  5 41  1  0
  4 42  1  0
  3 43  1  0
  1 44  1  0
  1 45  1  0
  1 46  1  0
  7  2  1  0
 25 11  1  0
 31 26  1  0
M  END
>  <cnnaffinity>  (1) 
-5.7119

>  <filename>  (1) 
Cc1ccccc1COCc1nc(C(C)C)nn1-c1cccnc1

$$$$
