
     RDKit          3D

 45 48  0  0  0  0  0  0  0  0999 V2000
    3.7239    0.7621   25.3723 C   0  0  0  0  0  0  0  0  0  0  0  0
    4.2718    2.1195   24.9894 C   0  0  0  0  0  0  0  0  0  0  0  0
    3.6998    3.3040   25.4713 C   0  0  0  0  0  0  0  0  0  0  0  0
    2.1476    3.2319   26.2567 Cl  0  0  0  0  0  0  0  0  0  0  0  0
    4.3247    4.5503   25.3622 C   0  0  0  0  0  0  0  0  0  0  0  0
    5.5524    4.6387   24.7187 C   0  0  0  0  0  0  0  0  0  0  0  0
    6.1135    3.5124   24.1261 C   0  0  0  0  0  0  0  0  0  0  0  0
    5.4339    2.2882   24.1948 C   0  0  0  0  0  0  0  0  0  0  0  0
    5.8367    1.1930   23.4885 O   0  0  0  0  0  0  0  0  0  0  0  0
    7.1085    1.2267   22.8549 C   0  0  0  0  0  0  0  0  0  0  0  0
    7.3899   -0.1258   22.3166 C   0  0  0  0  0  0  0  0  0  0  0  0
    7.9832   -1.0794   23.0106 N   0  0  0  0  0  0  0  0  0  0  0  0
    8.2172   -2.0225   22.0771 C   0  0  0  0  0  0  0  0  0  0  0  0
    9.0318   -3.2356   22.3571 C   0  0  0  0  0  0  0  0  0  0  0  0
    8.4224   -4.2061   23.3897 C   0  0  0  0  0  0  0  0  0  0  0  0
    9.0924   -3.8107   24.7113 C   0  0  0  0  0  0  0  0  0  0  0  0
   10.2731   -3.1118   24.3798 O   0  0  0  0  0  0  0  0  0  0  0  0
   10.3841   -2.8477   22.9993 C   0  0  0  0  0  0  0  0  0  0  0  0
   11.2221   -3.4193   22.5815 H   0  0  0  0  0  0  0  0  0  0  0  0
   10.6383   -1.7865   22.8704 H   0  0  0  0  0  0  0  0  0  0  0  0
    9.3529   -4.6809   25.3291 H   0  0  0  0  0  0  0  0  0  0  0  0
    8.4487   -3.1589   25.3188 H   0  0  0  0  0  0  0  0  0  0  0  0
    7.3334   -4.1343   23.4573 H   0  0  0  0  0  0  0  0  0  0  0  0
    8.6685   -5.2382   23.1156 H   0  0  0  0  0  0  0  0  0  0  0  0
    9.1137   -3.6694   21.3664 H   0  0  0  0  0  0  0  0  0  0  0  0
    7.8067   -1.7321   20.8624 N   0  0  0  0  0  0  0  0  0  0  0  0
    7.2293   -0.5163   21.0221 N   0  0  0  0  0  0  0  0  0  0  0  0
    6.5650    0.1099   19.9382 C   0  0  0  0  0  0  0  0  0  0  0  0
    5.3574    0.7816   20.1410 C   0  0  0  0  0  0  0  0  0  0  0  0
    4.7615    1.3914   19.0342 C   0  0  0  0  0  0  0  0  0  0  0  0
    5.3966    1.3155   17.7911 C   0  0  0  0  0  0  0  0  0  0  0  0
    6.5466    0.6445   17.5928 N   0  0  0  0  0  0  0  0  0  0  0  0
    7.1055    0.0384   18.6434 C   0  0  0  0  0  0  0  0  0  0  0  0
    8.0210   -0.5229   18.4618 H   0  0  0  0  0  0  0  0  0  0  0  0
    4.9659    1.7981   16.9165 H   0  0  0  0  0  0  0  0  0  0  0  0
    3.8228    1.9247   19.1292 H   0  0  0  0  0  0  0  0  0  0  0  0
    4.9091    0.8093   21.1346 H   0  0  0  0  0  0  0  0  0  0  0  0
    7.8917    1.4455   23.5926 H   0  0  0  0  0  0  0  0  0  0  0  0
    7.1399    1.9840   22.0577 H   0  0  0  0  0  0  0  0  0  0  0  0
    7.0628    3.5862   23.6082 H   0  0  0  0  0  0  0  0  0  0  0  0
    6.0728    5.5911   24.6587 H   0  0  0  0  0  0  0  0  0  0  0  0
    3.8446    5.4174   25.7938 H   0  0  0  0  0  0  0  0  0  0  0  0
    3.7852    0.6177   26.4575 H   0  0  0  0  0  0  0  0  0  0  0  0
    2.6680    0.6646   25.1075 H   0  0  0  0  0  0  0  0  0  0  0  0
    4.2840   -0.0414   24.8921 H   0  0  0  0  0  0  0  0  0  0  0  0
  1  2  1  0
  2  3  2  0
  3  4  1  0
  3  5  1  0
  5  6  2  0
  6  7  1  0
  7  8  2  0
  8  9  1  0
  9 10  1  0
 10 11  1  0
 11 12  2  0
 12 13  1  0
 13 14  1  0
 14 15  1  0
 15 16  1  0
 16 17  1  0
 17 18  1  0
 18 19  1  0
 18 20  1  0
 16 21  1  0
 16 22  1  0
 15 23  1  0
 15 24  1  0
 14 25  1  0
 13 26  2  0
 26 27  1  0
 27 28  1  0
 28 29  2  0
 29 30  1  0
 30 31  2  0
 31 32  1  0
 32 33  2  0
 33 34  1  0
 31 35  1  0
 30 36  1  0
 29 37  1  0
 10 38  1  0
 10 39  1  0
  7 40  1  0
  6 41  1  0
  5 42  1  0
  1 43  1  0
  1 44  1  0
  1 45  1  0
  8  2  1  0
 27 11  1  0
 33 28  1  0
 18 14  1  0
M  END
>  <cnnaffinity>  (1) 
-5.97467

>  <filename>  (1) 
Cc1c(Cl)cccc1OCc1nc(C2CCOC2)nn1-c1cccnc1

$$$$
