
     RDKit          3D

 44 47  0  0  0  0  0  0  0  0999 V2000
    9.0508   -0.2508   27.1300 C   0  0  0  0  0  0  0  0  0  0  0  0
    7.9498    0.0762   26.1492 C   0  0  0  0  0  0  0  0  0  0  0  0
    6.6355   -0.3994   26.3071 C   0  0  0  0  0  0  0  0  0  0  0  0
    5.6329   -0.1308   25.4643 N   0  0  0  0  0  0  0  0  0  0  0  0
    5.9131    0.6006   24.3752 C   0  0  0  0  0  0  0  0  0  0  0  0
    7.1859    1.1055   24.0815 C   0  0  0  0  0  0  0  0  0  0  0  0
    7.5487    1.8212   22.7742 C   0  0  0  0  0  0  0  0  0  0  0  0
    8.5883    1.0511   21.9999 C   0  0  0  0  0  0  0  0  0  0  0  0
    9.8936    1.2076   22.1268 N   0  0  0  0  0  0  0  0  0  0  0  0
   10.4000    0.0455   21.6383 C   0  0  0  0  0  0  0  0  0  0  0  0
   11.8428   -0.3420   21.7764 C   0  0  0  0  0  0  0  0  0  0  0  0
   12.2985   -1.5968   21.3287 C   0  0  0  0  0  0  0  0  0  0  0  0
   13.6388   -1.9523   21.4951 C   0  0  0  0  0  0  0  0  0  0  0  0
   14.5307   -1.1523   22.0884 N   0  0  0  0  0  0  0  0  0  0  0  0
   14.1073    0.0423   22.5122 C   0  0  0  0  0  0  0  0  0  0  0  0
   12.7924    0.5025   22.3839 C   0  0  0  0  0  0  0  0  0  0  0  0
   12.5435    1.5077   22.7139 H   0  0  0  0  0  0  0  0  0  0  0  0
   14.8591    0.6698   22.9779 H   0  0  0  0  0  0  0  0  0  0  0  0
   14.0243   -2.8989   21.1266 H   0  0  0  0  0  0  0  0  0  0  0  0
   11.6007   -2.2830   20.8796 H   0  0  0  0  0  0  0  0  0  0  0  0
    9.4812   -0.7743   21.1524 N   0  0  0  0  0  0  0  0  0  0  0  0
    8.3241   -0.1205   21.3843 N   0  0  0  0  0  0  0  0  0  0  0  0
    7.0500   -0.7137   20.9883 C   0  0  0  0  0  0  0  0  0  0  0  0
    6.3706    0.0222   19.8540 C   0  0  0  0  0  0  0  0  0  0  0  0
    5.1512    0.6931   19.9788 C   0  0  0  0  0  0  0  0  0  0  0  0
    4.6520    1.4026   18.8822 C   0  0  0  0  0  0  0  0  0  0  0  0
    5.3854    1.3971   17.6925 C   0  0  0  0  0  0  0  0  0  0  0  0
    6.5385    0.7283   17.5394 N   0  0  0  0  0  0  0  0  0  0  0  0
    7.0110    0.0723   18.6045 C   0  0  0  0  0  0  0  0  0  0  0  0
    7.9601   -0.4423   18.4677 H   0  0  0  0  0  0  0  0  0  0  0  0
    5.0332    1.9480   16.8223 H   0  0  0  0  0  0  0  0  0  0  0  0
    3.7323    1.9741   18.9393 H   0  0  0  0  0  0  0  0  0  0  0  0
    4.6023    0.6839   20.9234 H   0  0  0  0  0  0  0  0  0  0  0  0
    7.2887   -1.7391   20.6904 H   0  0  0  0  0  0  0  0  0  0  0  0
    6.3962   -0.7757   21.8646 H   0  0  0  0  0  0  0  0  0  0  0  0
    6.6659    2.0035   22.1535 H   0  0  0  0  0  0  0  0  0  0  0  0
    7.9970    2.7944   22.9960 H   0  0  0  0  0  0  0  0  0  0  0  0
    8.1961    0.8646   25.0262 C   0  0  0  0  0  0  0  0  0  0  0  0
    9.1920    1.2789   24.8590 H   0  0  0  0  0  0  0  0  0  0  0  0
    5.0769    0.7900   23.7016 H   0  0  0  0  0  0  0  0  0  0  0  0
    6.3834   -1.0085   27.1755 H   0  0  0  0  0  0  0  0  0  0  0  0
    9.2157   -1.3300   27.2192 H   0  0  0  0  0  0  0  0  0  0  0  0
    8.8134    0.1180   28.1330 H   0  0  0  0  0  0  0  0  0  0  0  0
   10.0019    0.1962   26.8255 H   0  0  0  0  0  0  0  0  0  0  0  0
  1  2  1  0
  2  3  2  0
  3  4  1  0
  4  5  2  0
  5  6  1  0
  6  7  1  0
  7  8  1  0
  8  9  2  0
  9 10  1  0
 10 11  1  0
 11 12  2  0
 12 13  1  0
 13 14  2  0
 14 15  1  0
 15 16  2  0
 16 17  1  0
 15 18  1  0
 13 19  1  0
 12 20  1  0
 10 21  2  0
 21 22  1  0
 22 23  1  0
 23 24  1  0
 24 25  2  0
 25 26  1  0
 26 27  2  0
 27 28  1  0
 28 29  2  0
 29 30  1  0
 27 31  1  0
 26 32  1  0
 25 33  1  0
 23 34  1  0
 23 35  1  0
  7 36  1  0
  7 37  1  0
  6 38  2  0
 38 39  1  0
  5 40  1  0
  3 41  1  0
  1 42  1  0
  1 43  1  0
  1 44  1  0
 38  2  1  0
 22  8  1  0
 29 24  1  0
 16 11  1  0
M  END
>  <cnnaffinity>  (1) 
-6.62697

>  <filename>  (1) 
Cc1cncc(Cc2nc(-c3ccncc3)nn2Cc2cccnc2)c1

$$$$
