
     RDKit          3D

 45 48  0  0  0  0  0  0  0  0999 V2000
    4.8004   -0.6452   26.0822 C   0  0  0  0  0  0  0  0  0  0  0  0
    6.1215   -0.0119   25.7265 C   0  0  0  0  0  0  0  0  0  0  0  0
    7.2046   -0.0528   26.6140 C   0  0  0  0  0  0  0  0  0  0  0  0
    8.4210    0.5563   26.2893 C   0  0  0  0  0  0  0  0  0  0  0  0
    8.5626    1.2171   25.0697 C   0  0  0  0  0  0  0  0  0  0  0  0
    7.4882    1.2823   24.1666 C   0  0  0  0  0  0  0  0  0  0  0  0
    7.6883    1.9243   22.7941 C   0  0  0  0  0  0  0  0  0  0  0  0
    8.6486    1.0939   21.9985 C   0  0  0  0  0  0  0  0  0  0  0  0
    9.9615    1.2505   22.0544 N   0  0  0  0  0  0  0  0  0  0  0  0
   10.4357    0.0678   21.5981 C   0  0  0  0  0  0  0  0  0  0  0  0
   11.8624   -0.3551   21.6675 C   0  0  0  0  0  0  0  0  0  0  0  0
   12.8753    0.4111   22.2748 C   0  0  0  0  0  0  0  0  0  0  0  0
   14.1931   -0.0364   22.1602 C   0  0  0  0  0  0  0  0  0  0  0  0
   14.5347   -1.1937   21.5795 N   0  0  0  0  0  0  0  0  0  0  0  0
   13.5730   -1.9602   21.0705 C   0  0  0  0  0  0  0  0  0  0  0  0
   12.2327   -1.5906   21.1085 C   0  0  0  0  0  0  0  0  0  0  0  0
   11.4579   -2.2368   20.7325 H   0  0  0  0  0  0  0  0  0  0  0  0
   13.9012   -2.8596   20.5567 H   0  0  0  0  0  0  0  0  0  0  0  0
   15.0268    0.5662   22.5073 H   0  0  0  0  0  0  0  0  0  0  0  0
   12.6701    1.3106   22.8502 H   0  0  0  0  0  0  0  0  0  0  0  0
    9.4937   -0.7721   21.2011 N   0  0  0  0  0  0  0  0  0  0  0  0
    8.3496   -0.1105   21.4579 N   0  0  0  0  0  0  0  0  0  0  0  0
    7.0893   -0.7183   21.0379 C   0  0  0  0  0  0  0  0  0  0  0  0
    6.4321    0.0218   19.8996 C   0  0  0  0  0  0  0  0  0  0  0  0
    5.2236    0.7043   20.0575 C   0  0  0  0  0  0  0  0  0  0  0  0
    4.6875    1.3881   18.9650 C   0  0  0  0  0  0  0  0  0  0  0  0
    5.3849    1.3610   17.7534 C   0  0  0  0  0  0  0  0  0  0  0  0
    6.5457    0.7095   17.5793 N   0  0  0  0  0  0  0  0  0  0  0  0
    7.0504    0.0651   18.6378 C   0  0  0  0  0  0  0  0  0  0  0  0
    7.9921   -0.4583   18.4708 H   0  0  0  0  0  0  0  0  0  0  0  0
    4.9939    1.8779   16.8797 H   0  0  0  0  0  0  0  0  0  0  0  0
    3.7575    1.9399   19.0418 H   0  0  0  0  0  0  0  0  0  0  0  0
    4.7130    0.7032   21.0234 H   0  0  0  0  0  0  0  0  0  0  0  0
    7.3439   -1.7440   20.7513 H   0  0  0  0  0  0  0  0  0  0  0  0
    6.4145   -0.7958   21.8977 H   0  0  0  0  0  0  0  0  0  0  0  0
    6.7387    2.0370   22.2641 H   0  0  0  0  0  0  0  0  0  0  0  0
    8.1284    2.9220   22.8859 H   0  0  0  0  0  0  0  0  0  0  0  0
    6.2881    0.6555   24.5013 C   0  0  0  0  0  0  0  0  0  0  0  0
    5.4648    0.6594   23.7886 H   0  0  0  0  0  0  0  0  0  0  0  0
    9.5210    1.6431   24.7808 H   0  0  0  0  0  0  0  0  0  0  0  0
    9.2606    0.4949   26.9769 H   0  0  0  0  0  0  0  0  0  0  0  0
    7.0928   -0.5691   27.5656 H   0  0  0  0  0  0  0  0  0  0  0  0
    4.3132   -1.0739   25.2014 H   0  0  0  0  0  0  0  0  0  0  0  0
    4.1162    0.0989   26.5057 H   0  0  0  0  0  0  0  0  0  0  0  0
    4.9171   -1.4463   26.8190 H   0  0  0  0  0  0  0  0  0  0  0  0
  1  2  1  0
  2  3  2  0
  3  4  1  0
  4  5  2  0
  5  6  1  0
  6  7  1  0
  7  8  1  0
  8  9  2  0
  9 10  1  0
 10 11  1  0
 11 12  2  0
 12 13  1  0
 13 14  2  0
 14 15  1  0
 15 16  2  0
 16 17  1  0
 15 18  1  0
 13 19  1  0
 12 20  1  0
 10 21  2  0
 21 22  1  0
 22 23  1  0
 23 24  1  0
 24 25  2  0
 25 26  1  0
 26 27  2  0
 27 28  1  0
 28 29  2  0
 29 30  1  0
 27 31  1  0
 26 32  1  0
 25 33  1  0
 23 34  1  0
 23 35  1  0
  7 36  1  0
  7 37  1  0
  6 38  2  0
 38 39  1  0
  5 40  1  0
  4 41  1  0
  3 42  1  0
  1 43  1  0
  1 44  1  0
  1 45  1  0
 38  2  1  0
 22  8  1  0
 29 24  1  0
 16 11  1  0
M  END
>  <cnnaffinity>  (1) 
-6.55888

>  <filename>  (1) 
Cc1cccc(Cc2nc(-c3ccncc3)nn2Cc2cccnc2)c1

$$$$
