
     RDKit          3D

 51 54  0  0  0  0  0  0  0  0999 V2000
    7.2330    5.9106   26.6228 C   0  0  0  0  0  0  0  0  0  0  0  0
    7.7037    4.8682   25.6285 C   0  0  0  0  0  0  0  0  0  0  0  0
    8.1226    3.6052   26.0661 C   0  0  0  0  0  0  0  0  0  0  0  0
    8.5593    2.6200   25.1781 C   0  0  0  0  0  0  0  0  0  0  0  0
    8.5851    2.8906   23.7999 C   0  0  0  0  0  0  0  0  0  0  0  0
    9.0275    1.8765   23.0011 O   0  0  0  0  0  0  0  0  0  0  0  0
    9.0443    2.0017   21.5831 C   0  0  0  0  0  0  0  0  0  0  0  0
    9.4984    0.6538   21.0161 C   0  0  0  0  0  0  0  0  0  0  0  0
    8.6121   -0.4600   21.4508 C   0  0  0  0  0  0  0  0  0  0  0  0
    8.8334   -1.2802   22.4542 N   0  0  0  0  0  0  0  0  0  0  0  0
    7.6556   -1.9407   22.5803 C   0  0  0  0  0  0  0  0  0  0  0  0
    7.4003   -2.9158   23.6877 C   0  0  0  0  0  0  0  0  0  0  0  0
    8.5567   -3.9234   23.8935 C   0  0  0  0  0  0  0  0  0  0  0  0
    9.4325   -3.2712   24.9816 C   0  0  0  0  0  0  0  0  0  0  0  0
    8.6703   -2.2206   25.5469 O   0  0  0  0  0  0  0  0  0  0  0  0
    7.3488   -2.2088   25.0577 C   0  0  0  0  0  0  0  0  0  0  0  0
    6.6543   -2.7327   25.7394 H   0  0  0  0  0  0  0  0  0  0  0  0
    7.0400   -1.1571   25.0073 H   0  0  0  0  0  0  0  0  0  0  0  0
   10.3474   -2.8301   24.5674 H   0  0  0  0  0  0  0  0  0  0  0  0
    9.7329   -3.9985   25.7539 H   0  0  0  0  0  0  0  0  0  0  0  0
    8.1627   -4.8885   24.2300 H   0  0  0  0  0  0  0  0  0  0  0  0
    9.1278   -4.1031   22.9775 H   0  0  0  0  0  0  0  0  0  0  0  0
    6.4508   -3.3892   23.4494 H   0  0  0  0  0  0  0  0  0  0  0  0
    6.7326   -1.6069   21.7033 N   0  0  0  0  0  0  0  0  0  0  0  0
    7.3572   -0.6616   20.9450 N   0  0  0  0  0  0  0  0  0  0  0  0
    6.6592    0.0112   19.9020 C   0  0  0  0  0  0  0  0  0  0  0  0
    5.4393    0.6454   20.1649 C   0  0  0  0  0  0  0  0  0  0  0  0
    4.8120    1.3112   19.1083 C   0  0  0  0  0  0  0  0  0  0  0  0
    5.4004    1.2964   17.8371 C   0  0  0  0  0  0  0  0  0  0  0  0
    6.5588    0.6718   17.5756 N   0  0  0  0  0  0  0  0  0  0  0  0
    7.1689    0.0516   18.5919 C   0  0  0  0  0  0  0  0  0  0  0  0
    8.1131   -0.4371   18.3643 H   0  0  0  0  0  0  0  0  0  0  0  0
    4.9212    1.7865   16.9928 H   0  0  0  0  0  0  0  0  0  0  0  0
    3.8795    1.8401   19.2587 H   0  0  0  0  0  0  0  0  0  0  0  0
    5.0153    0.6074   21.1726 H   0  0  0  0  0  0  0  0  0  0  0  0
    9.5202    0.7196   19.9269 H   0  0  0  0  0  0  0  0  0  0  0  0
   10.5155    0.4280   21.3395 H   0  0  0  0  0  0  0  0  0  0  0  0
    9.7419    2.7914   21.2728 H   0  0  0  0  0  0  0  0  0  0  0  0
    8.0443    2.2547   21.2015 H   0  0  0  0  0  0  0  0  0  0  0  0
    8.1757    4.1501   23.3447 C   0  0  0  0  0  0  0  0  0  0  0  0
    7.7382    5.1385   24.2422 C   0  0  0  0  0  0  0  0  0  0  0  0
    7.2977    6.4829   23.7126 C   0  0  0  0  0  0  0  0  0  0  0  0
    7.8348    7.3099   24.1900 H   0  0  0  0  0  0  0  0  0  0  0  0
    6.2321    6.6642   23.8953 H   0  0  0  0  0  0  0  0  0  0  0  0
    7.4598    6.5649   22.6362 H   0  0  0  0  0  0  0  0  0  0  0  0
    8.1978    4.3765   22.2822 H   0  0  0  0  0  0  0  0  0  0  0  0
    8.8766    1.6455   25.5386 H   0  0  0  0  0  0  0  0  0  0  0  0
    8.0975    3.3985   27.1351 H   0  0  0  0  0  0  0  0  0  0  0  0
    7.1885    5.5179   27.6424 H   0  0  0  0  0  0  0  0  0  0  0  0
    6.2337    6.2926   26.3799 H   0  0  0  0  0  0  0  0  0  0  0  0
    7.8950    6.7853   26.6445 H   0  0  0  0  0  0  0  0  0  0  0  0
  1  2  1  0
  2  3  2  0
  3  4  1  0
  4  5  2  0
  5  6  1  0
  6  7  1  0
  7  8  1  0
  8  9  1  0
  9 10  2  0
 10 11  1  0
 11 12  1  0
 12 13  1  0
 13 14  1  0
 14 15  1  0
 15 16  1  0
 16 17  1  0
 16 18  1  0
 14 19  1  0
 14 20  1  0
 13 21  1  0
 13 22  1  0
 12 23  1  0
 11 24  2  0
 24 25  1  0
 25 26  1  0
 26 27  2  0
 27 28  1  0
 28 29  2  0
 29 30  1  0
 30 31  2  0
 31 32  1  0
 29 33  1  0
 28 34  1  0
 27 35  1  0
  8 36  1  0
  8 37  1  0
  7 38  1  0
  7 39  1  0
  5 40  1  0
 40 41  2  0
 41 42  1  0
 42 43  1  0
 42 44  1  0
 42 45  1  0
 40 46  1  0
  4 47  1  0
  3 48  1  0
  1 49  1  0
  1 50  1  0
  1 51  1  0
 41  2  1  0
 25  9  1  0
 31 26  1  0
 16 12  1  0
M  END
>  <cnnaffinity>  (1) 
-5.95906

>  <filename>  (1) 
Cc1ccc(OCCc2nc(C3CCOC3)nn2-c2cccnc2)cc1C

$$$$
