
     RDKit          3D

 45 47  0  0  0  0  0  0  0  0999 V2000
    8.3695    2.7160   22.0392 C   0  0  0  0  0  0  0  0  0  0  0  0
    9.7062    2.2127   22.5280 C   0  0  0  0  0  0  0  0  0  0  0  0
   10.3536    2.8840   23.5749 C   0  0  0  0  0  0  0  0  0  0  0  0
   11.5967    2.4615   24.0519 C   0  0  0  0  0  0  0  0  0  0  0  0
   12.2431    1.3819   23.4524 C   0  0  0  0  0  0  0  0  0  0  0  0
   11.6142    0.7062   22.3993 C   0  0  0  0  0  0  0  0  0  0  0  0
   10.3441    1.0925   21.9476 C   0  0  0  0  0  0  0  0  0  0  0  0
    9.6355    0.2527   20.8921 C   0  0  0  0  0  0  0  0  0  0  0  0
    8.5145   -0.5842   21.4540 C   0  0  0  0  0  0  0  0  0  0  0  0
    8.6374   -1.3503   22.5247 N   0  0  0  0  0  0  0  0  0  0  0  0
    7.4305   -1.9677   22.6261 C   0  0  0  0  0  0  0  0  0  0  0  0
    7.1517   -3.0411   23.6417 C   0  0  0  0  0  0  0  0  0  0  0  0
    7.1069   -4.4560   23.0095 C   0  0  0  0  0  0  0  0  0  0  0  0
    6.7734   -5.5437   24.0293 C   0  0  0  0  0  0  0  0  0  0  0  0
    7.5554   -5.6315   24.7966 H   0  0  0  0  0  0  0  0  0  0  0  0
    6.7090   -6.5067   23.5108 H   0  0  0  0  0  0  0  0  0  0  0  0
    5.8162   -5.3579   24.5314 H   0  0  0  0  0  0  0  0  0  0  0  0
    8.4534   -4.7441   22.3447 C   0  0  0  0  0  0  0  0  0  0  0  0
    8.4824   -5.7279   21.8647 H   0  0  0  0  0  0  0  0  0  0  0  0
    8.6849   -3.9859   21.5887 H   0  0  0  0  0  0  0  0  0  0  0  0
    9.2536   -4.7180   23.0994 H   0  0  0  0  0  0  0  0  0  0  0  0
    6.3202   -4.4656   22.2380 H   0  0  0  0  0  0  0  0  0  0  0  0
    6.2148   -2.8169   24.1661 H   0  0  0  0  0  0  0  0  0  0  0  0
    7.9618   -2.9966   24.3779 H   0  0  0  0  0  0  0  0  0  0  0  0
    6.5655   -1.6319   21.6876 N   0  0  0  0  0  0  0  0  0  0  0  0
    7.2646   -0.7553   20.9156 N   0  0  0  0  0  0  0  0  0  0  0  0
    6.5948   -0.0688   19.8628 C   0  0  0  0  0  0  0  0  0  0  0  0
    5.3978    0.6090   20.1203 C   0  0  0  0  0  0  0  0  0  0  0  0
    4.8045    1.3250   19.0774 C   0  0  0  0  0  0  0  0  0  0  0  0
    5.4108    1.3189   17.8146 C   0  0  0  0  0  0  0  0  0  0  0  0
    6.5353    0.6399   17.5465 N   0  0  0  0  0  0  0  0  0  0  0  0
    7.1034   -0.0384   18.5526 C   0  0  0  0  0  0  0  0  0  0  0  0
    8.0093   -0.5950   18.3226 H   0  0  0  0  0  0  0  0  0  0  0  0
    4.9642    1.8636   16.9833 H   0  0  0  0  0  0  0  0  0  0  0  0
    3.8846    1.8789   19.2301 H   0  0  0  0  0  0  0  0  0  0  0  0
    4.9481    0.5566   21.1136 H   0  0  0  0  0  0  0  0  0  0  0  0
    9.2586    0.8845   20.0835 H   0  0  0  0  0  0  0  0  0  0  0  0
   10.3522   -0.4480   20.4484 H   0  0  0  0  0  0  0  0  0  0  0  0
   12.1115   -0.1396   21.9228 H   0  0  0  0  0  0  0  0  0  0  0  0
   13.2243    1.0649   23.7965 H   0  0  0  0  0  0  0  0  0  0  0  0
   12.0528    2.9921   24.8769 H   0  0  0  0  0  0  0  0  0  0  0  0
    9.8700    3.7535   24.0142 H   0  0  0  0  0  0  0  0  0  0  0  0
    8.0272    3.5684   22.6342 H   0  0  0  0  0  0  0  0  0  0  0  0
    7.5997    1.9369   22.0821 H   0  0  0  0  0  0  0  0  0  0  0  0
    8.4454    3.0399   20.9973 H   0  0  0  0  0  0  0  0  0  0  0  0
  1  2  1  0
  2  3  2  0
  3  4  1  0
  4  5  2  0
  5  6  1  0
  6  7  2  0
  7  8  1  0
  8  9  1  0
  9 10  2  0
 10 11  1  0
 11 12  1  0
 12 13  1  0
 13 14  1  0
 14 15  1  0
 14 16  1  0
 14 17  1  0
 13 18  1  0
 18 19  1  0
 18 20  1  0
 18 21  1  0
 13 22  1  0
 12 23  1  0
 12 24  1  0
 11 25  2  0
 25 26  1  0
 26 27  1  0
 27 28  2  0
 28 29  1  0
 29 30  2  0
 30 31  1  0
 31 32  2  0
 32 33  1  0
 30 34  1  0
 29 35  1  0
 28 36  1  0
  8 37  1  0
  8 38  1  0
  6 39  1  0
  5 40  1  0
  4 41  1  0
  3 42  1  0
  1 43  1  0
  1 44  1  0
  1 45  1  0
  7  2  1  0
 26  9  1  0
 32 27  1  0
M  END
>  <cnnaffinity>  (1) 
-6.07199

>  <filename>  (1) 
Cc1ccccc1Cc1nc(CC(C)C)nn1-c1cccnc1

$$$$
