
     RDKit          3D

 45 48  0  0  0  0  0  0  0  0999 V2000
    9.0616   -0.3837   26.9732 C   0  0  0  0  0  0  0  0  0  0  0  0
    7.7924    0.0500   26.2763 C   0  0  0  0  0  0  0  0  0  0  0  0
    6.5107   -0.3907   26.6543 C   0  0  0  0  0  0  0  0  0  0  0  0
    5.3886   -0.1003   25.9848 N   0  0  0  0  0  0  0  0  0  0  0  0
    5.4936    0.6288   24.8618 C   0  0  0  0  0  0  0  0  0  0  0  0
    6.7118    1.1227   24.3738 C   0  0  0  0  0  0  0  0  0  0  0  0
    6.9465    1.7888   23.0082 C   0  0  0  0  0  0  0  0  0  0  0  0
    7.9791    0.9946   22.2469 C   0  0  0  0  0  0  0  0  0  0  0  0
    9.2878    1.1517   22.3327 N   0  0  0  0  0  0  0  0  0  0  0  0
    9.7696   -0.0490   21.9185 C   0  0  0  0  0  0  0  0  0  0  0  0
   11.2020   -0.3851   21.8666 C   0  0  0  0  0  0  0  0  0  0  0  0
   11.5899   -1.5124   21.1238 C   0  0  0  0  0  0  0  0  0  0  0  0
   12.9370   -1.7240   20.8943 C   0  0  0  0  0  0  0  0  0  0  0  0
   13.3359   -2.6098   19.9755 F   0  0  0  0  0  0  0  0  0  0  0  0
   13.9091   -0.9801   21.5431 C   0  0  0  0  0  0  0  0  0  0  0  0
   13.5214    0.1040   22.3296 C   0  0  0  0  0  0  0  0  0  0  0  0
   12.1732    0.4165   22.4928 C   0  0  0  0  0  0  0  0  0  0  0  0
   11.8864    1.2792   23.0873 H   0  0  0  0  0  0  0  0  0  0  0  0
   14.2666    0.7386   22.7971 H   0  0  0  0  0  0  0  0  0  0  0  0
   14.9159   -1.3279   21.4102 H   0  0  0  0  0  0  0  0  0  0  0  0
   10.8471   -2.1916   20.7281 H   0  0  0  0  0  0  0  0  0  0  0  0
    8.8360   -0.9051   21.5377 N   0  0  0  0  0  0  0  0  0  0  0  0
    7.6910   -0.2286   21.7533 N   0  0  0  0  0  0  0  0  0  0  0  0
    6.4457   -0.7190   21.1792 C   0  0  0  0  0  0  0  0  0  0  0  0
    6.0324    0.0377   19.9345 C   0  0  0  0  0  0  0  0  0  0  0  0
    4.8432    0.7677   19.8573 C   0  0  0  0  0  0  0  0  0  0  0  0
    4.5681    1.4874   18.6905 C   0  0  0  0  0  0  0  0  0  0  0  0
    5.4802    1.4256   17.6334 C   0  0  0  0  0  0  0  0  0  0  0  0
    6.6231    0.7253   17.6865 N   0  0  0  0  0  0  0  0  0  0  0  0
    6.8884    0.0646   18.8203 C   0  0  0  0  0  0  0  0  0  0  0  0
    7.8336   -0.4784   18.8488 H   0  0  0  0  0  0  0  0  0  0  0  0
    5.2846    1.9595   16.7019 H   0  0  0  0  0  0  0  0  0  0  0  0
    3.6729    2.0921   18.5929 H   0  0  0  0  0  0  0  0  0  0  0  0
    4.1438    0.7780   20.6974 H   0  0  0  0  0  0  0  0  0  0  0  0
    6.6133   -1.7819   20.9816 H   0  0  0  0  0  0  0  0  0  0  0  0
    5.6763   -0.6408   21.9432 H   0  0  0  0  0  0  0  0  0  0  0  0
    6.0293    1.8708   22.4173 H   0  0  0  0  0  0  0  0  0  0  0  0
    7.3589    2.7949   23.1375 H   0  0  0  0  0  0  0  0  0  0  0  0
    7.8511    0.8713   25.1555 C   0  0  0  0  0  0  0  0  0  0  0  0
    8.8088    1.2749   24.8258 H   0  0  0  0  0  0  0  0  0  0  0  0
    4.5563    0.8116   24.3349 H   0  0  0  0  0  0  0  0  0  0  0  0
    6.3873   -1.0051   27.5458 H   0  0  0  0  0  0  0  0  0  0  0  0
    9.2511   -1.4543   26.8267 H   0  0  0  0  0  0  0  0  0  0  0  0
    9.0283   -0.1929   28.0517 H   0  0  0  0  0  0  0  0  0  0  0  0
    9.9261    0.1467   26.5608 H   0  0  0  0  0  0  0  0  0  0  0  0
  1  2  1  0
  2  3  2  0
  3  4  1  0
  4  5  2  0
  5  6  1  0
  6  7  1  0
  7  8  1  0
  8  9  2  0
  9 10  1  0
 10 11  1  0
 11 12  2  0
 12 13  1  0
 13 14  1  0
 13 15  2  0
 15 16  1  0
 16 17  2  0
 17 18  1  0
 16 19  1  0
 15 20  1  0
 12 21  1  0
 10 22  2  0
 22 23  1  0
 23 24  1  0
 24 25  1  0
 25 26  2  0
 26 27  1  0
 27 28  2  0
 28 29  1  0
 29 30  2  0
 30 31  1  0
 28 32  1  0
 27 33  1  0
 26 34  1  0
 24 35  1  0
 24 36  1  0
  7 37  1  0
  7 38  1  0
  6 39  2  0
 39 40  1  0
  5 41  1  0
  3 42  1  0
  1 43  1  0
  1 44  1  0
  1 45  1  0
 39  2  1  0
 23  8  1  0
 30 25  1  0
 17 11  1  0
M  END
>  <cnnaffinity>  (1) 
-6.48011

>  <filename>  (1) 
Cc1cncc(Cc2nc(-c3cccc(F)c3)nn2Cc2cccnc2)c1

$$$$
