
     RDKit          3D

 46 49  0  0  0  0  0  0  0  0999 V2000
    9.0712    1.0312   26.4101 C   0  0  0  0  0  0  0  0  0  0  0  0
    8.5660    1.3234   25.0291 C   0  0  0  0  0  0  0  0  0  0  0  0
    9.4317    1.3400   24.0227 N   0  0  0  0  0  0  0  0  0  0  0  0
    8.7210    1.6381   22.9267 N   0  0  0  0  0  0  0  0  0  0  0  0
    9.3127    1.6391   21.5780 C   0  0  0  0  0  0  0  0  0  0  0  0
   10.6037    2.4574   21.5937 C   0  0  0  0  0  0  0  0  0  0  0  0
   11.3708    1.9485   22.1864 H   0  0  0  0  0  0  0  0  0  0  0  0
   10.4318    3.4363   22.0507 H   0  0  0  0  0  0  0  0  0  0  0  0
   10.9985    2.6127   20.5884 H   0  0  0  0  0  0  0  0  0  0  0  0
    9.5451    0.2098   20.9686 C   0  0  0  0  0  0  0  0  0  0  0  0
    8.5341   -0.8308   21.3401 C   0  0  0  0  0  0  0  0  0  0  0  0
    8.7065   -1.7130   22.3001 N   0  0  0  0  0  0  0  0  0  0  0  0
    7.4658   -2.2289   22.4888 C   0  0  0  0  0  0  0  0  0  0  0  0
    7.2042   -3.0668   23.6968 C   0  0  0  0  0  0  0  0  0  0  0  0
    6.3744   -2.3647   24.8267 C   0  0  0  0  0  0  0  0  0  0  0  0
    5.2927   -3.4584   24.7028 C   0  0  0  0  0  0  0  0  0  0  0  0
    6.1408   -4.2018   23.6431 C   0  0  0  0  0  0  0  0  0  0  0  0
    5.6624   -4.3587   22.6695 H   0  0  0  0  0  0  0  0  0  0  0  0
    6.5331   -5.1610   24.0000 H   0  0  0  0  0  0  0  0  0  0  0  0
    5.0901   -4.0149   25.6234 H   0  0  0  0  0  0  0  0  0  0  0  0
    4.3360   -3.0885   24.3198 H   0  0  0  0  0  0  0  0  0  0  0  0
    6.0262   -1.3560   24.5750 H   0  0  0  0  0  0  0  0  0  0  0  0
    6.8940   -2.3282   25.7904 H   0  0  0  0  0  0  0  0  0  0  0  0
    8.1900   -3.4036   24.0366 H   0  0  0  0  0  0  0  0  0  0  0  0
    6.5489   -1.7824   21.6475 N   0  0  0  0  0  0  0  0  0  0  0  0
    7.2496   -0.9020   20.8782 N   0  0  0  0  0  0  0  0  0  0  0  0
    6.5931   -0.1613   19.8522 C   0  0  0  0  0  0  0  0  0  0  0  0
    5.4201    0.5492   20.1212 C   0  0  0  0  0  0  0  0  0  0  0  0
    4.8707    1.3277   19.0964 C   0  0  0  0  0  0  0  0  0  0  0  0
    5.4902    1.3387   17.8408 C   0  0  0  0  0  0  0  0  0  0  0  0
    6.5877    0.6183   17.5630 N   0  0  0  0  0  0  0  0  0  0  0  0
    7.1168   -0.1151   18.5494 C   0  0  0  0  0  0  0  0  0  0  0  0
    8.0009   -0.7002   18.3001 H   0  0  0  0  0  0  0  0  0  0  0  0
    5.0801    1.9244   17.0195 H   0  0  0  0  0  0  0  0  0  0  0  0
    3.9768    1.9205   19.2573 H   0  0  0  0  0  0  0  0  0  0  0  0
    4.9541    0.4789   21.1057 H   0  0  0  0  0  0  0  0  0  0  0  0
   10.5088   -0.1835   21.3043 H   0  0  0  0  0  0  0  0  0  0  0  0
    9.5817    0.3145   19.8816 H   0  0  0  0  0  0  0  0  0  0  0  0
    8.5449    2.1297   20.9681 H   0  0  0  0  0  0  0  0  0  0  0  0
    7.4089    1.8149   23.2188 C   0  0  0  0  0  0  0  0  0  0  0  0
    7.2642    1.6264   24.5734 C   0  0  0  0  0  0  0  0  0  0  0  0
    6.3550    1.6666   25.1637 H   0  0  0  0  0  0  0  0  0  0  0  0
    6.7156    2.0459   22.4159 H   0  0  0  0  0  0  0  0  0  0  0  0
    9.1735   -0.0469   26.5937 H   0  0  0  0  0  0  0  0  0  0  0  0
   10.0635    1.4777   26.4993 H   0  0  0  0  0  0  0  0  0  0  0  0
    8.4208    1.4416   27.1887 H   0  0  0  0  0  0  0  0  0  0  0  0
  1  2  1  0
  2  3  2  0
  3  4  1  0
  4  5  1  0
  5  6  1  0
  6  7  1  0
  6  8  1  0
  6  9  1  0
  5 10  1  0
 10 11  1  0
 11 12  2  0
 12 13  1  0
 13 14  1  0
 14 15  1  0
 15 16  1  0
 16 17  1  0
 17 18  1  0
 17 19  1  0
 16 20  1  0
 16 21  1  0
 15 22  1  0
 15 23  1  0
 14 24  1  0
 13 25  2  0
 25 26  1  0
 26 27  1  0
 27 28  2  0
 28 29  1  0
 29 30  2  0
 30 31  1  0
 31 32  2  0
 32 33  1  0
 30 34  1  0
 29 35  1  0
 28 36  1  0
 10 37  1  0
 10 38  1  0
  5 39  1  0
  4 40  1  0
 40 41  2  0
 41 42  1  0
 40 43  1  0
  1 44  1  0
  1 45  1  0
  1 46  1  0
 41  2  1  0
 26 11  1  0
 32 27  1  0
 17 14  1  0
M  END
>  <cnnaffinity>  (1) 
-6.02949

>  <filename>  (1) 
Cc1ccn(C(C)Cc2nc(C3CCC3)nn2-c2cccnc2)n1

$$$$
