
     RDKit          3D

 46 49  0  0  0  0  0  0  0  0999 V2000
   13.9755    2.8649   22.7504 C   0  0  0  0  0  0  0  0  0  0  0  0
   12.9345    1.9007   22.3012 C   0  0  0  0  0  0  0  0  0  0  0  0
   11.8114    2.3233   21.7568 N   0  0  0  0  0  0  0  0  0  0  0  0
   11.0960    1.2169   21.4844 N   0  0  0  0  0  0  0  0  0  0  0  0
    9.7364    1.4103   21.0127 C   0  0  0  0  0  0  0  0  0  0  0  0
    8.7570    1.1510   22.0940 C   0  0  0  0  0  0  0  0  0  0  0  0
    8.7290    1.8291   23.2168 N   0  0  0  0  0  0  0  0  0  0  0  0
    7.6993    1.2613   23.8944 C   0  0  0  0  0  0  0  0  0  0  0  0
    7.2507    1.7738   25.2104 C   0  0  0  0  0  0  0  0  0  0  0  0
    7.9281    2.8637   25.7915 C   0  0  0  0  0  0  0  0  0  0  0  0
    7.4758    3.3573   27.0095 C   0  0  0  0  0  0  0  0  0  0  0  0
    8.0597    4.4497   27.5141 F   0  0  0  0  0  0  0  0  0  0  0  0
    6.4342    2.7720   27.7240 C   0  0  0  0  0  0  0  0  0  0  0  0
    5.7824    1.7038   27.1149 C   0  0  0  0  0  0  0  0  0  0  0  0
    4.7550    1.1385   27.7605 F   0  0  0  0  0  0  0  0  0  0  0  0
    6.1420    1.2029   25.8684 C   0  0  0  0  0  0  0  0  0  0  0  0
    5.5647    0.3957   25.4243 H   0  0  0  0  0  0  0  0  0  0  0  0
    6.1545    3.1174   28.7133 H   0  0  0  0  0  0  0  0  0  0  0  0
    8.8005    3.3045   25.3137 H   0  0  0  0  0  0  0  0  0  0  0  0
    7.1095    0.2693   23.2464 N   0  0  0  0  0  0  0  0  0  0  0  0
    7.7993    0.2007   22.0880 N   0  0  0  0  0  0  0  0  0  0  0  0
    7.3796   -0.7038   21.0198 C   0  0  0  0  0  0  0  0  0  0  0  0
    6.6651    0.0005   19.8765 C   0  0  0  0  0  0  0  0  0  0  0  0
    5.4523    0.6576   20.1266 C   0  0  0  0  0  0  0  0  0  0  0  0
    4.8154    1.3132   19.0721 C   0  0  0  0  0  0  0  0  0  0  0  0
    5.4148    1.3006   17.8101 C   0  0  0  0  0  0  0  0  0  0  0  0
    6.5656    0.6667   17.5449 N   0  0  0  0  0  0  0  0  0  0  0  0
    7.1667    0.0375   18.5645 C   0  0  0  0  0  0  0  0  0  0  0  0
    8.1050   -0.4620   18.3112 H   0  0  0  0  0  0  0  0  0  0  0  0
    4.9500    1.8217   16.9756 H   0  0  0  0  0  0  0  0  0  0  0  0
    3.8792    1.8390   19.2129 H   0  0  0  0  0  0  0  0  0  0  0  0
    5.0268    0.6684   21.1337 H   0  0  0  0  0  0  0  0  0  0  0  0
    6.7185   -1.4213   21.5140 H   0  0  0  0  0  0  0  0  0  0  0  0
    8.2481   -1.2748   20.6662 H   0  0  0  0  0  0  0  0  0  0  0  0
    9.6701    2.4688   20.7570 H   0  0  0  0  0  0  0  0  0  0  0  0
    9.5326    0.8183   20.1174 H   0  0  0  0  0  0  0  0  0  0  0  0
   11.7443    0.0795   21.8791 C   0  0  0  0  0  0  0  0  0  0  0  0
   11.1919   -1.3063   21.7243 C   0  0  0  0  0  0  0  0  0  0  0  0
   10.7420   -1.4348   20.7386 H   0  0  0  0  0  0  0  0  0  0  0  0
   11.9848   -2.0504   21.8329 H   0  0  0  0  0  0  0  0  0  0  0  0
   10.4193   -1.5409   22.4664 H   0  0  0  0  0  0  0  0  0  0  0  0
   12.9570    0.4961   22.3930 C   0  0  0  0  0  0  0  0  0  0  0  0
   13.7889   -0.1028   22.7467 H   0  0  0  0  0  0  0  0  0  0  0  0
   14.9713    2.4848   22.5061 H   0  0  0  0  0  0  0  0  0  0  0  0
   13.8488    3.8335   22.2656 H   0  0  0  0  0  0  0  0  0  0  0  0
   13.8996    3.0064   23.8289 H   0  0  0  0  0  0  0  0  0  0  0  0
  1  2  1  0
  2  3  2  0
  3  4  1  0
  4  5  1  0
  5  6  1  0
  6  7  2  0
  7  8  1  0
  8  9  1  0
  9 10  2  0
 10 11  1  0
 11 12  1  0
 11 13  2  0
 13 14  1  0
 14 15  1  0
 14 16  2  0
 16 17  1  0
 13 18  1  0
 10 19  1  0
  8 20  2  0
 20 21  1  0
 21 22  1  0
 22 23  1  0
 23 24  2  0
 24 25  1  0
 25 26  2  0
 26 27  1  0
 27 28  2  0
 28 29  1  0
 26 30  1  0
 25 31  1  0
 24 32  1  0
 22 33  1  0
 22 34  1  0
  5 35  1  0
  5 36  1  0
  4 37  1  0
 37 38  1  0
 38 39  1  0
 38 40  1  0
 38 41  1  0
 37 42  2  0
 42 43  1  0
  1 44  1  0
  1 45  1  0
  1 46  1  0
 42  2  1  0
 21  6  1  0
 28 23  1  0
 16  9  1  0
M  END
>  <cnnaffinity>  (1) 
-6.5746

>  <filename>  (1) 
Cc1cc(C)n(Cc2nc(-c3cc(F)cc(F)c3)nn2Cc2cccnc2)n1

$$$$
