
     RDKit          3D

 46 49  0  0  0  0  0  0  0  0999 V2000
   12.5745    1.4169   23.4695 C   0  0  0  0  0  0  0  0  0  0  0  0
   12.7537    0.2884   22.4798 C   0  0  0  0  0  0  0  0  0  0  0  0
   14.0436   -0.1383   22.1220 C   0  0  0  0  0  0  0  0  0  0  0  0
   14.2304   -1.2161   21.2465 C   0  0  0  0  0  0  0  0  0  0  0  0
   13.1453   -1.9409   20.7805 C   0  0  0  0  0  0  0  0  0  0  0  0
   11.8686   -1.5721   21.1537 C   0  0  0  0  0  0  0  0  0  0  0  0
   11.6569   -0.3937   21.8849 C   0  0  0  0  0  0  0  0  0  0  0  0
   10.2642    0.0785   21.9495 C   0  0  0  0  0  0  0  0  0  0  0  0
    9.2875   -0.6558   21.4265 N   0  0  0  0  0  0  0  0  0  0  0  0
    8.1702    0.0280   21.7300 N   0  0  0  0  0  0  0  0  0  0  0  0
    6.8810   -0.5003   21.2976 C   0  0  0  0  0  0  0  0  0  0  0  0
    6.3259    0.1982   20.0770 C   0  0  0  0  0  0  0  0  0  0  0  0
    5.1010    0.8705   20.0606 C   0  0  0  0  0  0  0  0  0  0  0  0
    4.7014    1.4999   18.8775 C   0  0  0  0  0  0  0  0  0  0  0  0
    5.5293    1.4092   17.7561 C   0  0  0  0  0  0  0  0  0  0  0  0
    6.6965    0.7470   17.7424 N   0  0  0  0  0  0  0  0  0  0  0  0
    7.0796    0.1756   18.8897 C   0  0  0  0  0  0  0  0  0  0  0  0
    8.0402   -0.3382   18.8791 H   0  0  0  0  0  0  0  0  0  0  0  0
    5.2499    1.8915   16.8232 H   0  0  0  0  0  0  0  0  0  0  0  0
    3.7833    2.0736   18.8178 H   0  0  0  0  0  0  0  0  0  0  0  0
    4.4695    0.9052   20.9516 H   0  0  0  0  0  0  0  0  0  0  0  0
    6.1861   -0.4648   22.1421 H   0  0  0  0  0  0  0  0  0  0  0  0
    7.0876   -1.5536   21.0812 H   0  0  0  0  0  0  0  0  0  0  0  0
    8.5097    1.1581   22.3819 C   0  0  0  0  0  0  0  0  0  0  0  0
    7.5448    2.0333   23.1058 C   0  0  0  0  0  0  0  0  0  0  0  0
    7.2065    1.3613   24.4028 C   0  0  0  0  0  0  0  0  0  0  0  0
    8.1235    1.2835   25.3576 N   0  0  0  0  0  0  0  0  0  0  0  0
    7.6446    0.4250   26.2691 N   0  0  0  0  0  0  0  0  0  0  0  0
    8.5005    0.0170   27.3729 C   0  0  0  0  0  0  0  0  0  0  0  0
    9.5304    0.2485   27.0922 H   0  0  0  0  0  0  0  0  0  0  0  0
    8.4105   -1.0603   27.5337 H   0  0  0  0  0  0  0  0  0  0  0  0
    8.2373    0.5559   28.2868 H   0  0  0  0  0  0  0  0  0  0  0  0
    6.4056   -0.0003   25.9259 C   0  0  0  0  0  0  0  0  0  0  0  0
    5.5547   -1.1511   26.8706 Cl  0  0  0  0  0  0  0  0  0  0  0  0
    6.0720    0.5984   24.7295 C   0  0  0  0  0  0  0  0  0  0  0  0
    5.1413    0.5218   24.1867 H   0  0  0  0  0  0  0  0  0  0  0  0
    8.0430    2.9837   23.3028 H   0  0  0  0  0  0  0  0  0  0  0  0
    6.6509    2.1957   22.4967 H   0  0  0  0  0  0  0  0  0  0  0  0
    9.8168    1.2211   22.5289 N   0  0  0  0  0  0  0  0  0  0  0  0
   11.0043   -2.1488   20.8365 H   0  0  0  0  0  0  0  0  0  0  0  0
   13.2969   -2.7659   20.0946 H   0  0  0  0  0  0  0  0  0  0  0  0
   15.1775   -1.5362   20.8569 H   0  0  0  0  0  0  0  0  0  0  0  0
   14.8949    0.4084   22.5227 H   0  0  0  0  0  0  0  0  0  0  0  0
   13.5299    1.7064   23.9225 H   0  0  0  0  0  0  0  0  0  0  0  0
   12.1253    2.2932   22.9918 H   0  0  0  0  0  0  0  0  0  0  0  0
   11.8827    1.1195   24.2659 H   0  0  0  0  0  0  0  0  0  0  0  0
  1  2  1  0
  2  3  2  0
  3  4  1  0
  4  5  2  0
  5  6  1  0
  6  7  2  0
  7  8  1  0
  8  9  2  0
  9 10  1  0
 10 11  1  0
 11 12  1  0
 12 13  2  0
 13 14  1  0
 14 15  2  0
 15 16  1  0
 16 17  2  0
 17 18  1  0
 15 19  1  0
 14 20  1  0
 13 21  1  0
 11 22  1  0
 11 23  1  0
 10 24  1  0
 24 25  1  0
 25 26  1  0
 26 27  2  0
 27 28  1  0
 28 29  1  0
 29 30  1  0
 29 31  1  0
 29 32  1  0
 28 33  1  0
 33 34  1  0
 33 35  2  0
 35 36  1  0
 25 37  1  0
 25 38  1  0
 24 39  2  0
  6 40  1  0
  5 41  1  0
  4 42  1  0
  3 43  1  0
  1 44  1  0
  1 45  1  0
  1 46  1  0
  7  2  1  0
 39  8  1  0
 17 12  1  0
 35 26  1  0
M  END
>  <cnnaffinity>  (1) 
-6.71419

>  <filename>  (1) 
Cc1ccccc1-c1nc(Cc2cc(Cl)n(C)n2)n(Cc2cccnc2)n1

$$$$
