
     RDKit          3D

 54 57  0  0  0  0  0  0  0  0999 V2000
    7.3614    3.6094   27.2691 C   0  0  0  0  0  0  0  0  0  0  0  0
    7.6460    3.8065   25.7974 C   0  0  0  0  0  0  0  0  0  0  0  0
    7.3690    5.0562   25.2284 C   0  0  0  0  0  0  0  0  0  0  0  0
    7.5840    5.2767   23.8705 C   0  0  0  0  0  0  0  0  0  0  0  0
    8.0902    4.2554   23.0613 C   0  0  0  0  0  0  0  0  0  0  0  0
    8.3937    3.0072   23.6246 C   0  0  0  0  0  0  0  0  0  0  0  0
    8.8942    1.9581   22.8993 O   0  0  0  0  0  0  0  0  0  0  0  0
    9.0225    2.0219   21.4869 C   0  0  0  0  0  0  0  0  0  0  0  0
    9.5045    0.6498   21.0078 C   0  0  0  0  0  0  0  0  0  0  0  0
    8.6146   -0.4529   21.4498 C   0  0  0  0  0  0  0  0  0  0  0  0
    8.8483   -1.2871   22.4373 N   0  0  0  0  0  0  0  0  0  0  0  0
    7.6648   -1.9493   22.5634 C   0  0  0  0  0  0  0  0  0  0  0  0
    7.4382   -2.9388   23.6693 C   0  0  0  0  0  0  0  0  0  0  0  0
    7.4317   -2.2499   25.0633 C   0  0  0  0  0  0  0  0  0  0  0  0
    7.3347   -3.2917   26.1786 C   0  0  0  0  0  0  0  0  0  0  0  0
    8.3660   -4.2586   26.0830 O   0  0  0  0  0  0  0  0  0  0  0  0
    8.3134   -4.9871   24.8687 C   0  0  0  0  0  0  0  0  0  0  0  0
    8.4887   -4.0770   23.6511 C   0  0  0  0  0  0  0  0  0  0  0  0
    8.4067   -4.6679   22.7303 H   0  0  0  0  0  0  0  0  0  0  0  0
    9.4955   -3.6415   23.6695 H   0  0  0  0  0  0  0  0  0  0  0  0
    9.1066   -5.7356   24.9273 H   0  0  0  0  0  0  0  0  0  0  0  0
    7.3475   -5.5198   24.7980 H   0  0  0  0  0  0  0  0  0  0  0  0
    6.3512   -3.7932   26.1327 H   0  0  0  0  0  0  0  0  0  0  0  0
    7.4345   -2.8374   27.1675 H   0  0  0  0  0  0  0  0  0  0  0  0
    8.3665   -1.6823   25.1888 H   0  0  0  0  0  0  0  0  0  0  0  0
    6.5959   -1.5407   25.1425 H   0  0  0  0  0  0  0  0  0  0  0  0
    6.4436   -3.3587   23.4804 H   0  0  0  0  0  0  0  0  0  0  0  0
    6.7390   -1.6042   21.6945 N   0  0  0  0  0  0  0  0  0  0  0  0
    7.3604   -0.6509   20.9473 N   0  0  0  0  0  0  0  0  0  0  0  0
    6.6610    0.0172   19.9023 C   0  0  0  0  0  0  0  0  0  0  0  0
    5.4382    0.6457   20.1646 C   0  0  0  0  0  0  0  0  0  0  0  0
    4.8122    1.3110   19.1065 C   0  0  0  0  0  0  0  0  0  0  0  0
    5.3998    1.2976   17.8354 C   0  0  0  0  0  0  0  0  0  0  0  0
    6.5574    0.6721   17.5731 N   0  0  0  0  0  0  0  0  0  0  0  0
    7.1685    0.0546   18.5915 C   0  0  0  0  0  0  0  0  0  0  0  0
    8.1109   -0.4361   18.3616 H   0  0  0  0  0  0  0  0  0  0  0  0
    4.9247    1.7898   16.9902 H   0  0  0  0  0  0  0  0  0  0  0  0
    3.8806    1.8388   19.2562 H   0  0  0  0  0  0  0  0  0  0  0  0
    5.0157    0.6031   21.1731 H   0  0  0  0  0  0  0  0  0  0  0  0
    9.5602    0.6621   19.9186 H   0  0  0  0  0  0  0  0  0  0  0  0
   10.5102    0.4379   21.3735 H   0  0  0  0  0  0  0  0  0  0  0  0
    9.7542    2.7902   21.2037 H   0  0  0  0  0  0  0  0  0  0  0  0
    8.0592    2.2691   21.0160 H   0  0  0  0  0  0  0  0  0  0  0  0
    8.2002    2.7716   25.0114 C   0  0  0  0  0  0  0  0  0  0  0  0
    8.5237    1.4287   25.6470 C   0  0  0  0  0  0  0  0  0  0  0  0
    7.6095    0.8446   25.8207 H   0  0  0  0  0  0  0  0  0  0  0  0
    9.1724    0.8257   25.0066 H   0  0  0  0  0  0  0  0  0  0  0  0
    8.9971    1.5390   26.6290 H   0  0  0  0  0  0  0  0  0  0  0  0
    8.2486    4.4244   21.9997 H   0  0  0  0  0  0  0  0  0  0  0  0
    7.3427    6.2433   23.4369 H   0  0  0  0  0  0  0  0  0  0  0  0
    6.9665    5.8376   25.8720 H   0  0  0  0  0  0  0  0  0  0  0  0
    6.8251    2.6836   27.4969 H   0  0  0  0  0  0  0  0  0  0  0  0
    6.8147    4.4470   27.7095 H   0  0  0  0  0  0  0  0  0  0  0  0
    8.2890    3.5353   27.8187 H   0  0  0  0  0  0  0  0  0  0  0  0
  1  2  1  0
  2  3  2  0
  3  4  1  0
  4  5  2  0
  5  6  1  0
  6  7  1  0
  7  8  1  0
  8  9  1  0
  9 10  1  0
 10 11  2  0
 11 12  1  0
 12 13  1  0
 13 14  1  0
 14 15  1  0
 15 16  1  0
 16 17  1  0
 17 18  1  0
 18 19  1  0
 18 20  1  0
 17 21  1  0
 17 22  1  0
 15 23  1  0
 15 24  1  0
 14 25  1  0
 14 26  1  0
 13 27  1  0
 12 28  2  0
 28 29  1  0
 29 30  1  0
 30 31  2  0
 31 32  1  0
 32 33  2  0
 33 34  1  0
 34 35  2  0
 35 36  1  0
 33 37  1  0
 32 38  1  0
 31 39  1  0
  9 40  1  0
  9 41  1  0
  8 42  1  0
  8 43  1  0
  6 44  2  0
 44 45  1  0
 45 46  1  0
 45 47  1  0
 45 48  1  0
  5 49  1  0
  4 50  1  0
  3 51  1  0
  1 52  1  0
  1 53  1  0
  1 54  1  0
 44  2  1  0
 29 10  1  0
 35 30  1  0
 18 13  1  0
M  END
>  <cnnaffinity>  (1) 
-6.12246

>  <filename>  (1) 
Cc1cccc(OCCc2nc(C3CCOCC3)nn2-c2cccnc2)c1C

$$$$
