
     RDKit          3D

 44 47  0  0  0  0  0  0  0  0999 V2000
   10.9835    3.7039   23.9501 C   0  0  0  0  0  0  0  0  0  0  0  0
   11.2894    2.3901   23.2604 C   0  0  0  0  0  0  0  0  0  0  0  0
   12.4678    1.6772   23.5248 C   0  0  0  0  0  0  0  0  0  0  0  0
   12.7513    0.5233   22.7967 C   0  0  0  0  0  0  0  0  0  0  0  0
   13.8987   -0.1306   23.0358 F   0  0  0  0  0  0  0  0  0  0  0  0
   11.8832    0.0207   21.8318 C   0  0  0  0  0  0  0  0  0  0  0  0
   10.6860    0.7010   21.5897 C   0  0  0  0  0  0  0  0  0  0  0  0
    9.6601    0.1321   20.6350 C   0  0  0  0  0  0  0  0  0  0  0  0
    8.5972   -0.6590   21.3260 C   0  0  0  0  0  0  0  0  0  0  0  0
    8.7955   -1.4586   22.3555 N   0  0  0  0  0  0  0  0  0  0  0  0
    7.5788   -2.0122   22.5588 C   0  0  0  0  0  0  0  0  0  0  0  0
    7.3429   -3.0245   23.6293 C   0  0  0  0  0  0  0  0  0  0  0  0
    6.7199   -4.3602   23.1648 C   0  0  0  0  0  0  0  0  0  0  0  0
    5.9718   -4.8449   24.4123 C   0  0  0  0  0  0  0  0  0  0  0  0
    5.7939   -3.7250   25.2647 O   0  0  0  0  0  0  0  0  0  0  0  0
    6.3535   -2.5537   24.7084 C   0  0  0  0  0  0  0  0  0  0  0  0
    6.8510   -1.9995   25.5130 H   0  0  0  0  0  0  0  0  0  0  0  0
    5.5692   -1.9112   24.2839 H   0  0  0  0  0  0  0  0  0  0  0  0
    6.5295   -5.6106   24.9667 H   0  0  0  0  0  0  0  0  0  0  0  0
    4.9973   -5.2756   24.1523 H   0  0  0  0  0  0  0  0  0  0  0  0
    7.4789   -5.0801   22.8403 H   0  0  0  0  0  0  0  0  0  0  0  0
    6.0217   -4.1835   22.3348 H   0  0  0  0  0  0  0  0  0  0  0  0
    8.3171   -3.2100   24.0925 H   0  0  0  0  0  0  0  0  0  0  0  0
    6.6328   -1.5996   21.7336 N   0  0  0  0  0  0  0  0  0  0  0  0
    7.2993   -0.7527   20.9085 N   0  0  0  0  0  0  0  0  0  0  0  0
    6.6071   -0.0639   19.8734 C   0  0  0  0  0  0  0  0  0  0  0  0
    5.4085    0.6034   20.1415 C   0  0  0  0  0  0  0  0  0  0  0  0
    4.8055    1.3070   19.0939 C   0  0  0  0  0  0  0  0  0  0  0  0
    5.3985    1.3064   17.8247 C   0  0  0  0  0  0  0  0  0  0  0  0
    6.5353    0.6472   17.5573 N   0  0  0  0  0  0  0  0  0  0  0  0
    7.1145   -0.0166   18.5634 C   0  0  0  0  0  0  0  0  0  0  0  0
    8.0435   -0.5295   18.3287 H   0  0  0  0  0  0  0  0  0  0  0  0
    4.9447    1.8393   16.9893 H   0  0  0  0  0  0  0  0  0  0  0  0
    3.8836    1.8552   19.2463 H   0  0  0  0  0  0  0  0  0  0  0  0
    4.9769    0.5750   21.1439 H   0  0  0  0  0  0  0  0  0  0  0  0
    9.2038    0.9337   20.0491 H   0  0  0  0  0  0  0  0  0  0  0  0
   10.1159   -0.5689   19.9272 H   0  0  0  0  0  0  0  0  0  0  0  0
   10.3976    1.8696   22.3045 C   0  0  0  0  0  0  0  0  0  0  0  0
    9.4520    2.3715   22.1135 H   0  0  0  0  0  0  0  0  0  0  0  0
   12.1553   -0.8815   21.2890 H   0  0  0  0  0  0  0  0  0  0  0  0
   13.1798    2.0057   24.2747 H   0  0  0  0  0  0  0  0  0  0  0  0
   10.8381    4.5053   23.2142 H   0  0  0  0  0  0  0  0  0  0  0  0
   11.7839    4.0045   24.6329 H   0  0  0  0  0  0  0  0  0  0  0  0
   10.0562    3.6394   24.5292 H   0  0  0  0  0  0  0  0  0  0  0  0
  1  2  1  0
  2  3  2  0
  3  4  1  0
  4  5  1  0
  4  6  2  0
  6  7  1  0
  7  8  1  0
  8  9  1  0
  9 10  2  0
 10 11  1  0
 11 12  1  0
 12 13  1  0
 13 14  1  0
 14 15  1  0
 15 16  1  0
 16 17  1  0
 16 18  1  0
 14 19  1  0
 14 20  1  0
 13 21  1  0
 13 22  1  0
 12 23  1  0
 11 24  2  0
 24 25  1  0
 25 26  1  0
 26 27  2  0
 27 28  1  0
 28 29  2  0
 29 30  1  0
 30 31  2  0
 31 32  1  0
 29 33  1  0
 28 34  1  0
 27 35  1  0
  8 36  1  0
  8 37  1  0
  7 38  2  0
 38 39  1  0
  6 40  1  0
  3 41  1  0
  1 42  1  0
  1 43  1  0
  1 44  1  0
 38  2  1  0
 25  9  1  0
 31 26  1  0
 16 12  1  0
M  END
>  <cnnaffinity>  (1) 
-6.48613

>  <filename>  (1) 
Cc1cc(F)cc(Cc2nc(C3CCOC3)nn2-c2cccnc2)c1

$$$$
