
     RDKit          3D

 46 49  0  0  0  0  0  0  0  0999 V2000
    8.2931   -0.4886   27.4304 C   0  0  0  0  0  0  0  0  0  0  0  0
    7.8456    0.1058   26.1364 C   0  0  0  0  0  0  0  0  0  0  0  0
    8.4274    1.0381   25.3086 C   0  0  0  0  0  0  0  0  0  0  0  0
    7.5944    1.1086   24.1762 C   0  0  0  0  0  0  0  0  0  0  0  0
    7.9019    1.7940   22.8834 C   0  0  0  0  0  0  0  0  0  0  0  0
    8.9000    0.9360   22.1761 C   0  0  0  0  0  0  0  0  0  0  0  0
   10.2027    0.9924   22.3558 N   0  0  0  0  0  0  0  0  0  0  0  0
   10.6512   -0.1529   21.7684 C   0  0  0  0  0  0  0  0  0  0  0  0
   12.0822   -0.5263   21.6313 C   0  0  0  0  0  0  0  0  0  0  0  0
   12.4642   -1.6326   20.8558 C   0  0  0  0  0  0  0  0  0  0  0  0
   13.7608   -1.7899   20.3315 C   0  0  0  0  0  0  0  0  0  0  0  0
   14.7214   -0.7881   20.5376 C   0  0  0  0  0  0  0  0  0  0  0  0
   16.0226   -0.2987   19.6536 C   0  0  0  0  0  0  0  0  0  0  0  0
   15.9395    0.1226   18.6413 H   0  0  0  0  0  0  0  0  0  0  0  0
   16.3764    0.5824   20.1645 H   0  0  0  0  0  0  0  0  0  0  0  0
   16.8410   -1.0165   19.6542 H   0  0  0  0  0  0  0  0  0  0  0  0
   14.3908    0.0680   21.6503 C   0  0  0  0  0  0  0  0  0  0  0  0
   15.3109    0.9001   22.1613 F   0  0  0  0  0  0  0  0  0  0  0  0
   13.1139    0.2643   22.1524 C   0  0  0  0  0  0  0  0  0  0  0  0
   12.9428    1.1024   22.8205 H   0  0  0  0  0  0  0  0  0  0  0  0
   14.0027   -2.6947   19.7834 H   0  0  0  0  0  0  0  0  0  0  0  0
   11.6744   -2.3264   20.6511 H   0  0  0  0  0  0  0  0  0  0  0  0
    9.6876   -0.8854   21.2302 N   0  0  0  0  0  0  0  0  0  0  0  0
    8.5702   -0.1852   21.5041 N   0  0  0  0  0  0  0  0  0  0  0  0
    7.2711   -0.7026   21.0936 C   0  0  0  0  0  0  0  0  0  0  0  0
    6.6161    0.0587   19.9606 C   0  0  0  0  0  0  0  0  0  0  0  0
    5.3823    0.7004   20.1111 C   0  0  0  0  0  0  0  0  0  0  0  0
    4.8148    1.3435   19.0084 C   0  0  0  0  0  0  0  0  0  0  0  0
    5.5055    1.3221   17.7931 C   0  0  0  0  0  0  0  0  0  0  0  0
    6.6909    0.7137   17.6271 N   0  0  0  0  0  0  0  0  0  0  0  0
    7.2266    0.1088   18.6947 C   0  0  0  0  0  0  0  0  0  0  0  0
    8.1898   -0.3761   18.5356 H   0  0  0  0  0  0  0  0  0  0  0  0
    5.0850    1.8068   16.9131 H   0  0  0  0  0  0  0  0  0  0  0  0
    3.8677    1.8664   19.0830 H   0  0  0  0  0  0  0  0  0  0  0  0
    4.8736    0.6955   21.0797 H   0  0  0  0  0  0  0  0  0  0  0  0
    7.4677   -1.7375   20.7994 H   0  0  0  0  0  0  0  0  0  0  0  0
    6.6248   -0.7109   21.9789 H   0  0  0  0  0  0  0  0  0  0  0  0
    8.3382    2.7766   23.0675 H   0  0  0  0  0  0  0  0  0  0  0  0
    6.9929    1.9062   22.2899 H   0  0  0  0  0  0  0  0  0  0  0  0
    6.5574    0.2936   24.2851 N   0  0  0  0  0  0  0  0  0  0  0  0
    6.7217   -0.2894   25.4894 N   0  0  0  0  0  0  0  0  0  0  0  0
    6.0478   -0.9703   25.8033 H   0  0  0  0  0  0  0  0  0  0  0  0
    9.3639    1.5617   25.4309 H   0  0  0  0  0  0  0  0  0  0  0  0
    8.9300    0.2191   27.9622 H   0  0  0  0  0  0  0  0  0  0  0  0
    7.4392   -0.7369   28.0650 H   0  0  0  0  0  0  0  0  0  0  0  0
    8.8768   -1.4009   27.2661 H   0  0  0  0  0  0  0  0  0  0  0  0
  1  2  1  0
  2  3  2  0
  3  4  1  0
  4  5  1  0
  5  6  1  0
  6  7  2  0
  7  8  1  0
  8  9  1  0
  9 10  2  0
 10 11  1  0
 11 12  2  0
 12 13  1  0
 13 14  1  0
 13 15  1  0
 13 16  1  0
 12 17  1  0
 17 18  1  0
 17 19  2  0
 19 20  1  0
 11 21  1  0
 10 22  1  0
  8 23  2  0
 23 24  1  0
 24 25  1  0
 25 26  1  0
 26 27  2  0
 27 28  1  0
 28 29  2  0
 29 30  1  0
 30 31  2  0
 31 32  1  0
 29 33  1  0
 28 34  1  0
 27 35  1  0
 25 36  1  0
 25 37  1  0
  5 38  1  0
  5 39  1  0
  4 40  2  0
 40 41  1  0
 41 42  1  0
  3 43  1  0
  1 44  1  0
  1 45  1  0
  1 46  1  0
 41  2  1  0
 24  6  1  0
 31 26  1  0
 19  9  1  0
M  END
>  <cnnaffinity>  (1) 
-6.64515

>  <filename>  (1) 
Cc1cc(Cc2nc(-c3ccc(C)c(F)c3)nn2Cc2cccnc2)n[nH]1

$$$$
