
     RDKit          3D

 42 45  0  0  0  0  0  0  0  0999 V2000
    4.7159   -0.9288   26.6541 C   0  0  0  0  0  0  0  0  0  0  0  0
    5.5813    0.1301   26.0289 C   0  0  0  0  0  0  0  0  0  0  0  0
    5.4635    0.6266   24.7638 C   0  0  0  0  0  0  0  0  0  0  0  0
    6.5627    1.4421   24.3509 C   0  0  0  0  0  0  0  0  0  0  0  0
    6.8546    1.8519   22.9160 C   0  0  0  0  0  0  0  0  0  0  0  0
    7.9097    0.9531   22.3366 C   0  0  0  0  0  0  0  0  0  0  0  0
    9.1954    1.1186   22.5533 N   0  0  0  0  0  0  0  0  0  0  0  0
    9.7369   -0.0709   22.1812 C   0  0  0  0  0  0  0  0  0  0  0  0
   11.1770   -0.2717   22.3224 C   0  0  0  0  0  0  0  0  0  0  0  0
   11.9411   -1.2170   21.6116 C   0  0  0  0  0  0  0  0  0  0  0  0
   13.3170   -1.1590   21.8090 C   0  0  0  0  0  0  0  0  0  0  0  0
   14.1306   -1.9997   21.1588 F   0  0  0  0  0  0  0  0  0  0  0  0
   13.8786   -0.2106   22.6763 C   0  0  0  0  0  0  0  0  0  0  0  0
   13.1420    0.6580   23.3716 N   0  0  0  0  0  0  0  0  0  0  0  0
   11.8197    0.6324   23.1862 C   0  0  0  0  0  0  0  0  0  0  0  0
   11.2258    1.3369   23.7555 H   0  0  0  0  0  0  0  0  0  0  0  0
   14.9562   -0.1514   22.7889 H   0  0  0  0  0  0  0  0  0  0  0  0
   11.5040   -1.9438   20.9260 H   0  0  0  0  0  0  0  0  0  0  0  0
    8.8686   -0.9350   21.6990 N   0  0  0  0  0  0  0  0  0  0  0  0
    7.6893   -0.2694   21.8083 N   0  0  0  0  0  0  0  0  0  0  0  0
    6.4743   -0.7768   21.1805 C   0  0  0  0  0  0  0  0  0  0  0  0
    6.0758   -0.0055   19.9392 C   0  0  0  0  0  0  0  0  0  0  0  0
    4.8885    0.7260   19.8326 C   0  0  0  0  0  0  0  0  0  0  0  0
    4.6681    1.4858   18.6791 C   0  0  0  0  0  0  0  0  0  0  0  0
    5.6288    1.4598   17.6650 C   0  0  0  0  0  0  0  0  0  0  0  0
    6.7601    0.7434   17.7367 N   0  0  0  0  0  0  0  0  0  0  0  0
    6.9686    0.0400   18.8552 C   0  0  0  0  0  0  0  0  0  0  0  0
    7.9030   -0.5180   18.9020 H   0  0  0  0  0  0  0  0  0  0  0  0
    5.4830    2.0303   16.7494 H   0  0  0  0  0  0  0  0  0  0  0  0
    3.7828    2.1008   18.5593 H   0  0  0  0  0  0  0  0  0  0  0  0
    4.1449    0.7055   20.6332 H   0  0  0  0  0  0  0  0  0  0  0  0
    5.6780   -0.7526   21.9221 H   0  0  0  0  0  0  0  0  0  0  0  0
    6.6672   -1.8263   20.9496 H   0  0  0  0  0  0  0  0  0  0  0  0
    5.9496    1.8368   22.3043 H   0  0  0  0  0  0  0  0  0  0  0  0
    7.2503    2.8705   22.8736 H   0  0  0  0  0  0  0  0  0  0  0  0
    7.4458    1.6304   25.3701 C   0  0  0  0  0  0  0  0  0  0  0  0
    6.9890    0.7896   26.8035 S   0  0  0  0  0  0  0  0  0  0  0  0
    8.3832    2.1702   25.3228 H   0  0  0  0  0  0  0  0  0  0  0  0
    4.5830    0.4536   24.1602 H   0  0  0  0  0  0  0  0  0  0  0  0
    5.0954   -1.9253   26.3857 H   0  0  0  0  0  0  0  0  0  0  0  0
    3.6984   -0.8649   26.2555 H   0  0  0  0  0  0  0  0  0  0  0  0
    4.6738   -0.8661   27.7449 H   0  0  0  0  0  0  0  0  0  0  0  0
  1  2  1  0
  2  3  2  0
  3  4  1  0
  4  5  1  0
  5  6  1  0
  6  7  2  0
  7  8  1  0
  8  9  1  0
  9 10  2  0
 10 11  1  0
 11 12  1  0
 11 13  2  0
 13 14  1  0
 14 15  2  0
 15 16  1  0
 13 17  1  0
 10 18  1  0
  8 19  2  0
 19 20  1  0
 20 21  1  0
 21 22  1  0
 22 23  2  0
 23 24  1  0
 24 25  2  0
 25 26  1  0
 26 27  2  0
 27 28  1  0
 25 29  1  0
 24 30  1  0
 23 31  1  0
 21 32  1  0
 21 33  1  0
  5 34  1  0
  5 35  1  0
  4 36  2  0
 36 37  1  0
 36 38  1  0
  3 39  1  0
  1 40  1  0
  1 41  1  0
  1 42  1  0
 37  2  1  0
 20  6  1  0
 27 22  1  0
 15  9  1  0
M  END
>  <cnnaffinity>  (1) 
-6.14472

>  <filename>  (1) 
Cc1cc(Cc2nc(-c3cncc(F)c3)nn2Cc2cccnc2)cs1

$$$$
