
     RDKit          3D

 42 45  0  0  0  0  0  0  0  0999 V2000
   12.6255    1.3869   23.3500 C   0  0  0  0  0  0  0  0  0  0  0  0
   11.3064    2.1205   23.3167 C   0  0  0  0  0  0  0  0  0  0  0  0
   11.0411    3.1915   24.1749 C   0  0  0  0  0  0  0  0  0  0  0  0
    9.7498    3.7128   24.3310 C   0  0  0  0  0  0  0  0  0  0  0  0
    8.7103    3.1838   23.5727 C   0  0  0  0  0  0  0  0  0  0  0  0
    8.9679    2.1925   22.6202 C   0  0  0  0  0  0  0  0  0  0  0  0
   10.2589    1.6711   22.4794 C   0  0  0  0  0  0  0  0  0  0  0  0
   10.5949    0.6946   21.5733 O   0  0  0  0  0  0  0  0  0  0  0  0
    9.6273    0.1374   20.7050 C   0  0  0  0  0  0  0  0  0  0  0  0
    8.5452   -0.6677   21.3745 C   0  0  0  0  0  0  0  0  0  0  0  0
    8.7133   -1.4678   22.4096 N   0  0  0  0  0  0  0  0  0  0  0  0
    7.4932   -2.0285   22.5723 C   0  0  0  0  0  0  0  0  0  0  0  0
    7.2394   -2.9850   23.6917 C   0  0  0  0  0  0  0  0  0  0  0  0
    6.4905   -4.2904   23.3163 C   0  0  0  0  0  0  0  0  0  0  0  0
    5.1088   -3.9075   24.4421 S   0  0  0  0  0  0  0  0  0  0  0  0
    6.2234   -2.5012   24.7674 C   0  0  0  0  0  0  0  0  0  0  0  0
    5.7594   -1.5290   24.5767 H   0  0  0  0  0  0  0  0  0  0  0  0
    6.6263   -2.5144   25.7845 H   0  0  0  0  0  0  0  0  0  0  0  0
    7.0239   -5.1964   23.6165 H   0  0  0  0  0  0  0  0  0  0  0  0
    6.1815   -4.3745   22.2700 H   0  0  0  0  0  0  0  0  0  0  0  0
    8.2183   -3.1918   24.1313 H   0  0  0  0  0  0  0  0  0  0  0  0
    6.5857   -1.6468   21.6964 N   0  0  0  0  0  0  0  0  0  0  0  0
    7.2685   -0.7856   20.8966 N   0  0  0  0  0  0  0  0  0  0  0  0
    6.5889   -0.1008   19.8435 C   0  0  0  0  0  0  0  0  0  0  0  0
    5.3894    0.5750   20.1083 C   0  0  0  0  0  0  0  0  0  0  0  0
    4.7989    1.3053   19.0753 C   0  0  0  0  0  0  0  0  0  0  0  0
    5.4046    1.3113   17.8119 C   0  0  0  0  0  0  0  0  0  0  0  0
    6.5227    0.6219   17.5346 N   0  0  0  0  0  0  0  0  0  0  0  0
    7.0902   -0.0720   18.5270 C   0  0  0  0  0  0  0  0  0  0  0  0
    7.9871   -0.6361   18.2691 H   0  0  0  0  0  0  0  0  0  0  0  0
    4.9730    1.8786   16.9914 H   0  0  0  0  0  0  0  0  0  0  0  0
    3.8861    1.8733   19.2341 H   0  0  0  0  0  0  0  0  0  0  0  0
    4.9495    0.5231   21.1060 H   0  0  0  0  0  0  0  0  0  0  0  0
    9.2030    0.9107   20.0547 H   0  0  0  0  0  0  0  0  0  0  0  0
   10.1986   -0.5603   20.0890 H   0  0  0  0  0  0  0  0  0  0  0  0
    8.1518    1.8086   22.0203 H   0  0  0  0  0  0  0  0  0  0  0  0
    7.6968    3.5397   23.7307 H   0  0  0  0  0  0  0  0  0  0  0  0
    9.5561    4.5000   25.0501 H   0  0  0  0  0  0  0  0  0  0  0  0
   11.8476    3.5952   24.7760 H   0  0  0  0  0  0  0  0  0  0  0  0
   12.4467    0.3168   23.5236 H   0  0  0  0  0  0  0  0  0  0  0  0
   13.2600    1.7563   24.1568 H   0  0  0  0  0  0  0  0  0  0  0  0
   13.1551    1.4623   22.3953 H   0  0  0  0  0  0  0  0  0  0  0  0
  1  2  1  0
  2  3  2  0
  3  4  1  0
  4  5  2  0
  5  6  1  0
  6  7  2  0
  7  8  1  0
  8  9  1  0
  9 10  1  0
 10 11  2  0
 11 12  1  0
 12 13  1  0
 13 14  1  0
 14 15  1  0
 15 16  1  0
 16 17  1  0
 16 18  1  0
 14 19  1  0
 14 20  1  0
 13 21  1  0
 12 22  2  0
 22 23  1  0
 23 24  1  0
 24 25  2  0
 25 26  1  0
 26 27  2  0
 27 28  1  0
 28 29  2  0
 29 30  1  0
 27 31  1  0
 26 32  1  0
 25 33  1  0
  9 34  1  0
  9 35  1  0
  6 36  1  0
  5 37  1  0
  4 38  1  0
  3 39  1  0
  1 40  1  0
  1 41  1  0
  1 42  1  0
  7  2  1  0
 23 10  1  0
 29 24  1  0
 16 13  1  0
M  END
>  <cnnaffinity>  (1) 
-5.93364

>  <filename>  (1) 
Cc1ccccc1OCc1nc(C2CSC2)nn1-c1cccnc1

$$$$
