
     RDKit          3D

 46 49  0  0  0  0  0  0  0  0999 V2000
    2.4792    2.9958   26.8086 C   0  0  0  0  0  0  0  0  0  0  0  0
    3.8554    2.8766   26.2364 C   0  0  0  0  0  0  0  0  0  0  0  0
    4.8044    3.7586   26.5206 N   0  0  0  0  0  0  0  0  0  0  0  0
    5.8978    3.2993   25.8860 N   0  0  0  0  0  0  0  0  0  0  0  0
    5.6866    2.1520   25.1972 C   0  0  0  0  0  0  0  0  0  0  0  0
    6.7550    1.4123   24.4675 C   0  0  0  0  0  0  0  0  0  0  0  0
    6.7977    1.6309   22.9361 C   0  0  0  0  0  0  0  0  0  0  0  0
    7.7927    0.6957   22.3324 C   0  0  0  0  0  0  0  0  0  0  0  0
    9.0849    0.7732   22.5965 N   0  0  0  0  0  0  0  0  0  0  0  0
    9.5925   -0.3610   22.0608 C   0  0  0  0  0  0  0  0  0  0  0  0
   11.0459   -0.6838   22.0468 C   0  0  0  0  0  0  0  0  0  0  0  0
   11.4778   -1.6783   21.1533 C   0  0  0  0  0  0  0  0  0  0  0  0
   12.8372   -1.8115   20.9051 C   0  0  0  0  0  0  0  0  0  0  0  0
   13.2810   -2.5975   19.9190 F   0  0  0  0  0  0  0  0  0  0  0  0
   13.7932   -1.1325   21.6436 C   0  0  0  0  0  0  0  0  0  0  0  0
   13.3474   -0.2031   22.5770 C   0  0  0  0  0  0  0  0  0  0  0  0
   14.2694    0.4914   23.2586 F   0  0  0  0  0  0  0  0  0  0  0  0
   11.9935    0.0485   22.8015 C   0  0  0  0  0  0  0  0  0  0  0  0
   11.6971    0.8054   23.5266 H   0  0  0  0  0  0  0  0  0  0  0  0
   14.8369   -1.3373   21.4600 H   0  0  0  0  0  0  0  0  0  0  0  0
   10.7273   -2.2934   20.6597 H   0  0  0  0  0  0  0  0  0  0  0  0
    8.6842   -1.1187   21.4567 N   0  0  0  0  0  0  0  0  0  0  0  0
    7.5344   -0.4378   21.6383 N   0  0  0  0  0  0  0  0  0  0  0  0
    6.3255   -0.8809   20.9528 C   0  0  0  0  0  0  0  0  0  0  0  0
    5.9641   -0.0310   19.7534 C   0  0  0  0  0  0  0  0  0  0  0  0
    4.8022    0.7460   19.7149 C   0  0  0  0  0  0  0  0  0  0  0  0
    4.5554    1.5328   18.5889 C   0  0  0  0  0  0  0  0  0  0  0  0
    5.4795    1.5127   17.5422 C   0  0  0  0  0  0  0  0  0  0  0  0
    6.5929    0.7644   17.5528 N   0  0  0  0  0  0  0  0  0  0  0  0
    6.8282    0.0294   18.6466 C   0  0  0  0  0  0  0  0  0  0  0  0
    7.7684   -0.5241   18.6559 H   0  0  0  0  0  0  0  0  0  0  0  0
    5.3236    2.1304   16.6588 H   0  0  0  0  0  0  0  0  0  0  0  0
    3.6860    2.1762   18.5197 H   0  0  0  0  0  0  0  0  0  0  0  0
    4.1037    0.7451   20.5557 H   0  0  0  0  0  0  0  0  0  0  0  0
    6.5095   -1.9227   20.6712 H   0  0  0  0  0  0  0  0  0  0  0  0
    5.5047   -0.8889   21.6685 H   0  0  0  0  0  0  0  0  0  0  0  0
    7.1203    2.6521   22.7107 H   0  0  0  0  0  0  0  0  0  0  0  0
    5.8104    1.5071   22.4823 H   0  0  0  0  0  0  0  0  0  0  0  0
    7.7454    1.6764   24.8614 H   0  0  0  0  0  0  0  0  0  0  0  0
    6.6180    0.3404   24.6694 H   0  0  0  0  0  0  0  0  0  0  0  0
    4.3551    1.8568   25.3972 C   0  0  0  0  0  0  0  0  0  0  0  0
    3.7973    1.0266   24.9899 H   0  0  0  0  0  0  0  0  0  0  0  0
    6.7653    3.8035   25.9759 H   0  0  0  0  0  0  0  0  0  0  0  0
    2.3792    3.9247   27.3745 H   0  0  0  0  0  0  0  0  0  0  0  0
    2.2796    2.1577   27.4849 H   0  0  0  0  0  0  0  0  0  0  0  0
    1.7159    2.9732   26.0243 H   0  0  0  0  0  0  0  0  0  0  0  0
  1  2  1  0
  2  3  2  0
  3  4  1  0
  4  5  1  0
  5  6  1  0
  6  7  1  0
  7  8  1  0
  8  9  2  0
  9 10  1  0
 10 11  1  0
 11 12  2  0
 12 13  1  0
 13 14  1  0
 13 15  2  0
 15 16  1  0
 16 17  1  0
 16 18  2  0
 18 19  1  0
 15 20  1  0
 12 21  1  0
 10 22  2  0
 22 23  1  0
 23 24  1  0
 24 25  1  0
 25 26  2  0
 26 27  1  0
 27 28  2  0
 28 29  1  0
 29 30  2  0
 30 31  1  0
 28 32  1  0
 27 33  1  0
 26 34  1  0
 24 35  1  0
 24 36  1  0
  7 37  1  0
  7 38  1  0
  6 39  1  0
  6 40  1  0
  5 41  2  0
 41 42  1  0
  4 43  1  0
  1 44  1  0
  1 45  1  0
  1 46  1  0
 41  2  1  0
 23  8  1  0
 30 25  1  0
 18 11  1  0
M  END
>  <cnnaffinity>  (1) 
-6.53014

>  <filename>  (1) 
Cc1cc(CCc2nc(-c3cc(F)cc(F)c3)nn2Cc2cccnc2)[nH]n1

$$$$
