
     RDKit          3D

 51 54  0  0  0  0  0  0  0  0999 V2000
    5.1640    5.3767   27.1325 C   0  0  0  0  0  0  0  0  0  0  0  0
    5.4283    4.2558   26.1656 C   0  0  0  0  0  0  0  0  0  0  0  0
    6.2556    3.1830   26.5178 C   0  0  0  0  0  0  0  0  0  0  0  0
    6.5219    2.1318   25.6309 C   0  0  0  0  0  0  0  0  0  0  0  0
    7.4498    1.0056   26.0374 C   0  0  0  0  0  0  0  0  0  0  0  0
    7.1702    0.0674   25.5466 H   0  0  0  0  0  0  0  0  0  0  0  0
    7.4360    0.8566   27.1233 H   0  0  0  0  0  0  0  0  0  0  0  0
    8.4927    1.2192   25.7628 H   0  0  0  0  0  0  0  0  0  0  0  0
    5.9127    2.1882   24.3610 C   0  0  0  0  0  0  0  0  0  0  0  0
    6.1087    1.1577   23.4628 O   0  0  0  0  0  0  0  0  0  0  0  0
    7.3413    1.2491   22.7420 C   0  0  0  0  0  0  0  0  0  0  0  0
    7.6354   -0.1049   22.2054 C   0  0  0  0  0  0  0  0  0  0  0  0
    8.2256   -1.0347   22.9235 N   0  0  0  0  0  0  0  0  0  0  0  0
    8.3163   -2.0795   22.0631 C   0  0  0  0  0  0  0  0  0  0  0  0
    8.9223   -3.3469   22.5329 C   0  0  0  0  0  0  0  0  0  0  0  0
    8.1782   -4.0704   23.6722 C   0  0  0  0  0  0  0  0  0  0  0  0
    9.2992   -4.8636   24.3495 C   0  0  0  0  0  0  0  0  0  0  0  0
   10.5028   -4.1526   24.1034 O   0  0  0  0  0  0  0  0  0  0  0  0
   10.3094   -3.1113   23.1657 C   0  0  0  0  0  0  0  0  0  0  0  0
   11.1136   -3.1178   22.4204 H   0  0  0  0  0  0  0  0  0  0  0  0
   10.3658   -2.1408   23.6846 H   0  0  0  0  0  0  0  0  0  0  0  0
    9.1532   -4.9445   25.4311 H   0  0  0  0  0  0  0  0  0  0  0  0
    9.3774   -5.8899   23.9567 H   0  0  0  0  0  0  0  0  0  0  0  0
    7.3828   -4.7237   23.3044 H   0  0  0  0  0  0  0  0  0  0  0  0
    7.7463   -3.3331   24.3605 H   0  0  0  0  0  0  0  0  0  0  0  0
    8.9556   -4.0133   21.6733 H   0  0  0  0  0  0  0  0  0  0  0  0
    7.8409   -1.8563   20.8578 N   0  0  0  0  0  0  0  0  0  0  0  0
    7.3589   -0.5834   20.9609 N   0  0  0  0  0  0  0  0  0  0  0  0
    6.6457    0.0398   19.9079 C   0  0  0  0  0  0  0  0  0  0  0  0
    5.4495    0.7242   20.1622 C   0  0  0  0  0  0  0  0  0  0  0  0
    4.8181    1.3558   19.0870 C   0  0  0  0  0  0  0  0  0  0  0  0
    5.4107    1.2979   17.8216 C   0  0  0  0  0  0  0  0  0  0  0  0
    6.5495    0.6256   17.5713 N   0  0  0  0  0  0  0  0  0  0  0  0
    7.1401   -0.0003   18.5937 C   0  0  0  0  0  0  0  0  0  0  0  0
    8.0481   -0.5545   18.3770 H   0  0  0  0  0  0  0  0  0  0  0  0
    4.9515    1.7982   16.9726 H   0  0  0  0  0  0  0  0  0  0  0  0
    3.8848    1.8932   19.2175 H   0  0  0  0  0  0  0  0  0  0  0  0
    5.0333    0.7534   21.1721 H   0  0  0  0  0  0  0  0  0  0  0  0
    7.2732    2.0103   21.9569 H   0  0  0  0  0  0  0  0  0  0  0  0
    8.1717    1.5264   23.4060 H   0  0  0  0  0  0  0  0  0  0  0  0
    5.0761    3.2481   23.9665 C   0  0  0  0  0  0  0  0  0  0  0  0
    4.4461    3.2601   22.5948 C   0  0  0  0  0  0  0  0  0  0  0  0
    5.2167    3.2397   21.8137 H   0  0  0  0  0  0  0  0  0  0  0  0
    3.8290    4.1492   22.4375 H   0  0  0  0  0  0  0  0  0  0  0  0
    3.8184    2.3733   22.4499 H   0  0  0  0  0  0  0  0  0  0  0  0
    4.8470    4.2691   24.8917 C   0  0  0  0  0  0  0  0  0  0  0  0
    4.1942    5.0952   24.6109 H   0  0  0  0  0  0  0  0  0  0  0  0
    6.7036    3.1584   27.5114 H   0  0  0  0  0  0  0  0  0  0  0  0
    5.2211    5.0231   28.1671 H   0  0  0  0  0  0  0  0  0  0  0  0
    4.1672    5.7982   26.9678 H   0  0  0  0  0  0  0  0  0  0  0  0
    5.8950    6.1857   27.0088 H   0  0  0  0  0  0  0  0  0  0  0  0
  1  2  1  0
  2  3  2  0
  3  4  1  0
  4  5  1  0
  5  6  1  0
  5  7  1  0
  5  8  1  0
  4  9  2  0
  9 10  1  0
 10 11  1  0
 11 12  1  0
 12 13  2  0
 13 14  1  0
 14 15  1  0
 15 16  1  0
 16 17  1  0
 17 18  1  0
 18 19  1  0
 19 20  1  0
 19 21  1  0
 17 22  1  0
 17 23  1  0
 16 24  1  0
 16 25  1  0
 15 26  1  0
 14 27  2  0
 27 28  1  0
 28 29  1  0
 29 30  2  0
 30 31  1  0
 31 32  2  0
 32 33  1  0
 33 34  2  0
 34 35  1  0
 32 36  1  0
 31 37  1  0
 30 38  1  0
 11 39  1  0
 11 40  1  0
  9 41  1  0
 41 42  1  0
 42 43  1  0
 42 44  1  0
 42 45  1  0
 41 46  2  0
 46 47  1  0
  3 48  1  0
  1 49  1  0
  1 50  1  0
  1 51  1  0
 46  2  1  0
 28 12  1  0
 34 29  1  0
 19 15  1  0
M  END
>  <cnnaffinity>  (1) 
-5.96501

>  <filename>  (1) 
Cc1cc(C)c(OCc2nc(C3CCOC3)nn2-c2cccnc2)c(C)c1

$$$$
