
     RDKit          3D

 42 44  0  0  0  0  0  0  0  0999 V2000
    9.5941    2.1808   21.1247 C   0  0  0  0  0  0  0  0  0  0  0  0
    9.7317    2.1019   22.6143 C   0  0  0  0  0  0  0  0  0  0  0  0
   10.9427    2.4757   23.2087 C   0  0  0  0  0  0  0  0  0  0  0  0
   11.0770    2.4100   24.5895 C   0  0  0  0  0  0  0  0  0  0  0  0
   10.0886    2.0309   25.4039 N   0  0  0  0  0  0  0  0  0  0  0  0
    8.9264    1.6828   24.8366 C   0  0  0  0  0  0  0  0  0  0  0  0
    8.6790    1.6906   23.4582 C   0  0  0  0  0  0  0  0  0  0  0  0
    7.3264    1.2261   22.9113 C   0  0  0  0  0  0  0  0  0  0  0  0
    7.3324   -0.1496   22.3093 C   0  0  0  0  0  0  0  0  0  0  0  0
    7.7832   -1.2208   22.9521 N   0  0  0  0  0  0  0  0  0  0  0  0
    7.8471   -2.1655   21.9804 C   0  0  0  0  0  0  0  0  0  0  0  0
    8.5265   -3.4801   22.1587 C   0  0  0  0  0  0  0  0  0  0  0  0
    7.6456   -4.6831   22.5351 C   0  0  0  0  0  0  0  0  0  0  0  0
    6.9216   -4.5735   23.8794 C   0  0  0  0  0  0  0  0  0  0  0  0
    5.8458   -3.6647   23.8446 O   0  0  0  0  0  0  0  0  0  0  0  0
    6.1997   -2.7628   23.7855 H   0  0  0  0  0  0  0  0  0  0  0  0
    7.6426   -4.3386   24.6896 H   0  0  0  0  0  0  0  0  0  0  0  0
    6.4877   -5.5530   24.1168 H   0  0  0  0  0  0  0  0  0  0  0  0
    8.3004   -5.5649   22.5758 H   0  0  0  0  0  0  0  0  0  0  0  0
    6.9030   -4.8748   21.7491 H   0  0  0  0  0  0  0  0  0  0  0  0
    9.0099   -3.6672   21.1991 H   0  0  0  0  0  0  0  0  0  0  0  0
    9.2950   -3.3199   22.9210 H   0  0  0  0  0  0  0  0  0  0  0  0
    7.3946   -1.7845   20.8091 N   0  0  0  0  0  0  0  0  0  0  0  0
    7.0046   -0.5004   21.0309 N   0  0  0  0  0  0  0  0  0  0  0  0
    6.4405    0.2173   19.9487 C   0  0  0  0  0  0  0  0  0  0  0  0
    5.2919    1.0047   20.0708 C   0  0  0  0  0  0  0  0  0  0  0  0
    4.7757    1.5802   18.9038 C   0  0  0  0  0  0  0  0  0  0  0  0
    5.4327    1.3711   17.6888 C   0  0  0  0  0  0  0  0  0  0  0  0
    6.5581    0.6419   17.5752 N   0  0  0  0  0  0  0  0  0  0  0  0
    7.0408    0.0808   18.6854 C   0  0  0  0  0  0  0  0  0  0  0  0
    7.9558   -0.5025   18.5955 H   0  0  0  0  0  0  0  0  0  0  0  0
    5.0502    1.8029   16.7668 H   0  0  0  0  0  0  0  0  0  0  0  0
    3.8716    2.1796   18.9259 H   0  0  0  0  0  0  0  0  0  0  0  0
    4.8048    1.1396   21.0366 H   0  0  0  0  0  0  0  0  0  0  0  0
    6.9517    1.9429   22.1769 H   0  0  0  0  0  0  0  0  0  0  0  0
    6.6010    1.1993   23.7294 H   0  0  0  0  0  0  0  0  0  0  0  0
    8.1312    1.3790   25.5232 H   0  0  0  0  0  0  0  0  0  0  0  0
   12.0179    2.6892   25.0636 H   0  0  0  0  0  0  0  0  0  0  0  0
   11.7729    2.8217   22.6002 H   0  0  0  0  0  0  0  0  0  0  0  0
    9.2766    1.2237   20.6966 H   0  0  0  0  0  0  0  0  0  0  0  0
    8.8529    2.9348   20.8359 H   0  0  0  0  0  0  0  0  0  0  0  0
   10.5497    2.4627   20.6735 H   0  0  0  0  0  0  0  0  0  0  0  0
  1  2  1  0
  2  3  2  0
  3  4  1  0
  4  5  2  0
  5  6  1  0
  6  7  2  0
  7  8  1  0
  8  9  1  0
  9 10  2  0
 10 11  1  0
 11 12  1  0
 12 13  1  0
 13 14  1  0
 14 15  1  0
 15 16  1  0
 14 17  1  0
 14 18  1  0
 13 19  1  0
 13 20  1  0
 12 21  1  0
 12 22  1  0
 11 23  2  0
 23 24  1  0
 24 25  1  0
 25 26  2  0
 26 27  1  0
 27 28  2  0
 28 29  1  0
 29 30  2  0
 30 31  1  0
 28 32  1  0
 27 33  1  0
 26 34  1  0
  8 35  1  0
  8 36  1  0
  6 37  1  0
  4 38  1  0
  3 39  1  0
  1 40  1  0
  1 41  1  0
  1 42  1  0
  7  2  1  0
 24  9  1  0
 30 25  1  0
M  END
>  <cnnaffinity>  (1) 
-5.57438

>  <filename>  (1) 
Cc1ccncc1Cc1nc(CCCO)nn1-c1cccnc1

$$$$
