
     RDKit          3D

 51 54  0  0  0  0  0  0  0  0999 V2000
    6.5004    3.6627   26.8432 C   0  0  0  0  0  0  0  0  0  0  0  0
    7.0196    3.8546   25.4303 C   0  0  0  0  0  0  0  0  0  0  0  0
    6.8588    5.1088   24.8210 C   0  0  0  0  0  0  0  0  0  0  0  0
    7.3118    5.3286   23.5220 C   0  0  0  0  0  0  0  0  0  0  0  0
    7.9288    4.3013   22.8040 C   0  0  0  0  0  0  0  0  0  0  0  0
    8.0952    3.0417   23.3976 C   0  0  0  0  0  0  0  0  0  0  0  0
    8.7056    1.9931   22.7604 O   0  0  0  0  0  0  0  0  0  0  0  0
    9.0030    2.0229   21.3706 C   0  0  0  0  0  0  0  0  0  0  0  0
    9.5180    0.6346   20.9740 C   0  0  0  0  0  0  0  0  0  0  0  0
    8.6310   -0.4567   21.4384 C   0  0  0  0  0  0  0  0  0  0  0  0
    8.8749   -1.2780   22.4400 N   0  0  0  0  0  0  0  0  0  0  0  0
    7.6939   -1.9228   22.5889 C   0  0  0  0  0  0  0  0  0  0  0  0
    7.4350   -2.8414   23.7313 C   0  0  0  0  0  0  0  0  0  0  0  0
    6.5567   -2.2235   24.8503 C   0  0  0  0  0  0  0  0  0  0  0  0
    5.8419   -3.4378   25.4508 C   0  0  0  0  0  0  0  0  0  0  0  0
    5.9577   -4.4945   24.5081 O   0  0  0  0  0  0  0  0  0  0  0  0
    6.6529   -4.1021   23.3420 C   0  0  0  0  0  0  0  0  0  0  0  0
    5.9539   -3.8980   22.5139 H   0  0  0  0  0  0  0  0  0  0  0  0
    7.3037   -4.9351   23.0463 H   0  0  0  0  0  0  0  0  0  0  0  0
    4.7801   -3.2348   25.6512 H   0  0  0  0  0  0  0  0  0  0  0  0
    6.2980   -3.7684   26.3938 H   0  0  0  0  0  0  0  0  0  0  0  0
    5.8292   -1.5299   24.4107 H   0  0  0  0  0  0  0  0  0  0  0  0
    7.1403   -1.6700   25.5947 H   0  0  0  0  0  0  0  0  0  0  0  0
    8.4084   -3.1185   24.1387 H   0  0  0  0  0  0  0  0  0  0  0  0
    6.7552   -1.5846   21.7236 N   0  0  0  0  0  0  0  0  0  0  0  0
    7.3718   -0.6503   20.9535 N   0  0  0  0  0  0  0  0  0  0  0  0
    6.6623    0.0114   19.9074 C   0  0  0  0  0  0  0  0  0  0  0  0
    5.4408    0.6421   20.1690 C   0  0  0  0  0  0  0  0  0  0  0  0
    4.8129    1.3080   19.1112 C   0  0  0  0  0  0  0  0  0  0  0  0
    5.4008    1.2956   17.8391 C   0  0  0  0  0  0  0  0  0  0  0  0
    6.5608    0.6738   17.5794 N   0  0  0  0  0  0  0  0  0  0  0  0
    7.1715    0.0553   18.5969 C   0  0  0  0  0  0  0  0  0  0  0  0
    8.1134   -0.4356   18.3663 H   0  0  0  0  0  0  0  0  0  0  0  0
    4.9211    1.7858   16.9944 H   0  0  0  0  0  0  0  0  0  0  0  0
    3.8808    1.8385   19.2599 H   0  0  0  0  0  0  0  0  0  0  0  0
    5.0188    0.6109   21.1780 H   0  0  0  0  0  0  0  0  0  0  0  0
    9.6102    0.5916   19.8881 H   0  0  0  0  0  0  0  0  0  0  0  0
   10.5063    0.4423   21.3929 H   0  0  0  0  0  0  0  0  0  0  0  0
    8.1076    2.2701   20.7813 H   0  0  0  0  0  0  0  0  0  0  0  0
    9.7830    2.7668   21.1641 H   0  0  0  0  0  0  0  0  0  0  0  0
    7.6580    2.8057   24.7285 C   0  0  0  0  0  0  0  0  0  0  0  0
    7.8214    1.4470   25.3897 C   0  0  0  0  0  0  0  0  0  0  0  0
    8.1276    1.5385   26.4389 H   0  0  0  0  0  0  0  0  0  0  0  0
    8.5472    0.8236   24.8595 H   0  0  0  0  0  0  0  0  0  0  0  0
    6.8698    0.8983   25.3945 H   0  0  0  0  0  0  0  0  0  0  0  0
    8.2770    4.4728   21.7892 H   0  0  0  0  0  0  0  0  0  0  0  0
    7.1765    6.3023   23.0570 H   0  0  0  0  0  0  0  0  0  0  0  0
    6.3674    5.9048   25.3791 H   0  0  0  0  0  0  0  0  0  0  0  0
    5.8845    4.5060   27.1664 H   0  0  0  0  0  0  0  0  0  0  0  0
    7.3131    3.5708   27.5727 H   0  0  0  0  0  0  0  0  0  0  0  0
    5.8864    2.7616   26.9402 H   0  0  0  0  0  0  0  0  0  0  0  0
  1  2  1  0
  2  3  2  0
  3  4  1  0
  4  5  2  0
  5  6  1  0
  6  7  1  0
  7  8  1  0
  8  9  1  0
  9 10  1  0
 10 11  2  0
 11 12  1  0
 12 13  1  0
 13 14  1  0
 14 15  1  0
 15 16  1  0
 16 17  1  0
 17 18  1  0
 17 19  1  0
 15 20  1  0
 15 21  1  0
 14 22  1  0
 14 23  1  0
 13 24  1  0
 12 25  2  0
 25 26  1  0
 26 27  1  0
 27 28  2  0
 28 29  1  0
 29 30  2  0
 30 31  1  0
 31 32  2  0
 32 33  1  0
 30 34  1  0
 29 35  1  0
 28 36  1  0
  9 37  1  0
  9 38  1  0
  8 39  1  0
  8 40  1  0
  6 41  2  0
 41 42  1  0
 42 43  1  0
 42 44  1  0
 42 45  1  0
  5 46  1  0
  4 47  1  0
  3 48  1  0
  1 49  1  0
  1 50  1  0
  1 51  1  0
 41  2  1  0
 26 10  1  0
 32 27  1  0
 17 13  1  0
M  END
>  <cnnaffinity>  (1) 
-6.07063

>  <filename>  (1) 
Cc1cccc(OCCc2nc(C3CCOC3)nn2-c2cccnc2)c1C

$$$$
