
     RDKit          3D

 42 45  0  0  0  0  0  0  0  0999 V2000
    7.5489   -4.4485   21.4361 C   0  0  0  0  0  0  0  0  0  0  0  0
    8.3341   -4.6873   22.7056 C   0  0  0  0  0  0  0  0  0  0  0  0
    8.0668   -5.8627   23.4339 C   0  0  0  0  0  0  0  0  0  0  0  0
    8.6308   -6.2052   24.5914 N   0  0  0  0  0  0  0  0  0  0  0  0
    9.5385   -5.3578   25.0884 C   0  0  0  0  0  0  0  0  0  0  0  0
    9.9092   -4.1788   24.4476 C   0  0  0  0  0  0  0  0  0  0  0  0
    9.3088   -3.8169   23.2388 C   0  0  0  0  0  0  0  0  0  0  0  0
    9.7398   -2.5275   22.5395 C   0  0  0  0  0  0  0  0  0  0  0  0
    8.6312   -1.6223   22.0927 C   0  0  0  0  0  0  0  0  0  0  0  0
    8.4122   -1.1942   20.8672 N   0  0  0  0  0  0  0  0  0  0  0  0
    7.2452   -0.5030   20.9825 C   0  0  0  0  0  0  0  0  0  0  0  0
    6.5947    0.1226   19.8304 C   0  0  0  0  0  0  0  0  0  0  0  0
    5.3721    0.8069   19.9485 C   0  0  0  0  0  0  0  0  0  0  0  0
    4.8374    1.3978   18.8087 C   0  0  0  0  0  0  0  0  0  0  0  0
    5.5314    1.2827   17.5986 C   0  0  0  0  0  0  0  0  0  0  0  0
    6.6913    0.6177   17.4733 N   0  0  0  0  0  0  0  0  0  0  0  0
    7.2089    0.0524   18.5712 C   0  0  0  0  0  0  0  0  0  0  0  0
    8.1551   -0.4734   18.4361 H   0  0  0  0  0  0  0  0  0  0  0  0
    5.1374    1.7471   16.6956 H   0  0  0  0  0  0  0  0  0  0  0  0
    3.9102    1.9601   18.8475 H   0  0  0  0  0  0  0  0  0  0  0  0
    4.8751    0.8753   20.9194 H   0  0  0  0  0  0  0  0  0  0  0  0
    6.7395   -0.4826   22.2036 N   0  0  0  0  0  0  0  0  0  0  0  0
    7.6691   -1.1584   22.9306 N   0  0  0  0  0  0  0  0  0  0  0  0
    7.5098   -1.5407   24.3078 C   0  0  0  0  0  0  0  0  0  0  0  0
    8.4977   -1.2318   25.2556 C   0  0  0  0  0  0  0  0  0  0  0  0
    8.4779   -1.9021   26.4753 C   0  0  0  0  0  0  0  0  0  0  0  0
    9.4805   -1.6846   27.3431 F   0  0  0  0  0  0  0  0  0  0  0  0
    7.4884   -2.8266   26.8032 C   0  0  0  0  0  0  0  0  0  0  0  0
    6.4407   -3.0255   25.8955 C   0  0  0  0  0  0  0  0  0  0  0  0
    6.4414   -2.3780   24.6589 C   0  0  0  0  0  0  0  0  0  0  0  0
    5.6296   -2.5363   23.9553 H   0  0  0  0  0  0  0  0  0  0  0  0
    5.6223   -3.6984   26.1451 H   0  0  0  0  0  0  0  0  0  0  0  0
    7.5608   -3.3871   27.7290 H   0  0  0  0  0  0  0  0  0  0  0  0
    9.2810   -0.5049   25.0668 H   0  0  0  0  0  0  0  0  0  0  0  0
   10.3257   -2.7555   21.6480 H   0  0  0  0  0  0  0  0  0  0  0  0
   10.4047   -1.9515   23.1945 H   0  0  0  0  0  0  0  0  0  0  0  0
   10.6348   -3.5338   24.9311 H   0  0  0  0  0  0  0  0  0  0  0  0
    9.9852   -5.6310   26.0418 H   0  0  0  0  0  0  0  0  0  0  0  0
    7.3390   -6.5670   23.0340 H   0  0  0  0  0  0  0  0  0  0  0  0
    7.3930   -5.3808   20.8819 H   0  0  0  0  0  0  0  0  0  0  0  0
    6.5544   -4.0169   21.6174 H   0  0  0  0  0  0  0  0  0  0  0  0
    8.0560   -3.7490   20.7777 H   0  0  0  0  0  0  0  0  0  0  0  0
  1  2  1  0
  2  3  2  0
  3  4  1  0
  4  5  2  0
  5  6  1  0
  6  7  2  0
  7  8  1  0
  8  9  1  0
  9 10  2  0
 10 11  1  0
 11 12  1  0
 12 13  2  0
 13 14  1  0
 14 15  2  0
 15 16  1  0
 16 17  2  0
 17 18  1  0
 15 19  1  0
 14 20  1  0
 13 21  1  0
 11 22  2  0
 22 23  1  0
 23 24  1  0
 24 25  2  0
 25 26  1  0
 26 27  1  0
 26 28  2  0
 28 29  1  0
 29 30  2  0
 30 31  1  0
 29 32  1  0
 28 33  1  0
 25 34  1  0
  8 35  1  0
  8 36  1  0
  6 37  1  0
  5 38  1  0
  3 39  1  0
  1 40  1  0
  1 41  1  0
  1 42  1  0
  7  2  1  0
 23  9  1  0
 30 24  1  0
 17 12  1  0
M  END
>  <cnnaffinity>  (1) 
-6.41406

>  <filename>  (1) 
Cc1cnccc1Cc1nc(-c2cccnc2)nn1-c1cccc(F)c1

$$$$
