
     RDKit          3D

 48 51  0  0  0  0  0  0  0  0999 V2000
   16.0287   -0.3262   19.6485 C   0  0  0  0  0  0  0  0  0  0  0  0
   14.7325   -0.7976   20.5155 C   0  0  0  0  0  0  0  0  0  0  0  0
   13.7918   -1.8073   20.2994 C   0  0  0  0  0  0  0  0  0  0  0  0
   12.5058   -1.6672   20.8451 C   0  0  0  0  0  0  0  0  0  0  0  0
   12.1180   -0.5697   21.6281 C   0  0  0  0  0  0  0  0  0  0  0  0
   10.6721   -0.2094   21.7198 C   0  0  0  0  0  0  0  0  0  0  0  0
    9.7060   -0.9626   21.2001 N   0  0  0  0  0  0  0  0  0  0  0  0
    8.5822   -0.2517   21.4348 N   0  0  0  0  0  0  0  0  0  0  0  0
    7.2733   -0.7455   21.0075 C   0  0  0  0  0  0  0  0  0  0  0  0
    6.5820    0.0461   19.9055 C   0  0  0  0  0  0  0  0  0  0  0  0
    5.3429    0.6826   20.0686 C   0  0  0  0  0  0  0  0  0  0  0  0
    4.7647    1.3454   18.9805 C   0  0  0  0  0  0  0  0  0  0  0  0
    5.4446    1.3456   17.7599 C   0  0  0  0  0  0  0  0  0  0  0  0
    6.6216    0.7292   17.5752 N   0  0  0  0  0  0  0  0  0  0  0  0
    7.1651    0.1045   18.6276 C   0  0  0  0  0  0  0  0  0  0  0  0
    8.1122   -0.3992   18.4425 H   0  0  0  0  0  0  0  0  0  0  0  0
    5.0271    1.8576   16.8930 H   0  0  0  0  0  0  0  0  0  0  0  0
    3.8174    1.8660   19.0654 H   0  0  0  0  0  0  0  0  0  0  0  0
    4.8175    0.6603   21.0261 H   0  0  0  0  0  0  0  0  0  0  0  0
    6.6255   -0.7902   21.8879 H   0  0  0  0  0  0  0  0  0  0  0  0
    7.4490   -1.7755   20.6853 H   0  0  0  0  0  0  0  0  0  0  0  0
    8.9035    0.8852   22.0854 C   0  0  0  0  0  0  0  0  0  0  0  0
    7.8550    1.7356   22.7607 C   0  0  0  0  0  0  0  0  0  0  0  0
    7.3770    1.0948   24.0688 C   0  0  0  0  0  0  0  0  0  0  0  0
    8.3349    0.8628   25.0641 C   0  0  0  0  0  0  0  0  0  0  0  0
    8.0279    0.1101   26.1967 C   0  0  0  0  0  0  0  0  0  0  0  0
    9.1036   -0.2195   27.2038 C   0  0  0  0  0  0  0  0  0  0  0  0
    8.8672    0.1731   28.1983 H   0  0  0  0  0  0  0  0  0  0  0  0
    9.2532   -1.3001   27.3048 H   0  0  0  0  0  0  0  0  0  0  0  0
   10.0601    0.2107   26.8876 H   0  0  0  0  0  0  0  0  0  0  0  0
    6.6988   -0.3405   26.3063 C   0  0  0  0  0  0  0  0  0  0  0  0
    5.7417   -0.0813   25.4093 N   0  0  0  0  0  0  0  0  0  0  0  0
    6.0799    0.6179   24.3145 C   0  0  0  0  0  0  0  0  0  0  0  0
    5.2760    0.7920   23.5963 H   0  0  0  0  0  0  0  0  0  0  0  0
    6.3980   -0.9493   27.1586 H   0  0  0  0  0  0  0  0  0  0  0  0
    9.3468    1.2460   24.9215 H   0  0  0  0  0  0  0  0  0  0  0  0
    8.3167    2.7097   22.9528 H   0  0  0  0  0  0  0  0  0  0  0  0
    7.0234    1.9053   22.0697 H   0  0  0  0  0  0  0  0  0  0  0  0
   10.2141    0.9627   22.2407 N   0  0  0  0  0  0  0  0  0  0  0  0
   13.1625    0.2163   22.1611 C   0  0  0  0  0  0  0  0  0  0  0  0
   14.4412    0.0609   21.6342 C   0  0  0  0  0  0  0  0  0  0  0  0
   15.2166    0.7137   22.0200 H   0  0  0  0  0  0  0  0  0  0  0  0
   12.9921    0.9983   22.8956 H   0  0  0  0  0  0  0  0  0  0  0  0
   11.7167   -2.3656   20.6524 H   0  0  0  0  0  0  0  0  0  0  0  0
   14.0114   -2.7016   19.7314 H   0  0  0  0  0  0  0  0  0  0  0  0
   15.9387    0.1146   18.6480 H   0  0  0  0  0  0  0  0  0  0  0  0
   16.8341   -1.0568   19.6267 H   0  0  0  0  0  0  0  0  0  0  0  0
   16.4498    0.5340   20.1413 H   0  0  0  0  0  0  0  0  0  0  0  0
  1  2  1  0
  2  3  2  0
  3  4  1  0
  4  5  2  0
  5  6  1  0
  6  7  2  0
  7  8  1  0
  8  9  1  0
  9 10  1  0
 10 11  2  0
 11 12  1  0
 12 13  2  0
 13 14  1  0
 14 15  2  0
 15 16  1  0
 13 17  1  0
 12 18  1  0
 11 19  1  0
  9 20  1  0
  9 21  1  0
  8 22  1  0
 22 23  1  0
 23 24  1  0
 24 25  2  0
 25 26  1  0
 26 27  1  0
 27 28  1  0
 27 29  1  0
 27 30  1  0
 26 31  2  0
 31 32  1  0
 32 33  2  0
 33 34  1  0
 31 35  1  0
 25 36  1  0
 23 37  1  0
 23 38  1  0
 22 39  2  0
  5 40  1  0
 40 41  2  0
 41 42  1  0
 40 43  1  0
  4 44  1  0
  3 45  1  0
  1 46  1  0
  1 47  1  0
  1 48  1  0
 41  2  1  0
 39  6  1  0
 15 10  1  0
 33 24  1  0
M  END
>  <cnnaffinity>  (1) 
-6.58922

>  <filename>  (1) 
Cc1ccc(-c2nc(Cc3cncc(C)c3)n(Cc3cccnc3)n2)cc1

$$$$
