
     RDKit          3D

 41 44  0  0  0  0  0  0  0  0999 V2000
   12.3801   -1.3385   21.4523 C   0  0  0  0  0  0  0  0  0  0  0  0
   11.8901   -0.0163   21.9739 C   0  0  0  0  0  0  0  0  0  0  0  0
   10.7437    0.6192   21.6162 C   0  0  0  0  0  0  0  0  0  0  0  0
    9.6506    0.2249   20.6890 C   0  0  0  0  0  0  0  0  0  0  0  0
    8.6187   -0.6027   21.3596 C   0  0  0  0  0  0  0  0  0  0  0  0
    8.8553   -1.4753   22.3139 N   0  0  0  0  0  0  0  0  0  0  0  0
    7.6321   -2.0098   22.5473 C   0  0  0  0  0  0  0  0  0  0  0  0
    7.3628   -2.9778   23.6556 C   0  0  0  0  0  0  0  0  0  0  0  0
    7.7138   -2.3977   25.0581 C   0  0  0  0  0  0  0  0  0  0  0  0
    9.1756   -2.8452   25.2778 C   0  0  0  0  0  0  0  0  0  0  0  0
    9.4510   -3.8673   24.3384 O   0  0  0  0  0  0  0  0  0  0  0  0
    8.3055   -4.1965   23.5849 C   0  0  0  0  0  0  0  0  0  0  0  0
    8.6467   -4.4393   22.5734 H   0  0  0  0  0  0  0  0  0  0  0  0
    7.7988   -5.0878   23.9898 H   0  0  0  0  0  0  0  0  0  0  0  0
    9.8831   -2.0257   25.1039 H   0  0  0  0  0  0  0  0  0  0  0  0
    9.3500   -3.2151   26.2969 H   0  0  0  0  0  0  0  0  0  0  0  0
    7.6122   -1.3039   25.1102 H   0  0  0  0  0  0  0  0  0  0  0  0
    7.0498   -2.8230   25.8219 H   0  0  0  0  0  0  0  0  0  0  0  0
    6.3071   -3.2443   23.5471 H   0  0  0  0  0  0  0  0  0  0  0  0
    6.6759   -1.5775   21.7511 N   0  0  0  0  0  0  0  0  0  0  0  0
    7.3194   -0.6837   20.9516 N   0  0  0  0  0  0  0  0  0  0  0  0
    6.6445   -0.0054   19.9024 C   0  0  0  0  0  0  0  0  0  0  0  0
    5.4327    0.6426   20.1569 C   0  0  0  0  0  0  0  0  0  0  0  0
    4.8055    1.3133   19.1060 C   0  0  0  0  0  0  0  0  0  0  0  0
    5.3952    1.2951   17.8373 C   0  0  0  0  0  0  0  0  0  0  0  0
    6.5518    0.6656   17.5812 N   0  0  0  0  0  0  0  0  0  0  0  0
    7.1614    0.0379   18.5931 C   0  0  0  0  0  0  0  0  0  0  0  0
    8.1094   -0.4433   18.3514 H   0  0  0  0  0  0  0  0  0  0  0  0
    4.9308    1.7988   16.9944 H   0  0  0  0  0  0  0  0  0  0  0  0
    3.8755    1.8466   19.2528 H   0  0  0  0  0  0  0  0  0  0  0  0
    5.0158    0.6040   21.1623 H   0  0  0  0  0  0  0  0  0  0  0  0
   10.0508   -0.4221   19.9003 H   0  0  0  0  0  0  0  0  0  0  0  0
    9.1965    1.1028   20.2343 H   0  0  0  0  0  0  0  0  0  0  0  0
   10.5839    1.7626   22.3272 O   0  0  0  0  0  0  0  0  0  0  0  0
   11.6542    1.8644   23.1630 C   0  0  0  0  0  0  0  0  0  0  0  0
   12.4840    0.8097   22.9973 C   0  0  0  0  0  0  0  0  0  0  0  0
   13.4066    0.6115   23.5363 H   0  0  0  0  0  0  0  0  0  0  0  0
   11.6611    2.7404   23.7949 H   0  0  0  0  0  0  0  0  0  0  0  0
   11.5773   -2.0874   21.5137 H   0  0  0  0  0  0  0  0  0  0  0  0
   12.6989   -1.2877   20.4027 H   0  0  0  0  0  0  0  0  0  0  0  0
   13.2310   -1.6938   22.0405 H   0  0  0  0  0  0  0  0  0  0  0  0
  1  2  1  0
  2  3  2  0
  3  4  1  0
  4  5  1  0
  5  6  2  0
  6  7  1  0
  7  8  1  0
  8  9  1  0
  9 10  1  0
 10 11  1  0
 11 12  1  0
 12 13  1  0
 12 14  1  0
 10 15  1  0
 10 16  1  0
  9 17  1  0
  9 18  1  0
  8 19  1  0
  7 20  2  0
 20 21  1  0
 21 22  1  0
 22 23  2  0
 23 24  1  0
 24 25  2  0
 25 26  1  0
 26 27  2  0
 27 28  1  0
 25 29  1  0
 24 30  1  0
 23 31  1  0
  4 32  1  0
  4 33  1  0
  3 34  1  0
 34 35  1  0
 35 36  2  0
 36 37  1  0
 35 38  1  0
  1 39  1  0
  1 40  1  0
  1 41  1  0
 36  2  1  0
 21  5  1  0
 27 22  1  0
 12  8  1  0
M  END
>  <cnnaffinity>  (1) 
-6.12619

>  <filename>  (1) 
Cc1ccoc1Cc1nc(C2CCOC2)nn1-c1cccnc1

$$$$
