
     RDKit          3D

 54 57  0  0  0  0  0  0  0  0999 V2000
    7.3791    4.6364   21.8603 C   0  0  0  0  0  0  0  0  0  0  0  0
    8.1469    4.4221   23.1488 C   0  0  0  0  0  0  0  0  0  0  0  0
    8.2967    5.5204   24.0093 C   0  0  0  0  0  0  0  0  0  0  0  0
    8.8384    5.3724   25.2866 C   0  0  0  0  0  0  0  0  0  0  0  0
    9.2698    4.1123   25.7073 C   0  0  0  0  0  0  0  0  0  0  0  0
    9.3009    3.0213   24.8347 C   0  0  0  0  0  0  0  0  0  0  0  0
    9.9627    1.7165   25.2267 C   0  0  0  0  0  0  0  0  0  0  0  0
   10.7932    1.4814   24.5490 H   0  0  0  0  0  0  0  0  0  0  0  0
   10.3603    1.7446   26.2425 H   0  0  0  0  0  0  0  0  0  0  0  0
    9.2579    0.8795   25.1658 H   0  0  0  0  0  0  0  0  0  0  0  0
    8.7306    3.1947   23.5443 C   0  0  0  0  0  0  0  0  0  0  0  0
    8.7293    2.0626   22.7729 O   0  0  0  0  0  0  0  0  0  0  0  0
    9.0037    2.0939   21.3836 C   0  0  0  0  0  0  0  0  0  0  0  0
    9.5273    0.7051   21.0243 C   0  0  0  0  0  0  0  0  0  0  0  0
    8.6146   -0.3845   21.4833 C   0  0  0  0  0  0  0  0  0  0  0  0
    8.8385   -1.2182   22.4824 N   0  0  0  0  0  0  0  0  0  0  0  0
    7.6680   -1.8989   22.5886 C   0  0  0  0  0  0  0  0  0  0  0  0
    7.4278   -2.8636   23.7284 C   0  0  0  0  0  0  0  0  0  0  0  0
    6.6356   -4.1463   23.3332 C   0  0  0  0  0  0  0  0  0  0  0  0
    5.1478   -3.9867   23.6543 C   0  0  0  0  0  0  0  0  0  0  0  0
    4.9068   -3.7771   25.0420 O   0  0  0  0  0  0  0  0  0  0  0  0
    5.9041   -3.0778   25.7845 C   0  0  0  0  0  0  0  0  0  0  0  0
    6.7134   -2.1187   24.9101 C   0  0  0  0  0  0  0  0  0  0  0  0
    6.0074   -1.3779   24.5090 H   0  0  0  0  0  0  0  0  0  0  0  0
    7.4459   -1.5630   25.5076 H   0  0  0  0  0  0  0  0  0  0  0  0
    5.3685   -2.5370   26.5731 H   0  0  0  0  0  0  0  0  0  0  0  0
    6.5654   -3.8034   26.2849 H   0  0  0  0  0  0  0  0  0  0  0  0
    4.5787   -4.8820   23.3861 H   0  0  0  0  0  0  0  0  0  0  0  0
    4.7439   -3.1472   23.0664 H   0  0  0  0  0  0  0  0  0  0  0  0
    6.7671   -4.3815   22.2723 H   0  0  0  0  0  0  0  0  0  0  0  0
    7.0230   -5.0064   23.8978 H   0  0  0  0  0  0  0  0  0  0  0  0
    8.4310   -3.1640   24.0459 H   0  0  0  0  0  0  0  0  0  0  0  0
    6.7458   -1.5573   21.7050 N   0  0  0  0  0  0  0  0  0  0  0  0
    7.3717   -0.5963   20.9740 N   0  0  0  0  0  0  0  0  0  0  0  0
    6.6773    0.0332   19.9003 C   0  0  0  0  0  0  0  0  0  0  0  0
    5.4484    0.6505   20.1511 C   0  0  0  0  0  0  0  0  0  0  0  0
    4.8155    1.3122   19.0978 C   0  0  0  0  0  0  0  0  0  0  0  0
    5.4185    1.3061   17.8343 C   0  0  0  0  0  0  0  0  0  0  0  0
    6.5702    0.6670   17.5718 N   0  0  0  0  0  0  0  0  0  0  0  0
    7.1799    0.0409   18.5865 C   0  0  0  0  0  0  0  0  0  0  0  0
    8.0978   -0.4959   18.3431 H   0  0  0  0  0  0  0  0  0  0  0  0
    4.9520    1.8278   17.0025 H   0  0  0  0  0  0  0  0  0  0  0  0
    3.8717    1.8282   19.2475 H   0  0  0  0  0  0  0  0  0  0  0  0
    5.0143    0.5978   21.1507 H   0  0  0  0  0  0  0  0  0  0  0  0
   10.4950    0.5532   21.5087 H   0  0  0  0  0  0  0  0  0  0  0  0
    9.6660    0.6299   19.9428 H   0  0  0  0  0  0  0  0  0  0  0  0
    9.7570    2.8548   21.1443 H   0  0  0  0  0  0  0  0  0  0  0  0
    8.0854    2.3126   20.8302 H   0  0  0  0  0  0  0  0  0  0  0  0
    9.5678    3.9781   26.7443 H   0  0  0  0  0  0  0  0  0  0  0  0
    8.9085    6.2292   25.9432 H   0  0  0  0  0  0  0  0  0  0  0  0
    7.9462    6.4942   23.6705 H   0  0  0  0  0  0  0  0  0  0  0  0
    6.6767    5.4700   21.9639 H   0  0  0  0  0  0  0  0  0  0  0  0
    6.7900    3.7566   21.5693 H   0  0  0  0  0  0  0  0  0  0  0  0
    8.0637    4.9108   21.0497 H   0  0  0  0  0  0  0  0  0  0  0  0
  1  2  1  0
  2  3  2  0
  3  4  1  0
  4  5  2  0
  5  6  1  0
  6  7  1  0
  7  8  1  0
  7  9  1  0
  7 10  1  0
  6 11  2  0
 11 12  1  0
 12 13  1  0
 13 14  1  0
 14 15  1  0
 15 16  2  0
 16 17  1  0
 17 18  1  0
 18 19  1  0
 19 20  1  0
 20 21  1  0
 21 22  1  0
 22 23  1  0
 23 24  1  0
 23 25  1  0
 22 26  1  0
 22 27  1  0
 20 28  1  0
 20 29  1  0
 19 30  1  0
 19 31  1  0
 18 32  1  0
 17 33  2  0
 33 34  1  0
 34 35  1  0
 35 36  2  0
 36 37  1  0
 37 38  2  0
 38 39  1  0
 39 40  2  0
 40 41  1  0
 38 42  1  0
 37 43  1  0
 36 44  1  0
 14 45  1  0
 14 46  1  0
 13 47  1  0
 13 48  1  0
  5 49  1  0
  4 50  1  0
  3 51  1  0
  1 52  1  0
  1 53  1  0
  1 54  1  0
 11  2  1  0
 34 15  1  0
 40 35  1  0
 23 18  1  0
M  END
>  <cnnaffinity>  (1) 
-6.09238

>  <filename>  (1) 
Cc1cccc(C)c1OCCc1nc(C2CCOCC2)nn1-c1cccnc1

$$$$
