
     RDKit          3D

 44 47  0  0  0  0  0  0  0  0999 V2000
    6.7838    1.4206   25.9627 C   0  0  0  0  0  0  0  0  0  0  0  0
    7.8311    1.7695   24.9624 C   0  0  0  0  0  0  0  0  0  0  0  0
    7.7138    1.7784   23.6127 C   0  0  0  0  0  0  0  0  0  0  0  0
    8.9244    2.1004   22.9198 C   0  0  0  0  0  0  0  0  0  0  0  0
    9.0462    2.0173   21.4193 C   0  0  0  0  0  0  0  0  0  0  0  0
    9.5211    0.6176   20.9400 C   0  0  0  0  0  0  0  0  0  0  0  0
    8.6431   -0.4984   21.4091 C   0  0  0  0  0  0  0  0  0  0  0  0
    8.8693   -1.3142   22.4264 N   0  0  0  0  0  0  0  0  0  0  0  0
    7.6699   -1.9225   22.5984 C   0  0  0  0  0  0  0  0  0  0  0  0
    7.3892   -2.8409   23.7438 C   0  0  0  0  0  0  0  0  0  0  0  0
    6.6004   -4.1206   23.3697 C   0  0  0  0  0  0  0  0  0  0  0  0
    5.2081   -3.6645   24.4573 S   0  0  0  0  0  0  0  0  0  0  0  0
    6.3537   -2.2792   24.7616 C   0  0  0  0  0  0  0  0  0  0  0  0
    6.7072   -2.2588   25.7977 H   0  0  0  0  0  0  0  0  0  0  0  0
    5.9300   -1.3090   24.4798 H   0  0  0  0  0  0  0  0  0  0  0  0
    7.0853   -5.0530   23.6726 H   0  0  0  0  0  0  0  0  0  0  0  0
    6.3088   -4.1716   22.3162 H   0  0  0  0  0  0  0  0  0  0  0  0
    8.3455   -3.0597   24.2154 H   0  0  0  0  0  0  0  0  0  0  0  0
    6.7403   -1.5782   21.7300 N   0  0  0  0  0  0  0  0  0  0  0  0
    7.3711   -0.6693   20.9433 N   0  0  0  0  0  0  0  0  0  0  0  0
    6.6613    0.0016   19.9041 C   0  0  0  0  0  0  0  0  0  0  0  0
    5.4426    0.6397   20.1663 C   0  0  0  0  0  0  0  0  0  0  0  0
    4.8130    1.3090   19.1108 C   0  0  0  0  0  0  0  0  0  0  0  0
    5.4009    1.2952   17.8396 C   0  0  0  0  0  0  0  0  0  0  0  0
    6.5611    0.6736   17.5797 N   0  0  0  0  0  0  0  0  0  0  0  0
    7.1705    0.0525   18.5955 C   0  0  0  0  0  0  0  0  0  0  0  0
    8.1155   -0.4345   18.3699 H   0  0  0  0  0  0  0  0  0  0  0  0
    4.9177    1.7839   16.9949 H   0  0  0  0  0  0  0  0  0  0  0  0
    3.8799    1.8391   19.2634 H   0  0  0  0  0  0  0  0  0  0  0  0
    5.0127    0.6091   21.1706 H   0  0  0  0  0  0  0  0  0  0  0  0
    9.5894    0.6069   19.8502 H   0  0  0  0  0  0  0  0  0  0  0  0
   10.5194    0.4148   21.3347 H   0  0  0  0  0  0  0  0  0  0  0  0
    9.7439    2.7786   21.0518 H   0  0  0  0  0  0  0  0  0  0  0  0
    8.0752    2.2415   20.9623 H   0  0  0  0  0  0  0  0  0  0  0  0
    9.9562    2.3240   23.7830 C   0  0  0  0  0  0  0  0  0  0  0  0
   11.3790    2.6347   23.4313 C   0  0  0  0  0  0  0  0  0  0  0  0
   11.8638    1.7710   22.9574 H   0  0  0  0  0  0  0  0  0  0  0  0
   11.4351    3.4461   22.6955 H   0  0  0  0  0  0  0  0  0  0  0  0
   11.9724    2.9116   24.3012 H   0  0  0  0  0  0  0  0  0  0  0  0
    9.4467    2.1671   25.4304 S   0  0  0  0  0  0  0  0  0  0  0  0
    6.7993    1.4992   23.0989 H   0  0  0  0  0  0  0  0  0  0  0  0
    6.8259    2.0493   26.8563 H   0  0  0  0  0  0  0  0  0  0  0  0
    6.9035    0.3809   26.2919 H   0  0  0  0  0  0  0  0  0  0  0  0
    5.7877    1.5038   25.5164 H   0  0  0  0  0  0  0  0  0  0  0  0
  1  2  1  0
  2  3  2  0
  3  4  1  0
  4  5  1  0
  5  6  1  0
  6  7  1  0
  7  8  2  0
  8  9  1  0
  9 10  1  0
 10 11  1  0
 11 12  1  0
 12 13  1  0
 13 14  1  0
 13 15  1  0
 11 16  1  0
 11 17  1  0
 10 18  1  0
  9 19  2  0
 19 20  1  0
 20 21  1  0
 21 22  2  0
 22 23  1  0
 23 24  2  0
 24 25  1  0
 25 26  2  0
 26 27  1  0
 24 28  1  0
 23 29  1  0
 22 30  1  0
  6 31  1  0
  6 32  1  0
  5 33  1  0
  5 34  1  0
  4 35  2  0
 35 36  1  0
 36 37  1  0
 36 38  1  0
 36 39  1  0
 35 40  1  0
  3 41  1  0
  1 42  1  0
  1 43  1  0
  1 44  1  0
 40  2  1  0
 20  7  1  0
 26 21  1  0
 13 10  1  0
M  END
>  <cnnaffinity>  (1) 
-6.09262

>  <filename>  (1) 
Cc1cc(CCc2nc(C3CSC3)nn2-c2cccnc2)c(C)s1

$$$$
