
     RDKit          3D

 50 53  0  0  0  0  0  0  0  0999 V2000
   11.8194    1.6464   24.1813 C   0  0  0  0  0  0  0  0  0  0  0  0
   11.8416    1.9065   24.1002 C   0  0  0  0  0  0  0  0  0  0  0  0
   12.3831    0.7076   23.1723 C   0  0  0  0  0  0  0  0  0  0  0  0
   11.5835    0.0655   22.1475 C   0  0  0  0  0  0  0  0  0  0  0  0
   12.0684   -1.2801   21.4870 C   0  0  0  0  0  0  0  0  0  0  0  0
   11.3043   -2.0707   21.5587 H   0  0  0  0  0  0  0  0  0  0  0  0
   12.3235   -1.1929   20.4199 H   0  0  0  0  0  0  0  0  0  0  0  0
   12.9717   -1.5886   22.0257 H   0  0  0  0  0  0  0  0  0  0  0  0
   10.4034    0.6720   21.6756 C   0  0  0  0  0  0  0  0  0  0  0  0
    9.5153   -0.0403   20.6300 C   0  0  0  0  0  0  0  0  0  0  0  0
    8.4686   -0.8883   21.2762 C   0  0  0  0  0  0  0  0  0  0  0  0
    8.6619   -1.6797   22.3126 N   0  0  0  0  0  0  0  0  0  0  0  0
    7.4326   -2.2134   22.5358 C   0  0  0  0  0  0  0  0  0  0  0  0
    7.1925   -3.1453   23.6707 C   0  0  0  0  0  0  0  0  0  0  0  0
    7.5050   -2.5966   25.0906 C   0  0  0  0  0  0  0  0  0  0  0  0
    7.9416   -3.8579   25.8699 C   0  0  0  0  0  0  0  0  0  0  0  0
    7.9732   -4.9241   24.9328 O   0  0  0  0  0  0  0  0  0  0  0  0
    8.1114   -4.3729   23.6415 C   0  0  0  0  0  0  0  0  0  0  0  0
    7.8126   -5.1396   22.9201 H   0  0  0  0  0  0  0  0  0  0  0  0
    9.1558   -4.0722   23.4395 H   0  0  0  0  0  0  0  0  0  0  0  0
    8.9359   -3.7174   26.3222 H   0  0  0  0  0  0  0  0  0  0  0  0
    7.2457   -4.1437   26.6664 H   0  0  0  0  0  0  0  0  0  0  0  0
    8.3385   -1.8831   25.0452 H   0  0  0  0  0  0  0  0  0  0  0  0
    6.6551   -2.0849   25.5527 H   0  0  0  0  0  0  0  0  0  0  0  0
    6.1492   -3.4671   23.6065 H   0  0  0  0  0  0  0  0  0  0  0  0
    6.5027   -1.8405   21.6844 N   0  0  0  0  0  0  0  0  0  0  0  0
    7.1720   -0.9975   20.8521 N   0  0  0  0  0  0  0  0  0  0  0  0
    6.5007   -0.3207   19.7916 C   0  0  0  0  0  0  0  0  0  0  0  0
    5.3740    0.4623   20.0636 C   0  0  0  0  0  0  0  0  0  0  0  0
    4.8273    1.2142   19.0210 C   0  0  0  0  0  0  0  0  0  0  0  0
    5.3977    1.1283   17.7453 C   0  0  0  0  0  0  0  0  0  0  0  0
    6.4435    0.3367   17.4628 N   0  0  0  0  0  0  0  0  0  0  0  0
    6.9711   -0.3767   18.4658 C   0  0  0  0  0  0  0  0  0  0  0  0
    7.8163   -1.0155   18.2124 H   0  0  0  0  0  0  0  0  0  0  0  0
    4.9904    1.7039   16.9163 H   0  0  0  0  0  0  0  0  0  0  0  0
    3.9758    1.8646   19.1872 H   0  0  0  0  0  0  0  0  0  0  0  0
    4.9583    0.4656   21.0712 H   0  0  0  0  0  0  0  0  0  0  0  0
    9.0489    0.6982   19.9777 H   0  0  0  0  0  0  0  0  0  0  0  0
   10.1288   -0.6865   20.0034 H   0  0  0  0  0  0  0  0  0  0  0  0
    9.9999    1.8776   22.1867 C   0  0  0  0  0  0  0  0  0  0  0  0
    8.8489    2.7008   21.6087 C   0  0  0  0  0  0  0  0  0  0  0  0
    8.8885    3.7047   22.0459 H   0  0  0  0  0  0  0  0  0  0  0  0
    7.8377    2.2874   21.7940 H   0  0  0  0  0  0  0  0  0  0  0  0
    8.9041    2.8228   20.5146 H   0  0  0  0  0  0  0  0  0  0  0  0
   10.7582    2.4063   23.3589 C   0  0  0  0  0  0  0  0  0  0  0  0
   11.0653    3.4406   23.4018 H   0  0  0  0  0  0  0  0  0  0  0  0
   12.9242   -0.1011   23.6916 H   0  0  0  0  0  0  0  0  0  0  0  0
   11.3331    0.4321   24.9703 H   0  0  0  0  0  0  0  0  0  0  0  0
   12.0976    2.0987   25.3112 H   0  0  0  0  0  0  0  0  0  0  0  0
   12.6092    3.2307   23.7529 H   0  0  0  0  0  0  0  0  0  0  0  0
  1  2  1  0
  2  3  2  0
  3  4  1  0
  4  5  1  0
  5  6  1  0
  5  7  1  0
  5  8  1  0
  4  9  2  0
  9 10  1  0
 10 11  1  0
 11 12  2  0
 12 13  1  0
 13 14  1  0
 14 15  1  0
 15 16  1  0
 16 17  1  0
 17 18  1  0
 18 19  1  0
 18 20  1  0
 16 21  1  0
 16 22  1  0
 15 23  1  0
 15 24  1  0
 14 25  1  0
 13 26  2  0
 26 27  1  0
 27 28  1  0
 28 29  2  0
 29 30  1  0
 30 31  2  0
 31 32  1  0
 32 33  2  0
 33 34  1  0
 31 35  1  0
 30 36  1  0
 29 37  1  0
 10 38  1  0
 10 39  1  0
  9 40  1  0
 40 41  1  0
 41 42  1  0
 41 43  1  0
 41 44  1  0
 40 45  2  0
 45 46  1  0
  3 47  1  0
  1 48  1  0
  1 49  1  0
  1 50  1  0
 45  2  1  0
 27 11  1  0
 33 28  1  0
 18 14  1  0
M  END
>  <cnnaffinity>  (1) 
-6.37855

>  <filename>  (1) 
Cc1cc(C)c(Cc2nc(C3CCOC3)nn2-c2cccnc2)c(C)c1

$$$$
