
     RDKit          3D

 48 51  0  0  0  0  0  0  0  0999 V2000
    1.8670    3.3724   27.1459 C   0  0  0  0  0  0  0  0  0  0  0  0
    3.1774    3.1901   26.4501 C   0  0  0  0  0  0  0  0  0  0  0  0
    3.9643    4.2001   26.1921 N   0  0  0  0  0  0  0  0  0  0  0  0
    5.0671    3.6659   25.5441 O   0  0  0  0  0  0  0  0  0  0  0  0
    4.9181    2.3375   25.4292 C   0  0  0  0  0  0  0  0  0  0  0  0
    6.0191    1.5402   24.8114 C   0  0  0  0  0  0  0  0  0  0  0  0
    6.3791    1.9030   23.3491 C   0  0  0  0  0  0  0  0  0  0  0  0
    7.3811    0.9767   22.7432 C   0  0  0  0  0  0  0  0  0  0  0  0
    8.6529    0.9211   23.0883 N   0  0  0  0  0  0  0  0  0  0  0  0
    9.1615   -0.0363   22.2730 C   0  0  0  0  0  0  0  0  0  0  0  0
   10.5841   -0.4081   22.1999 C   0  0  0  0  0  0  0  0  0  0  0  0
   10.9943   -1.3860   21.2799 C   0  0  0  0  0  0  0  0  0  0  0  0
   12.3438   -1.7059   21.1629 C   0  0  0  0  0  0  0  0  0  0  0  0
   13.2692   -1.0541   21.9671 C   0  0  0  0  0  0  0  0  0  0  0  0
   14.5550   -1.4278   21.8724 F   0  0  0  0  0  0  0  0  0  0  0  0
   12.9152   -0.0196   22.8461 C   0  0  0  0  0  0  0  0  0  0  0  0
   13.9461    0.8070   23.5687 C   0  0  0  0  0  0  0  0  0  0  0  0
   14.6852    1.2011   22.8613 H   0  0  0  0  0  0  0  0  0  0  0  0
   13.4655    1.6592   24.0606 H   0  0  0  0  0  0  0  0  0  0  0  0
   14.4645    0.2184   24.3309 H   0  0  0  0  0  0  0  0  0  0  0  0
   11.5529    0.2551   22.9680 C   0  0  0  0  0  0  0  0  0  0  0  0
   11.2403    1.0293   23.6654 H   0  0  0  0  0  0  0  0  0  0  0  0
   12.7143   -2.4156   20.4343 H   0  0  0  0  0  0  0  0  0  0  0  0
   10.2327   -1.8522   20.6599 H   0  0  0  0  0  0  0  0  0  0  0  0
    8.2617   -0.5937   21.4769 N   0  0  0  0  0  0  0  0  0  0  0  0
    7.1252    0.0628   21.7767 N   0  0  0  0  0  0  0  0  0  0  0  0
    5.8937   -0.2506   21.0614 C   0  0  0  0  0  0  0  0  0  0  0  0
    5.7432    0.4276   19.7105 C   0  0  0  0  0  0  0  0  0  0  0  0
    4.6668    1.2686   19.4042 C   0  0  0  0  0  0  0  0  0  0  0  0
    4.5941    1.8269   18.1279 C   0  0  0  0  0  0  0  0  0  0  0  0
    5.5959    1.5260   17.2050 C   0  0  0  0  0  0  0  0  0  0  0  0
    6.6322    0.7172   17.4693 N   0  0  0  0  0  0  0  0  0  0  0  0
    6.6943    0.1971   18.6997 C   0  0  0  0  0  0  0  0  0  0  0  0
    7.5479   -0.4458   18.9046 H   0  0  0  0  0  0  0  0  0  0  0  0
    5.5841    1.9641   16.2121 H   0  0  0  0  0  0  0  0  0  0  0  0
    3.7857    2.4920   17.8451 H   0  0  0  0  0  0  0  0  0  0  0  0
    3.9009    1.5025   20.1475 H   0  0  0  0  0  0  0  0  0  0  0  0
    5.0671    0.0296   21.7137 H   0  0  0  0  0  0  0  0  0  0  0  0
    5.8720   -1.3415   20.9561 H   0  0  0  0  0  0  0  0  0  0  0  0
    6.8055    2.9099   23.2962 H   0  0  0  0  0  0  0  0  0  0  0  0
    5.4738    1.9196   22.7355 H   0  0  0  0  0  0  0  0  0  0  0  0
    5.7088    0.4899   24.8653 H   0  0  0  0  0  0  0  0  0  0  0  0
    6.9148    1.6351   25.4361 H   0  0  0  0  0  0  0  0  0  0  0  0
    3.7370    1.9701   25.9842 C   0  0  0  0  0  0  0  0  0  0  0  0
    3.3197    0.9805   26.0692 H   0  0  0  0  0  0  0  0  0  0  0  0
    1.8709    4.2578   27.7868 H   0  0  0  0  0  0  0  0  0  0  0  0
    1.6490    2.4957   27.7593 H   0  0  0  0  0  0  0  0  0  0  0  0
    1.0593    3.4721   26.4140 H   0  0  0  0  0  0  0  0  0  0  0  0
  1  2  1  0
  2  3  2  0
  3  4  1  0
  4  5  1  0
  5  6  1  0
  6  7  1  0
  7  8  1  0
  8  9  2  0
  9 10  1  0
 10 11  1  0
 11 12  2  0
 12 13  1  0
 13 14  2  0
 14 15  1  0
 14 16  1  0
 16 17  1  0
 17 18  1  0
 17 19  1  0
 17 20  1  0
 16 21  2  0
 21 22  1  0
 13 23  1  0
 12 24  1  0
 10 25  2  0
 25 26  1  0
 26 27  1  0
 27 28  1  0
 28 29  2  0
 29 30  1  0
 30 31  2  0
 31 32  1  0
 32 33  2  0
 33 34  1  0
 31 35  1  0
 30 36  1  0
 29 37  1  0
 27 38  1  0
 27 39  1  0
  7 40  1  0
  7 41  1  0
  6 42  1  0
  6 43  1  0
  5 44  2  0
 44 45  1  0
  1 46  1  0
  1 47  1  0
  1 48  1  0
 44  2  1  0
 26  8  1  0
 33 28  1  0
 21 11  1  0
M  END
>  <cnnaffinity>  (1) 
-6.4485

>  <filename>  (1) 
Cc1cc(CCc2nc(-c3ccc(F)c(C)c3)nn2Cc2cccnc2)on1

$$$$
