
     RDKit          3D

 43 46  0  0  0  0  0  0  0  0999 V2000
    4.4643   -4.0182   23.3332 C   0  0  0  0  0  0  0  0  0  0  0  0
    4.8897   -4.0209   23.3812 C   0  0  0  0  0  0  0  0  0  0  0  0
    5.3575   -4.8911   24.4236 C   0  0  0  0  0  0  0  0  0  0  0  0
    5.7771   -6.1626   24.2710 C   0  0  0  0  0  0  0  0  0  0  0  0
    5.9882   -6.6691   22.9972 C   0  0  0  0  0  0  0  0  0  0  0  0
    6.0299   -5.8303   21.8698 C   0  0  0  0  0  0  0  0  0  0  0  0
    5.6389   -4.5604   21.9007 C   0  0  0  0  0  0  0  0  0  0  0  0
    5.7682   -3.6759   20.6815 C   0  0  0  0  0  0  0  0  0  0  0  0
    6.9747   -2.7133   20.6145 C   0  0  0  0  0  0  0  0  0  0  0  0
    7.1553   -1.6114   21.6049 C   0  0  0  0  0  0  0  0  0  0  0  0
    7.6021   -1.7937   22.8277 N   0  0  0  0  0  0  0  0  0  0  0  0
    7.8172   -0.5285   23.2876 C   0  0  0  0  0  0  0  0  0  0  0  0
    8.4442   -0.2621   24.6077 C   0  0  0  0  0  0  0  0  0  0  0  0
    7.6982    0.0016   25.9044 C   0  0  0  0  0  0  0  0  0  0  0  0
    8.4047   -1.3016   25.7035 C   0  0  0  0  0  0  0  0  0  0  0  0
    7.7632   -2.1602   25.5094 H   0  0  0  0  0  0  0  0  0  0  0  0
    9.3104   -1.5360   26.2583 H   0  0  0  0  0  0  0  0  0  0  0  0
    8.1477    0.7319   26.5771 H   0  0  0  0  0  0  0  0  0  0  0  0
    6.6093    0.0096   25.9049 H   0  0  0  0  0  0  0  0  0  0  0  0
    9.3575    0.3190   24.4817 H   0  0  0  0  0  0  0  0  0  0  0  0
    7.5233    0.4223   22.4222 N   0  0  0  0  0  0  0  0  0  0  0  0
    7.1052   -0.2704   21.3306 N   0  0  0  0  0  0  0  0  0  0  0  0
    6.6052    0.4035   20.1678 C   0  0  0  0  0  0  0  0  0  0  0  0
    5.3943    1.1010   20.2319 C   0  0  0  0  0  0  0  0  0  0  0  0
    4.8890    1.6599   19.0548 C   0  0  0  0  0  0  0  0  0  0  0  0
    5.6211    1.5321   17.8696 C   0  0  0  0  0  0  0  0  0  0  0  0
    6.7997    0.8950   17.8047 N   0  0  0  0  0  0  0  0  0  0  0  0
    7.2805    0.3562   18.9343 C   0  0  0  0  0  0  0  0  0  0  0  0
    8.2397   -0.1553   18.8527 H   0  0  0  0  0  0  0  0  0  0  0  0
    5.2493    1.9586   16.9394 H   0  0  0  0  0  0  0  0  0  0  0  0
    3.9485    2.1984   19.0482 H   0  0  0  0  0  0  0  0  0  0  0  0
    4.8665    1.1853   21.1821 H   0  0  0  0  0  0  0  0  0  0  0  0
    7.8806   -3.3178   20.7269 H   0  0  0  0  0  0  0  0  0  0  0  0
    6.9733   -2.2563   19.6187 H   0  0  0  0  0  0  0  0  0  0  0  0
    4.8523   -3.1261   20.5011 H   0  0  0  0  0  0  0  0  0  0  0  0
    5.8650   -4.3260   19.7986 H   0  0  0  0  0  0  0  0  0  0  0  0
    6.3856   -6.2607   20.9246 H   0  0  0  0  0  0  0  0  0  0  0  0
    6.2776   -7.7153   22.8647 H   0  0  0  0  0  0  0  0  0  0  0  0
    5.9197   -6.7615   25.1821 H   0  0  0  0  0  0  0  0  0  0  0  0
    5.3009   -4.4912   25.4247 H   0  0  0  0  0  0  0  0  0  0  0  0
    5.1156   -2.7772   23.2152 H   0  0  0  0  0  0  0  0  0  0  0  0
    3.4899   -3.7590   23.8819 H   0  0  0  0  0  0  0  0  0  0  0  0
    3.5628   -4.1363   22.5686 H   0  0  0  0  0  0  0  0  0  0  0  0
  1  2  1  0
  2  3  2  0
  3  4  1  0
  4  5  2  0
  5  6  1  0
  6  7  2  0
  7  8  1  0
  8  9  1  0
  9 10  1  0
 10 11  2  0
 11 12  1  0
 12 13  1  0
 13 14  1  0
 14 15  1  0
 15 16  1  0
 15 17  1  0
 14 18  1  0
 14 19  1  0
 13 20  1  0
 12 21  2  0
 21 22  1  0
 22 23  1  0
 23 24  2  0
 24 25  1  0
 25 26  2  0
 26 27  1  0
 27 28  2  0
 28 29  1  0
 26 30  1  0
 25 31  1  0
 24 32  1  0
  9 33  1  0
  9 34  1  0
  8 35  1  0
  8 36  1  0
  6 37  1  0
  5 38  1  0
  4 39  1  0
  3 40  1  0
  1 41  1  0
  1 42  1  0
  1 43  1  0
  7  2  1  0
 22 10  1  0
 28 23  1  0
 15 13  1  0
M  END
>  <cnnaffinity>  (1) 
-5.78594

>  <filename>  (1) 
Cc1ccccc1CCc1nc(C2CC2)nn1-c1cccnc1

$$$$
