
     RDKit          3D

 45 48  0  0  0  0  0  0  0  0999 V2000
    7.1484    0.5880   25.1915 C   0  0  0  0  0  0  0  0  0  0  0  0
    7.6035    2.0190   25.0615 C   0  0  0  0  0  0  0  0  0  0  0  0
    8.1721    2.6670   26.1627 C   0  0  0  0  0  0  0  0  0  0  0  0
    8.5953    3.9895   26.0452 C   0  0  0  0  0  0  0  0  0  0  0  0
    8.4918    4.6997   24.9178 N   0  0  0  0  0  0  0  0  0  0  0  0
    7.9770    4.0670   23.8549 C   0  0  0  0  0  0  0  0  0  0  0  0
    7.5351    2.7375   23.8462 C   0  0  0  0  0  0  0  0  0  0  0  0
    7.1430    2.0489   22.5377 C   0  0  0  0  0  0  0  0  0  0  0  0
    8.0689    0.9071   22.1968 C   0  0  0  0  0  0  0  0  0  0  0  0
    9.3636    0.9318   22.4587 N   0  0  0  0  0  0  0  0  0  0  0  0
    9.8001   -0.2779   22.0492 C   0  0  0  0  0  0  0  0  0  0  0  0
   11.2357   -0.6554   22.0079 C   0  0  0  0  0  0  0  0  0  0  0  0
   11.5807   -1.7149   21.1565 C   0  0  0  0  0  0  0  0  0  0  0  0
   12.9163   -1.8914   20.8363 C   0  0  0  0  0  0  0  0  0  0  0  0
   13.2772   -2.7058   19.8417 F   0  0  0  0  0  0  0  0  0  0  0  0
   13.9305   -1.1814   21.4406 C   0  0  0  0  0  0  0  0  0  0  0  0
   13.5778   -0.1840   22.3384 C   0  0  0  0  0  0  0  0  0  0  0  0
   14.5533    0.5498   22.8883 F   0  0  0  0  0  0  0  0  0  0  0  0
   12.2479    0.0901   22.6523 C   0  0  0  0  0  0  0  0  0  0  0  0
   12.0420    0.8842   23.3614 H   0  0  0  0  0  0  0  0  0  0  0  0
   14.9426   -1.4238   21.1753 H   0  0  0  0  0  0  0  0  0  0  0  0
   10.7935   -2.3277   20.7283 H   0  0  0  0  0  0  0  0  0  0  0  0
    8.8479   -1.0475   21.5368 N   0  0  0  0  0  0  0  0  0  0  0  0
    7.7413   -0.2875   21.6455 N   0  0  0  0  0  0  0  0  0  0  0  0
    6.4882   -0.7523   21.0675 C   0  0  0  0  0  0  0  0  0  0  0  0
    6.0624    0.0400   19.8520 C   0  0  0  0  0  0  0  0  0  0  0  0
    4.8708    0.7673   19.8349 C   0  0  0  0  0  0  0  0  0  0  0  0
    4.5445    1.4918   18.6870 C   0  0  0  0  0  0  0  0  0  0  0  0
    5.4355    1.4732   17.6104 C   0  0  0  0  0  0  0  0  0  0  0  0
    6.5863    0.7844   17.6066 N   0  0  0  0  0  0  0  0  0  0  0  0
    6.8859    0.0954   18.7139 C   0  0  0  0  0  0  0  0  0  0  0  0
    7.8344   -0.4413   18.7032 H   0  0  0  0  0  0  0  0  0  0  0  0
    5.2172    2.0360   16.7065 H   0  0  0  0  0  0  0  0  0  0  0  0
    3.6356    2.0787   18.6251 H   0  0  0  0  0  0  0  0  0  0  0  0
    4.2262    0.7830   20.7181 H   0  0  0  0  0  0  0  0  0  0  0  0
    6.6394   -1.8117   20.8361 H   0  0  0  0  0  0  0  0  0  0  0  0
    5.7187   -0.6986   21.8411 H   0  0  0  0  0  0  0  0  0  0  0  0
    6.1129    1.6778   22.5801 H   0  0  0  0  0  0  0  0  0  0  0  0
    7.1864    2.7707   21.7132 H   0  0  0  0  0  0  0  0  0  0  0  0
    7.9232    4.6522   22.9350 H   0  0  0  0  0  0  0  0  0  0  0  0
    9.0347    4.5066   26.8952 H   0  0  0  0  0  0  0  0  0  0  0  0
    8.2969    2.1361   27.1015 H   0  0  0  0  0  0  0  0  0  0  0  0
    7.8064   -0.0939   24.6438 H   0  0  0  0  0  0  0  0  0  0  0  0
    7.1631    0.2703   26.2363 H   0  0  0  0  0  0  0  0  0  0  0  0
    6.1330    0.4413   24.8096 H   0  0  0  0  0  0  0  0  0  0  0  0
  1  2  1  0
  2  3  2  0
  3  4  1  0
  4  5  2  0
  5  6  1  0
  6  7  2  0
  7  8  1  0
  8  9  1  0
  9 10  2  0
 10 11  1  0
 11 12  1  0
 12 13  2  0
 13 14  1  0
 14 15  1  0
 14 16  2  0
 16 17  1  0
 17 18  1  0
 17 19  2  0
 19 20  1  0
 16 21  1  0
 13 22  1  0
 11 23  2  0
 23 24  1  0
 24 25  1  0
 25 26  1  0
 26 27  2  0
 27 28  1  0
 28 29  2  0
 29 30  1  0
 30 31  2  0
 31 32  1  0
 29 33  1  0
 28 34  1  0
 27 35  1  0
 25 36  1  0
 25 37  1  0
  8 38  1  0
  8 39  1  0
  6 40  1  0
  4 41  1  0
  3 42  1  0
  1 43  1  0
  1 44  1  0
  1 45  1  0
  7  2  1  0
 24  9  1  0
 31 26  1  0
 19 12  1  0
M  END
>  <cnnaffinity>  (1) 
-6.67104

>  <filename>  (1) 
Cc1ccncc1Cc1nc(-c2cc(F)cc(F)c2)nn1Cc1cccnc1

$$$$
