
     RDKit          3D

 43 46  0  0  0  0  0  0  0  0999 V2000
    6.7230   -6.0378   26.6150 C   0  0  0  0  0  0  0  0  0  0  0  0
    6.9669   -4.9830   25.5666 C   0  0  0  0  0  0  0  0  0  0  0  0
    8.2289   -4.3873   25.4229 C   0  0  0  0  0  0  0  0  0  0  0  0
    8.4663   -3.4273   24.4415 C   0  0  0  0  0  0  0  0  0  0  0  0
    7.4277   -3.0437   23.5676 C   0  0  0  0  0  0  0  0  0  0  0  0
    7.6572   -2.0252   22.5228 C   0  0  0  0  0  0  0  0  0  0  0  0
    6.7135   -1.6042   21.6942 N   0  0  0  0  0  0  0  0  0  0  0  0
    7.3497   -0.6858   20.9319 N   0  0  0  0  0  0  0  0  0  0  0  0
    6.6528    0.0005   19.8997 C   0  0  0  0  0  0  0  0  0  0  0  0
    5.4381    0.6416   20.1674 C   0  0  0  0  0  0  0  0  0  0  0  0
    4.8132    1.3108   19.1092 C   0  0  0  0  0  0  0  0  0  0  0  0
    5.3995    1.2962   17.8369 C   0  0  0  0  0  0  0  0  0  0  0  0
    6.5556    0.6694   17.5727 N   0  0  0  0  0  0  0  0  0  0  0  0
    7.1643    0.0472   18.5898 C   0  0  0  0  0  0  0  0  0  0  0  0
    8.1114   -0.4359   18.3637 H   0  0  0  0  0  0  0  0  0  0  0  0
    4.9219    1.7883   16.9930 H   0  0  0  0  0  0  0  0  0  0  0  0
    3.8810    1.8397   19.2580 H   0  0  0  0  0  0  0  0  0  0  0  0
    5.0125    0.6049   21.1758 H   0  0  0  0  0  0  0  0  0  0  0  0
    8.6282   -0.5504   21.3971 C   0  0  0  0  0  0  0  0  0  0  0  0
    9.6163    0.4419   20.9066 C   0  0  0  0  0  0  0  0  0  0  0  0
   10.0095    1.3728   21.9449 N   0  0  0  0  0  0  0  0  0  0  0  0
   11.1653    1.1903   22.6020 N   0  0  0  0  0  0  0  0  0  0  0  0
   11.1593    2.0808   23.5797 C   0  0  0  0  0  0  0  0  0  0  0  0
    9.9688    2.8300   23.5537 C   0  0  0  0  0  0  0  0  0  0  0  0
    9.4884    4.0975   24.6140 Cl  0  0  0  0  0  0  0  0  0  0  0  0
    9.2328    2.3455   22.4959 C   0  0  0  0  0  0  0  0  0  0  0  0
    7.8532    2.7081   22.0469 C   0  0  0  0  0  0  0  0  0  0  0  0
    7.5950    3.6952   22.4353 H   0  0  0  0  0  0  0  0  0  0  0  0
    7.1072    1.9957   22.4216 H   0  0  0  0  0  0  0  0  0  0  0  0
    7.7610    2.7144   20.9585 H   0  0  0  0  0  0  0  0  0  0  0  0
   11.9800    2.1663   24.2795 H   0  0  0  0  0  0  0  0  0  0  0  0
    9.2177    1.0039   20.0667 H   0  0  0  0  0  0  0  0  0  0  0  0
   10.5071   -0.0998   20.6090 H   0  0  0  0  0  0  0  0  0  0  0  0
    8.8607   -1.4135   22.3518 N   0  0  0  0  0  0  0  0  0  0  0  0
    6.1577   -3.6396   23.7061 C   0  0  0  0  0  0  0  0  0  0  0  0
    5.9415   -4.5969   24.6915 C   0  0  0  0  0  0  0  0  0  0  0  0
    4.9622   -5.0577   24.7917 H   0  0  0  0  0  0  0  0  0  0  0  0
    5.3492   -3.3430   23.0406 H   0  0  0  0  0  0  0  0  0  0  0  0
    9.4532   -2.9752   24.3521 H   0  0  0  0  0  0  0  0  0  0  0  0
    9.0291   -4.6902   26.0947 H   0  0  0  0  0  0  0  0  0  0  0  0
    5.6827   -6.0511   26.9549 H   0  0  0  0  0  0  0  0  0  0  0  0
    6.9331   -7.0323   26.2159 H   0  0  0  0  0  0  0  0  0  0  0  0
    7.3614   -5.9056   27.4941 H   0  0  0  0  0  0  0  0  0  0  0  0
  1  2  1  0
  2  3  2  0
  3  4  1  0
  4  5  2  0
  5  6  1  0
  6  7  2  0
  7  8  1  0
  8  9  1  0
  9 10  2  0
 10 11  1  0
 11 12  2  0
 12 13  1  0
 13 14  2  0
 14 15  1  0
 12 16  1  0
 11 17  1  0
 10 18  1  0
  8 19  1  0
 19 20  1  0
 20 21  1  0
 21 22  1  0
 22 23  2  0
 23 24  1  0
 24 25  1  0
 24 26  2  0
 26 27  1  0
 27 28  1  0
 27 29  1  0
 27 30  1  0
 23 31  1  0
 20 32  1  0
 20 33  1  0
 19 34  2  0
  5 35  1  0
 35 36  2  0
 36 37  1  0
 35 38  1  0
  4 39  1  0
  3 40  1  0
  1 41  1  0
  1 42  1  0
  1 43  1  0
 36  2  1  0
 34  6  1  0
 14  9  1  0
 26 21  1  0
M  END
>  <cnnaffinity>  (1) 
-6.08408

>  <filename>  (1) 
Cc1ccc(-c2nc(Cn3ncc(Cl)c3C)n(-c3cccnc3)n2)cc1

$$$$
