
     RDKit          3D

 44 47  0  0  0  0  0  0  0  0999 V2000
    7.7473    2.4620   26.2284 C   0  0  0  0  0  0  0  0  0  0  0  0
    6.6691    3.2757   25.5450 C   0  0  0  0  0  0  0  0  0  0  0  0
    6.4388    4.6011   25.9456 C   0  0  0  0  0  0  0  0  0  0  0  0
    5.4938    5.4084   25.2994 C   0  0  0  0  0  0  0  0  0  0  0  0
    4.7391    4.8837   24.2500 C   0  0  0  0  0  0  0  0  0  0  0  0
    4.9409    3.5572   23.8576 C   0  0  0  0  0  0  0  0  0  0  0  0
    5.8998    2.7433   24.4801 C   0  0  0  0  0  0  0  0  0  0  0  0
    6.1559    1.3580   23.9228 C   0  0  0  0  0  0  0  0  0  0  0  0
    7.1565    1.3973   22.7425 C   0  0  0  0  0  0  0  0  0  0  0  0
    7.5218    0.0416   22.2398 C   0  0  0  0  0  0  0  0  0  0  0  0
    8.1845   -0.8269   22.9799 N   0  0  0  0  0  0  0  0  0  0  0  0
    8.3185   -1.8987   22.1609 C   0  0  0  0  0  0  0  0  0  0  0  0
    8.9978   -3.1506   22.6140 C   0  0  0  0  0  0  0  0  0  0  0  0
    8.3564   -3.9692   23.7770 C   0  0  0  0  0  0  0  0  0  0  0  0
   10.0012   -4.2841   24.5066 S   0  0  0  0  0  0  0  0  0  0  0  0
   10.3648   -2.9420   23.3197 C   0  0  0  0  0  0  0  0  0  0  0  0
   10.4170   -1.9823   23.8427 H   0  0  0  0  0  0  0  0  0  0  0  0
   11.2690   -3.0468   22.7073 H   0  0  0  0  0  0  0  0  0  0  0  0
    7.8317   -4.8904   23.4963 H   0  0  0  0  0  0  0  0  0  0  0  0
    7.7263   -3.3653   24.4388 H   0  0  0  0  0  0  0  0  0  0  0  0
    9.0777   -3.7873   21.7365 H   0  0  0  0  0  0  0  0  0  0  0  0
    7.8004   -1.7506   20.9624 N   0  0  0  0  0  0  0  0  0  0  0  0
    7.2612   -0.4965   21.0092 N   0  0  0  0  0  0  0  0  0  0  0  0
    6.5846    0.0685   19.8869 C   0  0  0  0  0  0  0  0  0  0  0  0
    5.4216    0.8395   20.0187 C   0  0  0  0  0  0  0  0  0  0  0  0
    4.8675    1.4210   18.8713 C   0  0  0  0  0  0  0  0  0  0  0  0
    5.4920    1.2091   17.6392 C   0  0  0  0  0  0  0  0  0  0  0  0
    6.5845    0.4419   17.4976 N   0  0  0  0  0  0  0  0  0  0  0  0
    7.1042   -0.1258   18.5911 C   0  0  0  0  0  0  0  0  0  0  0  0
    7.9790   -0.7519   18.4477 H   0  0  0  0  0  0  0  0  0  0  0  0
    5.0955    1.6607   16.7323 H   0  0  0  0  0  0  0  0  0  0  0  0
    3.9834    2.0447   18.9270 H   0  0  0  0  0  0  0  0  0  0  0  0
    4.9528    0.9900   20.9908 H   0  0  0  0  0  0  0  0  0  0  0  0
    8.0887    1.8728   23.0742 H   0  0  0  0  0  0  0  0  0  0  0  0
    6.7731    2.0329   21.9403 H   0  0  0  0  0  0  0  0  0  0  0  0
    6.5381    0.6832   24.7001 H   0  0  0  0  0  0  0  0  0  0  0  0
    5.2078    0.9167   23.5811 H   0  0  0  0  0  0  0  0  0  0  0  0
    4.3548    3.1418   23.0401 H   0  0  0  0  0  0  0  0  0  0  0  0
    4.0111    5.5006   23.7277 H   0  0  0  0  0  0  0  0  0  0  0  0
    5.3544    6.4416   25.6114 H   0  0  0  0  0  0  0  0  0  0  0  0
    7.0205    5.0035   26.7735 H   0  0  0  0  0  0  0  0  0  0  0  0
    8.2313    3.0240   27.0325 H   0  0  0  0  0  0  0  0  0  0  0  0
    8.5289    2.1768   25.5128 H   0  0  0  0  0  0  0  0  0  0  0  0
    7.3534    1.5340   26.6612 H   0  0  0  0  0  0  0  0  0  0  0  0
  1  2  1  0
  2  3  2  0
  3  4  1  0
  4  5  2  0
  5  6  1  0
  6  7  2  0
  7  8  1  0
  8  9  1  0
  9 10  1  0
 10 11  2  0
 11 12  1  0
 12 13  1  0
 13 14  1  0
 14 15  1  0
 15 16  1  0
 16 17  1  0
 16 18  1  0
 14 19  1  0
 14 20  1  0
 13 21  1  0
 12 22  2  0
 22 23  1  0
 23 24  1  0
 24 25  2  0
 25 26  1  0
 26 27  2  0
 27 28  1  0
 28 29  2  0
 29 30  1  0
 27 31  1  0
 26 32  1  0
 25 33  1  0
  9 34  1  0
  9 35  1  0
  8 36  1  0
  8 37  1  0
  6 38  1  0
  5 39  1  0
  4 40  1  0
  3 41  1  0
  1 42  1  0
  1 43  1  0
  1 44  1  0
  7  2  1  0
 23 10  1  0
 29 24  1  0
 16 13  1  0
M  END
>  <cnnaffinity>  (1) 
-5.89215

>  <filename>  (1) 
Cc1ccccc1CCc1nc(C2CSC2)nn1-c1cccnc1

$$$$
