
     RDKit          3D

 42 45  0  0  0  0  0  0  0  0999 V2000
    8.1580    2.6788   22.1041 C   0  0  0  0  0  0  0  0  0  0  0  0
    9.5406    2.2731   22.5505 C   0  0  0  0  0  0  0  0  0  0  0  0
   10.1567    2.9571   23.5996 C   0  0  0  0  0  0  0  0  0  0  0  0
   11.4293    2.5595   24.0121 C   0  0  0  0  0  0  0  0  0  0  0  0
   12.0434    1.4961   23.3556 C   0  0  0  0  0  0  0  0  0  0  0  0
   11.4797    0.8276   22.3392 N   0  0  0  0  0  0  0  0  0  0  0  0
   10.2607    1.2052   21.9510 C   0  0  0  0  0  0  0  0  0  0  0  0
    9.6375    0.3923   20.8495 C   0  0  0  0  0  0  0  0  0  0  0  0
    8.6292   -0.5438   21.3894 C   0  0  0  0  0  0  0  0  0  0  0  0
    8.8628   -1.4003   22.3523 N   0  0  0  0  0  0  0  0  0  0  0  0
    7.6636   -2.0178   22.5269 C   0  0  0  0  0  0  0  0  0  0  0  0
    7.4334   -3.0460   23.5750 C   0  0  0  0  0  0  0  0  0  0  0  0
    6.1581   -3.6331   23.7254 C   0  0  0  0  0  0  0  0  0  0  0  0
    5.9383   -4.5959   24.7117 C   0  0  0  0  0  0  0  0  0  0  0  0
    6.9774   -4.9868   25.5633 C   0  0  0  0  0  0  0  0  0  0  0  0
    8.2437   -4.4072   25.4241 C   0  0  0  0  0  0  0  0  0  0  0  0
    8.4765   -3.4429   24.4396 C   0  0  0  0  0  0  0  0  0  0  0  0
    9.4646   -2.9942   24.3402 H   0  0  0  0  0  0  0  0  0  0  0  0
    9.0519   -4.7089   26.0866 H   0  0  0  0  0  0  0  0  0  0  0  0
    6.8002   -5.7376   26.3324 H   0  0  0  0  0  0  0  0  0  0  0  0
    4.9514   -5.0397   24.8173 H   0  0  0  0  0  0  0  0  0  0  0  0
    5.3470   -3.3227   23.0678 H   0  0  0  0  0  0  0  0  0  0  0  0
    6.7161   -1.6014   21.7000 N   0  0  0  0  0  0  0  0  0  0  0  0
    7.3484   -0.6840   20.9328 N   0  0  0  0  0  0  0  0  0  0  0  0
    6.6493   -0.0022   19.8977 C   0  0  0  0  0  0  0  0  0  0  0  0
    5.4373    0.6416   20.1662 C   0  0  0  0  0  0  0  0  0  0  0  0
    4.8120    1.3112   19.1096 C   0  0  0  0  0  0  0  0  0  0  0  0
    5.3990    1.2967   17.8377 C   0  0  0  0  0  0  0  0  0  0  0  0
    6.5548    0.6701   17.5733 N   0  0  0  0  0  0  0  0  0  0  0  0
    7.1614    0.0444   18.5880 C   0  0  0  0  0  0  0  0  0  0  0  0
    8.1112   -0.4346   18.3639 H   0  0  0  0  0  0  0  0  0  0  0  0
    4.9206    1.7874   16.9934 H   0  0  0  0  0  0  0  0  0  0  0  0
    3.8809    1.8401   19.2610 H   0  0  0  0  0  0  0  0  0  0  0  0
    5.0160    0.6097   21.1757 H   0  0  0  0  0  0  0  0  0  0  0  0
   10.3995   -0.2431   20.4079 H   0  0  0  0  0  0  0  0  0  0  0  0
    9.1857    1.0375   20.0977 H   0  0  0  0  0  0  0  0  0  0  0  0
   13.0303    1.1558   23.6567 H   0  0  0  0  0  0  0  0  0  0  0  0
   11.9333    3.0648   24.8202 H   0  0  0  0  0  0  0  0  0  0  0  0
    9.6336    3.7877   24.0810 H   0  0  0  0  0  0  0  0  0  0  0  0
    8.1327    2.9182   21.0409 H   0  0  0  0  0  0  0  0  0  0  0  0
    7.8089    3.5589   22.6479 H   0  0  0  0  0  0  0  0  0  0  0  0
    7.4233    1.8807   22.2536 H   0  0  0  0  0  0  0  0  0  0  0  0
  1  2  1  0
  2  3  2  0
  3  4  1  0
  4  5  2  0
  5  6  1  0
  6  7  2  0
  7  8  1  0
  8  9  1  0
  9 10  2  0
 10 11  1  0
 11 12  1  0
 12 13  2  0
 13 14  1  0
 14 15  2  0
 15 16  1  0
 16 17  2  0
 17 18  1  0
 16 19  1  0
 15 20  1  0
 14 21  1  0
 13 22  1  0
 11 23  2  0
 23 24  1  0
 24 25  1  0
 25 26  2  0
 26 27  1  0
 27 28  2  0
 28 29  1  0
 29 30  2  0
 30 31  1  0
 28 32  1  0
 27 33  1  0
 26 34  1  0
  8 35  1  0
  8 36  1  0
  5 37  1  0
  4 38  1  0
  3 39  1  0
  1 40  1  0
  1 41  1  0
  1 42  1  0
  7  2  1  0
 24  9  1  0
 30 25  1  0
 17 12  1  0
M  END
>  <cnnaffinity>  (1) 
-5.86576

>  <filename>  (1) 
Cc1cccnc1Cc1nc(-c2ccccc2)nn1-c1cccnc1

$$$$
