
     RDKit          3D

 44 47  0  0  0  0  0  0  0  0999 V2000
    8.8073    2.7006   22.1989 C   0  0  0  0  0  0  0  0  0  0  0  0
   10.1471    2.0405   22.4599 C   0  0  0  0  0  0  0  0  0  0  0  0
   10.9754    2.5575   23.4646 C   0  0  0  0  0  0  0  0  0  0  0  0
   12.1985    1.9517   23.7505 C   0  0  0  0  0  0  0  0  0  0  0  0
   12.6114    0.8208   23.0517 C   0  0  0  0  0  0  0  0  0  0  0  0
   11.7984    0.2566   22.0575 C   0  0  0  0  0  0  0  0  0  0  0  0
   12.1981   -1.0700   21.4361 C   0  0  0  0  0  0  0  0  0  0  0  0
   12.3105   -1.0405   20.3490 H   0  0  0  0  0  0  0  0  0  0  0  0
   13.1515   -1.4203   21.8402 H   0  0  0  0  0  0  0  0  0  0  0  0
   11.4419   -1.8332   21.6453 H   0  0  0  0  0  0  0  0  0  0  0  0
   10.5796    0.9013   21.7407 C   0  0  0  0  0  0  0  0  0  0  0  0
    9.6364    0.2711   20.7377 C   0  0  0  0  0  0  0  0  0  0  0  0
    8.6093   -0.5946   21.3741 C   0  0  0  0  0  0  0  0  0  0  0  0
    8.8458   -1.4520   22.3440 N   0  0  0  0  0  0  0  0  0  0  0  0
    7.6317   -2.0077   22.5612 C   0  0  0  0  0  0  0  0  0  0  0  0
    7.4158   -2.9818   23.6631 C   0  0  0  0  0  0  0  0  0  0  0  0
    8.3992   -4.1889   23.6501 C   0  0  0  0  0  0  0  0  0  0  0  0
    9.0579   -3.7489   25.2933 S   0  0  0  0  0  0  0  0  0  0  0  0
    7.8069   -2.4390   25.0738 C   0  0  0  0  0  0  0  0  0  0  0  0
    8.2362   -1.4282   25.0919 H   0  0  0  0  0  0  0  0  0  0  0  0
    7.0067   -2.4771   25.8196 H   0  0  0  0  0  0  0  0  0  0  0  0
    9.1673   -4.1655   22.8664 H   0  0  0  0  0  0  0  0  0  0  0  0
    7.9182   -5.1714   23.6268 H   0  0  0  0  0  0  0  0  0  0  0  0
    6.3665   -3.2739   23.5958 H   0  0  0  0  0  0  0  0  0  0  0  0
    6.6748   -1.5914   21.7608 N   0  0  0  0  0  0  0  0  0  0  0  0
    7.3135   -0.6968   20.9568 N   0  0  0  0  0  0  0  0  0  0  0  0
    6.6366   -0.0169   19.9035 C   0  0  0  0  0  0  0  0  0  0  0  0
    5.4260    0.6358   20.1590 C   0  0  0  0  0  0  0  0  0  0  0  0
    4.8061    1.3108   19.1044 C   0  0  0  0  0  0  0  0  0  0  0  0
    5.3968    1.2956   17.8355 C   0  0  0  0  0  0  0  0  0  0  0  0
    6.5492    0.6603   17.5794 N   0  0  0  0  0  0  0  0  0  0  0  0
    7.1539    0.0315   18.5927 C   0  0  0  0  0  0  0  0  0  0  0  0
    8.1040   -0.4429   18.3537 H   0  0  0  0  0  0  0  0  0  0  0  0
    4.9326    1.8020   16.9922 H   0  0  0  0  0  0  0  0  0  0  0  0
    3.8765    1.8468   19.2528 H   0  0  0  0  0  0  0  0  0  0  0  0
    5.0099    0.5985   21.1669 H   0  0  0  0  0  0  0  0  0  0  0  0
    9.1456    1.0549   20.1618 H   0  0  0  0  0  0  0  0  0  0  0  0
   10.1576   -0.4028   20.0523 H   0  0  0  0  0  0  0  0  0  0  0  0
   13.5612    0.3505   23.3026 H   0  0  0  0  0  0  0  0  0  0  0  0
   12.8286    2.3248   24.5393 H   0  0  0  0  0  0  0  0  0  0  0  0
   10.6397    3.4297   24.0229 H   0  0  0  0  0  0  0  0  0  0  0  0
    8.5923    3.4666   22.9493 H   0  0  0  0  0  0  0  0  0  0  0  0
    7.9831    1.9785   22.2172 H   0  0  0  0  0  0  0  0  0  0  0  0
    8.7815    3.1866   21.2178 H   0  0  0  0  0  0  0  0  0  0  0  0
  1  2  1  0
  2  3  2  0
  3  4  1  0
  4  5  2  0
  5  6  1  0
  6  7  1  0
  7  8  1  0
  7  9  1  0
  7 10  1  0
  6 11  2  0
 11 12  1  0
 12 13  1  0
 13 14  2  0
 14 15  1  0
 15 16  1  0
 16 17  1  0
 17 18  1  0
 18 19  1  0
 19 20  1  0
 19 21  1  0
 17 22  1  0
 17 23  1  0
 16 24  1  0
 15 25  2  0
 25 26  1  0
 26 27  1  0
 27 28  2  0
 28 29  1  0
 29 30  2  0
 30 31  1  0
 31 32  2  0
 32 33  1  0
 30 34  1  0
 29 35  1  0
 28 36  1  0
 12 37  1  0
 12 38  1  0
  5 39  1  0
  4 40  1  0
  3 41  1  0
  1 42  1  0
  1 43  1  0
  1 44  1  0
 11  2  1  0
 26 13  1  0
 32 27  1  0
 19 16  1  0
M  END
>  <cnnaffinity>  (1) 
-6.44039

>  <filename>  (1) 
Cc1cccc(C)c1Cc1nc(C2CSC2)nn1-c1cccnc1

$$$$
