
     RDKit          3D

 54 57  0  0  0  0  0  0  0  0999 V2000
    6.9110    6.1149   26.2427 C   0  0  0  0  0  0  0  0  0  0  0  0
    7.4547    5.0284   25.3404 C   0  0  0  0  0  0  0  0  0  0  0  0
    7.6191    5.2360   23.9697 C   0  0  0  0  0  0  0  0  0  0  0  0
    8.0998    4.2259   23.1249 C   0  0  0  0  0  0  0  0  0  0  0  0
    8.4259    2.9721   23.6537 C   0  0  0  0  0  0  0  0  0  0  0  0
    8.9244    1.9378   22.9120 O   0  0  0  0  0  0  0  0  0  0  0  0
    9.0313    2.0176   21.4983 C   0  0  0  0  0  0  0  0  0  0  0  0
    9.5095    0.6526   21.0012 C   0  0  0  0  0  0  0  0  0  0  0  0
    8.6246   -0.4506   21.4440 C   0  0  0  0  0  0  0  0  0  0  0  0
    8.8658   -1.2791   22.4389 N   0  0  0  0  0  0  0  0  0  0  0  0
    7.6901   -1.9426   22.5689 C   0  0  0  0  0  0  0  0  0  0  0  0
    7.4458   -2.9463   23.6629 C   0  0  0  0  0  0  0  0  0  0  0  0
    6.3862   -2.4493   24.6809 C   0  0  0  0  0  0  0  0  0  0  0  0
    6.0354   -3.5392   25.6896 C   0  0  0  0  0  0  0  0  0  0  0  0
    5.6224   -4.7330   25.0452 O   0  0  0  0  0  0  0  0  0  0  0  0
    6.6413   -5.2791   24.2255 C   0  0  0  0  0  0  0  0  0  0  0  0
    7.0340   -4.3268   23.0970 C   0  0  0  0  0  0  0  0  0  0  0  0
    7.8510   -4.7623   22.5080 H   0  0  0  0  0  0  0  0  0  0  0  0
    6.1780   -4.1925   22.4251 H   0  0  0  0  0  0  0  0  0  0  0  0
    7.5275   -5.5122   24.8429 H   0  0  0  0  0  0  0  0  0  0  0  0
    6.2465   -6.2169   23.8285 H   0  0  0  0  0  0  0  0  0  0  0  0
    6.9083   -3.7459   26.3329 H   0  0  0  0  0  0  0  0  0  0  0  0
    5.2051   -3.2325   26.3315 H   0  0  0  0  0  0  0  0  0  0  0  0
    5.4792   -2.1803   24.1373 H   0  0  0  0  0  0  0  0  0  0  0  0
    6.7292   -1.5449   25.2019 H   0  0  0  0  0  0  0  0  0  0  0  0
    8.4074   -3.0397   24.1791 H   0  0  0  0  0  0  0  0  0  0  0  0
    6.7575   -1.6052   21.6946 N   0  0  0  0  0  0  0  0  0  0  0  0
    7.3714   -0.6532   20.9463 N   0  0  0  0  0  0  0  0  0  0  0  0
    6.6608    0.0105   19.9040 C   0  0  0  0  0  0  0  0  0  0  0  0
    5.4388    0.6398   20.1679 C   0  0  0  0  0  0  0  0  0  0  0  0
    4.8129    1.3081   19.1098 C   0  0  0  0  0  0  0  0  0  0  0  0
    5.4007    1.2964   17.8378 C   0  0  0  0  0  0  0  0  0  0  0  0
    6.5586    0.6720   17.5750 N   0  0  0  0  0  0  0  0  0  0  0  0
    7.1679    0.0527   18.5927 C   0  0  0  0  0  0  0  0  0  0  0  0
    8.1113   -0.4356   18.3636 H   0  0  0  0  0  0  0  0  0  0  0  0
    4.9227    1.7879   16.9929 H   0  0  0  0  0  0  0  0  0  0  0  0
    3.8809    1.8386   19.2588 H   0  0  0  0  0  0  0  0  0  0  0  0
    5.0135    0.6067   21.1758 H   0  0  0  0  0  0  0  0  0  0  0  0
   10.5107    0.4269   21.3683 H   0  0  0  0  0  0  0  0  0  0  0  0
    9.5593    0.6679   19.9121 H   0  0  0  0  0  0  0  0  0  0  0  0
    9.7590    2.7878   21.2131 H   0  0  0  0  0  0  0  0  0  0  0  0
    8.0599    2.2642   21.0443 H   0  0  0  0  0  0  0  0  0  0  0  0
    8.2622    2.7236   25.0432 C   0  0  0  0  0  0  0  0  0  0  0  0
    8.6027    1.3869   25.6584 C   0  0  0  0  0  0  0  0  0  0  0  0
    8.2518    1.3197   26.6941 H   0  0  0  0  0  0  0  0  0  0  0  0
    8.1638    0.5609   25.0869 H   0  0  0  0  0  0  0  0  0  0  0  0
    9.6839    1.2160   25.6661 H   0  0  0  0  0  0  0  0  0  0  0  0
    7.7845    3.7630   25.8472 C   0  0  0  0  0  0  0  0  0  0  0  0
    7.6572    3.5806   26.9139 H   0  0  0  0  0  0  0  0  0  0  0  0
    8.2212    4.4170   22.0620 H   0  0  0  0  0  0  0  0  0  0  0  0
    7.3588    6.2056   23.5524 H   0  0  0  0  0  0  0  0  0  0  0  0
    7.3009    6.0470   27.2646 H   0  0  0  0  0  0  0  0  0  0  0  0
    7.1550    7.1138   25.8668 H   0  0  0  0  0  0  0  0  0  0  0  0
    5.8179    6.0666   26.3165 H   0  0  0  0  0  0  0  0  0  0  0  0
  1  2  1  0
  2  3  2  0
  3  4  1  0
  4  5  2  0
  5  6  1  0
  6  7  1  0
  7  8  1  0
  8  9  1  0
  9 10  2  0
 10 11  1  0
 11 12  1  0
 12 13  1  0
 13 14  1  0
 14 15  1  0
 15 16  1  0
 16 17  1  0
 17 18  1  0
 17 19  1  0
 16 20  1  0
 16 21  1  0
 14 22  1  0
 14 23  1  0
 13 24  1  0
 13 25  1  0
 12 26  1  0
 11 27  2  0
 27 28  1  0
 28 29  1  0
 29 30  2  0
 30 31  1  0
 31 32  2  0
 32 33  1  0
 33 34  2  0
 34 35  1  0
 32 36  1  0
 31 37  1  0
 30 38  1  0
  8 39  1  0
  8 40  1  0
  7 41  1  0
  7 42  1  0
  5 43  1  0
 43 44  1  0
 44 45  1  0
 44 46  1  0
 44 47  1  0
 43 48  2  0
 48 49  1  0
  4 50  1  0
  3 51  1  0
  1 52  1  0
  1 53  1  0
  1 54  1  0
 48  2  1  0
 28  9  1  0
 34 29  1  0
 17 12  1  0
M  END
>  <cnnaffinity>  (1) 
-6.02395

>  <filename>  (1) 
Cc1ccc(OCCc2nc(C3CCOCC3)nn2-c2cccnc2)c(C)c1

$$$$
