
     RDKit          3D

 46 49  0  0  0  0  0  0  0  0999 V2000
    5.9148   -1.1852   26.4138 C   0  0  0  0  0  0  0  0  0  0  0  0
    6.7368   -0.1727   25.6970 C   0  0  0  0  0  0  0  0  0  0  0  0
    6.4981    0.3010   24.4955 N   0  0  0  0  0  0  0  0  0  0  0  0
    7.5262    1.1599   24.2146 C   0  0  0  0  0  0  0  0  0  0  0  0
    7.6696    1.7129   22.8329 C   0  0  0  0  0  0  0  0  0  0  0  0
    8.5712    0.7693   22.1150 C   0  0  0  0  0  0  0  0  0  0  0  0
    9.8665    0.8420   22.2764 N   0  0  0  0  0  0  0  0  0  0  0  0
   10.3208   -0.3387   21.7815 C   0  0  0  0  0  0  0  0  0  0  0  0
   11.7765   -0.5753   21.7491 C   0  0  0  0  0  0  0  0  0  0  0  0
   12.3812   -1.6030   21.0144 C   0  0  0  0  0  0  0  0  0  0  0  0
   13.7287   -1.5548   20.6325 C   0  0  0  0  0  0  0  0  0  0  0  0
   14.4757   -0.4507   21.0546 C   0  0  0  0  0  0  0  0  0  0  0  0
   15.4584    0.1004   20.2001 F   0  0  0  0  0  0  0  0  0  0  0  0
   13.9703    0.4203   22.0300 C   0  0  0  0  0  0  0  0  0  0  0  0
   14.7577    1.4887   22.6869 C   0  0  0  0  0  0  0  0  0  0  0  0
   15.7296    1.6438   22.2175 H   0  0  0  0  0  0  0  0  0  0  0  0
   14.2082    2.4384   22.6762 H   0  0  0  0  0  0  0  0  0  0  0  0
   14.8420    1.1507   23.7135 H   0  0  0  0  0  0  0  0  0  0  0  0
   12.6190    0.3622   22.3399 C   0  0  0  0  0  0  0  0  0  0  0  0
   12.2063    1.1315   22.9861 H   0  0  0  0  0  0  0  0  0  0  0  0
   14.1533   -2.2656   19.9317 H   0  0  0  0  0  0  0  0  0  0  0  0
   11.7169   -2.3622   20.6632 H   0  0  0  0  0  0  0  0  0  0  0  0
    9.3670   -1.1221   21.2971 N   0  0  0  0  0  0  0  0  0  0  0  0
    8.2412   -0.3900   21.5162 N   0  0  0  0  0  0  0  0  0  0  0  0
    6.9208   -0.8263   21.0748 C   0  0  0  0  0  0  0  0  0  0  0  0
    6.3461   -0.0000   19.9335 C   0  0  0  0  0  0  0  0  0  0  0  0
    5.1426    0.7110   20.0364 C   0  0  0  0  0  0  0  0  0  0  0  0
    4.6755    1.4131   18.9203 C   0  0  0  0  0  0  0  0  0  0  0  0
    5.4283    1.3788   17.7429 C   0  0  0  0  0  0  0  0  0  0  0  0
    6.5910    0.7190   17.6266 N   0  0  0  0  0  0  0  0  0  0  0  0
    7.0328    0.0625   18.7064 C   0  0  0  0  0  0  0  0  0  0  0  0
    7.9868   -0.4516   18.5920 H   0  0  0  0  0  0  0  0  0  0  0  0
    5.0815    1.8975   16.8509 H   0  0  0  0  0  0  0  0  0  0  0  0
    3.7533    1.9842   18.9508 H   0  0  0  0  0  0  0  0  0  0  0  0
    4.5738    0.7213   20.9709 H   0  0  0  0  0  0  0  0  0  0  0  0
    6.2615   -0.7865   21.9517 H   0  0  0  0  0  0  0  0  0  0  0  0
    7.0313   -1.8766   20.7925 H   0  0  0  0  0  0  0  0  0  0  0  0
    8.1749    2.6808   22.8393 H   0  0  0  0  0  0  0  0  0  0  0  0
    6.6947    1.7963   22.3510 H   0  0  0  0  0  0  0  0  0  0  0  0
    8.4236    1.1850   25.2430 C   0  0  0  0  0  0  0  0  0  0  0  0
    7.8980    0.3349   26.1966 N   0  0  0  0  0  0  0  0  0  0  0  0
    8.3265    0.0379   27.0577 H   0  0  0  0  0  0  0  0  0  0  0  0
    9.3945    1.6564   25.3094 H   0  0  0  0  0  0  0  0  0  0  0  0
    5.8758   -0.9862   27.4887 H   0  0  0  0  0  0  0  0  0  0  0  0
    6.3336   -2.1863   26.2633 H   0  0  0  0  0  0  0  0  0  0  0  0
    4.9023   -1.1737   26.0068 H   0  0  0  0  0  0  0  0  0  0  0  0
  1  2  1  0
  2  3  2  0
  3  4  1  0
  4  5  1  0
  5  6  1  0
  6  7  2  0
  7  8  1  0
  8  9  1  0
  9 10  2  0
 10 11  1  0
 11 12  2  0
 12 13  1  0
 12 14  1  0
 14 15  1  0
 15 16  1  0
 15 17  1  0
 15 18  1  0
 14 19  2  0
 19 20  1  0
 11 21  1  0
 10 22  1  0
  8 23  2  0
 23 24  1  0
 24 25  1  0
 25 26  1  0
 26 27  2  0
 27 28  1  0
 28 29  2  0
 29 30  1  0
 30 31  2  0
 31 32  1  0
 29 33  1  0
 28 34  1  0
 27 35  1  0
 25 36  1  0
 25 37  1  0
  5 38  1  0
  5 39  1  0
  4 40  2  0
 40 41  1  0
 41 42  1  0
 40 43  1  0
  1 44  1  0
  1 45  1  0
  1 46  1  0
 41  2  1  0
 24  6  1  0
 31 26  1  0
 19  9  1  0
M  END
>  <cnnaffinity>  (1) 
-6.66434

>  <filename>  (1) 
Cc1nc(Cc2nc(-c3ccc(F)c(C)c3)nn2Cc2cccnc2)c[nH]1

$$$$
