
     RDKit          3D

 45 48  0  0  0  0  0  0  0  0999 V2000
    7.8904   -0.0064   27.4752 C   0  0  0  0  0  0  0  0  0  0  0  0
    7.1513    0.2659   26.2169 C   0  0  0  0  0  0  0  0  0  0  0  0
    6.1378   -0.4615   25.7925 N   0  0  0  0  0  0  0  0  0  0  0  0
    5.8934    0.0823   24.5738 N   0  0  0  0  0  0  0  0  0  0  0  0
    6.7579    1.0811   24.3240 C   0  0  0  0  0  0  0  0  0  0  0  0
    6.9995    1.6600   22.9648 C   0  0  0  0  0  0  0  0  0  0  0  0
    7.9756    0.7471   22.3083 C   0  0  0  0  0  0  0  0  0  0  0  0
    9.2729    0.8524   22.4963 N   0  0  0  0  0  0  0  0  0  0  0  0
    9.7492   -0.3254   22.0364 C   0  0  0  0  0  0  0  0  0  0  0  0
   11.1713   -0.6668   21.9228 C   0  0  0  0  0  0  0  0  0  0  0  0
   11.4800   -1.7673   21.1222 C   0  0  0  0  0  0  0  0  0  0  0  0
   12.7736   -1.9610   20.6762 C   0  0  0  0  0  0  0  0  0  0  0  0
   13.7837   -1.1367   21.1303 C   0  0  0  0  0  0  0  0  0  0  0  0
   14.9367   -1.2826   20.4574 F   0  0  0  0  0  0  0  0  0  0  0  0
   13.5509   -0.1116   22.0670 C   0  0  0  0  0  0  0  0  0  0  0  0
   14.6226    0.7646   22.6490 C   0  0  0  0  0  0  0  0  0  0  0  0
   14.8341    0.3990   23.6569 H   0  0  0  0  0  0  0  0  0  0  0  0
   14.2967    1.8066   22.7437 H   0  0  0  0  0  0  0  0  0  0  0  0
   15.5378    0.7653   22.0581 H   0  0  0  0  0  0  0  0  0  0  0  0
   12.2178    0.1084   22.4455 C   0  0  0  0  0  0  0  0  0  0  0  0
   12.0000    0.9212   23.1378 H   0  0  0  0  0  0  0  0  0  0  0  0
   13.0408   -2.6794   19.9137 H   0  0  0  0  0  0  0  0  0  0  0  0
   10.6529   -2.3790   20.7744 H   0  0  0  0  0  0  0  0  0  0  0  0
    8.8110   -1.1345   21.5580 N   0  0  0  0  0  0  0  0  0  0  0  0
    7.6670   -0.4447   21.7463 N   0  0  0  0  0  0  0  0  0  0  0  0
    6.4519   -0.9129   21.0775 C   0  0  0  0  0  0  0  0  0  0  0  0
    6.0525   -0.0638   19.8922 C   0  0  0  0  0  0  0  0  0  0  0  0
    4.8792    0.6970   19.8737 C   0  0  0  0  0  0  0  0  0  0  0  0
    4.6179    1.4980   18.7571 C   0  0  0  0  0  0  0  0  0  0  0  0
    5.5334    1.5009   17.7001 C   0  0  0  0  0  0  0  0  0  0  0  0
    6.6559    0.7634   17.6941 N   0  0  0  0  0  0  0  0  0  0  0  0
    6.9035    0.0113   18.7733 C   0  0  0  0  0  0  0  0  0  0  0  0
    7.8292   -0.5696   18.7467 H   0  0  0  0  0  0  0  0  0  0  0  0
    5.3533    2.1183   16.8183 H   0  0  0  0  0  0  0  0  0  0  0  0
    3.7335    2.1239   18.7005 H   0  0  0  0  0  0  0  0  0  0  0  0
    4.1826    0.6647   20.7174 H   0  0  0  0  0  0  0  0  0  0  0  0
    5.6459   -0.9689   21.8101 H   0  0  0  0  0  0  0  0  0  0  0  0
    6.6784   -1.9379   20.7707 H   0  0  0  0  0  0  0  0  0  0  0  0
    7.4932    2.6210   23.0899 H   0  0  0  0  0  0  0  0  0  0  0  0
    6.0795    1.7603   22.3882 H   0  0  0  0  0  0  0  0  0  0  0  0
    7.5463    1.2500   25.3610 N   0  0  0  0  0  0  0  0  0  0  0  0
    5.1498   -0.2758   23.9935 H   0  0  0  0  0  0  0  0  0  0  0  0
    7.9045    0.8845   28.1048 H   0  0  0  0  0  0  0  0  0  0  0  0
    8.9258   -0.2585   27.2286 H   0  0  0  0  0  0  0  0  0  0  0  0
    7.4241   -0.8425   27.9934 H   0  0  0  0  0  0  0  0  0  0  0  0
  1  2  1  0
  2  3  2  0
  3  4  1  0
  4  5  1  0
  5  6  1  0
  6  7  1  0
  7  8  2  0
  8  9  1  0
  9 10  1  0
 10 11  2  0
 11 12  1  0
 12 13  2  0
 13 14  1  0
 13 15  1  0
 15 16  1  0
 16 17  1  0
 16 18  1  0
 16 19  1  0
 15 20  2  0
 20 21  1  0
 12 22  1  0
 11 23  1  0
  9 24  2  0
 24 25  1  0
 25 26  1  0
 26 27  1  0
 27 28  2  0
 28 29  1  0
 29 30  2  0
 30 31  1  0
 31 32  2  0
 32 33  1  0
 30 34  1  0
 29 35  1  0
 28 36  1  0
 26 37  1  0
 26 38  1  0
  6 39  1  0
  6 40  1  0
  5 41  2  0
  4 42  1  0
  1 43  1  0
  1 44  1  0
  1 45  1  0
 41  2  1  0
 25  7  1  0
 32 27  1  0
 20 10  1  0
M  END
>  <cnnaffinity>  (1) 
-6.50604

>  <filename>  (1) 
Cc1n[nH]c(Cc2nc(-c3ccc(F)c(C)c3)nn2Cc2cccnc2)n1

$$$$
