
     RDKit          3D

 49 52  0  0  0  0  0  0  0  0999 V2000
    7.7949    1.1321   25.0041 C   0  0  0  0  0  0  0  0  0  0  0  0
    9.1683    1.5726   24.6186 C   0  0  0  0  0  0  0  0  0  0  0  0
   10.2209    1.5283   25.4016 N   0  0  0  0  0  0  0  0  0  0  0  0
   11.2405    2.0895   24.6804 C   0  0  0  0  0  0  0  0  0  0  0  0
   10.8027    2.4888   23.4531 C   0  0  0  0  0  0  0  0  0  0  0  0
    9.4623    2.1478   23.4092 N   0  0  0  0  0  0  0  0  0  0  0  0
    8.5534    2.4361   22.3083 C   0  0  0  0  0  0  0  0  0  0  0  0
    9.0966    1.9814   20.9611 C   0  0  0  0  0  0  0  0  0  0  0  0
    9.5684    0.5194   20.9052 C   0  0  0  0  0  0  0  0  0  0  0  0
    8.6247   -0.4959   21.4367 C   0  0  0  0  0  0  0  0  0  0  0  0
    8.8687   -1.3791   22.3786 N   0  0  0  0  0  0  0  0  0  0  0  0
    7.7034   -2.0706   22.4683 C   0  0  0  0  0  0  0  0  0  0  0  0
    7.5110   -3.1966   23.4438 C   0  0  0  0  0  0  0  0  0  0  0  0
    7.3348   -2.7008   24.8997 C   0  0  0  0  0  0  0  0  0  0  0  0
    8.7600   -2.6027   25.4809 C   0  0  0  0  0  0  0  0  0  0  0  0
    9.6280   -3.6028   24.6812 C   0  0  0  0  0  0  0  0  0  0  0  0
    8.7430   -4.1299   23.5264 C   0  0  0  0  0  0  0  0  0  0  0  0
    8.4151   -5.1556   23.7270 H   0  0  0  0  0  0  0  0  0  0  0  0
    9.2836   -4.1604   22.5783 H   0  0  0  0  0  0  0  0  0  0  0  0
   10.5247   -3.1076   24.2941 H   0  0  0  0  0  0  0  0  0  0  0  0
    9.9819   -4.4328   25.3024 H   0  0  0  0  0  0  0  0  0  0  0  0
    9.1505   -1.5837   25.3684 H   0  0  0  0  0  0  0  0  0  0  0  0
    8.7660   -2.8156   26.5545 H   0  0  0  0  0  0  0  0  0  0  0  0
    6.7372   -3.4305   25.4583 H   0  0  0  0  0  0  0  0  0  0  0  0
    6.7889   -1.7485   24.9538 H   0  0  0  0  0  0  0  0  0  0  0  0
    6.6236   -3.7212   23.0851 H   0  0  0  0  0  0  0  0  0  0  0  0
    6.7594   -1.6715   21.6385 N   0  0  0  0  0  0  0  0  0  0  0  0
    7.3614   -0.6663   20.9430 N   0  0  0  0  0  0  0  0  0  0  0  0
    6.6611    0.0106   19.9018 C   0  0  0  0  0  0  0  0  0  0  0  0
    5.4422    0.6465   20.1679 C   0  0  0  0  0  0  0  0  0  0  0  0
    4.8143    1.3110   19.1088 C   0  0  0  0  0  0  0  0  0  0  0  0
    5.4019    1.2977   17.8359 C   0  0  0  0  0  0  0  0  0  0  0  0
    6.5599    0.6734   17.5724 N   0  0  0  0  0  0  0  0  0  0  0  0
    7.1654    0.0498   18.5898 C   0  0  0  0  0  0  0  0  0  0  0  0
    8.1101   -0.4378   18.3656 H   0  0  0  0  0  0  0  0  0  0  0  0
    4.9197    1.7876   16.9921 H   0  0  0  0  0  0  0  0  0  0  0  0
    3.8803    1.8399   19.2590 H   0  0  0  0  0  0  0  0  0  0  0  0
    5.0146    0.6090   21.1745 H   0  0  0  0  0  0  0  0  0  0  0  0
   10.5068    0.4158   21.4560 H   0  0  0  0  0  0  0  0  0  0  0  0
    9.7448    0.2299   19.8681 H   0  0  0  0  0  0  0  0  0  0  0  0
    8.3239    2.1568   20.2042 H   0  0  0  0  0  0  0  0  0  0  0  0
    9.9455    2.6245   20.7010 H   0  0  0  0  0  0  0  0  0  0  0  0
    8.3406    3.5099   22.2707 H   0  0  0  0  0  0  0  0  0  0  0  0
    7.6068    1.9259   22.4826 H   0  0  0  0  0  0  0  0  0  0  0  0
   11.3111    2.9847   22.6362 H   0  0  0  0  0  0  0  0  0  0  0  0
   12.2280    2.1992   25.1065 H   0  0  0  0  0  0  0  0  0  0  0  0
    7.3649    0.4572   24.2553 H   0  0  0  0  0  0  0  0  0  0  0  0
    7.8473    0.6195   25.9692 H   0  0  0  0  0  0  0  0  0  0  0  0
    7.1306    1.9968   25.1252 H   0  0  0  0  0  0  0  0  0  0  0  0
  1  2  1  0
  2  3  2  0
  3  4  1  0
  4  5  2  0
  5  6  1  0
  6  7  1  0
  7  8  1  0
  8  9  1  0
  9 10  1  0
 10 11  2  0
 11 12  1  0
 12 13  1  0
 13 14  1  0
 14 15  1  0
 15 16  1  0
 16 17  1  0
 17 18  1  0
 17 19  1  0
 16 20  1  0
 16 21  1  0
 15 22  1  0
 15 23  1  0
 14 24  1  0
 14 25  1  0
 13 26  1  0
 12 27  2  0
 27 28  1  0
 28 29  1  0
 29 30  2  0
 30 31  1  0
 31 32  2  0
 32 33  1  0
 33 34  2  0
 34 35  1  0
 32 36  1  0
 31 37  1  0
 30 38  1  0
  9 39  1  0
  9 40  1  0
  8 41  1  0
  8 42  1  0
  7 43  1  0
  7 44  1  0
  5 45  1  0
  4 46  1  0
  1 47  1  0
  1 48  1  0
  1 49  1  0
  6  2  1  0
 28 10  1  0
 34 29  1  0
 17 13  1  0
M  END
>  <cnnaffinity>  (1) 
-6.38528

>  <filename>  (1) 
Cc1nccn1CCCc1nc(C2CCCC2)nn1-c1cccnc1

$$$$
