
     RDKit          3D

 46 49  0  0  0  0  0  0  0  0999 V2000
    8.3952   -0.0225   27.4310 C   0  0  0  0  0  0  0  0  0  0  0  0
    7.6613    0.4465   26.2223 C   0  0  0  0  0  0  0  0  0  0  0  0
    8.1385    1.2600   25.3222 N   0  0  0  0  0  0  0  0  0  0  0  0
    7.1970    1.3447   24.3268 C   0  0  0  0  0  0  0  0  0  0  0  0
    7.5491    2.0398   23.0502 C   0  0  0  0  0  0  0  0  0  0  0  0
    8.5367    1.1844   22.3360 C   0  0  0  0  0  0  0  0  0  0  0  0
    9.8456    1.2641   22.4662 N   0  0  0  0  0  0  0  0  0  0  0  0
   10.2947    0.1020   21.9281 C   0  0  0  0  0  0  0  0  0  0  0  0
   11.6839   -0.3788   21.8692 C   0  0  0  0  0  0  0  0  0  0  0  0
   11.8841   -1.5653   21.1444 C   0  0  0  0  0  0  0  0  0  0  0  0
   13.1540   -1.9511   20.7723 C   0  0  0  0  0  0  0  0  0  0  0  0
   14.2455   -1.2305   21.2200 C   0  0  0  0  0  0  0  0  0  0  0  0
   14.0727   -0.1507   22.0950 C   0  0  0  0  0  0  0  0  0  0  0  0
   12.7893    0.2907   22.4618 C   0  0  0  0  0  0  0  0  0  0  0  0
   12.6152    1.4254   23.4497 C   0  0  0  0  0  0  0  0  0  0  0  0
   13.5705    1.7067   23.9057 H   0  0  0  0  0  0  0  0  0  0  0  0
   12.1913    2.3100   22.9654 H   0  0  0  0  0  0  0  0  0  0  0  0
   11.9154    1.1604   24.2528 H   0  0  0  0  0  0  0  0  0  0  0  0
   14.9321    0.3879   22.4853 H   0  0  0  0  0  0  0  0  0  0  0  0
   15.1878   -1.5431   20.8072 H   0  0  0  0  0  0  0  0  0  0  0  0
   13.3061   -2.7889   20.1032 H   0  0  0  0  0  0  0  0  0  0  0  0
   11.0162   -2.1368   20.8284 H   0  0  0  0  0  0  0  0  0  0  0  0
    9.3215   -0.6456   21.4222 N   0  0  0  0  0  0  0  0  0  0  0  0
    8.2032    0.0352   21.7104 N   0  0  0  0  0  0  0  0  0  0  0  0
    6.9281   -0.5269   21.2811 C   0  0  0  0  0  0  0  0  0  0  0  0
    6.3526    0.1685   20.0710 C   0  0  0  0  0  0  0  0  0  0  0  0
    5.1277    0.8396   20.0767 C   0  0  0  0  0  0  0  0  0  0  0  0
    4.7015    1.4667   18.9016 C   0  0  0  0  0  0  0  0  0  0  0  0
    5.5093    1.3793   17.7648 C   0  0  0  0  0  0  0  0  0  0  0  0
    6.6819    0.7272   17.7322 N   0  0  0  0  0  0  0  0  0  0  0  0
    7.0861    0.1549   18.8713 C   0  0  0  0  0  0  0  0  0  0  0  0
    8.0477   -0.3559   18.8431 H   0  0  0  0  0  0  0  0  0  0  0  0
    5.2099    1.8553   16.8346 H   0  0  0  0  0  0  0  0  0  0  0  0
    3.7834    2.0434   18.8597 H   0  0  0  0  0  0  0  0  0  0  0  0
    4.5159    0.8786   20.9811 H   0  0  0  0  0  0  0  0  0  0  0  0
    6.2426   -0.5107   22.1325 H   0  0  0  0  0  0  0  0  0  0  0  0
    7.1566   -1.5744   21.0499 H   0  0  0  0  0  0  0  0  0  0  0  0
    6.6690    2.2037   22.4225 H   0  0  0  0  0  0  0  0  0  0  0  0
    8.0334    2.9905   23.2781 H   0  0  0  0  0  0  0  0  0  0  0  0
    6.1070    0.5927   24.6548 C   0  0  0  0  0  0  0  0  0  0  0  0
    6.4133    0.0236   25.8815 N   0  0  0  0  0  0  0  0  0  0  0  0
    5.9163   -0.6955   26.3781 H   0  0  0  0  0  0  0  0  0  0  0  0
    5.1626    0.4520   24.1532 H   0  0  0  0  0  0  0  0  0  0  0  0
    9.4701    0.0286   27.2357 H   0  0  0  0  0  0  0  0  0  0  0  0
    8.1271   -1.0545   27.6744 H   0  0  0  0  0  0  0  0  0  0  0  0
    8.1717    0.6141   28.2918 H   0  0  0  0  0  0  0  0  0  0  0  0
  1  2  1  0
  2  3  2  0
  3  4  1  0
  4  5  1  0
  5  6  1  0
  6  7  2  0
  7  8  1  0
  8  9  1  0
  9 10  2  0
 10 11  1  0
 11 12  2  0
 12 13  1  0
 13 14  2  0
 14 15  1  0
 15 16  1  0
 15 17  1  0
 15 18  1  0
 13 19  1  0
 12 20  1  0
 11 21  1  0
 10 22  1  0
  8 23  2  0
 23 24  1  0
 24 25  1  0
 25 26  1  0
 26 27  2  0
 27 28  1  0
 28 29  2  0
 29 30  1  0
 30 31  2  0
 31 32  1  0
 29 33  1  0
 28 34  1  0
 27 35  1  0
 25 36  1  0
 25 37  1  0
  5 38  1  0
  5 39  1  0
  4 40  2  0
 40 41  1  0
 41 42  1  0
 40 43  1  0
  1 44  1  0
  1 45  1  0
  1 46  1  0
 41  2  1  0
 24  6  1  0
 31 26  1  0
 14  9  1  0
M  END
>  <cnnaffinity>  (1) 
-6.70649

>  <filename>  (1) 
Cc1nc(Cc2nc(-c3ccccc3C)nn2Cc2cccnc2)c[nH]1

$$$$
