
     RDKit          3D

 42 45  0  0  0  0  0  0  0  0999 V2000
    8.9801    1.2475   25.4030 C   0  0  0  0  0  0  0  0  0  0  0  0
    7.5196    0.9195   25.3986 C   0  0  0  0  0  0  0  0  0  0  0  0
    6.9791    0.3810   26.4612 N   0  0  0  0  0  0  0  0  0  0  0  0
    5.6473    0.1917   26.1704 O   0  0  0  0  0  0  0  0  0  0  0  0
    5.4135    0.6154   24.9221 C   0  0  0  0  0  0  0  0  0  0  0  0
    6.5440    1.0933   24.3479 C   0  0  0  0  0  0  0  0  0  0  0  0
    6.7894    1.6421   22.9506 C   0  0  0  0  0  0  0  0  0  0  0  0
    7.8736    0.8929   22.2304 C   0  0  0  0  0  0  0  0  0  0  0  0
    9.1508    1.1904   22.3254 N   0  0  0  0  0  0  0  0  0  0  0  0
    9.7874    0.0433   21.9477 C   0  0  0  0  0  0  0  0  0  0  0  0
   11.2536   -0.0521   22.1598 C   0  0  0  0  0  0  0  0  0  0  0  0
   12.0530   -1.0991   21.6590 C   0  0  0  0  0  0  0  0  0  0  0  0
   13.4130   -1.0711   21.9518 C   0  0  0  0  0  0  0  0  0  0  0  0
   14.2133   -2.0556   21.5115 F   0  0  0  0  0  0  0  0  0  0  0  0
   14.0049   -0.0502   22.6850 C   0  0  0  0  0  0  0  0  0  0  0  0
   13.2146    0.9833   23.1813 C   0  0  0  0  0  0  0  0  0  0  0  0
   11.8478    0.9768   22.9202 C   0  0  0  0  0  0  0  0  0  0  0  0
   11.2019    1.7683   23.2868 H   0  0  0  0  0  0  0  0  0  0  0  0
   13.6684    1.7954   23.7431 H   0  0  0  0  0  0  0  0  0  0  0  0
   15.0682   -0.0728   22.8461 H   0  0  0  0  0  0  0  0  0  0  0  0
   11.6414   -1.9021   21.0548 H   0  0  0  0  0  0  0  0  0  0  0  0
    8.9634   -0.8987   21.5093 N   0  0  0  0  0  0  0  0  0  0  0  0
    7.7346   -0.3428   21.7089 N   0  0  0  0  0  0  0  0  0  0  0  0
    6.5267   -0.9111   21.1129 C   0  0  0  0  0  0  0  0  0  0  0  0
    6.0584   -0.1207   19.9045 C   0  0  0  0  0  0  0  0  0  0  0  0
    4.8618    0.6056   19.8596 C   0  0  0  0  0  0  0  0  0  0  0  0
    4.6095    1.4069   18.7407 C   0  0  0  0  0  0  0  0  0  0  0  0
    5.5449    1.4284   17.7017 C   0  0  0  0  0  0  0  0  0  0  0  0
    6.6798    0.7146   17.7113 N   0  0  0  0  0  0  0  0  0  0  0  0
    6.9244   -0.0219   18.8010 C   0  0  0  0  0  0  0  0  0  0  0  0
    7.8764   -0.5550   18.8249 H   0  0  0  0  0  0  0  0  0  0  0  0
    5.3792    2.0459   16.8195 H   0  0  0  0  0  0  0  0  0  0  0  0
    3.7307    2.0379   18.6772 H   0  0  0  0  0  0  0  0  0  0  0  0
    4.1358    0.5634   20.6791 H   0  0  0  0  0  0  0  0  0  0  0  0
    5.7548   -0.9329   21.8829 H   0  0  0  0  0  0  0  0  0  0  0  0
    6.7640   -1.9506   20.8723 H   0  0  0  0  0  0  0  0  0  0  0  0
    5.8750    1.6493   22.3490 H   0  0  0  0  0  0  0  0  0  0  0  0
    7.1288    2.6816   23.0070 H   0  0  0  0  0  0  0  0  0  0  0  0
    4.3955    0.5019   24.5772 H   0  0  0  0  0  0  0  0  0  0  0  0
    9.5511    0.4132   24.9832 H   0  0  0  0  0  0  0  0  0  0  0  0
    9.1891    2.1180   24.7800 H   0  0  0  0  0  0  0  0  0  0  0  0
    9.3399    1.4242   26.4178 H   0  0  0  0  0  0  0  0  0  0  0  0
  1  2  1  0
  2  3  2  0
  3  4  1  0
  4  5  1  0
  5  6  2  0
  6  7  1  0
  7  8  1  0
  8  9  2  0
  9 10  1  0
 10 11  1  0
 11 12  2  0
 12 13  1  0
 13 14  1  0
 13 15  2  0
 15 16  1  0
 16 17  2  0
 17 18  1  0
 16 19  1  0
 15 20  1  0
 12 21  1  0
 10 22  2  0
 22 23  1  0
 23 24  1  0
 24 25  1  0
 25 26  2  0
 26 27  1  0
 27 28  2  0
 28 29  1  0
 29 30  2  0
 30 31  1  0
 28 32  1  0
 27 33  1  0
 26 34  1  0
 24 35  1  0
 24 36  1  0
  7 37  1  0
  7 38  1  0
  5 39  1  0
  1 40  1  0
  1 41  1  0
  1 42  1  0
  6  2  1  0
 23  8  1  0
 30 25  1  0
 17 11  1  0
M  END
>  <cnnaffinity>  (1) 
-6.37126

>  <filename>  (1) 
Cc1nocc1Cc1nc(-c2cccc(F)c2)nn1Cc1cccnc1

$$$$
