
     RDKit          3D

 43 46  0  0  0  0  0  0  0  0999 V2000
   10.8454    4.3502   23.1626 C   0  0  0  0  0  0  0  0  0  0  0  0
   10.9855    2.9127   23.5703 C   0  0  0  0  0  0  0  0  0  0  0  0
   11.5264    2.5033   24.6922 N   0  0  0  0  0  0  0  0  0  0  0  0
   11.4093    1.1339   24.7002 C   0  0  0  0  0  0  0  0  0  0  0  0
   10.7946    0.7223   23.5554 C   0  0  0  0  0  0  0  0  0  0  0  0
   10.5547    1.8572   22.8127 N   0  0  0  0  0  0  0  0  0  0  0  0
    9.9000    1.8563   21.5158 C   0  0  0  0  0  0  0  0  0  0  0  0
    8.4195    2.2491   21.5736 C   0  0  0  0  0  0  0  0  0  0  0  0
    7.5918    1.3716   22.5384 C   0  0  0  0  0  0  0  0  0  0  0  0
    7.6211   -0.0935   22.2076 C   0  0  0  0  0  0  0  0  0  0  0  0
    8.1314   -1.0631   22.9460 N   0  0  0  0  0  0  0  0  0  0  0  0
    8.1806   -2.1242   22.0940 C   0  0  0  0  0  0  0  0  0  0  0  0
    8.8549   -3.3974   22.4663 C   0  0  0  0  0  0  0  0  0  0  0  0
    8.1962   -4.7405   22.2604 C   0  0  0  0  0  0  0  0  0  0  0  0
    8.4313   -4.2299   23.6517 C   0  0  0  0  0  0  0  0  0  0  0  0
    7.5690   -3.8867   24.2187 H   0  0  0  0  0  0  0  0  0  0  0  0
    9.2169   -4.6913   24.2512 H   0  0  0  0  0  0  0  0  0  0  0  0
    7.1711   -4.7327   21.8916 H   0  0  0  0  0  0  0  0  0  0  0  0
    8.7983   -5.5716   21.8982 H   0  0  0  0  0  0  0  0  0  0  0  0
    9.9306   -3.3042   22.3113 H   0  0  0  0  0  0  0  0  0  0  0  0
    7.7236   -1.8779   20.8810 N   0  0  0  0  0  0  0  0  0  0  0  0
    7.3068   -0.5863   20.9750 N   0  0  0  0  0  0  0  0  0  0  0  0
    6.6242    0.0373   19.8962 C   0  0  0  0  0  0  0  0  0  0  0  0
    5.4209    0.7232   20.1017 C   0  0  0  0  0  0  0  0  0  0  0  0
    4.8324    1.3587   19.0063 C   0  0  0  0  0  0  0  0  0  0  0  0
    5.4573    1.2820   17.7583 C   0  0  0  0  0  0  0  0  0  0  0  0
    6.5895    0.5850   17.5492 N   0  0  0  0  0  0  0  0  0  0  0  0
    7.1474   -0.0342   18.5952 C   0  0  0  0  0  0  0  0  0  0  0  0
    8.0552   -0.6023   18.4011 H   0  0  0  0  0  0  0  0  0  0  0  0
    5.0361    1.7935   16.8948 H   0  0  0  0  0  0  0  0  0  0  0  0
    3.9141    1.9242   19.1195 H   0  0  0  0  0  0  0  0  0  0  0  0
    4.9602    0.7378   21.0902 H   0  0  0  0  0  0  0  0  0  0  0  0
    6.5578    1.7308   22.5594 H   0  0  0  0  0  0  0  0  0  0  0  0
    7.9863    1.4629   23.5541 H   0  0  0  0  0  0  0  0  0  0  0  0
    8.0093    2.1880   20.5597 H   0  0  0  0  0  0  0  0  0  0  0  0
    8.3313    3.2969   21.8835 H   0  0  0  0  0  0  0  0  0  0  0  0
    9.9962    0.8392   21.1167 H   0  0  0  0  0  0  0  0  0  0  0  0
   10.4569    2.5100   20.8371 H   0  0  0  0  0  0  0  0  0  0  0  0
   10.4185   -0.2387   23.2459 H   0  0  0  0  0  0  0  0  0  0  0  0
   11.7700    0.5337   25.5281 H   0  0  0  0  0  0  0  0  0  0  0  0
    9.8009    4.6900   23.1538 H   0  0  0  0  0  0  0  0  0  0  0  0
   11.2544    4.5297   22.1645 H   0  0  0  0  0  0  0  0  0  0  0  0
   11.3987    4.9676   23.8711 H   0  0  0  0  0  0  0  0  0  0  0  0
  1  2  1  0
  2  3  2  0
  3  4  1  0
  4  5  2  0
  5  6  1  0
  6  7  1  0
  7  8  1  0
  8  9  1  0
  9 10  1  0
 10 11  2  0
 11 12  1  0
 12 13  1  0
 13 14  1  0
 14 15  1  0
 15 16  1  0
 15 17  1  0
 14 18  1  0
 14 19  1  0
 13 20  1  0
 12 21  2  0
 21 22  1  0
 22 23  1  0
 23 24  2  0
 24 25  1  0
 25 26  2  0
 26 27  1  0
 27 28  2  0
 28 29  1  0
 26 30  1  0
 25 31  1  0
 24 32  1  0
  9 33  1  0
  9 34  1  0
  8 35  1  0
  8 36  1  0
  7 37  1  0
  7 38  1  0
  5 39  1  0
  4 40  1  0
  1 41  1  0
  1 42  1  0
  1 43  1  0
  6  2  1  0
 22 10  1  0
 28 23  1  0
 15 13  1  0
M  END
>  <cnnaffinity>  (1) 
-5.87711

>  <filename>  (1) 
Cc1nccn1CCCc1nc(C2CC2)nn1-c1cccnc1

$$$$
