
     RDKit          3D

 39 42  0  0  0  0  0  0  0  0999 V2000
    6.9789    0.6874   25.0296 C   0  0  0  0  0  0  0  0  0  0  0  0
    6.5623    1.7394   24.0458 C   0  0  0  0  0  0  0  0  0  0  0  0
    5.5303    2.5158   24.2637 N   0  0  0  0  0  0  0  0  0  0  0  0
    5.4247    3.3454   23.1624 O   0  0  0  0  0  0  0  0  0  0  0  0
    6.4035    3.0350   22.3006 C   0  0  0  0  0  0  0  0  0  0  0  0
    7.1699    2.0260   22.7731 C   0  0  0  0  0  0  0  0  0  0  0  0
    8.3483    1.3153   22.1370 C   0  0  0  0  0  0  0  0  0  0  0  0
    8.1434   -0.1555   21.9365 C   0  0  0  0  0  0  0  0  0  0  0  0
    8.6305   -1.1267   22.6700 N   0  0  0  0  0  0  0  0  0  0  0  0
    8.1347   -2.2492   22.0787 C   0  0  0  0  0  0  0  0  0  0  0  0
    8.4145   -3.5993   22.5958 C   0  0  0  0  0  0  0  0  0  0  0  0
    9.1863   -3.7609   23.7682 C   0  0  0  0  0  0  0  0  0  0  0  0
    9.4382   -5.0397   24.2503 C   0  0  0  0  0  0  0  0  0  0  0  0
    8.9343   -6.1513   23.5720 C   0  0  0  0  0  0  0  0  0  0  0  0
    8.1629   -6.0047   22.4179 C   0  0  0  0  0  0  0  0  0  0  0  0
    7.9025   -4.7307   21.9220 C   0  0  0  0  0  0  0  0  0  0  0  0
    7.3090   -4.5905   21.0166 H   0  0  0  0  0  0  0  0  0  0  0  0
    7.7840   -6.8803   21.8988 H   0  0  0  0  0  0  0  0  0  0  0  0
    9.2965   -7.1168   23.8720 H   0  0  0  0  0  0  0  0  0  0  0  0
   10.0727   -5.1924   25.1209 H   0  0  0  0  0  0  0  0  0  0  0  0
    9.5995   -2.8952   24.2872 H   0  0  0  0  0  0  0  0  0  0  0  0
    7.3866   -2.0157   21.0117 N   0  0  0  0  0  0  0  0  0  0  0  0
    7.3786   -0.6635   20.9340 N   0  0  0  0  0  0  0  0  0  0  0  0
    6.6500    0.0076   19.9018 C   0  0  0  0  0  0  0  0  0  0  0  0
    5.4289    0.6389   20.1582 C   0  0  0  0  0  0  0  0  0  0  0  0
    4.8034    1.3087   19.1020 C   0  0  0  0  0  0  0  0  0  0  0  0
    5.3998    1.2950   17.8398 C   0  0  0  0  0  0  0  0  0  0  0  0
    6.5614    0.6698   17.5865 N   0  0  0  0  0  0  0  0  0  0  0  0
    7.1685    0.0401   18.5991 C   0  0  0  0  0  0  0  0  0  0  0  0
    8.1186   -0.4399   18.3723 H   0  0  0  0  0  0  0  0  0  0  0  0
    4.9314    1.7914   16.9925 H   0  0  0  0  0  0  0  0  0  0  0  0
    3.8750    1.8425   19.2472 H   0  0  0  0  0  0  0  0  0  0  0  0
    4.9954    0.6065   21.1602 H   0  0  0  0  0  0  0  0  0  0  0  0
    8.5706    1.7708   21.1671 H   0  0  0  0  0  0  0  0  0  0  0  0
    9.2479    1.4282   22.7536 H   0  0  0  0  0  0  0  0  0  0  0  0
    6.3976    3.5741   21.3633 H   0  0  0  0  0  0  0  0  0  0  0  0
    8.0707    0.6039   25.0659 H   0  0  0  0  0  0  0  0  0  0  0  0
    6.6210   -0.2970   24.7069 H   0  0  0  0  0  0  0  0  0  0  0  0
    6.5940    0.8907   26.0304 H   0  0  0  0  0  0  0  0  0  0  0  0
  1  2  1  0
  2  3  2  0
  3  4  1  0
  4  5  1  0
  5  6  2  0
  6  7  1  0
  7  8  1  0
  8  9  2  0
  9 10  1  0
 10 11  1  0
 11 12  2  0
 12 13  1  0
 13 14  2  0
 14 15  1  0
 15 16  2  0
 16 17  1  0
 15 18  1  0
 14 19  1  0
 13 20  1  0
 12 21  1  0
 10 22  2  0
 22 23  1  0
 23 24  1  0
 24 25  2  0
 25 26  1  0
 26 27  2  0
 27 28  1  0
 28 29  2  0
 29 30  1  0
 27 31  1  0
 26 32  1  0
 25 33  1  0
  7 34  1  0
  7 35  1  0
  5 36  1  0
  1 37  1  0
  1 38  1  0
  1 39  1  0
  6  2  1  0
 23  8  1  0
 29 24  1  0
 16 11  1  0
M  END
>  <cnnaffinity>  (1) 
-5.83893

>  <filename>  (1) 
Cc1nocc1Cc1nc(-c2ccccc2)nn1-c1cccnc1

$$$$
