
     RDKit          3D

 43 46  0  0  0  0  0  0  0  0999 V2000
   12.1407    2.1744   24.5970 C   0  0  0  0  0  0  0  0  0  0  0  0
   11.0992    2.0180   23.5767 C   0  0  0  0  0  0  0  0  0  0  0  0
   11.1255    1.1497   22.5895 N   0  0  0  0  0  0  0  0  0  0  0  0
    9.9840    1.3616   21.9148 N   0  0  0  0  0  0  0  0  0  0  0  0
    9.6032    0.4286   20.8855 C   0  0  0  0  0  0  0  0  0  0  0  0
    8.6224   -0.5630   21.3906 C   0  0  0  0  0  0  0  0  0  0  0  0
    8.8559   -1.4243   22.3498 N   0  0  0  0  0  0  0  0  0  0  0  0
    7.6518   -2.0334   22.5266 C   0  0  0  0  0  0  0  0  0  0  0  0
    7.4247   -3.0499   23.5732 C   0  0  0  0  0  0  0  0  0  0  0  0
    6.1537   -3.6474   23.7143 C   0  0  0  0  0  0  0  0  0  0  0  0
    5.9249   -4.6084   24.6951 C   0  0  0  0  0  0  0  0  0  0  0  0
    6.9746   -4.9638   25.5385 C   0  0  0  0  0  0  0  0  0  0  0  0
    6.7539   -5.8891   26.4828 F   0  0  0  0  0  0  0  0  0  0  0  0
    8.2411   -4.3936   25.4367 C   0  0  0  0  0  0  0  0  0  0  0  0
    8.4643   -3.4324   24.4508 C   0  0  0  0  0  0  0  0  0  0  0  0
    9.4481   -2.9733   24.3612 H   0  0  0  0  0  0  0  0  0  0  0  0
    9.0189   -4.7115   26.1252 H   0  0  0  0  0  0  0  0  0  0  0  0
    4.9576   -5.0824   24.8225 H   0  0  0  0  0  0  0  0  0  0  0  0
    5.3465   -3.3453   23.0492 H   0  0  0  0  0  0  0  0  0  0  0  0
    6.7052   -1.6098   21.6989 N   0  0  0  0  0  0  0  0  0  0  0  0
    7.3443   -0.6925   20.9373 N   0  0  0  0  0  0  0  0  0  0  0  0
    6.6521   -0.0023   19.9010 C   0  0  0  0  0  0  0  0  0  0  0  0
    5.4395    0.6401   20.1653 C   0  0  0  0  0  0  0  0  0  0  0  0
    4.8120    1.3108   19.1092 C   0  0  0  0  0  0  0  0  0  0  0  0
    5.3990    1.2958   17.8383 C   0  0  0  0  0  0  0  0  0  0  0  0
    6.5556    0.6689   17.5756 N   0  0  0  0  0  0  0  0  0  0  0  0
    7.1643    0.0465   18.5923 C   0  0  0  0  0  0  0  0  0  0  0  0
    8.1122   -0.4366   18.3624 H   0  0  0  0  0  0  0  0  0  0  0  0
    4.9222    1.7894   16.9936 H   0  0  0  0  0  0  0  0  0  0  0  0
    3.8793    1.8406   19.2591 H   0  0  0  0  0  0  0  0  0  0  0  0
    5.0130    0.6049   21.1717 H   0  0  0  0  0  0  0  0  0  0  0  0
    9.2098    0.9990   20.0502 H   0  0  0  0  0  0  0  0  0  0  0  0
   10.5068   -0.1019   20.6048 H   0  0  0  0  0  0  0  0  0  0  0  0
    9.2074    2.3358   22.4629 C   0  0  0  0  0  0  0  0  0  0  0  0
    7.8400    2.7163   22.0217 C   0  0  0  0  0  0  0  0  0  0  0  0
    7.5992    3.7071   22.4106 H   0  0  0  0  0  0  0  0  0  0  0  0
    7.7596    2.7132   20.9360 H   0  0  0  0  0  0  0  0  0  0  0  0
    7.0987    2.0099   22.4100 H   0  0  0  0  0  0  0  0  0  0  0  0
    9.9238    2.7892   23.5392 C   0  0  0  0  0  0  0  0  0  0  0  0
    9.4630    4.0468   24.6279 Cl  0  0  0  0  0  0  0  0  0  0  0  0
   13.0969    1.7412   24.3111 H   0  0  0  0  0  0  0  0  0  0  0  0
   12.1982    3.2510   24.7481 H   0  0  0  0  0  0  0  0  0  0  0  0
   11.7752    1.7237   25.5154 H   0  0  0  0  0  0  0  0  0  0  0  0
  1  2  1  0
  2  3  2  0
  3  4  1  0
  4  5  1  0
  5  6  1  0
  6  7  2  0
  7  8  1  0
  8  9  1  0
  9 10  2  0
 10 11  1  0
 11 12  2  0
 12 13  1  0
 12 14  1  0
 14 15  2  0
 15 16  1  0
 14 17  1  0
 11 18  1  0
 10 19  1  0
  8 20  2  0
 20 21  1  0
 21 22  1  0
 22 23  2  0
 23 24  1  0
 24 25  2  0
 25 26  1  0
 26 27  2  0
 27 28  1  0
 25 29  1  0
 24 30  1  0
 23 31  1  0
  5 32  1  0
  5 33  1  0
  4 34  1  0
 34 35  1  0
 35 36  1  0
 35 37  1  0
 35 38  1  0
 34 39  2  0
 39 40  1  0
  1 41  1  0
  1 42  1  0
  1 43  1  0
 39  2  1  0
 21  6  1  0
 27 22  1  0
 15  9  1  0
M  END
>  <cnnaffinity>  (1) 
-6.20667

>  <filename>  (1) 
Cc1nn(Cc2nc(-c3ccc(F)cc3)nn2-c2cccnc2)c(C)c1Cl

$$$$
