
     RDKit          3D

 46 49  0  0  0  0  0  0  0  0999 V2000
   11.3534    4.2507   22.7558 C   0  0  0  0  0  0  0  0  0  0  0  0
   11.3440    2.9404   23.4724 C   0  0  0  0  0  0  0  0  0  0  0  0
   12.3752    2.4605   24.1231 N   0  0  0  0  0  0  0  0  0  0  0  0
   11.9813    1.2395   24.6079 C   0  0  0  0  0  0  0  0  0  0  0  0
   10.6943    0.9795   24.2386 C   0  0  0  0  0  0  0  0  0  0  0  0
   10.2784    2.0842   23.5144 N   0  0  0  0  0  0  0  0  0  0  0  0
    9.0022    2.2324   22.8289 C   0  0  0  0  0  0  0  0  0  0  0  0
    9.0730    2.0064   21.3129 C   0  0  0  0  0  0  0  0  0  0  0  0
    9.5453    0.5922   20.9278 C   0  0  0  0  0  0  0  0  0  0  0  0
    8.6489   -0.4883   21.4192 C   0  0  0  0  0  0  0  0  0  0  0  0
    8.8803   -1.3190   22.4210 N   0  0  0  0  0  0  0  0  0  0  0  0
    7.6990   -1.9705   22.5563 C   0  0  0  0  0  0  0  0  0  0  0  0
    7.4585   -2.9770   23.6268 C   0  0  0  0  0  0  0  0  0  0  0  0
    6.7430   -4.2833   23.1737 C   0  0  0  0  0  0  0  0  0  0  0  0
    5.5454   -3.9340   24.0866 C   0  0  0  0  0  0  0  0  0  0  0  0
    6.2656   -2.6596   24.5807 C   0  0  0  0  0  0  0  0  0  0  0  0
    5.7611   -1.7162   24.3526 H   0  0  0  0  0  0  0  0  0  0  0  0
    6.5197   -2.6452   25.6438 H   0  0  0  0  0  0  0  0  0  0  0  0
    4.6146   -3.7388   23.5458 H   0  0  0  0  0  0  0  0  0  0  0  0
    5.3298   -4.6693   24.8663 H   0  0  0  0  0  0  0  0  0  0  0  0
    7.2739   -5.2027   23.4346 H   0  0  0  0  0  0  0  0  0  0  0  0
    6.5175   -4.3122   22.1025 H   0  0  0  0  0  0  0  0  0  0  0  0
    8.4062   -3.1363   24.1424 H   0  0  0  0  0  0  0  0  0  0  0  0
    6.7638   -1.6082   21.6965 N   0  0  0  0  0  0  0  0  0  0  0  0
    7.3800   -0.6619   20.9450 N   0  0  0  0  0  0  0  0  0  0  0  0
    6.6646    0.0073   19.9064 C   0  0  0  0  0  0  0  0  0  0  0  0
    5.4425    0.6395   20.1698 C   0  0  0  0  0  0  0  0  0  0  0  0
    4.8142    1.3074   19.1117 C   0  0  0  0  0  0  0  0  0  0  0  0
    5.4014    1.2953   17.8390 C   0  0  0  0  0  0  0  0  0  0  0  0
    6.5614    0.6742   17.5776 N   0  0  0  0  0  0  0  0  0  0  0  0
    7.1703    0.0551   18.5953 C   0  0  0  0  0  0  0  0  0  0  0  0
    8.1133   -0.4351   18.3691 H   0  0  0  0  0  0  0  0  0  0  0  0
    4.9187    1.7849   16.9948 H   0  0  0  0  0  0  0  0  0  0  0  0
    3.8810    1.8384   19.2618 H   0  0  0  0  0  0  0  0  0  0  0  0
    5.0163    0.6101   21.1756 H   0  0  0  0  0  0  0  0  0  0  0  0
    9.6189    0.5187   19.8410 H   0  0  0  0  0  0  0  0  0  0  0  0
   10.5355    0.3941   21.3444 H   0  0  0  0  0  0  0  0  0  0  0  0
    8.0845    2.1970   20.8718 H   0  0  0  0  0  0  0  0  0  0  0  0
    9.7593    2.7391   20.8804 H   0  0  0  0  0  0  0  0  0  0  0  0
    8.3198    1.5109   23.2853 H   0  0  0  0  0  0  0  0  0  0  0  0
    8.5901    3.2224   23.0446 H   0  0  0  0  0  0  0  0  0  0  0  0
   10.0530    0.1190   24.3746 H   0  0  0  0  0  0  0  0  0  0  0  0
   12.6541    0.6310   25.2029 H   0  0  0  0  0  0  0  0  0  0  0  0
   11.6132    4.1091   21.7003 H   0  0  0  0  0  0  0  0  0  0  0  0
   12.1243    4.8931   23.1860 H   0  0  0  0  0  0  0  0  0  0  0  0
   10.3868    4.7604   22.8086 H   0  0  0  0  0  0  0  0  0  0  0  0
  1  2  1  0
  2  3  2  0
  3  4  1  0
  4  5  2  0
  5  6  1  0
  6  7  1  0
  7  8  1  0
  8  9  1  0
  9 10  1  0
 10 11  2  0
 11 12  1  0
 12 13  1  0
 13 14  1  0
 14 15  1  0
 15 16  1  0
 16 17  1  0
 16 18  1  0
 15 19  1  0
 15 20  1  0
 14 21  1  0
 14 22  1  0
 13 23  1  0
 12 24  2  0
 24 25  1  0
 25 26  1  0
 26 27  2  0
 27 28  1  0
 28 29  2  0
 29 30  1  0
 30 31  2  0
 31 32  1  0
 29 33  1  0
 28 34  1  0
 27 35  1  0
  9 36  1  0
  9 37  1  0
  8 38  1  0
  8 39  1  0
  7 40  1  0
  7 41  1  0
  5 42  1  0
  4 43  1  0
  1 44  1  0
  1 45  1  0
  1 46  1  0
  6  2  1  0
 25 10  1  0
 31 26  1  0
 16 13  1  0
M  END
>  <cnnaffinity>  (1) 
-6.21995

>  <filename>  (1) 
Cc1nccn1CCCc1nc(C2CCC2)nn1-c1cccnc1

$$$$
