
     RDKit          3D

 44 47  0  0  0  0  0  0  0  0999 V2000
    8.6011    2.7287   22.0568 C   0  0  0  0  0  0  0  0  0  0  0  0
    9.9268    2.1491   22.4541 C   0  0  0  0  0  0  0  0  0  0  0  0
   10.6195    2.8136   23.3795 N   0  0  0  0  0  0  0  0  0  0  0  0
   11.7503    2.2467   23.7907 C   0  0  0  0  0  0  0  0  0  0  0  0
   12.2479    1.0859   23.3828 N   0  0  0  0  0  0  0  0  0  0  0  0
   11.5492    0.4196   22.4613 C   0  0  0  0  0  0  0  0  0  0  0  0
   12.0301   -0.9603   22.1096 C   0  0  0  0  0  0  0  0  0  0  0  0
   11.2815   -1.6908   22.4460 H   0  0  0  0  0  0  0  0  0  0  0  0
   12.1440   -1.0851   21.0292 H   0  0  0  0  0  0  0  0  0  0  0  0
   12.9975   -1.1631   22.5701 H   0  0  0  0  0  0  0  0  0  0  0  0
   10.3933    0.9595   21.8785 C   0  0  0  0  0  0  0  0  0  0  0  0
    9.6025    0.2126   20.8122 C   0  0  0  0  0  0  0  0  0  0  0  0
    8.5428   -0.7027   21.3616 C   0  0  0  0  0  0  0  0  0  0  0  0
    8.7295   -1.5452   22.3517 N   0  0  0  0  0  0  0  0  0  0  0  0
    7.5154   -2.1241   22.5267 C   0  0  0  0  0  0  0  0  0  0  0  0
    7.3088   -3.1235   23.5912 C   0  0  0  0  0  0  0  0  0  0  0  0
    8.3886   -3.5137   24.4099 C   0  0  0  0  0  0  0  0  0  0  0  0
    8.2115   -4.4425   25.4324 C   0  0  0  0  0  0  0  0  0  0  0  0
    6.9419   -4.9796   25.6283 C   0  0  0  0  0  0  0  0  0  0  0  0
    6.7611   -5.8796   26.6061 F   0  0  0  0  0  0  0  0  0  0  0  0
    5.8510   -4.6107   24.8455 C   0  0  0  0  0  0  0  0  0  0  0  0
    6.0358   -3.6792   23.8243 C   0  0  0  0  0  0  0  0  0  0  0  0
    5.1955   -3.3664   23.2081 H   0  0  0  0  0  0  0  0  0  0  0  0
    4.8829   -5.0520   25.0472 H   0  0  0  0  0  0  0  0  0  0  0  0
    9.0262   -4.7552   26.0769 H   0  0  0  0  0  0  0  0  0  0  0  0
    9.3739   -3.0768   24.2515 H   0  0  0  0  0  0  0  0  0  0  0  0
    6.5903   -1.6989   21.6835 N   0  0  0  0  0  0  0  0  0  0  0  0
    7.2607   -0.8084   20.9106 N   0  0  0  0  0  0  0  0  0  0  0  0
    6.5942   -0.1079   19.8692 C   0  0  0  0  0  0  0  0  0  0  0  0
    5.4049    0.5812   20.1316 C   0  0  0  0  0  0  0  0  0  0  0  0
    4.8216    1.3046   19.0896 C   0  0  0  0  0  0  0  0  0  0  0  0
    5.4265    1.2987   17.8277 C   0  0  0  0  0  0  0  0  0  0  0  0
    6.5490    0.6130   17.5605 N   0  0  0  0  0  0  0  0  0  0  0  0
    7.1104   -0.0729   18.5615 C   0  0  0  0  0  0  0  0  0  0  0  0
    8.0264   -0.6124   18.3225 H   0  0  0  0  0  0  0  0  0  0  0  0
    4.9950    1.8551   16.9974 H   0  0  0  0  0  0  0  0  0  0  0  0
    3.9189    1.8859   19.2470 H   0  0  0  0  0  0  0  0  0  0  0  0
    4.9750    0.5439   21.1328 H   0  0  0  0  0  0  0  0  0  0  0  0
    9.1612    0.9219   20.1071 H   0  0  0  0  0  0  0  0  0  0  0  0
   10.2614   -0.4451   20.2364 H   0  0  0  0  0  0  0  0  0  0  0  0
   12.3051    2.7843   24.5548 H   0  0  0  0  0  0  0  0  0  0  0  0
    7.8228    1.9601   22.0895 H   0  0  0  0  0  0  0  0  0  0  0  0
    8.3197    3.5514   22.7153 H   0  0  0  0  0  0  0  0  0  0  0  0
    8.6408    3.1096   21.0330 H   0  0  0  0  0  0  0  0  0  0  0  0
  1  2  1  0
  2  3  2  0
  3  4  1  0
  4  5  2  0
  5  6  1  0
  6  7  1  0
  7  8  1  0
  7  9  1  0
  7 10  1  0
  6 11  2  0
 11 12  1  0
 12 13  1  0
 13 14  2  0
 14 15  1  0
 15 16  1  0
 16 17  2  0
 17 18  1  0
 18 19  2  0
 19 20  1  0
 19 21  1  0
 21 22  2  0
 22 23  1  0
 21 24  1  0
 18 25  1  0
 17 26  1  0
 15 27  2  0
 27 28  1  0
 28 29  1  0
 29 30  2  0
 30 31  1  0
 31 32  2  0
 32 33  1  0
 33 34  2  0
 34 35  1  0
 32 36  1  0
 31 37  1  0
 30 38  1  0
 12 39  1  0
 12 40  1  0
  4 41  1  0
  1 42  1  0
  1 43  1  0
  1 44  1  0
 11  2  1  0
 28 13  1  0
 34 29  1  0
 22 16  1  0
M  END
>  <cnnaffinity>  (1) 
-6.34759

>  <filename>  (1) 
Cc1ncnc(C)c1Cc1nc(-c2ccc(F)cc2)nn1-c1cccnc1

$$$$
