
     RDKit          3D

 47 50  0  0  0  0  0  0  0  0999 V2000
    9.2231    0.0252   25.1778 C   0  0  0  0  0  0  0  0  0  0  0  0
    8.2642   -1.1249   25.3538 C   0  0  0  0  0  0  0  0  0  0  0  0
    8.2973   -1.7230   26.5506 N   0  0  0  0  0  0  0  0  0  0  0  0
    7.4617   -2.7414   26.7836 C   0  0  0  0  0  0  0  0  0  0  0  0
    6.4997   -3.1776   25.8711 C   0  0  0  0  0  0  0  0  0  0  0  0
    6.4359   -2.5505   24.6287 C   0  0  0  0  0  0  0  0  0  0  0  0
    7.4023   -1.5906   24.3274 C   0  0  0  0  0  0  0  0  0  0  0  0
    7.6085   -1.2111   22.9624 N   0  0  0  0  0  0  0  0  0  0  0  0
    6.6647   -0.5375   22.2626 N   0  0  0  0  0  0  0  0  0  0  0  0
    7.1886   -0.4702   21.0539 C   0  0  0  0  0  0  0  0  0  0  0  0
    6.5316    0.1574   19.9101 C   0  0  0  0  0  0  0  0  0  0  0  0
    5.3034    0.8358   19.9962 C   0  0  0  0  0  0  0  0  0  0  0  0
    4.8032    1.4095   18.8320 C   0  0  0  0  0  0  0  0  0  0  0  0
    5.5261    1.2791   17.6404 C   0  0  0  0  0  0  0  0  0  0  0  0
    6.6880    0.6121   17.5478 N   0  0  0  0  0  0  0  0  0  0  0  0
    7.1701    0.0698   18.6678 C   0  0  0  0  0  0  0  0  0  0  0  0
    8.1133   -0.4673   18.5790 H   0  0  0  0  0  0  0  0  0  0  0  0
    5.1579    1.7236   16.7199 H   0  0  0  0  0  0  0  0  0  0  0  0
    3.8710    1.9646   18.8326 H   0  0  0  0  0  0  0  0  0  0  0  0
    4.7737    0.9008   20.9503 H   0  0  0  0  0  0  0  0  0  0  0  0
    8.3956   -1.0858   20.9214 N   0  0  0  0  0  0  0  0  0  0  0  0
    8.6175   -1.5733   22.1194 C   0  0  0  0  0  0  0  0  0  0  0  0
    9.7958   -2.4102   22.5312 C   0  0  0  0  0  0  0  0  0  0  0  0
    9.4558   -3.6481   23.3617 C   0  0  0  0  0  0  0  0  0  0  0  0
   10.1394   -3.9115   24.5545 C   0  0  0  0  0  0  0  0  0  0  0  0
    9.7667   -4.9623   25.3947 C   0  0  0  0  0  0  0  0  0  0  0  0
    8.6612   -5.7547   25.0584 C   0  0  0  0  0  0  0  0  0  0  0  0
    8.0011   -5.5523   23.8473 C   0  0  0  0  0  0  0  0  0  0  0  0
    8.4413   -4.5431   22.9739 C   0  0  0  0  0  0  0  0  0  0  0  0
    7.8603   -4.4898   21.2581 S   0  0  0  0  0  0  0  0  0  0  0  0
    8.3122   -5.7527   20.6006 O   0  0  0  0  0  0  0  0  0  0  0  0
    6.0896   -4.5995   21.5614 C   0  0  0  0  0  0  0  0  0  0  0  0
    5.8240   -5.4633   22.1764 H   0  0  0  0  0  0  0  0  0  0  0  0
    5.5896   -4.6706   20.5936 H   0  0  0  0  0  0  0  0  0  0  0  0
    5.7865   -3.6703   22.0419 H   0  0  0  0  0  0  0  0  0  0  0  0
    7.1474   -6.1788   23.5996 H   0  0  0  0  0  0  0  0  0  0  0  0
    8.3059   -6.5192   25.7483 H   0  0  0  0  0  0  0  0  0  0  0  0
   10.3353   -5.1675   26.3022 H   0  0  0  0  0  0  0  0  0  0  0  0
   10.9647   -3.2595   24.8382 H   0  0  0  0  0  0  0  0  0  0  0  0
   10.4867   -1.7632   23.0827 H   0  0  0  0  0  0  0  0  0  0  0  0
   10.2951   -2.6967   21.6019 H   0  0  0  0  0  0  0  0  0  0  0  0
    5.6931   -2.8439   23.8854 H   0  0  0  0  0  0  0  0  0  0  0  0
    5.8513   -4.0106   26.1205 H   0  0  0  0  0  0  0  0  0  0  0  0
    7.5674   -3.2291   27.7462 H   0  0  0  0  0  0  0  0  0  0  0  0
    8.8572    0.7594   24.4577 H   0  0  0  0  0  0  0  0  0  0  0  0
    9.3971    0.5000   26.1459 H   0  0  0  0  0  0  0  0  0  0  0  0
   10.1889   -0.3463   24.8193 H   0  0  0  0  0  0  0  0  0  0  0  0
  1  2  1  0
  2  3  2  0
  3  4  1  0
  4  5  2  0
  5  6  1  0
  6  7  2  0
  7  8  1  0
  8  9  1  0
  9 10  2  0
 10 11  1  0
 11 12  2  0
 12 13  1  0
 13 14  2  0
 14 15  1  0
 15 16  2  0
 16 17  1  0
 14 18  1  0
 13 19  1  0
 12 20  1  0
 10 21  1  0
 21 22  2  0
 22 23  1  0
 23 24  1  0
 24 25  2  0
 25 26  1  0
 26 27  2  0
 27 28  1  0
 28 29  2  0
 29 30  1  0
 30 31  2  0
 30 32  1  0
 32 33  1  0
 32 34  1  0
 32 35  1  0
 28 36  1  0
 27 37  1  0
 26 38  1  0
 25 39  1  0
 23 40  1  0
 23 41  1  0
  6 42  1  0
  5 43  1  0
  4 44  1  0
  1 45  1  0
  1 46  1  0
  1 47  1  0
  7  2  1  0
 22  8  1  0
 29 24  1  0
 16 11  1  0
M  END
>  <cnnaffinity>  (1) 
-6.61651

>  <filename>  (1) 
Cc1ncccc1-n1nc(-c2cccnc2)nc1Cc1ccccc1S(C)=O

$$$$
