
     RDKit          3D

 42 45  0  0  0  0  0  0  0  0999 V2000
    8.1654   -0.1533   27.3959 C   0  0  0  0  0  0  0  0  0  0  0  0
    7.5254    0.3819   26.1673 C   0  0  0  0  0  0  0  0  0  0  0  0
    8.1143    1.0647   25.2491 N   0  0  0  0  0  0  0  0  0  0  0  0
    7.1868    1.1891   24.2252 C   0  0  0  0  0  0  0  0  0  0  0  0
    7.6539    1.7534   22.9142 C   0  0  0  0  0  0  0  0  0  0  0  0
    8.6595    0.8322   22.3070 C   0  0  0  0  0  0  0  0  0  0  0  0
    9.9660    0.8940   22.4846 N   0  0  0  0  0  0  0  0  0  0  0  0
   10.3946   -0.3028   22.0280 C   0  0  0  0  0  0  0  0  0  0  0  0
   11.8002   -0.7116   21.9026 C   0  0  0  0  0  0  0  0  0  0  0  0
   12.0141   -1.8504   21.1196 C   0  0  0  0  0  0  0  0  0  0  0  0
   13.2382   -2.0917   20.5235 C   0  0  0  0  0  0  0  0  0  0  0  0
   14.2735   -1.2153   20.7999 C   0  0  0  0  0  0  0  0  0  0  0  0
   15.3137   -1.2415   19.9625 F   0  0  0  0  0  0  0  0  0  0  0  0
   14.1692   -0.2333   21.7953 C   0  0  0  0  0  0  0  0  0  0  0  0
   12.9068    0.0448   22.3269 C   0  0  0  0  0  0  0  0  0  0  0  0
   12.7801    0.8856   23.0066 H   0  0  0  0  0  0  0  0  0  0  0  0
   15.0085    0.4045   22.0413 H   0  0  0  0  0  0  0  0  0  0  0  0
   13.3899   -2.8954   19.8119 H   0  0  0  0  0  0  0  0  0  0  0  0
   11.1322   -2.4380   20.8996 H   0  0  0  0  0  0  0  0  0  0  0  0
    9.4271   -1.0690   21.5372 N   0  0  0  0  0  0  0  0  0  0  0  0
    8.3201   -0.3346   21.7122 N   0  0  0  0  0  0  0  0  0  0  0  0
    7.0596   -0.8184   21.1627 C   0  0  0  0  0  0  0  0  0  0  0  0
    6.5258    0.0081   20.0153 C   0  0  0  0  0  0  0  0  0  0  0  0
    5.2989    0.6726   20.0812 C   0  0  0  0  0  0  0  0  0  0  0  0
    4.8387    1.3571   18.9543 C   0  0  0  0  0  0  0  0  0  0  0  0
    5.6317    1.3612   17.8037 C   0  0  0  0  0  0  0  0  0  0  0  0
    6.8235    0.7470   17.7267 N   0  0  0  0  0  0  0  0  0  0  0  0
    7.2541    0.1019   18.8168 C   0  0  0  0  0  0  0  0  0  0  0  0
    8.2261   -0.3850   18.7318 H   0  0  0  0  0  0  0  0  0  0  0  0
    5.2945    1.8697   16.9018 H   0  0  0  0  0  0  0  0  0  0  0  0
    3.8942    1.8895   18.9580 H   0  0  0  0  0  0  0  0  0  0  0  0
    4.7126    0.6545   21.0021 H   0  0  0  0  0  0  0  0  0  0  0  0
    7.2684   -1.8415   20.8277 H   0  0  0  0  0  0  0  0  0  0  0  0
    6.3298   -0.8770   21.9749 H   0  0  0  0  0  0  0  0  0  0  0  0
    8.1699    2.6957   23.0929 H   0  0  0  0  0  0  0  0  0  0  0  0
    6.8270    1.9164   22.2175 H   0  0  0  0  0  0  0  0  0  0  0  0
    6.0351    0.6046   24.6294 C   0  0  0  0  0  0  0  0  0  0  0  0
    6.2394    0.0792   25.8816 O   0  0  0  0  0  0  0  0  0  0  0  0
    5.0615    0.4526   24.1964 H   0  0  0  0  0  0  0  0  0  0  0  0
    8.0732    0.5460   28.2302 H   0  0  0  0  0  0  0  0  0  0  0  0
    7.7242   -1.1107   27.6716 H   0  0  0  0  0  0  0  0  0  0  0  0
    9.2272   -0.2866   27.1796 H   0  0  0  0  0  0  0  0  0  0  0  0
  1  2  1  0
  2  3  2  0
  3  4  1  0
  4  5  1  0
  5  6  1  0
  6  7  2  0
  7  8  1  0
  8  9  1  0
  9 10  2  0
 10 11  1  0
 11 12  2  0
 12 13  1  0
 12 14  1  0
 14 15  2  0
 15 16  1  0
 14 17  1  0
 11 18  1  0
 10 19  1  0
  8 20  2  0
 20 21  1  0
 21 22  1  0
 22 23  1  0
 23 24  2  0
 24 25  1  0
 25 26  2  0
 26 27  1  0
 27 28  2  0
 28 29  1  0
 26 30  1  0
 25 31  1  0
 24 32  1  0
 22 33  1  0
 22 34  1  0
  5 35  1  0
  5 36  1  0
  4 37  2  0
 37 38  1  0
 37 39  1  0
  1 40  1  0
  1 41  1  0
  1 42  1  0
 38  2  1  0
 21  6  1  0
 28 23  1  0
 15  9  1  0
M  END
>  <cnnaffinity>  (1) 
-6.56224

>  <filename>  (1) 
Cc1nc(Cc2nc(-c3ccc(F)cc3)nn2Cc2cccnc2)co1

$$$$
