
     RDKit          3D

 33 35  0  0  0  0  0  0  0  0999 V2000
    8.5316   -3.5539   22.2731 C   0  0  0  0  0  0  0  0  0  0  0  0
    8.0742   -2.1720   21.9689 C   0  0  0  0  0  0  0  0  0  0  0  0
    7.7029   -1.7896   20.7660 N   0  0  0  0  0  0  0  0  0  0  0  0
    7.2437   -0.5270   20.9734 N   0  0  0  0  0  0  0  0  0  0  0  0
    6.5808    0.1444   19.9156 C   0  0  0  0  0  0  0  0  0  0  0  0
    5.3630    0.8183   20.0867 C   0  0  0  0  0  0  0  0  0  0  0  0
    4.7810    1.4155   18.9626 C   0  0  0  0  0  0  0  0  0  0  0  0
    5.4419    1.3348   17.7344 C   0  0  0  0  0  0  0  0  0  0  0  0
    6.5958    0.6647   17.5605 N   0  0  0  0  0  0  0  0  0  0  0  0
    7.1336    0.0639   18.6248 C   0  0  0  0  0  0  0  0  0  0  0  0
    8.0338   -0.5323   18.4663 H   0  0  0  0  0  0  0  0  0  0  0  0
    5.0118    1.7834   16.8425 H   0  0  0  0  0  0  0  0  0  0  0  0
    3.8318    1.9351   19.0317 H   0  0  0  0  0  0  0  0  0  0  0  0
    4.8787    0.8504   21.0636 H   0  0  0  0  0  0  0  0  0  0  0  0
    7.4587   -0.1851   22.2843 C   0  0  0  0  0  0  0  0  0  0  0  0
    7.2637    1.1609   22.9185 C   0  0  0  0  0  0  0  0  0  0  0  0
    8.5546    1.6876   23.5284 C   0  0  0  0  0  0  0  0  0  0  0  0
    9.5915    2.1636   22.7108 C   0  0  0  0  0  0  0  0  0  0  0  0
    9.3241    2.2545   21.0180 Cl  0  0  0  0  0  0  0  0  0  0  0  0
   10.8338    2.5214   23.2569 C   0  0  0  0  0  0  0  0  0  0  0  0
   12.1129    3.1835   22.2952 Cl  0  0  0  0  0  0  0  0  0  0  0  0
   11.0541    2.3489   24.6224 C   0  0  0  0  0  0  0  0  0  0  0  0
   10.0391    1.8748   25.4471 C   0  0  0  0  0  0  0  0  0  0  0  0
    8.7885    1.5868   24.9015 C   0  0  0  0  0  0  0  0  0  0  0  0
    7.9781    1.2632   25.5425 H   0  0  0  0  0  0  0  0  0  0  0  0
   10.2257    1.7160   26.4998 H   0  0  0  0  0  0  0  0  0  0  0  0
   12.0299    2.5873   25.0172 H   0  0  0  0  0  0  0  0  0  0  0  0
    6.8904    1.8630   22.1728 H   0  0  0  0  0  0  0  0  0  0  0  0
    6.5024    1.0704   23.6971 H   0  0  0  0  0  0  0  0  0  0  0  0
    7.9465   -1.2223   22.9336 N   0  0  0  0  0  0  0  0  0  0  0  0
    9.5854   -3.5572   22.5574 H   0  0  0  0  0  0  0  0  0  0  0  0
    7.9448   -3.9327   23.1149 H   0  0  0  0  0  0  0  0  0  0  0  0
    8.3703   -4.1921   21.4037 H   0  0  0  0  0  0  0  0  0  0  0  0
  1  2  1  0
  2  3  2  0
  3  4  1  0
  4  5  1  0
  5  6  2  0
  6  7  1  0
  7  8  2  0
  8  9  1  0
  9 10  2  0
 10 11  1  0
  8 12  1  0
  7 13  1  0
  6 14  1  0
  4 15  1  0
 15 16  1  0
 16 17  1  0
 17 18  2  0
 18 19  1  0
 18 20  1  0
 20 21  1  0
 20 22  2  0
 22 23  1  0
 23 24  2  0
 24 25  1  0
 23 26  1  0
 22 27  1  0
 16 28  1  0
 16 29  1  0
 15 30  2  0
  1 31  1  0
  1 32  1  0
  1 33  1  0
 30  2  1  0
 10  5  1  0
 24 17  1  0
M  END
>  <cnnaffinity>  (1) 
-5.51692

>  <filename>  (1) 
Cc1nc(Cc2cccc(Cl)c2Cl)n(-c2cccnc2)n1

$$$$
