
     RDKit          3D

 46 49  0  0  0  0  0  0  0  0999 V2000
   12.1400    2.3806   24.2977 C   0  0  0  0  0  0  0  0  0  0  0  0
   10.9681    2.1701   23.3968 C   0  0  0  0  0  0  0  0  0  0  0  0
   11.0218    1.2464   22.4580 N   0  0  0  0  0  0  0  0  0  0  0  0
    9.8418    1.3019   21.8127 N   0  0  0  0  0  0  0  0  0  0  0  0
    9.5909    0.2578   20.8246 C   0  0  0  0  0  0  0  0  0  0  0  0
    8.5567   -0.6903   21.3185 C   0  0  0  0  0  0  0  0  0  0  0  0
    8.7622   -1.5120   22.3139 N   0  0  0  0  0  0  0  0  0  0  0  0
    7.5482   -2.0939   22.5022 C   0  0  0  0  0  0  0  0  0  0  0  0
    7.3316   -3.1005   23.5631 C   0  0  0  0  0  0  0  0  0  0  0  0
    6.0711   -3.7010   23.7334 C   0  0  0  0  0  0  0  0  0  0  0  0
    5.9190   -4.6583   24.7284 C   0  0  0  0  0  0  0  0  0  0  0  0
    4.7208   -5.2398   24.8883 F   0  0  0  0  0  0  0  0  0  0  0  0
    6.9658   -5.0296   25.5722 C   0  0  0  0  0  0  0  0  0  0  0  0
    8.2100   -4.4141   25.4063 C   0  0  0  0  0  0  0  0  0  0  0  0
    8.4001   -3.4588   24.4106 C   0  0  0  0  0  0  0  0  0  0  0  0
    9.3677   -2.9788   24.2811 H   0  0  0  0  0  0  0  0  0  0  0  0
    9.0353   -4.6748   26.0650 H   0  0  0  0  0  0  0  0  0  0  0  0
    6.7906   -5.7704   26.3432 H   0  0  0  0  0  0  0  0  0  0  0  0
    5.2258   -3.4153   23.1111 H   0  0  0  0  0  0  0  0  0  0  0  0
    6.6092   -1.6750   21.6691 N   0  0  0  0  0  0  0  0  0  0  0  0
    7.2694   -0.7925   20.8802 N   0  0  0  0  0  0  0  0  0  0  0  0
    6.5893   -0.1002   19.8475 C   0  0  0  0  0  0  0  0  0  0  0  0
    5.3904    0.5657   20.1171 C   0  0  0  0  0  0  0  0  0  0  0  0
    4.8037    1.2996   19.0815 C   0  0  0  0  0  0  0  0  0  0  0  0
    5.4131    1.3141   17.8209 C   0  0  0  0  0  0  0  0  0  0  0  0
    6.5336    0.6325   17.5442 N   0  0  0  0  0  0  0  0  0  0  0  0
    7.1010   -0.0599   18.5395 C   0  0  0  0  0  0  0  0  0  0  0  0
    8.0065   -0.6116   18.2979 H   0  0  0  0  0  0  0  0  0  0  0  0
    4.9788    1.8847   17.0019 H   0  0  0  0  0  0  0  0  0  0  0  0
    3.8899    1.8576   19.2386 H   0  0  0  0  0  0  0  0  0  0  0  0
    4.9416    0.5119   21.1113 H   0  0  0  0  0  0  0  0  0  0  0  0
    9.3553    0.6870   19.8502 H   0  0  0  0  0  0  0  0  0  0  0  0
   10.5223   -0.3091   20.7450 H   0  0  0  0  0  0  0  0  0  0  0  0
    9.0145    2.2519   22.3570 C   0  0  0  0  0  0  0  0  0  0  0  0
    7.6366    2.6209   21.8694 C   0  0  0  0  0  0  0  0  0  0  0  0
    7.4153    3.6699   22.1133 H   0  0  0  0  0  0  0  0  0  0  0  0
    6.8500    2.0177   22.3456 H   0  0  0  0  0  0  0  0  0  0  0  0
    7.5532    2.4892   20.7880 H   0  0  0  0  0  0  0  0  0  0  0  0
    9.7193    2.8283   23.4033 C   0  0  0  0  0  0  0  0  0  0  0  0
    9.3142    3.9930   24.2579 C   0  0  0  0  0  0  0  0  0  0  0  0
    9.3225    4.9353   23.6921 H   0  0  0  0  0  0  0  0  0  0  0  0
    8.3103    3.8646   24.6769 H   0  0  0  0  0  0  0  0  0  0  0  0
    9.9961    4.1272   25.1030 H   0  0  0  0  0  0  0  0  0  0  0  0
   12.4765    3.4229   24.2243 H   0  0  0  0  0  0  0  0  0  0  0  0
   12.9495    1.7077   23.9961 H   0  0  0  0  0  0  0  0  0  0  0  0
   11.8798    2.1637   25.3412 H   0  0  0  0  0  0  0  0  0  0  0  0
  1  2  1  0
  2  3  2  0
  3  4  1  0
  4  5  1  0
  5  6  1  0
  6  7  2  0
  7  8  1  0
  8  9  1  0
  9 10  2  0
 10 11  1  0
 11 12  1  0
 11 13  2  0
 13 14  1  0
 14 15  2  0
 15 16  1  0
 14 17  1  0
 13 18  1  0
 10 19  1  0
  8 20  2  0
 20 21  1  0
 21 22  1  0
 22 23  2  0
 23 24  1  0
 24 25  2  0
 25 26  1  0
 26 27  2  0
 27 28  1  0
 25 29  1  0
 24 30  1  0
 23 31  1  0
  5 32  1  0
  5 33  1  0
  4 34  1  0
 34 35  1  0
 35 36  1  0
 35 37  1  0
 35 38  1  0
 34 39  2  0
 39 40  1  0
 40 41  1  0
 40 42  1  0
 40 43  1  0
  1 44  1  0
  1 45  1  0
  1 46  1  0
 39  2  1  0
 21  6  1  0
 27 22  1  0
 15  9  1  0
M  END
>  <cnnaffinity>  (1) 
-6.18484

>  <filename>  (1) 
Cc1nn(Cc2nc(-c3cccc(F)c3)nn2-c2cccnc2)c(C)c1C

$$$$
