
     RDKit          3D

 42 45  0  0  0  0  0  0  0  0999 V2000
    7.5524   -0.1114   27.6306 C   0  0  0  0  0  0  0  0  0  0  0  0
    6.8683    0.3161   26.3818 C   0  0  0  0  0  0  0  0  0  0  0  0
    5.8462   -0.3217   25.8395 N   0  0  0  0  0  0  0  0  0  0  0  0
    5.7417    0.2910   24.6315 N   0  0  0  0  0  0  0  0  0  0  0  0
    6.6899    1.2392   24.5044 C   0  0  0  0  0  0  0  0  0  0  0  0
    7.0983    1.8790   23.2153 C   0  0  0  0  0  0  0  0  0  0  0  0
    8.1217    0.9810   22.6002 C   0  0  0  0  0  0  0  0  0  0  0  0
    9.4186    1.0185   22.8455 N   0  0  0  0  0  0  0  0  0  0  0  0
    9.8615   -0.1580   22.3321 C   0  0  0  0  0  0  0  0  0  0  0  0
   11.2580   -0.6039   22.1969 C   0  0  0  0  0  0  0  0  0  0  0  0
   11.4688   -1.7734   21.4417 C   0  0  0  0  0  0  0  0  0  0  0  0
   12.7023   -2.0086   20.8704 C   0  0  0  0  0  0  0  0  0  0  0  0
   13.7621   -1.1669   21.1558 C   0  0  0  0  0  0  0  0  0  0  0  0
   15.0538   -1.3118   20.0219 Cl  0  0  0  0  0  0  0  0  0  0  0  0
   13.6338   -0.1065   22.0607 C   0  0  0  0  0  0  0  0  0  0  0  0
   12.3650    0.1746   22.5812 C   0  0  0  0  0  0  0  0  0  0  0  0
   12.2263    1.0492   23.2104 H   0  0  0  0  0  0  0  0  0  0  0  0
   14.4629    0.5727   22.2209 H   0  0  0  0  0  0  0  0  0  0  0  0
   12.8737   -2.7316   20.0819 H   0  0  0  0  0  0  0  0  0  0  0  0
   10.6238   -2.4163   21.2179 H   0  0  0  0  0  0  0  0  0  0  0  0
    8.9028   -0.8924   21.7826 N   0  0  0  0  0  0  0  0  0  0  0  0
    7.7938   -0.1670   21.9667 N   0  0  0  0  0  0  0  0  0  0  0  0
    6.5725   -0.6247   21.3162 C   0  0  0  0  0  0  0  0  0  0  0  0
    6.2135    0.1428   20.0712 C   0  0  0  0  0  0  0  0  0  0  0  0
    5.0350    0.8815   19.9836 C   0  0  0  0  0  0  0  0  0  0  0  0
    4.7560    1.5580   18.7949 C   0  0  0  0  0  0  0  0  0  0  0  0
    5.6730    1.4660   17.7446 C   0  0  0  0  0  0  0  0  0  0  0  0
    6.8172    0.7687   17.8128 N   0  0  0  0  0  0  0  0  0  0  0  0
    7.0768    0.1333   18.9620 C   0  0  0  0  0  0  0  0  0  0  0  0
    8.0093   -0.4305   19.0037 H   0  0  0  0  0  0  0  0  0  0  0  0
    5.4800    1.9690   16.8005 H   0  0  0  0  0  0  0  0  0  0  0  0
    3.8496    2.1371   18.6679 H   0  0  0  0  0  0  0  0  0  0  0  0
    4.3513    0.9251   20.8353 H   0  0  0  0  0  0  0  0  0  0  0  0
    6.7530   -1.6770   21.0848 H   0  0  0  0  0  0  0  0  0  0  0  0
    5.7657   -0.5874   22.0454 H   0  0  0  0  0  0  0  0  0  0  0  0
    6.2443    2.0342   22.5515 H   0  0  0  0  0  0  0  0  0  0  0  0
    7.5776    2.8256   23.4504 H   0  0  0  0  0  0  0  0  0  0  0  0
    7.3950    1.3062   25.6087 N   0  0  0  0  0  0  0  0  0  0  0  0
    5.0597   -0.0252   23.9556 H   0  0  0  0  0  0  0  0  0  0  0  0
    8.2387   -0.9280   27.3816 H   0  0  0  0  0  0  0  0  0  0  0  0
    8.1538    0.7089   28.0215 H   0  0  0  0  0  0  0  0  0  0  0  0
    6.8455   -0.4669   28.3784 H   0  0  0  0  0  0  0  0  0  0  0  0
  1  2  1  0
  2  3  2  0
  3  4  1  0
  4  5  1  0
  5  6  1  0
  6  7  1  0
  7  8  2  0
  8  9  1  0
  9 10  1  0
 10 11  2  0
 11 12  1  0
 12 13  2  0
 13 14  1  0
 13 15  1  0
 15 16  2  0
 16 17  1  0
 15 18  1  0
 12 19  1  0
 11 20  1  0
  9 21  2  0
 21 22  1  0
 22 23  1  0
 23 24  1  0
 24 25  2  0
 25 26  1  0
 26 27  2  0
 27 28  1  0
 28 29  2  0
 29 30  1  0
 27 31  1  0
 26 32  1  0
 25 33  1  0
 23 34  1  0
 23 35  1  0
  6 36  1  0
  6 37  1  0
  5 38  2  0
  4 39  1  0
  1 40  1  0
  1 41  1  0
  1 42  1  0
 38  2  1  0
 22  7  1  0
 29 24  1  0
 16 10  1  0
M  END
>  <cnnaffinity>  (1) 
-6.42551

>  <filename>  (1) 
Cc1n[nH]c(Cc2nc(-c3ccc(Cl)cc3)nn2Cc2cccnc2)n1

$$$$
