
     RDKit          3D

 43 46  0  0  0  0  0  0  0  0999 V2000
    5.3994   -0.8941   26.4068 C   0  0  0  0  0  0  0  0  0  0  0  0
    6.3073    0.0403   25.6867 C   0  0  0  0  0  0  0  0  0  0  0  0
    6.1125    0.5582   24.4954 N   0  0  0  0  0  0  0  0  0  0  0  0
    7.2013    1.3533   24.2475 C   0  0  0  0  0  0  0  0  0  0  0  0
    7.4437    1.9376   22.8924 C   0  0  0  0  0  0  0  0  0  0  0  0
    8.4041    1.0160   22.2244 C   0  0  0  0  0  0  0  0  0  0  0  0
    9.7101    1.0972   22.3765 N   0  0  0  0  0  0  0  0  0  0  0  0
   10.1520   -0.0985   21.9146 C   0  0  0  0  0  0  0  0  0  0  0  0
   11.5614   -0.5238   21.8264 C   0  0  0  0  0  0  0  0  0  0  0  0
   12.6430    0.2445   22.3062 C   0  0  0  0  0  0  0  0  0  0  0  0
   13.9553   -0.1501   22.0177 C   0  0  0  0  0  0  0  0  0  0  0  0
   14.1770   -1.2819   21.2222 C   0  0  0  0  0  0  0  0  0  0  0  0
   13.1117   -2.0377   20.7568 C   0  0  0  0  0  0  0  0  0  0  0  0
   11.8161   -1.7093   21.1227 C   0  0  0  0  0  0  0  0  0  0  0  0
   10.9660   -2.3104   20.8225 H   0  0  0  0  0  0  0  0  0  0  0  0
   13.2994   -2.8491   20.0626 H   0  0  0  0  0  0  0  0  0  0  0  0
   15.1382   -1.6125   20.8763 H   0  0  0  0  0  0  0  0  0  0  0  0
   14.7916    0.4610   22.3471 H   0  0  0  0  0  0  0  0  0  0  0  0
   12.4695    1.1508   22.8798 H   0  0  0  0  0  0  0  0  0  0  0  0
    9.1773   -0.8943   21.4784 N   0  0  0  0  0  0  0  0  0  0  0  0
    8.0623   -0.1775   21.6985 N   0  0  0  0  0  0  0  0  0  0  0  0
    6.7616   -0.6649   21.2503 C   0  0  0  0  0  0  0  0  0  0  0  0
    6.2496    0.0642   20.0273 C   0  0  0  0  0  0  0  0  0  0  0  0
    5.0426    0.7702   20.0241 C   0  0  0  0  0  0  0  0  0  0  0  0
    4.6572    1.4349   18.8564 C   0  0  0  0  0  0  0  0  0  0  0  0
    5.4986    1.3733   17.7413 C   0  0  0  0  0  0  0  0  0  0  0  0
    6.6612    0.7041   17.7246 N   0  0  0  0  0  0  0  0  0  0  0  0
    7.0221    0.0794   18.8513 C   0  0  0  0  0  0  0  0  0  0  0  0
    7.9861   -0.4279   18.8308 H   0  0  0  0  0  0  0  0  0  0  0  0
    5.2392    1.8943   16.8224 H   0  0  0  0  0  0  0  0  0  0  0  0
    3.7404    2.0120   18.8057 H   0  0  0  0  0  0  0  0  0  0  0  0
    4.4274    0.8182   20.9278 H   0  0  0  0  0  0  0  0  0  0  0  0
    6.8894   -1.7364   21.0683 H   0  0  0  0  0  0  0  0  0  0  0  0
    6.0751   -0.5561   22.0947 H   0  0  0  0  0  0  0  0  0  0  0  0
    6.5019    2.0035   22.3481 H   0  0  0  0  0  0  0  0  0  0  0  0
    7.9084    2.9246   22.9418 H   0  0  0  0  0  0  0  0  0  0  0  0
    8.0830    1.2969   25.2872 C   0  0  0  0  0  0  0  0  0  0  0  0
    7.4933    0.4589   26.2095 N   0  0  0  0  0  0  0  0  0  0  0  0
    7.8763    0.1404   27.0831 H   0  0  0  0  0  0  0  0  0  0  0  0
    9.0806    1.7042   25.3617 H   0  0  0  0  0  0  0  0  0  0  0  0
    5.9663   -1.7310   26.8259 H   0  0  0  0  0  0  0  0  0  0  0  0
    4.8896   -0.3842   27.2308 H   0  0  0  0  0  0  0  0  0  0  0  0
    4.6511   -1.2837   25.7135 H   0  0  0  0  0  0  0  0  0  0  0  0
  1  2  1  0
  2  3  2  0
  3  4  1  0
  4  5  1  0
  5  6  1  0
  6  7  2  0
  7  8  1  0
  8  9  1  0
  9 10  2  0
 10 11  1  0
 11 12  2  0
 12 13  1  0
 13 14  2  0
 14 15  1  0
 13 16  1  0
 12 17  1  0
 11 18  1  0
 10 19  1  0
  8 20  2  0
 20 21  1  0
 21 22  1  0
 22 23  1  0
 23 24  2  0
 24 25  1  0
 25 26  2  0
 26 27  1  0
 27 28  2  0
 28 29  1  0
 26 30  1  0
 25 31  1  0
 24 32  1  0
 22 33  1  0
 22 34  1  0
  5 35  1  0
  5 36  1  0
  4 37  2  0
 37 38  1  0
 38 39  1  0
 37 40  1  0
  1 41  1  0
  1 42  1  0
  1 43  1  0
 38  2  1  0
 21  6  1  0
 28 23  1  0
 14  9  1  0
M  END
>  <cnnaffinity>  (1) 
-6.44817

>  <filename>  (1) 
Cc1nc(Cc2nc(-c3ccccc3)nn2Cc2cccnc2)c[nH]1

$$$$
