
     RDKit          3D

 42 45  0  0  0  0  0  0  0  0999 V2000
    9.0443    1.2635   25.3975 C   0  0  0  0  0  0  0  0  0  0  0  0
    7.5969    0.8826   25.3739 C   0  0  0  0  0  0  0  0  0  0  0  0
    7.0827    0.2336   26.3873 N   0  0  0  0  0  0  0  0  0  0  0  0
    5.7566    0.0203   26.0835 O   0  0  0  0  0  0  0  0  0  0  0  0
    5.5034    0.5473   24.8807 C   0  0  0  0  0  0  0  0  0  0  0  0
    6.6093    1.1120   24.3462 C   0  0  0  0  0  0  0  0  0  0  0  0
    6.8256    1.7440   22.9779 C   0  0  0  0  0  0  0  0  0  0  0  0
    7.9218    1.0530   22.2232 C   0  0  0  0  0  0  0  0  0  0  0  0
    9.1866    1.3911   22.3360 N   0  0  0  0  0  0  0  0  0  0  0  0
    9.8492    0.2628   21.9650 C   0  0  0  0  0  0  0  0  0  0  0  0
   11.2944    0.1889   22.2006 C   0  0  0  0  0  0  0  0  0  0  0  0
   12.0648   -0.8635   21.6796 C   0  0  0  0  0  0  0  0  0  0  0  0
   13.4393   -0.8408   21.8927 C   0  0  0  0  0  0  0  0  0  0  0  0
   14.3958   -2.0521   21.1063 Cl  0  0  0  0  0  0  0  0  0  0  0  0
   14.0487    0.1713   22.6354 C   0  0  0  0  0  0  0  0  0  0  0  0
   13.2678    1.1857   23.1968 C   0  0  0  0  0  0  0  0  0  0  0  0
   11.8969    1.2082   22.9646 C   0  0  0  0  0  0  0  0  0  0  0  0
   11.2808    2.0307   23.3324 H   0  0  0  0  0  0  0  0  0  0  0  0
   13.7438    1.9672   23.7832 H   0  0  0  0  0  0  0  0  0  0  0  0
   15.1210    0.1901   22.7352 H   0  0  0  0  0  0  0  0  0  0  0  0
   11.6254   -1.6481   21.0690 H   0  0  0  0  0  0  0  0  0  0  0  0
    9.0674   -0.7021   21.5102 N   0  0  0  0  0  0  0  0  0  0  0  0
    7.8255   -0.1791   21.6839 N   0  0  0  0  0  0  0  0  0  0  0  0
    6.6380   -0.8235   21.1353 C   0  0  0  0  0  0  0  0  0  0  0  0
    6.1246   -0.0677   19.9268 C   0  0  0  0  0  0  0  0  0  0  0  0
    4.9208    0.6404   19.8977 C   0  0  0  0  0  0  0  0  0  0  0  0
    4.6168    1.4029   18.7652 C   0  0  0  0  0  0  0  0  0  0  0  0
    5.5213    1.4174   17.7013 C   0  0  0  0  0  0  0  0  0  0  0  0
    6.6757    0.7353   17.7031 N   0  0  0  0  0  0  0  0  0  0  0  0
    6.9653    0.0347   18.8049 C   0  0  0  0  0  0  0  0  0  0  0  0
    7.9350   -0.4608   18.8223 H   0  0  0  0  0  0  0  0  0  0  0  0
    5.3138    2.0078   16.8108 H   0  0  0  0  0  0  0  0  0  0  0  0
    3.7165    2.0024   18.7073 H   0  0  0  0  0  0  0  0  0  0  0  0
    4.2373    0.6242   20.7485 H   0  0  0  0  0  0  0  0  0  0  0  0
    5.8850   -0.8719   21.9295 H   0  0  0  0  0  0  0  0  0  0  0  0
    6.9354   -1.8474   20.8839 H   0  0  0  0  0  0  0  0  0  0  0  0
    5.9138    1.7397   22.3735 H   0  0  0  0  0  0  0  0  0  0  0  0
    7.1459    2.7870   23.0801 H   0  0  0  0  0  0  0  0  0  0  0  0
    4.4862    0.4505   24.5278 H   0  0  0  0  0  0  0  0  0  0  0  0
    9.6423    0.4726   24.9332 H   0  0  0  0  0  0  0  0  0  0  0  0
    9.2203    2.1722   24.8193 H   0  0  0  0  0  0  0  0  0  0  0  0
    9.4009    1.3989   26.4196 H   0  0  0  0  0  0  0  0  0  0  0  0
  1  2  1  0
  2  3  2  0
  3  4  1  0
  4  5  1  0
  5  6  2  0
  6  7  1  0
  7  8  1  0
  8  9  2  0
  9 10  1  0
 10 11  1  0
 11 12  2  0
 12 13  1  0
 13 14  1  0
 13 15  2  0
 15 16  1  0
 16 17  2  0
 17 18  1  0
 16 19  1  0
 15 20  1  0
 12 21  1  0
 10 22  2  0
 22 23  1  0
 23 24  1  0
 24 25  1  0
 25 26  2  0
 26 27  1  0
 27 28  2  0
 28 29  1  0
 29 30  2  0
 30 31  1  0
 28 32  1  0
 27 33  1  0
 26 34  1  0
 24 35  1  0
 24 36  1  0
  7 37  1  0
  7 38  1  0
  5 39  1  0
  1 40  1  0
  1 41  1  0
  1 42  1  0
  6  2  1  0
 23  8  1  0
 30 25  1  0
 17 11  1  0
M  END
>  <cnnaffinity>  (1) 
-6.47028

>  <filename>  (1) 
Cc1nocc1Cc1nc(-c2cccc(Cl)c2)nn1Cc1cccnc1

$$$$
