
     RDKit          3D

 43 46  0  0  0  0  0  0  0  0999 V2000
    3.1942    2.3511   24.8613 C   0  0  0  0  0  0  0  0  0  0  0  0
    4.5012    1.7069   24.5759 C   0  0  0  0  0  0  0  0  0  0  0  0
    5.2746    1.9659   23.5511 N   0  0  0  0  0  0  0  0  0  0  0  0
    6.4120    1.2332   23.7428 C   0  0  0  0  0  0  0  0  0  0  0  0
    7.5053    1.2846   22.7232 C   0  0  0  0  0  0  0  0  0  0  0  0
    7.6859   -0.0772   22.1512 C   0  0  0  0  0  0  0  0  0  0  0  0
    8.2178   -1.0484   22.8652 N   0  0  0  0  0  0  0  0  0  0  0  0
    8.1794   -2.1146   22.0265 C   0  0  0  0  0  0  0  0  0  0  0  0
    8.6798   -3.4828   22.4162 C   0  0  0  0  0  0  0  0  0  0  0  0
    8.7024   -3.8129   23.9234 C   0  0  0  0  0  0  0  0  0  0  0  0
    8.6088   -5.3542   24.0423 C   0  0  0  0  0  0  0  0  0  0  0  0
    8.2603   -5.8894   22.6386 C   0  0  0  0  0  0  0  0  0  0  0  0
    7.8658   -4.6543   21.8241 C   0  0  0  0  0  0  0  0  0  0  0  0
    6.7972   -4.4402   21.9564 H   0  0  0  0  0  0  0  0  0  0  0  0
    8.0298   -4.7879   20.7547 H   0  0  0  0  0  0  0  0  0  0  0  0
    7.4557   -6.6367   22.6527 H   0  0  0  0  0  0  0  0  0  0  0  0
    9.1374   -6.3761   22.1977 H   0  0  0  0  0  0  0  0  0  0  0  0
    9.5355   -5.8073   24.4094 H   0  0  0  0  0  0  0  0  0  0  0  0
    7.8437   -5.6191   24.7776 H   0  0  0  0  0  0  0  0  0  0  0  0
    9.5954   -3.4209   24.4183 H   0  0  0  0  0  0  0  0  0  0  0  0
    7.8303   -3.3532   24.3970 H   0  0  0  0  0  0  0  0  0  0  0  0
    9.7147   -3.4722   22.0643 H   0  0  0  0  0  0  0  0  0  0  0  0
    7.7032   -1.8460   20.8197 N   0  0  0  0  0  0  0  0  0  0  0  0
    7.3349   -0.5379   20.9191 N   0  0  0  0  0  0  0  0  0  0  0  0
    6.6145    0.0870   19.8607 C   0  0  0  0  0  0  0  0  0  0  0  0
    5.4155    0.7758   20.0889 C   0  0  0  0  0  0  0  0  0  0  0  0
    4.7896    1.3795   18.9914 C   0  0  0  0  0  0  0  0  0  0  0  0
    5.3980    1.3086   17.7355 C   0  0  0  0  0  0  0  0  0  0  0  0
    6.5236    0.6089   17.5050 N   0  0  0  0  0  0  0  0  0  0  0  0
    7.0968   -0.0081   18.5437 C   0  0  0  0  0  0  0  0  0  0  0  0
    7.9865   -0.5953   18.3320 H   0  0  0  0  0  0  0  0  0  0  0  0
    4.9659    1.8283   16.8819 H   0  0  0  0  0  0  0  0  0  0  0  0
    3.8470    1.9038   19.1024 H   0  0  0  0  0  0  0  0  0  0  0  0
    4.9884    0.8402   21.0909 H   0  0  0  0  0  0  0  0  0  0  0  0
    8.4528    1.5806   23.1872 H   0  0  0  0  0  0  0  0  0  0  0  0
    7.2490    2.0364   21.9738 H   0  0  0  0  0  0  0  0  0  0  0  0
    6.3120    0.4788   24.8749 C   0  0  0  0  0  0  0  0  0  0  0  0
    5.0737    0.7920   25.4048 N   0  0  0  0  0  0  0  0  0  0  0  0
    4.6854    0.4797   26.2766 H   0  0  0  0  0  0  0  0  0  0  0  0
    6.9709   -0.2806   25.2640 H   0  0  0  0  0  0  0  0  0  0  0  0
    2.3518    1.6978   24.6199 H   0  0  0  0  0  0  0  0  0  0  0  0
    3.1233    3.2555   24.2555 H   0  0  0  0  0  0  0  0  0  0  0  0
    3.1320    2.6194   25.9192 H   0  0  0  0  0  0  0  0  0  0  0  0
  1  2  1  0
  2  3  2  0
  3  4  1  0
  4  5  1  0
  5  6  1  0
  6  7  2  0
  7  8  1  0
  8  9  1  0
  9 10  1  0
 10 11  1  0
 11 12  1  0
 12 13  1  0
 13 14  1  0
 13 15  1  0
 12 16  1  0
 12 17  1  0
 11 18  1  0
 11 19  1  0
 10 20  1  0
 10 21  1  0
  9 22  1  0
  8 23  2  0
 23 24  1  0
 24 25  1  0
 25 26  2  0
 26 27  1  0
 27 28  2  0
 28 29  1  0
 29 30  2  0
 30 31  1  0
 28 32  1  0
 27 33  1  0
 26 34  1  0
  5 35  1  0
  5 36  1  0
  4 37  2  0
 37 38  1  0
 38 39  1  0
 37 40  1  0
  1 41  1  0
  1 42  1  0
  1 43  1  0
 38  2  1  0
 24  6  1  0
 30 25  1  0
 13  9  1  0
M  END
>  <cnnaffinity>  (1) 
-5.89958

>  <filename>  (1) 
Cc1nc(Cc2nc(C3CCCC3)nn2-c2cccnc2)c[nH]1

$$$$
