
     RDKit          3D

 49 52  0  0  0  0  0  0  0  0999 V2000
    6.8586    1.7448   23.7885 C   0  0  0  0  0  0  0  0  0  0  0  0
    8.3190    1.6981   24.0937 C   0  0  0  0  0  0  0  0  0  0  0  0
    8.8262    1.5270   25.2924 N   0  0  0  0  0  0  0  0  0  0  0  0
   10.1891    1.5390   25.1283 C   0  0  0  0  0  0  0  0  0  0  0  0
   10.5105    1.7223   23.8146 C   0  0  0  0  0  0  0  0  0  0  0  0
    9.3035    1.8546   23.1468 N   0  0  0  0  0  0  0  0  0  0  0  0
    9.1632    1.9397   21.6972 C   0  0  0  0  0  0  0  0  0  0  0  0
    9.5136    0.6159   20.9850 C   0  0  0  0  0  0  0  0  0  0  0  0
    8.6260   -0.5016   21.4119 C   0  0  0  0  0  0  0  0  0  0  0  0
    8.8458   -1.3207   22.4224 N   0  0  0  0  0  0  0  0  0  0  0  0
    7.6535   -1.9473   22.5746 C   0  0  0  0  0  0  0  0  0  0  0  0
    7.3942   -2.8709   23.7334 C   0  0  0  0  0  0  0  0  0  0  0  0
    6.7570   -2.0619   24.9123 C   0  0  0  0  0  0  0  0  0  0  0  0
    5.9634   -2.9744   25.8521 C   0  0  0  0  0  0  0  0  0  0  0  0
    4.8165   -3.6758   25.1087 C   0  0  0  0  0  0  0  0  0  0  0  0
    4.5679   -4.8804   25.7190 F   0  0  0  0  0  0  0  0  0  0  0  0
    3.6626   -2.9508   25.2553 F   0  0  0  0  0  0  0  0  0  0  0  0
    5.0637   -3.9165   23.6145 C   0  0  0  0  0  0  0  0  0  0  0  0
    6.5559   -4.1186   23.3208 C   0  0  0  0  0  0  0  0  0  0  0  0
    6.9131   -5.0002   23.8672 H   0  0  0  0  0  0  0  0  0  0  0  0
    6.7004   -4.3402   22.2590 H   0  0  0  0  0  0  0  0  0  0  0  0
    4.7048   -3.0459   23.0609 H   0  0  0  0  0  0  0  0  0  0  0  0
    4.4602   -4.7693   23.2918 H   0  0  0  0  0  0  0  0  0  0  0  0
    5.5511   -2.4295   26.7062 H   0  0  0  0  0  0  0  0  0  0  0  0
    6.6157   -3.7537   26.2598 H   0  0  0  0  0  0  0  0  0  0  0  0
    6.0765   -1.2914   24.5181 H   0  0  0  0  0  0  0  0  0  0  0  0
    7.5385   -1.5223   25.4559 H   0  0  0  0  0  0  0  0  0  0  0  0
    8.3822   -3.2087   24.0526 H   0  0  0  0  0  0  0  0  0  0  0  0
    6.7226   -1.5927   21.7068 N   0  0  0  0  0  0  0  0  0  0  0  0
    7.3593   -0.6778   20.9305 N   0  0  0  0  0  0  0  0  0  0  0  0
    6.6536    0.0015   19.8987 C   0  0  0  0  0  0  0  0  0  0  0  0
    5.4373    0.6405   20.1645 C   0  0  0  0  0  0  0  0  0  0  0  0
    4.8121    1.3108   19.1080 C   0  0  0  0  0  0  0  0  0  0  0  0
    5.3998    1.2976   17.8362 C   0  0  0  0  0  0  0  0  0  0  0  0
    6.5566    0.6709   17.5737 N   0  0  0  0  0  0  0  0  0  0  0  0
    7.1636    0.0483   18.5886 C   0  0  0  0  0  0  0  0  0  0  0  0
    8.1105   -0.4354   18.3644 H   0  0  0  0  0  0  0  0  0  0  0  0
    4.9206    1.7883   16.9914 H   0  0  0  0  0  0  0  0  0  0  0  0
    3.8798    1.8397   19.2617 H   0  0  0  0  0  0  0  0  0  0  0  0
    5.0051    0.6085   21.1694 H   0  0  0  0  0  0  0  0  0  0  0  0
    9.4613    0.7514   19.9033 H   0  0  0  0  0  0  0  0  0  0  0  0
   10.5381    0.3274   21.2248 H   0  0  0  0  0  0  0  0  0  0  0  0
    8.1415    2.2403   21.4467 H   0  0  0  0  0  0  0  0  0  0  0  0
    9.8158    2.7427   21.3453 H   0  0  0  0  0  0  0  0  0  0  0  0
   11.4571    1.7464   23.2913 H   0  0  0  0  0  0  0  0  0  0  0  0
   10.8563    1.4261   25.9738 H   0  0  0  0  0  0  0  0  0  0  0  0
    6.5711    0.9383   23.1034 H   0  0  0  0  0  0  0  0  0  0  0  0
    6.5798    2.7012   23.3330 H   0  0  0  0  0  0  0  0  0  0  0  0
    6.3015    1.6418   24.7226 H   0  0  0  0  0  0  0  0  0  0  0  0
  1  2  1  0
  2  3  2  0
  3  4  1  0
  4  5  2  0
  5  6  1  0
  6  7  1  0
  7  8  1  0
  8  9  1  0
  9 10  2  0
 10 11  1  0
 11 12  1  0
 12 13  1  0
 13 14  1  0
 14 15  1  0
 15 16  1  0
 15 17  1  0
 15 18  1  0
 18 19  1  0
 19 20  1  0
 19 21  1  0
 18 22  1  0
 18 23  1  0
 14 24  1  0
 14 25  1  0
 13 26  1  0
 13 27  1  0
 12 28  1  0
 11 29  2  0
 29 30  1  0
 30 31  1  0
 31 32  2  0
 32 33  1  0
 33 34  2  0
 34 35  1  0
 35 36  2  0
 36 37  1  0
 34 38  1  0
 33 39  1  0
 32 40  1  0
  8 41  1  0
  8 42  1  0
  7 43  1  0
  7 44  1  0
  5 45  1  0
  4 46  1  0
  1 47  1  0
  1 48  1  0
  1 49  1  0
  6  2  1  0
 30  9  1  0
 36 31  1  0
 19 12  1  0
M  END
>  <cnnaffinity>  (1) 
-6.61536

>  <filename>  (1) 
Cc1nccn1CCc1nc(C2CCC(F)(F)CC2)nn1-c1cccnc1

$$$$
