
     RDKit          3D

 54 57  0  0  0  0  0  0  0  0999 V2000
   11.5845    2.7043   23.0831 C   0  0  0  0  0  0  0  0  0  0  0  0
   10.3013    2.3119   23.7552 C   0  0  0  0  0  0  0  0  0  0  0  0
    9.1512    2.0562   23.0404 C   0  0  0  0  0  0  0  0  0  0  0  0
    9.1030    2.0065   21.5395 C   0  0  0  0  0  0  0  0  0  0  0  0
    9.5208    0.6234   20.9704 C   0  0  0  0  0  0  0  0  0  0  0  0
    8.6276   -0.4849   21.4167 C   0  0  0  0  0  0  0  0  0  0  0  0
    8.8625   -1.3243   22.4073 N   0  0  0  0  0  0  0  0  0  0  0  0
    7.6713   -1.9570   22.5613 C   0  0  0  0  0  0  0  0  0  0  0  0
    7.4012   -2.8829   23.7129 C   0  0  0  0  0  0  0  0  0  0  0  0
    6.6937   -2.1278   24.8726 C   0  0  0  0  0  0  0  0  0  0  0  0
    6.3848   -3.0665   26.0435 C   0  0  0  0  0  0  0  0  0  0  0  0
    5.5774   -4.3017   25.6023 C   0  0  0  0  0  0  0  0  0  0  0  0
    5.2952   -5.2356   26.7809 C   0  0  0  0  0  0  0  0  0  0  0  0
    4.6948   -6.0991   26.4706 H   0  0  0  0  0  0  0  0  0  0  0  0
    4.7575   -4.7150   27.5821 H   0  0  0  0  0  0  0  0  0  0  0  0
    6.2356   -5.6166   27.2017 H   0  0  0  0  0  0  0  0  0  0  0  0
    6.2945   -5.0430   24.4589 C   0  0  0  0  0  0  0  0  0  0  0  0
    6.5943   -4.1226   23.2734 C   0  0  0  0  0  0  0  0  0  0  0  0
    5.6547   -3.7799   22.8143 H   0  0  0  0  0  0  0  0  0  0  0  0
    7.1440   -4.6684   22.4971 H   0  0  0  0  0  0  0  0  0  0  0  0
    5.6852   -5.8930   24.1238 H   0  0  0  0  0  0  0  0  0  0  0  0
    7.2364   -5.4687   24.8434 H   0  0  0  0  0  0  0  0  0  0  0  0
    4.6134   -3.9387   25.2048 H   0  0  0  0  0  0  0  0  0  0  0  0
    5.8351   -2.5235   26.8245 H   0  0  0  0  0  0  0  0  0  0  0  0
    7.3270   -3.4025   26.5064 H   0  0  0  0  0  0  0  0  0  0  0  0
    7.3134   -1.2861   25.2071 H   0  0  0  0  0  0  0  0  0  0  0  0
    5.7569   -1.6925   24.4912 H   0  0  0  0  0  0  0  0  0  0  0  0
    8.3884   -3.2012   24.0717 H   0  0  0  0  0  0  0  0  0  0  0  0
    6.7402   -1.5982   21.6962 N   0  0  0  0  0  0  0  0  0  0  0  0
    7.3638   -0.6625   20.9404 N   0  0  0  0  0  0  0  0  0  0  0  0
    6.6578    0.0050   19.9017 C   0  0  0  0  0  0  0  0  0  0  0  0
    5.4430    0.6431   20.1696 C   0  0  0  0  0  0  0  0  0  0  0  0
    4.8118    1.3075   19.1116 C   0  0  0  0  0  0  0  0  0  0  0  0
    5.3981    1.2933   17.8415 C   0  0  0  0  0  0  0  0  0  0  0  0
    6.5570    0.6705   17.5796 N   0  0  0  0  0  0  0  0  0  0  0  0
    7.1672    0.0475   18.5927 C   0  0  0  0  0  0  0  0  0  0  0  0
    8.1147   -0.4390   18.3643 H   0  0  0  0  0  0  0  0  0  0  0  0
    4.9221    1.7867   16.9973 H   0  0  0  0  0  0  0  0  0  0  0  0
    3.8811    1.8384   19.2605 H   0  0  0  0  0  0  0  0  0  0  0  0
    5.0322    0.6234   21.1818 H   0  0  0  0  0  0  0  0  0  0  0  0
    9.5301    0.6646   19.8804 H   0  0  0  0  0  0  0  0  0  0  0  0
   10.5341    0.3670   21.2927 H   0  0  0  0  0  0  0  0  0  0  0  0
    8.0822    2.2315   21.2108 H   0  0  0  0  0  0  0  0  0  0  0  0
    9.7527    2.7758   21.1002 H   0  0  0  0  0  0  0  0  0  0  0  0
    7.9568    1.6907   23.7807 C   0  0  0  0  0  0  0  0  0  0  0  0
    6.8483    1.4055   23.3514 O   0  0  0  0  0  0  0  0  0  0  0  0
    8.0979    1.6553   25.1597 N   0  0  0  0  0  0  0  0  0  0  0  0
    9.2620    1.9355   25.7695 C   0  0  0  0  0  0  0  0  0  0  0  0
   10.3386    2.2413   25.1306 N   0  0  0  0  0  0  0  0  0  0  0  0
    9.2425    1.9089   26.8568 H   0  0  0  0  0  0  0  0  0  0  0  0
    7.2343    1.4263   25.6137 H   0  0  0  0  0  0  0  0  0  0  0  0
   11.8916    1.9511   22.3494 H   0  0  0  0  0  0  0  0  0  0  0  0
   11.4534    3.6425   22.5332 H   0  0  0  0  0  0  0  0  0  0  0  0
   12.3872    2.8297   23.8128 H   0  0  0  0  0  0  0  0  0  0  0  0
  1  2  1  0
  2  3  2  0
  3  4  1  0
  4  5  1  0
  5  6  1  0
  6  7  2  0
  7  8  1  0
  8  9  1  0
  9 10  1  0
 10 11  1  0
 11 12  1  0
 12 13  1  0
 13 14  1  0
 13 15  1  0
 13 16  1  0
 12 17  1  0
 17 18  1  0
 18 19  1  0
 18 20  1  0
 17 21  1  0
 17 22  1  0
 12 23  1  0
 11 24  1  0
 11 25  1  0
 10 26  1  0
 10 27  1  0
  9 28  1  0
  8 29  2  0
 29 30  1  0
 30 31  1  0
 31 32  2  0
 32 33  1  0
 33 34  2  0
 34 35  1  0
 35 36  2  0
 36 37  1  0
 34 38  1  0
 33 39  1  0
 32 40  1  0
  5 41  1  0
  5 42  1  0
  4 43  1  0
  4 44  1  0
  3 45  1  0
 45 46  2  0
 45 47  1  0
 47 48  1  0
 48 49  2  0
 48 50  1  0
 47 51  1  0
  1 52  1  0
  1 53  1  0
  1 54  1  0
 49  2  1  0
 30  6  1  0
 36 31  1  0
 18  9  1  0
M  END
>  <cnnaffinity>  (1) 
-6.47131

>  <filename>  (1) 
Cc1nc[nH]c(=O)c1CCc1nc(C2CCC(C)CC2)nn1-c1cccnc1

$$$$
