
     RDKit          3D

 45 48  0  0  0  0  0  0  0  0999 V2000
   11.4112    3.0928   24.0315 C   0  0  0  0  0  0  0  0  0  0  0  0
   11.4589    1.9673   23.0652 C   0  0  0  0  0  0  0  0  0  0  0  0
   10.4957    1.7130   22.2413 N   0  0  0  0  0  0  0  0  0  0  0  0
   10.7279    0.5432   21.5555 C   0  0  0  0  0  0  0  0  0  0  0  0
    9.6362    0.1298   20.6391 C   0  0  0  0  0  0  0  0  0  0  0  0
    8.5799   -0.6258   21.3605 C   0  0  0  0  0  0  0  0  0  0  0  0
    8.7871   -1.4319   22.3746 N   0  0  0  0  0  0  0  0  0  0  0  0
    7.5632   -1.9961   22.5775 C   0  0  0  0  0  0  0  0  0  0  0  0
    7.3609   -2.9975   23.6702 C   0  0  0  0  0  0  0  0  0  0  0  0
    8.2535   -4.2545   23.5540 C   0  0  0  0  0  0  0  0  0  0  0  0
    8.3434   -4.8297   24.9793 C   0  0  0  0  0  0  0  0  0  0  0  0
    8.0229   -3.6611   25.9426 C   0  0  0  0  0  0  0  0  0  0  0  0
    7.7382   -2.4375   25.0580 C   0  0  0  0  0  0  0  0  0  0  0  0
    6.9559   -1.7820   25.4548 H   0  0  0  0  0  0  0  0  0  0  0  0
    8.6492   -1.8368   24.9559 H   0  0  0  0  0  0  0  0  0  0  0  0
    7.1488   -3.9048   26.5544 H   0  0  0  0  0  0  0  0  0  0  0  0
    8.8471   -3.4606   26.6362 H   0  0  0  0  0  0  0  0  0  0  0  0
    9.3330   -5.2599   25.1708 H   0  0  0  0  0  0  0  0  0  0  0  0
    7.6190   -5.6387   25.1196 H   0  0  0  0  0  0  0  0  0  0  0  0
    7.8668   -4.9739   22.8234 H   0  0  0  0  0  0  0  0  0  0  0  0
    9.2525   -3.9496   23.2215 H   0  0  0  0  0  0  0  0  0  0  0  0
    6.3029   -3.2794   23.6419 H   0  0  0  0  0  0  0  0  0  0  0  0
    6.6255   -1.5878   21.7484 N   0  0  0  0  0  0  0  0  0  0  0  0
    7.2825   -0.7075   20.9479 N   0  0  0  0  0  0  0  0  0  0  0  0
    6.6129   -0.0249   19.8901 C   0  0  0  0  0  0  0  0  0  0  0  0
    5.4038    0.6336   20.1362 C   0  0  0  0  0  0  0  0  0  0  0  0
    4.7948    1.3179   19.0821 C   0  0  0  0  0  0  0  0  0  0  0  0
    5.4043    1.3068   17.8232 C   0  0  0  0  0  0  0  0  0  0  0  0
    6.5502    0.6563   17.5706 N   0  0  0  0  0  0  0  0  0  0  0  0
    7.1374    0.0116   18.5844 C   0  0  0  0  0  0  0  0  0  0  0  0
    8.0786   -0.4881   18.3450 H   0  0  0  0  0  0  0  0  0  0  0  0
    4.9564    1.8388   16.9873 H   0  0  0  0  0  0  0  0  0  0  0  0
    3.8674    1.8599   19.2301 H   0  0  0  0  0  0  0  0  0  0  0  0
    4.9759    0.5988   21.1378 H   0  0  0  0  0  0  0  0  0  0  0  0
    9.9927   -0.5003   19.8167 H   0  0  0  0  0  0  0  0  0  0  0  0
    9.2102    1.0443   20.2277 H   0  0  0  0  0  0  0  0  0  0  0  0
   11.8736   -0.1164   21.8735 C   0  0  0  0  0  0  0  0  0  0  0  0
   12.3395   -1.4336   21.3333 C   0  0  0  0  0  0  0  0  0  0  0  0
   11.5366   -2.1645   21.4752 H   0  0  0  0  0  0  0  0  0  0  0  0
   13.2447   -1.8223   21.7983 H   0  0  0  0  0  0  0  0  0  0  0  0
   12.5361   -1.3603   20.2598 H   0  0  0  0  0  0  0  0  0  0  0  0
   12.7578    0.8100   23.0391 S   0  0  0  0  0  0  0  0  0  0  0  0
   12.3708    3.5949   24.1535 H   0  0  0  0  0  0  0  0  0  0  0  0
   10.6439    3.8070   23.7180 H   0  0  0  0  0  0  0  0  0  0  0  0
   11.1223    2.6784   24.9973 H   0  0  0  0  0  0  0  0  0  0  0  0
  1  2  1  0
  2  3  2  0
  3  4  1  0
  4  5  1  0
  5  6  1  0
  6  7  2  0
  7  8  1  0
  8  9  1  0
  9 10  1  0
 10 11  1  0
 11 12  1  0
 12 13  1  0
 13 14  1  0
 13 15  1  0
 12 16  1  0
 12 17  1  0
 11 18  1  0
 11 19  1  0
 10 20  1  0
 10 21  1  0
  9 22  1  0
  8 23  2  0
 23 24  1  0
 24 25  1  0
 25 26  2  0
 26 27  1  0
 27 28  2  0
 28 29  1  0
 29 30  2  0
 30 31  1  0
 28 32  1  0
 27 33  1  0
 26 34  1  0
  5 35  1  0
  5 36  1  0
  4 37  2  0
 37 38  1  0
 38 39  1  0
 38 40  1  0
 38 41  1  0
 37 42  1  0
  1 43  1  0
  1 44  1  0
  1 45  1  0
 42  2  1  0
 24  6  1  0
 30 25  1  0
 13  9  1  0
M  END
>  <cnnaffinity>  (1) 
-6.81113

>  <filename>  (1) 
Cc1nc(Cc2nc(C3CCCC3)nn2-c2cccnc2)c(C)s1

$$$$
