
     RDKit          3D

 43 46  0  0  0  0  0  0  0  0999 V2000
    8.2963   -0.0281   27.4528 C   0  0  0  0  0  0  0  0  0  0  0  0
    7.5773    0.4490   26.2382 C   0  0  0  0  0  0  0  0  0  0  0  0
    8.0796    1.2694   25.3557 N   0  0  0  0  0  0  0  0  0  0  0  0
    7.1674    1.3591   24.3343 C   0  0  0  0  0  0  0  0  0  0  0  0
    7.5652    2.0194   23.0506 C   0  0  0  0  0  0  0  0  0  0  0  0
    8.5254    1.1122   22.3516 C   0  0  0  0  0  0  0  0  0  0  0  0
    9.8359    1.1741   22.4583 N   0  0  0  0  0  0  0  0  0  0  0  0
   10.2491   -0.0197   21.9773 C   0  0  0  0  0  0  0  0  0  0  0  0
   11.6445   -0.4854   21.8868 C   0  0  0  0  0  0  0  0  0  0  0  0
   11.8613   -1.6622   21.1432 C   0  0  0  0  0  0  0  0  0  0  0  0
   13.1336   -2.0111   20.7228 C   0  0  0  0  0  0  0  0  0  0  0  0
   14.2286   -1.2823   21.1605 C   0  0  0  0  0  0  0  0  0  0  0  0
   14.0632   -0.2044   22.0281 C   0  0  0  0  0  0  0  0  0  0  0  0
   12.7730    0.1889   22.4049 C   0  0  0  0  0  0  0  0  0  0  0  0
   12.6474    1.4957   23.5425 Cl  0  0  0  0  0  0  0  0  0  0  0  0
   14.9121    0.3797   22.3653 H   0  0  0  0  0  0  0  0  0  0  0  0
   15.1836   -1.5776   20.7652 H   0  0  0  0  0  0  0  0  0  0  0  0
   13.3015   -2.8196   20.0201 H   0  0  0  0  0  0  0  0  0  0  0  0
   10.9915   -2.2589   20.8807 H   0  0  0  0  0  0  0  0  0  0  0  0
    9.2582   -0.7772   21.5162 N   0  0  0  0  0  0  0  0  0  0  0  0
    8.1546   -0.0497   21.7659 N   0  0  0  0  0  0  0  0  0  0  0  0
    6.8553   -0.5358   21.3110 C   0  0  0  0  0  0  0  0  0  0  0  0
    6.3287    0.1807   20.0857 C   0  0  0  0  0  0  0  0  0  0  0  0
    5.1063    0.8591   20.0674 C   0  0  0  0  0  0  0  0  0  0  0  0
    4.6976    1.4817   18.8842 C   0  0  0  0  0  0  0  0  0  0  0  0
    5.5271    1.4005   17.7629 C   0  0  0  0  0  0  0  0  0  0  0  0
    6.6992    0.7475   17.7558 N   0  0  0  0  0  0  0  0  0  0  0  0
    7.0856    0.1707   18.8994 C   0  0  0  0  0  0  0  0  0  0  0  0
    8.0525   -0.3311   18.8787 H   0  0  0  0  0  0  0  0  0  0  0  0
    5.2394    1.8738   16.8256 H   0  0  0  0  0  0  0  0  0  0  0  0
    3.7654    2.0314   18.8193 H   0  0  0  0  0  0  0  0  0  0  0  0
    4.4830    0.9070   20.9629 H   0  0  0  0  0  0  0  0  0  0  0  0
    6.1483   -0.4716   22.1412 H   0  0  0  0  0  0  0  0  0  0  0  0
    7.0053   -1.5997   21.1060 H   0  0  0  0  0  0  0  0  0  0  0  0
    8.1015    2.9426   23.2687 H   0  0  0  0  0  0  0  0  0  0  0  0
    6.6970    2.2372   22.4224 H   0  0  0  0  0  0  0  0  0  0  0  0
    6.0629    0.6144   24.6316 C   0  0  0  0  0  0  0  0  0  0  0  0
    6.3370    0.0304   25.8586 N   0  0  0  0  0  0  0  0  0  0  0  0
    5.8060   -0.6779   26.3341 H   0  0  0  0  0  0  0  0  0  0  0  0
    5.1287    0.4899   24.1063 H   0  0  0  0  0  0  0  0  0  0  0  0
    8.0725    0.6014   28.3184 H   0  0  0  0  0  0  0  0  0  0  0  0
    9.3707    0.0307   27.2603 H   0  0  0  0  0  0  0  0  0  0  0  0
    8.0394   -1.0639   27.6923 H   0  0  0  0  0  0  0  0  0  0  0  0
  1  2  1  0
  2  3  2  0
  3  4  1  0
  4  5  1  0
  5  6  1  0
  6  7  2  0
  7  8  1  0
  8  9  1  0
  9 10  2  0
 10 11  1  0
 11 12  2  0
 12 13  1  0
 13 14  2  0
 14 15  1  0
 13 16  1  0
 12 17  1  0
 11 18  1  0
 10 19  1  0
  8 20  2  0
 20 21  1  0
 21 22  1  0
 22 23  1  0
 23 24  2  0
 24 25  1  0
 25 26  2  0
 26 27  1  0
 27 28  2  0
 28 29  1  0
 26 30  1  0
 25 31  1  0
 24 32  1  0
 22 33  1  0
 22 34  1  0
  5 35  1  0
  5 36  1  0
  4 37  2  0
 37 38  1  0
 38 39  1  0
 37 40  1  0
  1 41  1  0
  1 42  1  0
  1 43  1  0
 38  2  1  0
 21  6  1  0
 28 23  1  0
 14  9  1  0
M  END
>  <cnnaffinity>  (1) 
-6.74189

>  <filename>  (1) 
Cc1nc(Cc2nc(-c3ccccc3Cl)nn2Cc2cccnc2)c[nH]1

$$$$
