
     RDKit          3D

 46 49  0  0  0  0  0  0  0  0999 V2000
    5.1716    0.4599   24.8567 C   0  0  0  0  0  0  0  0  0  0  0  0
    6.4049   -0.3745   24.7773 C   0  0  0  0  0  0  0  0  0  0  0  0
    6.4548   -1.6782   24.8832 N   0  0  0  0  0  0  0  0  0  0  0  0
    7.7864   -2.0126   24.7727 C   0  0  0  0  0  0  0  0  0  0  0  0
    8.5359   -0.8846   24.6010 C   0  0  0  0  0  0  0  0  0  0  0  0
    7.6461    0.1779   24.6045 N   0  0  0  0  0  0  0  0  0  0  0  0
    7.9586    1.5657   24.2678 C   0  0  0  0  0  0  0  0  0  0  0  0
    7.8789    1.8544   22.7473 C   0  0  0  0  0  0  0  0  0  0  0  0
    8.8466    0.9503   22.0358 C   0  0  0  0  0  0  0  0  0  0  0  0
   10.1550    1.0201   22.2352 N   0  0  0  0  0  0  0  0  0  0  0  0
   10.6294   -0.1278   21.6895 C   0  0  0  0  0  0  0  0  0  0  0  0
   12.0752   -0.4845   21.6629 C   0  0  0  0  0  0  0  0  0  0  0  0
   13.0907    0.3341   22.2136 C   0  0  0  0  0  0  0  0  0  0  0  0
   14.3919    0.2003   21.7396 C   0  0  0  0  0  0  0  0  0  0  0  0
   14.6538   -0.7256   20.6986 C   0  0  0  0  0  0  0  0  0  0  0  0
   16.0873   -0.2565   19.6264 Cl  0  0  0  0  0  0  0  0  0  0  0  0
   13.7782   -1.7571   20.4224 C   0  0  0  0  0  0  0  0  0  0  0  0
   12.4775   -1.6094   20.9226 C   0  0  0  0  0  0  0  0  0  0  0  0
   11.7045   -2.3248   20.7144 H   0  0  0  0  0  0  0  0  0  0  0  0
   14.0920   -2.6106   19.8305 H   0  0  0  0  0  0  0  0  0  0  0  0
   15.1714    0.9024   22.0406 H   0  0  0  0  0  0  0  0  0  0  0  0
   12.8672    1.1179   22.9353 H   0  0  0  0  0  0  0  0  0  0  0  0
    9.6822   -0.8813   21.1413 N   0  0  0  0  0  0  0  0  0  0  0  0
    8.5484   -0.1853   21.3725 N   0  0  0  0  0  0  0  0  0  0  0  0
    7.2554   -0.7410   20.9963 C   0  0  0  0  0  0  0  0  0  0  0  0
    6.5556    0.0189   19.8935 C   0  0  0  0  0  0  0  0  0  0  0  0
    5.3379    0.6758   20.0911 C   0  0  0  0  0  0  0  0  0  0  0  0
    4.7472    1.3459   19.0179 C   0  0  0  0  0  0  0  0  0  0  0  0
    5.3995    1.3354   17.7825 C   0  0  0  0  0  0  0  0  0  0  0  0
    6.5685    0.7103   17.5702 N   0  0  0  0  0  0  0  0  0  0  0  0
    7.1245    0.0758   18.6092 C   0  0  0  0  0  0  0  0  0  0  0  0
    8.0673   -0.4332   18.4053 H   0  0  0  0  0  0  0  0  0  0  0  0
    4.9616    1.8427   16.9241 H   0  0  0  0  0  0  0  0  0  0  0  0
    3.8077    1.8739   19.1278 H   0  0  0  0  0  0  0  0  0  0  0  0
    4.8559    0.6588   21.0711 H   0  0  0  0  0  0  0  0  0  0  0  0
    6.6192   -0.8000   21.8880 H   0  0  0  0  0  0  0  0  0  0  0  0
    7.4831   -1.7650   20.6843 H   0  0  0  0  0  0  0  0  0  0  0  0
    8.1816    2.8907   22.5570 H   0  0  0  0  0  0  0  0  0  0  0  0
    6.8535    1.7568   22.3718 H   0  0  0  0  0  0  0  0  0  0  0  0
    8.9870    1.7530   24.5953 H   0  0  0  0  0  0  0  0  0  0  0  0
    7.3072    2.2266   24.8494 H   0  0  0  0  0  0  0  0  0  0  0  0
    9.5949   -0.7350   24.4596 H   0  0  0  0  0  0  0  0  0  0  0  0
    8.1051   -3.0480   24.8269 H   0  0  0  0  0  0  0  0  0  0  0  0
    4.9992    0.9810   23.9086 H   0  0  0  0  0  0  0  0  0  0  0  0
    4.3191   -0.1843   25.0714 H   0  0  0  0  0  0  0  0  0  0  0  0
    5.2620    1.2150   25.6440 H   0  0  0  0  0  0  0  0  0  0  0  0
  1  2  1  0
  2  3  2  0
  3  4  1  0
  4  5  2  0
  5  6  1  0
  6  7  1  0
  7  8  1  0
  8  9  1  0
  9 10  2  0
 10 11  1  0
 11 12  1  0
 12 13  2  0
 13 14  1  0
 14 15  2  0
 15 16  1  0
 15 17  1  0
 17 18  2  0
 18 19  1  0
 17 20  1  0
 14 21  1  0
 13 22  1  0
 11 23  2  0
 23 24  1  0
 24 25  1  0
 25 26  1  0
 26 27  2  0
 27 28  1  0
 28 29  2  0
 29 30  1  0
 30 31  2  0
 31 32  1  0
 29 33  1  0
 28 34  1  0
 27 35  1  0
 25 36  1  0
 25 37  1  0
  8 38  1  0
  8 39  1  0
  7 40  1  0
  7 41  1  0
  5 42  1  0
  4 43  1  0
  1 44  1  0
  1 45  1  0
  1 46  1  0
  6  2  1  0
 24  9  1  0
 31 26  1  0
 18 12  1  0
M  END
>  <cnnaffinity>  (1) 
-6.60014

>  <filename>  (1) 
Cc1nccn1CCc1nc(-c2ccc(Cl)cc2)nn1Cc1cccnc1

$$$$
