
     RDKit          3D

 45 48  0  0  0  0  0  0  0  0999 V2000
    9.6869    2.2178   21.1898 C   0  0  0  0  0  0  0  0  0  0  0  0
    9.7718    2.1967   22.6824 C   0  0  0  0  0  0  0  0  0  0  0  0
   10.9498    2.5489   23.2070 N   0  0  0  0  0  0  0  0  0  0  0  0
   11.1212    2.4025   24.5250 C   0  0  0  0  0  0  0  0  0  0  0  0
   10.1467    1.8939   25.3766 C   0  0  0  0  0  0  0  0  0  0  0  0
    8.8967    1.5864   24.8370 C   0  0  0  0  0  0  0  0  0  0  0  0
    8.6759    1.7726   23.4709 C   0  0  0  0  0  0  0  0  0  0  0  0
    7.3519    1.3159   22.8534 C   0  0  0  0  0  0  0  0  0  0  0  0
    7.4297   -0.0981   22.3458 C   0  0  0  0  0  0  0  0  0  0  0  0
    7.8733   -1.0990   23.0885 N   0  0  0  0  0  0  0  0  0  0  0  0
    8.0163   -2.1026   22.1981 C   0  0  0  0  0  0  0  0  0  0  0  0
    8.5003   -3.4564   22.5372 C   0  0  0  0  0  0  0  0  0  0  0  0
    8.1517   -4.1705   23.8155 C   0  0  0  0  0  0  0  0  0  0  0  0
    7.5030   -4.5896   22.5167 C   0  0  0  0  0  0  0  0  0  0  0  0
    7.9718   -5.8645   21.8444 C   0  0  0  0  0  0  0  0  0  0  0  0
    8.0754   -5.7286   20.7607 H   0  0  0  0  0  0  0  0  0  0  0  0
    8.9449   -6.1764   22.2379 H   0  0  0  0  0  0  0  0  0  0  0  0
    7.2753   -6.6907   22.0075 H   0  0  0  0  0  0  0  0  0  0  0  0
    6.0409   -4.2101   22.3130 C   0  0  0  0  0  0  0  0  0  0  0  0
    5.3581   -4.9787   22.6986 H   0  0  0  0  0  0  0  0  0  0  0  0
    5.8345   -4.0329   21.2489 H   0  0  0  0  0  0  0  0  0  0  0  0
    5.8155   -3.2661   22.8268 H   0  0  0  0  0  0  0  0  0  0  0  0
    8.8919   -4.8552   24.2312 H   0  0  0  0  0  0  0  0  0  0  0  0
    7.5524   -3.6438   24.5595 H   0  0  0  0  0  0  0  0  0  0  0  0
    9.4959   -3.6161   22.1439 H   0  0  0  0  0  0  0  0  0  0  0  0
    7.6767   -1.8122   20.9554 N   0  0  0  0  0  0  0  0  0  0  0  0
    7.2368   -0.5298   21.0640 N   0  0  0  0  0  0  0  0  0  0  0  0
    6.5782    0.0673   19.9615 C   0  0  0  0  0  0  0  0  0  0  0  0
    5.3823    0.7795   20.0995 C   0  0  0  0  0  0  0  0  0  0  0  0
    4.8500    1.3853   18.9575 C   0  0  0  0  0  0  0  0  0  0  0  0
    5.5173    1.2458   17.7345 C   0  0  0  0  0  0  0  0  0  0  0  0
    6.6297    0.5043   17.5919 N   0  0  0  0  0  0  0  0  0  0  0  0
    7.1311   -0.0907   18.6777 C   0  0  0  0  0  0  0  0  0  0  0  0
    8.0089   -0.7179   18.5469 H   0  0  0  0  0  0  0  0  0  0  0  0
    5.1384    1.7280   16.8348 H   0  0  0  0  0  0  0  0  0  0  0  0
    3.9377    1.9664   19.0057 H   0  0  0  0  0  0  0  0  0  0  0  0
    4.8822    0.8375   21.0692 H   0  0  0  0  0  0  0  0  0  0  0  0
    6.5764    1.3213   23.6250 H   0  0  0  0  0  0  0  0  0  0  0  0
    7.0310    1.9930   22.0549 H   0  0  0  0  0  0  0  0  0  0  0  0
    8.1060    1.1659   25.4581 H   0  0  0  0  0  0  0  0  0  0  0  0
   10.3672    1.7291   26.4205 H   0  0  0  0  0  0  0  0  0  0  0  0
   12.0964    2.6946   24.8967 H   0  0  0  0  0  0  0  0  0  0  0  0
   10.6614    2.4567   20.7660 H   0  0  0  0  0  0  0  0  0  0  0  0
    8.9586    2.9588   20.8578 H   0  0  0  0  0  0  0  0  0  0  0  0
    9.3492    1.2517   20.8032 H   0  0  0  0  0  0  0  0  0  0  0  0
  1  2  1  0
  2  3  2  0
  3  4  1  0
  4  5  2  0
  5  6  1  0
  6  7  2  0
  7  8  1  0
  8  9  1  0
  9 10  2  0
 10 11  1  0
 11 12  1  0
 12 13  1  0
 13 14  1  0
 14 15  1  0
 15 16  1  0
 15 17  1  0
 15 18  1  0
 14 19  1  0
 19 20  1  0
 19 21  1  0
 19 22  1  0
 13 23  1  0
 13 24  1  0
 12 25  1  0
 11 26  2  0
 26 27  1  0
 27 28  1  0
 28 29  2  0
 29 30  1  0
 30 31  2  0
 31 32  1  0
 32 33  2  0
 33 34  1  0
 31 35  1  0
 30 36  1  0
 29 37  1  0
  8 38  1  0
  8 39  1  0
  6 40  1  0
  5 41  1  0
  4 42  1  0
  1 43  1  0
  1 44  1  0
  1 45  1  0
  7  2  1  0
 27  9  1  0
 33 28  1  0
 14 12  1  0
M  END
>  <cnnaffinity>  (1) 
-6.04549

>  <filename>  (1) 
Cc1ncccc1Cc1nc(C2CC2(C)C)nn1-c1cccnc1

$$$$
