
     RDKit          3D

 46 49  0  0  0  0  0  0  0  0999 V2000
    8.3748    4.2792   24.2767 C   0  0  0  0  0  0  0  0  0  0  0  0
    8.5824    3.3840   23.1079 C   0  0  0  0  0  0  0  0  0  0  0  0
    9.2955    2.2862   23.0996 N   0  0  0  0  0  0  0  0  0  0  0  0
    9.1897    1.7863   21.8314 C   0  0  0  0  0  0  0  0  0  0  0  0
    9.7625    0.4630   21.4836 C   0  0  0  0  0  0  0  0  0  0  0  0
    8.7739   -0.6079   21.7861 C   0  0  0  0  0  0  0  0  0  0  0  0
    8.9516   -1.5026   22.7284 N   0  0  0  0  0  0  0  0  0  0  0  0
    7.7697   -2.1728   22.7723 C   0  0  0  0  0  0  0  0  0  0  0  0
    7.6085   -3.2689   23.8043 C   0  0  0  0  0  0  0  0  0  0  0  0
    6.5952   -4.3777   23.4409 C   0  0  0  0  0  0  0  0  0  0  0  0
    5.1578   -3.8272   23.4530 C   0  0  0  0  0  0  0  0  0  0  0  0
    4.7902   -3.2497   24.8091 C   0  0  0  0  0  0  0  0  0  0  0  0
    3.5365   -2.6971   24.7443 F   0  0  0  0  0  0  0  0  0  0  0  0
    4.7118   -4.2682   25.7322 F   0  0  0  0  0  0  0  0  0  0  0  0
    5.7928   -2.2137   25.3020 C   0  0  0  0  0  0  0  0  0  0  0  0
    7.2448   -2.7159   25.2137 C   0  0  0  0  0  0  0  0  0  0  0  0
    7.9523   -1.9321   25.5068 H   0  0  0  0  0  0  0  0  0  0  0  0
    7.3804   -3.5327   25.9350 H   0  0  0  0  0  0  0  0  0  0  0  0
    5.5350   -1.9557   26.3324 H   0  0  0  0  0  0  0  0  0  0  0  0
    5.6419   -1.3096   24.7057 H   0  0  0  0  0  0  0  0  0  0  0  0
    5.0885   -2.9987   22.7421 H   0  0  0  0  0  0  0  0  0  0  0  0
    4.4312   -4.5937   23.1726 H   0  0  0  0  0  0  0  0  0  0  0  0
    6.8365   -4.8341   22.4743 H   0  0  0  0  0  0  0  0  0  0  0  0
    6.6944   -5.1757   24.1946 H   0  0  0  0  0  0  0  0  0  0  0  0
    8.6172   -3.6898   23.8589 H   0  0  0  0  0  0  0  0  0  0  0  0
    6.8816   -1.7479   21.8942 N   0  0  0  0  0  0  0  0  0  0  0  0
    7.5310   -0.7568   21.2236 N   0  0  0  0  0  0  0  0  0  0  0  0
    6.8449   -0.1139   20.1383 C   0  0  0  0  0  0  0  0  0  0  0  0
    5.6088    0.5153   20.3529 C   0  0  0  0  0  0  0  0  0  0  0  0
    5.0060    1.1715   19.2723 C   0  0  0  0  0  0  0  0  0  0  0  0
    5.6365    1.1590   18.0238 C   0  0  0  0  0  0  0  0  0  0  0  0
    6.7913    0.5107   17.8019 N   0  0  0  0  0  0  0  0  0  0  0  0
    7.3636   -0.1241   18.8315 C   0  0  0  0  0  0  0  0  0  0  0  0
    8.2715   -0.6818   18.6008 H   0  0  0  0  0  0  0  0  0  0  0  0
    5.2041    1.6850   17.1735 H   0  0  0  0  0  0  0  0  0  0  0  0
    4.0648    1.7007   19.3839 H   0  0  0  0  0  0  0  0  0  0  0  0
    5.1426    0.4807   21.3390 H   0  0  0  0  0  0  0  0  0  0  0  0
   10.0332    0.4048   20.4324 H   0  0  0  0  0  0  0  0  0  0  0  0
   10.6476    0.2833   22.0975 H   0  0  0  0  0  0  0  0  0  0  0  0
    8.3868    2.5666   21.0710 C   0  0  0  0  0  0  0  0  0  0  0  0
    8.0062    3.6118   21.8948 N   0  0  0  0  0  0  0  0  0  0  0  0
    7.4061    4.3897   21.6743 H   0  0  0  0  0  0  0  0  0  0  0  0
    8.0368    2.3827   20.0708 H   0  0  0  0  0  0  0  0  0  0  0  0
    8.4545    3.6887   25.1914 H   0  0  0  0  0  0  0  0  0  0  0  0
    9.1424    5.0588   24.3057 H   0  0  0  0  0  0  0  0  0  0  0  0
    7.3881    4.7506   24.2325 H   0  0  0  0  0  0  0  0  0  0  0  0
  1  2  1  0
  2  3  2  0
  3  4  1  0
  4  5  1  0
  5  6  1  0
  6  7  2  0
  7  8  1  0
  8  9  1  0
  9 10  1  0
 10 11  1  0
 11 12  1  0
 12 13  1  0
 12 14  1  0
 12 15  1  0
 15 16  1  0
 16 17  1  0
 16 18  1  0
 15 19  1  0
 15 20  1  0
 11 21  1  0
 11 22  1  0
 10 23  1  0
 10 24  1  0
  9 25  1  0
  8 26  2  0
 26 27  1  0
 27 28  1  0
 28 29  2  0
 29 30  1  0
 30 31  2  0
 31 32  1  0
 32 33  2  0
 33 34  1  0
 31 35  1  0
 30 36  1  0
 29 37  1  0
  5 38  1  0
  5 39  1  0
  4 40  2  0
 40 41  1  0
 41 42  1  0
 40 43  1  0
  1 44  1  0
  1 45  1  0
  1 46  1  0
 41  2  1  0
 27  6  1  0
 33 28  1  0
 16  9  1  0
M  END
>  <cnnaffinity>  (1) 
-6.22976

>  <filename>  (1) 
Cc1nc(Cc2nc(C3CCC(F)(F)CC3)nn2-c2cccnc2)c[nH]1

$$$$
