
     RDKit          3D

 43 46  0  0  0  0  0  0  0  0999 V2000
    7.7927    2.9076   21.8282 C   0  0  0  0  0  0  0  0  0  0  0  0
    9.1088    2.5301   22.4315 C   0  0  0  0  0  0  0  0  0  0  0  0
    9.6103    3.1031   23.5190 N   0  0  0  0  0  0  0  0  0  0  0  0
   10.7391    2.4072   23.7689 N   0  0  0  0  0  0  0  0  0  0  0  0
   10.9668    1.4009   22.8898 C   0  0  0  0  0  0  0  0  0  0  0  0
   12.0489    0.3721   23.0009 C   0  0  0  0  0  0  0  0  0  0  0  0
   12.7590    0.5845   23.8034 H   0  0  0  0  0  0  0  0  0  0  0  0
   11.6008   -0.6131   23.1833 H   0  0  0  0  0  0  0  0  0  0  0  0
   12.6093    0.2899   22.0639 H   0  0  0  0  0  0  0  0  0  0  0  0
    9.9361    1.4693   21.9796 C   0  0  0  0  0  0  0  0  0  0  0  0
    9.6241    0.4340   20.9206 C   0  0  0  0  0  0  0  0  0  0  0  0
    8.6272   -0.5833   21.3748 C   0  0  0  0  0  0  0  0  0  0  0  0
    8.8547   -1.4569   22.3298 N   0  0  0  0  0  0  0  0  0  0  0  0
    7.6493   -2.0624   22.5005 C   0  0  0  0  0  0  0  0  0  0  0  0
    7.4196   -3.0938   23.5457 C   0  0  0  0  0  0  0  0  0  0  0  0
    8.4630   -3.4722   24.4181 C   0  0  0  0  0  0  0  0  0  0  0  0
    8.2123   -4.4414   25.3811 C   0  0  0  0  0  0  0  0  0  0  0  0
    9.2055   -4.7994   26.2058 F   0  0  0  0  0  0  0  0  0  0  0  0
    6.9721   -5.0556   25.5212 C   0  0  0  0  0  0  0  0  0  0  0  0
    5.9591   -4.6576   24.6549 C   0  0  0  0  0  0  0  0  0  0  0  0
    4.7532   -5.2294   24.7663 F   0  0  0  0  0  0  0  0  0  0  0  0
    6.1472   -3.6905   23.6765 C   0  0  0  0  0  0  0  0  0  0  0  0
    5.3125   -3.4078   23.0419 H   0  0  0  0  0  0  0  0  0  0  0  0
    6.8033   -5.8083   26.2768 H   0  0  0  0  0  0  0  0  0  0  0  0
    9.4562   -3.0355   24.3725 H   0  0  0  0  0  0  0  0  0  0  0  0
    6.7024   -1.6309   21.6804 N   0  0  0  0  0  0  0  0  0  0  0  0
    7.3422   -0.6993   20.9321 N   0  0  0  0  0  0  0  0  0  0  0  0
    6.6484   -0.0167   19.8911 C   0  0  0  0  0  0  0  0  0  0  0  0
    5.4370    0.6272   20.1569 C   0  0  0  0  0  0  0  0  0  0  0  0
    4.8078    1.3076   19.1068 C   0  0  0  0  0  0  0  0  0  0  0  0
    5.3955    1.2982   17.8364 C   0  0  0  0  0  0  0  0  0  0  0  0
    6.5430    0.6568   17.5677 N   0  0  0  0  0  0  0  0  0  0  0  0
    7.1518    0.0269   18.5802 C   0  0  0  0  0  0  0  0  0  0  0  0
    8.0968   -0.4564   18.3412 H   0  0  0  0  0  0  0  0  0  0  0  0
    4.9357    1.8177   16.9981 H   0  0  0  0  0  0  0  0  0  0  0  0
    3.8759    1.8446   19.2554 H   0  0  0  0  0  0  0  0  0  0  0  0
    5.0153    0.5859   21.1634 H   0  0  0  0  0  0  0  0  0  0  0  0
   10.5260   -0.1360   20.6763 H   0  0  0  0  0  0  0  0  0  0  0  0
    9.2614    0.8895   19.9979 H   0  0  0  0  0  0  0  0  0  0  0  0
   11.2901    2.6413   24.5813 H   0  0  0  0  0  0  0  0  0  0  0  0
    6.9786    2.3141   22.2687 H   0  0  0  0  0  0  0  0  0  0  0  0
    7.8392    2.6500   20.7665 H   0  0  0  0  0  0  0  0  0  0  0  0
    7.5545    3.9666   21.9540 H   0  0  0  0  0  0  0  0  0  0  0  0
  1  2  1  0
  2  3  2  0
  3  4  1  0
  4  5  1  0
  5  6  1  0
  6  7  1  0
  6  8  1  0
  6  9  1  0
  5 10  2  0
 10 11  1  0
 11 12  1  0
 12 13  2  0
 13 14  1  0
 14 15  1  0
 15 16  2  0
 16 17  1  0
 17 18  1  0
 17 19  2  0
 19 20  1  0
 20 21  1  0
 20 22  2  0
 22 23  1  0
 19 24  1  0
 16 25  1  0
 14 26  2  0
 26 27  1  0
 27 28  1  0
 28 29  2  0
 29 30  1  0
 30 31  2  0
 31 32  1  0
 32 33  2  0
 33 34  1  0
 31 35  1  0
 30 36  1  0
 29 37  1  0
 11 38  1  0
 11 39  1  0
  4 40  1  0
  1 41  1  0
  1 42  1  0
  1 43  1  0
 10  2  1  0
 27 12  1  0
 33 28  1  0
 22 15  1  0
M  END
>  <cnnaffinity>  (1) 
-6.32909

>  <filename>  (1) 
Cc1n[nH]c(C)c1Cc1nc(-c2cc(F)cc(F)c2)nn1-c1cccnc1

$$$$
