
     RDKit          3D

 42 45  0  0  0  0  0  0  0  0999 V2000
    8.3771   -0.2985   27.0910 C   0  0  0  0  0  0  0  0  0  0  0  0
    7.5632    0.1585   25.9388 C   0  0  0  0  0  0  0  0  0  0  0  0
    6.3246   -0.0811   25.6611 N   0  0  0  0  0  0  0  0  0  0  0  0
    6.1131    0.5788   24.4554 C   0  0  0  0  0  0  0  0  0  0  0  0
    7.2550    1.1890   24.0603 C   0  0  0  0  0  0  0  0  0  0  0  0
    7.7765    1.8558   22.8269 C   0  0  0  0  0  0  0  0  0  0  0  0
    8.7950    0.9638   22.1926 C   0  0  0  0  0  0  0  0  0  0  0  0
   10.0942    1.0409   22.3965 N   0  0  0  0  0  0  0  0  0  0  0  0
   10.5552   -0.1331   21.9068 C   0  0  0  0  0  0  0  0  0  0  0  0
   11.9604   -0.5575   21.8265 C   0  0  0  0  0  0  0  0  0  0  0  0
   13.0709    0.2043   22.2526 C   0  0  0  0  0  0  0  0  0  0  0  0
   14.3285   -0.0797   21.7113 C   0  0  0  0  0  0  0  0  0  0  0  0
   14.4325   -1.1197   20.7745 C   0  0  0  0  0  0  0  0  0  0  0  0
   15.4452   -1.1552   19.8979 F   0  0  0  0  0  0  0  0  0  0  0  0
   13.4204   -2.0357   20.5661 C   0  0  0  0  0  0  0  0  0  0  0  0
   12.1819   -1.7407   21.1030 C   0  0  0  0  0  0  0  0  0  0  0  0
   11.3093   -2.3479   20.9018 H   0  0  0  0  0  0  0  0  0  0  0  0
   13.6017   -2.8975   19.9338 H   0  0  0  0  0  0  0  0  0  0  0  0
   15.1657    0.6005   21.8496 H   0  0  0  0  0  0  0  0  0  0  0  0
   12.9723    1.0496   22.9273 H   0  0  0  0  0  0  0  0  0  0  0  0
    9.6022   -0.8991   21.3794 N   0  0  0  0  0  0  0  0  0  0  0  0
    8.4779   -0.1877   21.5578 N   0  0  0  0  0  0  0  0  0  0  0  0
    7.2070   -0.7319   21.0762 C   0  0  0  0  0  0  0  0  0  0  0  0
    6.5549    0.0461   19.9502 C   0  0  0  0  0  0  0  0  0  0  0  0
    5.3314    0.7054   20.1071 C   0  0  0  0  0  0  0  0  0  0  0  0
    4.7662    1.3644   19.0130 C   0  0  0  0  0  0  0  0  0  0  0  0
    5.4487    1.3411   17.7939 C   0  0  0  0  0  0  0  0  0  0  0  0
    6.6254    0.7187   17.6206 N   0  0  0  0  0  0  0  0  0  0  0  0
    7.1588    0.0981   18.6800 C   0  0  0  0  0  0  0  0  0  0  0  0
    8.1139   -0.3975   18.5044 H   0  0  0  0  0  0  0  0  0  0  0  0
    5.0347    1.8412   16.9195 H   0  0  0  0  0  0  0  0  0  0  0  0
    3.8246    1.8948   19.0932 H   0  0  0  0  0  0  0  0  0  0  0  0
    4.8254    0.7012   21.0754 H   0  0  0  0  0  0  0  0  0  0  0  0
    7.4486   -1.7460   20.7403 H   0  0  0  0  0  0  0  0  0  0  0  0
    6.5231   -0.8276   21.9269 H   0  0  0  0  0  0  0  0  0  0  0  0
    6.9576    2.0627   22.1342 H   0  0  0  0  0  0  0  0  0  0  0  0
    8.2859    2.7889   23.0800 H   0  0  0  0  0  0  0  0  0  0  0  0
    8.1868    0.9376   25.0259 O   0  0  0  0  0  0  0  0  0  0  0  0
    5.1565    0.5562   23.9533 H   0  0  0  0  0  0  0  0  0  0  0  0
    7.9539   -1.2142   27.5038 H   0  0  0  0  0  0  0  0  0  0  0  0
    9.4070   -0.4711   26.7735 H   0  0  0  0  0  0  0  0  0  0  0  0
    8.3810    0.4680   27.8716 H   0  0  0  0  0  0  0  0  0  0  0  0
  1  2  1  0
  2  3  2  0
  3  4  1  0
  4  5  2  0
  5  6  1  0
  6  7  1  0
  7  8  2  0
  8  9  1  0
  9 10  1  0
 10 11  2  0
 11 12  1  0
 12 13  2  0
 13 14  1  0
 13 15  1  0
 15 16  2  0
 16 17  1  0
 15 18  1  0
 12 19  1  0
 11 20  1  0
  9 21  2  0
 21 22  1  0
 22 23  1  0
 23 24  1  0
 24 25  2  0
 25 26  1  0
 26 27  2  0
 27 28  1  0
 28 29  2  0
 29 30  1  0
 27 31  1  0
 26 32  1  0
 25 33  1  0
 23 34  1  0
 23 35  1  0
  6 36  1  0
  6 37  1  0
  5 38  1  0
  4 39  1  0
  1 40  1  0
  1 41  1  0
  1 42  1  0
 38  2  1  0
 22  7  1  0
 29 24  1  0
 16 10  1  0
M  END
>  <cnnaffinity>  (1) 
-6.60267

>  <filename>  (1) 
Cc1ncc(Cc2nc(-c3ccc(F)cc3)nn2Cc2cccnc2)o1

$$$$
