
     RDKit          3D

 41 44  0  0  0  0  0  0  0  0999 V2000
   11.4854    2.1477   21.7832 C   0  0  0  0  0  0  0  0  0  0  0  0
   10.0018    2.1251   21.9552 C   0  0  0  0  0  0  0  0  0  0  0  0
    9.3568    1.3716   22.8089 N   0  0  0  0  0  0  0  0  0  0  0  0
    8.0254    1.6278   22.6239 C   0  0  0  0  0  0  0  0  0  0  0  0
    6.9997    0.8298   23.3592 C   0  0  0  0  0  0  0  0  0  0  0  0
    7.0603   -0.5703   22.8463 C   0  0  0  0  0  0  0  0  0  0  0  0
    7.5871   -1.5976   23.4758 N   0  0  0  0  0  0  0  0  0  0  0  0
    7.7729   -2.5205   22.4893 C   0  0  0  0  0  0  0  0  0  0  0  0
    8.4973   -3.8493   22.6609 C   0  0  0  0  0  0  0  0  0  0  0  0
    7.9607   -4.7902   23.7578 C   0  0  0  0  0  0  0  0  0  0  0  0
    8.7318   -4.2965   24.9862 C   0  0  0  0  0  0  0  0  0  0  0  0
   10.1022   -3.9752   24.3899 C   0  0  0  0  0  0  0  0  0  0  0  0
    9.8694   -3.6638   23.0182 O   0  0  0  0  0  0  0  0  0  0  0  0
   10.7994   -4.8242   24.4544 H   0  0  0  0  0  0  0  0  0  0  0  0
   10.5846   -3.1095   24.8558 H   0  0  0  0  0  0  0  0  0  0  0  0
    8.7753   -5.0180   25.8065 H   0  0  0  0  0  0  0  0  0  0  0  0
    8.2753   -3.3748   25.3615 H   0  0  0  0  0  0  0  0  0  0  0  0
    6.8701   -4.7708   23.8606 H   0  0  0  0  0  0  0  0  0  0  0  0
    8.2649   -5.8166   23.5015 H   0  0  0  0  0  0  0  0  0  0  0  0
    8.4680   -4.3039   21.6676 H   0  0  0  0  0  0  0  0  0  0  0  0
    7.3488   -2.1299   21.3021 N   0  0  0  0  0  0  0  0  0  0  0  0
    6.8499   -0.8860   21.5319 N   0  0  0  0  0  0  0  0  0  0  0  0
    6.3999   -0.0939   20.4360 C   0  0  0  0  0  0  0  0  0  0  0  0
    5.2660    0.7319   20.4935 C   0  0  0  0  0  0  0  0  0  0  0  0
    4.9174    1.4501   19.3446 C   0  0  0  0  0  0  0  0  0  0  0  0
    5.7000    1.3257   18.1938 C   0  0  0  0  0  0  0  0  0  0  0  0
    6.8071    0.5656   18.1451 N   0  0  0  0  0  0  0  0  0  0  0  0
    7.1442   -0.1188   19.2406 C   0  0  0  0  0  0  0  0  0  0  0  0
    8.0582   -0.7105   19.1829 H   0  0  0  0  0  0  0  0  0  0  0  0
    5.4360    1.8460   17.2751 H   0  0  0  0  0  0  0  0  0  0  0  0
    4.0577    2.1125   19.3285 H   0  0  0  0  0  0  0  0  0  0  0  0
    4.6755    0.8326   21.4042 H   0  0  0  0  0  0  0  0  0  0  0  0
    7.2222    0.8210   24.4276 H   0  0  0  0  0  0  0  0  0  0  0  0
    6.0123    1.2552   23.1855 H   0  0  0  0  0  0  0  0  0  0  0  0
    7.8560    2.5488   21.6355 C   0  0  0  0  0  0  0  0  0  0  0  0
    9.1287    2.8411   21.2032 N   0  0  0  0  0  0  0  0  0  0  0  0
    9.3767    3.5128   20.4960 H   0  0  0  0  0  0  0  0  0  0  0  0
    6.9530    2.9516   21.2129 H   0  0  0  0  0  0  0  0  0  0  0  0
   11.8701    1.1703   22.0798 H   0  0  0  0  0  0  0  0  0  0  0  0
   11.7866    2.3456   20.7500 H   0  0  0  0  0  0  0  0  0  0  0  0
   11.9548    2.9038   22.4196 H   0  0  0  0  0  0  0  0  0  0  0  0
  1  2  1  0
  2  3  2  0
  3  4  1  0
  4  5  1  0
  5  6  1  0
  6  7  2  0
  7  8  1  0
  8  9  1  0
  9 10  1  0
 10 11  1  0
 11 12  1  0
 12 13  1  0
 12 14  1  0
 12 15  1  0
 11 16  1  0
 11 17  1  0
 10 18  1  0
 10 19  1  0
  9 20  1  0
  8 21  2  0
 21 22  1  0
 22 23  1  0
 23 24  2  0
 24 25  1  0
 25 26  2  0
 26 27  1  0
 27 28  2  0
 28 29  1  0
 26 30  1  0
 25 31  1  0
 24 32  1  0
  5 33  1  0
  5 34  1  0
  4 35  2  0
 35 36  1  0
 36 37  1  0
 35 38  1  0
  1 39  1  0
  1 40  1  0
  1 41  1  0
 36  2  1  0
 22  6  1  0
 28 23  1  0
 13  9  1  0
M  END
>  <cnnaffinity>  (1) 
-5.91688

>  <filename>  (1) 
Cc1nc(Cc2nc(C3CCCO3)nn2-c2cccnc2)c[nH]1

$$$$
