
     RDKit          3D

 44 47  0  0  0  0  0  0  0  0999 V2000
    8.6719    6.3900   23.3987 C   0  0  0  0  0  0  0  0  0  0  0  0
    8.1296    5.2268   24.1665 C   0  0  0  0  0  0  0  0  0  0  0  0
    7.3088    5.4690   25.1947 N   0  0  0  0  0  0  0  0  0  0  0  0
    6.8196    4.4008   25.8263 C   0  0  0  0  0  0  0  0  0  0  0  0
    7.1292    3.1001   25.4615 C   0  0  0  0  0  0  0  0  0  0  0  0
    7.9881    2.9591   24.3720 C   0  0  0  0  0  0  0  0  0  0  0  0
    8.3315    1.6212   23.7881 C   0  0  0  0  0  0  0  0  0  0  0  0
    7.2449    1.1628   22.7816 C   0  0  0  0  0  0  0  0  0  0  0  0
    7.4947   -0.1893   22.2115 C   0  0  0  0  0  0  0  0  0  0  0  0
    8.0176   -1.1606   22.9239 N   0  0  0  0  0  0  0  0  0  0  0  0
    8.2154   -2.1386   22.0120 C   0  0  0  0  0  0  0  0  0  0  0  0
    8.9901   -3.3483   22.3564 C   0  0  0  0  0  0  0  0  0  0  0  0
   10.3395   -3.0437   23.0895 C   0  0  0  0  0  0  0  0  0  0  0  0
    9.9417   -4.0180   24.2141 C   0  0  0  0  0  0  0  0  0  0  0  0
    8.5571   -4.2195   23.5691 C   0  0  0  0  0  0  0  0  0  0  0  0
    8.2960   -5.2555   23.3442 H   0  0  0  0  0  0  0  0  0  0  0  0
    7.7293   -3.7835   24.1306 H   0  0  0  0  0  0  0  0  0  0  0  0
   10.5536   -4.9209   24.2810 H   0  0  0  0  0  0  0  0  0  0  0  0
    9.9102   -3.5626   25.2053 H   0  0  0  0  0  0  0  0  0  0  0  0
   11.2522   -3.2532   22.5307 H   0  0  0  0  0  0  0  0  0  0  0  0
   10.3710   -2.0053   23.4425 H   0  0  0  0  0  0  0  0  0  0  0  0
    9.0194   -3.9059   21.4254 H   0  0  0  0  0  0  0  0  0  0  0  0
    7.8015   -1.8629   20.7903 N   0  0  0  0  0  0  0  0  0  0  0  0
    7.2946   -0.6082   20.9268 N   0  0  0  0  0  0  0  0  0  0  0  0
    6.6055    0.0307   19.8662 C   0  0  0  0  0  0  0  0  0  0  0  0
    5.3894    0.6868   20.0927 C   0  0  0  0  0  0  0  0  0  0  0  0
    4.7850    1.3376   19.0153 C   0  0  0  0  0  0  0  0  0  0  0  0
    5.4124    1.3118   17.7661 C   0  0  0  0  0  0  0  0  0  0  0  0
    6.5592    0.6465   17.5365 N   0  0  0  0  0  0  0  0  0  0  0  0
    7.1311    0.0093   18.5625 C   0  0  0  0  0  0  0  0  0  0  0  0
    8.0489   -0.5361   18.3578 H   0  0  0  0  0  0  0  0  0  0  0  0
    4.9799    1.8417   16.9193 H   0  0  0  0  0  0  0  0  0  0  0  0
    3.8515    1.8734   19.1413 H   0  0  0  0  0  0  0  0  0  0  0  0
    4.9258    0.6771   21.0803 H   0  0  0  0  0  0  0  0  0  0  0  0
    6.2779    1.1110   23.2991 H   0  0  0  0  0  0  0  0  0  0  0  0
    7.1436    1.9083   21.9847 H   0  0  0  0  0  0  0  0  0  0  0  0
    8.4438    0.8696   24.5796 H   0  0  0  0  0  0  0  0  0  0  0  0
    9.3011    1.7203   23.2856 H   0  0  0  0  0  0  0  0  0  0  0  0
    8.4848    4.0166   23.7360 N   0  0  0  0  0  0  0  0  0  0  0  0
    6.7159    2.2459   25.9815 H   0  0  0  0  0  0  0  0  0  0  0  0
    6.1466    4.5994   26.6626 H   0  0  0  0  0  0  0  0  0  0  0  0
    8.7775    7.2583   24.0508 H   0  0  0  0  0  0  0  0  0  0  0  0
    7.9732    6.6388   22.5934 H   0  0  0  0  0  0  0  0  0  0  0  0
    9.6305    6.1289   22.9440 H   0  0  0  0  0  0  0  0  0  0  0  0
  1  2  1  0
  2  3  2  0
  3  4  1  0
  4  5  2  0
  5  6  1  0
  6  7  1  0
  7  8  1  0
  8  9  1  0
  9 10  2  0
 10 11  1  0
 11 12  1  0
 12 13  1  0
 13 14  1  0
 14 15  1  0
 15 16  1  0
 15 17  1  0
 14 18  1  0
 14 19  1  0
 13 20  1  0
 13 21  1  0
 12 22  1  0
 11 23  2  0
 23 24  1  0
 24 25  1  0
 25 26  2  0
 26 27  1  0
 27 28  2  0
 28 29  1  0
 29 30  2  0
 30 31  1  0
 28 32  1  0
 27 33  1  0
 26 34  1  0
  8 35  1  0
  8 36  1  0
  7 37  1  0
  7 38  1  0
  6 39  2  0
  5 40  1  0
  4 41  1  0
  1 42  1  0
  1 43  1  0
  1 44  1  0
 39  2  1  0
 24  9  1  0
 30 25  1  0
 15 12  1  0
M  END
>  <cnnaffinity>  (1) 
-6.23389

>  <filename>  (1) 
Cc1nccc(CCc2nc(C3CCC3)nn2-c2cccnc2)n1

$$$$
