
     RDKit          3D

 46 49  0  0  0  0  0  0  0  0999 V2000
   11.9644    2.7240   24.1655 C   0  0  0  0  0  0  0  0  0  0  0  0
   11.6880    1.6722   23.1527 C   0  0  0  0  0  0  0  0  0  0  0  0
   10.6194    1.6618   22.3706 N   0  0  0  0  0  0  0  0  0  0  0  0
   10.7620    0.5805   21.5771 N   0  0  0  0  0  0  0  0  0  0  0  0
    9.6799    0.2191   20.6899 C   0  0  0  0  0  0  0  0  0  0  0  0
    8.6515   -0.6110   21.3546 C   0  0  0  0  0  0  0  0  0  0  0  0
    8.8733   -1.4927   22.3005 N   0  0  0  0  0  0  0  0  0  0  0  0
    7.6399   -2.0019   22.5433 C   0  0  0  0  0  0  0  0  0  0  0  0
    7.4017   -3.0039   23.6362 C   0  0  0  0  0  0  0  0  0  0  0  0
    8.3851   -2.9139   24.8244 C   0  0  0  0  0  0  0  0  0  0  0  0
    7.6565   -3.5719   26.0105 C   0  0  0  0  0  0  0  0  0  0  0  0
    6.1446   -3.5520   25.6716 C   0  0  0  0  0  0  0  0  0  0  0  0
    6.0102   -2.8978   24.2866 C   0  0  0  0  0  0  0  0  0  0  0  0
    5.7424   -1.8403   24.3845 H   0  0  0  0  0  0  0  0  0  0  0  0
    5.2367   -3.3622   23.6678 H   0  0  0  0  0  0  0  0  0  0  0  0
    5.5650   -3.0019   26.4199 H   0  0  0  0  0  0  0  0  0  0  0  0
    5.7411   -4.5702   25.6630 H   0  0  0  0  0  0  0  0  0  0  0  0
    7.8720   -3.0479   26.9473 H   0  0  0  0  0  0  0  0  0  0  0  0
    7.9980   -4.6027   26.1583 H   0  0  0  0  0  0  0  0  0  0  0  0
    8.6071   -1.8615   25.0370 H   0  0  0  0  0  0  0  0  0  0  0  0
    9.3452   -3.3939   24.6060 H   0  0  0  0  0  0  0  0  0  0  0  0
    7.5127   -3.9876   23.1631 H   0  0  0  0  0  0  0  0  0  0  0  0
    6.6921   -1.5424   21.7440 N   0  0  0  0  0  0  0  0  0  0  0  0
    7.3521   -0.6722   20.9403 N   0  0  0  0  0  0  0  0  0  0  0  0
    6.6590    0.0088   19.9050 C   0  0  0  0  0  0  0  0  0  0  0  0
    5.4385    0.6435   20.1683 C   0  0  0  0  0  0  0  0  0  0  0  0
    4.8135    1.3090   19.1105 C   0  0  0  0  0  0  0  0  0  0  0  0
    5.4018    1.2951   17.8383 C   0  0  0  0  0  0  0  0  0  0  0  0
    6.5613    0.6728   17.5772 N   0  0  0  0  0  0  0  0  0  0  0  0
    7.1692    0.0532   18.5942 C   0  0  0  0  0  0  0  0  0  0  0  0
    8.1124   -0.4337   18.3621 H   0  0  0  0  0  0  0  0  0  0  0  0
    4.9228    1.7850   16.9942 H   0  0  0  0  0  0  0  0  0  0  0  0
    3.8818    1.8388   19.2605 H   0  0  0  0  0  0  0  0  0  0  0  0
    5.0153    0.6094   21.1755 H   0  0  0  0  0  0  0  0  0  0  0  0
   10.0575   -0.3887   19.8670 H   0  0  0  0  0  0  0  0  0  0  0  0
    9.2591    1.1378   20.2912 H   0  0  0  0  0  0  0  0  0  0  0  0
   11.8851   -0.1355   21.8592 C   0  0  0  0  0  0  0  0  0  0  0  0
   12.2879   -1.3985   21.1719 C   0  0  0  0  0  0  0  0  0  0  0  0
   11.4463   -2.0991   21.1154 H   0  0  0  0  0  0  0  0  0  0  0  0
   12.6495   -1.2347   20.1509 H   0  0  0  0  0  0  0  0  0  0  0  0
   13.1054   -1.8613   21.7307 H   0  0  0  0  0  0  0  0  0  0  0  0
   12.5064    0.5615   22.8680 C   0  0  0  0  0  0  0  0  0  0  0  0
   14.0268    0.1949   23.5885 Cl  0  0  0  0  0  0  0  0  0  0  0  0
   11.1174    3.3990   24.2892 H   0  0  0  0  0  0  0  0  0  0  0  0
   12.8470    3.2971   23.8634 H   0  0  0  0  0  0  0  0  0  0  0  0
   12.1957    2.2481   25.1215 H   0  0  0  0  0  0  0  0  0  0  0  0
  1  2  1  0
  2  3  2  0
  3  4  1  0
  4  5  1  0
  5  6  1  0
  6  7  2  0
  7  8  1  0
  8  9  1  0
  9 10  1  0
 10 11  1  0
 11 12  1  0
 12 13  1  0
 13 14  1  0
 13 15  1  0
 12 16  1  0
 12 17  1  0
 11 18  1  0
 11 19  1  0
 10 20  1  0
 10 21  1  0
  9 22  1  0
  8 23  2  0
 23 24  1  0
 24 25  1  0
 25 26  2  0
 26 27  1  0
 27 28  2  0
 28 29  1  0
 29 30  2  0
 30 31  1  0
 28 32  1  0
 27 33  1  0
 26 34  1  0
  5 35  1  0
  5 36  1  0
  4 37  1  0
 37 38  1  0
 38 39  1  0
 38 40  1  0
 38 41  1  0
 37 42  2  0
 42 43  1  0
  1 44  1  0
  1 45  1  0
  1 46  1  0
 42  2  1  0
 24  6  1  0
 30 25  1  0
 13  9  1  0
M  END
>  <cnnaffinity>  (1) 
-6.71912

>  <filename>  (1) 
Cc1nn(Cc2nc(C3CCCC3)nn2-c2cccnc2)c(C)c1Cl

$$$$
