
     RDKit          3D

 42 45  0  0  0  0  0  0  0  0999 V2000
    5.3964   -0.7264   26.3114 C   0  0  0  0  0  0  0  0  0  0  0  0
    6.4065    0.0916   25.5854 C   0  0  0  0  0  0  0  0  0  0  0  0
    6.2489    0.6495   24.4049 N   0  0  0  0  0  0  0  0  0  0  0  0
    7.4152    1.3166   24.1440 C   0  0  0  0  0  0  0  0  0  0  0  0
    7.6839    1.9367   22.8061 C   0  0  0  0  0  0  0  0  0  0  0  0
    8.6418    1.0338   22.1147 C   0  0  0  0  0  0  0  0  0  0  0  0
    9.9501    1.0788   22.2616 N   0  0  0  0  0  0  0  0  0  0  0  0
   10.3598   -0.1209   21.7509 C   0  0  0  0  0  0  0  0  0  0  0  0
   11.7843   -0.5811   21.6751 C   0  0  0  0  0  0  0  0  0  0  0  0
   12.8572    0.1738   22.2062 C   0  0  0  0  0  0  0  0  0  0  0  0
   14.1583   -0.1805   21.8423 C   0  0  0  0  0  0  0  0  0  0  0  0
   14.3374   -1.2718   20.9834 C   0  0  0  0  0  0  0  0  0  0  0  0
   13.2302   -2.0281   20.6187 C   0  0  0  0  0  0  0  0  0  0  0  0
   11.9958   -1.7153   20.9864 N   0  0  0  0  0  0  0  0  0  0  0  0
   13.3318   -2.8765   19.9466 H   0  0  0  0  0  0  0  0  0  0  0  0
   15.2565   -1.5302   20.4970 H   0  0  0  0  0  0  0  0  0  0  0  0
   14.9982    0.4304   22.1674 H   0  0  0  0  0  0  0  0  0  0  0  0
   12.6666    1.0721   22.7836 H   0  0  0  0  0  0  0  0  0  0  0  0
    9.3632   -0.8722   21.3043 N   0  0  0  0  0  0  0  0  0  0  0  0
    8.2716   -0.1286   21.5378 N   0  0  0  0  0  0  0  0  0  0  0  0
    6.9591   -0.6350   21.1373 C   0  0  0  0  0  0  0  0  0  0  0  0
    6.3494    0.0915   19.9574 C   0  0  0  0  0  0  0  0  0  0  0  0
    5.1283    0.7701   20.0373 C   0  0  0  0  0  0  0  0  0  0  0  0
    4.6422    1.4231   18.9001 C   0  0  0  0  0  0  0  0  0  0  0  0
    5.3947    1.3643   17.7227 C   0  0  0  0  0  0  0  0  0  0  0  0
    6.5550    0.6976   17.6182 N   0  0  0  0  0  0  0  0  0  0  0  0
    7.0126    0.0869   18.7178 C   0  0  0  0  0  0  0  0  0  0  0  0
    7.9559   -0.4487   18.6116 H   0  0  0  0  0  0  0  0  0  0  0  0
    5.0534    1.8721   16.8220 H   0  0  0  0  0  0  0  0  0  0  0  0
    3.7119    1.9823   18.9174 H   0  0  0  0  0  0  0  0  0  0  0  0
    4.5642    0.7829   20.9747 H   0  0  0  0  0  0  0  0  0  0  0  0
    6.2962   -0.5878   22.0086 H   0  0  0  0  0  0  0  0  0  0  0  0
    7.1247   -1.6908   20.8980 H   0  0  0  0  0  0  0  0  0  0  0  0
    6.7579    2.0176   22.2325 H   0  0  0  0  0  0  0  0  0  0  0  0
    8.1546    2.9175   22.9069 H   0  0  0  0  0  0  0  0  0  0  0  0
    8.3038    1.1407   25.1641 C   0  0  0  0  0  0  0  0  0  0  0  0
    7.6427    0.3610   26.0890 N   0  0  0  0  0  0  0  0  0  0  0  0
    8.0088   -0.0124   26.9501 H   0  0  0  0  0  0  0  0  0  0  0  0
    9.3459    1.4243   25.2100 H   0  0  0  0  0  0  0  0  0  0  0  0
    4.8618   -0.1166   27.0473 H   0  0  0  0  0  0  0  0  0  0  0  0
    4.6717   -1.1183   25.5951 H   0  0  0  0  0  0  0  0  0  0  0  0
    5.8685   -1.5625   26.8369 H   0  0  0  0  0  0  0  0  0  0  0  0
  1  2  1  0
  2  3  2  0
  3  4  1  0
  4  5  1  0
  5  6  1  0
  6  7  2  0
  7  8  1  0
  8  9  1  0
  9 10  2  0
 10 11  1  0
 11 12  2  0
 12 13  1  0
 13 14  2  0
 13 15  1  0
 12 16  1  0
 11 17  1  0
 10 18  1  0
  8 19  2  0
 19 20  1  0
 20 21  1  0
 21 22  1  0
 22 23  2  0
 23 24  1  0
 24 25  2  0
 25 26  1  0
 26 27  2  0
 27 28  1  0
 25 29  1  0
 24 30  1  0
 23 31  1  0
 21 32  1  0
 21 33  1  0
  5 34  1  0
  5 35  1  0
  4 36  2  0
 36 37  1  0
 37 38  1  0
 36 39  1  0
  1 40  1  0
  1 41  1  0
  1 42  1  0
 37  2  1  0
 20  6  1  0
 27 22  1  0
 14  9  1  0
M  END
>  <cnnaffinity>  (1) 
-6.50154

>  <filename>  (1) 
Cc1nc(Cc2nc(-c3ccccn3)nn2Cc2cccnc2)c[nH]1

$$$$
