
     RDKit          3D

 39 42  0  0  0  0  0  0  0  0999 V2000
   10.8834   -0.0781   24.6386 C   0  0  0  0  0  0  0  0  0  0  0  0
   11.6404   -0.4674   23.4107 C   0  0  0  0  0  0  0  0  0  0  0  0
   12.8184    0.0459   23.1620 N   0  0  0  0  0  0  0  0  0  0  0  0
   13.2774   -0.5758   22.0233 O   0  0  0  0  0  0  0  0  0  0  0  0
   12.3578   -1.4539   21.6125 C   0  0  0  0  0  0  0  0  0  0  0  0
   11.2790   -1.4517   22.4326 C   0  0  0  0  0  0  0  0  0  0  0  0
   10.0478   -2.3320   22.3551 C   0  0  0  0  0  0  0  0  0  0  0  0
    8.7420   -1.6692   22.0413 C   0  0  0  0  0  0  0  0  0  0  0  0
    8.4246   -1.2467   20.8354 N   0  0  0  0  0  0  0  0  0  0  0  0
    7.2153   -0.6598   21.0207 C   0  0  0  0  0  0  0  0  0  0  0  0
    6.5117    0.0238   19.9483 C   0  0  0  0  0  0  0  0  0  0  0  0
    5.2996    0.7107   20.1277 C   0  0  0  0  0  0  0  0  0  0  0  0
    4.7596    1.3530   19.0183 C   0  0  0  0  0  0  0  0  0  0  0  0
    5.4426    1.2924   17.7963 C   0  0  0  0  0  0  0  0  0  0  0  0
    6.5993    0.6355   17.6245 N   0  0  0  0  0  0  0  0  0  0  0  0
    7.1176    0.0195   18.6891 C   0  0  0  0  0  0  0  0  0  0  0  0
    8.0637   -0.5023   18.5542 H   0  0  0  0  0  0  0  0  0  0  0  0
    5.0437    1.7888   16.9149 H   0  0  0  0  0  0  0  0  0  0  0  0
    3.8348    1.9116   19.0865 H   0  0  0  0  0  0  0  0  0  0  0  0
    4.8214    0.7463   21.1110 H   0  0  0  0  0  0  0  0  0  0  0  0
    6.7554   -0.7206   22.2520 N   0  0  0  0  0  0  0  0  0  0  0  0
    7.7253   -1.4125   22.9046 N   0  0  0  0  0  0  0  0  0  0  0  0
    7.6120   -1.7238   24.2959 C   0  0  0  0  0  0  0  0  0  0  0  0
    7.3609   -0.7051   25.1928 C   0  0  0  0  0  0  0  0  0  0  0  0
    7.3165   -1.0741   26.6472 C   0  0  0  0  0  0  0  0  0  0  0  0
    7.0941    0.1432   27.3265 F   0  0  0  0  0  0  0  0  0  0  0  0
    7.4799   -2.3177   27.0750 C   0  0  0  0  0  0  0  0  0  0  0  0
    7.4290   -2.0908   27.2697 F   0  0  0  0  0  0  0  0  0  0  0  0
    7.7351   -3.4518   26.0486 C   0  0  0  0  0  0  0  0  0  0  0  0
    7.9417   -4.7534   26.3551 F   0  0  0  0  0  0  0  0  0  0  0  0
    7.7895   -3.0899   24.7208 C   0  0  0  0  0  0  0  0  0  0  0  0
    7.9593   -3.8532   23.9659 H   0  0  0  0  0  0  0  0  0  0  0  0
    7.1821    0.3238   24.8945 H   0  0  0  0  0  0  0  0  0  0  0  0
   10.1805   -3.0176   21.5263 H   0  0  0  0  0  0  0  0  0  0  0  0
    9.9684   -2.9239   23.2709 H   0  0  0  0  0  0  0  0  0  0  0  0
   12.6141   -2.0269   20.7330 H   0  0  0  0  0  0  0  0  0  0  0  0
   11.4914    0.5626   25.2828 H   0  0  0  0  0  0  0  0  0  0  0  0
   10.5838   -0.9624   25.2120 H   0  0  0  0  0  0  0  0  0  0  0  0
    9.9645    0.4534   24.3655 H   0  0  0  0  0  0  0  0  0  0  0  0
  1  2  1  0
  2  3  2  0
  3  4  1  0
  4  5  1  0
  5  6  2  0
  6  7  1  0
  7  8  1  0
  8  9  2  0
  9 10  1  0
 10 11  1  0
 11 12  2  0
 12 13  1  0
 13 14  2  0
 14 15  1  0
 15 16  2  0
 16 17  1  0
 14 18  1  0
 13 19  1  0
 12 20  1  0
 10 21  2  0
 21 22  1  0
 22 23  1  0
 23 24  2  0
 24 25  1  0
 25 26  1  0
 25 27  2  0
 27 28  1  0
 27 29  1  0
 29 30  1  0
 29 31  2  0
 31 32  1  0
 24 33  1  0
  7 34  1  0
  7 35  1  0
  5 36  1  0
  1 37  1  0
  1 38  1  0
  1 39  1  0
  6  2  1  0
 22  8  1  0
 31 23  1  0
 16 11  1  0
M  END
>  <cnnaffinity>  (1) 
-6.72539

>  <filename>  (1) 
Cc1nocc1Cc1nc(-c2cccnc2)nn1-c1cc(F)c(F)c(F)c1

$$$$
