
     RDKit          3D

 44 46  0  0  0  0  0  0  0  0999 V2000
    7.9907   -2.4361   27.3302 H   0  0  0  0  0  0  0  0  0  0  0  0
    8.4982   -1.6040   27.3340 O   0  0  0  0  0  0  0  0  0  0  0  0
    9.1131   -1.7605   26.1505 C   0  0  0  0  0  0  0  0  0  0  0  0
    8.8958   -2.7649   25.5077 O   0  0  0  0  0  0  0  0  0  0  0  0
    9.9966   -0.6491   25.7371 C   0  0  0  0  0  0  0  0  0  0  0  0
   10.7286   -0.4919   24.5721 C   0  0  0  0  0  0  0  0  0  0  0  0
   10.5079   -1.1368   23.2457 C   0  0  0  0  0  0  0  0  0  0  0  0
   11.4742   -1.2125   22.7261 H   0  0  0  0  0  0  0  0  0  0  0  0
   10.1240   -2.1650   23.3768 H   0  0  0  0  0  0  0  0  0  0  0  0
    9.6210   -0.2749   22.4562 N   0  0  0  0  0  0  0  0  0  0  0  0
    8.2502   -0.1595   23.0025 C   0  0  0  0  0  0  0  0  0  0  0  0
    8.2830    0.6048   23.7869 H   0  0  0  0  0  0  0  0  0  0  0  0
    7.9200   -1.0809   23.5147 H   0  0  0  0  0  0  0  0  0  0  0  0
    7.1345    0.2898   22.0197 C   0  0  0  0  0  0  0  0  0  0  0  0
    7.4318    1.2762   21.6283 H   0  0  0  0  0  0  0  0  0  0  0  0
    6.2248    0.4530   22.6192 H   0  0  0  0  0  0  0  0  0  0  0  0
    6.8057   -0.6167   20.8929 N   0  0  0  0  0  0  0  0  0  0  0  0
    6.2876    0.0196   19.7335 C   0  0  0  0  0  0  0  0  0  0  0  0
    6.8324   -0.0558   18.4180 C   0  0  0  0  0  0  0  0  0  0  0  0
    7.6806   -0.7068   18.2145 H   0  0  0  0  0  0  0  0  0  0  0  0
    6.3914    0.6550   17.3663 N   0  0  0  0  0  0  0  0  0  0  0  0
    5.3538    1.4852   17.5602 C   0  0  0  0  0  0  0  0  0  0  0  0
    5.0344    2.0745   16.7036 H   0  0  0  0  0  0  0  0  0  0  0  0
    4.6991    1.6018   18.7905 C   0  0  0  0  0  0  0  0  0  0  0  0
    3.8763    2.3017   18.8996 H   0  0  0  0  0  0  0  0  0  0  0  0
    5.1587    0.8539   19.8767 C   0  0  0  0  0  0  0  0  0  0  0  0
    4.6777    0.9016   20.8526 H   0  0  0  0  0  0  0  0  0  0  0  0
    7.6110   -1.8295   20.7762 C   0  0  0  0  0  0  0  0  0  0  0  0
    7.0972   -2.4973   20.0752 H   0  0  0  0  0  0  0  0  0  0  0  0
    7.5554   -2.3372   21.7492 H   0  0  0  0  0  0  0  0  0  0  0  0
    9.0923   -1.6167   20.3825 C   0  0  0  0  0  0  0  0  0  0  0  0
    9.1824   -1.5009   19.2968 H   0  0  0  0  0  0  0  0  0  0  0  0
    9.6576   -2.5174   20.6605 H   0  0  0  0  0  0  0  0  0  0  0  0
    9.7629   -0.3927   21.0142 C   0  0  0  0  0  0  0  0  0  0  0  0
   10.8354   -0.4207   20.7863 H   0  0  0  0  0  0  0  0  0  0  0  0
    9.3952    0.5355   20.5570 H   0  0  0  0  0  0  0  0  0  0  0  0
   11.3480    0.7724   24.6862 C   0  0  0  0  0  0  0  0  0  0  0  0
   12.2502    1.4651   23.7147 C   0  0  0  0  0  0  0  0  0  0  0  0
   13.1246    0.8597   23.4576 H   0  0  0  0  0  0  0  0  0  0  0  0
   12.5980    2.4102   24.1285 H   0  0  0  0  0  0  0  0  0  0  0  0
   11.7019    1.6823   22.7939 H   0  0  0  0  0  0  0  0  0  0  0  0
   10.9912    1.3573   25.8171 N   0  0  0  0  0  0  0  0  0  0  0  0
   10.2022    0.4880   26.4496 N   0  0  0  0  0  0  0  0  0  0  0  0
    9.7699    0.7790   27.3174 H   0  0  0  0  0  0  0  0  0  0  0  0
  1  2  1  0
  2  3  1  0
  3  4  2  0
  3  5  1  0
  5  6  2  0
  6  7  1  0
  7  8  1  0
  7  9  1  0
  7 10  1  0
 10 11  1  0
 11 12  1  0
 11 13  1  0
 11 14  1  0
 14 15  1  0
 14 16  1  0
 14 17  1  0
 17 18  1  0
 18 19  2  0
 19 20  1  0
 19 21  1  0
 21 22  2  0
 22 23  1  0
 22 24  1  0
 24 25  1  0
 24 26  2  0
 26 27  1  0
 17 28  1  0
 28 29  1  0
 28 30  1  0
 28 31  1  0
 31 32  1  0
 31 33  1  0
 31 34  1  0
 34 35  1  0
 34 36  1  0
  6 37  1  0
 37 38  1  0
 38 39  1  0
 38 40  1  0
 38 41  1  0
 37 42  2  0
 42 43  1  0
 43 44  1  0
 43  5  1  0
 34 10  1  0
 26 18  1  0
M  END
>  <cnnaffinity>  (1) 
-5.3511

>  <filename>  (1) 
Cc1n[nH]c(C(=O)O)c1CN1CCCN(c2cccnc2)CC1

$$$$
