
     RDKit          3D

 43 46  0  0  0  0  0  0  0  0999 V2000
   11.1874   -1.5378   21.7280 C   0  0  0  0  0  0  0  0  0  0  0  0
   11.7981   -0.1871   21.8758 C   0  0  0  0  0  0  0  0  0  0  0  0
   12.9997   -0.0265   22.4235 N   0  0  0  0  0  0  0  0  0  0  0  0
   13.1899    1.3026   22.4484 N   0  0  0  0  0  0  0  0  0  0  0  0
   12.1483    1.9890   21.9276 C   0  0  0  0  0  0  0  0  0  0  0  0
   11.2176    1.0646   21.5292 C   0  0  0  0  0  0  0  0  0  0  0  0
    9.8214    1.3892   21.0409 C   0  0  0  0  0  0  0  0  0  0  0  0
    8.7755    1.1699   22.0840 C   0  0  0  0  0  0  0  0  0  0  0  0
    8.7215    1.8826   23.1877 N   0  0  0  0  0  0  0  0  0  0  0  0
    7.6720    1.3435   23.8611 C   0  0  0  0  0  0  0  0  0  0  0  0
    7.2254    1.8628   25.1704 C   0  0  0  0  0  0  0  0  0  0  0  0
    6.0849    1.3309   25.8061 C   0  0  0  0  0  0  0  0  0  0  0  0
    5.7194    1.8401   27.0469 C   0  0  0  0  0  0  0  0  0  0  0  0
    4.6382    1.3340   27.6606 F   0  0  0  0  0  0  0  0  0  0  0  0
    6.4380    2.8562   27.6763 C   0  0  0  0  0  0  0  0  0  0  0  0
    7.5633    3.3828   27.0317 C   0  0  0  0  0  0  0  0  0  0  0  0
    7.9606    2.8954   25.7871 C   0  0  0  0  0  0  0  0  0  0  0  0
    8.8404    3.2936   25.2830 H   0  0  0  0  0  0  0  0  0  0  0  0
    8.1379    4.1772   27.4985 H   0  0  0  0  0  0  0  0  0  0  0  0
    6.1096    3.2123   28.6466 H   0  0  0  0  0  0  0  0  0  0  0  0
    5.5049    0.5281   25.3536 H   0  0  0  0  0  0  0  0  0  0  0  0
    7.0831    0.3423   23.2240 N   0  0  0  0  0  0  0  0  0  0  0  0
    7.8031    0.2263   22.0858 N   0  0  0  0  0  0  0  0  0  0  0  0
    7.3736   -0.6959   21.0294 C   0  0  0  0  0  0  0  0  0  0  0  0
    6.6533   -0.0065   19.8783 C   0  0  0  0  0  0  0  0  0  0  0  0
    5.4400    0.6535   20.1238 C   0  0  0  0  0  0  0  0  0  0  0  0
    4.8047    1.3120   19.0698 C   0  0  0  0  0  0  0  0  0  0  0  0
    5.4077    1.2963   17.8108 C   0  0  0  0  0  0  0  0  0  0  0  0
    6.5562    0.6574   17.5472 N   0  0  0  0  0  0  0  0  0  0  0  0
    7.1549    0.0248   18.5662 C   0  0  0  0  0  0  0  0  0  0  0  0
    8.0925   -0.4765   18.3112 H   0  0  0  0  0  0  0  0  0  0  0  0
    4.9473    1.8225   16.9773 H   0  0  0  0  0  0  0  0  0  0  0  0
    3.8711    1.8444   19.2108 H   0  0  0  0  0  0  0  0  0  0  0  0
    5.0151    0.6707   21.1295 H   0  0  0  0  0  0  0  0  0  0  0  0
    8.2448   -1.2664   20.6830 H   0  0  0  0  0  0  0  0  0  0  0  0
    6.7090   -1.4138   21.5237 H   0  0  0  0  0  0  0  0  0  0  0  0
    9.7612    2.4539   20.7851 H   0  0  0  0  0  0  0  0  0  0  0  0
    9.5597    0.8301   20.1392 H   0  0  0  0  0  0  0  0  0  0  0  0
   12.1161    3.0701   21.8780 H   0  0  0  0  0  0  0  0  0  0  0  0
   14.0641    1.6731   22.7846 H   0  0  0  0  0  0  0  0  0  0  0  0
   10.5081   -1.7414   22.5656 H   0  0  0  0  0  0  0  0  0  0  0  0
   10.6100   -1.6149   20.8033 H   0  0  0  0  0  0  0  0  0  0  0  0
   11.9538   -2.3095   21.7183 H   0  0  0  0  0  0  0  0  0  0  0  0
  1  2  1  0
  2  3  2  0
  3  4  1  0
  4  5  1  0
  5  6  2  0
  6  7  1  0
  7  8  1  0
  8  9  2  0
  9 10  1  0
 10 11  1  0
 11 12  2  0
 12 13  1  0
 13 14  1  0
 13 15  2  0
 15 16  1  0
 16 17  2  0
 17 18  1  0
 16 19  1  0
 15 20  1  0
 12 21  1  0
 10 22  2  0
 22 23  1  0
 23 24  1  0
 24 25  1  0
 25 26  2  0
 26 27  1  0
 27 28  2  0
 28 29  1  0
 29 30  2  0
 30 31  1  0
 28 32  1  0
 27 33  1  0
 26 34  1  0
 24 35  1  0
 24 36  1  0
  7 37  1  0
  7 38  1  0
  5 39  1  0
  4 40  1  0
  1 41  1  0
  1 42  1  0
  1 43  1  0
  6  2  1  0
 23  8  1  0
 30 25  1  0
 17 11  1  0
M  END
>  <cnnaffinity>  (1) 
-6.20015

>  <filename>  (1) 
Cc1n[nH]cc1Cc1nc(-c2cccc(F)c2)nn1Cc1cccnc1

$$$$
