
     RDKit          3D

 43 45  0  0  0  0  0  0  0  0999 V2000
    9.6235    2.3303   21.2855 C   0  0  0  0  0  0  0  0  0  0  0  0
    9.7102    2.1720   22.7773 C   0  0  0  0  0  0  0  0  0  0  0  0
   10.9024    2.3949   23.3371 N   0  0  0  0  0  0  0  0  0  0  0  0
   10.9967    2.1818   24.6463 C   0  0  0  0  0  0  0  0  0  0  0  0
   10.0243    1.7681   25.4522 N   0  0  0  0  0  0  0  0  0  0  0  0
    8.8366    1.5352   24.8858 C   0  0  0  0  0  0  0  0  0  0  0  0
    7.7675    0.9514   25.7658 C   0  0  0  0  0  0  0  0  0  0  0  0
    6.8603    1.5673   25.7475 H   0  0  0  0  0  0  0  0  0  0  0  0
    8.1290    0.8718   26.7941 H   0  0  0  0  0  0  0  0  0  0  0  0
    7.4987   -0.0451   25.3877 H   0  0  0  0  0  0  0  0  0  0  0  0
    8.5941    1.7759   23.5235 C   0  0  0  0  0  0  0  0  0  0  0  0
    7.2910    1.3480   22.8223 C   0  0  0  0  0  0  0  0  0  0  0  0
    7.4158   -0.0283   22.2037 C   0  0  0  0  0  0  0  0  0  0  0  0
    7.9610   -1.0563   22.8319 N   0  0  0  0  0  0  0  0  0  0  0  0
    8.1668   -1.9561   21.8427 C   0  0  0  0  0  0  0  0  0  0  0  0
    8.7082   -3.3168   22.1153 C   0  0  0  0  0  0  0  0  0  0  0  0
    7.6620   -4.1718   22.8648 C   0  0  0  0  0  0  0  0  0  0  0  0
    7.9887   -5.6337   23.1179 C   0  0  0  0  0  0  0  0  0  0  0  0
    6.8507   -6.3362   23.2799 F   0  0  0  0  0  0  0  0  0  0  0  0
    8.6521   -6.2073   22.0996 F   0  0  0  0  0  0  0  0  0  0  0  0
    8.7358   -5.8040   24.2238 F   0  0  0  0  0  0  0  0  0  0  0  0
    6.7236   -4.1649   22.2999 H   0  0  0  0  0  0  0  0  0  0  0  0
    7.4392   -3.7346   23.8446 H   0  0  0  0  0  0  0  0  0  0  0  0
    9.6434   -3.2167   22.6753 H   0  0  0  0  0  0  0  0  0  0  0  0
    8.9288   -3.7315   21.1316 H   0  0  0  0  0  0  0  0  0  0  0  0
    7.7586   -1.5808   20.6540 N   0  0  0  0  0  0  0  0  0  0  0  0
    7.2116   -0.3586   20.8858 N   0  0  0  0  0  0  0  0  0  0  0  0
    6.5073    0.2712   19.8228 C   0  0  0  0  0  0  0  0  0  0  0  0
    5.2925    0.9500   19.9831 C   0  0  0  0  0  0  0  0  0  0  0  0
    4.7018    1.5092   18.8393 C   0  0  0  0  0  0  0  0  0  0  0  0
    5.3494    1.3911   17.6037 C   0  0  0  0  0  0  0  0  0  0  0  0
    6.4996    0.7144   17.4417 N   0  0  0  0  0  0  0  0  0  0  0  0
    7.0419    0.1527   18.5244 C   0  0  0  0  0  0  0  0  0  0  0  0
    7.9481   -0.4281   18.3774 H   0  0  0  0  0  0  0  0  0  0  0  0
    4.9381    1.8512   16.7076 H   0  0  0  0  0  0  0  0  0  0  0  0
    3.7636    2.0495   18.8975 H   0  0  0  0  0  0  0  0  0  0  0  0
    4.8103    1.0272   20.9605 H   0  0  0  0  0  0  0  0  0  0  0  0
    7.0115    2.0703   22.0475 H   0  0  0  0  0  0  0  0  0  0  0  0
    6.4629    1.3110   23.5410 H   0  0  0  0  0  0  0  0  0  0  0  0
   11.9702    2.3652   25.0945 H   0  0  0  0  0  0  0  0  0  0  0  0
   10.5842    2.6686   20.8952 H   0  0  0  0  0  0  0  0  0  0  0  0
    9.3484    1.3801   20.8095 H   0  0  0  0  0  0  0  0  0  0  0  0
    8.8399    3.0488   21.0182 H   0  0  0  0  0  0  0  0  0  0  0  0
  1  2  1  0
  2  3  2  0
  3  4  1  0
  4  5  2  0
  5  6  1  0
  6  7  1  0
  7  8  1  0
  7  9  1  0
  7 10  1  0
  6 11  2  0
 11 12  1  0
 12 13  1  0
 13 14  2  0
 14 15  1  0
 15 16  1  0
 16 17  1  0
 17 18  1  0
 18 19  1  0
 18 20  1  0
 18 21  1  0
 17 22  1  0
 17 23  1  0
 16 24  1  0
 16 25  1  0
 15 26  2  0
 26 27  1  0
 27 28  1  0
 28 29  2  0
 29 30  1  0
 30 31  2  0
 31 32  1  0
 32 33  2  0
 33 34  1  0
 31 35  1  0
 30 36  1  0
 29 37  1  0
 12 38  1  0
 12 39  1  0
  4 40  1  0
  1 41  1  0
  1 42  1  0
  1 43  1  0
 11  2  1  0
 27 13  1  0
 33 28  1  0
M  END
>  <cnnaffinity>  (1) 
-6.15672

>  <filename>  (1) 
Cc1ncnc(C)c1Cc1nc(CCC(F)(F)F)nn1-c1cccnc1

$$$$
