
     RDKit          3D

 42 45  0  0  0  0  0  0  0  0999 V2000
    5.2437   -0.8595   25.9718 C   0  0  0  0  0  0  0  0  0  0  0  0
    6.3816   -0.0249   25.4850 C   0  0  0  0  0  0  0  0  0  0  0  0
    6.4001    0.5492   24.3175 N   0  0  0  0  0  0  0  0  0  0  0  0
    7.5516    1.2641   24.1350 C   0  0  0  0  0  0  0  0  0  0  0  0
    7.8060    1.8780   22.7911 C   0  0  0  0  0  0  0  0  0  0  0  0
    8.7765    0.9825   22.1165 C   0  0  0  0  0  0  0  0  0  0  0  0
   10.0746    1.0356   22.3690 N   0  0  0  0  0  0  0  0  0  0  0  0
   10.5282   -0.1431   21.8883 C   0  0  0  0  0  0  0  0  0  0  0  0
   11.9363   -0.5737   21.8462 C   0  0  0  0  0  0  0  0  0  0  0  0
   12.1634   -1.7771   21.1546 C   0  0  0  0  0  0  0  0  0  0  0  0
   13.3956   -2.0613   20.5951 C   0  0  0  0  0  0  0  0  0  0  0  0
   14.4062   -1.1383   20.7935 C   0  0  0  0  0  0  0  0  0  0  0  0
   15.4084   -1.1684   19.9068 F   0  0  0  0  0  0  0  0  0  0  0  0
   14.3045   -0.1064   21.7425 C   0  0  0  0  0  0  0  0  0  0  0  0
   13.0442    0.1900   22.2697 C   0  0  0  0  0  0  0  0  0  0  0  0
   12.9430    1.0631   22.9156 H   0  0  0  0  0  0  0  0  0  0  0  0
   15.1382    0.5651   21.9256 H   0  0  0  0  0  0  0  0  0  0  0  0
   13.5808   -2.9321   19.9724 H   0  0  0  0  0  0  0  0  0  0  0  0
   11.3047   -2.4092   20.9833 H   0  0  0  0  0  0  0  0  0  0  0  0
    9.5806   -0.9003   21.3465 N   0  0  0  0  0  0  0  0  0  0  0  0
    8.4625   -0.1691   21.4869 N   0  0  0  0  0  0  0  0  0  0  0  0
    7.1830   -0.7210   21.0461 C   0  0  0  0  0  0  0  0  0  0  0  0
    6.5242    0.0328   19.9128 C   0  0  0  0  0  0  0  0  0  0  0  0
    5.3013    0.6929   20.0785 C   0  0  0  0  0  0  0  0  0  0  0  0
    4.7399    1.3593   18.9873 C   0  0  0  0  0  0  0  0  0  0  0  0
    5.4248    1.3392   17.7688 C   0  0  0  0  0  0  0  0  0  0  0  0
    6.5950    0.7066   17.5855 N   0  0  0  0  0  0  0  0  0  0  0  0
    7.1256    0.0799   18.6428 C   0  0  0  0  0  0  0  0  0  0  0  0
    8.0753   -0.4264   18.4693 H   0  0  0  0  0  0  0  0  0  0  0  0
    5.0163    1.8488   16.8988 H   0  0  0  0  0  0  0  0  0  0  0  0
    3.8018    1.8980   19.0729 H   0  0  0  0  0  0  0  0  0  0  0  0
    4.8015    0.6919   21.0519 H   0  0  0  0  0  0  0  0  0  0  0  0
    7.4013   -1.7530   20.7514 H   0  0  0  0  0  0  0  0  0  0  0  0
    6.5204   -0.7629   21.9169 H   0  0  0  0  0  0  0  0  0  0  0  0
    6.8703    1.9592   22.2374 H   0  0  0  0  0  0  0  0  0  0  0  0
    8.2674    2.8630   22.8775 H   0  0  0  0  0  0  0  0  0  0  0  0
    8.4511    1.2018   25.1500 C   0  0  0  0  0  0  0  0  0  0  0  0
    7.8200    0.2429   26.4319 S   0  0  0  0  0  0  0  0  0  0  0  0
    9.4694    1.5664   25.1093 H   0  0  0  0  0  0  0  0  0  0  0  0
    5.4156   -1.9167   25.7410 H   0  0  0  0  0  0  0  0  0  0  0  0
    5.1102   -0.7596   27.0499 H   0  0  0  0  0  0  0  0  0  0  0  0
    4.3341   -0.5477   25.4576 H   0  0  0  0  0  0  0  0  0  0  0  0
  1  2  1  0
  2  3  2  0
  3  4  1  0
  4  5  1  0
  5  6  1  0
  6  7  2  0
  7  8  1  0
  8  9  1  0
  9 10  2  0
 10 11  1  0
 11 12  2  0
 12 13  1  0
 12 14  1  0
 14 15  2  0
 15 16  1  0
 14 17  1  0
 11 18  1  0
 10 19  1  0
  8 20  2  0
 20 21  1  0
 21 22  1  0
 22 23  1  0
 23 24  2  0
 24 25  1  0
 25 26  2  0
 26 27  1  0
 27 28  2  0
 28 29  1  0
 26 30  1  0
 25 31  1  0
 24 32  1  0
 22 33  1  0
 22 34  1  0
  5 35  1  0
  5 36  1  0
  4 37  2  0
 37 38  1  0
 37 39  1  0
  1 40  1  0
  1 41  1  0
  1 42  1  0
 38  2  1  0
 21  6  1  0
 28 23  1  0
 15  9  1  0
M  END
>  <cnnaffinity>  (1) 
-6.72698

>  <filename>  (1) 
Cc1nc(Cc2nc(-c3ccc(F)cc3)nn2Cc2cccnc2)cs1

$$$$
