
     RDKit          3D

 43 46  0  0  0  0  0  0  0  0999 V2000
   11.1972   -1.5376   21.6424 C   0  0  0  0  0  0  0  0  0  0  0  0
   11.8127   -0.1916   21.8249 C   0  0  0  0  0  0  0  0  0  0  0  0
   13.0067   -0.0177   22.3818 N   0  0  0  0  0  0  0  0  0  0  0  0
   13.1783    1.3156   22.4282 N   0  0  0  0  0  0  0  0  0  0  0  0
   12.1231    1.9928   21.9149 C   0  0  0  0  0  0  0  0  0  0  0  0
   11.2145    1.0517   21.4966 C   0  0  0  0  0  0  0  0  0  0  0  0
    9.8111    1.3290   21.0190 C   0  0  0  0  0  0  0  0  0  0  0  0
    8.7862    1.1329   22.0838 C   0  0  0  0  0  0  0  0  0  0  0  0
    8.7189    1.8797   23.1638 N   0  0  0  0  0  0  0  0  0  0  0  0
    7.6643    1.3595   23.8405 C   0  0  0  0  0  0  0  0  0  0  0  0
    7.2488    1.8786   25.1494 C   0  0  0  0  0  0  0  0  0  0  0  0
    6.1145    1.3381   25.7860 C   0  0  0  0  0  0  0  0  0  0  0  0
    5.7157    1.8191   27.0294 C   0  0  0  0  0  0  0  0  0  0  0  0
    6.4575    2.8346   27.6258 C   0  0  0  0  0  0  0  0  0  0  0  0
    6.0709    3.2992   28.8230 F   0  0  0  0  0  0  0  0  0  0  0  0
    7.5850    3.3870   27.0241 C   0  0  0  0  0  0  0  0  0  0  0  0
    7.9868    2.9051   25.7800 C   0  0  0  0  0  0  0  0  0  0  0  0
    8.8699    3.3170   25.2884 H   0  0  0  0  0  0  0  0  0  0  0  0
    8.1093    4.1799   27.5442 H   0  0  0  0  0  0  0  0  0  0  0  0
    4.8495    1.4304   27.5495 H   0  0  0  0  0  0  0  0  0  0  0  0
    5.5628    0.5383   25.2908 H   0  0  0  0  0  0  0  0  0  0  0  0
    7.0723    0.3481   23.2190 N   0  0  0  0  0  0  0  0  0  0  0  0
    7.8013    0.2127   22.0911 N   0  0  0  0  0  0  0  0  0  0  0  0
    7.3792   -0.6991   21.0342 C   0  0  0  0  0  0  0  0  0  0  0  0
    6.6530   -0.0088   19.8838 C   0  0  0  0  0  0  0  0  0  0  0  0
    5.4416    0.6501   20.1316 C   0  0  0  0  0  0  0  0  0  0  0  0
    4.7982    1.3093   19.0795 C   0  0  0  0  0  0  0  0  0  0  0  0
    5.3916    1.2993   17.8144 C   0  0  0  0  0  0  0  0  0  0  0  0
    6.5490    0.6721   17.5540 N   0  0  0  0  0  0  0  0  0  0  0  0
    7.1546    0.0469   18.5722 C   0  0  0  0  0  0  0  0  0  0  0  0
    8.1003   -0.4345   18.3135 H   0  0  0  0  0  0  0  0  0  0  0  0
    4.9280    1.8175   16.9736 H   0  0  0  0  0  0  0  0  0  0  0  0
    3.8657    1.8478   19.2270 H   0  0  0  0  0  0  0  0  0  0  0  0
    5.0318    0.6484   21.1428 H   0  0  0  0  0  0  0  0  0  0  0  0
    6.7320   -1.4187   21.5456 H   0  0  0  0  0  0  0  0  0  0  0  0
    8.2580   -1.2386   20.6628 H   0  0  0  0  0  0  0  0  0  0  0  0
    9.5360    0.7582   20.1250 H   0  0  0  0  0  0  0  0  0  0  0  0
    9.7350    2.3868   20.7635 H   0  0  0  0  0  0  0  0  0  0  0  0
   12.0443    3.0712   21.9187 H   0  0  0  0  0  0  0  0  0  0  0  0
   14.0375    1.6923   22.8048 H   0  0  0  0  0  0  0  0  0  0  0  0
   10.6883   -1.5659   20.6763 H   0  0  0  0  0  0  0  0  0  0  0  0
   11.9401   -2.3340   21.7039 H   0  0  0  0  0  0  0  0  0  0  0  0
   10.4367   -1.7232   22.4097 H   0  0  0  0  0  0  0  0  0  0  0  0
  1  2  1  0
  2  3  2  0
  3  4  1  0
  4  5  1  0
  5  6  2  0
  6  7  1  0
  7  8  1  0
  8  9  2  0
  9 10  1  0
 10 11  1  0
 11 12  2  0
 12 13  1  0
 13 14  2  0
 14 15  1  0
 14 16  1  0
 16 17  2  0
 17 18  1  0
 16 19  1  0
 13 20  1  0
 12 21  1  0
 10 22  2  0
 22 23  1  0
 23 24  1  0
 24 25  1  0
 25 26  2  0
 26 27  1  0
 27 28  2  0
 28 29  1  0
 29 30  2  0
 30 31  1  0
 28 32  1  0
 27 33  1  0
 26 34  1  0
 24 35  1  0
 24 36  1  0
  7 37  1  0
  7 38  1  0
  5 39  1  0
  4 40  1  0
  1 41  1  0
  1 42  1  0
  1 43  1  0
  6  2  1  0
 23  8  1  0
 30 25  1  0
 17 11  1  0
M  END
>  <cnnaffinity>  (1) 
-6.15098

>  <filename>  (1) 
Cc1n[nH]cc1Cc1nc(-c2ccc(F)cc2)nn1Cc1cccnc1

$$$$
