
     RDKit          3D

 45 48  0  0  0  0  0  0  0  0999 V2000
   11.2006   -1.5311   21.6572 C   0  0  0  0  0  0  0  0  0  0  0  0
   11.8068   -0.1808   21.8439 C   0  0  0  0  0  0  0  0  0  0  0  0
   12.9869   -0.0361   22.3962 N   0  0  0  0  0  0  0  0  0  0  0  0
   13.1895    1.3314   22.4925 O   0  0  0  0  0  0  0  0  0  0  0  0
   12.1299    1.9710   21.9918 C   0  0  0  0  0  0  0  0  0  0  0  0
   12.0341    3.4521   22.0682 C   0  0  0  0  0  0  0  0  0  0  0  0
   12.8702    3.9021   22.6002 H   0  0  0  0  0  0  0  0  0  0  0  0
   11.0970    3.6903   22.5863 H   0  0  0  0  0  0  0  0  0  0  0  0
   11.9668    3.8898   21.0678 H   0  0  0  0  0  0  0  0  0  0  0  0
   11.2156    1.0802   21.5307 C   0  0  0  0  0  0  0  0  0  0  0  0
    9.8155    1.3878   21.0471 C   0  0  0  0  0  0  0  0  0  0  0  0
    8.7589    1.1769   22.0878 C   0  0  0  0  0  0  0  0  0  0  0  0
    8.7071    1.8864   23.1952 N   0  0  0  0  0  0  0  0  0  0  0  0
    7.6586    1.3445   23.8678 C   0  0  0  0  0  0  0  0  0  0  0  0
    7.2209    1.8562   25.1755 C   0  0  0  0  0  0  0  0  0  0  0  0
    7.9468    2.8891   25.7979 C   0  0  0  0  0  0  0  0  0  0  0  0
    7.5606    3.3801   27.0411 C   0  0  0  0  0  0  0  0  0  0  0  0
    6.4402    2.8243   27.6547 C   0  0  0  0  0  0  0  0  0  0  0  0
    6.0650    3.2912   28.8537 F   0  0  0  0  0  0  0  0  0  0  0  0
    5.6950    1.8033   27.0662 C   0  0  0  0  0  0  0  0  0  0  0  0
    6.0895    1.3214   25.8206 C   0  0  0  0  0  0  0  0  0  0  0  0
    5.5353    0.5195   25.3373 H   0  0  0  0  0  0  0  0  0  0  0  0
    4.8313    1.4007   27.5842 H   0  0  0  0  0  0  0  0  0  0  0  0
    8.1079    4.1752   27.5360 H   0  0  0  0  0  0  0  0  0  0  0  0
    8.8205    3.2925   25.2927 H   0  0  0  0  0  0  0  0  0  0  0  0
    7.0714    0.3447   23.2285 N   0  0  0  0  0  0  0  0  0  0  0  0
    7.7937    0.2309   22.0918 N   0  0  0  0  0  0  0  0  0  0  0  0
    7.3710   -0.6901   21.0332 C   0  0  0  0  0  0  0  0  0  0  0  0
    6.6518   -0.0036   19.8811 C   0  0  0  0  0  0  0  0  0  0  0  0
    5.4370    0.6532   20.1262 C   0  0  0  0  0  0  0  0  0  0  0  0
    4.8048    1.3112   19.0712 C   0  0  0  0  0  0  0  0  0  0  0  0
    5.4100    1.2964   17.8119 C   0  0  0  0  0  0  0  0  0  0  0  0
    6.5597    0.6579   17.5473 N   0  0  0  0  0  0  0  0  0  0  0  0
    7.1543    0.0277   18.5702 C   0  0  0  0  0  0  0  0  0  0  0  0
    8.0911   -0.4781   18.3212 H   0  0  0  0  0  0  0  0  0  0  0  0
    4.9483    1.8194   16.9780 H   0  0  0  0  0  0  0  0  0  0  0  0
    3.8697    1.8442   19.2124 H   0  0  0  0  0  0  0  0  0  0  0  0
    5.0083    0.6684   21.1311 H   0  0  0  0  0  0  0  0  0  0  0  0
    6.7055   -1.4086   21.5209 H   0  0  0  0  0  0  0  0  0  0  0  0
    8.2453   -1.2555   20.6889 H   0  0  0  0  0  0  0  0  0  0  0  0
    9.5737    0.8015   20.1580 H   0  0  0  0  0  0  0  0  0  0  0  0
    9.7526    2.4483   20.7682 H   0  0  0  0  0  0  0  0  0  0  0  0
   10.5847   -1.7736   22.5317 H   0  0  0  0  0  0  0  0  0  0  0  0
   10.5490   -1.5380   20.7805 H   0  0  0  0  0  0  0  0  0  0  0  0
   11.9622   -2.3018   21.5340 H   0  0  0  0  0  0  0  0  0  0  0  0
  1  2  1  0
  2  3  2  0
  3  4  1  0
  4  5  1  0
  5  6  1  0
  6  7  1  0
  6  8  1  0
  6  9  1  0
  5 10  2  0
 10 11  1  0
 11 12  1  0
 12 13  2  0
 13 14  1  0
 14 15  1  0
 15 16  2  0
 16 17  1  0
 17 18  2  0
 18 19  1  0
 18 20  1  0
 20 21  2  0
 21 22  1  0
 20 23  1  0
 17 24  1  0
 16 25  1  0
 14 26  2  0
 26 27  1  0
 27 28  1  0
 28 29  1  0
 29 30  2  0
 30 31  1  0
 31 32  2  0
 32 33  1  0
 33 34  2  0
 34 35  1  0
 32 36  1  0
 31 37  1  0
 30 38  1  0
 28 39  1  0
 28 40  1  0
 11 41  1  0
 11 42  1  0
  1 43  1  0
  1 44  1  0
  1 45  1  0
 10  2  1  0
 27 12  1  0
 34 29  1  0
 21 15  1  0
M  END
>  <cnnaffinity>  (1) 
-6.25867

>  <filename>  (1) 
Cc1noc(C)c1Cc1nc(-c2ccc(F)cc2)nn1Cc1cccnc1

$$$$
