
     RDKit          3D

 42 45  0  0  0  0  0  0  0  0999 V2000
   11.1820   -1.5514   21.7157 C   0  0  0  0  0  0  0  0  0  0  0  0
   11.7914   -0.2005   21.8604 C   0  0  0  0  0  0  0  0  0  0  0  0
   12.9787   -0.0691   22.3932 N   0  0  0  0  0  0  0  0  0  0  0  0
   13.2305    1.2853   22.4431 O   0  0  0  0  0  0  0  0  0  0  0  0
   12.1792    1.9330   21.9324 C   0  0  0  0  0  0  0  0  0  0  0  0
   11.2153    1.0692   21.5265 C   0  0  0  0  0  0  0  0  0  0  0  0
    9.8121    1.3846   21.0418 C   0  0  0  0  0  0  0  0  0  0  0  0
    8.7604    1.1660   22.0833 C   0  0  0  0  0  0  0  0  0  0  0  0
    8.7066    1.8827   23.1844 N   0  0  0  0  0  0  0  0  0  0  0  0
    7.6593    1.3447   23.8583 C   0  0  0  0  0  0  0  0  0  0  0  0
    7.2258    1.8636   25.1640 C   0  0  0  0  0  0  0  0  0  0  0  0
    6.0903    1.3379   25.8082 C   0  0  0  0  0  0  0  0  0  0  0  0
    5.6982    1.8271   27.0515 C   0  0  0  0  0  0  0  0  0  0  0  0
    6.4493    2.8445   27.6377 C   0  0  0  0  0  0  0  0  0  0  0  0
    6.0758    3.3189   28.8345 F   0  0  0  0  0  0  0  0  0  0  0  0
    7.5751    3.3902   27.0243 C   0  0  0  0  0  0  0  0  0  0  0  0
    7.9604    2.8925   25.7834 C   0  0  0  0  0  0  0  0  0  0  0  0
    8.8384    3.2865   25.2766 H   0  0  0  0  0  0  0  0  0  0  0  0
    8.1238    4.1833   27.5195 H   0  0  0  0  0  0  0  0  0  0  0  0
    4.8310    1.4347   27.5712 H   0  0  0  0  0  0  0  0  0  0  0  0
    5.5324    0.5383   25.3249 H   0  0  0  0  0  0  0  0  0  0  0  0
    7.0709    0.3413   23.2257 N   0  0  0  0  0  0  0  0  0  0  0  0
    7.7920    0.2210   22.0883 N   0  0  0  0  0  0  0  0  0  0  0  0
    7.3658   -0.6983   21.0292 C   0  0  0  0  0  0  0  0  0  0  0  0
    6.6472   -0.0076   19.8788 C   0  0  0  0  0  0  0  0  0  0  0  0
    5.4353    0.6538   20.1245 C   0  0  0  0  0  0  0  0  0  0  0  0
    4.8024    1.3137   19.0702 C   0  0  0  0  0  0  0  0  0  0  0  0
    5.4065    1.2972   17.8109 C   0  0  0  0  0  0  0  0  0  0  0  0
    6.5555    0.6585   17.5487 N   0  0  0  0  0  0  0  0  0  0  0  0
    7.1521    0.0256   18.5684 C   0  0  0  0  0  0  0  0  0  0  0  0
    8.0915   -0.4738   18.3173 H   0  0  0  0  0  0  0  0  0  0  0  0
    4.9464    1.8214   16.9763 H   0  0  0  0  0  0  0  0  0  0  0  0
    3.8696    1.8482   19.2113 H   0  0  0  0  0  0  0  0  0  0  0  0
    5.0130    0.6709   21.1320 H   0  0  0  0  0  0  0  0  0  0  0  0
    8.2424   -1.2608   20.6851 H   0  0  0  0  0  0  0  0  0  0  0  0
    6.7024   -1.4171   21.5217 H   0  0  0  0  0  0  0  0  0  0  0  0
    9.7481    2.4468   20.7835 H   0  0  0  0  0  0  0  0  0  0  0  0
    9.5523    0.8154   20.1441 H   0  0  0  0  0  0  0  0  0  0  0  0
   12.2377    3.0118   21.9193 H   0  0  0  0  0  0  0  0  0  0  0  0
   10.6184   -1.6179   20.7839 H   0  0  0  0  0  0  0  0  0  0  0  0
   10.4998   -1.7389   22.5507 H   0  0  0  0  0  0  0  0  0  0  0  0
   11.9435   -2.3316   21.7172 H   0  0  0  0  0  0  0  0  0  0  0  0
  1  2  1  0
  2  3  2  0
  3  4  1  0
  4  5  1  0
  5  6  2  0
  6  7  1  0
  7  8  1  0
  8  9  2  0
  9 10  1  0
 10 11  1  0
 11 12  2  0
 12 13  1  0
 13 14  2  0
 14 15  1  0
 14 16  1  0
 16 17  2  0
 17 18  1  0
 16 19  1  0
 13 20  1  0
 12 21  1  0
 10 22  2  0
 22 23  1  0
 23 24  1  0
 24 25  1  0
 25 26  2  0
 26 27  1  0
 27 28  2  0
 28 29  1  0
 29 30  2  0
 30 31  1  0
 28 32  1  0
 27 33  1  0
 26 34  1  0
 24 35  1  0
 24 36  1  0
  7 37  1  0
  7 38  1  0
  5 39  1  0
  1 40  1  0
  1 41  1  0
  1 42  1  0
  6  2  1  0
 23  8  1  0
 30 25  1  0
 17 11  1  0
M  END
>  <cnnaffinity>  (1) 
-5.87421

>  <filename>  (1) 
Cc1nocc1Cc1nc(-c2ccc(F)cc2)nn1Cc1cccnc1

$$$$
