
     RDKit          3D

 39 42  0  0  0  0  0  0  0  0999 V2000
   11.3626    0.6216   21.7905 C   0  0  0  0  0  0  0  0  0  0  0  0
   11.0759   -0.0262   23.1047 C   0  0  0  0  0  0  0  0  0  0  0  0
   11.3724    0.5584   24.2425 N   0  0  0  0  0  0  0  0  0  0  0  0
   11.0107   -0.3311   25.2364 O   0  0  0  0  0  0  0  0  0  0  0  0
   10.5154   -1.4271   24.6602 C   0  0  0  0  0  0  0  0  0  0  0  0
   10.5050   -1.3190   23.3166 C   0  0  0  0  0  0  0  0  0  0  0  0
    9.8591   -2.2690   22.3279 C   0  0  0  0  0  0  0  0  0  0  0  0
    8.4826   -1.8282   21.8940 C   0  0  0  0  0  0  0  0  0  0  0  0
    8.1638   -1.4108   20.6908 N   0  0  0  0  0  0  0  0  0  0  0  0
    6.9775   -0.7708   20.8863 C   0  0  0  0  0  0  0  0  0  0  0  0
    6.3608    0.0137   19.8246 C   0  0  0  0  0  0  0  0  0  0  0  0
    5.1861    0.7655   19.9871 C   0  0  0  0  0  0  0  0  0  0  0  0
    4.6998    1.4497   18.8757 C   0  0  0  0  0  0  0  0  0  0  0  0
    5.4033    1.3783   17.6668 C   0  0  0  0  0  0  0  0  0  0  0  0
    6.5404    0.6831   17.5168 N   0  0  0  0  0  0  0  0  0  0  0  0
    7.0081    0.0312   18.5841 C   0  0  0  0  0  0  0  0  0  0  0  0
    7.9450   -0.5073   18.4560 H   0  0  0  0  0  0  0  0  0  0  0  0
    5.0464    1.9077   16.7847 H   0  0  0  0  0  0  0  0  0  0  0  0
    3.7973    2.0456   18.9311 H   0  0  0  0  0  0  0  0  0  0  0  0
    4.6835    0.8043   20.9566 H   0  0  0  0  0  0  0  0  0  0  0  0
    6.5193   -0.8256   22.1177 N   0  0  0  0  0  0  0  0  0  0  0  0
    7.4657   -1.5586   22.7603 N   0  0  0  0  0  0  0  0  0  0  0  0
    7.3905   -1.7980   24.1636 C   0  0  0  0  0  0  0  0  0  0  0  0
    7.5891   -3.1248   24.6667 C   0  0  0  0  0  0  0  0  0  0  0  0
    7.7185   -3.3852   26.0288 C   0  0  0  0  0  0  0  0  0  0  0  0
    7.6093   -2.1749   26.9056 C   0  0  0  0  0  0  0  0  0  0  0  0
    7.5846   -1.9036   27.1503 F   0  0  0  0  0  0  0  0  0  0  0  0
    7.3914   -0.8664   26.4741 C   0  0  0  0  0  0  0  0  0  0  0  0
    7.2285   -0.6959   25.0194 C   0  0  0  0  0  0  0  0  0  0  0  0
    7.0220    0.2883   24.6032 H   0  0  0  0  0  0  0  0  0  0  0  0
    7.3556    0.1707   26.9851 H   0  0  0  0  0  0  0  0  0  0  0  0
    7.8726   -4.4470   26.3350 H   0  0  0  0  0  0  0  0  0  0  0  0
    7.6292   -3.9433   23.9416 H   0  0  0  0  0  0  0  0  0  0  0  0
   10.4657   -2.3462   21.4212 H   0  0  0  0  0  0  0  0  0  0  0  0
    9.7924   -3.2714   22.7645 H   0  0  0  0  0  0  0  0  0  0  0  0
   10.1974   -2.2429   25.2935 H   0  0  0  0  0  0  0  0  0  0  0  0
   12.1743    1.3442   21.8953 H   0  0  0  0  0  0  0  0  0  0  0  0
   10.4814    1.1466   21.4070 H   0  0  0  0  0  0  0  0  0  0  0  0
   11.6528   -0.1318   21.0496 H   0  0  0  0  0  0  0  0  0  0  0  0
  1  2  1  0
  2  3  2  0
  3  4  1  0
  4  5  1  0
  5  6  2  0
  6  7  1  0
  7  8  1  0
  8  9  2  0
  9 10  1  0
 10 11  1  0
 11 12  2  0
 12 13  1  0
 13 14  2  0
 14 15  1  0
 15 16  2  0
 16 17  1  0
 14 18  1  0
 13 19  1  0
 12 20  1  0
 10 21  2  0
 21 22  1  0
 22 23  1  0
 23 24  2  0
 24 25  1  0
 25 26  2  0
 26 27  1  0
 26 28  1  0
 28 29  2  0
 29 30  1  0
 28 31  1  0
 25 32  1  0
 24 33  1  0
  7 34  1  0
  7 35  1  0
  5 36  1  0
  1 37  1  0
  1 38  1  0
  1 39  1  0
  6  2  1  0
 22  8  1  0
 29 23  1  0
 16 11  1  0
M  END
>  <cnnaffinity>  (1) 
-5.89445

>  <filename>  (1) 
Cc1nocc1Cc1nc(-c2cccnc2)nn1-c1ccc(F)cc1

$$$$
