
     RDKit          3D

 42 45  0  0  0  0  0  0  0  0999 V2000
   13.0541   -1.8306   22.0031 C   0  0  0  0  0  0  0  0  0  0  0  0
   12.9089   -1.6819   22.0257 C   0  0  0  0  0  0  0  0  0  0  0  0
   12.4877   -1.7427   20.7261 N   0  0  0  0  0  0  0  0  0  0  0  0
   11.0865   -0.9535   20.7830 N   0  0  0  0  0  0  0  0  0  0  0  0
   11.0315    0.1273   21.6940 C   0  0  0  0  0  0  0  0  0  0  0  0
    9.9575    1.1649   21.1727 C   0  0  0  0  0  0  0  0  0  0  0  0
    8.8000    1.1659   22.1006 C   0  0  0  0  0  0  0  0  0  0  0  0
    8.7466    1.9054   23.1776 N   0  0  0  0  0  0  0  0  0  0  0  0
    7.6554    1.4310   23.8350 C   0  0  0  0  0  0  0  0  0  0  0  0
    7.2482    1.9785   25.1441 C   0  0  0  0  0  0  0  0  0  0  0  0
    6.0835    1.5271   25.7931 C   0  0  0  0  0  0  0  0  0  0  0  0
    5.7273    2.0614   27.0322 C   0  0  0  0  0  0  0  0  0  0  0  0
    6.5198    3.0440   27.6357 C   0  0  0  0  0  0  0  0  0  0  0  0
    7.6758    3.4984   26.9925 C   0  0  0  0  0  0  0  0  0  0  0  0
    8.0433    2.9683   25.7571 C   0  0  0  0  0  0  0  0  0  0  0  0
    8.9438    3.3150   25.2515 H   0  0  0  0  0  0  0  0  0  0  0  0
    8.2898    4.2698   27.4484 H   0  0  0  0  0  0  0  0  0  0  0  0
    6.2403    3.4501   28.6028 H   0  0  0  0  0  0  0  0  0  0  0  0
    4.8271    1.7084   27.5277 H   0  0  0  0  0  0  0  0  0  0  0  0
    5.4672    0.7627   25.3219 H   0  0  0  0  0  0  0  0  0  0  0  0
    7.0343    0.4490   23.1985 N   0  0  0  0  0  0  0  0  0  0  0  0
    7.7861    0.2738   22.0867 N   0  0  0  0  0  0  0  0  0  0  0  0
    7.3693   -0.6647   21.0436 C   0  0  0  0  0  0  0  0  0  0  0  0
    6.6610   -0.0003   19.8782 C   0  0  0  0  0  0  0  0  0  0  0  0
    5.4571    0.6801   20.1034 C   0  0  0  0  0  0  0  0  0  0  0  0
    4.8423    1.3282   19.0302 C   0  0  0  0  0  0  0  0  0  0  0  0
    5.4494    1.2722   17.7721 C   0  0  0  0  0  0  0  0  0  0  0  0
    6.5906    0.6096   17.5295 N   0  0  0  0  0  0  0  0  0  0  0  0
    7.1678   -0.0081   18.5689 C   0  0  0  0  0  0  0  0  0  0  0  0
    8.0916   -0.5436   18.3413 H   0  0  0  0  0  0  0  0  0  0  0  0
    4.9985    1.7773   16.9201 H   0  0  0  0  0  0  0  0  0  0  0  0
    3.9184    1.8827   19.1584 H   0  0  0  0  0  0  0  0  0  0  0  0
    5.0258    0.7088   21.1072 H   0  0  0  0  0  0  0  0  0  0  0  0
    6.7069   -1.3779   21.5422 H   0  0  0  0  0  0  0  0  0  0  0  0
    8.2604   -1.2090   20.7141 H   0  0  0  0  0  0  0  0  0  0  0  0
    9.6114    0.9210   20.1641 H   0  0  0  0  0  0  0  0  0  0  0  0
   10.3628    2.1849   21.1579 H   0  0  0  0  0  0  0  0  0  0  0  0
   11.6373    0.1647   22.7519 N   0  0  0  0  0  0  0  0  0  0  0  0
   10.7963   -0.7094   19.8416 H   0  0  0  0  0  0  0  0  0  0  0  0
   13.5711   -0.7153   22.4549 H   0  0  0  0  0  0  0  0  0  0  0  0
   12.0985   -2.1503   22.8455 H   0  0  0  0  0  0  0  0  0  0  0  0
   13.9313   -2.7207   22.0543 H   0  0  0  0  0  0  0  0  0  0  0  0
  1  2  1  0
  2  3  2  0
  3  4  1  0
  4  5  1  0
  5  6  1  0
  6  7  1  0
  7  8  2  0
  8  9  1  0
  9 10  1  0
 10 11  2  0
 11 12  1  0
 12 13  2  0
 13 14  1  0
 14 15  2  0
 15 16  1  0
 14 17  1  0
 13 18  1  0
 12 19  1  0
 11 20  1  0
  9 21  2  0
 21 22  1  0
 22 23  1  0
 23 24  1  0
 24 25  2  0
 25 26  1  0
 26 27  2  0
 27 28  1  0
 28 29  2  0
 29 30  1  0
 27 31  1  0
 26 32  1  0
 25 33  1  0
 23 34  1  0
 23 35  1  0
  6 36  1  0
  6 37  1  0
  5 38  2  0
  4 39  1  0
  1 40  1  0
  1 41  1  0
  1 42  1  0
 38  2  1  0
 22  7  1  0
 29 24  1  0
 15 10  1  0
M  END
>  <cnnaffinity>  (1) 
-6.15412

>  <filename>  (1) 
Cc1n[nH]c(Cc2nc(-c3ccccc3)nn2Cc2cccnc2)n1

$$$$
