
     RDKit          3D

 53 56  0  0  0  0  0  0  0  0999 V2000
    8.6400    2.7419   22.1470 C   0  0  0  0  0  0  0  0  0  0  0  0
    9.9789    2.1517   22.4763 C   0  0  0  0  0  0  0  0  0  0  0  0
   10.6508    2.7172   23.4801 N   0  0  0  0  0  0  0  0  0  0  0  0
   11.8123    2.1659   23.8117 C   0  0  0  0  0  0  0  0  0  0  0  0
   12.3661    1.0945   23.2617 N   0  0  0  0  0  0  0  0  0  0  0  0
   11.6701    0.5044   22.2851 C   0  0  0  0  0  0  0  0  0  0  0  0
   12.1838   -0.8196   21.8018 C   0  0  0  0  0  0  0  0  0  0  0  0
   11.4978   -1.6074   22.1326 H   0  0  0  0  0  0  0  0  0  0  0  0
   12.2316   -0.8863   20.7146 H   0  0  0  0  0  0  0  0  0  0  0  0
   13.1751   -1.0116   22.2149 H   0  0  0  0  0  0  0  0  0  0  0  0
   10.4697    1.0362   21.7919 C   0  0  0  0  0  0  0  0  0  0  0  0
    9.6242    0.2974   20.7696 C   0  0  0  0  0  0  0  0  0  0  0  0
    8.5866   -0.6042   21.3594 C   0  0  0  0  0  0  0  0  0  0  0  0
    8.8192   -1.4683   22.3234 N   0  0  0  0  0  0  0  0  0  0  0  0
    7.6017   -2.0317   22.5321 C   0  0  0  0  0  0  0  0  0  0  0  0
    7.3953   -3.0125   23.6371 C   0  0  0  0  0  0  0  0  0  0  0  0
    8.3302   -4.2402   23.4921 C   0  0  0  0  0  0  0  0  0  0  0  0
    8.0983   -5.2477   24.6292 C   0  0  0  0  0  0  0  0  0  0  0  0
    8.2430   -4.6270   26.0373 C   0  0  0  0  0  0  0  0  0  0  0  0
    9.7107   -4.3430   26.3965 C   0  0  0  0  0  0  0  0  0  0  0  0
   10.1597   -3.6130   25.7135 H   0  0  0  0  0  0  0  0  0  0  0  0
    9.7971   -3.9404   27.4117 H   0  0  0  0  0  0  0  0  0  0  0  0
   10.3189   -5.2537   26.3437 H   0  0  0  0  0  0  0  0  0  0  0  0
    7.3573   -3.3658   26.1614 C   0  0  0  0  0  0  0  0  0  0  0  0
    7.5815   -2.3484   25.0306 C   0  0  0  0  0  0  0  0  0  0  0  0
    8.5931   -1.9169   25.1012 H   0  0  0  0  0  0  0  0  0  0  0  0
    6.8890   -1.5031   25.1452 H   0  0  0  0  0  0  0  0  0  0  0  0
    6.2989   -3.6690   26.1504 H   0  0  0  0  0  0  0  0  0  0  0  0
    7.5294   -2.8899   27.1362 H   0  0  0  0  0  0  0  0  0  0  0  0
    7.8695   -5.3648   26.7630 H   0  0  0  0  0  0  0  0  0  0  0  0
    8.7903   -6.0943   24.5293 H   0  0  0  0  0  0  0  0  0  0  0  0
    7.0838   -5.6621   24.5246 H   0  0  0  0  0  0  0  0  0  0  0  0
    8.1686   -4.7248   22.5205 H   0  0  0  0  0  0  0  0  0  0  0  0
    9.3791   -3.9030   23.4878 H   0  0  0  0  0  0  0  0  0  0  0  0
    6.3501   -3.3341   23.5373 H   0  0  0  0  0  0  0  0  0  0  0  0
    6.6486   -1.6039   21.7294 N   0  0  0  0  0  0  0  0  0  0  0  0
    7.2955   -0.7020   20.9442 N   0  0  0  0  0  0  0  0  0  0  0  0
    6.6255   -0.0206   19.8904 C   0  0  0  0  0  0  0  0  0  0  0  0
    5.4193    0.6350   20.1499 C   0  0  0  0  0  0  0  0  0  0  0  0
    4.7996    1.3156   19.0979 C   0  0  0  0  0  0  0  0  0  0  0  0
    5.3931    1.3004   17.8295 C   0  0  0  0  0  0  0  0  0  0  0  0
    6.5425    0.6601   17.5683 N   0  0  0  0  0  0  0  0  0  0  0  0
    7.1444    0.0270   18.5817 C   0  0  0  0  0  0  0  0  0  0  0  0
    8.0959   -0.4477   18.3444 H   0  0  0  0  0  0  0  0  0  0  0  0
    4.9334    1.8149   16.9881 H   0  0  0  0  0  0  0  0  0  0  0  0
    3.8707    1.8546   19.2481 H   0  0  0  0  0  0  0  0  0  0  0  0
    5.0067    0.5943   21.1587 H   0  0  0  0  0  0  0  0  0  0  0  0
   10.2345   -0.3823   20.1685 H   0  0  0  0  0  0  0  0  0  0  0  0
    9.1387    1.0151   20.1080 H   0  0  0  0  0  0  0  0  0  0  0  0
   12.3421    2.6307   24.6369 H   0  0  0  0  0  0  0  0  0  0  0  0
    8.3980    3.5345   22.8559 H   0  0  0  0  0  0  0  0  0  0  0  0
    8.6413    3.1534   21.1337 H   0  0  0  0  0  0  0  0  0  0  0  0
    7.8592    1.9754   22.1870 H   0  0  0  0  0  0  0  0  0  0  0  0
  1  2  1  0
  2  3  2  0
  3  4  1  0
  4  5  2  0
  5  6  1  0
  6  7  1  0
  7  8  1  0
  7  9  1  0
  7 10  1  0
  6 11  2  0
 11 12  1  0
 12 13  1  0
 13 14  2  0
 14 15  1  0
 15 16  1  0
 16 17  1  0
 17 18  1  0
 18 19  1  0
 19 20  1  0
 20 21  1  0
 20 22  1  0
 20 23  1  0
 19 24  1  0
 24 25  1  0
 25 26  1  0
 25 27  1  0
 24 28  1  0
 24 29  1  0
 19 30  1  0
 18 31  1  0
 18 32  1  0
 17 33  1  0
 17 34  1  0
 16 35  1  0
 15 36  2  0
 36 37  1  0
 37 38  1  0
 38 39  2  0
 39 40  1  0
 40 41  2  0
 41 42  1  0
 42 43  2  0
 43 44  1  0
 41 45  1  0
 40 46  1  0
 39 47  1  0
 12 48  1  0
 12 49  1  0
  4 50  1  0
  1 51  1  0
  1 52  1  0
  1 53  1  0
 11  2  1  0
 37 13  1  0
 43 38  1  0
 25 16  1  0
M  END
>  <cnnaffinity>  (1) 
-6.83399

>  <filename>  (1) 
Cc1ncnc(C)c1Cc1nc(C2CCC(C)CC2)nn1-c1cccnc1

$$$$
