
     RDKit          3D

 49 52  0  0  0  0  0  0  0  0999 V2000
   13.6211    3.3035   22.7052 C   0  0  0  0  0  0  0  0  0  0  0  0
   12.6731    2.2581   22.2068 C   0  0  0  0  0  0  0  0  0  0  0  0
   11.5083    2.6074   21.6941 N   0  0  0  0  0  0  0  0  0  0  0  0
   10.8671    1.4590   21.4221 N   0  0  0  0  0  0  0  0  0  0  0  0
    9.4821    1.5341   21.0008 C   0  0  0  0  0  0  0  0  0  0  0  0
    8.5688    1.1756   22.1179 C   0  0  0  0  0  0  0  0  0  0  0  0
    8.5040    1.8474   23.2394 N   0  0  0  0  0  0  0  0  0  0  0  0
    7.5526    1.1907   23.9536 C   0  0  0  0  0  0  0  0  0  0  0  0
    7.1490    1.6978   25.2889 C   0  0  0  0  0  0  0  0  0  0  0  0
    7.7555    2.8727   25.7856 C   0  0  0  0  0  0  0  0  0  0  0  0
    7.3362    3.3966   26.9995 C   0  0  0  0  0  0  0  0  0  0  0  0
    7.9256    4.5098   27.4634 F   0  0  0  0  0  0  0  0  0  0  0  0
    6.3176    2.8060   27.7444 C   0  0  0  0  0  0  0  0  0  0  0  0
    5.7310    1.6337   27.2585 C   0  0  0  0  0  0  0  0  0  0  0  0
    6.1407    1.0717   26.0480 C   0  0  0  0  0  0  0  0  0  0  0  0
    5.6706    0.1666   25.6681 H   0  0  0  0  0  0  0  0  0  0  0  0
    4.9214    1.1701   27.8175 H   0  0  0  0  0  0  0  0  0  0  0  0
    5.9871    3.2936   28.6543 H   0  0  0  0  0  0  0  0  0  0  0  0
    8.5330    3.3902   25.2284 H   0  0  0  0  0  0  0  0  0  0  0  0
    7.0361    0.1453   23.3190 N   0  0  0  0  0  0  0  0  0  0  0  0
    7.6920    0.1484   22.1334 N   0  0  0  0  0  0  0  0  0  0  0  0
    7.3164   -0.7372   21.0345 C   0  0  0  0  0  0  0  0  0  0  0  0
    6.6577   -0.0155   19.8730 C   0  0  0  0  0  0  0  0  0  0  0  0
    5.4668    0.6886   20.0916 C   0  0  0  0  0  0  0  0  0  0  0  0
    4.8738    1.3475   19.0142 C   0  0  0  0  0  0  0  0  0  0  0  0
    5.4877    1.2834   17.7598 C   0  0  0  0  0  0  0  0  0  0  0  0
    6.6207    0.6024   17.5296 N   0  0  0  0  0  0  0  0  0  0  0  0
    7.1805   -0.0253   18.5710 C   0  0  0  0  0  0  0  0  0  0  0  0
    8.0953   -0.5796   18.3432 H   0  0  0  0  0  0  0  0  0  0  0  0
    5.0524    1.7943   16.9020 H   0  0  0  0  0  0  0  0  0  0  0  0
    3.9526    1.9078   19.1312 H   0  0  0  0  0  0  0  0  0  0  0  0
    5.0210    0.7062   21.0892 H   0  0  0  0  0  0  0  0  0  0  0  0
    6.6397   -1.4770   21.4669 H   0  0  0  0  0  0  0  0  0  0  0  0
    8.1965   -1.2887   20.6822 H   0  0  0  0  0  0  0  0  0  0  0  0
    9.3230    0.9243   20.1073 H   0  0  0  0  0  0  0  0  0  0  0  0
    9.2970    2.5826   20.7532 H   0  0  0  0  0  0  0  0  0  0  0  0
   11.6037    0.3664   21.7822 C   0  0  0  0  0  0  0  0  0  0  0  0
   11.1045   -1.0518   21.7367 C   0  0  0  0  0  0  0  0  0  0  0  0
   11.9386   -1.7594   21.6614 H   0  0  0  0  0  0  0  0  0  0  0  0
   10.4339   -1.2289   20.8867 H   0  0  0  0  0  0  0  0  0  0  0  0
   10.5575   -1.2893   22.6589 H   0  0  0  0  0  0  0  0  0  0  0  0
   12.8151    0.8528   22.2489 C   0  0  0  0  0  0  0  0  0  0  0  0
   14.0620    0.0965   22.6031 C   0  0  0  0  0  0  0  0  0  0  0  0
   14.9454    0.7416   22.5232 H   0  0  0  0  0  0  0  0  0  0  0  0
   14.2174   -0.7618   21.9359 H   0  0  0  0  0  0  0  0  0  0  0  0
   14.0429   -0.2752   23.6323 H   0  0  0  0  0  0  0  0  0  0  0  0
   14.6565    3.0731   22.4316 H   0  0  0  0  0  0  0  0  0  0  0  0
   13.3418    4.2729   22.2895 H   0  0  0  0  0  0  0  0  0  0  0  0
   13.5685    3.3727   23.7945 H   0  0  0  0  0  0  0  0  0  0  0  0
  1  2  1  0
  2  3  2  0
  3  4  1  0
  4  5  1  0
  5  6  1  0
  6  7  2  0
  7  8  1  0
  8  9  1  0
  9 10  2  0
 10 11  1  0
 11 12  1  0
 11 13  2  0
 13 14  1  0
 14 15  2  0
 15 16  1  0
 14 17  1  0
 13 18  1  0
 10 19  1  0
  8 20  2  0
 20 21  1  0
 21 22  1  0
 22 23  1  0
 23 24  2  0
 24 25  1  0
 25 26  2  0
 26 27  1  0
 27 28  2  0
 28 29  1  0
 26 30  1  0
 25 31  1  0
 24 32  1  0
 22 33  1  0
 22 34  1  0
  5 35  1  0
  5 36  1  0
  4 37  1  0
 37 38  1  0
 38 39  1  0
 38 40  1  0
 38 41  1  0
 37 42  2  0
 42 43  1  0
 43 44  1  0
 43 45  1  0
 43 46  1  0
  1 47  1  0
  1 48  1  0
  1 49  1  0
 42  2  1  0
 21  6  1  0
 28 23  1  0
 15  9  1  0
M  END
>  <cnnaffinity>  (1) 
-6.72437

>  <filename>  (1) 
Cc1nn(Cc2nc(-c3cccc(F)c3)nn2Cc2cccnc2)c(C)c1C

$$$$
