
     RDKit          3D

 39 42  0  0  0  0  0  0  0  0999 V2000
    8.3321    4.2729   24.2898 C   0  0  0  0  0  0  0  0  0  0  0  0
    8.5362    3.3783   23.1159 C   0  0  0  0  0  0  0  0  0  0  0  0
    9.2365    2.2700   23.1212 N   0  0  0  0  0  0  0  0  0  0  0  0
    9.1421    1.7619   21.8571 C   0  0  0  0  0  0  0  0  0  0  0  0
    9.7119    0.4372   21.5049 C   0  0  0  0  0  0  0  0  0  0  0  0
    8.6993   -0.6333   21.7268 C   0  0  0  0  0  0  0  0  0  0  0  0
    8.8210   -1.5259   22.6664 N   0  0  0  0  0  0  0  0  0  0  0  0
    7.6290   -2.1882   22.6499 C   0  0  0  0  0  0  0  0  0  0  0  0
    7.3488   -3.2329   23.6930 C   0  0  0  0  0  0  0  0  0  0  0  0
    6.1217   -3.9207   23.8517 C   0  0  0  0  0  0  0  0  0  0  0  0
    6.0086   -4.8423   24.8989 C   0  0  0  0  0  0  0  0  0  0  0  0
    6.9870   -5.1173   25.7759 N   0  0  0  0  0  0  0  0  0  0  0  0
    8.1232   -4.4577   25.6218 C   0  0  0  0  0  0  0  0  0  0  0  0
    9.3942   -4.7561   26.7656 Cl  0  0  0  0  0  0  0  0  0  0  0  0
    8.3697   -3.5257   24.6146 C   0  0  0  0  0  0  0  0  0  0  0  0
    9.3259   -3.0170   24.5525 H   0  0  0  0  0  0  0  0  0  0  0  0
    5.0844   -5.3915   25.0531 H   0  0  0  0  0  0  0  0  0  0  0  0
    5.2665   -3.7436   23.2049 H   0  0  0  0  0  0  0  0  0  0  0  0
    6.7972   -1.7773   21.7143 N   0  0  0  0  0  0  0  0  0  0  0  0
    7.4970   -0.7891   21.0835 N   0  0  0  0  0  0  0  0  0  0  0  0
    6.8547   -0.0784   20.0114 C   0  0  0  0  0  0  0  0  0  0  0  0
    5.6392    0.5768   20.2560 C   0  0  0  0  0  0  0  0  0  0  0  0
    5.0189    1.2389   19.1953 C   0  0  0  0  0  0  0  0  0  0  0  0
    5.6239    1.2216   17.9345 C   0  0  0  0  0  0  0  0  0  0  0  0
    6.7767    0.5806   17.6860 N   0  0  0  0  0  0  0  0  0  0  0  0
    7.3681   -0.0644   18.7003 C   0  0  0  0  0  0  0  0  0  0  0  0
    8.2827   -0.6054   18.4527 H   0  0  0  0  0  0  0  0  0  0  0  0
    5.1682    1.7431   17.0969 H   0  0  0  0  0  0  0  0  0  0  0  0
    4.0758    1.7554   19.3348 H   0  0  0  0  0  0  0  0  0  0  0  0
    5.1994    0.5403   21.2552 H   0  0  0  0  0  0  0  0  0  0  0  0
   10.0363    0.4154   20.4687 H   0  0  0  0  0  0  0  0  0  0  0  0
   10.5703    0.2191   22.1462 H   0  0  0  0  0  0  0  0  0  0  0  0
    8.3535    2.5462   21.0854 C   0  0  0  0  0  0  0  0  0  0  0  0
    7.9805    3.5996   21.8941 N   0  0  0  0  0  0  0  0  0  0  0  0
    7.3830    4.3687   21.6440 H   0  0  0  0  0  0  0  0  0  0  0  0
    8.0260    2.3739   20.0751 H   0  0  0  0  0  0  0  0  0  0  0  0
    9.0979    5.0535   24.3348 H   0  0  0  0  0  0  0  0  0  0  0  0
    8.4147    3.6701   25.1952 H   0  0  0  0  0  0  0  0  0  0  0  0
    7.3456    4.7422   24.2606 H   0  0  0  0  0  0  0  0  0  0  0  0
  1  2  1  0
  2  3  2  0
  3  4  1  0
  4  5  1  0
  5  6  1  0
  6  7  2  0
  7  8  1  0
  8  9  1  0
  9 10  2  0
 10 11  1  0
 11 12  2  0
 12 13  1  0
 13 14  1  0
 13 15  2  0
 15 16  1  0
 11 17  1  0
 10 18  1  0
  8 19  2  0
 19 20  1  0
 20 21  1  0
 21 22  2  0
 22 23  1  0
 23 24  2  0
 24 25  1  0
 25 26  2  0
 26 27  1  0
 24 28  1  0
 23 29  1  0
 22 30  1  0
  5 31  1  0
  5 32  1  0
  4 33  2  0
 33 34  1  0
 34 35  1  0
 33 36  1  0
  1 37  1  0
  1 38  1  0
  1 39  1  0
 34  2  1  0
 20  6  1  0
 26 21  1  0
 15  9  1  0
M  END
>  <cnnaffinity>  (1) 
-6.19002

>  <filename>  (1) 
Cc1nc(Cc2nc(-c3ccnc(Cl)c3)nn2-c2cccnc2)c[nH]1

$$$$
