
     RDKit          3D

 41 44  0  0  0  0  0  0  0  0999 V2000
   12.4057   -1.2268   21.5913 C   0  0  0  0  0  0  0  0  0  0  0  0
   11.8955    0.0909   22.0393 C   0  0  0  0  0  0  0  0  0  0  0  0
   12.4894    0.7660   23.0128 N   0  0  0  0  0  0  0  0  0  0  0  0
   11.6944    1.8304   23.2172 N   0  0  0  0  0  0  0  0  0  0  0  0
   10.6031    1.8394   22.4176 C   0  0  0  0  0  0  0  0  0  0  0  0
   10.6970    0.7283   21.6135 C   0  0  0  0  0  0  0  0  0  0  0  0
    9.6505    0.1920   20.6666 C   0  0  0  0  0  0  0  0  0  0  0  0
    8.6017   -0.6604   21.3118 C   0  0  0  0  0  0  0  0  0  0  0  0
    8.8023   -1.5200   22.2880 N   0  0  0  0  0  0  0  0  0  0  0  0
    7.5655   -2.0480   22.5052 C   0  0  0  0  0  0  0  0  0  0  0  0
    7.3647   -2.9668   23.6890 C   0  0  0  0  0  0  0  0  0  0  0  0
    6.8751   -2.2107   24.9580 C   0  0  0  0  0  0  0  0  0  0  0  0
    5.9846   -3.2400   25.6552 C   0  0  0  0  0  0  0  0  0  0  0  0
    5.4446   -4.0605   24.4859 C   0  0  0  0  0  0  0  0  0  0  0  0
    6.4476   -4.0313   23.4761 O   0  0  0  0  0  0  0  0  0  0  0  0
    4.5136   -3.6307   24.0852 H   0  0  0  0  0  0  0  0  0  0  0  0
    5.2680   -5.1105   24.7441 H   0  0  0  0  0  0  0  0  0  0  0  0
    5.1778   -2.7808   26.2332 H   0  0  0  0  0  0  0  0  0  0  0  0
    6.5679   -3.8721   26.3343 H   0  0  0  0  0  0  0  0  0  0  0  0
    7.7145   -1.8722   25.5741 H   0  0  0  0  0  0  0  0  0  0  0  0
    6.2886   -1.3285   24.6681 H   0  0  0  0  0  0  0  0  0  0  0  0
    8.3588   -3.4020   23.8513 H   0  0  0  0  0  0  0  0  0  0  0  0
    6.6189   -1.5697   21.7189 N   0  0  0  0  0  0  0  0  0  0  0  0
    7.2936   -0.7120   20.9159 N   0  0  0  0  0  0  0  0  0  0  0  0
    6.6240   -0.0154   19.8707 C   0  0  0  0  0  0  0  0  0  0  0  0
    5.4152    0.6363   20.1342 C   0  0  0  0  0  0  0  0  0  0  0  0
    4.7960    1.3187   19.0858 C   0  0  0  0  0  0  0  0  0  0  0  0
    5.3947    1.3067   17.8212 C   0  0  0  0  0  0  0  0  0  0  0  0
    6.5383    0.6600   17.5546 N   0  0  0  0  0  0  0  0  0  0  0  0
    7.1400    0.0199   18.5617 C   0  0  0  0  0  0  0  0  0  0  0  0
    8.0774   -0.4841   18.3213 H   0  0  0  0  0  0  0  0  0  0  0  0
    4.9349    1.8384   16.9919 H   0  0  0  0  0  0  0  0  0  0  0  0
    3.8674    1.8553   19.2442 H   0  0  0  0  0  0  0  0  0  0  0  0
    4.9934    0.5897   21.1370 H   0  0  0  0  0  0  0  0  0  0  0  0
   10.1103   -0.4462   19.9045 H   0  0  0  0  0  0  0  0  0  0  0  0
    9.1562    1.0104   20.1387 H   0  0  0  0  0  0  0  0  0  0  0  0
    9.8519    2.6164   22.4889 H   0  0  0  0  0  0  0  0  0  0  0  0
   11.9054    2.4376   23.9885 H   0  0  0  0  0  0  0  0  0  0  0  0
   12.5608   -1.2670   20.5105 H   0  0  0  0  0  0  0  0  0  0  0  0
   11.6712   -1.9907   21.8621 H   0  0  0  0  0  0  0  0  0  0  0  0
   13.3494   -1.4480   22.0878 H   0  0  0  0  0  0  0  0  0  0  0  0
  1  2  1  0
  2  3  2  0
  3  4  1  0
  4  5  1  0
  5  6  2  0
  6  7  1  0
  7  8  1  0
  8  9  2  0
  9 10  1  0
 10 11  1  0
 11 12  1  0
 12 13  1  0
 13 14  1  0
 14 15  1  0
 14 16  1  0
 14 17  1  0
 13 18  1  0
 13 19  1  0
 12 20  1  0
 12 21  1  0
 11 22  1  0
 10 23  2  0
 23 24  1  0
 24 25  1  0
 25 26  2  0
 26 27  1  0
 27 28  2  0
 28 29  1  0
 29 30  2  0
 30 31  1  0
 28 32  1  0
 27 33  1  0
 26 34  1  0
  7 35  1  0
  7 36  1  0
  5 37  1  0
  4 38  1  0
  1 39  1  0
  1 40  1  0
  1 41  1  0
  6  2  1  0
 24  8  1  0
 30 25  1  0
 15 11  1  0
M  END
>  <cnnaffinity>  (1) 
-6.04108

>  <filename>  (1) 
Cc1n[nH]cc1Cc1nc(C2CCCO2)nn1-c1cccnc1

$$$$
