
     RDKit          3D

 42 45  0  0  0  0  0  0  0  0999 V2000
    7.2315    1.6462   26.4251 C   0  0  0  0  0  0  0  0  0  0  0  0
    8.0270    1.8430   25.1821 C   0  0  0  0  0  0  0  0  0  0  0  0
    9.3170    1.9917   25.1577 N   0  0  0  0  0  0  0  0  0  0  0  0
    9.7529    2.1031   23.8620 C   0  0  0  0  0  0  0  0  0  0  0  0
    8.8112    2.0819   22.8808 C   0  0  0  0  0  0  0  0  0  0  0  0
    9.0286    2.0182   21.3953 C   0  0  0  0  0  0  0  0  0  0  0  0
    9.5265    0.6181   20.9380 C   0  0  0  0  0  0  0  0  0  0  0  0
    8.6437   -0.4904   21.4052 C   0  0  0  0  0  0  0  0  0  0  0  0
    8.8819   -1.3048   22.4154 N   0  0  0  0  0  0  0  0  0  0  0  0
    7.6825   -1.9140   22.5993 C   0  0  0  0  0  0  0  0  0  0  0  0
    7.4054   -2.7864   23.7779 C   0  0  0  0  0  0  0  0  0  0  0  0
    6.4670   -2.1494   24.8578 C   0  0  0  0  0  0  0  0  0  0  0  0
    5.4319   -3.2657   24.5939 C   0  0  0  0  0  0  0  0  0  0  0  0
    6.3700   -3.9229   23.5558 C   0  0  0  0  0  0  0  0  0  0  0  0
    6.7296   -4.9196   23.8237 H   0  0  0  0  0  0  0  0  0  0  0  0
    5.9755   -3.9631   22.5354 H   0  0  0  0  0  0  0  0  0  0  0  0
    5.1927   -3.8861   25.4614 H   0  0  0  0  0  0  0  0  0  0  0  0
    4.4842   -2.9133   24.1767 H   0  0  0  0  0  0  0  0  0  0  0  0
    6.8858   -2.1340   25.8698 H   0  0  0  0  0  0  0  0  0  0  0  0
    6.1328   -1.1350   24.6077 H   0  0  0  0  0  0  0  0  0  0  0  0
    8.3710   -3.1108   24.1690 H   0  0  0  0  0  0  0  0  0  0  0  0
    6.7487   -1.5751   21.7297 N   0  0  0  0  0  0  0  0  0  0  0  0
    7.3721   -0.6666   20.9392 N   0  0  0  0  0  0  0  0  0  0  0  0
    6.6598    0.0034   19.9027 C   0  0  0  0  0  0  0  0  0  0  0  0
    5.4407    0.6400   20.1687 C   0  0  0  0  0  0  0  0  0  0  0  0
    4.8142    1.3084   19.1109 C   0  0  0  0  0  0  0  0  0  0  0  0
    5.4010    1.2954   17.8387 C   0  0  0  0  0  0  0  0  0  0  0  0
    6.5607    0.6737   17.5768 N   0  0  0  0  0  0  0  0  0  0  0  0
    7.1690    0.0527   18.5936 C   0  0  0  0  0  0  0  0  0  0  0  0
    8.1138   -0.4345   18.3681 H   0  0  0  0  0  0  0  0  0  0  0  0
    4.9195    1.7853   16.9946 H   0  0  0  0  0  0  0  0  0  0  0  0
    3.8815    1.8385   19.2616 H   0  0  0  0  0  0  0  0  0  0  0  0
    5.0114    0.6075   21.1732 H   0  0  0  0  0  0  0  0  0  0  0  0
    9.6027    0.5975   19.8498 H   0  0  0  0  0  0  0  0  0  0  0  0
   10.5197    0.4116   21.3424 H   0  0  0  0  0  0  0  0  0  0  0  0
    8.1026    2.2648   20.8630 H   0  0  0  0  0  0  0  0  0  0  0  0
    9.7752    2.7660   21.1047 H   0  0  0  0  0  0  0  0  0  0  0  0
    7.2649    1.8808   23.6293 S   0  0  0  0  0  0  0  0  0  0  0  0
   10.8179    2.1888   23.6788 H   0  0  0  0  0  0  0  0  0  0  0  0
    7.1462    0.5771   26.6419 H   0  0  0  0  0  0  0  0  0  0  0  0
    7.7392    2.1054   27.2742 H   0  0  0  0  0  0  0  0  0  0  0  0
    6.2214    2.0439   26.3229 H   0  0  0  0  0  0  0  0  0  0  0  0
  1  2  1  0
  2  3  2  0
  3  4  1  0
  4  5  2  0
  5  6  1  0
  6  7  1  0
  7  8  1  0
  8  9  2  0
  9 10  1  0
 10 11  1  0
 11 12  1  0
 12 13  1  0
 13 14  1  0
 14 15  1  0
 14 16  1  0
 13 17  1  0
 13 18  1  0
 12 19  1  0
 12 20  1  0
 11 21  1  0
 10 22  2  0
 22 23  1  0
 23 24  1  0
 24 25  2  0
 25 26  1  0
 26 27  2  0
 27 28  1  0
 28 29  2  0
 29 30  1  0
 27 31  1  0
 26 32  1  0
 25 33  1  0
  7 34  1  0
  7 35  1  0
  6 36  1  0
  6 37  1  0
  5 38  1  0
  4 39  1  0
  1 40  1  0
  1 41  1  0
  1 42  1  0
 38  2  1  0
 23  8  1  0
 29 24  1  0
 14 11  1  0
M  END
>  <cnnaffinity>  (1) 
-6.20501

>  <filename>  (1) 
Cc1ncc(CCc2nc(C3CCC3)nn2-c2cccnc2)s1

$$$$
