
     RDKit          3D

 45 48  0  0  0  0  0  0  0  0999 V2000
    9.6567    2.2471   21.1216 C   0  0  0  0  0  0  0  0  0  0  0  0
    9.7724    2.2304   22.6124 C   0  0  0  0  0  0  0  0  0  0  0  0
   10.9337    2.6638   23.1141 N   0  0  0  0  0  0  0  0  0  0  0  0
   11.1429    2.5287   24.4272 C   0  0  0  0  0  0  0  0  0  0  0  0
   10.2177    1.9614   25.2984 C   0  0  0  0  0  0  0  0  0  0  0  0
    8.9731    1.5862   24.7852 C   0  0  0  0  0  0  0  0  0  0  0  0
    8.7235    1.7344   23.4195 C   0  0  0  0  0  0  0  0  0  0  0  0
    7.4194    1.2265   22.8016 C   0  0  0  0  0  0  0  0  0  0  0  0
    7.5422   -0.1627   22.2313 C   0  0  0  0  0  0  0  0  0  0  0  0
    8.0376   -1.1672   22.9269 N   0  0  0  0  0  0  0  0  0  0  0  0
    8.0791   -2.1860   22.0369 C   0  0  0  0  0  0  0  0  0  0  0  0
    8.6362   -3.5414   22.3863 C   0  0  0  0  0  0  0  0  0  0  0  0
    8.6733   -3.8978   23.8976 C   0  0  0  0  0  0  0  0  0  0  0  0
    8.6030   -5.4453   23.9858 C   0  0  0  0  0  0  0  0  0  0  0  0
    8.2466   -5.9541   22.5725 C   0  0  0  0  0  0  0  0  0  0  0  0
    7.8699   -4.7203   21.7422 C   0  0  0  0  0  0  0  0  0  0  0  0
    6.7956   -4.4993   21.8348 H   0  0  0  0  0  0  0  0  0  0  0  0
    8.1046   -4.8646   20.6807 H   0  0  0  0  0  0  0  0  0  0  0  0
    7.4446   -6.7013   22.5842 H   0  0  0  0  0  0  0  0  0  0  0  0
    9.1184   -6.4613   22.1505 H   0  0  0  0  0  0  0  0  0  0  0  0
    7.8614   -5.7842   24.7173 H   0  0  0  0  0  0  0  0  0  0  0  0
    9.5552   -5.8828   24.3093 H   0  0  0  0  0  0  0  0  0  0  0  0
    9.5769   -3.4905   24.3682 H   0  0  0  0  0  0  0  0  0  0  0  0
    7.8168   -3.4425   24.4084 H   0  0  0  0  0  0  0  0  0  0  0  0
    9.6686   -3.4627   22.0293 H   0  0  0  0  0  0  0  0  0  0  0  0
    7.6545   -1.8744   20.8217 N   0  0  0  0  0  0  0  0  0  0  0  0
    7.2565   -0.5830   20.9585 N   0  0  0  0  0  0  0  0  0  0  0  0
    6.5771    0.0502   19.8739 C   0  0  0  0  0  0  0  0  0  0  0  0
    5.3700    0.7329   20.0724 C   0  0  0  0  0  0  0  0  0  0  0  0
    4.7835    1.3778   18.9769 C   0  0  0  0  0  0  0  0  0  0  0  0
    5.4244    1.3266   17.7363 C   0  0  0  0  0  0  0  0  0  0  0  0
    6.5585    0.6339   17.5307 N   0  0  0  0  0  0  0  0  0  0  0  0
    7.1036   -0.0098   18.5693 C   0  0  0  0  0  0  0  0  0  0  0  0
    7.9984   -0.5914   18.3533 H   0  0  0  0  0  0  0  0  0  0  0  0
    5.0151    1.8471   16.8719 H   0  0  0  0  0  0  0  0  0  0  0  0
    3.8497    1.9204   19.0747 H   0  0  0  0  0  0  0  0  0  0  0  0
    4.8963    0.7439   21.0547 H   0  0  0  0  0  0  0  0  0  0  0  0
    7.0582    1.9095   22.0270 H   0  0  0  0  0  0  0  0  0  0  0  0
    6.6577    1.1792   23.5859 H   0  0  0  0  0  0  0  0  0  0  0  0
    8.2045    1.1736   25.4419 H   0  0  0  0  0  0  0  0  0  0  0  0
   10.4783    1.7966   26.3347 H   0  0  0  0  0  0  0  0  0  0  0  0
   12.1049    2.8845   24.7802 H   0  0  0  0  0  0  0  0  0  0  0  0
   10.6143    2.5337   20.6900 H   0  0  0  0  0  0  0  0  0  0  0  0
    8.8878    2.9496   20.7892 H   0  0  0  0  0  0  0  0  0  0  0  0
    9.3745    1.2600   20.7427 H   0  0  0  0  0  0  0  0  0  0  0  0
  1  2  1  0
  2  3  2  0
  3  4  1  0
  4  5  2  0
  5  6  1  0
  6  7  2  0
  7  8  1  0
  8  9  1  0
  9 10  2  0
 10 11  1  0
 11 12  1  0
 12 13  1  0
 13 14  1  0
 14 15  1  0
 15 16  1  0
 16 17  1  0
 16 18  1  0
 15 19  1  0
 15 20  1  0
 14 21  1  0
 14 22  1  0
 13 23  1  0
 13 24  1  0
 12 25  1  0
 11 26  2  0
 26 27  1  0
 27 28  1  0
 28 29  2  0
 29 30  1  0
 30 31  2  0
 31 32  1  0
 32 33  2  0
 33 34  1  0
 31 35  1  0
 30 36  1  0
 29 37  1  0
  8 38  1  0
  8 39  1  0
  6 40  1  0
  5 41  1  0
  4 42  1  0
  1 43  1  0
  1 44  1  0
  1 45  1  0
  7  2  1  0
 27  9  1  0
 33 28  1  0
 16 12  1  0
M  END
>  <cnnaffinity>  (1) 
-6.19441

>  <filename>  (1) 
Cc1ncccc1Cc1nc(C2CCCC2)nn1-c1cccnc1

$$$$
