
     RDKit          3D

 36 38  0  0  0  0  0  0  0  0999 V2000
    7.4373    0.3752   26.4357 H   0  0  0  0  0  0  0  0  0  0  0  0
    8.3253    0.7047   26.2264 O   0  0  0  0  0  0  0  0  0  0  0  0
    8.2337    0.7647   24.8847 C   0  0  0  0  0  0  0  0  0  0  0  0
    7.1811    0.4962   24.3492 O   0  0  0  0  0  0  0  0  0  0  0  0
    9.5106    1.1406   24.2317 C   0  0  0  0  0  0  0  0  0  0  0  0
    9.8540    1.3467   22.8967 C   0  0  0  0  0  0  0  0  0  0  0  0
    9.0124    1.2198   21.6532 C   0  0  0  0  0  0  0  0  0  0  0  0
    9.5571    1.6549   20.8026 H   0  0  0  0  0  0  0  0  0  0  0  0
    8.0860    1.8029   21.7478 H   0  0  0  0  0  0  0  0  0  0  0  0
    8.6446   -0.1570   21.3369 N   0  0  0  0  0  0  0  0  0  0  0  0
    9.5518   -1.1838   21.3543 C   0  0  0  0  0  0  0  0  0  0  0  0
   10.7539   -1.1357   21.4203 O   0  0  0  0  0  0  0  0  0  0  0  0
    8.8410   -2.3582   21.2636 N   0  0  0  0  0  0  0  0  0  0  0  0
    9.3011   -3.2417   21.3447 H   0  0  0  0  0  0  0  0  0  0  0  0
    7.5029   -2.1851   21.0863 C   0  0  0  0  0  0  0  0  0  0  0  0
    6.7066   -3.0775   20.9429 O   0  0  0  0  0  0  0  0  0  0  0  0
    7.2790   -0.6479   21.1472 C   0  0  2  0  0  0  0  0  0  0  0  0
    6.6810   -0.4652   22.0535 H   0  0  0  0  0  0  0  0  0  0  0  0
    6.5875    0.0055   19.9575 C   0  0  0  0  0  0  0  0  0  0  0  0
    7.1822    0.0737   18.6819 C   0  0  0  0  0  0  0  0  0  0  0  0
    8.1437   -0.3981   18.4918 H   0  0  0  0  0  0  0  0  0  0  0  0
    6.6369    0.7036   17.6342 N   0  0  0  0  0  0  0  0  0  0  0  0
    5.4627    1.3245   17.8252 C   0  0  0  0  0  0  0  0  0  0  0  0
    5.0414    1.8314   16.9575 H   0  0  0  0  0  0  0  0  0  0  0  0
    4.7814    1.3210   19.0461 C   0  0  0  0  0  0  0  0  0  0  0  0
    3.8381    1.8515   19.1391 H   0  0  0  0  0  0  0  0  0  0  0  0
    5.3526    0.6443   20.1283 C   0  0  0  0  0  0  0  0  0  0  0  0
    4.8577    0.6231   21.1024 H   0  0  0  0  0  0  0  0  0  0  0  0
   11.2361    1.6402   22.9321 C   0  0  0  0  0  0  0  0  0  0  0  0
   12.1627    1.9521   21.8000 C   0  0  0  0  0  0  0  0  0  0  0  0
   11.8203    1.4871   20.8744 H   0  0  0  0  0  0  0  0  0  0  0  0
   13.1587    1.5552   22.0209 H   0  0  0  0  0  0  0  0  0  0  0  0
   12.2407    3.0357   21.6498 H   0  0  0  0  0  0  0  0  0  0  0  0
   11.6999    1.6181   24.1760 N   0  0  0  0  0  0  0  0  0  0  0  0
   10.6558    1.3111   24.9400 N   0  0  0  0  0  0  0  0  0  0  0  0
   10.7686    1.2147   25.9441 H   0  0  0  0  0  0  0  0  0  0  0  0
  1  2  1  0
  2  3  1  0
  3  4  2  0
  3  5  1  0
  5  6  2  0
  6  7  1  0
  7  8  1  0
  7  9  1  0
  7 10  1  0
 10 11  1  0
 11 12  2  0
 11 13  1  0
 13 14  1  0
 13 15  1  0
 15 16  2  0
 15 17  1  0
 17 18  1  1
 17 19  1  0
 19 20  2  0
 20 21  1  0
 20 22  1  0
 22 23  2  0
 23 24  1  0
 23 25  1  0
 25 26  1  0
 25 27  2  0
 27 28  1  0
  6 29  1  0
 29 30  1  0
 30 31  1  0
 30 32  1  0
 30 33  1  0
 29 34  2  0
 34 35  1  0
 35 36  1  0
 35  5  1  0
 17 10  1  0
 27 19  1  0
M  END
>  <cnnaffinity>  (1) 
-5.06378

>  <filename>  (1) 
Cc1n[nH]c(C(=O)O)c1CN1C(=O)NC(=O)[C@@H]1c1cccnc1

$$$$
