
     RDKit          3D

 44 47  0  0  0  0  0  0  0  0999 V2000
   13.7027    0.5278   23.5406 C   0  0  0  0  0  0  0  0  0  0  0  0
   12.3840    0.8091   22.9007 C   0  0  0  0  0  0  0  0  0  0  0  0
   11.8363    0.1304   21.9227 N   0  0  0  0  0  0  0  0  0  0  0  0
   10.6337    0.7340   21.6654 C   0  0  0  0  0  0  0  0  0  0  0  0
    9.6570    0.1863   20.6871 C   0  0  0  0  0  0  0  0  0  0  0  0
    8.6169   -0.6381   21.3443 C   0  0  0  0  0  0  0  0  0  0  0  0
    8.8346   -1.4802   22.3252 N   0  0  0  0  0  0  0  0  0  0  0  0
    7.6060   -2.0105   22.5530 C   0  0  0  0  0  0  0  0  0  0  0  0
    7.3853   -3.0101   23.6384 C   0  0  0  0  0  0  0  0  0  0  0  0
    8.1081   -4.3505   23.3152 C   0  0  0  0  0  0  0  0  0  0  0  0
    8.0906   -5.3001   24.4906 C   0  0  0  0  0  0  0  0  0  0  0  0
    7.8530   -4.9136   25.7466 C   0  0  0  0  0  0  0  0  0  0  0  0
    7.5110   -3.4893   26.1299 C   0  0  0  0  0  0  0  0  0  0  0  0
    7.8604   -2.4804   25.0193 C   0  0  0  0  0  0  0  0  0  0  0  0
    7.4024   -1.5079   25.2411 H   0  0  0  0  0  0  0  0  0  0  0  0
    8.9479   -2.3042   24.9735 H   0  0  0  0  0  0  0  0  0  0  0  0
    6.4338   -3.4307   26.3591 H   0  0  0  0  0  0  0  0  0  0  0  0
    8.0161   -3.2258   27.0682 H   0  0  0  0  0  0  0  0  0  0  0  0
    7.8772   -5.6477   26.5540 H   0  0  0  0  0  0  0  0  0  0  0  0
    8.3111   -6.3457   24.2738 H   0  0  0  0  0  0  0  0  0  0  0  0
    9.1532   -4.1457   23.0228 H   0  0  0  0  0  0  0  0  0  0  0  0
    7.6492   -4.8360   22.4433 H   0  0  0  0  0  0  0  0  0  0  0  0
    6.2977   -3.1696   23.6619 H   0  0  0  0  0  0  0  0  0  0  0  0
    6.6553   -1.5708   21.7539 N   0  0  0  0  0  0  0  0  0  0  0  0
    7.3143   -0.6979   20.9481 N   0  0  0  0  0  0  0  0  0  0  0  0
    6.6451   -0.0086   19.8988 C   0  0  0  0  0  0  0  0  0  0  0  0
    5.4347    0.6403   20.1561 C   0  0  0  0  0  0  0  0  0  0  0  0
    4.8069    1.3127   19.1044 C   0  0  0  0  0  0  0  0  0  0  0  0
    5.3971    1.2954   17.8343 C   0  0  0  0  0  0  0  0  0  0  0  0
    6.5508    0.6633   17.5760 N   0  0  0  0  0  0  0  0  0  0  0  0
    7.1600    0.0384   18.5890 C   0  0  0  0  0  0  0  0  0  0  0  0
    8.1090   -0.4391   18.3488 H   0  0  0  0  0  0  0  0  0  0  0  0
    4.9334    1.8030   16.9911 H   0  0  0  0  0  0  0  0  0  0  0  0
    3.8742    1.8463   19.2524 H   0  0  0  0  0  0  0  0  0  0  0  0
    5.0180    0.5991   21.1623 H   0  0  0  0  0  0  0  0  0  0  0  0
   10.1700   -0.4844   19.9924 H   0  0  0  0  0  0  0  0  0  0  0  0
    9.1763    1.0112   20.1591 H   0  0  0  0  0  0  0  0  0  0  0  0
   10.4632    1.8145   22.4816 C   0  0  0  0  0  0  0  0  0  0  0  0
   11.5915    1.8493   23.2790 N   0  0  0  0  0  0  0  0  0  0  0  0
   11.8183    2.4972   24.0174 H   0  0  0  0  0  0  0  0  0  0  0  0
    9.6481    2.5187   22.5437 H   0  0  0  0  0  0  0  0  0  0  0  0
   13.9611   -0.5149   23.3639 H   0  0  0  0  0  0  0  0  0  0  0  0
   13.6876    0.7186   24.6184 H   0  0  0  0  0  0  0  0  0  0  0  0
   14.4913    1.1415   23.0973 H   0  0  0  0  0  0  0  0  0  0  0  0
  1  2  1  0
  2  3  2  0
  3  4  1  0
  4  5  1  0
  5  6  1  0
  6  7  2  0
  7  8  1  0
  8  9  1  0
  9 10  1  0
 10 11  1  0
 11 12  2  0
 12 13  1  0
 13 14  1  0
 14 15  1  0
 14 16  1  0
 13 17  1  0
 13 18  1  0
 12 19  1  0
 11 20  1  0
 10 21  1  0
 10 22  1  0
  9 23  1  0
  8 24  2  0
 24 25  1  0
 25 26  1  0
 26 27  2  0
 27 28  1  0
 28 29  2  0
 29 30  1  0
 30 31  2  0
 31 32  1  0
 29 33  1  0
 28 34  1  0
 27 35  1  0
  5 36  1  0
  5 37  1  0
  4 38  2  0
 38 39  1  0
 39 40  1  0
 38 41  1  0
  1 42  1  0
  1 43  1  0
  1 44  1  0
 39  2  1  0
 25  6  1  0
 31 26  1  0
 14  9  1  0
M  END
>  <cnnaffinity>  (1) 
-6.4851

>  <filename>  (1) 
Cc1nc(Cc2nc(C3CC=CCC3)nn2-c2cccnc2)c[nH]1

$$$$
