
     RDKit          3D

 46 49  0  0  0  0  0  0  0  0999 V2000
    5.5769   -0.8938   26.3189 C   0  0  0  0  0  0  0  0  0  0  0  0
    6.5622   -0.0434   25.5986 C   0  0  0  0  0  0  0  0  0  0  0  0
    6.4224    0.4724   24.3965 N   0  0  0  0  0  0  0  0  0  0  0  0
    7.5622    1.1952   24.1630 C   0  0  0  0  0  0  0  0  0  0  0  0
    7.8593    1.7940   22.8238 C   0  0  0  0  0  0  0  0  0  0  0  0
    8.8749    0.9176   22.1745 C   0  0  0  0  0  0  0  0  0  0  0  0
   10.1745    0.9930   22.3843 N   0  0  0  0  0  0  0  0  0  0  0  0
   10.6487   -0.1641   21.8456 C   0  0  0  0  0  0  0  0  0  0  0  0
   12.1007   -0.4971   21.7242 C   0  0  0  0  0  0  0  0  0  0  0  0
   13.1480    0.3300   22.1917 C   0  0  0  0  0  0  0  0  0  0  0  0
   14.4268    0.1184   21.6737 C   0  0  0  0  0  0  0  0  0  0  0  0
   14.7090   -0.7752   20.5746 C   0  0  0  0  0  0  0  0  0  0  0  0
   16.0044   -0.3289   19.6620 C   0  0  0  0  0  0  0  0  0  0  0  0
   16.7993   -1.0701   19.6561 H   0  0  0  0  0  0  0  0  0  0  0  0
   16.4040    0.5471   20.1540 H   0  0  0  0  0  0  0  0  0  0  0  0
   15.9336    0.1125   18.6559 H   0  0  0  0  0  0  0  0  0  0  0  0
   13.7707   -1.8026   20.4795 C   0  0  0  0  0  0  0  0  0  0  0  0
   14.0918   -2.9681   19.9019 F   0  0  0  0  0  0  0  0  0  0  0  0
   12.4848   -1.6529   21.0207 C   0  0  0  0  0  0  0  0  0  0  0  0
   11.7382   -2.4085   20.8942 H   0  0  0  0  0  0  0  0  0  0  0  0
   15.2200    0.7846   22.0045 H   0  0  0  0  0  0  0  0  0  0  0  0
   12.9706    1.1424   22.8963 H   0  0  0  0  0  0  0  0  0  0  0  0
    9.6952   -0.9390   21.3350 N   0  0  0  0  0  0  0  0  0  0  0  0
    8.5636   -0.2238   21.5323 N   0  0  0  0  0  0  0  0  0  0  0  0
    7.2579   -0.7200   21.0908 C   0  0  0  0  0  0  0  0  0  0  0  0
    6.5920    0.0580   19.9604 C   0  0  0  0  0  0  0  0  0  0  0  0
    5.3522    0.6979   20.1046 C   0  0  0  0  0  0  0  0  0  0  0  0
    4.7792    1.3417   19.0024 C   0  0  0  0  0  0  0  0  0  0  0  0
    5.4646    1.3233   17.7857 C   0  0  0  0  0  0  0  0  0  0  0  0
    6.6439    0.7056   17.6185 N   0  0  0  0  0  0  0  0  0  0  0  0
    7.1860    0.1034   18.6854 C   0  0  0  0  0  0  0  0  0  0  0  0
    8.1425   -0.3856   18.5096 H   0  0  0  0  0  0  0  0  0  0  0  0
    5.0489    1.8248   16.9113 H   0  0  0  0  0  0  0  0  0  0  0  0
    3.8331    1.8669   19.0759 H   0  0  0  0  0  0  0  0  0  0  0  0
    4.8282    0.6910   21.0637 H   0  0  0  0  0  0  0  0  0  0  0  0
    6.5958   -0.7406   21.9671 H   0  0  0  0  0  0  0  0  0  0  0  0
    7.4404   -1.7535   20.7836 H   0  0  0  0  0  0  0  0  0  0  0  0
    6.9415    1.8487   22.2330 H   0  0  0  0  0  0  0  0  0  0  0  0
    8.2950    2.7904   22.9173 H   0  0  0  0  0  0  0  0  0  0  0  0
    8.4143    1.0990   25.2220 C   0  0  0  0  0  0  0  0  0  0  0  0
    7.7635    0.3040   26.1401 N   0  0  0  0  0  0  0  0  0  0  0  0
    8.1191   -0.0278   27.0213 H   0  0  0  0  0  0  0  0  0  0  0  0
    9.4385    1.4339   25.2924 H   0  0  0  0  0  0  0  0  0  0  0  0
    6.0814   -1.7093   26.8459 H   0  0  0  0  0  0  0  0  0  0  0  0
    4.8682   -1.3142   25.6034 H   0  0  0  0  0  0  0  0  0  0  0  0
    5.0211   -0.3042   27.0554 H   0  0  0  0  0  0  0  0  0  0  0  0
  1  2  1  0
  2  3  2  0
  3  4  1  0
  4  5  1  0
  5  6  1  0
  6  7  2  0
  7  8  1  0
  8  9  1  0
  9 10  2  0
 10 11  1  0
 11 12  2  0
 12 13  1  0
 13 14  1  0
 13 15  1  0
 13 16  1  0
 12 17  1  0
 17 18  1  0
 17 19  2  0
 19 20  1  0
 11 21  1  0
 10 22  1  0
  8 23  2  0
 23 24  1  0
 24 25  1  0
 25 26  1  0
 26 27  2  0
 27 28  1  0
 28 29  2  0
 29 30  1  0
 30 31  2  0
 31 32  1  0
 29 33  1  0
 28 34  1  0
 27 35  1  0
 25 36  1  0
 25 37  1  0
  5 38  1  0
  5 39  1  0
  4 40  2  0
 40 41  1  0
 41 42  1  0
 40 43  1  0
  1 44  1  0
  1 45  1  0
  1 46  1  0
 41  2  1  0
 24  6  1  0
 31 26  1  0
 19  9  1  0
M  END
>  <cnnaffinity>  (1) 
-6.7073

>  <filename>  (1) 
Cc1nc(Cc2nc(-c3ccc(C)c(F)c3)nn2Cc2cccnc2)c[nH]1

$$$$
