
     RDKit          3D

 45 48  0  0  0  0  0  0  0  0999 V2000
   12.0719    0.4655   23.0431 C   0  0  0  0  0  0  0  0  0  0  0  0
   10.9713    1.4644   22.9680 C   0  0  0  0  0  0  0  0  0  0  0  0
   10.8155    2.4366   23.8262 N   0  0  0  0  0  0  0  0  0  0  0  0
    9.6382    3.0721   23.4518 O   0  0  0  0  0  0  0  0  0  0  0  0
    9.1248    2.4621   22.3752 C   0  0  0  0  0  0  0  0  0  0  0  0
    7.8062    2.8957   21.8404 C   0  0  0  0  0  0  0  0  0  0  0  0
    7.7294    2.5676   20.8009 H   0  0  0  0  0  0  0  0  0  0  0  0
    7.6374    3.9753   21.8929 H   0  0  0  0  0  0  0  0  0  0  0  0
    7.0073    2.3730   22.3779 H   0  0  0  0  0  0  0  0  0  0  0  0
    9.9240    1.4312   22.0009 C   0  0  0  0  0  0  0  0  0  0  0  0
    9.6367    0.3821   20.9504 C   0  0  0  0  0  0  0  0  0  0  0  0
    8.6015   -0.6265   21.3645 C   0  0  0  0  0  0  0  0  0  0  0  0
    8.8148   -1.5095   22.3166 N   0  0  0  0  0  0  0  0  0  0  0  0
    7.5949   -2.0921   22.4839 C   0  0  0  0  0  0  0  0  0  0  0  0
    7.3847   -3.0973   23.5750 C   0  0  0  0  0  0  0  0  0  0  0  0
    7.5821   -2.5145   24.9939 C   0  0  0  0  0  0  0  0  0  0  0  0
    7.9184   -3.7152   25.8950 C   0  0  0  0  0  0  0  0  0  0  0  0
    8.4178   -4.8387   24.9571 C   0  0  0  0  0  0  0  0  0  0  0  0
    8.3989   -4.2556   23.5365 C   0  0  0  0  0  0  0  0  0  0  0  0
    9.3835   -3.8421   23.2935 H   0  0  0  0  0  0  0  0  0  0  0  0
    8.1483   -4.9969   22.7703 H   0  0  0  0  0  0  0  0  0  0  0  0
    9.4205   -5.1860   25.2296 H   0  0  0  0  0  0  0  0  0  0  0  0
    7.7552   -5.7075   25.0261 H   0  0  0  0  0  0  0  0  0  0  0  0
    7.0326   -4.0503   26.4438 H   0  0  0  0  0  0  0  0  0  0  0  0
    8.6676   -3.4451   26.6473 H   0  0  0  0  0  0  0  0  0  0  0  0
    6.7035   -1.9566   25.3357 H   0  0  0  0  0  0  0  0  0  0  0  0
    8.4271   -1.8166   24.9763 H   0  0  0  0  0  0  0  0  0  0  0  0
    6.3623   -3.4733   23.4685 H   0  0  0  0  0  0  0  0  0  0  0  0
    6.6615   -1.6579   21.6669 N   0  0  0  0  0  0  0  0  0  0  0  0
    7.3139   -0.7227   20.9188 N   0  0  0  0  0  0  0  0  0  0  0  0
    6.6281   -0.0345   19.8704 C   0  0  0  0  0  0  0  0  0  0  0  0
    5.4173    0.6205   20.1321 C   0  0  0  0  0  0  0  0  0  0  0  0
    4.7975    1.3146   19.0870 C   0  0  0  0  0  0  0  0  0  0  0  0
    5.3963    1.3136   17.8224 C   0  0  0  0  0  0  0  0  0  0  0  0
    6.5377    0.6602   17.5515 N   0  0  0  0  0  0  0  0  0  0  0  0
    7.1348    0.0081   18.5591 C   0  0  0  0  0  0  0  0  0  0  0  0
    8.0654   -0.5052   18.3139 H   0  0  0  0  0  0  0  0  0  0  0  0
    4.9369    1.8535   16.9960 H   0  0  0  0  0  0  0  0  0  0  0  0
    3.8728    1.8638   19.2448 H   0  0  0  0  0  0  0  0  0  0  0  0
    4.9892    0.5768   21.1340 H   0  0  0  0  0  0  0  0  0  0  0  0
    9.3389    0.8639   20.0172 H   0  0  0  0  0  0  0  0  0  0  0  0
   10.5491   -0.1854   20.7444 H   0  0  0  0  0  0  0  0  0  0  0  0
   11.6181   -0.5230   23.1602 H   0  0  0  0  0  0  0  0  0  0  0  0
   12.6577    0.4490   22.1195 H   0  0  0  0  0  0  0  0  0  0  0  0
   12.7489    0.6415   23.8775 H   0  0  0  0  0  0  0  0  0  0  0  0
  1  2  1  0
  2  3  2  0
  3  4  1  0
  4  5  1  0
  5  6  1  0
  6  7  1  0
  6  8  1  0
  6  9  1  0
  5 10  2  0
 10 11  1  0
 11 12  1  0
 12 13  2  0
 13 14  1  0
 14 15  1  0
 15 16  1  0
 16 17  1  0
 17 18  1  0
 18 19  1  0
 19 20  1  0
 19 21  1  0
 18 22  1  0
 18 23  1  0
 17 24  1  0
 17 25  1  0
 16 26  1  0
 16 27  1  0
 15 28  1  0
 14 29  2  0
 29 30  1  0
 30 31  1  0
 31 32  2  0
 32 33  1  0
 33 34  2  0
 34 35  1  0
 35 36  2  0
 36 37  1  0
 34 38  1  0
 33 39  1  0
 32 40  1  0
 11 41  1  0
 11 42  1  0
  1 43  1  0
  1 44  1  0
  1 45  1  0
 10  2  1  0
 30 12  1  0
 36 31  1  0
 19 15  1  0
M  END
>  <cnnaffinity>  (1) 
-6.30518

>  <filename>  (1) 
Cc1noc(C)c1Cc1nc(C2CCCC2)nn1-c1cccnc1

$$$$
