
     RDKit          3D

 40 43  0  0  0  0  0  0  0  0999 V2000
    7.7786    2.8855   21.9127 C   0  0  0  0  0  0  0  0  0  0  0  0
    9.1178    2.5006   22.4393 C   0  0  0  0  0  0  0  0  0  0  0  0
    9.6693    3.0741   23.4997 N   0  0  0  0  0  0  0  0  0  0  0  0
   10.8055    2.3877   23.7051 N   0  0  0  0  0  0  0  0  0  0  0  0
   10.9974    1.3938   22.8087 C   0  0  0  0  0  0  0  0  0  0  0  0
    9.9357    1.4501   21.9477 C   0  0  0  0  0  0  0  0  0  0  0  0
    9.6097    0.4381   20.8843 C   0  0  0  0  0  0  0  0  0  0  0  0
    8.6264   -0.5814   21.3641 C   0  0  0  0  0  0  0  0  0  0  0  0
    8.8570   -1.4378   22.3323 N   0  0  0  0  0  0  0  0  0  0  0  0
    7.6526   -2.0420   22.5094 C   0  0  0  0  0  0  0  0  0  0  0  0
    7.4237   -3.0784   23.5521 C   0  0  0  0  0  0  0  0  0  0  0  0
    8.4644   -3.4664   24.4218 C   0  0  0  0  0  0  0  0  0  0  0  0
    8.2040   -4.4410   25.3804 C   0  0  0  0  0  0  0  0  0  0  0  0
    9.1879   -4.8130   26.2081 F   0  0  0  0  0  0  0  0  0  0  0  0
    6.9631   -5.0550   25.5247 C   0  0  0  0  0  0  0  0  0  0  0  0
    5.9609   -4.6452   24.6516 C   0  0  0  0  0  0  0  0  0  0  0  0
    4.7546   -5.2142   24.7622 F   0  0  0  0  0  0  0  0  0  0  0  0
    6.1534   -3.6777   23.6729 C   0  0  0  0  0  0  0  0  0  0  0  0
    5.3290   -3.3939   23.0246 H   0  0  0  0  0  0  0  0  0  0  0  0
    6.7858   -5.8127   26.2807 H   0  0  0  0  0  0  0  0  0  0  0  0
    9.4576   -3.0278   24.3672 H   0  0  0  0  0  0  0  0  0  0  0  0
    6.7040   -1.6235   21.6873 N   0  0  0  0  0  0  0  0  0  0  0  0
    7.3400   -0.7014   20.9246 N   0  0  0  0  0  0  0  0  0  0  0  0
    6.6499   -0.0029   19.8986 C   0  0  0  0  0  0  0  0  0  0  0  0
    5.4380    0.6426   20.1662 C   0  0  0  0  0  0  0  0  0  0  0  0
    4.8117    1.3118   19.1096 C   0  0  0  0  0  0  0  0  0  0  0  0
    5.3993    1.2966   17.8398 C   0  0  0  0  0  0  0  0  0  0  0  0
    6.5585    0.6729   17.5769 N   0  0  0  0  0  0  0  0  0  0  0  0
    7.1658    0.0495   18.5926 C   0  0  0  0  0  0  0  0  0  0  0  0
    8.1139   -0.4347   18.3694 H   0  0  0  0  0  0  0  0  0  0  0  0
    4.9164    1.7846   16.9968 H   0  0  0  0  0  0  0  0  0  0  0  0
    3.8796    1.8401   19.2622 H   0  0  0  0  0  0  0  0  0  0  0  0
    5.0114    0.6098   21.1717 H   0  0  0  0  0  0  0  0  0  0  0  0
   10.5122   -0.1109   20.6096 H   0  0  0  0  0  0  0  0  0  0  0  0
    9.2377    0.9414   19.9913 H   0  0  0  0  0  0  0  0  0  0  0  0
   11.8306    0.7019   22.8466 H   0  0  0  0  0  0  0  0  0  0  0  0
   11.3923    2.6522   24.4763 H   0  0  0  0  0  0  0  0  0  0  0  0
    7.5049    3.9060   22.1834 H   0  0  0  0  0  0  0  0  0  0  0  0
    7.7769    2.7457   20.8360 H   0  0  0  0  0  0  0  0  0  0  0  0
    6.9991    2.2014   22.2631 H   0  0  0  0  0  0  0  0  0  0  0  0
  1  2  1  0
  2  3  2  0
  3  4  1  0
  4  5  1  0
  5  6  2  0
  6  7  1  0
  7  8  1  0
  8  9  2  0
  9 10  1  0
 10 11  1  0
 11 12  2  0
 12 13  1  0
 13 14  1  0
 13 15  2  0
 15 16  1  0
 16 17  1  0
 16 18  2  0
 18 19  1  0
 15 20  1  0
 12 21  1  0
 10 22  2  0
 22 23  1  0
 23 24  1  0
 24 25  2  0
 25 26  1  0
 26 27  2  0
 27 28  1  0
 28 29  2  0
 29 30  1  0
 27 31  1  0
 26 32  1  0
 25 33  1  0
  7 34  1  0
  7 35  1  0
  5 36  1  0
  4 37  1  0
  1 38  1  0
  1 39  1  0
  1 40  1  0
  6  2  1  0
 23  8  1  0
 29 24  1  0
 18 11  1  0
M  END
>  <cnnaffinity>  (1) 
-6.00321

>  <filename>  (1) 
Cc1n[nH]cc1Cc1nc(-c2cc(F)cc(F)c2)nn1-c1cccnc1

$$$$
