
     RDKit          3D

 33 35  0  0  0  0  0  0  0  0999 V2000
   10.9250   -1.2957   21.8251 C   0  0  0  0  0  0  0  0  0  0  0  0
    9.4378   -1.2978   21.8494 C   0  0  0  0  0  0  0  0  0  0  0  0
    8.8829   -1.8900   22.9103 N   0  0  0  0  0  0  0  0  0  0  0  0
    7.5595   -1.9234   22.9384 C   0  0  0  0  0  0  0  0  0  0  0  0
    6.8274   -2.8044   24.2892 S   0  0  0  0  0  0  0  0  0  0  0  0
    6.7670   -4.3866   23.4791 C   0  0  0  0  0  0  0  0  0  0  0  0
    7.8426   -5.2777   23.5597 C   0  0  0  0  0  0  0  0  0  0  0  0
    7.7602   -6.5195   22.9209 C   0  0  0  0  0  0  0  0  0  0  0  0
    6.5942   -6.9000   22.2435 C   0  0  0  0  0  0  0  0  0  0  0  0
    5.5650   -5.9692   22.1428 C   0  0  0  0  0  0  0  0  0  0  0  0
    4.4709   -6.2843   21.4449 F   0  0  0  0  0  0  0  0  0  0  0  0
    5.6379   -4.7110   22.7266 C   0  0  0  0  0  0  0  0  0  0  0  0
    4.8321   -3.9999   22.5990 H   0  0  0  0  0  0  0  0  0  0  0  0
    6.4538   -7.8690   21.7769 H   0  0  0  0  0  0  0  0  0  0  0  0
    8.6249   -7.1738   22.9583 H   0  0  0  0  0  0  0  0  0  0  0  0
    8.7279   -4.9839   24.1156 H   0  0  0  0  0  0  0  0  0  0  0  0
    6.7771   -1.3486   21.9461 C   0  0  0  0  0  0  0  0  0  0  0  0
    7.4566   -0.6920   20.9311 C   0  0  0  0  0  0  0  0  0  0  0  0
    6.7105    0.0261   19.8910 C   0  0  0  0  0  0  0  0  0  0  0  0
    5.4862    0.6626   20.1455 C   0  0  0  0  0  0  0  0  0  0  0  0
    4.8424    1.3038   19.0933 C   0  0  0  0  0  0  0  0  0  0  0  0
    5.4403    1.2775   17.8295 C   0  0  0  0  0  0  0  0  0  0  0  0
    6.6018    0.6571   17.5717 N   0  0  0  0  0  0  0  0  0  0  0  0
    7.2261    0.0616   18.5913 C   0  0  0  0  0  0  0  0  0  0  0  0
    8.1753   -0.4261   18.3722 H   0  0  0  0  0  0  0  0  0  0  0  0
    4.9643    1.7779   16.9902 H   0  0  0  0  0  0  0  0  0  0  0  0
    3.8983    1.8155   19.2392 H   0  0  0  0  0  0  0  0  0  0  0  0
    5.0556    0.6720   21.1488 H   0  0  0  0  0  0  0  0  0  0  0  0
    8.7878   -0.7018   20.8569 N   0  0  0  0  0  0  0  0  0  0  0  0
    5.7075   -1.4505   21.9103 H   0  0  0  0  0  0  0  0  0  0  0  0
   11.2723   -0.4606   22.4351 H   0  0  0  0  0  0  0  0  0  0  0  0
   11.3085   -1.1849   20.8142 H   0  0  0  0  0  0  0  0  0  0  0  0
   11.2981   -2.2168   22.2727 H   0  0  0  0  0  0  0  0  0  0  0  0
  1  2  1  0
  2  3  2  0
  3  4  1  0
  4  5  1  0
  5  6  1  0
  6  7  2  0
  7  8  1  0
  8  9  2  0
  9 10  1  0
 10 11  1  0
 10 12  2  0
 12 13  1  0
  9 14  1  0
  8 15  1  0
  7 16  1  0
  4 17  2  0
 17 18  1  0
 18 19  1  0
 19 20  2  0
 20 21  1  0
 21 22  2  0
 22 23  1  0
 23 24  2  0
 24 25  1  0
 22 26  1  0
 21 27  1  0
 20 28  1  0
 18 29  2  0
 17 30  1  0
  1 31  1  0
  1 32  1  0
  1 33  1  0
 29  2  1  0
 12  6  1  0
 24 19  1  0
M  END
>  <cnnaffinity>  (1) 
-5.38506

>  <filename>  (1) 
Cc1nc(Sc2cccc(F)c2)cc(-c2cccnc2)n1

$$$$
