
     RDKit          3D

 45 48  0  0  0  0  0  0  0  0999 V2000
    6.7829   -5.0064   21.4337 C   0  0  0  0  0  0  0  0  0  0  0  0
    6.1660   -4.2008   20.3381 C   0  0  0  0  0  0  0  0  0  0  0  0
    5.8637   -4.7172   19.1803 N   0  0  0  0  0  0  0  0  0  0  0  0
    5.4143   -3.6716   18.3959 O   0  0  0  0  0  0  0  0  0  0  0  0
    5.4170   -2.5586   19.1252 C   0  0  0  0  0  0  0  0  0  0  0  0
    5.8287   -2.8108   20.3915 C   0  0  0  0  0  0  0  0  0  0  0  0
    5.8217   -1.8940   21.5907 C   0  0  0  0  0  0  0  0  0  0  0  0
    7.0697   -1.1197   21.8491 C   0  0  0  0  0  0  0  0  0  0  0  0
    8.0384   -1.4472   22.6789 N   0  0  0  0  0  0  0  0  0  0  0  0
    8.9933   -0.5219   22.4078 C   0  0  0  0  0  0  0  0  0  0  0  0
   10.3980   -0.6993   22.8988 C   0  0  0  0  0  0  0  0  0  0  0  0
   11.0239    0.5566   23.5423 C   0  0  0  0  0  0  0  0  0  0  0  0
   12.4797    0.3000   23.9693 C   0  0  0  0  0  0  0  0  0  0  0  0
   13.2978   -0.2334   22.7960 C   0  0  0  0  0  0  0  0  0  0  0  0
   13.4385    0.8337   21.9419 F   0  0  0  0  0  0  0  0  0  0  0  0
   14.5654   -0.5502   23.1941 F   0  0  0  0  0  0  0  0  0  0  0  0
   12.7111   -1.4006   22.0025 C   0  0  0  0  0  0  0  0  0  0  0  0
   11.2301   -1.2061   21.6880 C   0  0  0  0  0  0  0  0  0  0  0  0
   10.7953   -2.1536   21.3445 H   0  0  0  0  0  0  0  0  0  0  0  0
   11.1120   -0.4846   20.8687 H   0  0  0  0  0  0  0  0  0  0  0  0
   12.8434   -2.3366   22.5471 H   0  0  0  0  0  0  0  0  0  0  0  0
   13.2885   -1.4964   21.0754 H   0  0  0  0  0  0  0  0  0  0  0  0
   12.5311   -0.3670   24.8329 H   0  0  0  0  0  0  0  0  0  0  0  0
   12.9703    1.2265   24.2900 H   0  0  0  0  0  0  0  0  0  0  0  0
   11.0101    1.3838   22.8223 H   0  0  0  0  0  0  0  0  0  0  0  0
   10.4474    0.8806   24.4157 H   0  0  0  0  0  0  0  0  0  0  0  0
   10.3438   -1.4889   23.6582 H   0  0  0  0  0  0  0  0  0  0  0  0
    8.6655    0.3664   21.4827 N   0  0  0  0  0  0  0  0  0  0  0  0
    7.4018   -0.0025   21.1432 N   0  0  0  0  0  0  0  0  0  0  0  0
    6.7640    0.5720   20.0021 C   0  0  0  0  0  0  0  0  0  0  0  0
    5.5142    1.2028   20.0749 C   0  0  0  0  0  0  0  0  0  0  0  0
    4.9150    1.6044   18.8749 C   0  0  0  0  0  0  0  0  0  0  0  0
    5.5869    1.3784   17.6701 C   0  0  0  0  0  0  0  0  0  0  0  0
    6.8146    0.8336   17.6027 N   0  0  0  0  0  0  0  0  0  0  0  0
    7.3981    0.4746   18.7505 C   0  0  0  0  0  0  0  0  0  0  0  0
    8.4077    0.0720   18.6864 H   0  0  0  0  0  0  0  0  0  0  0  0
    5.1209    1.6359   16.7218 H   0  0  0  0  0  0  0  0  0  0  0  0
    3.9496    2.0990   18.8696 H   0  0  0  0  0  0  0  0  0  0  0  0
    5.0391    1.4047   21.0378 H   0  0  0  0  0  0  0  0  0  0  0  0
    5.6028   -2.4456   22.5128 H   0  0  0  0  0  0  0  0  0  0  0  0
    5.0321   -1.1597   21.4165 H   0  0  0  0  0  0  0  0  0  0  0  0
    5.1438   -1.6472   18.6156 H   0  0  0  0  0  0  0  0  0  0  0  0
    7.7506   -4.5571   21.7013 H   0  0  0  0  0  0  0  0  0  0  0  0
    6.1297   -4.9808   22.3160 H   0  0  0  0  0  0  0  0  0  0  0  0
    6.9187   -6.0502   21.1322 H   0  0  0  0  0  0  0  0  0  0  0  0
  1  2  1  0
  2  3  2  0
  3  4  1  0
  4  5  1  0
  5  6  2  0
  6  7  1  0
  7  8  1  0
  8  9  2  0
  9 10  1  0
 10 11  1  0
 11 12  1  0
 12 13  1  0
 13 14  1  0
 14 15  1  0
 14 16  1  0
 14 17  1  0
 17 18  1  0
 18 19  1  0
 18 20  1  0
 17 21  1  0
 17 22  1  0
 13 23  1  0
 13 24  1  0
 12 25  1  0
 12 26  1  0
 11 27  1  0
 10 28  2  0
 28 29  1  0
 29 30  1  0
 30 31  2  0
 31 32  1  0
 32 33  2  0
 33 34  1  0
 34 35  2  0
 35 36  1  0
 33 37  1  0
 32 38  1  0
 31 39  1  0
  7 40  1  0
  7 41  1  0
  5 42  1  0
  1 43  1  0
  1 44  1  0
  1 45  1  0
  6  2  1  0
 29  8  1  0
 35 30  1  0
 18 11  1  0
M  END
>  <cnnaffinity>  (1) 
-6.02631

>  <filename>  (1) 
Cc1nocc1Cc1nc(C2CCC(F)(F)CC2)nn1-c1cccnc1

$$$$
