
     RDKit          3D

 42 45  0  0  0  0  0  0  0  0999 V2000
    4.8918   -1.3180   26.3640 C   0  0  0  0  0  0  0  0  0  0  0  0
    5.6816   -0.1401   25.8901 C   0  0  0  0  0  0  0  0  0  0  0  0
    5.7247    0.2543   24.6540 N   0  0  0  0  0  0  0  0  0  0  0  0
    6.5130    1.3706   24.5131 C   0  0  0  0  0  0  0  0  0  0  0  0
    6.7554    1.8409   23.1153 C   0  0  0  0  0  0  0  0  0  0  0  0
    7.7794    0.9283   22.5365 C   0  0  0  0  0  0  0  0  0  0  0  0
    9.0494    1.0315   22.8532 N   0  0  0  0  0  0  0  0  0  0  0  0
    9.6269   -0.0086   22.1986 C   0  0  0  0  0  0  0  0  0  0  0  0
   11.0947   -0.2433   22.2170 C   0  0  0  0  0  0  0  0  0  0  0  0
   11.9619    0.7017   22.8092 C   0  0  0  0  0  0  0  0  0  0  0  0
   13.3196    0.4168   22.8878 C   0  0  0  0  0  0  0  0  0  0  0  0
   14.1243    1.3030   23.4913 F   0  0  0  0  0  0  0  0  0  0  0  0
   13.8695   -0.7381   22.3426 C   0  0  0  0  0  0  0  0  0  0  0  0
   13.0190   -1.6349   21.6945 C   0  0  0  0  0  0  0  0  0  0  0  0
   11.6409   -1.4134   21.6480 C   0  0  0  0  0  0  0  0  0  0  0  0
   10.9756   -2.1311   21.1736 H   0  0  0  0  0  0  0  0  0  0  0  0
   13.4504   -2.5246   21.2464 H   0  0  0  0  0  0  0  0  0  0  0  0
   14.9368   -0.9152   22.4094 H   0  0  0  0  0  0  0  0  0  0  0  0
   11.6069    1.6441   23.2186 H   0  0  0  0  0  0  0  0  0  0  0  0
    8.7670   -0.7601   21.5242 N   0  0  0  0  0  0  0  0  0  0  0  0
    7.5803   -0.1564   21.7561 N   0  0  0  0  0  0  0  0  0  0  0  0
    6.3511   -0.6361   21.1314 C   0  0  0  0  0  0  0  0  0  0  0  0
    5.9844    0.0766   19.8443 C   0  0  0  0  0  0  0  0  0  0  0  0
    4.8069    0.8148   19.6834 C   0  0  0  0  0  0  0  0  0  0  0  0
    4.6077    1.5248   18.4965 C   0  0  0  0  0  0  0  0  0  0  0  0
    5.5939    1.4637   17.5101 C   0  0  0  0  0  0  0  0  0  0  0  0
    6.6997    0.7135   17.6166 N   0  0  0  0  0  0  0  0  0  0  0  0
    6.8715    0.0390   18.7583 C   0  0  0  0  0  0  0  0  0  0  0  0
    7.7774   -0.5601   18.8299 H   0  0  0  0  0  0  0  0  0  0  0  0
    5.4929    2.0326   16.5882 H   0  0  0  0  0  0  0  0  0  0  0  0
    3.7268    2.1360   18.3337 H   0  0  0  0  0  0  0  0  0  0  0  0
    4.0522    0.8387   20.4704 H   0  0  0  0  0  0  0  0  0  0  0  0
    5.5625   -0.4911   21.8666 H   0  0  0  0  0  0  0  0  0  0  0  0
    6.4665   -1.7152   20.9803 H   0  0  0  0  0  0  0  0  0  0  0  0
    5.8181    1.8195   22.5565 H   0  0  0  0  0  0  0  0  0  0  0  0
    7.1613    2.8560   23.0946 H   0  0  0  0  0  0  0  0  0  0  0  0
    7.1025    1.8212   25.6451 C   0  0  0  0  0  0  0  0  0  0  0  0
    6.6384    0.8286   26.9771 S   0  0  0  0  0  0  0  0  0  0  0  0
    7.7973    2.6423   25.7507 H   0  0  0  0  0  0  0  0  0  0  0  0
    5.4473   -2.2478   26.1975 H   0  0  0  0  0  0  0  0  0  0  0  0
    3.9601   -1.3724   25.7968 H   0  0  0  0  0  0  0  0  0  0  0  0
    4.6749   -1.2389   27.4297 H   0  0  0  0  0  0  0  0  0  0  0  0
  1  2  1  0
  2  3  2  0
  3  4  1  0
  4  5  1  0
  5  6  1  0
  6  7  2  0
  7  8  1  0
  8  9  1  0
  9 10  2  0
 10 11  1  0
 11 12  1  0
 11 13  2  0
 13 14  1  0
 14 15  2  0
 15 16  1  0
 14 17  1  0
 13 18  1  0
 10 19  1  0
  8 20  2  0
 20 21  1  0
 21 22  1  0
 22 23  1  0
 23 24  2  0
 24 25  1  0
 25 26  2  0
 26 27  1  0
 27 28  2  0
 28 29  1  0
 26 30  1  0
 25 31  1  0
 24 32  1  0
 22 33  1  0
 22 34  1  0
  5 35  1  0
  5 36  1  0
  4 37  2  0
 37 38  1  0
 37 39  1  0
  1 40  1  0
  1 41  1  0
  1 42  1  0
 38  2  1  0
 21  6  1  0
 28 23  1  0
 15  9  1  0
M  END
>  <cnnaffinity>  (1) 
-6.15824

>  <filename>  (1) 
Cc1nc(Cc2nc(-c3cccc(F)c3)nn2Cc2cccnc2)cs1

$$$$
