
     RDKit          3D

 43 46  0  0  0  0  0  0  0  0999 V2000
    8.2764    4.2388   24.2327 C   0  0  0  0  0  0  0  0  0  0  0  0
    8.5091    3.3603   23.0646 C   0  0  0  0  0  0  0  0  0  0  0  0
    9.2465    2.2759   23.0614 N   0  0  0  0  0  0  0  0  0  0  0  0
    9.1311    1.7624   21.7998 C   0  0  0  0  0  0  0  0  0  0  0  0
    9.7166    0.4545   21.4261 C   0  0  0  0  0  0  0  0  0  0  0  0
    8.7168   -0.6234   21.6729 C   0  0  0  0  0  0  0  0  0  0  0  0
    8.8261   -1.4652   22.6570 N   0  0  0  0  0  0  0  0  0  0  0  0
    7.6435   -2.1411   22.6621 C   0  0  0  0  0  0  0  0  0  0  0  0
    7.3837   -3.1328   23.7307 C   0  0  0  0  0  0  0  0  0  0  0  0
    8.2324   -3.0801   24.8534 C   0  0  0  0  0  0  0  0  0  0  0  0
    8.0955   -3.9752   25.9045 C   0  0  0  0  0  0  0  0  0  0  0  0
    7.0977   -4.9485   25.8497 C   0  0  0  0  0  0  0  0  0  0  0  0
    6.2437   -5.0060   24.7435 C   0  0  0  0  0  0  0  0  0  0  0  0
    6.3529   -4.1099   23.6663 C   0  0  0  0  0  0  0  0  0  0  0  0
    5.3986   -4.2286   22.5010 C   0  0  0  0  0  0  0  0  0  0  0  0
    5.9412   -4.3325   21.5566 H   0  0  0  0  0  0  0  0  0  0  0  0
    4.7872   -3.3266   22.4020 H   0  0  0  0  0  0  0  0  0  0  0  0
    4.7361   -5.0934   22.6181 H   0  0  0  0  0  0  0  0  0  0  0  0
    5.4705   -5.7716   24.7148 H   0  0  0  0  0  0  0  0  0  0  0  0
    6.9904   -5.6545   26.6692 H   0  0  0  0  0  0  0  0  0  0  0  0
    8.7740   -3.9075   26.7510 H   0  0  0  0  0  0  0  0  0  0  0  0
    9.0133   -2.3221   24.8727 H   0  0  0  0  0  0  0  0  0  0  0  0
    6.8172   -1.7661   21.7020 N   0  0  0  0  0  0  0  0  0  0  0  0
    7.5124   -0.7991   21.0411 N   0  0  0  0  0  0  0  0  0  0  0  0
    6.8480   -0.1006   19.9825 C   0  0  0  0  0  0  0  0  0  0  0  0
    5.6336    0.5518   20.2397 C   0  0  0  0  0  0  0  0  0  0  0  0
    5.0022    1.2191   19.1879 C   0  0  0  0  0  0  0  0  0  0  0  0
    5.5983    1.2129   17.9222 C   0  0  0  0  0  0  0  0  0  0  0  0
    6.7497    0.5720   17.6638 N   0  0  0  0  0  0  0  0  0  0  0  0
    7.3481   -0.0782   18.6699 C   0  0  0  0  0  0  0  0  0  0  0  0
    8.2580   -0.6192   18.4101 H   0  0  0  0  0  0  0  0  0  0  0  0
    5.1384    1.7436   17.0916 H   0  0  0  0  0  0  0  0  0  0  0  0
    4.0634    1.7416   19.3398 H   0  0  0  0  0  0  0  0  0  0  0  0
    5.2092    0.5265   21.2440 H   0  0  0  0  0  0  0  0  0  0  0  0
   10.5927    0.2518   22.0471 H   0  0  0  0  0  0  0  0  0  0  0  0
    9.9984    0.4308   20.3785 H   0  0  0  0  0  0  0  0  0  0  0  0
    8.3081    2.5221   21.0399 C   0  0  0  0  0  0  0  0  0  0  0  0
    7.9170    3.5622   21.8553 N   0  0  0  0  0  0  0  0  0  0  0  0
    7.2391    4.2797   21.6455 H   0  0  0  0  0  0  0  0  0  0  0  0
    7.9756    2.3391   20.0306 H   0  0  0  0  0  0  0  0  0  0  0  0
    8.9263    3.9194   25.0471 H   0  0  0  0  0  0  0  0  0  0  0  0
    8.4776    5.2857   23.9941 H   0  0  0  0  0  0  0  0  0  0  0  0
    7.2373    4.1417   24.5560 H   0  0  0  0  0  0  0  0  0  0  0  0
  1  2  1  0
  2  3  2  0
  3  4  1  0
  4  5  1  0
  5  6  1  0
  6  7  2  0
  7  8  1  0
  8  9  1  0
  9 10  2  0
 10 11  1  0
 11 12  2  0
 12 13  1  0
 13 14  2  0
 14 15  1  0
 15 16  1  0
 15 17  1  0
 15 18  1  0
 13 19  1  0
 12 20  1  0
 11 21  1  0
 10 22  1  0
  8 23  2  0
 23 24  1  0
 24 25  1  0
 25 26  2  0
 26 27  1  0
 27 28  2  0
 28 29  1  0
 29 30  2  0
 30 31  1  0
 28 32  1  0
 27 33  1  0
 26 34  1  0
  5 35  1  0
  5 36  1  0
  4 37  2  0
 37 38  1  0
 38 39  1  0
 37 40  1  0
  1 41  1  0
  1 42  1  0
  1 43  1  0
 38  2  1  0
 24  6  1  0
 30 25  1  0
 14  9  1  0
M  END
>  <cnnaffinity>  (1) 
-5.97438

>  <filename>  (1) 
Cc1nc(Cc2nc(-c3ccccc3C)nn2-c2cccnc2)c[nH]1

$$$$
