
     RDKit          3D

 42 45  0  0  0  0  0  0  0  0999 V2000
    9.0414    1.4641   25.4501 C   0  0  0  0  0  0  0  0  0  0  0  0
    7.6100    1.0350   25.4264 C   0  0  0  0  0  0  0  0  0  0  0  0
    7.0983    0.3878   26.4675 N   0  0  0  0  0  0  0  0  0  0  0  0
    5.8338    0.1030   26.1262 N   0  0  0  0  0  0  0  0  0  0  0  0
    5.5229    0.5451   24.8815 C   0  0  0  0  0  0  0  0  0  0  0  0
    6.6471    1.1540   24.3794 C   0  0  0  0  0  0  0  0  0  0  0  0
    6.8818    1.7232   22.9907 C   0  0  0  0  0  0  0  0  0  0  0  0
    7.9252    0.9502   22.2324 C   0  0  0  0  0  0  0  0  0  0  0  0
    9.2198    1.2156   22.2502 N   0  0  0  0  0  0  0  0  0  0  0  0
    9.8024    0.0710   21.7872 C   0  0  0  0  0  0  0  0  0  0  0  0
   11.2838   -0.2268   21.7896 C   0  0  0  0  0  0  0  0  0  0  0  0
   11.7354   -1.4342   21.2203 C   0  0  0  0  0  0  0  0  0  0  0  0
   13.0941   -1.7339   21.2483 C   0  0  0  0  0  0  0  0  0  0  0  0
   13.9439   -0.8740   21.9335 C   0  0  0  0  0  0  0  0  0  0  0  0
   13.4264    0.3048   22.4668 C   0  0  0  0  0  0  0  0  0  0  0  0
   12.1384    0.6448   22.3745 N   0  0  0  0  0  0  0  0  0  0  0  0
   14.0758    1.0153   22.9734 H   0  0  0  0  0  0  0  0  0  0  0  0
   14.9720   -1.1447   22.0909 H   0  0  0  0  0  0  0  0  0  0  0  0
   13.5175   -2.6028   20.7498 H   0  0  0  0  0  0  0  0  0  0  0  0
   11.0017   -2.1222   20.8161 H   0  0  0  0  0  0  0  0  0  0  0  0
    8.9097   -0.8378   21.3978 N   0  0  0  0  0  0  0  0  0  0  0  0
    7.7191   -0.2732   21.6988 N   0  0  0  0  0  0  0  0  0  0  0  0
    6.4949   -0.8243   21.1228 C   0  0  0  0  0  0  0  0  0  0  0  0
    6.0664   -0.0796   19.8757 C   0  0  0  0  0  0  0  0  0  0  0  0
    4.8938    0.6789   19.8183 C   0  0  0  0  0  0  0  0  0  0  0  0
    4.6414    1.4381   18.6725 C   0  0  0  0  0  0  0  0  0  0  0  0
    5.5679    1.4067   17.6264 C   0  0  0  0  0  0  0  0  0  0  0  0
    6.6840    0.6611   17.6508 N   0  0  0  0  0  0  0  0  0  0  0  0
    6.9198   -0.0541   18.7570 C   0  0  0  0  0  0  0  0  0  0  0  0
    7.8455   -0.6332   18.7717 H   0  0  0  0  0  0  0  0  0  0  0  0
    5.4177    2.0112   16.7334 H   0  0  0  0  0  0  0  0  0  0  0  0
    3.7555    2.0563   18.5830 H   0  0  0  0  0  0  0  0  0  0  0  0
    4.1905    0.6849   20.6561 H   0  0  0  0  0  0  0  0  0  0  0  0
    5.7202   -0.7828   21.8891 H   0  0  0  0  0  0  0  0  0  0  0  0
    6.7089   -1.8762   20.9116 H   0  0  0  0  0  0  0  0  0  0  0  0
    5.9412    1.7549   22.4307 H   0  0  0  0  0  0  0  0  0  0  0  0
    7.2593    2.7495   23.0519 H   0  0  0  0  0  0  0  0  0  0  0  0
    4.5437    0.3954   24.4561 H   0  0  0  0  0  0  0  0  0  0  0  0
    5.2593   -0.4188   26.7675 H   0  0  0  0  0  0  0  0  0  0  0  0
    9.1930    2.3975   24.8987 H   0  0  0  0  0  0  0  0  0  0  0  0
    9.6534    0.7094   24.9432 H   0  0  0  0  0  0  0  0  0  0  0  0
    9.3956    1.5674   26.4777 H   0  0  0  0  0  0  0  0  0  0  0  0
  1  2  1  0
  2  3  2  0
  3  4  1  0
  4  5  1  0
  5  6  2  0
  6  7  1  0
  7  8  1  0
  8  9  2  0
  9 10  1  0
 10 11  1  0
 11 12  2  0
 12 13  1  0
 13 14  2  0
 14 15  1  0
 15 16  2  0
 15 17  1  0
 14 18  1  0
 13 19  1  0
 12 20  1  0
 10 21  2  0
 21 22  1  0
 22 23  1  0
 23 24  1  0
 24 25  2  0
 25 26  1  0
 26 27  2  0
 27 28  1  0
 28 29  2  0
 29 30  1  0
 27 31  1  0
 26 32  1  0
 25 33  1  0
 23 34  1  0
 23 35  1  0
  7 36  1  0
  7 37  1  0
  5 38  1  0
  4 39  1  0
  1 40  1  0
  1 41  1  0
  1 42  1  0
  6  2  1  0
 22  8  1  0
 29 24  1  0
 16 11  1  0
M  END
>  <cnnaffinity>  (1) 
-6.17626

>  <filename>  (1) 
Cc1n[nH]cc1Cc1nc(-c2ccccn2)nn1Cc1cccnc1

$$$$
