
     RDKit          3D

 39 42  0  0  0  0  0  0  0  0999 V2000
    8.3435    4.2512   24.0833 C   0  0  0  0  0  0  0  0  0  0  0  0
    8.5078    3.2964   22.9567 C   0  0  0  0  0  0  0  0  0  0  0  0
    9.2629    2.2436   22.9310 N   0  0  0  0  0  0  0  0  0  0  0  0
    9.0772    1.7053   21.6753 C   0  0  0  0  0  0  0  0  0  0  0  0
    9.6699    0.3798   21.3515 C   0  0  0  0  0  0  0  0  0  0  0  0
    8.6931   -0.6945   21.6661 C   0  0  0  0  0  0  0  0  0  0  0  0
    8.8225   -1.5353   22.6492 N   0  0  0  0  0  0  0  0  0  0  0  0
    7.6370   -2.2084   22.6636 C   0  0  0  0  0  0  0  0  0  0  0  0
    7.3843   -3.2058   23.7255 C   0  0  0  0  0  0  0  0  0  0  0  0
    8.3078   -3.2727   24.7908 C   0  0  0  0  0  0  0  0  0  0  0  0
    8.1484   -4.1721   25.8370 C   0  0  0  0  0  0  0  0  0  0  0  0
    7.0549   -5.0414   25.8460 C   0  0  0  0  0  0  0  0  0  0  0  0
    6.1185   -4.9906   24.8131 C   0  0  0  0  0  0  0  0  0  0  0  0
    6.2733   -4.0756   23.7620 C   0  0  0  0  0  0  0  0  0  0  0  0
    5.0400   -4.0548   22.5363 Cl  0  0  0  0  0  0  0  0  0  0  0  0
    5.2634   -5.6580   24.8091 H   0  0  0  0  0  0  0  0  0  0  0  0
    6.9391   -5.7598   26.6533 H   0  0  0  0  0  0  0  0  0  0  0  0
    8.8826   -4.1909   26.6349 H   0  0  0  0  0  0  0  0  0  0  0  0
    9.1552   -2.5903   24.7844 H   0  0  0  0  0  0  0  0  0  0  0  0
    6.7939   -1.8303   21.7234 N   0  0  0  0  0  0  0  0  0  0  0  0
    7.4776   -0.8671   21.0573 N   0  0  0  0  0  0  0  0  0  0  0  0
    6.8240   -0.1528   20.0023 C   0  0  0  0  0  0  0  0  0  0  0  0
    5.6196    0.5239   20.2543 C   0  0  0  0  0  0  0  0  0  0  0  0
    5.0386    1.2398   19.2062 C   0  0  0  0  0  0  0  0  0  0  0  0
    5.6569    1.2324   17.9507 C   0  0  0  0  0  0  0  0  0  0  0  0
    6.8009    0.5749   17.7008 N   0  0  0  0  0  0  0  0  0  0  0  0
    7.3647   -0.1055   18.7065 C   0  0  0  0  0  0  0  0  0  0  0  0
    8.2944   -0.6271   18.4720 H   0  0  0  0  0  0  0  0  0  0  0  0
    5.2193    1.7785   17.1188 H   0  0  0  0  0  0  0  0  0  0  0  0
    4.1252    1.8090   19.3482 H   0  0  0  0  0  0  0  0  0  0  0  0
    5.1780    0.5134   21.2539 H   0  0  0  0  0  0  0  0  0  0  0  0
    9.9266    0.3072   20.2984 H   0  0  0  0  0  0  0  0  0  0  0  0
   10.5490    0.2159   21.9826 H   0  0  0  0  0  0  0  0  0  0  0  0
    8.1763    2.4555   21.0151 C   0  0  0  0  0  0  0  0  0  0  0  0
    7.8071    3.4926   21.8236 O   0  0  0  0  0  0  0  0  0  0  0  0
    7.6463    2.3367   20.0871 H   0  0  0  0  0  0  0  0  0  0  0  0
    7.5096    4.9360   23.9248 H   0  0  0  0  0  0  0  0  0  0  0  0
    9.2634    4.8298   24.1987 H   0  0  0  0  0  0  0  0  0  0  0  0
    8.1998    3.6707   24.9965 H   0  0  0  0  0  0  0  0  0  0  0  0
  1  2  1  0
  2  3  2  0
  3  4  1  0
  4  5  1  0
  5  6  1  0
  6  7  2  0
  7  8  1  0
  8  9  1  0
  9 10  2  0
 10 11  1  0
 11 12  2  0
 12 13  1  0
 13 14  2  0
 14 15  1  0
 13 16  1  0
 12 17  1  0
 11 18  1  0
 10 19  1  0
  8 20  2  0
 20 21  1  0
 21 22  1  0
 22 23  2  0
 23 24  1  0
 24 25  2  0
 25 26  1  0
 26 27  2  0
 27 28  1  0
 25 29  1  0
 24 30  1  0
 23 31  1  0
  5 32  1  0
  5 33  1  0
  4 34  2  0
 34 35  1  0
 34 36  1  0
  1 37  1  0
  1 38  1  0
  1 39  1  0
 35  2  1  0
 21  6  1  0
 27 22  1  0
 14  9  1  0
M  END
>  <cnnaffinity>  (1) 
-5.97391

>  <filename>  (1) 
Cc1nc(Cc2nc(-c3ccccc3Cl)nn2-c2cccnc2)co1

$$$$
