
     RDKit          3D

 52 55  0  0  0  0  0  0  0  0999 V2000
    7.7548    2.7726   21.7665 C   0  0  0  0  0  0  0  0  0  0  0  0
    9.1532    2.4158   22.1539 C   0  0  0  0  0  0  0  0  0  0  0  0
    9.7567    3.0900   23.1293 N   0  0  0  0  0  0  0  0  0  0  0  0
   10.8933    2.4169   23.3600 N   0  0  0  0  0  0  0  0  0  0  0  0
   11.8300    2.8498   24.3659 C   0  0  0  0  0  0  0  0  0  0  0  0
   11.6291    3.8973   24.5825 H   0  0  0  0  0  0  0  0  0  0  0  0
   11.7424    2.2295   25.2675 H   0  0  0  0  0  0  0  0  0  0  0  0
   12.8439    2.7420   23.9702 H   0  0  0  0  0  0  0  0  0  0  0  0
   11.0073    1.2965   22.6045 C   0  0  0  0  0  0  0  0  0  0  0  0
   12.0700    0.2570   22.8099 C   0  0  0  0  0  0  0  0  0  0  0  0
   11.6884   -0.7264   22.5173 H   0  0  0  0  0  0  0  0  0  0  0  0
   12.9666    0.4616   22.2106 H   0  0  0  0  0  0  0  0  0  0  0  0
   12.3605    0.1776   23.8646 H   0  0  0  0  0  0  0  0  0  0  0  0
    9.9431    1.3169   21.7324 C   0  0  0  0  0  0  0  0  0  0  0  0
    9.6191    0.2221   20.7432 C   0  0  0  0  0  0  0  0  0  0  0  0
    8.5771   -0.7222   21.2527 C   0  0  0  0  0  0  0  0  0  0  0  0
    8.7953   -1.5533   22.2568 N   0  0  0  0  0  0  0  0  0  0  0  0
    7.5807   -2.1277   22.4559 C   0  0  0  0  0  0  0  0  0  0  0  0
    7.3420   -3.1251   23.5556 C   0  0  0  0  0  0  0  0  0  0  0  0
    6.4526   -2.5453   24.6921 C   0  0  0  0  0  0  0  0  0  0  0  0
    6.1833   -3.5814   25.7965 C   0  0  0  0  0  0  0  0  0  0  0  0
    5.6393   -4.8852   25.2280 C   0  0  0  0  0  0  0  0  0  0  0  0
    4.3806   -4.6597   24.7171 F   0  0  0  0  0  0  0  0  0  0  0  0
    5.4794   -5.8015   26.2333 F   0  0  0  0  0  0  0  0  0  0  0  0
    6.5150   -5.4731   24.1302 C   0  0  0  0  0  0  0  0  0  0  0  0
    6.7771   -4.4599   23.0057 C   0  0  0  0  0  0  0  0  0  0  0  0
    7.4841   -4.8926   22.2868 H   0  0  0  0  0  0  0  0  0  0  0  0
    5.8461   -4.2608   22.4589 H   0  0  0  0  0  0  0  0  0  0  0  0
    6.0286   -6.3721   23.7401 H   0  0  0  0  0  0  0  0  0  0  0  0
    7.4577   -5.7849   24.5976 H   0  0  0  0  0  0  0  0  0  0  0  0
    5.4672   -3.1957   26.5295 H   0  0  0  0  0  0  0  0  0  0  0  0
    7.1069   -3.8204   26.3384 H   0  0  0  0  0  0  0  0  0  0  0  0
    6.9372   -1.6652   25.1348 H   0  0  0  0  0  0  0  0  0  0  0  0
    5.4968   -2.2084   24.2753 H   0  0  0  0  0  0  0  0  0  0  0  0
    8.3314   -3.3252   23.9843 H   0  0  0  0  0  0  0  0  0  0  0  0
    6.6355   -1.7157   21.6263 N   0  0  0  0  0  0  0  0  0  0  0  0
    7.2866   -0.8273   20.8273 N   0  0  0  0  0  0  0  0  0  0  0  0
    6.5752   -0.1213   19.8091 C   0  0  0  0  0  0  0  0  0  0  0  0
    5.3803    0.5490   20.0959 C   0  0  0  0  0  0  0  0  0  0  0  0
    4.7909    1.3097   19.0805 C   0  0  0  0  0  0  0  0  0  0  0  0
    5.3873    1.3404   17.8129 C   0  0  0  0  0  0  0  0  0  0  0  0
    6.4975    0.6516   17.5130 N   0  0  0  0  0  0  0  0  0  0  0  0
    7.0674   -0.0645   18.4900 C   0  0  0  0  0  0  0  0  0  0  0  0
    7.9603   -0.6257   18.2228 H   0  0  0  0  0  0  0  0  0  0  0  0
    4.9499    1.9206   17.0034 H   0  0  0  0  0  0  0  0  0  0  0  0
    3.8849    1.8795   19.2541 H   0  0  0  0  0  0  0  0  0  0  0  0
    4.9376    0.4825   21.0923 H   0  0  0  0  0  0  0  0  0  0  0  0
    9.3483    0.6365   19.7709 H   0  0  0  0  0  0  0  0  0  0  0  0
   10.5084   -0.3934   20.5718 H   0  0  0  0  0  0  0  0  0  0  0  0
    7.4790    2.2982   20.8221 H   0  0  0  0  0  0  0  0  0  0  0  0
    7.6449    3.8572   21.6821 H   0  0  0  0  0  0  0  0  0  0  0  0
    7.0571    2.4058   22.5342 H   0  0  0  0  0  0  0  0  0  0  0  0
  1  2  1  0
  2  3  2  0
  3  4  1  0
  4  5  1  0
  5  6  1  0
  5  7  1  0
  5  8  1  0
  4  9  1  0
  9 10  1  0
 10 11  1  0
 10 12  1  0
 10 13  1  0
  9 14  2  0
 14 15  1  0
 15 16  1  0
 16 17  2  0
 17 18  1  0
 18 19  1  0
 19 20  1  0
 20 21  1  0
 21 22  1  0
 22 23  1  0
 22 24  1  0
 22 25  1  0
 25 26  1  0
 26 27  1  0
 26 28  1  0
 25 29  1  0
 25 30  1  0
 21 31  1  0
 21 32  1  0
 20 33  1  0
 20 34  1  0
 19 35  1  0
 18 36  2  0
 36 37  1  0
 37 38  1  0
 38 39  2  0
 39 40  1  0
 40 41  2  0
 41 42  1  0
 42 43  2  0
 43 44  1  0
 41 45  1  0
 40 46  1  0
 39 47  1  0
 15 48  1  0
 15 49  1  0
  1 50  1  0
  1 51  1  0
  1 52  1  0
 14  2  1  0
 37 16  1  0
 43 38  1  0
 26 19  1  0
M  END
>  <cnnaffinity>  (1) 
-6.73872

>  <filename>  (1) 
Cc1nn(C)c(C)c1Cc1nc(C2CCC(F)(F)CC2)nn1-c1cccnc1

$$$$
