
     RDKit          3D

 43 46  0  0  0  0  0  0  0  0999 V2000
   12.2435   -1.2793   21.1638 C   0  0  0  0  0  0  0  0  0  0  0  0
   11.9249   -0.0117   21.9143 C   0  0  0  0  0  0  0  0  0  0  0  0
   12.8062    0.3769   22.8471 N   0  0  0  0  0  0  0  0  0  0  0  0
   12.5290    1.4806   23.5548 C   0  0  0  0  0  0  0  0  0  0  0  0
   11.3739    2.2432   23.3919 C   0  0  0  0  0  0  0  0  0  0  0  0
   10.4587    1.8443   22.4170 C   0  0  0  0  0  0  0  0  0  0  0  0
   10.7392    0.7171   21.6400 C   0  0  0  0  0  0  0  0  0  0  0  0
    9.6690    0.2259   20.6805 C   0  0  0  0  0  0  0  0  0  0  0  0
    8.6320   -0.6280   21.3382 C   0  0  0  0  0  0  0  0  0  0  0  0
    8.8434   -1.4755   22.3212 N   0  0  0  0  0  0  0  0  0  0  0  0
    7.6093   -1.9868   22.5566 C   0  0  0  0  0  0  0  0  0  0  0  0
    7.3875   -2.9654   23.6511 C   0  0  0  0  0  0  0  0  0  0  0  0
    8.2499   -4.2422   23.5555 C   0  0  0  0  0  0  0  0  0  0  0  0
    8.3875   -4.6813   25.0162 C   0  0  0  0  0  0  0  0  0  0  0  0
    8.1081   -3.5433   25.8174 O   0  0  0  0  0  0  0  0  0  0  0  0
    7.7570   -2.4154   25.0409 C   0  0  0  0  0  0  0  0  0  0  0  0
    8.5979   -1.7031   24.9974 H   0  0  0  0  0  0  0  0  0  0  0  0
    6.9123   -1.9173   25.5346 H   0  0  0  0  0  0  0  0  0  0  0  0
    9.3967   -5.0518   25.2459 H   0  0  0  0  0  0  0  0  0  0  0  0
    7.6744   -5.4762   25.2778 H   0  0  0  0  0  0  0  0  0  0  0  0
    7.7855   -5.0130   22.9352 H   0  0  0  0  0  0  0  0  0  0  0  0
    9.2329   -4.0053   23.1321 H   0  0  0  0  0  0  0  0  0  0  0  0
    6.3270   -3.2208   23.6346 H   0  0  0  0  0  0  0  0  0  0  0  0
    6.6623   -1.5446   21.7612 N   0  0  0  0  0  0  0  0  0  0  0  0
    7.3281   -0.6886   20.9380 N   0  0  0  0  0  0  0  0  0  0  0  0
    6.6491    0.0022   19.9010 C   0  0  0  0  0  0  0  0  0  0  0  0
    5.4353    0.6469   20.1643 C   0  0  0  0  0  0  0  0  0  0  0  0
    4.8109    1.3127   19.1087 C   0  0  0  0  0  0  0  0  0  0  0  0
    5.4004    1.2956   17.8377 C   0  0  0  0  0  0  0  0  0  0  0  0
    6.5600    0.6731   17.5791 N   0  0  0  0  0  0  0  0  0  0  0  0
    7.1669    0.0507   18.5940 C   0  0  0  0  0  0  0  0  0  0  0  0
    8.1137   -0.4309   18.3645 H   0  0  0  0  0  0  0  0  0  0  0  0
    4.9199    1.7839   16.9937 H   0  0  0  0  0  0  0  0  0  0  0  0
    3.8793    1.8413   19.2601 H   0  0  0  0  0  0  0  0  0  0  0  0
    5.0162    0.6102   21.1727 H   0  0  0  0  0  0  0  0  0  0  0  0
    9.1840    1.0937   20.2276 H   0  0  0  0  0  0  0  0  0  0  0  0
   10.0535   -0.3935   19.8616 H   0  0  0  0  0  0  0  0  0  0  0  0
    9.5230    2.3911   22.2667 H   0  0  0  0  0  0  0  0  0  0  0  0
   11.1981    3.1226   24.0003 H   0  0  0  0  0  0  0  0  0  0  0  0
   13.2741    1.7649   24.2939 H   0  0  0  0  0  0  0  0  0  0  0  0
   13.1412   -1.7493   21.5619 H   0  0  0  0  0  0  0  0  0  0  0  0
   12.4221   -1.0888   20.1052 H   0  0  0  0  0  0  0  0  0  0  0  0
   11.4091   -1.9856   21.2007 H   0  0  0  0  0  0  0  0  0  0  0  0
  1  2  1  0
  2  3  2  0
  3  4  1  0
  4  5  2  0
  5  6  1  0
  6  7  2  0
  7  8  1  0
  8  9  1  0
  9 10  2  0
 10 11  1  0
 11 12  1  0
 12 13  1  0
 13 14  1  0
 14 15  1  0
 15 16  1  0
 16 17  1  0
 16 18  1  0
 14 19  1  0
 14 20  1  0
 13 21  1  0
 13 22  1  0
 12 23  1  0
 11 24  2  0
 24 25  1  0
 25 26  1  0
 26 27  2  0
 27 28  1  0
 28 29  2  0
 29 30  1  0
 30 31  2  0
 31 32  1  0
 29 33  1  0
 28 34  1  0
 27 35  1  0
  8 36  1  0
  8 37  1  0
  6 38  1  0
  5 39  1  0
  4 40  1  0
  1 41  1  0
  1 42  1  0
  1 43  1  0
  7  2  1  0
 25  9  1  0
 31 26  1  0
 16 12  1  0
M  END
>  <cnnaffinity>  (1) 
-6.27889

>  <filename>  (1) 
Cc1ncccc1Cc1nc(C2CCOC2)nn1-c1cccnc1

$$$$
