
     RDKit          3D

 50 53  0  0  0  0  0  0  0  0999 V2000
   10.6692    4.1153   23.5512 C   0  0  0  0  0  0  0  0  0  0  0  0
   10.8692    2.6571   23.8020 C   0  0  0  0  0  0  0  0  0  0  0  0
   11.4075    2.1504   24.8878 N   0  0  0  0  0  0  0  0  0  0  0  0
   11.3734    0.7857   24.7311 C   0  0  0  0  0  0  0  0  0  0  0  0
   10.8083    0.4861   23.5314 C   0  0  0  0  0  0  0  0  0  0  0  0
   10.5107    1.6806   22.9183 N   0  0  0  0  0  0  0  0  0  0  0  0
    9.9026    1.8035   21.6011 C   0  0  0  0  0  0  0  0  0  0  0  0
    8.4496    2.2994   21.6196 C   0  0  0  0  0  0  0  0  0  0  0  0
    7.5284    1.4823   22.5568 C   0  0  0  0  0  0  0  0  0  0  0  0
    7.4870    0.0170   22.2289 C   0  0  0  0  0  0  0  0  0  0  0  0
    7.9286   -0.9808   22.9774 N   0  0  0  0  0  0  0  0  0  0  0  0
    8.0399   -2.0169   22.0982 C   0  0  0  0  0  0  0  0  0  0  0  0
    8.7463   -3.3220   22.3810 C   0  0  0  0  0  0  0  0  0  0  0  0
   10.1222   -3.0301   23.0312 C   0  0  0  0  0  0  0  0  0  0  0  0
   10.0885   -2.9847   24.5307 C   0  0  0  0  0  0  0  0  0  0  0  0
    9.0147   -3.2610   25.2767 C   0  0  0  0  0  0  0  0  0  0  0  0
    7.7310   -3.7934   24.6763 C   0  0  0  0  0  0  0  0  0  0  0  0
    7.9473   -4.3260   23.2495 C   0  0  0  0  0  0  0  0  0  0  0  0
    8.5431   -5.2498   23.2986 H   0  0  0  0  0  0  0  0  0  0  0  0
    6.9896   -4.5999   22.7862 H   0  0  0  0  0  0  0  0  0  0  0  0
    6.9993   -2.9741   24.6685 H   0  0  0  0  0  0  0  0  0  0  0  0
    7.3065   -4.5787   25.3170 H   0  0  0  0  0  0  0  0  0  0  0  0
    9.0171   -3.0415   26.3449 H   0  0  0  0  0  0  0  0  0  0  0  0
   11.0598   -2.8167   24.9743 H   0  0  0  0  0  0  0  0  0  0  0  0
   10.8914   -3.7485   22.7819 H   0  0  0  0  0  0  0  0  0  0  0  0
   10.5457   -2.1214   22.5980 H   0  0  0  0  0  0  0  0  0  0  0  0
    8.8730   -3.7541   21.3876 H   0  0  0  0  0  0  0  0  0  0  0  0
    7.6300   -1.7398   20.8768 N   0  0  0  0  0  0  0  0  0  0  0  0
    7.2227   -0.4469   20.9723 N   0  0  0  0  0  0  0  0  0  0  0  0
    6.5730    0.1680   19.8768 C   0  0  0  0  0  0  0  0  0  0  0  0
    5.3745    0.8647   20.0514 C   0  0  0  0  0  0  0  0  0  0  0  0
    4.7987    1.4526   18.9245 C   0  0  0  0  0  0  0  0  0  0  0  0
    5.4299    1.3146   17.6838 C   0  0  0  0  0  0  0  0  0  0  0  0
    6.5668    0.6163   17.5096 N   0  0  0  0  0  0  0  0  0  0  0  0
    7.1135    0.0403   18.5841 C   0  0  0  0  0  0  0  0  0  0  0  0
    8.0204   -0.5434   18.4331 H   0  0  0  0  0  0  0  0  0  0  0  0
    5.0125    1.7783   16.7950 H   0  0  0  0  0  0  0  0  0  0  0  0
    3.8772    2.0144   19.0056 H   0  0  0  0  0  0  0  0  0  0  0  0
    4.9015    0.8993   21.0346 H   0  0  0  0  0  0  0  0  0  0  0  0
    7.8706    1.5775   23.5912 H   0  0  0  0  0  0  0  0  0  0  0  0
    6.5180    1.8990   22.5240 H   0  0  0  0  0  0  0  0  0  0  0  0
    8.4257    3.3573   21.9067 H   0  0  0  0  0  0  0  0  0  0  0  0
    8.0732    2.2507   20.5907 H   0  0  0  0  0  0  0  0  0  0  0  0
    9.9241    0.7949   21.1721 H   0  0  0  0  0  0  0  0  0  0  0  0
   10.5343    2.4405   20.9672 H   0  0  0  0  0  0  0  0  0  0  0  0
   10.4865   -0.4297   23.0762 H   0  0  0  0  0  0  0  0  0  0  0  0
   11.7705    0.1131   25.4859 H   0  0  0  0  0  0  0  0  0  0  0  0
   11.2733    4.6836   24.2611 H   0  0  0  0  0  0  0  0  0  0  0  0
   10.9661    4.3777   22.5313 H   0  0  0  0  0  0  0  0  0  0  0  0
    9.6187    4.4048   23.6796 H   0  0  0  0  0  0  0  0  0  0  0  0
  1  2  1  0
  2  3  2  0
  3  4  1  0
  4  5  2  0
  5  6  1  0
  6  7  1  0
  7  8  1  0
  8  9  1  0
  9 10  1  0
 10 11  2  0
 11 12  1  0
 12 13  1  0
 13 14  1  0
 14 15  1  0
 15 16  2  0
 16 17  1  0
 17 18  1  0
 18 19  1  0
 18 20  1  0
 17 21  1  0
 17 22  1  0
 16 23  1  0
 15 24  1  0
 14 25  1  0
 14 26  1  0
 13 27  1  0
 12 28  2  0
 28 29  1  0
 29 30  1  0
 30 31  2  0
 31 32  1  0
 32 33  2  0
 33 34  1  0
 34 35  2  0
 35 36  1  0
 33 37  1  0
 32 38  1  0
 31 39  1  0
  9 40  1  0
  9 41  1  0
  8 42  1  0
  8 43  1  0
  7 44  1  0
  7 45  1  0
  5 46  1  0
  4 47  1  0
  1 48  1  0
  1 49  1  0
  1 50  1  0
  6  2  1  0
 29 10  1  0
 35 30  1  0
 18 13  1  0
M  END
>  <cnnaffinity>  (1) 
-6.54385

>  <filename>  (1) 
Cc1nccn1CCCc1nc(C2CC=CCC2)nn1-c1cccnc1

$$$$
