
     RDKit          3D

 43 46  0  0  0  0  0  0  0  0999 V2000
   12.2490   -1.2725   21.1688 C   0  0  0  0  0  0  0  0  0  0  0  0
   11.9234   -0.0092   21.9172 C   0  0  0  0  0  0  0  0  0  0  0  0
   12.7968    0.3854   22.8556 N   0  0  0  0  0  0  0  0  0  0  0  0
   12.5204    1.4858   23.5675 C   0  0  0  0  0  0  0  0  0  0  0  0
   11.3560    2.2360   23.3869 C   0  0  0  0  0  0  0  0  0  0  0  0
   11.0474    3.6599   24.3182 Cl  0  0  0  0  0  0  0  0  0  0  0  0
   10.4392    1.8394   22.4159 C   0  0  0  0  0  0  0  0  0  0  0  0
   10.7341    0.7152   21.6420 C   0  0  0  0  0  0  0  0  0  0  0  0
    9.6678    0.2256   20.6821 C   0  0  0  0  0  0  0  0  0  0  0  0
    8.6323   -0.6283   21.3387 C   0  0  0  0  0  0  0  0  0  0  0  0
    8.8483   -1.4898   22.3083 N   0  0  0  0  0  0  0  0  0  0  0  0
    7.6138   -2.0004   22.5448 C   0  0  0  0  0  0  0  0  0  0  0  0
    7.3858   -2.9611   23.6537 C   0  0  0  0  0  0  0  0  0  0  0  0
    7.7238   -2.4192   25.0625 C   0  0  0  0  0  0  0  0  0  0  0  0
    8.0998   -3.6841   25.8407 C   0  0  0  0  0  0  0  0  0  0  0  0
    8.4284   -4.6774   24.8810 O   0  0  0  0  0  0  0  0  0  0  0  0
    8.2733   -4.2116   23.5558 C   0  0  0  0  0  0  0  0  0  0  0  0
    9.2568   -3.9892   23.1101 H   0  0  0  0  0  0  0  0  0  0  0  0
    7.8041   -5.0138   22.9721 H   0  0  0  0  0  0  0  0  0  0  0  0
    8.9570   -3.5216   26.5097 H   0  0  0  0  0  0  0  0  0  0  0  0
    7.2664   -4.0551   26.4547 H   0  0  0  0  0  0  0  0  0  0  0  0
    8.5757   -1.7302   25.0110 H   0  0  0  0  0  0  0  0  0  0  0  0
    6.8840   -1.8883   25.5194 H   0  0  0  0  0  0  0  0  0  0  0  0
    6.3353   -3.2516   23.6072 H   0  0  0  0  0  0  0  0  0  0  0  0
    6.6666   -1.5579   21.7494 N   0  0  0  0  0  0  0  0  0  0  0  0
    7.3289   -0.6893   20.9373 N   0  0  0  0  0  0  0  0  0  0  0  0
    6.6493    0.0026   19.9011 C   0  0  0  0  0  0  0  0  0  0  0  0
    5.4355    0.6467   20.1644 C   0  0  0  0  0  0  0  0  0  0  0  0
    4.8111    1.3126   19.1088 C   0  0  0  0  0  0  0  0  0  0  0  0
    5.4002    1.2956   17.8378 C   0  0  0  0  0  0  0  0  0  0  0  0
    6.5597    0.6732   17.5792 N   0  0  0  0  0  0  0  0  0  0  0  0
    7.1667    0.0507   18.5938 C   0  0  0  0  0  0  0  0  0  0  0  0
    8.1136   -0.4310   18.3645 H   0  0  0  0  0  0  0  0  0  0  0  0
    4.9199    1.7841   16.9938 H   0  0  0  0  0  0  0  0  0  0  0  0
    3.8795    1.8413   19.2601 H   0  0  0  0  0  0  0  0  0  0  0  0
    5.0162    0.6102   21.1727 H   0  0  0  0  0  0  0  0  0  0  0  0
   10.0576   -0.3945   19.8678 H   0  0  0  0  0  0  0  0  0  0  0  0
    9.1856    1.0931   20.2271 H   0  0  0  0  0  0  0  0  0  0  0  0
    9.5084    2.3960   22.2811 H   0  0  0  0  0  0  0  0  0  0  0  0
   13.2517    1.7866   24.3142 H   0  0  0  0  0  0  0  0  0  0  0  0
   13.1494   -1.7360   21.5685 H   0  0  0  0  0  0  0  0  0  0  0  0
   12.4235   -1.0844   20.1089 H   0  0  0  0  0  0  0  0  0  0  0  0
   11.4174   -1.9821   21.2071 H   0  0  0  0  0  0  0  0  0  0  0  0
  1  2  1  0
  2  3  2  0
  3  4  1  0
  4  5  2  0
  5  6  1  0
  5  7  1  0
  7  8  2  0
  8  9  1  0
  9 10  1  0
 10 11  2  0
 11 12  1  0
 12 13  1  0
 13 14  1  0
 14 15  1  0
 15 16  1  0
 16 17  1  0
 17 18  1  0
 17 19  1  0
 15 20  1  0
 15 21  1  0
 14 22  1  0
 14 23  1  0
 13 24  1  0
 12 25  2  0
 25 26  1  0
 26 27  1  0
 27 28  2  0
 28 29  1  0
 29 30  2  0
 30 31  1  0
 31 32  2  0
 32 33  1  0
 30 34  1  0
 29 35  1  0
 28 36  1  0
  9 37  1  0
  9 38  1  0
  7 39  1  0
  4 40  1  0
  1 41  1  0
  1 42  1  0
  1 43  1  0
  8  2  1  0
 26 10  1  0
 32 27  1  0
 17 13  1  0
M  END
>  <cnnaffinity>  (1) 
-6.40045

>  <filename>  (1) 
Cc1ncc(Cl)cc1Cc1nc(C2CCOC2)nn1-c1cccnc1

$$$$
