
     RDKit          3D

 49 52  0  0  0  0  0  0  0  0999 V2000
   11.8075    2.8178   24.0017 C   0  0  0  0  0  0  0  0  0  0  0  0
   11.6349    1.7424   22.9795 C   0  0  0  0  0  0  0  0  0  0  0  0
   10.6172    1.7271   22.1385 N   0  0  0  0  0  0  0  0  0  0  0  0
   10.7329    0.5726   21.4495 N   0  0  0  0  0  0  0  0  0  0  0  0
    9.6137    0.1748   20.6165 C   0  0  0  0  0  0  0  0  0  0  0  0
    8.5928   -0.6276   21.3597 C   0  0  0  0  0  0  0  0  0  0  0  0
    8.8096   -1.4261   22.3819 N   0  0  0  0  0  0  0  0  0  0  0  0
    7.5925   -1.9850   22.6201 C   0  0  0  0  0  0  0  0  0  0  0  0
    7.3214   -2.9542   23.7411 C   0  0  0  0  0  0  0  0  0  0  0  0
    8.2603   -4.1866   23.7329 C   0  0  0  0  0  0  0  0  0  0  0  0
    9.5305   -3.7476   24.4936 C   0  0  0  0  0  0  0  0  0  0  0  0
    9.1117   -2.5464   25.3735 C   0  0  0  0  0  0  0  0  0  0  0  0
    7.6004   -2.3397   25.1365 C   0  0  0  0  0  0  0  0  0  0  0  0
    7.3003   -1.2867   25.2020 H   0  0  0  0  0  0  0  0  0  0  0  0
    7.0120   -2.8770   25.8937 H   0  0  0  0  0  0  0  0  0  0  0  0
    9.6649   -1.6523   25.0711 H   0  0  0  0  0  0  0  0  0  0  0  0
    9.3277   -2.7054   26.4363 H   0  0  0  0  0  0  0  0  0  0  0  0
   10.3137   -3.4476   23.7896 H   0  0  0  0  0  0  0  0  0  0  0  0
    9.9453   -4.5741   25.0827 H   0  0  0  0  0  0  0  0  0  0  0  0
    7.7635   -5.0085   24.2674 H   0  0  0  0  0  0  0  0  0  0  0  0
    8.4747   -4.5558   22.7228 H   0  0  0  0  0  0  0  0  0  0  0  0
    6.2731   -3.2406   23.6187 H   0  0  0  0  0  0  0  0  0  0  0  0
    6.6490   -1.5956   21.7840 N   0  0  0  0  0  0  0  0  0  0  0  0
    7.2914   -0.7345   20.9501 N   0  0  0  0  0  0  0  0  0  0  0  0
    6.6025   -0.0591   19.9051 C   0  0  0  0  0  0  0  0  0  0  0  0
    5.3954    0.6107   20.1463 C   0  0  0  0  0  0  0  0  0  0  0  0
    4.8101    1.3124   19.0873 C   0  0  0  0  0  0  0  0  0  0  0  0
    5.4333    1.3011   17.8333 C   0  0  0  0  0  0  0  0  0  0  0  0
    6.5702    0.6331   17.5862 N   0  0  0  0  0  0  0  0  0  0  0  0
    7.1310   -0.0313   18.6022 C   0  0  0  0  0  0  0  0  0  0  0  0
    8.0523   -0.5649   18.3764 H   0  0  0  0  0  0  0  0  0  0  0  0
    5.0015    1.8415   16.9943 H   0  0  0  0  0  0  0  0  0  0  0  0
    3.8890    1.8693   19.2237 H   0  0  0  0  0  0  0  0  0  0  0  0
    4.9469    0.5755   21.1390 H   0  0  0  0  0  0  0  0  0  0  0  0
    9.9588   -0.4235   19.7676 H   0  0  0  0  0  0  0  0  0  0  0  0
    9.1703    1.0955   20.2324 H   0  0  0  0  0  0  0  0  0  0  0  0
   11.8160   -0.1544   21.8642 C   0  0  0  0  0  0  0  0  0  0  0  0
   12.1843   -1.4782   21.2602 C   0  0  0  0  0  0  0  0  0  0  0  0
   11.3026   -2.1276   21.1999 H   0  0  0  0  0  0  0  0  0  0  0  0
   12.9289   -1.9818   21.8833 H   0  0  0  0  0  0  0  0  0  0  0  0
   12.6130   -1.3670   20.2556 H   0  0  0  0  0  0  0  0  0  0  0  0
   12.4479    0.5908   22.8462 C   0  0  0  0  0  0  0  0  0  0  0  0
   13.7076    0.3301   23.6226 C   0  0  0  0  0  0  0  0  0  0  0  0
   14.4119    1.1663   23.5242 H   0  0  0  0  0  0  0  0  0  0  0  0
   13.4914    0.2402   24.6957 H   0  0  0  0  0  0  0  0  0  0  0  0
   14.2313   -0.5709   23.2825 H   0  0  0  0  0  0  0  0  0  0  0  0
   11.9243    2.3713   24.9969 H   0  0  0  0  0  0  0  0  0  0  0  0
   10.9427    3.4818   24.0137 H   0  0  0  0  0  0  0  0  0  0  0  0
   12.7110    3.4030   23.8017 H   0  0  0  0  0  0  0  0  0  0  0  0
  1  2  1  0
  2  3  2  0
  3  4  1  0
  4  5  1  0
  5  6  1  0
  6  7  2  0
  7  8  1  0
  8  9  1  0
  9 10  1  0
 10 11  1  0
 11 12  1  0
 12 13  1  0
 13 14  1  0
 13 15  1  0
 12 16  1  0
 12 17  1  0
 11 18  1  0
 11 19  1  0
 10 20  1  0
 10 21  1  0
  9 22  1  0
  8 23  2  0
 23 24  1  0
 24 25  1  0
 25 26  2  0
 26 27  1  0
 27 28  2  0
 28 29  1  0
 29 30  2  0
 30 31  1  0
 28 32  1  0
 27 33  1  0
 26 34  1  0
  5 35  1  0
  5 36  1  0
  4 37  1  0
 37 38  1  0
 38 39  1  0
 38 40  1  0
 38 41  1  0
 37 42  2  0
 42 43  1  0
 43 44  1  0
 43 45  1  0
 43 46  1  0
  1 47  1  0
  1 48  1  0
  1 49  1  0
 42  2  1  0
 24  6  1  0
 30 25  1  0
 13  9  1  0
M  END
>  <cnnaffinity>  (1) 
-6.76414

>  <filename>  (1) 
Cc1nn(Cc2nc(C3CCCC3)nn2-c2cccnc2)c(C)c1C

$$$$
