
     RDKit          3D

 44 47  0  0  0  0  0  0  0  0999 V2000
    8.5981    2.7508   22.1200 C   0  0  0  0  0  0  0  0  0  0  0  0
    9.9394    2.1841   22.4729 C   0  0  0  0  0  0  0  0  0  0  0  0
   10.5941    2.7789   23.4722 N   0  0  0  0  0  0  0  0  0  0  0  0
   11.7593    2.2423   23.8219 C   0  0  0  0  0  0  0  0  0  0  0  0
   12.3298    1.1669   23.2938 N   0  0  0  0  0  0  0  0  0  0  0  0
   11.6496    0.5517   22.3241 C   0  0  0  0  0  0  0  0  0  0  0  0
   12.1822   -0.7765   21.8635 C   0  0  0  0  0  0  0  0  0  0  0  0
   13.1847   -0.9359   22.2671 H   0  0  0  0  0  0  0  0  0  0  0  0
   11.4953   -1.5549   22.2245 H   0  0  0  0  0  0  0  0  0  0  0  0
   12.2016   -0.8692   20.7675 H   0  0  0  0  0  0  0  0  0  0  0  0
   10.4511    1.0633   21.8097 C   0  0  0  0  0  0  0  0  0  0  0  0
    9.6249    0.3011   20.7816 C   0  0  0  0  0  0  0  0  0  0  0  0
    8.5912   -0.6127   21.3674 C   0  0  0  0  0  0  0  0  0  0  0  0
    8.8155   -1.4653   22.3406 N   0  0  0  0  0  0  0  0  0  0  0  0
    7.6054   -2.0460   22.5402 C   0  0  0  0  0  0  0  0  0  0  0  0
    7.3977   -3.0494   23.5993 C   0  0  0  0  0  0  0  0  0  0  0  0
    8.4577   -3.4430   24.4406 C   0  0  0  0  0  0  0  0  0  0  0  0
    8.2370   -4.3888   25.4430 C   0  0  0  0  0  0  0  0  0  0  0  0
    6.9632   -4.9441   25.6142 C   0  0  0  0  0  0  0  0  0  0  0  0
    5.9062   -4.5480   24.7868 C   0  0  0  0  0  0  0  0  0  0  0  0
    6.1178   -3.6018   23.7852 C   0  0  0  0  0  0  0  0  0  0  0  0
    5.3067   -3.2654   23.1415 H   0  0  0  0  0  0  0  0  0  0  0  0
    4.9144   -4.9701   24.9191 H   0  0  0  0  0  0  0  0  0  0  0  0
    6.7944   -5.6815   26.3945 H   0  0  0  0  0  0  0  0  0  0  0  0
    9.0572   -4.6910   26.0904 H   0  0  0  0  0  0  0  0  0  0  0  0
    9.4445   -3.0008   24.3122 H   0  0  0  0  0  0  0  0  0  0  0  0
    6.6549   -1.6167   21.7233 N   0  0  0  0  0  0  0  0  0  0  0  0
    7.2994   -0.7105   20.9506 N   0  0  0  0  0  0  0  0  0  0  0  0
    6.6277   -0.0286   19.8947 C   0  0  0  0  0  0  0  0  0  0  0  0
    5.4209    0.6266   20.1520 C   0  0  0  0  0  0  0  0  0  0  0  0
    4.7999    1.3098   19.1020 C   0  0  0  0  0  0  0  0  0  0  0  0
    5.3959    1.2966   17.8347 C   0  0  0  0  0  0  0  0  0  0  0  0
    6.5429    0.6518   17.5734 N   0  0  0  0  0  0  0  0  0  0  0  0
    7.1448    0.0158   18.5852 C   0  0  0  0  0  0  0  0  0  0  0  0
    8.0931   -0.4633   18.3447 H   0  0  0  0  0  0  0  0  0  0  0  0
    4.9372    1.8189   16.9973 H   0  0  0  0  0  0  0  0  0  0  0  0
    3.8727    1.8538   19.2536 H   0  0  0  0  0  0  0  0  0  0  0  0
    5.0047    0.5895   21.1589 H   0  0  0  0  0  0  0  0  0  0  0  0
   10.2527   -0.3747   20.1939 H   0  0  0  0  0  0  0  0  0  0  0  0
    9.1369    0.9953   20.0969 H   0  0  0  0  0  0  0  0  0  0  0  0
   12.2796    2.7144   24.6475 H   0  0  0  0  0  0  0  0  0  0  0  0
    7.8267    1.9759   22.1650 H   0  0  0  0  0  0  0  0  0  0  0  0
    8.6030    3.1510   21.1026 H   0  0  0  0  0  0  0  0  0  0  0  0
    8.3401    3.5481   22.8151 H   0  0  0  0  0  0  0  0  0  0  0  0
  1  2  1  0
  2  3  2  0
  3  4  1  0
  4  5  2  0
  5  6  1  0
  6  7  1  0
  7  8  1  0
  7  9  1  0
  7 10  1  0
  6 11  2  0
 11 12  1  0
 12 13  1  0
 13 14  2  0
 14 15  1  0
 15 16  1  0
 16 17  2  0
 17 18  1  0
 18 19  2  0
 19 20  1  0
 20 21  2  0
 21 22  1  0
 20 23  1  0
 19 24  1  0
 18 25  1  0
 17 26  1  0
 15 27  2  0
 27 28  1  0
 28 29  1  0
 29 30  2  0
 30 31  1  0
 31 32  2  0
 32 33  1  0
 33 34  2  0
 34 35  1  0
 32 36  1  0
 31 37  1  0
 30 38  1  0
 12 39  1  0
 12 40  1  0
  4 41  1  0
  1 42  1  0
  1 43  1  0
  1 44  1  0
 11  2  1  0
 28 13  1  0
 34 29  1  0
 21 16  1  0
M  END
>  <cnnaffinity>  (1) 
-6.22101

>  <filename>  (1) 
Cc1ncnc(C)c1Cc1nc(-c2ccccc2)nn1-c1cccnc1

$$$$
