
     RDKit          3D

 42 45  0  0  0  0  0  0  0  0999 V2000
    6.8111   -4.9942   21.3534 C   0  0  0  0  0  0  0  0  0  0  0  0
    6.1369   -4.1946   20.2996 C   0  0  0  0  0  0  0  0  0  0  0  0
    5.8227   -4.6835   19.1316 N   0  0  0  0  0  0  0  0  0  0  0  0
    5.3575   -3.6111   18.3891 O   0  0  0  0  0  0  0  0  0  0  0  0
    5.3714   -2.5141   19.1461 C   0  0  0  0  0  0  0  0  0  0  0  0
    5.8099   -2.8073   20.3934 C   0  0  0  0  0  0  0  0  0  0  0  0
    5.8403   -1.9070   21.6069 C   0  0  0  0  0  0  0  0  0  0  0  0
    7.1419   -1.2256   21.8561 C   0  0  0  0  0  0  0  0  0  0  0  0
    8.0837   -1.5924   22.7006 N   0  0  0  0  0  0  0  0  0  0  0  0
    9.1164   -0.7735   22.3760 C   0  0  0  0  0  0  0  0  0  0  0  0
   10.4652   -0.9376   23.0063 C   0  0  0  0  0  0  0  0  0  0  0  0
   11.4001   -1.8297   22.1391 C   0  0  0  0  0  0  0  0  0  0  0  0
   12.7908   -1.1688   22.1524 C   0  0  0  0  0  0  0  0  0  0  0  0
   12.6977    0.1103   23.0135 C   0  0  0  0  0  0  0  0  0  0  0  0
   11.2051    0.3954   23.2374 C   0  0  0  0  0  0  0  0  0  0  0  0
   10.9919    0.7854   24.2405 H   0  0  0  0  0  0  0  0  0  0  0  0
   10.8410    1.1422   22.5227 H   0  0  0  0  0  0  0  0  0  0  0  0
   13.2075   -0.0274   23.9733 H   0  0  0  0  0  0  0  0  0  0  0  0
   13.1891    0.9585   22.5248 H   0  0  0  0  0  0  0  0  0  0  0  0
   13.5683   -1.8396   22.5156 H   0  0  0  0  0  0  0  0  0  0  0  0
   13.0950   -0.9528   21.1303 H   0  0  0  0  0  0  0  0  0  0  0  0
   11.0261   -1.9071   21.1107 H   0  0  0  0  0  0  0  0  0  0  0  0
   11.4089   -2.8534   22.5289 H   0  0  0  0  0  0  0  0  0  0  0  0
   10.2782   -1.4473   23.9574 H   0  0  0  0  0  0  0  0  0  0  0  0
    8.8741    0.0612   21.3775 N   0  0  0  0  0  0  0  0  0  0  0  0
    7.5780   -0.2020   21.0733 N   0  0  0  0  0  0  0  0  0  0  0  0
    6.9243    0.4478   19.9914 C   0  0  0  0  0  0  0  0  0  0  0  0
    5.6913    1.1036   20.1337 C   0  0  0  0  0  0  0  0  0  0  0  0
    5.0499    1.5473   18.9721 C   0  0  0  0  0  0  0  0  0  0  0  0
    5.6662    1.3435   17.7348 C   0  0  0  0  0  0  0  0  0  0  0  0
    6.8844    0.7875   17.6041 N   0  0  0  0  0  0  0  0  0  0  0  0
    7.5082    0.3821   18.7157 C   0  0  0  0  0  0  0  0  0  0  0  0
    8.5066   -0.0361   18.6075 H   0  0  0  0  0  0  0  0  0  0  0  0
    5.1703    1.6382   16.8114 H   0  0  0  0  0  0  0  0  0  0  0  0
    4.0941    2.0604   19.0180 H   0  0  0  0  0  0  0  0  0  0  0  0
    5.2562    1.2883   21.1189 H   0  0  0  0  0  0  0  0  0  0  0  0
    5.0934   -1.1248   21.4457 H   0  0  0  0  0  0  0  0  0  0  0  0
    5.5925   -2.4606   22.5186 H   0  0  0  0  0  0  0  0  0  0  0  0
    5.0877   -1.5799   18.6669 H   0  0  0  0  0  0  0  0  0  0  0  0
    6.9553   -6.0237   21.0304 H   0  0  0  0  0  0  0  0  0  0  0  0
    6.2159   -4.9870   22.2679 H   0  0  0  0  0  0  0  0  0  0  0  0
    7.7842   -4.5427   21.5802 H   0  0  0  0  0  0  0  0  0  0  0  0
  1  2  1  0
  2  3  2  0
  3  4  1  0
  4  5  1  0
  5  6  2  0
  6  7  1  0
  7  8  1  0
  8  9  2  0
  9 10  1  0
 10 11  1  0
 11 12  1  0
 12 13  1  0
 13 14  1  0
 14 15  1  0
 15 16  1  0
 15 17  1  0
 14 18  1  0
 14 19  1  0
 13 20  1  0
 13 21  1  0
 12 22  1  0
 12 23  1  0
 11 24  1  0
 10 25  2  0
 25 26  1  0
 26 27  1  0
 27 28  2  0
 28 29  1  0
 29 30  2  0
 30 31  1  0
 31 32  2  0
 32 33  1  0
 30 34  1  0
 29 35  1  0
 28 36  1  0
  7 37  1  0
  7 38  1  0
  5 39  1  0
  1 40  1  0
  1 41  1  0
  1 42  1  0
  6  2  1  0
 26  8  1  0
 32 27  1  0
 15 11  1  0
M  END
>  <cnnaffinity>  (1) 
-5.69607

>  <filename>  (1) 
Cc1nocc1Cc1nc(C2CCCC2)nn1-c1cccnc1

$$$$
