
     RDKit          3D

 40 43  0  0  0  0  0  0  0  0999 V2000
    8.1758    4.2652   24.1931 C   0  0  0  0  0  0  0  0  0  0  0  0
    8.4764    3.3713   23.0500 C   0  0  0  0  0  0  0  0  0  0  0  0
    9.2060    2.2831   23.0855 N   0  0  0  0  0  0  0  0  0  0  0  0
    9.1328    1.7616   21.8236 C   0  0  0  0  0  0  0  0  0  0  0  0
    9.7119    0.4558   21.4335 C   0  0  0  0  0  0  0  0  0  0  0  0
    8.7120   -0.6317   21.6649 C   0  0  0  0  0  0  0  0  0  0  0  0
    8.8341   -1.5077   22.6119 N   0  0  0  0  0  0  0  0  0  0  0  0
    7.6333   -2.1538   22.6302 C   0  0  0  0  0  0  0  0  0  0  0  0
    7.3665   -3.1799   23.6640 C   0  0  0  0  0  0  0  0  0  0  0  0
    8.4074   -3.4473   24.5749 C   0  0  0  0  0  0  0  0  0  0  0  0
    8.2341   -4.3828   25.5847 C   0  0  0  0  0  0  0  0  0  0  0  0
    9.5359   -4.6570   26.7094 Cl  0  0  0  0  0  0  0  0  0  0  0  0
    7.0330   -5.0810   25.7109 C   0  0  0  0  0  0  0  0  0  0  0  0
    5.9885   -4.8099   24.8162 C   0  0  0  0  0  0  0  0  0  0  0  0
    6.1391   -3.8612   23.7977 C   0  0  0  0  0  0  0  0  0  0  0  0
    5.3085   -3.6461   23.1273 H   0  0  0  0  0  0  0  0  0  0  0  0
    5.0475   -5.3432   24.9310 H   0  0  0  0  0  0  0  0  0  0  0  0
    6.9307   -5.8126   26.5050 H   0  0  0  0  0  0  0  0  0  0  0  0
    9.3474   -2.9110   24.4970 H   0  0  0  0  0  0  0  0  0  0  0  0
    6.7852   -1.7402   21.7104 N   0  0  0  0  0  0  0  0  0  0  0  0
    7.4868   -0.7686   21.0594 N   0  0  0  0  0  0  0  0  0  0  0  0
    6.8315   -0.0731   19.9935 C   0  0  0  0  0  0  0  0  0  0  0  0
    5.6129    0.5731   20.2402 C   0  0  0  0  0  0  0  0  0  0  0  0
    4.9789    1.2356   19.1854 C   0  0  0  0  0  0  0  0  0  0  0  0
    5.5808    1.2318   17.9215 C   0  0  0  0  0  0  0  0  0  0  0  0
    6.7337    0.5901   17.6723 N   0  0  0  0  0  0  0  0  0  0  0  0
    7.3303   -0.0587   18.6813 C   0  0  0  0  0  0  0  0  0  0  0  0
    8.2384   -0.6024   18.4263 H   0  0  0  0  0  0  0  0  0  0  0  0
    5.1215    1.7549   17.0819 H   0  0  0  0  0  0  0  0  0  0  0  0
    4.0358    1.7543   19.3305 H   0  0  0  0  0  0  0  0  0  0  0  0
    5.1873    0.5402   21.2433 H   0  0  0  0  0  0  0  0  0  0  0  0
    9.9896    0.4627   20.3840 H   0  0  0  0  0  0  0  0  0  0  0  0
   10.5989    0.2537   22.0370 H   0  0  0  0  0  0  0  0  0  0  0  0
    8.3459    2.5220   21.0252 C   0  0  0  0  0  0  0  0  0  0  0  0
    7.9296    3.5696   21.8198 N   0  0  0  0  0  0  0  0  0  0  0  0
    7.3272    4.3379   21.5782 H   0  0  0  0  0  0  0  0  0  0  0  0
    8.0280    2.3183   20.0176 H   0  0  0  0  0  0  0  0  0  0  0  0
    8.7963    3.9851   25.0447 H   0  0  0  0  0  0  0  0  0  0  0  0
    7.1228    4.1639   24.4732 H   0  0  0  0  0  0  0  0  0  0  0  0
    8.3610    5.3090   23.9303 H   0  0  0  0  0  0  0  0  0  0  0  0
  1  2  1  0
  2  3  2  0
  3  4  1  0
  4  5  1  0
  5  6  1  0
  6  7  2  0
  7  8  1  0
  8  9  1  0
  9 10  2  0
 10 11  1  0
 11 12  1  0
 11 13  2  0
 13 14  1  0
 14 15  2  0
 15 16  1  0
 14 17  1  0
 13 18  1  0
 10 19  1  0
  8 20  2  0
 20 21  1  0
 21 22  1  0
 22 23  2  0
 23 24  1  0
 24 25  2  0
 25 26  1  0
 26 27  2  0
 27 28  1  0
 25 29  1  0
 24 30  1  0
 23 31  1  0
  5 32  1  0
  5 33  1  0
  4 34  2  0
 34 35  1  0
 35 36  1  0
 34 37  1  0
  1 38  1  0
  1 39  1  0
  1 40  1  0
 35  2  1  0
 21  6  1  0
 27 22  1  0
 15  9  1  0
M  END
>  <cnnaffinity>  (1) 
-6.1932

>  <filename>  (1) 
Cc1nc(Cc2nc(-c3cccc(Cl)c3)nn2-c2cccnc2)c[nH]1

$$$$
