
     RDKit          3D

 45 48  0  0  0  0  0  0  0  0999 V2000
    8.1736   -0.3428   27.2963 C   0  0  0  0  0  0  0  0  0  0  0  0
    7.5346    0.3074   26.1258 C   0  0  0  0  0  0  0  0  0  0  0  0
    8.0728    1.1194   25.2853 N   0  0  0  0  0  0  0  0  0  0  0  0
    7.1259    1.2932   24.2891 C   0  0  0  0  0  0  0  0  0  0  0  0
    7.5457    2.0223   23.0512 C   0  0  0  0  0  0  0  0  0  0  0  0
    8.5451    1.1798   22.3315 C   0  0  0  0  0  0  0  0  0  0  0  0
    9.8522    1.2463   22.4765 N   0  0  0  0  0  0  0  0  0  0  0  0
   10.2934    0.0871   21.9249 C   0  0  0  0  0  0  0  0  0  0  0  0
   11.6843   -0.4008   21.8743 C   0  0  0  0  0  0  0  0  0  0  0  0
   11.8830   -1.6036   21.1767 C   0  0  0  0  0  0  0  0  0  0  0  0
   13.1562   -1.9734   20.7851 C   0  0  0  0  0  0  0  0  0  0  0  0
   14.2448   -1.2085   21.1707 C   0  0  0  0  0  0  0  0  0  0  0  0
   14.0783   -0.1180   22.0355 C   0  0  0  0  0  0  0  0  0  0  0  0
   12.7932    0.2967   22.4297 C   0  0  0  0  0  0  0  0  0  0  0  0
   12.6331    1.4510   23.3940 C   0  0  0  0  0  0  0  0  0  0  0  0
   13.5928    1.7435   23.8349 H   0  0  0  0  0  0  0  0  0  0  0  0
   11.9558    1.1955   24.2181 H   0  0  0  0  0  0  0  0  0  0  0  0
   12.2010    2.3175   22.8852 H   0  0  0  0  0  0  0  0  0  0  0  0
   14.9431    0.4416   22.3879 H   0  0  0  0  0  0  0  0  0  0  0  0
   15.1906   -1.5034   20.7486 H   0  0  0  0  0  0  0  0  0  0  0  0
   13.3140   -2.8125   20.1191 H   0  0  0  0  0  0  0  0  0  0  0  0
   11.0067   -2.1926   20.9059 H   0  0  0  0  0  0  0  0  0  0  0  0
    9.3192   -0.6425   21.3986 N   0  0  0  0  0  0  0  0  0  0  0  0
    8.2026    0.0400   21.6926 N   0  0  0  0  0  0  0  0  0  0  0  0
    6.9172   -0.5109   21.2711 C   0  0  0  0  0  0  0  0  0  0  0  0
    6.3409    0.1877   20.0640 C   0  0  0  0  0  0  0  0  0  0  0  0
    5.1105    0.8507   20.0573 C   0  0  0  0  0  0  0  0  0  0  0  0
    4.6930    1.4784   18.8800 C   0  0  0  0  0  0  0  0  0  0  0  0
    5.5109    1.3976   17.7503 C   0  0  0  0  0  0  0  0  0  0  0  0
    6.6831    0.7447   17.7311 N   0  0  0  0  0  0  0  0  0  0  0  0
    7.0807    0.1712   18.8702 C   0  0  0  0  0  0  0  0  0  0  0  0
    8.0405   -0.3445   18.8522 H   0  0  0  0  0  0  0  0  0  0  0  0
    5.2214    1.8717   16.8151 H   0  0  0  0  0  0  0  0  0  0  0  0
    3.7731    2.0504   18.8265 H   0  0  0  0  0  0  0  0  0  0  0  0
    4.4879    0.8798   20.9542 H   0  0  0  0  0  0  0  0  0  0  0  0
    7.1205   -1.5664   21.0499 H   0  0  0  0  0  0  0  0  0  0  0  0
    6.2309   -0.4736   22.1192 H   0  0  0  0  0  0  0  0  0  0  0  0
    6.6982    2.2371   22.3987 H   0  0  0  0  0  0  0  0  0  0  0  0
    8.0402    2.9521   23.3350 H   0  0  0  0  0  0  0  0  0  0  0  0
    6.0176    0.5950   24.6230 C   0  0  0  0  0  0  0  0  0  0  0  0
    6.2706   -0.0503   25.8073 O   0  0  0  0  0  0  0  0  0  0  0  0
    5.0355    0.4460   24.2017 H   0  0  0  0  0  0  0  0  0  0  0  0
    8.5209   -1.3432   27.0166 H   0  0  0  0  0  0  0  0  0  0  0  0
    9.0358    0.2419   27.6092 H   0  0  0  0  0  0  0  0  0  0  0  0
    7.4595   -0.4280   28.1114 H   0  0  0  0  0  0  0  0  0  0  0  0
  1  2  1  0
  2  3  2  0
  3  4  1  0
  4  5  1  0
  5  6  1  0
  6  7  2  0
  7  8  1  0
  8  9  1  0
  9 10  2  0
 10 11  1  0
 11 12  2  0
 12 13  1  0
 13 14  2  0
 14 15  1  0
 15 16  1  0
 15 17  1  0
 15 18  1  0
 13 19  1  0
 12 20  1  0
 11 21  1  0
 10 22  1  0
  8 23  2  0
 23 24  1  0
 24 25  1  0
 25 26  1  0
 26 27  2  0
 27 28  1  0
 28 29  2  0
 29 30  1  0
 30 31  2  0
 31 32  1  0
 29 33  1  0
 28 34  1  0
 27 35  1  0
 25 36  1  0
 25 37  1  0
  5 38  1  0
  5 39  1  0
  4 40  2  0
 40 41  1  0
 40 42  1  0
  1 43  1  0
  1 44  1  0
  1 45  1  0
 41  2  1  0
 24  6  1  0
 31 26  1  0
 14  9  1  0
M  END
>  <cnnaffinity>  (1) 
-6.58845

>  <filename>  (1) 
Cc1nc(Cc2nc(-c3ccccc3C)nn2Cc2cccnc2)co1

$$$$
