
     RDKit          3D

 43 46  0  0  0  0  0  0  0  0999 V2000
    8.3266   -0.1663   27.3011 C   0  0  0  0  0  0  0  0  0  0  0  0
    7.6764    0.3162   26.0481 C   0  0  0  0  0  0  0  0  0  0  0  0
    8.2667    1.0362   25.1358 N   0  0  0  0  0  0  0  0  0  0  0  0
    7.3678    1.1996   24.1120 C   0  0  0  0  0  0  0  0  0  0  0  0
    7.7977    1.8654   22.8402 C   0  0  0  0  0  0  0  0  0  0  0  0
    8.7941    0.9843   22.1699 C   0  0  0  0  0  0  0  0  0  0  0  0
   10.1012    1.0560   22.3301 N   0  0  0  0  0  0  0  0  0  0  0  0
   10.5283   -0.1446   21.8820 C   0  0  0  0  0  0  0  0  0  0  0  0
   11.9248   -0.5781   21.8082 C   0  0  0  0  0  0  0  0  0  0  0  0
   12.1534   -1.7714   21.1161 C   0  0  0  0  0  0  0  0  0  0  0  0
   13.3761   -2.0419   20.5384 C   0  0  0  0  0  0  0  0  0  0  0  0
   14.3915   -1.1279   20.7580 C   0  0  0  0  0  0  0  0  0  0  0  0
   15.4214   -1.1755   19.9111 F   0  0  0  0  0  0  0  0  0  0  0  0
   14.2861   -0.0992   21.7134 C   0  0  0  0  0  0  0  0  0  0  0  0
   13.0194    0.1929   22.2229 C   0  0  0  0  0  0  0  0  0  0  0  0
   12.8490    1.0620   22.8491 H   0  0  0  0  0  0  0  0  0  0  0  0
   15.1238    0.5373   21.9649 H   0  0  0  0  0  0  0  0  0  0  0  0
   13.5426   -2.8881   19.8828 H   0  0  0  0  0  0  0  0  0  0  0  0
   11.2980   -2.4098   20.9798 H   0  0  0  0  0  0  0  0  0  0  0  0
    9.5643   -0.9162   21.4018 N   0  0  0  0  0  0  0  0  0  0  0  0
    8.4534   -0.1827   21.5712 N   0  0  0  0  0  0  0  0  0  0  0  0
    7.1831   -0.7202   21.0879 C   0  0  0  0  0  0  0  0  0  0  0  0
    6.5464    0.0497   19.9528 C   0  0  0  0  0  0  0  0  0  0  0  0
    5.3187    0.7032   20.0938 C   0  0  0  0  0  0  0  0  0  0  0  0
    4.7663    1.3612   18.9931 C   0  0  0  0  0  0  0  0  0  0  0  0
    5.4654    1.3412   17.7834 C   0  0  0  0  0  0  0  0  0  0  0  0
    6.6424    0.7157   17.6247 N   0  0  0  0  0  0  0  0  0  0  0  0
    7.1653    0.0988   18.6912 C   0  0  0  0  0  0  0  0  0  0  0  0
    8.1226   -0.3970   18.5307 H   0  0  0  0  0  0  0  0  0  0  0  0
    5.0663    1.8453   16.9037 H   0  0  0  0  0  0  0  0  0  0  0  0
    3.8273    1.8972   19.0620 H   0  0  0  0  0  0  0  0  0  0  0  0
    4.8017    0.6957   21.0553 H   0  0  0  0  0  0  0  0  0  0  0  0
    7.4133   -1.7434   20.7693 H   0  0  0  0  0  0  0  0  0  0  0  0
    6.4957   -0.7911   21.9354 H   0  0  0  0  0  0  0  0  0  0  0  0
    6.9477    2.0518   22.1776 H   0  0  0  0  0  0  0  0  0  0  0  0
    8.2999    2.8043   23.0767 H   0  0  0  0  0  0  0  0  0  0  0  0
    6.1944    0.5775   24.4257 C   0  0  0  0  0  0  0  0  0  0  0  0
    6.3993    0.0205   25.6759 N   0  0  0  0  0  0  0  0  0  0  0  0
    5.7590   -0.5339   26.2208 H   0  0  0  0  0  0  0  0  0  0  0  0
    5.2794    0.4936   23.8623 H   0  0  0  0  0  0  0  0  0  0  0  0
    8.1430    0.5198   28.1336 H   0  0  0  0  0  0  0  0  0  0  0  0
    7.9686   -1.1609   27.5820 H   0  0  0  0  0  0  0  0  0  0  0  0
    9.4062   -0.2135   27.1339 H   0  0  0  0  0  0  0  0  0  0  0  0
  1  2  1  0
  2  3  2  0
  3  4  1  0
  4  5  1  0
  5  6  1  0
  6  7  2  0
  7  8  1  0
  8  9  1  0
  9 10  2  0
 10 11  1  0
 11 12  2  0
 12 13  1  0
 12 14  1  0
 14 15  2  0
 15 16  1  0
 14 17  1  0
 11 18  1  0
 10 19  1  0
  8 20  2  0
 20 21  1  0
 21 22  1  0
 22 23  1  0
 23 24  2  0
 24 25  1  0
 25 26  2  0
 26 27  1  0
 27 28  2  0
 28 29  1  0
 26 30  1  0
 25 31  1  0
 24 32  1  0
 22 33  1  0
 22 34  1  0
  5 35  1  0
  5 36  1  0
  4 37  2  0
 37 38  1  0
 38 39  1  0
 37 40  1  0
  1 41  1  0
  1 42  1  0
  1 43  1  0
 38  2  1  0
 21  6  1  0
 28 23  1  0
 15  9  1  0
M  END
>  <cnnaffinity>  (1) 
-6.668

>  <filename>  (1) 
Cc1nc(Cc2nc(-c3ccc(F)cc3)nn2Cc2cccnc2)c[nH]1

$$$$
