
     RDKit          3D

 42 45  0  0  0  0  0  0  0  0999 V2000
    9.4230    2.2521   25.7987 C   0  0  0  0  0  0  0  0  0  0  0  0
    9.4843    2.4589   26.0763 C   0  0  0  0  0  0  0  0  0  0  0  0
    9.6073    2.8676   23.7290 N   0  0  0  0  0  0  0  0  0  0  0  0
    8.6562    2.5420   22.9901 C   0  0  0  0  0  0  0  0  0  0  0  0
    7.4460    1.7018   23.4785 C   0  0  0  0  0  0  0  0  0  0  0  0
    6.4325    1.1725   22.4545 C   0  0  0  0  0  0  0  0  0  0  0  0
    6.8823   -0.1644   21.9644 C   0  0  0  0  0  0  0  0  0  0  0  0
    7.5699   -1.0363   22.6743 N   0  0  0  0  0  0  0  0  0  0  0  0
    7.8752   -2.0092   21.7777 C   0  0  0  0  0  0  0  0  0  0  0  0
    8.7812   -3.1702   22.0757 C   0  0  0  0  0  0  0  0  0  0  0  0
   10.1292   -2.7000   22.7114 C   0  0  0  0  0  0  0  0  0  0  0  0
   10.1399   -3.2561   24.1489 C   0  0  0  0  0  0  0  0  0  0  0  0
    8.6862   -3.6250   24.4549 C   0  0  0  0  0  0  0  0  0  0  0  0
    8.1753   -4.1493   23.1121 C   0  0  0  0  0  0  0  0  0  0  0  0
    7.0846   -4.2056   23.0636 H   0  0  0  0  0  0  0  0  0  0  0  0
    8.5468   -5.1665   22.9248 H   0  0  0  0  0  0  0  0  0  0  0  0
    8.1202   -2.7249   24.7349 H   0  0  0  0  0  0  0  0  0  0  0  0
    8.5876   -4.3482   25.2725 H   0  0  0  0  0  0  0  0  0  0  0  0
   10.5450   -2.5386   24.8630 H   0  0  0  0  0  0  0  0  0  0  0  0
   10.7844   -4.1442   24.2014 H   0  0  0  0  0  0  0  0  0  0  0  0
   10.1924   -1.6067   22.7161 H   0  0  0  0  0  0  0  0  0  0  0  0
   11.0029   -3.0509   22.1594 H   0  0  0  0  0  0  0  0  0  0  0  0
    8.9076   -3.6396   21.1003 H   0  0  0  0  0  0  0  0  0  0  0  0
    7.3852   -1.8112   20.5728 N   0  0  0  0  0  0  0  0  0  0  0  0
    6.7206   -0.6303   20.6922 N   0  0  0  0  0  0  0  0  0  0  0  0
    6.1876   -0.0050   19.5423 C   0  0  0  0  0  0  0  0  0  0  0  0
    5.0303    0.7813   19.5716 C   0  0  0  0  0  0  0  0  0  0  0  0
    4.6542    1.4297   18.3916 C   0  0  0  0  0  0  0  0  0  0  0  0
    5.4317    1.2620   17.2451 C   0  0  0  0  0  0  0  0  0  0  0  0
    6.5187    0.4726   17.2035 N   0  0  0  0  0  0  0  0  0  0  0  0
    6.8731   -0.1557   18.3243 C   0  0  0  0  0  0  0  0  0  0  0  0
    7.7481   -0.8020   18.2929 H   0  0  0  0  0  0  0  0  0  0  0  0
    5.1701    1.7699   16.3220 H   0  0  0  0  0  0  0  0  0  0  0  0
    3.7856    2.0766   18.3574 H   0  0  0  0  0  0  0  0  0  0  0  0
    4.4405    0.8877   20.4810 H   0  0  0  0  0  0  0  0  0  0  0  0
    5.4722    1.0702   22.9717 H   0  0  0  0  0  0  0  0  0  0  0  0
    6.3365    1.8869   21.6333 H   0  0  0  0  0  0  0  0  0  0  0  0
    7.3724    1.4235   24.6608 O   0  0  0  0  0  0  0  0  0  0  0  0
    8.5962    2.7861   21.9019 H   0  0  0  0  0  0  0  0  0  0  0  0
   10.4355    1.6706   26.2594 H   0  0  0  0  0  0  0  0  0  0  0  0
    8.8780    1.5158   26.6205 H   0  0  0  0  0  0  0  0  0  0  0  0
    8.2983    2.8339   25.9494 H   0  0  0  0  0  0  0  0  0  0  0  0
  1  2  1  0
  2  3  2  0
  3  4  1  0
  4  5  2  0
  5  6  1  0
  6  7  1  0
  7  8  2  0
  8  9  1  0
  9 10  1  0
 10 11  1  0
 11 12  1  0
 12 13  1  0
 13 14  1  0
 14 15  1  0
 14 16  1  0
 13 17  1  0
 13 18  1  0
 12 19  1  0
 12 20  1  0
 11 21  1  0
 11 22  1  0
 10 23  1  0
  9 24  2  0
 24 25  1  0
 25 26  1  0
 26 27  2  0
 27 28  1  0
 28 29  2  0
 29 30  1  0
 30 31  2  0
 31 32  1  0
 29 33  1  0
 28 34  1  0
 27 35  1  0
  6 36  1  0
  6 37  1  0
  5 38  1  0
  4 39  1  0
  1 40  1  0
  1 41  1  0
  1 42  1  0
 38  2  1  0
 25  7  1  0
 31 26  1  0
 14 10  1  0
M  END
>  <cnnaffinity>  (1) 
-5.9197

>  <filename>  (1) 
Cc1ncc(Cc2nc(C3CCCC3)nn2-c2cccnc2)o1

$$$$
