
     RDKit          3D

 38 40  0  0  0  0  0  0  0  0999 V2000
   13.5646   -0.3801   23.6474 H   0  0  0  0  0  0  0  0  0  0  0  0
   12.6692   -0.0372   23.4862 O   0  0  0  0  0  0  0  0  0  0  0  0
   12.4257    0.3987   24.7313 C   0  0  0  0  0  0  0  0  0  0  0  0
   13.3156    0.2977   25.5437 O   0  0  0  0  0  0  0  0  0  0  0  0
   11.0809    0.9820   24.9389 C   0  0  0  0  0  0  0  0  0  0  0  0
   10.0011    1.1877   24.0868 C   0  0  0  0  0  0  0  0  0  0  0  0
    9.8209    0.3530   22.8632 C   0  0  0  0  0  0  0  0  0  0  0  0
    9.0612    0.7658   22.1954 H   0  0  0  0  0  0  0  0  0  0  0  0
   10.7639    0.2744   22.3152 H   0  0  0  0  0  0  0  0  0  0  0  0
    9.4512   -1.0835   23.2506 C   0  0  0  0  0  0  0  0  0  0  0  0
   10.0225   -1.6783   24.1353 O   0  0  0  0  0  0  0  0  0  0  0  0
    8.3661   -1.7327   22.4410 C   0  0  0  0  0  0  0  0  0  0  0  0
    8.2554   -2.7769   22.7382 H   0  0  0  0  0  0  0  0  0  0  0  0
    7.0361   -0.9180   22.3406 C   0  0  0  0  0  0  0  0  0  0  0  0
    6.9725   -0.0100   22.9669 H   0  0  0  0  0  0  0  0  0  0  0  0
    6.1222   -1.5098   22.4803 H   0  0  0  0  0  0  0  0  0  0  0  0
    7.3809   -0.6763   20.9552 N   0  0  0  0  0  0  0  0  0  0  0  0
    6.7139   -0.0358   19.9471 C   0  0  0  0  0  0  0  0  0  0  0  0
    7.2201    0.0175   18.6162 C   0  0  0  0  0  0  0  0  0  0  0  0
    8.1628   -0.4827   18.3902 H   0  0  0  0  0  0  0  0  0  0  0  0
    6.6140    0.6422   17.5996 N   0  0  0  0  0  0  0  0  0  0  0  0
    5.4516    1.2629   17.8653 C   0  0  0  0  0  0  0  0  0  0  0  0
    4.9789    1.7695   17.0301 H   0  0  0  0  0  0  0  0  0  0  0  0
    4.8604    1.2687   19.1344 C   0  0  0  0  0  0  0  0  0  0  0  0
    3.9222    1.7890   19.2882 H   0  0  0  0  0  0  0  0  0  0  0  0
    5.4906    0.6175   20.1947 C   0  0  0  0  0  0  0  0  0  0  0  0
    5.0705    0.6018   21.2008 H   0  0  0  0  0  0  0  0  0  0  0  0
    8.5910   -1.4616   20.9318 C   0  0  0  0  0  0  0  0  0  0  0  0
    9.4962   -0.8876   20.6682 H   0  0  0  0  0  0  0  0  0  0  0  0
    8.5567   -2.3443   20.3060 H   0  0  0  0  0  0  0  0  0  0  0  0
    9.0220    1.8388   24.8812 C   0  0  0  0  0  0  0  0  0  0  0  0
    7.6257    2.2800   24.5506 C   0  0  0  0  0  0  0  0  0  0  0  0
    7.5072    2.5783   23.5041 H   0  0  0  0  0  0  0  0  0  0  0  0
    6.9020    1.4841   24.7661 H   0  0  0  0  0  0  0  0  0  0  0  0
    7.3310    3.1159   25.1885 H   0  0  0  0  0  0  0  0  0  0  0  0
    9.4644    1.9856   26.1230 N   0  0  0  0  0  0  0  0  0  0  0  0
   10.6847    1.4602   26.1363 N   0  0  0  0  0  0  0  0  0  0  0  0
   11.1359    1.3586   27.0382 H   0  0  0  0  0  0  0  0  0  0  0  0
  1  2  1  0
  2  3  1  0
  3  4  2  0
  3  5  1  0
  5  6  2  0
  6  7  1  0
  7  8  1  0
  7  9  1  0
  7 10  1  0
 10 11  2  0
 10 12  1  0
 12 13  1  0
 12 14  1  0
 14 15  1  0
 14 16  1  0
 14 17  1  0
 17 18  1  0
 18 19  2  0
 19 20  1  0
 19 21  1  0
 21 22  2  0
 22 23  1  0
 22 24  1  0
 24 25  1  0
 24 26  2  0
 26 27  1  0
 17 28  1  0
 28 29  1  0
 28 30  1  0
  6 31  1  0
 31 32  1  0
 32 33  1  0
 32 34  1  0
 32 35  1  0
 31 36  2  0
 36 37  1  0
 37 38  1  0
 37  5  1  0
 28 12  1  0
 26 18  1  0
M  END
>  <cnnaffinity>  (1) 
-5.30115

>  <filename>  (1) 
Cc1n[nH]c(C(=O)O)c1CC(=O)C1CN(c2cccnc2)C1

$$$$
