
     RDKit          3D

 32 34  0  0  0  0  0  0  0  0999 V2000
    5.1039    1.9276   16.8438 H   0  0  0  0  0  0  0  0  0  0  0  0
    5.5306    1.4039   17.6954 C   0  0  0  0  0  0  0  0  0  0  0  0
    6.7410    0.8575   17.4944 N   0  0  0  0  0  0  0  0  0  0  0  0
    7.3003    0.2247   18.5307 C   0  0  0  0  0  0  0  0  0  0  0  0
    8.3063   -0.1666   18.3814 H   0  0  0  0  0  0  0  0  0  0  0  0
    6.6518    0.0384   19.7638 C   0  0  0  0  0  0  0  0  0  0  0  0
    7.3489   -0.7027   20.8471 C   0  0  0  0  0  0  0  0  0  0  0  0
    8.5603   -0.2581   21.0936 N   0  0  0  0  0  0  0  0  0  0  0  0
    9.2066   -0.7443   22.1857 N   0  0  0  0  0  0  0  0  0  0  0  0
   10.5560   -0.4060   22.3099 C   0  0  0  0  0  0  0  0  0  0  0  0
   11.6028   -1.3124   22.6496 C   0  0  0  0  0  0  0  0  0  0  0  0
   11.4167   -2.7735   22.9035 C   0  0  0  0  0  0  0  0  0  0  0  0
   12.3552   -3.2951   22.7496 H   0  0  0  0  0  0  0  0  0  0  0  0
   11.0643   -2.9569   23.9242 H   0  0  0  0  0  0  0  0  0  0  0  0
   10.6349   -3.1313   22.2305 H   0  0  0  0  0  0  0  0  0  0  0  0
   12.7598   -0.7140   22.6584 N   0  0  0  0  0  0  0  0  0  0  0  0
   12.5030    0.5931   22.2925 O   0  0  0  0  0  0  0  0  0  0  0  0
   11.1946    0.7667   22.0404 C   0  0  0  0  0  0  0  0  0  0  0  0
   10.7806    2.0822   21.4864 C   0  0  0  0  0  0  0  0  0  0  0  0
   10.5442    1.9280   20.4354 H   0  0  0  0  0  0  0  0  0  0  0  0
   11.5652    2.8296   21.5887 H   0  0  0  0  0  0  0  0  0  0  0  0
    9.8523    2.4125   21.9495 H   0  0  0  0  0  0  0  0  0  0  0  0
    8.5807   -1.5665   23.0860 C   0  0  0  0  0  0  0  0  0  0  0  0
    9.1420   -1.7093   24.0107 H   0  0  0  0  0  0  0  0  0  0  0  0
    7.4188   -2.1906   22.8164 C   0  0  0  0  0  0  0  0  0  0  0  0
    7.0198   -2.9703   23.4449 H   0  0  0  0  0  0  0  0  0  0  0  0
    6.6969   -1.8687   21.5977 C   0  0  0  0  0  0  0  0  0  0  0  0
    5.6870   -2.4659   21.2494 O   0  0  0  0  0  0  0  0  0  0  0  0
    5.3943    0.6216   19.9640 C   0  0  0  0  0  0  0  0  0  0  0  0
    4.8901    0.5134   20.9285 H   0  0  0  0  0  0  0  0  0  0  0  0
    4.8292    1.3300   18.9040 C   0  0  0  0  0  0  0  0  0  0  0  0
    3.8718    1.8272   19.0043 H   0  0  0  0  0  0  0  0  0  0  0  0
  1  2  1  0
  2  3  2  0
  3  4  1  0
  4  5  1  0
  4  6  2  0
  6  7  1  0
  7  8  2  0
  8  9  1  0
  9 10  1  0
 10 11  1  0
 11 12  1  0
 12 13  1  0
 12 14  1  0
 12 15  1  0
 11 16  2  0
 16 17  1  0
 17 18  1  0
 18 19  1  0
 19 20  1  0
 19 21  1  0
 19 22  1  0
  9 23  1  0
 23 24  1  0
 23 25  2  0
 25 26  1  0
 25 27  1  0
 27 28  2  0
  6 29  1  0
 29 30  1  0
 29 31  2  0
 31 32  1  0
 31  2  1  0
 27  7  1  0
 18 10  2  0
M  END
>  <cnnaffinity>  (1) 
-5.16765

>  <filename>  (1) 
Cc1noc(C)c1-n1ccc(=O)c(-c2cccnc2)n1

$$$$
