
     RDKit          3D

 46 49  0  0  0  0  0  0  0  0999 V2000
   12.1140    0.4814   22.9650 C   0  0  0  0  0  0  0  0  0  0  0  0
   11.0086    1.4744   22.9246 C   0  0  0  0  0  0  0  0  0  0  0  0
   10.8595    2.4352   23.8017 N   0  0  0  0  0  0  0  0  0  0  0  0
    9.6670    3.0574   23.4608 O   0  0  0  0  0  0  0  0  0  0  0  0
    9.1405    2.4580   22.3843 C   0  0  0  0  0  0  0  0  0  0  0  0
    7.8088    2.8851   21.8805 C   0  0  0  0  0  0  0  0  0  0  0  0
    7.5986    3.9487   22.0037 H   0  0  0  0  0  0  0  0  0  0  0  0
    7.0211    2.3034   22.3729 H   0  0  0  0  0  0  0  0  0  0  0  0
    7.7503    2.6390   20.8200 H   0  0  0  0  0  0  0  0  0  0  0  0
    9.9442    1.4419   21.9794 C   0  0  0  0  0  0  0  0  0  0  0  0
    9.6489    0.3879   20.9354 C   0  0  0  0  0  0  0  0  0  0  0  0
    8.6217   -0.6200   21.3582 C   0  0  0  0  0  0  0  0  0  0  0  0
    8.8259   -1.5103   22.3094 N   0  0  0  0  0  0  0  0  0  0  0  0
    7.6063   -2.0817   22.4706 C   0  0  0  0  0  0  0  0  0  0  0  0
    7.4277   -3.1569   23.5094 C   0  0  0  0  0  0  0  0  0  0  0  0
    6.0125   -3.1692   24.1322 C   0  0  0  0  0  0  0  0  0  0  0  0
    4.9972   -3.8489   23.2438 C   0  0  0  0  0  0  0  0  0  0  0  0
    5.3266   -4.6381   22.2154 C   0  0  0  0  0  0  0  0  0  0  0  0
    6.7546   -4.9262   21.8128 C   0  0  0  0  0  0  0  0  0  0  0  0
    7.7590   -4.5505   22.9165 C   0  0  0  0  0  0  0  0  0  0  0  0
    7.7153   -5.2942   23.7238 H   0  0  0  0  0  0  0  0  0  0  0  0
    8.7850   -4.5547   22.5313 H   0  0  0  0  0  0  0  0  0  0  0  0
    6.8572   -5.9848   21.5399 H   0  0  0  0  0  0  0  0  0  0  0  0
    6.9701   -4.3580   20.8978 H   0  0  0  0  0  0  0  0  0  0  0  0
    4.5401   -5.0891   21.6149 H   0  0  0  0  0  0  0  0  0  0  0  0
    3.9504   -3.6382   23.4504 H   0  0  0  0  0  0  0  0  0  0  0  0
    5.6802   -2.1489   24.3607 H   0  0  0  0  0  0  0  0  0  0  0  0
    6.0527   -3.6880   25.1025 H   0  0  0  0  0  0  0  0  0  0  0  0
    8.1679   -2.9054   24.2748 H   0  0  0  0  0  0  0  0  0  0  0  0
    6.6748   -1.6348   21.6491 N   0  0  0  0  0  0  0  0  0  0  0  0
    7.3364   -0.7049   20.9121 N   0  0  0  0  0  0  0  0  0  0  0  0
    6.6492   -0.0197   19.8694 C   0  0  0  0  0  0  0  0  0  0  0  0
    5.4367    0.6209   20.1418 C   0  0  0  0  0  0  0  0  0  0  0  0
    4.8039    1.3069   19.1013 C   0  0  0  0  0  0  0  0  0  0  0  0
    5.3975    1.3032   17.8329 C   0  0  0  0  0  0  0  0  0  0  0  0
    6.5414    0.6576   17.5528 N   0  0  0  0  0  0  0  0  0  0  0  0
    7.1526    0.0163   18.5577 C   0  0  0  0  0  0  0  0  0  0  0  0
    8.0867   -0.4934   18.3164 H   0  0  0  0  0  0  0  0  0  0  0  0
    4.9306    1.8374   17.0098 H   0  0  0  0  0  0  0  0  0  0  0  0
    3.8752    1.8487   19.2640 H   0  0  0  0  0  0  0  0  0  0  0  0
    5.0143    0.5680   21.1465 H   0  0  0  0  0  0  0  0  0  0  0  0
    9.3253    0.8523   20.0032 H   0  0  0  0  0  0  0  0  0  0  0  0
   10.5624   -0.1705   20.7117 H   0  0  0  0  0  0  0  0  0  0  0  0
   12.7020    0.5018   22.0414 H   0  0  0  0  0  0  0  0  0  0  0  0
   12.7823    0.6377   23.8093 H   0  0  0  0  0  0  0  0  0  0  0  0
   11.6621   -0.5127   23.0510 H   0  0  0  0  0  0  0  0  0  0  0  0
  1  2  1  0
  2  3  2  0
  3  4  1  0
  4  5  1  0
  5  6  1  0
  6  7  1  0
  6  8  1  0
  6  9  1  0
  5 10  2  0
 10 11  1  0
 11 12  1  0
 12 13  2  0
 13 14  1  0
 14 15  1  0
 15 16  1  0
 16 17  1  0
 17 18  2  0
 18 19  1  0
 19 20  1  0
 20 21  1  0
 20 22  1  0
 19 23  1  0
 19 24  1  0
 18 25  1  0
 17 26  1  0
 16 27  1  0
 16 28  1  0
 15 29  1  0
 14 30  2  0
 30 31  1  0
 31 32  1  0
 32 33  2  0
 33 34  1  0
 34 35  2  0
 35 36  1  0
 36 37  2  0
 37 38  1  0
 35 39  1  0
 34 40  1  0
 33 41  1  0
 11 42  1  0
 11 43  1  0
  1 44  1  0
  1 45  1  0
  1 46  1  0
 10  2  1  0
 31 12  1  0
 37 32  1  0
 20 15  1  0
M  END
>  <cnnaffinity>  (1) 
-6.23175

>  <filename>  (1) 
Cc1noc(C)c1Cc1nc(C2CC=CCC2)nn1-c1cccnc1

$$$$
