
     RDKit          3D

 42 45  0  0  0  0  0  0  0  0999 V2000
   13.0437   -1.8704   21.9850 C   0  0  0  0  0  0  0  0  0  0  0  0
   12.8971   -1.7229   22.0076 C   0  0  0  0  0  0  0  0  0  0  0  0
   12.4369   -1.8349   20.7247 N   0  0  0  0  0  0  0  0  0  0  0  0
   11.0719   -0.9869   20.7790 N   0  0  0  0  0  0  0  0  0  0  0  0
   11.0253    0.0871   21.6954 C   0  0  0  0  0  0  0  0  0  0  0  0
    9.9690    1.1479   21.1741 C   0  0  0  0  0  0  0  0  0  0  0  0
    8.8055    1.1704   22.0918 C   0  0  0  0  0  0  0  0  0  0  0  0
    8.7425    1.9330   23.1519 N   0  0  0  0  0  0  0  0  0  0  0  0
    7.6497    1.4644   23.8107 C   0  0  0  0  0  0  0  0  0  0  0  0
    7.2428    2.0115   25.1253 C   0  0  0  0  0  0  0  0  0  0  0  0
    6.0768    1.5645   25.7790 C   0  0  0  0  0  0  0  0  0  0  0  0
    5.7518    2.1166   27.0139 C   0  0  0  0  0  0  0  0  0  0  0  0
    4.6373    1.7002   27.6357 F   0  0  0  0  0  0  0  0  0  0  0  0
    6.5379    3.0895   27.6280 C   0  0  0  0  0  0  0  0  0  0  0  0
    7.6977    3.5215   26.9774 C   0  0  0  0  0  0  0  0  0  0  0  0
    8.0540    2.9889   25.7395 C   0  0  0  0  0  0  0  0  0  0  0  0
    8.9618    3.3153   25.2343 H   0  0  0  0  0  0  0  0  0  0  0  0
    8.3258    4.2823   27.4316 H   0  0  0  0  0  0  0  0  0  0  0  0
    6.2322    3.4866   28.5888 H   0  0  0  0  0  0  0  0  0  0  0  0
    5.4361    0.7976   25.3491 H   0  0  0  0  0  0  0  0  0  0  0  0
    7.0291    0.4789   23.1819 N   0  0  0  0  0  0  0  0  0  0  0  0
    7.7840    0.2873   22.0774 N   0  0  0  0  0  0  0  0  0  0  0  0
    7.3680   -0.6565   21.0433 C   0  0  0  0  0  0  0  0  0  0  0  0
    6.6584    0.0083   19.8785 C   0  0  0  0  0  0  0  0  0  0  0  0
    5.4510    0.6825   20.1050 C   0  0  0  0  0  0  0  0  0  0  0  0
    4.8328    1.3295   19.0340 C   0  0  0  0  0  0  0  0  0  0  0  0
    5.4406    1.2817   17.7760 C   0  0  0  0  0  0  0  0  0  0  0  0
    6.5828    0.6221   17.5329 N   0  0  0  0  0  0  0  0  0  0  0  0
    7.1650    0.0057   18.5700 C   0  0  0  0  0  0  0  0  0  0  0  0
    8.0885   -0.5289   18.3378 H   0  0  0  0  0  0  0  0  0  0  0  0
    4.9918    1.7933   16.9260 H   0  0  0  0  0  0  0  0  0  0  0  0
    3.9100    1.8832   19.1639 H   0  0  0  0  0  0  0  0  0  0  0  0
    5.0202    0.7042   21.1088 H   0  0  0  0  0  0  0  0  0  0  0  0
    6.7041   -1.3680   21.5459 H   0  0  0  0  0  0  0  0  0  0  0  0
    8.2586   -1.2012   20.7129 H   0  0  0  0  0  0  0  0  0  0  0  0
    9.6187    0.9193   20.1636 H   0  0  0  0  0  0  0  0  0  0  0  0
   10.3854    2.1641   21.1611 H   0  0  0  0  0  0  0  0  0  0  0  0
   11.6173    0.1109   22.7588 N   0  0  0  0  0  0  0  0  0  0  0  0
   10.8479   -0.7059   19.8281 H   0  0  0  0  0  0  0  0  0  0  0  0
   13.9716   -2.7054   22.0292 H   0  0  0  0  0  0  0  0  0  0  0  0
   12.1150   -2.1853   22.8564 H   0  0  0  0  0  0  0  0  0  0  0  0
   13.5611   -0.7252   22.3515 H   0  0  0  0  0  0  0  0  0  0  0  0
  1  2  1  0
  2  3  2  0
  3  4  1  0
  4  5  1  0
  5  6  1  0
  6  7  1  0
  7  8  2  0
  8  9  1  0
  9 10  1  0
 10 11  2  0
 11 12  1  0
 12 13  1  0
 12 14  2  0
 14 15  1  0
 15 16  2  0
 16 17  1  0
 15 18  1  0
 14 19  1  0
 11 20  1  0
  9 21  2  0
 21 22  1  0
 22 23  1  0
 23 24  1  0
 24 25  2  0
 25 26  1  0
 26 27  2  0
 27 28  1  0
 28 29  2  0
 29 30  1  0
 27 31  1  0
 26 32  1  0
 25 33  1  0
 23 34  1  0
 23 35  1  0
  6 36  1  0
  6 37  1  0
  5 38  2  0
  4 39  1  0
  1 40  1  0
  1 41  1  0
  1 42  1  0
 38  2  1  0
 22  7  1  0
 29 24  1  0
 16 10  1  0
M  END
>  <cnnaffinity>  (1) 
-6.1977

>  <filename>  (1) 
Cc1n[nH]c(Cc2nc(-c3cccc(F)c3)nn2Cc2cccnc2)n1

$$$$
