
     RDKit          3D

 26 27  0  0  0  0  0  0  0  0999 V2000
    5.0107    1.7111   16.8777 H   0  0  0  0  0  0  0  0  0  0  0  0
    5.4569    1.2382   17.7532 C   0  0  0  0  0  0  0  0  0  0  0  0
    6.6173    0.5897   17.5633 N   0  0  0  0  0  0  0  0  0  0  0  0
    7.1899   -0.0163   18.6144 C   0  0  0  0  0  0  0  0  0  0  0  0
    8.1364   -0.5265   18.4187 H   0  0  0  0  0  0  0  0  0  0  0  0
    6.6441   -0.0011   19.9226 C   0  0  0  0  0  0  0  0  0  0  0  0
    7.2370   -0.6497   21.0469 N   0  0  0  0  0  0  0  0  0  0  0  0
    7.9766   -1.3212   20.9445 H   0  0  0  0  0  0  0  0  0  0  0  0
    7.4287   -0.1276   22.2837 C   0  0  0  0  0  0  0  0  0  0  0  0
    6.8891    0.9443   22.7111 N   0  0  0  0  0  0  0  0  0  0  0  0
    7.2459    1.4174   23.9164 C   0  0  0  0  0  0  0  0  0  0  0  0
    7.9934    0.9738   24.8977 N   0  0  0  0  0  0  0  0  0  0  0  0
    7.9346    1.9298   25.9069 N   0  0  0  0  0  0  0  0  0  0  0  0
    7.1707    2.8648   25.4685 C   0  0  0  0  0  0  0  0  0  0  0  0
    6.7271    4.1281   26.1226 C   0  0  0  0  0  0  0  0  0  0  0  0
    5.7211    4.3640   25.7770 H   0  0  0  0  0  0  0  0  0  0  0  0
    6.7228    4.0353   27.2086 H   0  0  0  0  0  0  0  0  0  0  0  0
    7.3760    4.9611   25.8368 H   0  0  0  0  0  0  0  0  0  0  0  0
    6.7096    2.6289   24.2247 O   0  0  0  0  0  0  0  0  0  0  0  0
    8.2408   -0.9780   22.9714 N   0  0  0  0  0  0  0  0  0  0  0  0
    8.3077   -0.6704   23.9343 H   0  0  0  0  0  0  0  0  0  0  0  0
    7.7927   -1.8724   22.8832 H   0  0  0  0  0  0  0  0  0  0  0  0
    5.4353    0.6841   20.0993 C   0  0  0  0  0  0  0  0  0  0  0  0
    5.0126    0.7328   21.0986 H   0  0  0  0  0  0  0  0  0  0  0  0
    4.8284    1.2975   18.9987 C   0  0  0  0  0  0  0  0  0  0  0  0
    3.8885    1.8245   19.1049 H   0  0  0  0  0  0  0  0  0  0  0  0
  1  2  1  0
  2  3  2  0
  3  4  1  0
  4  5  1  0
  4  6  2  0
  6  7  1  0
  7  8  1  0
  7  9  1  0
  9 10  2  3
 10 11  1  0
 11 12  2  0
 12 13  1  0
 13 14  2  0
 14 15  1  0
 15 16  1  0
 15 17  1  0
 15 18  1  0
 14 19  1  0
  9 20  1  0
 20 21  1  0
 20 22  1  0
  6 23  1  0
 23 24  1  0
 23 25  2  0
 25 26  1  0
 25  2  1  0
 19 11  1  0
M  END
>  <cnnaffinity>  (1) 
-4.39598

>  <filename>  (1) 
Cc1nnc(N=C(N)Nc2cccnc2)o1

$$$$
