
     RDKit          3D

 44 47  0  0  0  0  0  0  0  0999 V2000
   12.0400   -0.9494   22.1142 C   0  0  0  0  0  0  0  0  0  0  0  0
   11.5562    0.4321   22.4554 C   0  0  0  0  0  0  0  0  0  0  0  0
   12.2519    1.1089   23.3756 N   0  0  0  0  0  0  0  0  0  0  0  0
   11.7394    2.2663   23.7872 C   0  0  0  0  0  0  0  0  0  0  0  0
   10.6030    2.8197   23.3813 N   0  0  0  0  0  0  0  0  0  0  0  0
    9.9226    2.1526   22.4496 C   0  0  0  0  0  0  0  0  0  0  0  0
    8.5952    2.7194   22.0480 C   0  0  0  0  0  0  0  0  0  0  0  0
    8.3077    3.5458   22.7014 H   0  0  0  0  0  0  0  0  0  0  0  0
    8.6409    3.0864   21.0204 H   0  0  0  0  0  0  0  0  0  0  0  0
    7.8198    1.9484   22.0759 H   0  0  0  0  0  0  0  0  0  0  0  0
   10.3977    0.9637   21.8744 C   0  0  0  0  0  0  0  0  0  0  0  0
    9.6043    0.2149   20.8102 C   0  0  0  0  0  0  0  0  0  0  0  0
    8.5390   -0.7014   21.3565 C   0  0  0  0  0  0  0  0  0  0  0  0
    8.7255   -1.5431   22.3459 N   0  0  0  0  0  0  0  0  0  0  0  0
    7.5101   -2.1191   22.5298 C   0  0  0  0  0  0  0  0  0  0  0  0
    7.3027   -3.1225   23.5982 C   0  0  0  0  0  0  0  0  0  0  0  0
    8.3815   -3.5161   24.4170 C   0  0  0  0  0  0  0  0  0  0  0  0
    8.2059   -4.4503   25.4361 C   0  0  0  0  0  0  0  0  0  0  0  0
    6.9382   -5.0003   25.6407 C   0  0  0  0  0  0  0  0  0  0  0  0
    6.7093   -6.1748   26.9013 Cl  0  0  0  0  0  0  0  0  0  0  0  0
    5.8499   -4.6180   24.8529 C   0  0  0  0  0  0  0  0  0  0  0  0
    6.0321   -3.6820   23.8348 C   0  0  0  0  0  0  0  0  0  0  0  0
    5.1882   -3.3689   23.2232 H   0  0  0  0  0  0  0  0  0  0  0  0
    4.8746   -5.0516   25.0451 H   0  0  0  0  0  0  0  0  0  0  0  0
    9.0329   -4.7523   26.0706 H   0  0  0  0  0  0  0  0  0  0  0  0
    9.3656   -3.0778   24.2635 H   0  0  0  0  0  0  0  0  0  0  0  0
    6.5849   -1.6924   21.6861 N   0  0  0  0  0  0  0  0  0  0  0  0
    7.2588   -0.8101   20.9074 N   0  0  0  0  0  0  0  0  0  0  0  0
    6.5912   -0.1121   19.8672 C   0  0  0  0  0  0  0  0  0  0  0  0
    5.4066    0.5797   20.1312 C   0  0  0  0  0  0  0  0  0  0  0  0
    4.8273    1.3060   19.0899 C   0  0  0  0  0  0  0  0  0  0  0  0
    5.4354    1.2986   17.8272 C   0  0  0  0  0  0  0  0  0  0  0  0
    6.5566    0.6116   17.5612 N   0  0  0  0  0  0  0  0  0  0  0  0
    7.1120   -0.0787   18.5612 C   0  0  0  0  0  0  0  0  0  0  0  0
    8.0197   -0.6300   18.3247 H   0  0  0  0  0  0  0  0  0  0  0  0
    5.0054    1.8518   16.9966 H   0  0  0  0  0  0  0  0  0  0  0  0
    3.9252    1.8857   19.2466 H   0  0  0  0  0  0  0  0  0  0  0  0
    4.9763    0.5386   21.1326 H   0  0  0  0  0  0  0  0  0  0  0  0
    9.1716    0.9202   20.0958 H   0  0  0  0  0  0  0  0  0  0  0  0
   10.2629   -0.4436   20.2381 H   0  0  0  0  0  0  0  0  0  0  0  0
   12.2782    2.7986   24.5647 H   0  0  0  0  0  0  0  0  0  0  0  0
   13.0138   -1.1320   22.5712 H   0  0  0  0  0  0  0  0  0  0  0  0
   11.3132   -1.6766   22.4951 H   0  0  0  0  0  0  0  0  0  0  0  0
   12.1178   -1.0985   21.0304 H   0  0  0  0  0  0  0  0  0  0  0  0
  1  2  1  0
  2  3  2  0
  3  4  1  0
  4  5  2  0
  5  6  1  0
  6  7  1  0
  7  8  1  0
  7  9  1  0
  7 10  1  0
  6 11  2  0
 11 12  1  0
 12 13  1  0
 13 14  2  0
 14 15  1  0
 15 16  1  0
 16 17  2  0
 17 18  1  0
 18 19  2  0
 19 20  1  0
 19 21  1  0
 21 22  2  0
 22 23  1  0
 21 24  1  0
 18 25  1  0
 17 26  1  0
 15 27  2  0
 27 28  1  0
 28 29  1  0
 29 30  2  0
 30 31  1  0
 31 32  2  0
 32 33  1  0
 33 34  2  0
 34 35  1  0
 32 36  1  0
 31 37  1  0
 30 38  1  0
 12 39  1  0
 12 40  1  0
  4 41  1  0
  1 42  1  0
  1 43  1  0
  1 44  1  0
 11  2  1  0
 28 13  1  0
 34 29  1  0
 22 16  1  0
M  END
>  <cnnaffinity>  (1) 
-6.39934

>  <filename>  (1) 
Cc1ncnc(C)c1Cc1nc(-c2ccc(Cl)cc2)nn1-c1cccnc1

$$$$
