
     RDKit          3D

 42 45  0  0  0  0  0  0  0  0999 V2000
    8.3084   -0.2197   27.1805 C   0  0  0  0  0  0  0  0  0  0  0  0
    7.5476    0.2714   25.9971 C   0  0  0  0  0  0  0  0  0  0  0  0
    8.0256    1.0203   25.0406 N   0  0  0  0  0  0  0  0  0  0  0  0
    7.0251    1.1502   24.1072 C   0  0  0  0  0  0  0  0  0  0  0  0
    7.2876    1.8190   22.7939 C   0  0  0  0  0  0  0  0  0  0  0  0
    8.3285    1.0283   22.0767 C   0  0  0  0  0  0  0  0  0  0  0  0
    9.6050    1.2599   22.2416 N   0  0  0  0  0  0  0  0  0  0  0  0
   10.1936    0.1085   21.8325 C   0  0  0  0  0  0  0  0  0  0  0  0
   11.6297   -0.0494   22.0288 C   0  0  0  0  0  0  0  0  0  0  0  0
   12.4112   -1.0774   21.4724 C   0  0  0  0  0  0  0  0  0  0  0  0
   13.7828   -0.9618   21.6494 C   0  0  0  0  0  0  0  0  0  0  0  0
   14.6089   -1.8457   21.0810 F   0  0  0  0  0  0  0  0  0  0  0  0
   14.3171    0.1100   22.3775 C   0  0  0  0  0  0  0  0  0  0  0  0
   13.5596    1.0352   22.9740 N   0  0  0  0  0  0  0  0  0  0  0  0
   12.2410    0.9539   22.8011 C   0  0  0  0  0  0  0  0  0  0  0  0
   11.6294    1.7133   23.2832 H   0  0  0  0  0  0  0  0  0  0  0  0
   15.3868    0.2318   22.4291 H   0  0  0  0  0  0  0  0  0  0  0  0
   11.9706   -1.8818   20.8796 H   0  0  0  0  0  0  0  0  0  0  0  0
    9.3597   -0.7882   21.3474 N   0  0  0  0  0  0  0  0  0  0  0  0
    8.1518   -0.1904   21.5232 N   0  0  0  0  0  0  0  0  0  0  0  0
    6.9175   -0.7951   21.0479 C   0  0  0  0  0  0  0  0  0  0  0  0
    6.3112   -0.0344   19.8943 C   0  0  0  0  0  0  0  0  0  0  0  0
    5.1086    0.6699   19.9807 C   0  0  0  0  0  0  0  0  0  0  0  0
    4.6762    1.4012   18.8705 C   0  0  0  0  0  0  0  0  0  0  0  0
    5.4652    1.4026   17.7167 C   0  0  0  0  0  0  0  0  0  0  0  0
    6.6166    0.7198   17.6139 N   0  0  0  0  0  0  0  0  0  0  0  0
    7.0214    0.0286   18.6847 C   0  0  0  0  0  0  0  0  0  0  0  0
    7.9664   -0.5094   18.5853 H   0  0  0  0  0  0  0  0  0  0  0  0
    5.1499    1.9568   16.8320 H   0  0  0  0  0  0  0  0  0  0  0  0
    3.7570    1.9724   18.8915 H   0  0  0  0  0  0  0  0  0  0  0  0
    4.5271    0.6570   20.9056 H   0  0  0  0  0  0  0  0  0  0  0  0
    6.2207   -0.8535   21.8901 H   0  0  0  0  0  0  0  0  0  0  0  0
    7.1748   -1.8143   20.7525 H   0  0  0  0  0  0  0  0  0  0  0  0
    6.3788    1.9184   22.1965 H   0  0  0  0  0  0  0  0  0  0  0  0
    7.7093    2.8074   22.9722 H   0  0  0  0  0  0  0  0  0  0  0  0
    5.9135    0.4852   24.5217 C   0  0  0  0  0  0  0  0  0  0  0  0
    6.2546   -0.0771   25.7380 N   0  0  0  0  0  0  0  0  0  0  0  0
    5.7300   -0.7452   26.2756 H   0  0  0  0  0  0  0  0  0  0  0  0
    4.9443    0.4111   24.0579 H   0  0  0  0  0  0  0  0  0  0  0  0
    7.8025    0.0170   28.1216 H   0  0  0  0  0  0  0  0  0  0  0  0
    8.4411   -1.3053   27.1216 H   0  0  0  0  0  0  0  0  0  0  0  0
    9.2958    0.2444   27.1780 H   0  0  0  0  0  0  0  0  0  0  0  0
  1  2  1  0
  2  3  2  0
  3  4  1  0
  4  5  1  0
  5  6  1  0
  6  7  2  0
  7  8  1  0
  8  9  1  0
  9 10  2  0
 10 11  1  0
 11 12  1  0
 11 13  2  0
 13 14  1  0
 14 15  2  0
 15 16  1  0
 13 17  1  0
 10 18  1  0
  8 19  2  0
 19 20  1  0
 20 21  1  0
 21 22  1  0
 22 23  2  0
 23 24  1  0
 24 25  2  0
 25 26  1  0
 26 27  2  0
 27 28  1  0
 25 29  1  0
 24 30  1  0
 23 31  1  0
 21 32  1  0
 21 33  1  0
  5 34  1  0
  5 35  1  0
  4 36  2  0
 36 37  1  0
 37 38  1  0
 36 39  1  0
  1 40  1  0
  1 41  1  0
  1 42  1  0
 37  2  1  0
 20  6  1  0
 27 22  1  0
 15  9  1  0
M  END
>  <cnnaffinity>  (1) 
-6.75671

>  <filename>  (1) 
Cc1nc(Cc2nc(-c3cncc(F)c3)nn2Cc2cccnc2)c[nH]1

$$$$
