
     RDKit          3D

 43 46  0  0  0  0  0  0  0  0999 V2000
   12.3846   -1.3248   21.6091 C   0  0  0  0  0  0  0  0  0  0  0  0
   11.9134    0.0228   22.0366 C   0  0  0  0  0  0  0  0  0  0  0  0
   12.5778    0.7044   22.9340 N   0  0  0  0  0  0  0  0  0  0  0  0
   11.8392    1.8433   23.1720 O   0  0  0  0  0  0  0  0  0  0  0  0
   10.7490    1.8213   22.3989 C   0  0  0  0  0  0  0  0  0  0  0  0
   10.7198    0.7061   21.6243 C   0  0  0  0  0  0  0  0  0  0  0  0
    9.6431    0.1957   20.6858 C   0  0  0  0  0  0  0  0  0  0  0  0
    8.5762   -0.6416   21.3328 C   0  0  0  0  0  0  0  0  0  0  0  0
    8.7711   -1.4630   22.3458 N   0  0  0  0  0  0  0  0  0  0  0  0
    7.5513   -2.0191   22.5414 C   0  0  0  0  0  0  0  0  0  0  0  0
    7.3149   -3.0340   23.6209 C   0  0  0  0  0  0  0  0  0  0  0  0
    6.9785   -4.4299   23.0266 C   0  0  0  0  0  0  0  0  0  0  0  0
    6.4414   -5.3894   24.0599 C   0  0  0  0  0  0  0  0  0  0  0  0
    6.0917   -5.0375   25.2993 C   0  0  0  0  0  0  0  0  0  0  0  0
    6.1070   -3.6088   25.7944 C   0  0  0  0  0  0  0  0  0  0  0  0
    6.2388   -2.5919   24.6442 C   0  0  0  0  0  0  0  0  0  0  0  0
    6.4773   -1.5982   25.0447 H   0  0  0  0  0  0  0  0  0  0  0  0
    5.2713   -2.5138   24.1318 H   0  0  0  0  0  0  0  0  0  0  0  0
    6.9181   -3.4862   26.5298 H   0  0  0  0  0  0  0  0  0  0  0  0
    5.1809   -3.4096   26.3487 H   0  0  0  0  0  0  0  0  0  0  0  0
    5.7842   -5.8057   26.0109 H   0  0  0  0  0  0  0  0  0  0  0  0
    6.3024   -6.4177   23.7299 H   0  0  0  0  0  0  0  0  0  0  0  0
    6.2475   -4.3313   22.2097 H   0  0  0  0  0  0  0  0  0  0  0  0
    7.8804   -4.8617   22.5697 H   0  0  0  0  0  0  0  0  0  0  0  0
    8.2750   -3.1146   24.1465 H   0  0  0  0  0  0  0  0  0  0  0  0
    6.6186   -1.6153   21.6966 N   0  0  0  0  0  0  0  0  0  0  0  0
    7.2883   -0.7536   20.8881 N   0  0  0  0  0  0  0  0  0  0  0  0
    6.5947   -0.0699   19.8510 C   0  0  0  0  0  0  0  0  0  0  0  0
    5.3958    0.5969   20.1224 C   0  0  0  0  0  0  0  0  0  0  0  0
    4.7943    1.3090   19.0807 C   0  0  0  0  0  0  0  0  0  0  0  0
    5.3882    1.3139   17.8107 C   0  0  0  0  0  0  0  0  0  0  0  0
    6.5156    0.6412   17.5344 N   0  0  0  0  0  0  0  0  0  0  0  0
    7.0940   -0.0311   18.5364 C   0  0  0  0  0  0  0  0  0  0  0  0
    8.0114   -0.5613   18.2956 H   0  0  0  0  0  0  0  0  0  0  0  0
    4.9454    1.8760   16.9890 H   0  0  0  0  0  0  0  0  0  0  0  0
    3.8788    1.8662   19.2412 H   0  0  0  0  0  0  0  0  0  0  0  0
    4.9630    0.5595   21.1243 H   0  0  0  0  0  0  0  0  0  0  0  0
    9.1709    1.0212   20.1460 H   0  0  0  0  0  0  0  0  0  0  0  0
   10.0839   -0.4665   19.9289 H   0  0  0  0  0  0  0  0  0  0  0  0
   10.0867    2.6689   22.5296 H   0  0  0  0  0  0  0  0  0  0  0  0
   12.5100   -1.3914   20.5233 H   0  0  0  0  0  0  0  0  0  0  0  0
   13.3396   -1.5358   22.0982 H   0  0  0  0  0  0  0  0  0  0  0  0
   11.6363   -2.0771   21.8893 H   0  0  0  0  0  0  0  0  0  0  0  0
  1  2  1  0
  2  3  2  0
  3  4  1  0
  4  5  1  0
  5  6  2  0
  6  7  1  0
  7  8  1  0
  8  9  2  0
  9 10  1  0
 10 11  1  0
 11 12  1  0
 12 13  1  0
 13 14  2  0
 14 15  1  0
 15 16  1  0
 16 17  1  0
 16 18  1  0
 15 19  1  0
 15 20  1  0
 14 21  1  0
 13 22  1  0
 12 23  1  0
 12 24  1  0
 11 25  1  0
 10 26  2  0
 26 27  1  0
 27 28  1  0
 28 29  2  0
 29 30  1  0
 30 31  2  0
 31 32  1  0
 32 33  2  0
 33 34  1  0
 31 35  1  0
 30 36  1  0
 29 37  1  0
  7 38  1  0
  7 39  1  0
  5 40  1  0
  1 41  1  0
  1 42  1  0
  1 43  1  0
  6  2  1  0
 27  8  1  0
 33 28  1  0
 16 11  1  0
M  END
>  <cnnaffinity>  (1) 
-6.56463

>  <filename>  (1) 
Cc1nocc1Cc1nc(C2CC=CCC2)nn1-c1cccnc1

$$$$
