
     RDKit          3D

 43 46  0  0  0  0  0  0  0  0999 V2000
    9.6829    1.3425   24.8803 C   0  0  0  0  0  0  0  0  0  0  0  0
    8.2057    1.3808   25.1318 C   0  0  0  0  0  0  0  0  0  0  0  0
    7.8258    1.3909   26.4171 N   0  0  0  0  0  0  0  0  0  0  0  0
    6.5316    1.3405   26.6767 C   0  0  0  0  0  0  0  0  0  0  0  0
    6.0896    1.3465   28.3557 Cl  0  0  0  0  0  0  0  0  0  0  0  0
    5.5239    1.2658   25.7145 C   0  0  0  0  0  0  0  0  0  0  0  0
    5.9250    1.2711   24.3780 C   0  0  0  0  0  0  0  0  0  0  0  0
    7.2802    1.3711   24.0581 C   0  0  0  0  0  0  0  0  0  0  0  0
    7.7244    1.2839   22.6026 C   0  0  0  0  0  0  0  0  0  0  0  0
    7.7958   -0.1415   22.1233 C   0  0  0  0  0  0  0  0  0  0  0  0
    8.3808   -1.1101   22.8102 N   0  0  0  0  0  0  0  0  0  0  0  0
    8.3091   -2.1818   21.9853 C   0  0  0  0  0  0  0  0  0  0  0  0
    8.7375   -3.5856   22.3416 C   0  0  0  0  0  0  0  0  0  0  0  0
    7.7619   -4.4064   23.2420 C   0  0  0  0  0  0  0  0  0  0  0  0
    8.7176   -5.2859   24.0623 C   0  0  0  0  0  0  0  0  0  0  0  0
    9.9294   -4.3673   24.2012 C   0  0  0  0  0  0  0  0  0  0  0  0
    9.9985   -3.6252   22.9949 O   0  0  0  0  0  0  0  0  0  0  0  0
   10.8787   -4.9006   24.3052 H   0  0  0  0  0  0  0  0  0  0  0  0
    9.8114   -3.6646   25.0383 H   0  0  0  0  0  0  0  0  0  0  0  0
    8.3216   -5.5937   25.0356 H   0  0  0  0  0  0  0  0  0  0  0  0
    8.9906   -6.1997   23.5205 H   0  0  0  0  0  0  0  0  0  0  0  0
    7.2077   -3.7261   23.9003 H   0  0  0  0  0  0  0  0  0  0  0  0
    7.0336   -4.9812   22.6595 H   0  0  0  0  0  0  0  0  0  0  0  0
    8.8228   -4.0627   21.3629 H   0  0  0  0  0  0  0  0  0  0  0  0
    7.7359   -1.9290   20.8177 N   0  0  0  0  0  0  0  0  0  0  0  0
    7.3805   -0.6234   20.9141 N   0  0  0  0  0  0  0  0  0  0  0  0
    6.6370    0.0149   19.8739 C   0  0  0  0  0  0  0  0  0  0  0  0
    5.4158    0.6590   20.1143 C   0  0  0  0  0  0  0  0  0  0  0  0
    4.7878    1.3127   19.0484 C   0  0  0  0  0  0  0  0  0  0  0  0
    5.4004    1.2995   17.7936 C   0  0  0  0  0  0  0  0  0  0  0  0
    6.5465    0.6408   17.5482 N   0  0  0  0  0  0  0  0  0  0  0  0
    7.1403    0.0045   18.5624 C   0  0  0  0  0  0  0  0  0  0  0  0
    8.0683   -0.5197   18.3411 H   0  0  0  0  0  0  0  0  0  0  0  0
    4.9641    1.8415   16.9562 H   0  0  0  0  0  0  0  0  0  0  0  0
    3.8593    1.8541   19.1906 H   0  0  0  0  0  0  0  0  0  0  0  0
    4.9655    0.6408   21.1084 H   0  0  0  0  0  0  0  0  0  0  0  0
    7.0591    1.8668   21.9595 H   0  0  0  0  0  0  0  0  0  0  0  0
    8.7239    1.7183   22.4652 H   0  0  0  0  0  0  0  0  0  0  0  0
    5.1903    1.1923   23.5740 H   0  0  0  0  0  0  0  0  0  0  0  0
    4.4879    1.2040   26.0199 H   0  0  0  0  0  0  0  0  0  0  0  0
   10.2085    1.2590   25.8297 H   0  0  0  0  0  0  0  0  0  0  0  0
    9.9360    0.4822   24.2516 H   0  0  0  0  0  0  0  0  0  0  0  0
   10.0281    2.2492   24.3731 H   0  0  0  0  0  0  0  0  0  0  0  0
  1  2  1  0
  2  3  2  0
  3  4  1  0
  4  5  1  0
  4  6  2  0
  6  7  1  0
  7  8  2  0
  8  9  1  0
  9 10  1  0
 10 11  2  0
 11 12  1  0
 12 13  1  0
 13 14  1  0
 14 15  1  0
 15 16  1  0
 16 17  1  0
 16 18  1  0
 16 19  1  0
 15 20  1  0
 15 21  1  0
 14 22  1  0
 14 23  1  0
 13 24  1  0
 12 25  2  0
 25 26  1  0
 26 27  1  0
 27 28  2  0
 28 29  1  0
 29 30  2  0
 30 31  1  0
 31 32  2  0
 32 33  1  0
 30 34  1  0
 29 35  1  0
 28 36  1  0
  9 37  1  0
  9 38  1  0
  7 39  1  0
  6 40  1  0
  1 41  1  0
  1 42  1  0
  1 43  1  0
  8  2  1  0
 26 10  1  0
 32 27  1  0
 17 13  1  0
M  END
>  <cnnaffinity>  (1) 
-6.4452

>  <filename>  (1) 
Cc1nc(Cl)ccc1Cc1nc(C2CCCO2)nn1-c1cccnc1

$$$$
