
     RDKit          3D

 42 45  0  0  0  0  0  0  0  0999 V2000
    7.8284    2.9036   21.7158 C   0  0  0  0  0  0  0  0  0  0  0  0
    9.0934    2.5142   22.4033 C   0  0  0  0  0  0  0  0  0  0  0  0
    9.5437    3.1371   23.4635 N   0  0  0  0  0  0  0  0  0  0  0  0
   10.6941    2.4641   23.8443 O   0  0  0  0  0  0  0  0  0  0  0  0
   10.8832    1.4562   22.9934 C   0  0  0  0  0  0  0  0  0  0  0  0
   12.2314    0.4665   23.2923 Cl  0  0  0  0  0  0  0  0  0  0  0  0
    9.9251    1.4124   22.0324 C   0  0  0  0  0  0  0  0  0  0  0  0
    9.6413    0.3717   20.9669 C   0  0  0  0  0  0  0  0  0  0  0  0
    8.5925   -0.6269   21.3653 C   0  0  0  0  0  0  0  0  0  0  0  0
    8.8012   -1.5099   22.3192 N   0  0  0  0  0  0  0  0  0  0  0  0
    7.5821   -2.0956   22.4805 C   0  0  0  0  0  0  0  0  0  0  0  0
    7.3766   -3.0985   23.5726 C   0  0  0  0  0  0  0  0  0  0  0  0
    8.4010   -4.2497   23.5339 C   0  0  0  0  0  0  0  0  0  0  0  0
    8.4232   -4.8339   24.9551 C   0  0  0  0  0  0  0  0  0  0  0  0
    7.9160   -3.7119   25.8937 C   0  0  0  0  0  0  0  0  0  0  0  0
    7.5767   -2.5112   24.9910 C   0  0  0  0  0  0  0  0  0  0  0  0
    6.6994   -1.9510   25.3330 H   0  0  0  0  0  0  0  0  0  0  0  0
    8.4206   -1.8108   24.9685 H   0  0  0  0  0  0  0  0  0  0  0  0
    8.6594   -3.4416   26.6523 H   0  0  0  0  0  0  0  0  0  0  0  0
    7.0286   -4.0510   26.4377 H   0  0  0  0  0  0  0  0  0  0  0  0
    7.7643   -5.7058   25.0222 H   0  0  0  0  0  0  0  0  0  0  0  0
    9.4264   -5.1798   25.2293 H   0  0  0  0  0  0  0  0  0  0  0  0
    9.3820   -3.8268   23.2904 H   0  0  0  0  0  0  0  0  0  0  0  0
    8.1594   -4.9900   22.7639 H   0  0  0  0  0  0  0  0  0  0  0  0
    6.3548   -3.4771   23.4645 H   0  0  0  0  0  0  0  0  0  0  0  0
    6.6507   -1.6631   21.6609 N   0  0  0  0  0  0  0  0  0  0  0  0
    7.3071   -0.7295   20.9113 N   0  0  0  0  0  0  0  0  0  0  0  0
    6.6263   -0.0388   19.8646 C   0  0  0  0  0  0  0  0  0  0  0  0
    5.4171    0.6171   20.1282 C   0  0  0  0  0  0  0  0  0  0  0  0
    4.7959    1.3160   19.0860 C   0  0  0  0  0  0  0  0  0  0  0  0
    5.3968    1.3182   17.8231 C   0  0  0  0  0  0  0  0  0  0  0  0
    6.5404    0.6693   17.5517 N   0  0  0  0  0  0  0  0  0  0  0  0
    7.1406    0.0142   18.5573 C   0  0  0  0  0  0  0  0  0  0  0  0
    8.0749   -0.4896   18.3115 H   0  0  0  0  0  0  0  0  0  0  0  0
    4.9385    1.8575   16.9964 H   0  0  0  0  0  0  0  0  0  0  0  0
    3.8701    1.8631   19.2443 H   0  0  0  0  0  0  0  0  0  0  0  0
    4.9969    0.5729   21.1329 H   0  0  0  0  0  0  0  0  0  0  0  0
    9.3520    0.8481   20.0262 H   0  0  0  0  0  0  0  0  0  0  0  0
   10.5501   -0.2070   20.7806 H   0  0  0  0  0  0  0  0  0  0  0  0
    6.9761    2.4716   22.2470 H   0  0  0  0  0  0  0  0  0  0  0  0
    7.8128    2.4817   20.7074 H   0  0  0  0  0  0  0  0  0  0  0  0
    7.6864    3.9854   21.6551 H   0  0  0  0  0  0  0  0  0  0  0  0
  1  2  1  0
  2  3  2  0
  3  4  1  0
  4  5  1  0
  5  6  1  0
  5  7  2  0
  7  8  1  0
  8  9  1  0
  9 10  2  0
 10 11  1  0
 11 12  1  0
 12 13  1  0
 13 14  1  0
 14 15  1  0
 15 16  1  0
 16 17  1  0
 16 18  1  0
 15 19  1  0
 15 20  1  0
 14 21  1  0
 14 22  1  0
 13 23  1  0
 13 24  1  0
 12 25  1  0
 11 26  2  0
 26 27  1  0
 27 28  1  0
 28 29  2  0
 29 30  1  0
 30 31  2  0
 31 32  1  0
 32 33  2  0
 33 34  1  0
 31 35  1  0
 30 36  1  0
 29 37  1  0
  8 38  1  0
  8 39  1  0
  1 40  1  0
  1 41  1  0
  1 42  1  0
  7  2  1  0
 27  9  1  0
 33 28  1  0
 16 12  1  0
M  END
>  <cnnaffinity>  (1) 
-6.52797

>  <filename>  (1) 
Cc1noc(Cl)c1Cc1nc(C2CCCC2)nn1-c1cccnc1

$$$$
