
     RDKit          3D

 43 46  0  0  0  0  0  0  0  0999 V2000
    5.8816   -1.1664   26.3837 C   0  0  0  0  0  0  0  0  0  0  0  0
    6.7204   -0.1450   25.6919 C   0  0  0  0  0  0  0  0  0  0  0  0
    6.5284    0.3598   24.4920 N   0  0  0  0  0  0  0  0  0  0  0  0
    7.5808    1.2088   24.2642 C   0  0  0  0  0  0  0  0  0  0  0  0
    7.8158    1.8234   22.9177 C   0  0  0  0  0  0  0  0  0  0  0  0
    8.8155    0.9543   22.2268 C   0  0  0  0  0  0  0  0  0  0  0  0
   10.1172    1.0272   22.4101 N   0  0  0  0  0  0  0  0  0  0  0  0
   10.5850   -0.1111   21.8290 C   0  0  0  0  0  0  0  0  0  0  0  0
   12.0215   -0.4653   21.6998 C   0  0  0  0  0  0  0  0  0  0  0  0
   12.3810   -1.5973   20.9486 C   0  0  0  0  0  0  0  0  0  0  0  0
   13.6676   -1.7678   20.4298 C   0  0  0  0  0  0  0  0  0  0  0  0
   14.6023   -0.7869   20.7251 C   0  0  0  0  0  0  0  0  0  0  0  0
   16.0153   -0.3889   19.6473 Cl  0  0  0  0  0  0  0  0  0  0  0  0
   14.3494    0.1689   21.7359 C   0  0  0  0  0  0  0  0  0  0  0  0
   13.0509    0.3588   22.1914 C   0  0  0  0  0  0  0  0  0  0  0  0
   12.8249    1.2176   22.8214 H   0  0  0  0  0  0  0  0  0  0  0  0
   15.1234    0.8755   22.0167 H   0  0  0  0  0  0  0  0  0  0  0  0
   13.9080   -2.6229   19.8163 H   0  0  0  0  0  0  0  0  0  0  0  0
   11.5891   -2.2963   20.7326 H   0  0  0  0  0  0  0  0  0  0  0  0
    9.6274   -0.8754   21.3200 N   0  0  0  0  0  0  0  0  0  0  0  0
    8.4985   -0.1784   21.5692 N   0  0  0  0  0  0  0  0  0  0  0  0
    7.1944   -0.6839   21.1539 C   0  0  0  0  0  0  0  0  0  0  0  0
    6.5564    0.0746   20.0050 C   0  0  0  0  0  0  0  0  0  0  0  0
    5.3205    0.7217   20.1246 C   0  0  0  0  0  0  0  0  0  0  0  0
    4.7777    1.3531   19.0012 C   0  0  0  0  0  0  0  0  0  0  0  0
    5.4943    1.3200   17.8010 C   0  0  0  0  0  0  0  0  0  0  0  0
    6.6846    0.7137   17.6678 N   0  0  0  0  0  0  0  0  0  0  0  0
    7.1947    0.1159   18.7519 C   0  0  0  0  0  0  0  0  0  0  0  0
    8.1596   -0.3739   18.6183 H   0  0  0  0  0  0  0  0  0  0  0  0
    5.0947    1.7955   16.9053 H   0  0  0  0  0  0  0  0  0  0  0  0
    3.8296    1.8775   19.0495 H   0  0  0  0  0  0  0  0  0  0  0  0
    4.7883    0.7255   21.0811 H   0  0  0  0  0  0  0  0  0  0  0  0
    7.3780   -1.7277   20.8806 H   0  0  0  0  0  0  0  0  0  0  0  0
    6.5403   -0.6644   22.0355 H   0  0  0  0  0  0  0  0  0  0  0  0
    6.8797    1.8610   22.3548 H   0  0  0  0  0  0  0  0  0  0  0  0
    8.2309    2.8318   23.0061 H   0  0  0  0  0  0  0  0  0  0  0  0
    8.4333    1.2038   25.3280 C   0  0  0  0  0  0  0  0  0  0  0  0
    7.8706    0.3364   26.2394 N   0  0  0  0  0  0  0  0  0  0  0  0
    8.2651    0.0176   27.1097 H   0  0  0  0  0  0  0  0  0  0  0  0
    9.3999    1.6718   25.4300 H   0  0  0  0  0  0  0  0  0  0  0  0
    6.3057   -2.1665   26.2344 H   0  0  0  0  0  0  0  0  0  0  0  0
    4.8705   -1.1604   25.9735 H   0  0  0  0  0  0  0  0  0  0  0  0
    5.8283   -0.9773   27.4612 H   0  0  0  0  0  0  0  0  0  0  0  0
  1  2  1  0
  2  3  2  0
  3  4  1  0
  4  5  1  0
  5  6  1  0
  6  7  2  0
  7  8  1  0
  8  9  1  0
  9 10  2  0
 10 11  1  0
 11 12  2  0
 12 13  1  0
 12 14  1  0
 14 15  2  0
 15 16  1  0
 14 17  1  0
 11 18  1  0
 10 19  1  0
  8 20  2  0
 20 21  1  0
 21 22  1  0
 22 23  1  0
 23 24  2  0
 24 25  1  0
 25 26  2  0
 26 27  1  0
 27 28  2  0
 28 29  1  0
 26 30  1  0
 25 31  1  0
 24 32  1  0
 22 33  1  0
 22 34  1  0
  5 35  1  0
  5 36  1  0
  4 37  2  0
 37 38  1  0
 38 39  1  0
 37 40  1  0
  1 41  1  0
  1 42  1  0
  1 43  1  0
 38  2  1  0
 21  6  1  0
 28 23  1  0
 15  9  1  0
M  END
>  <cnnaffinity>  (1) 
-6.56579

>  <filename>  (1) 
Cc1nc(Cc2nc(-c3ccc(Cl)cc3)nn2Cc2cccnc2)c[nH]1

$$$$
