
     RDKit          3D

 43 46  0  0  0  0  0  0  0  0999 V2000
   11.2854    2.5095   23.5202 C   0  0  0  0  0  0  0  0  0  0  0  0
    9.8495    2.2408   23.8283 C   0  0  0  0  0  0  0  0  0  0  0  0
    9.3625    2.1159   25.0383 N   0  0  0  0  0  0  0  0  0  0  0  0
    8.0232    1.8418   24.8778 C   0  0  0  0  0  0  0  0  0  0  0  0
    7.7034    1.8159   23.5528 C   0  0  0  0  0  0  0  0  0  0  0  0
    8.8759    2.0954   22.8715 N   0  0  0  0  0  0  0  0  0  0  0  0
    9.0527    1.9984   21.4286 C   0  0  0  0  0  0  0  0  0  0  0  0
    9.5251    0.6069   20.9544 C   0  0  0  0  0  0  0  0  0  0  0  0
    8.6364   -0.4983   21.4122 C   0  0  0  0  0  0  0  0  0  0  0  0
    8.8669   -1.3231   22.4071 N   0  0  0  0  0  0  0  0  0  0  0  0
    7.6708   -1.9530   22.5792 C   0  0  0  0  0  0  0  0  0  0  0  0
    7.4429   -2.9408   23.6619 C   0  0  0  0  0  0  0  0  0  0  0  0
    8.4573   -3.2273   24.6009 C   0  0  0  0  0  0  0  0  0  0  0  0
    8.2307   -4.1642   25.6120 C   0  0  0  0  0  0  0  0  0  0  0  0
    6.9989   -4.8234   25.7031 C   0  0  0  0  0  0  0  0  0  0  0  0
    5.9891   -4.5409   24.7760 C   0  0  0  0  0  0  0  0  0  0  0  0
    6.2032   -3.6066   23.7622 C   0  0  0  0  0  0  0  0  0  0  0  0
    5.4169   -3.3770   23.0434 H   0  0  0  0  0  0  0  0  0  0  0  0
    5.0290   -5.0457   24.8432 H   0  0  0  0  0  0  0  0  0  0  0  0
    6.8252   -5.5520   26.4932 H   0  0  0  0  0  0  0  0  0  0  0  0
    9.0162   -4.3816   26.3323 H   0  0  0  0  0  0  0  0  0  0  0  0
    9.4178   -2.7147   24.5388 H   0  0  0  0  0  0  0  0  0  0  0  0
    6.7381   -1.5901   21.7120 N   0  0  0  0  0  0  0  0  0  0  0  0
    7.3646   -0.6684   20.9438 N   0  0  0  0  0  0  0  0  0  0  0  0
    6.6625    0.0082   19.9043 C   0  0  0  0  0  0  0  0  0  0  0  0
    5.4425    0.6429   20.1670 C   0  0  0  0  0  0  0  0  0  0  0  0
    4.8131    1.3097   19.1098 C   0  0  0  0  0  0  0  0  0  0  0  0
    5.4015    1.2964   17.8376 C   0  0  0  0  0  0  0  0  0  0  0  0
    6.5600    0.6728   17.5760 N   0  0  0  0  0  0  0  0  0  0  0  0
    7.1695    0.0540   18.5936 C   0  0  0  0  0  0  0  0  0  0  0  0
    8.1124   -0.4355   18.3664 H   0  0  0  0  0  0  0  0  0  0  0  0
    4.9212    1.7866   16.9923 H   0  0  0  0  0  0  0  0  0  0  0  0
    3.8797    1.8389   19.2615 H   0  0  0  0  0  0  0  0  0  0  0  0
    5.0148    0.6077   21.1740 H   0  0  0  0  0  0  0  0  0  0  0  0
   10.5231    0.3983   21.3433 H   0  0  0  0  0  0  0  0  0  0  0  0
    9.5874    0.6016   19.8634 H   0  0  0  0  0  0  0  0  0  0  0  0
    9.7664    2.7634   21.1130 H   0  0  0  0  0  0  0  0  0  0  0  0
    8.0993    2.2547   20.9591 H   0  0  0  0  0  0  0  0  0  0  0  0
    6.7876    1.5861   23.0297 H   0  0  0  0  0  0  0  0  0  0  0  0
    7.3739    1.6968   25.7325 H   0  0  0  0  0  0  0  0  0  0  0  0
   11.8094    2.7311   24.4512 H   0  0  0  0  0  0  0  0  0  0  0  0
   11.7726    1.6423   23.0584 H   0  0  0  0  0  0  0  0  0  0  0  0
   11.3984    3.3557   22.8352 H   0  0  0  0  0  0  0  0  0  0  0  0
  1  2  1  0
  2  3  2  0
  3  4  1  0
  4  5  2  0
  5  6  1  0
  6  7  1  0
  7  8  1  0
  8  9  1  0
  9 10  2  0
 10 11  1  0
 11 12  1  0
 12 13  2  0
 13 14  1  0
 14 15  2  0
 15 16  1  0
 16 17  2  0
 17 18  1  0
 16 19  1  0
 15 20  1  0
 14 21  1  0
 13 22  1  0
 11 23  2  0
 23 24  1  0
 24 25  1  0
 25 26  2  0
 26 27  1  0
 27 28  2  0
 28 29  1  0
 29 30  2  0
 30 31  1  0
 28 32  1  0
 27 33  1  0
 26 34  1  0
  8 35  1  0
  8 36  1  0
  7 37  1  0
  7 38  1  0
  5 39  1  0
  4 40  1  0
  1 41  1  0
  1 42  1  0
  1 43  1  0
  6  2  1  0
 24  9  1  0
 30 25  1  0
 17 12  1  0
M  END
>  <cnnaffinity>  (1) 
-5.88083

>  <filename>  (1) 
Cc1nccn1CCc1nc(-c2ccccc2)nn1-c1cccnc1

$$$$
