
     RDKit          3D

 43 46  0  0  0  0  0  0  0  0999 V2000
    7.8052    2.9051   21.8054 C   0  0  0  0  0  0  0  0  0  0  0  0
    9.1136    2.5223   22.4224 C   0  0  0  0  0  0  0  0  0  0  0  0
    9.6082    3.0955   23.5140 N   0  0  0  0  0  0  0  0  0  0  0  0
   10.7308    2.3950   23.7766 N   0  0  0  0  0  0  0  0  0  0  0  0
   10.9616    1.3858   22.9011 C   0  0  0  0  0  0  0  0  0  0  0  0
   12.0339    0.3502   23.0228 C   0  0  0  0  0  0  0  0  0  0  0  0
   11.5767   -0.6290   23.2161 H   0  0  0  0  0  0  0  0  0  0  0  0
   12.5910    0.2525   22.0851 H   0  0  0  0  0  0  0  0  0  0  0  0
   12.7460    0.5662   23.8223 H   0  0  0  0  0  0  0  0  0  0  0  0
    9.9399    1.4554   21.9816 C   0  0  0  0  0  0  0  0  0  0  0  0
    9.6299    0.4162   20.9254 C   0  0  0  0  0  0  0  0  0  0  0  0
    8.6295   -0.6001   21.3828 C   0  0  0  0  0  0  0  0  0  0  0  0
    8.8365   -1.4728   22.3406 N   0  0  0  0  0  0  0  0  0  0  0  0
    7.6190   -2.0644   22.5087 C   0  0  0  0  0  0  0  0  0  0  0  0
    7.4074   -3.0765   23.5643 C   0  0  0  0  0  0  0  0  0  0  0  0
    8.3927   -3.2453   24.5655 C   0  0  0  0  0  0  0  0  0  0  0  0
    8.2358   -4.1750   25.5925 C   0  0  0  0  0  0  0  0  0  0  0  0
    7.0821   -4.9663   25.6456 C   0  0  0  0  0  0  0  0  0  0  0  0
    6.0973   -4.8199   24.6676 C   0  0  0  0  0  0  0  0  0  0  0  0
    6.2556   -3.8893   23.6363 C   0  0  0  0  0  0  0  0  0  0  0  0
    4.9619   -3.8234   22.4728 Cl  0  0  0  0  0  0  0  0  0  0  0  0
    5.1872   -5.4097   24.6781 H   0  0  0  0  0  0  0  0  0  0  0  0
    6.9453   -5.6946   26.4422 H   0  0  0  0  0  0  0  0  0  0  0  0
    9.0105   -4.2859   26.3482 H   0  0  0  0  0  0  0  0  0  0  0  0
    9.2892   -2.6296   24.5187 H   0  0  0  0  0  0  0  0  0  0  0  0
    6.6855   -1.6150   21.6880 N   0  0  0  0  0  0  0  0  0  0  0  0
    7.3408   -0.6974   20.9408 N   0  0  0  0  0  0  0  0  0  0  0  0
    6.6555   -0.0095   19.8930 C   0  0  0  0  0  0  0  0  0  0  0  0
    5.4417    0.6304   20.1572 C   0  0  0  0  0  0  0  0  0  0  0  0
    4.8093    1.3087   19.1072 C   0  0  0  0  0  0  0  0  0  0  0  0
    5.3968    1.2982   17.8367 C   0  0  0  0  0  0  0  0  0  0  0  0
    6.5451    0.6587   17.5680 N   0  0  0  0  0  0  0  0  0  0  0  0
    7.1576    0.0328   18.5814 C   0  0  0  0  0  0  0  0  0  0  0  0
    8.0995   -0.4553   18.3407 H   0  0  0  0  0  0  0  0  0  0  0  0
    4.9338    1.8163   16.9980 H   0  0  0  0  0  0  0  0  0  0  0  0
    3.8756    1.8428   19.2568 H   0  0  0  0  0  0  0  0  0  0  0  0
    5.0197    0.5765   21.1624 H   0  0  0  0  0  0  0  0  0  0  0  0
   10.5345   -0.1479   20.6764 H   0  0  0  0  0  0  0  0  0  0  0  0
    9.2675    0.8750   20.0033 H   0  0  0  0  0  0  0  0  0  0  0  0
   11.2758    2.6268   24.5939 H   0  0  0  0  0  0  0  0  0  0  0  0
    7.5733    3.9668   21.9217 H   0  0  0  0  0  0  0  0  0  0  0  0
    6.9825    2.3206   22.2417 H   0  0  0  0  0  0  0  0  0  0  0  0
    7.8593    2.6411   20.7458 H   0  0  0  0  0  0  0  0  0  0  0  0
  1  2  1  0
  2  3  2  0
  3  4  1  0
  4  5  1  0
  5  6  1  0
  6  7  1  0
  6  8  1  0
  6  9  1  0
  5 10  2  0
 10 11  1  0
 11 12  1  0
 12 13  2  0
 13 14  1  0
 14 15  1  0
 15 16  2  0
 16 17  1  0
 17 18  2  0
 18 19  1  0
 19 20  2  0
 20 21  1  0
 19 22  1  0
 18 23  1  0
 17 24  1  0
 16 25  1  0
 14 26  2  0
 26 27  1  0
 27 28  1  0
 28 29  2  0
 29 30  1  0
 30 31  2  0
 31 32  1  0
 32 33  2  0
 33 34  1  0
 31 35  1  0
 30 36  1  0
 29 37  1  0
 11 38  1  0
 11 39  1  0
  4 40  1  0
  1 41  1  0
  1 42  1  0
  1 43  1  0
 10  2  1  0
 27 12  1  0
 33 28  1  0
 20 15  1  0
M  END
>  <cnnaffinity>  (1) 
-6.40377

>  <filename>  (1) 
Cc1n[nH]c(C)c1Cc1nc(-c2ccccc2Cl)nn1-c1cccnc1

$$$$
