
     RDKit          3D

 31 33  0  0  0  0  0  0  0  0999 V2000
    4.9361    1.8211   16.9987 H   0  0  0  0  0  0  0  0  0  0  0  0
    5.3938    1.3030   17.8363 C   0  0  0  0  0  0  0  0  0  0  0  0
    6.5434    0.6638   17.5706 N   0  0  0  0  0  0  0  0  0  0  0  0
    7.1530    0.0298   18.5809 C   0  0  0  0  0  0  0  0  0  0  0  0
    8.0959   -0.4574   18.3411 H   0  0  0  0  0  0  0  0  0  0  0  0
    6.6415   -0.0153   19.8896 C   0  0  0  0  0  0  0  0  0  0  0  0
    7.3310   -0.6965   20.9366 N   0  0  0  0  0  0  0  0  0  0  0  0
    6.7086   -1.6216   21.7043 N   0  0  0  0  0  0  0  0  0  0  0  0
    7.5865   -2.0882   22.5091 N   0  0  0  0  0  0  0  0  0  0  0  0
    8.7892   -1.4959   22.3237 N   0  0  0  0  0  0  0  0  0  0  0  0
    8.6205   -0.6188   21.3648 C   0  0  0  0  0  0  0  0  0  0  0  0
    9.6666    0.3549   20.9043 C   0  0  0  0  0  0  0  0  0  0  0  0
    9.3510    0.7985   19.9589 H   0  0  0  0  0  0  0  0  0  0  0  0
   10.5522   -0.2466   20.6772 H   0  0  0  0  0  0  0  0  0  0  0  0
    9.9823    1.4232   21.9366 C   0  0  0  0  0  0  0  0  0  0  0  0
    9.1677    2.5183   22.3549 C   0  0  0  0  0  0  0  0  0  0  0  0
    7.8767    2.8864   21.7007 C   0  0  0  0  0  0  0  0  0  0  0  0
    7.0375    2.3551   22.1671 H   0  0  0  0  0  0  0  0  0  0  0  0
    7.6700    3.9574   21.7288 H   0  0  0  0  0  0  0  0  0  0  0  0
    7.9261    2.5608   20.6605 H   0  0  0  0  0  0  0  0  0  0  0  0
    9.6625    3.1235   23.4090 N   0  0  0  0  0  0  0  0  0  0  0  0
   10.8240    2.4217   23.7249 O   0  0  0  0  0  0  0  0  0  0  0  0
   10.9780    1.4114   22.8584 C   0  0  0  0  0  0  0  0  0  0  0  0
   12.0618    0.4127   23.0413 C   0  0  0  0  0  0  0  0  0  0  0  0
   12.6953    0.3759   22.1472 H   0  0  0  0  0  0  0  0  0  0  0  0
   12.6692    0.6226   23.9211 H   0  0  0  0  0  0  0  0  0  0  0  0
   11.5940   -0.5788   23.1324 H   0  0  0  0  0  0  0  0  0  0  0  0
    5.4328    0.6320   20.1558 C   0  0  0  0  0  0  0  0  0  0  0  0
    5.0235    0.5898   21.1666 H   0  0  0  0  0  0  0  0  0  0  0  0
    4.8030    1.3114   19.1054 C   0  0  0  0  0  0  0  0  0  0  0  0
    3.8712    1.8495   19.2513 H   0  0  0  0  0  0  0  0  0  0  0  0
  1  2  1  0
  2  3  2  0
  3  4  1  0
  4  5  1  0
  4  6  2  0
  6  7  1  0
  7  8  1  0
  8  9  2  0
  9 10  1  0
 10 11  2  0
 11 12  1  0
 12 13  1  0
 12 14  1  0
 12 15  1  0
 15 16  1  0
 16 17  1  0
 17 18  1  0
 17 19  1  0
 17 20  1  0
 16 21  2  0
 21 22  1  0
 22 23  1  0
 23 24  1  0
 24 25  1  0
 24 26  1  0
 24 27  1  0
  6 28  1  0
 28 29  1  0
 28 30  2  0
 30 31  1  0
 30  2  1  0
 11  7  1  0
 23 15  2  0
M  END
>  <cnnaffinity>  (1) 
-5.34799

>  <filename>  (1) 
Cc1noc(C)c1Cc1nnnn1-c1cccnc1

$$$$
