
     RDKit          3D

 42 45  0  0  0  0  0  0  0  0999 V2000
   12.2558    2.2452   24.2242 C   0  0  0  0  0  0  0  0  0  0  0  0
   11.8714    1.5016   22.9968 C   0  0  0  0  0  0  0  0  0  0  0  0
   12.4989    0.4532   22.5533 N   0  0  0  0  0  0  0  0  0  0  0  0
   11.7734   -0.1271   21.5394 C   0  0  0  0  0  0  0  0  0  0  0  0
   10.5995    0.4653   21.2092 C   0  0  0  0  0  0  0  0  0  0  0  0
    9.4777   -0.0580   20.3662 C   0  0  0  0  0  0  0  0  0  0  0  0
    8.4521   -0.8279   21.1479 C   0  0  0  0  0  0  0  0  0  0  0  0
    8.6848   -1.6342   22.1659 N   0  0  0  0  0  0  0  0  0  0  0  0
    7.4530   -2.1013   22.4870 C   0  0  0  0  0  0  0  0  0  0  0  0
    7.2355   -3.0621   23.6272 C   0  0  0  0  0  0  0  0  0  0  0  0
    6.3119   -2.5657   24.7708 C   0  0  0  0  0  0  0  0  0  0  0  0
    5.7599   -3.8411   25.4486 C   0  0  0  0  0  0  0  0  0  0  0  0
    5.9863   -5.0119   24.4574 C   0  0  0  0  0  0  0  0  0  0  0  0
    6.5998   -4.4005   23.1845 C   0  0  0  0  0  0  0  0  0  0  0  0
    5.8250   -4.2005   22.4350 H   0  0  0  0  0  0  0  0  0  0  0  0
    7.3388   -5.0583   22.7097 H   0  0  0  0  0  0  0  0  0  0  0  0
    5.0540   -5.5438   24.2351 H   0  0  0  0  0  0  0  0  0  0  0  0
    6.6631   -5.7562   24.8932 H   0  0  0  0  0  0  0  0  0  0  0  0
    6.2728   -4.0377   26.3976 H   0  0  0  0  0  0  0  0  0  0  0  0
    4.6992   -3.7249   25.7014 H   0  0  0  0  0  0  0  0  0  0  0  0
    5.4929   -1.9687   24.3621 H   0  0  0  0  0  0  0  0  0  0  0  0
    6.8410   -1.9139   25.4780 H   0  0  0  0  0  0  0  0  0  0  0  0
    8.2325   -3.2525   24.0457 H   0  0  0  0  0  0  0  0  0  0  0  0
    6.4793   -1.6595   21.7023 N   0  0  0  0  0  0  0  0  0  0  0  0
    7.1299   -0.8596   20.8207 N   0  0  0  0  0  0  0  0  0  0  0  0
    6.4450   -0.1593   19.7902 C   0  0  0  0  0  0  0  0  0  0  0  0
    5.2779    0.5620   20.0643 C   0  0  0  0  0  0  0  0  0  0  0  0
    4.7255    1.3364   19.0391 C   0  0  0  0  0  0  0  0  0  0  0  0
    5.3398    1.3402   17.7799 C   0  0  0  0  0  0  0  0  0  0  0  0
    6.4291    0.6110   17.4967 N   0  0  0  0  0  0  0  0  0  0  0  0
    6.9560   -0.1259   18.4777 C   0  0  0  0  0  0  0  0  0  0  0  0
    7.8451   -0.6963   18.2133 H   0  0  0  0  0  0  0  0  0  0  0  0
    4.9423    1.9388   16.9653 H   0  0  0  0  0  0  0  0  0  0  0  0
    3.8436    1.9493   19.2004 H   0  0  0  0  0  0  0  0  0  0  0  0
    4.8386    0.5285   21.0621 H   0  0  0  0  0  0  0  0  0  0  0  0
    9.0053    0.7624   19.8183 H   0  0  0  0  0  0  0  0  0  0  0  0
    9.8683   -0.7373   19.6059 H   0  0  0  0  0  0  0  0  0  0  0  0
   10.4207    1.9094   22.1332 S   0  0  0  0  0  0  0  0  0  0  0  0
   12.1525   -1.0262   21.0682 H   0  0  0  0  0  0  0  0  0  0  0  0
   11.6060    1.9179   25.0474 H   0  0  0  0  0  0  0  0  0  0  0  0
   12.1193    3.3234   24.0931 H   0  0  0  0  0  0  0  0  0  0  0  0
   13.2931    1.9864   24.4514 H   0  0  0  0  0  0  0  0  0  0  0  0
  1  2  1  0
  2  3  2  0
  3  4  1  0
  4  5  2  0
  5  6  1  0
  6  7  1  0
  7  8  2  0
  8  9  1  0
  9 10  1  0
 10 11  1  0
 11 12  1  0
 12 13  1  0
 13 14  1  0
 14 15  1  0
 14 16  1  0
 13 17  1  0
 13 18  1  0
 12 19  1  0
 12 20  1  0
 11 21  1  0
 11 22  1  0
 10 23  1  0
  9 24  2  0
 24 25  1  0
 25 26  1  0
 26 27  2  0
 27 28  1  0
 28 29  2  0
 29 30  1  0
 30 31  2  0
 31 32  1  0
 29 33  1  0
 28 34  1  0
 27 35  1  0
  6 36  1  0
  6 37  1  0
  5 38  1  0
  4 39  1  0
  1 40  1  0
  1 41  1  0
  1 42  1  0
 38  2  1  0
 25  7  1  0
 31 26  1  0
 14 10  1  0
M  END
>  <cnnaffinity>  (1) 
-6.558

>  <filename>  (1) 
Cc1ncc(Cc2nc(C3CCCC3)nn2-c2cccnc2)s1

$$$$
