
     RDKit          3D

 42 45  0  0  0  0  0  0  0  0999 V2000
   13.5825    0.5384   23.6243 C   0  0  0  0  0  0  0  0  0  0  0  0
   12.3112    0.8590   22.9383 C   0  0  0  0  0  0  0  0  0  0  0  0
   11.5279    1.8485   23.3198 N   0  0  0  0  0  0  0  0  0  0  0  0
   10.4897    1.7168   22.4629 N   0  0  0  0  0  0  0  0  0  0  0  0
   10.6793    0.6719   21.6447 C   0  0  0  0  0  0  0  0  0  0  0  0
    9.6532    0.2059   20.6755 C   0  0  0  0  0  0  0  0  0  0  0  0
    8.6226   -0.6385   21.3236 C   0  0  0  0  0  0  0  0  0  0  0  0
    8.8428   -1.4760   22.3067 N   0  0  0  0  0  0  0  0  0  0  0  0
    7.6109   -1.9991   22.5445 C   0  0  0  0  0  0  0  0  0  0  0  0
    7.3864   -2.9829   23.6457 C   0  0  0  0  0  0  0  0  0  0  0  0
    8.2309   -4.2683   23.5146 C   0  0  0  0  0  0  0  0  0  0  0  0
    8.3306   -4.8418   24.9400 C   0  0  0  0  0  0  0  0  0  0  0  0
    8.0258   -3.6761   25.9144 C   0  0  0  0  0  0  0  0  0  0  0  0
    7.7360   -2.4360   25.0482 C   0  0  0  0  0  0  0  0  0  0  0  0
    6.9241   -1.8228   25.4557 H   0  0  0  0  0  0  0  0  0  0  0  0
    8.6216   -1.7915   24.9833 H   0  0  0  0  0  0  0  0  0  0  0  0
    8.8598   -3.4892   26.5986 H   0  0  0  0  0  0  0  0  0  0  0  0
    7.1674   -3.9250   26.5486 H   0  0  0  0  0  0  0  0  0  0  0  0
    9.3200   -5.2742   25.1203 H   0  0  0  0  0  0  0  0  0  0  0  0
    7.6144   -5.6581   25.0883 H   0  0  0  0  0  0  0  0  0  0  0  0
    7.7799   -4.9765   22.8106 H   0  0  0  0  0  0  0  0  0  0  0  0
    9.2260   -4.0191   23.1269 H   0  0  0  0  0  0  0  0  0  0  0  0
    6.3236   -3.2339   23.6073 H   0  0  0  0  0  0  0  0  0  0  0  0
    6.6597   -1.5545   21.7518 N   0  0  0  0  0  0  0  0  0  0  0  0
    7.3201   -0.6947   20.9306 N   0  0  0  0  0  0  0  0  0  0  0  0
    6.6463    0.0032   19.8974 C   0  0  0  0  0  0  0  0  0  0  0  0
    5.4344    0.6477   20.1644 C   0  0  0  0  0  0  0  0  0  0  0  0
    4.8115    1.3131   19.1083 C   0  0  0  0  0  0  0  0  0  0  0  0
    5.4006    1.2957   17.8369 C   0  0  0  0  0  0  0  0  0  0  0  0
    6.5594    0.6728   17.5762 N   0  0  0  0  0  0  0  0  0  0  0  0
    7.1664    0.0516   18.5916 C   0  0  0  0  0  0  0  0  0  0  0  0
    8.1144   -0.4290   18.3647 H   0  0  0  0  0  0  0  0  0  0  0  0
    4.9206    1.7847   16.9934 H   0  0  0  0  0  0  0  0  0  0  0  0
    3.8798    1.8411   19.2598 H   0  0  0  0  0  0  0  0  0  0  0  0
    5.0169    0.6088   21.1735 H   0  0  0  0  0  0  0  0  0  0  0  0
   10.1375   -0.4389   19.9442 H   0  0  0  0  0  0  0  0  0  0  0  0
    9.1985    1.0643   20.1782 H   0  0  0  0  0  0  0  0  0  0  0  0
   11.8354    0.1114   21.9013 N   0  0  0  0  0  0  0  0  0  0  0  0
    9.6926    2.3309   22.5105 H   0  0  0  0  0  0  0  0  0  0  0  0
   14.0261    1.4425   24.0241 H   0  0  0  0  0  0  0  0  0  0  0  0
   13.3714   -0.1180   24.4647 H   0  0  0  0  0  0  0  0  0  0  0  0
   14.2715    0.0403   22.9461 H   0  0  0  0  0  0  0  0  0  0  0  0
  1  2  1  0
  2  3  2  0
  3  4  1  0
  4  5  1  0
  5  6  1  0
  6  7  1  0
  7  8  2  0
  8  9  1  0
  9 10  1  0
 10 11  1  0
 11 12  1  0
 12 13  1  0
 13 14  1  0
 14 15  1  0
 14 16  1  0
 13 17  1  0
 13 18  1  0
 12 19  1  0
 12 20  1  0
 11 21  1  0
 11 22  1  0
 10 23  1  0
  9 24  2  0
 24 25  1  0
 25 26  1  0
 26 27  2  0
 27 28  1  0
 28 29  2  0
 29 30  1  0
 30 31  2  0
 31 32  1  0
 29 33  1  0
 28 34  1  0
 27 35  1  0
  6 36  1  0
  6 37  1  0
  5 38  2  0
  4 39  1  0
  1 40  1  0
  1 41  1  0
  1 42  1  0
 38  2  1  0
 25  7  1  0
 31 26  1  0
 14 10  1  0
M  END
>  <cnnaffinity>  (1) 
-6.12439

>  <filename>  (1) 
Cc1n[nH]c(Cc2nc(C3CCCC3)nn2-c2cccnc2)n1

$$$$
