
     RDKit          3D

 42 45  0  0  0  0  0  0  0  0999 V2000
   11.1895   -1.5425   21.7282 C   0  0  0  0  0  0  0  0  0  0  0  0
   11.8063   -0.1921   21.8703 C   0  0  0  0  0  0  0  0  0  0  0  0
   13.0017   -0.0298   22.4267 N   0  0  0  0  0  0  0  0  0  0  0  0
   13.1911    1.2993   22.4510 N   0  0  0  0  0  0  0  0  0  0  0  0
   12.1530    1.9847   21.9192 C   0  0  0  0  0  0  0  0  0  0  0  0
   11.2269    1.0568   21.5139 C   0  0  0  0  0  0  0  0  0  0  0  0
    9.8291    1.3749   21.0227 C   0  0  0  0  0  0  0  0  0  0  0  0
    8.7819    1.1552   22.0652 C   0  0  0  0  0  0  0  0  0  0  0  0
    8.7204    1.8791   23.1645 N   0  0  0  0  0  0  0  0  0  0  0  0
    7.6770    1.3378   23.8428 C   0  0  0  0  0  0  0  0  0  0  0  0
    7.2325    1.8681   25.1682 C   0  0  0  0  0  0  0  0  0  0  0  0
    7.9502    2.8986   25.8128 C   0  0  0  0  0  0  0  0  0  0  0  0
    7.5114    3.3471   27.0555 C   0  0  0  0  0  0  0  0  0  0  0  0
    6.4326    2.8618   27.6881 N   0  0  0  0  0  0  0  0  0  0  0  0
    5.7657    1.8984   27.0731 C   0  0  0  0  0  0  0  0  0  0  0  0
    4.3677    1.2674   27.8874 Cl  0  0  0  0  0  0  0  0  0  0  0  0
    6.0998    1.3578   25.8265 C   0  0  0  0  0  0  0  0  0  0  0  0
    5.5013    0.5589   25.4011 H   0  0  0  0  0  0  0  0  0  0  0  0
    8.0502    4.1379   27.5694 H   0  0  0  0  0  0  0  0  0  0  0  0
    8.8350    3.3293   25.3544 H   0  0  0  0  0  0  0  0  0  0  0  0
    7.0935    0.3291   23.2154 N   0  0  0  0  0  0  0  0  0  0  0  0
    7.8122    0.2063   22.0740 N   0  0  0  0  0  0  0  0  0  0  0  0
    7.3738   -0.7113   21.0144 C   0  0  0  0  0  0  0  0  0  0  0  0
    6.6494   -0.0169   19.8670 C   0  0  0  0  0  0  0  0  0  0  0  0
    5.4380    0.6441   20.1142 C   0  0  0  0  0  0  0  0  0  0  0  0
    4.8030    1.3080   19.0652 C   0  0  0  0  0  0  0  0  0  0  0  0
    5.4024    1.3006   17.8030 C   0  0  0  0  0  0  0  0  0  0  0  0
    6.5515    0.6621   17.5381 N   0  0  0  0  0  0  0  0  0  0  0  0
    7.1496    0.0241   18.5526 C   0  0  0  0  0  0  0  0  0  0  0  0
    8.0900   -0.4702   18.2935 H   0  0  0  0  0  0  0  0  0  0  0  0
    4.9433    1.8318   16.9724 H   0  0  0  0  0  0  0  0  0  0  0  0
    3.8717    1.8427   19.2098 H   0  0  0  0  0  0  0  0  0  0  0  0
    5.0195    0.6612   21.1227 H   0  0  0  0  0  0  0  0  0  0  0  0
    6.7148   -1.4278   21.5188 H   0  0  0  0  0  0  0  0  0  0  0  0
    8.2391   -1.2844   20.6569 H   0  0  0  0  0  0  0  0  0  0  0  0
    9.7712    2.4411   20.7783 H   0  0  0  0  0  0  0  0  0  0  0  0
    9.5722    0.8264   20.1117 H   0  0  0  0  0  0  0  0  0  0  0  0
   12.1184    3.0648   21.8817 H   0  0  0  0  0  0  0  0  0  0  0  0
   14.0668    1.6678   22.7896 H   0  0  0  0  0  0  0  0  0  0  0  0
   10.5071   -1.7397   22.5621 H   0  0  0  0  0  0  0  0  0  0  0  0
   11.9523   -2.3191   21.7195 H   0  0  0  0  0  0  0  0  0  0  0  0
   10.6100   -1.6086   20.8044 H   0  0  0  0  0  0  0  0  0  0  0  0
  1  2  1  0
  2  3  2  0
  3  4  1  0
  4  5  1  0
  5  6  2  0
  6  7  1  0
  7  8  1  0
  8  9  2  0
  9 10  1  0
 10 11  1  0
 11 12  2  0
 12 13  1  0
 13 14  2  0
 14 15  1  0
 15 16  1  0
 15 17  2  0
 17 18  1  0
 13 19  1  0
 12 20  1  0
 10 21  2  0
 21 22  1  0
 22 23  1  0
 23 24  1  0
 24 25  2  0
 25 26  1  0
 26 27  2  0
 27 28  1  0
 28 29  2  0
 29 30  1  0
 27 31  1  0
 26 32  1  0
 25 33  1  0
 23 34  1  0
 23 35  1  0
  7 36  1  0
  7 37  1  0
  5 38  1  0
  4 39  1  0
  1 40  1  0
  1 41  1  0
  1 42  1  0
  6  2  1  0
 22  8  1  0
 29 24  1  0
 17 11  1  0
M  END
>  <cnnaffinity>  (1) 
-6.27492

>  <filename>  (1) 
Cc1n[nH]cc1Cc1nc(-c2ccnc(Cl)c2)nn1Cc1cccnc1

$$$$
