
     RDKit          3D

 42 45  0  0  0  0  0  0  0  0999 V2000
    7.8385    2.8892   21.7106 C   0  0  0  0  0  0  0  0  0  0  0  0
    9.0926    2.4842   22.4134 C   0  0  0  0  0  0  0  0  0  0  0  0
    9.5174    3.0838   23.4970 N   0  0  0  0  0  0  0  0  0  0  0  0
   10.6579    2.4063   23.8887 O   0  0  0  0  0  0  0  0  0  0  0  0
   10.8709    1.4138   23.0243 C   0  0  0  0  0  0  0  0  0  0  0  0
   12.2191    0.4218   23.3363 Cl  0  0  0  0  0  0  0  0  0  0  0  0
    9.9266    1.3825   22.0438 C   0  0  0  0  0  0  0  0  0  0  0  0
    9.6715    0.3479   20.9619 C   0  0  0  0  0  0  0  0  0  0  0  0
    8.6243   -0.6669   21.3411 C   0  0  0  0  0  0  0  0  0  0  0  0
    8.8148   -1.5506   22.3023 N   0  0  0  0  0  0  0  0  0  0  0  0
    7.5756   -2.0654   22.5064 C   0  0  0  0  0  0  0  0  0  0  0  0
    7.3401   -3.0288   23.6099 C   0  0  0  0  0  0  0  0  0  0  0  0
    6.1290   -2.8805   24.4933 C   0  0  0  0  0  0  0  0  0  0  0  0
    7.4942   -2.6289   25.0682 C   0  0  0  0  0  0  0  0  0  0  0  0
    7.9348   -1.2112   25.3783 C   0  0  0  0  0  0  0  0  0  0  0  0
    7.4849   -0.4792   24.7017 H   0  0  0  0  0  0  0  0  0  0  0  0
    7.6878   -0.9187   26.4028 H   0  0  0  0  0  0  0  0  0  0  0  0
    9.0200   -1.1319   25.2575 H   0  0  0  0  0  0  0  0  0  0  0  0
    8.0458   -3.6690   26.0248 C   0  0  0  0  0  0  0  0  0  0  0  0
    9.1387   -3.6352   26.0553 H   0  0  0  0  0  0  0  0  0  0  0  0
    7.6862   -3.4955   27.0458 H   0  0  0  0  0  0  0  0  0  0  0  0
    7.7569   -4.6878   25.7472 H   0  0  0  0  0  0  0  0  0  0  0  0
    5.5108   -2.0034   24.3306 H   0  0  0  0  0  0  0  0  0  0  0  0
    5.5717   -3.7640   24.7969 H   0  0  0  0  0  0  0  0  0  0  0  0
    7.7408   -4.0106   23.3734 H   0  0  0  0  0  0  0  0  0  0  0  0
    6.6438   -1.6144   21.6855 N   0  0  0  0  0  0  0  0  0  0  0  0
    7.3293   -0.7331   20.9013 N   0  0  0  0  0  0  0  0  0  0  0  0
    6.6438   -0.0389   19.8632 C   0  0  0  0  0  0  0  0  0  0  0  0
    5.4324    0.6111   20.1339 C   0  0  0  0  0  0  0  0  0  0  0  0
    4.8061    1.3078   19.0954 C   0  0  0  0  0  0  0  0  0  0  0  0
    5.4004    1.3127   17.8288 C   0  0  0  0  0  0  0  0  0  0  0  0
    6.5427    0.6652   17.5498 N   0  0  0  0  0  0  0  0  0  0  0  0
    7.1490    0.0116   18.5518 C   0  0  0  0  0  0  0  0  0  0  0  0
    8.0783   -0.5021   18.3056 H   0  0  0  0  0  0  0  0  0  0  0  0
    4.9387    1.8580   17.0077 H   0  0  0  0  0  0  0  0  0  0  0  0
    3.8792    1.8497   19.2585 H   0  0  0  0  0  0  0  0  0  0  0  0
    5.0093    0.5595   21.1372 H   0  0  0  0  0  0  0  0  0  0  0  0
    9.3834    0.8355   20.0264 H   0  0  0  0  0  0  0  0  0  0  0  0
   10.5971   -0.2058   20.7735 H   0  0  0  0  0  0  0  0  0  0  0  0
    6.9749    2.4637   22.2299 H   0  0  0  0  0  0  0  0  0  0  0  0
    7.8305    2.4708   20.7004 H   0  0  0  0  0  0  0  0  0  0  0  0
    7.7097    3.9714   21.6529 H   0  0  0  0  0  0  0  0  0  0  0  0
  1  2  1  0
  2  3  2  0
  3  4  1  0
  4  5  1  0
  5  6  1  0
  5  7  2  0
  7  8  1  0
  8  9  1  0
  9 10  2  0
 10 11  1  0
 11 12  1  0
 12 13  1  0
 13 14  1  0
 14 15  1  0
 15 16  1  0
 15 17  1  0
 15 18  1  0
 14 19  1  0
 19 20  1  0
 19 21  1  0
 19 22  1  0
 13 23  1  0
 13 24  1  0
 12 25  1  0
 11 26  2  0
 26 27  1  0
 27 28  1  0
 28 29  2  0
 29 30  1  0
 30 31  2  0
 31 32  1  0
 32 33  2  0
 33 34  1  0
 31 35  1  0
 30 36  1  0
 29 37  1  0
  8 38  1  0
  8 39  1  0
  1 40  1  0
  1 41  1  0
  1 42  1  0
  7  2  1  0
 27  9  1  0
 33 28  1  0
 14 12  1  0
M  END
>  <cnnaffinity>  (1) 
-6.43592

>  <filename>  (1) 
Cc1noc(Cl)c1Cc1nc(C2CC2(C)C)nn1-c1cccnc1

$$$$
