
     RDKit          3D

 39 42  0  0  0  0  0  0  0  0999 V2000
    7.7656    2.8739   21.9302 C   0  0  0  0  0  0  0  0  0  0  0  0
    9.1136    2.5048   22.4585 C   0  0  0  0  0  0  0  0  0  0  0  0
    9.6452    3.0815   23.5083 N   0  0  0  0  0  0  0  0  0  0  0  0
   10.8411    2.4344   23.7355 O   0  0  0  0  0  0  0  0  0  0  0  0
   10.9925    1.4726   22.8197 C   0  0  0  0  0  0  0  0  0  0  0  0
    9.9503    1.4538   21.9520 C   0  0  0  0  0  0  0  0  0  0  0  0
    9.6224    0.4092   20.8943 C   0  0  0  0  0  0  0  0  0  0  0  0
    8.6169   -0.6017   21.3523 C   0  0  0  0  0  0  0  0  0  0  0  0
    8.8471   -1.4682   22.3113 N   0  0  0  0  0  0  0  0  0  0  0  0
    7.6392   -2.0646   22.4959 C   0  0  0  0  0  0  0  0  0  0  0  0
    7.4134   -3.0947   23.5447 C   0  0  0  0  0  0  0  0  0  0  0  0
    8.4587   -3.4752   24.4161 C   0  0  0  0  0  0  0  0  0  0  0  0
    8.2103   -4.4468   25.3764 C   0  0  0  0  0  0  0  0  0  0  0  0
    9.2031   -4.8091   26.2015 F   0  0  0  0  0  0  0  0  0  0  0  0
    6.9679   -5.0602   25.5136 C   0  0  0  0  0  0  0  0  0  0  0  0
    5.9525   -4.6619   24.6490 C   0  0  0  0  0  0  0  0  0  0  0  0
    4.7453   -5.2337   24.7589 F   0  0  0  0  0  0  0  0  0  0  0  0
    6.1420   -3.6935   23.6746 C   0  0  0  0  0  0  0  0  0  0  0  0
    5.3113   -3.4077   23.0361 H   0  0  0  0  0  0  0  0  0  0  0  0
    6.7986   -5.8129   26.2663 H   0  0  0  0  0  0  0  0  0  0  0  0
    9.4498   -3.0329   24.3641 H   0  0  0  0  0  0  0  0  0  0  0  0
    6.6876   -1.6313   21.6812 N   0  0  0  0  0  0  0  0  0  0  0  0
    7.3291   -0.7140   20.9189 N   0  0  0  0  0  0  0  0  0  0  0  0
    6.6389   -0.0241   19.8863 C   0  0  0  0  0  0  0  0  0  0  0  0
    5.4317    0.6265   20.1545 C   0  0  0  0  0  0  0  0  0  0  0  0
    4.8052    1.3103   19.1059 C   0  0  0  0  0  0  0  0  0  0  0  0
    5.3939    1.2989   17.8360 C   0  0  0  0  0  0  0  0  0  0  0  0
    6.5431    0.6601   17.5690 N   0  0  0  0  0  0  0  0  0  0  0  0
    7.1486    0.0257   18.5788 C   0  0  0  0  0  0  0  0  0  0  0  0
    8.0957   -0.4556   18.3428 H   0  0  0  0  0  0  0  0  0  0  0  0
    4.9325    1.8151   16.9966 H   0  0  0  0  0  0  0  0  0  0  0  0
    3.8736    1.8477   19.2545 H   0  0  0  0  0  0  0  0  0  0  0  0
    5.0095    0.5863   21.1599 H   0  0  0  0  0  0  0  0  0  0  0  0
    9.2570    0.8607   19.9703 H   0  0  0  0  0  0  0  0  0  0  0  0
   10.5119   -0.1738   20.6431 H   0  0  0  0  0  0  0  0  0  0  0  0
   11.8652    0.8438   22.9475 H   0  0  0  0  0  0  0  0  0  0  0  0
    7.7609    2.6936   20.8535 H   0  0  0  0  0  0  0  0  0  0  0  0
    6.9899    2.2240   22.3563 H   0  0  0  0  0  0  0  0  0  0  0  0
    7.4968    3.9116   22.1427 H   0  0  0  0  0  0  0  0  0  0  0  0
  1  2  1  0
  2  3  2  0
  3  4  1  0
  4  5  1  0
  5  6  2  0
  6  7  1  0
  7  8  1  0
  8  9  2  0
  9 10  1  0
 10 11  1  0
 11 12  2  0
 12 13  1  0
 13 14  1  0
 13 15  2  0
 15 16  1  0
 16 17  1  0
 16 18  2  0
 18 19  1  0
 15 20  1  0
 12 21  1  0
 10 22  2  0
 22 23  1  0
 23 24  1  0
 24 25  2  0
 25 26  1  0
 26 27  2  0
 27 28  1  0
 28 29  2  0
 29 30  1  0
 27 31  1  0
 26 32  1  0
 25 33  1  0
  7 34  1  0
  7 35  1  0
  5 36  1  0
  1 37  1  0
  1 38  1  0
  1 39  1  0
  6  2  1  0
 23  8  1  0
 29 24  1  0
 18 11  1  0
M  END
>  <cnnaffinity>  (1) 
-6.07429

>  <filename>  (1) 
Cc1nocc1Cc1nc(-c2cc(F)cc(F)c2)nn1-c1cccnc1

$$$$
