
     RDKit          3D

 42 45  0  0  0  0  0  0  0  0999 V2000
    5.5189   -1.3345   26.6563 C   0  0  0  0  0  0  0  0  0  0  0  0
    6.0104   -0.1656   25.8851 C   0  0  0  0  0  0  0  0  0  0  0  0
    5.8088    0.1199   24.6378 N   0  0  0  0  0  0  0  0  0  0  0  0
    6.5481    1.2692   24.4049 C   0  0  0  0  0  0  0  0  0  0  0  0
    6.6660    1.7749   22.9947 C   0  0  0  0  0  0  0  0  0  0  0  0
    7.8078    1.0788   22.3430 C   0  0  0  0  0  0  0  0  0  0  0  0
    9.0552    1.4274   22.5415 N   0  0  0  0  0  0  0  0  0  0  0  0
    9.7548    0.3510   22.0919 C   0  0  0  0  0  0  0  0  0  0  0  0
   11.2107    0.2799   22.2762 C   0  0  0  0  0  0  0  0  0  0  0  0
   11.9637   -0.7746   21.7299 C   0  0  0  0  0  0  0  0  0  0  0  0
   13.3307   -0.8194   21.9793 C   0  0  0  0  0  0  0  0  0  0  0  0
   14.2747   -2.0996   21.2839 Cl  0  0  0  0  0  0  0  0  0  0  0  0
   13.9662    0.1719   22.7296 C   0  0  0  0  0  0  0  0  0  0  0  0
   13.2142    1.2154   23.2771 C   0  0  0  0  0  0  0  0  0  0  0  0
   11.8399    1.2651   23.0654 C   0  0  0  0  0  0  0  0  0  0  0  0
   11.2393    2.0607   23.5004 H   0  0  0  0  0  0  0  0  0  0  0  0
   13.6938    1.9769   23.8857 H   0  0  0  0  0  0  0  0  0  0  0  0
   15.0400    0.1439   22.8313 H   0  0  0  0  0  0  0  0  0  0  0  0
   11.4913   -1.5717   21.1573 H   0  0  0  0  0  0  0  0  0  0  0  0
    8.9988   -0.6206   21.5991 N   0  0  0  0  0  0  0  0  0  0  0  0
    7.7461   -0.1401   21.7721 N   0  0  0  0  0  0  0  0  0  0  0  0
    6.5808   -0.7936   21.1885 C   0  0  0  0  0  0  0  0  0  0  0  0
    6.0881   -0.0683   19.9487 C   0  0  0  0  0  0  0  0  0  0  0  0
    4.8723    0.6233   19.8659 C   0  0  0  0  0  0  0  0  0  0  0  0
    4.6082    1.3806   18.7180 C   0  0  0  0  0  0  0  0  0  0  0  0
    5.5474    1.3888   17.6837 C   0  0  0  0  0  0  0  0  0  0  0  0
    6.6997    0.7044   17.7271 N   0  0  0  0  0  0  0  0  0  0  0  0
    6.9558    0.0152   18.8449 C   0  0  0  0  0  0  0  0  0  0  0  0
    7.9199   -0.4914   18.8895 H   0  0  0  0  0  0  0  0  0  0  0  0
    5.3720    1.9657   16.7763 H   0  0  0  0  0  0  0  0  0  0  0  0
    3.7185    1.9947   18.6284 H   0  0  0  0  0  0  0  0  0  0  0  0
    4.1401    0.5988   20.6780 H   0  0  0  0  0  0  0  0  0  0  0  0
    5.8139   -0.8347   21.9661 H   0  0  0  0  0  0  0  0  0  0  0  0
    6.8919   -1.8211   20.9775 H   0  0  0  0  0  0  0  0  0  0  0  0
    6.8746    2.8452   22.9698 H   0  0  0  0  0  0  0  0  0  0  0  0
    5.7433    1.5645   22.4494 H   0  0  0  0  0  0  0  0  0  0  0  0
    7.1712    1.6193   25.5535 C   0  0  0  0  0  0  0  0  0  0  0  0
    6.8312    0.7041   26.5151 O   0  0  0  0  0  0  0  0  0  0  0  0
    7.8742    2.3862   25.8488 H   0  0  0  0  0  0  0  0  0  0  0  0
    6.3709   -1.9435   26.9726 H   0  0  0  0  0  0  0  0  0  0  0  0
    4.8668   -1.9321   26.0213 H   0  0  0  0  0  0  0  0  0  0  0  0
    4.9687   -1.0215   27.5468 H   0  0  0  0  0  0  0  0  0  0  0  0
  1  2  1  0
  2  3  2  0
  3  4  1  0
  4  5  1  0
  5  6  1  0
  6  7  2  0
  7  8  1  0
  8  9  1  0
  9 10  2  0
 10 11  1  0
 11 12  1  0
 11 13  2  0
 13 14  1  0
 14 15  2  0
 15 16  1  0
 14 17  1  0
 13 18  1  0
 10 19  1  0
  8 20  2  0
 20 21  1  0
 21 22  1  0
 22 23  1  0
 23 24  2  0
 24 25  1  0
 25 26  2  0
 26 27  1  0
 27 28  2  0
 28 29  1  0
 26 30  1  0
 25 31  1  0
 24 32  1  0
 22 33  1  0
 22 34  1  0
  5 35  1  0
  5 36  1  0
  4 37  2  0
 37 38  1  0
 37 39  1  0
  1 40  1  0
  1 41  1  0
  1 42  1  0
 38  2  1  0
 21  6  1  0
 28 23  1  0
 15  9  1  0
M  END
>  <cnnaffinity>  (1) 
-6.3172

>  <filename>  (1) 
Cc1nc(Cc2nc(-c3cccc(Cl)c3)nn2Cc2cccnc2)co1

$$$$
