
     RDKit          3D

 44 47  0  0  0  0  0  0  0  0999 V2000
   11.8715    2.7238   24.2943 C   0  0  0  0  0  0  0  0  0  0  0  0
   11.5913    1.7224   23.2326 C   0  0  0  0  0  0  0  0  0  0  0  0
   10.5397    1.6957   22.4551 N   0  0  0  0  0  0  0  0  0  0  0  0
   10.7226    0.6198   21.6262 C   0  0  0  0  0  0  0  0  0  0  0  0
    9.6653    0.2119   20.6726 C   0  0  0  0  0  0  0  0  0  0  0  0
    8.6319   -0.6109   21.3354 C   0  0  0  0  0  0  0  0  0  0  0  0
    8.8618   -1.4699   22.3023 N   0  0  0  0  0  0  0  0  0  0  0  0
    7.6354   -1.9817   22.5606 C   0  0  0  0  0  0  0  0  0  0  0  0
    7.3611   -2.9004   23.7248 C   0  0  0  0  0  0  0  0  0  0  0  0
    8.4418   -3.9994   23.9000 C   0  0  0  0  0  0  0  0  0  0  0  0
    9.6904   -3.5040   24.6441 C   0  0  0  0  0  0  0  0  0  0  0  0
    9.3449   -2.8776   25.8711 O   0  0  0  0  0  0  0  0  0  0  0  0
    8.5366   -1.7280   25.6709 C   0  0  0  0  0  0  0  0  0  0  0  0
    7.1871   -2.1086   25.0550 C   0  0  0  0  0  0  0  0  0  0  0  0
    6.6540   -2.7345   25.7786 H   0  0  0  0  0  0  0  0  0  0  0  0
    6.5762   -1.2124   24.8905 H   0  0  0  0  0  0  0  0  0  0  0  0
    8.4032   -1.2673   26.6551 H   0  0  0  0  0  0  0  0  0  0  0  0
    9.0652   -1.0141   25.0155 H   0  0  0  0  0  0  0  0  0  0  0  0
   10.2507   -2.7981   24.0123 H   0  0  0  0  0  0  0  0  0  0  0  0
   10.3461   -4.3434   24.9033 H   0  0  0  0  0  0  0  0  0  0  0  0
    8.7306   -4.4155   22.9283 H   0  0  0  0  0  0  0  0  0  0  0  0
    8.0126   -4.8184   24.4873 H   0  0  0  0  0  0  0  0  0  0  0  0
    6.4061   -3.3636   23.4676 H   0  0  0  0  0  0  0  0  0  0  0  0
    6.6771   -1.5422   21.7713 N   0  0  0  0  0  0  0  0  0  0  0  0
    7.3297   -0.6827   20.9400 N   0  0  0  0  0  0  0  0  0  0  0  0
    6.6470    0.0005   19.9017 C   0  0  0  0  0  0  0  0  0  0  0  0
    5.4338    0.6450   20.1665 C   0  0  0  0  0  0  0  0  0  0  0  0
    4.8123    1.3110   19.1079 C   0  0  0  0  0  0  0  0  0  0  0  0
    5.4016    1.2954   17.8360 C   0  0  0  0  0  0  0  0  0  0  0  0
    6.5594    0.6702   17.5755 N   0  0  0  0  0  0  0  0  0  0  0  0
    7.1639    0.0499   18.5937 C   0  0  0  0  0  0  0  0  0  0  0  0
    8.1119   -0.4285   18.3646 H   0  0  0  0  0  0  0  0  0  0  0  0
    4.9228    1.7858   16.9919 H   0  0  0  0  0  0  0  0  0  0  0  0
    3.8806    1.8403   19.2594 H   0  0  0  0  0  0  0  0  0  0  0  0
    5.0151    0.6106   21.1756 H   0  0  0  0  0  0  0  0  0  0  0  0
   10.0749   -0.4317   19.8923 H   0  0  0  0  0  0  0  0  0  0  0  0
    9.2201    1.0972   20.2189 H   0  0  0  0  0  0  0  0  0  0  0  0
   11.8901   -0.0220   21.8997 C   0  0  0  0  0  0  0  0  0  0  0  0
   12.4426    0.6992   22.9431 N   0  0  0  0  0  0  0  0  0  0  0  0
   13.3051    0.5224   23.4254 H   0  0  0  0  0  0  0  0  0  0  0  0
   12.3163   -0.9164   21.4634 H   0  0  0  0  0  0  0  0  0  0  0  0
   12.5389    3.5092   23.9200 H   0  0  0  0  0  0  0  0  0  0  0  0
   10.9401    3.1945   24.6134 H   0  0  0  0  0  0  0  0  0  0  0  0
   12.3300    2.2258   25.1512 H   0  0  0  0  0  0  0  0  0  0  0  0
  1  2  1  0
  2  3  2  0
  3  4  1  0
  4  5  1  0
  5  6  1  0
  6  7  2  0
  7  8  1  0
  8  9  1  0
  9 10  1  0
 10 11  1  0
 11 12  1  0
 12 13  1  0
 13 14  1  0
 14 15  1  0
 14 16  1  0
 13 17  1  0
 13 18  1  0
 11 19  1  0
 11 20  1  0
 10 21  1  0
 10 22  1  0
  9 23  1  0
  8 24  2  0
 24 25  1  0
 25 26  1  0
 26 27  2  0
 27 28  1  0
 28 29  2  0
 29 30  1  0
 30 31  2  0
 31 32  1  0
 29 33  1  0
 28 34  1  0
 27 35  1  0
  5 36  1  0
  5 37  1  0
  4 38  2  0
 38 39  1  0
 39 40  1  0
 38 41  1  0
  1 42  1  0
  1 43  1  0
  1 44  1  0
 39  2  1  0
 25  6  1  0
 31 26  1  0
 14  9  1  0
M  END
>  <cnnaffinity>  (1) 
-5.92185

>  <filename>  (1) 
Cc1nc(Cc2nc(C3CCOCC3)nn2-c2cccnc2)c[nH]1

$$$$
