
     RDKit          3D

 42 45  0  0  0  0  0  0  0  0999 V2000
    3.9849    5.4244   23.9686 C   0  0  0  0  0  0  0  0  0  0  0  0
    4.9981    4.4303   24.4263 C   0  0  0  0  0  0  0  0  0  0  0  0
    5.0567    3.2451   23.9173 N   0  0  0  0  0  0  0  0  0  0  0  0
    6.0635    2.5033   24.4892 C   0  0  0  0  0  0  0  0  0  0  0  0
    6.3460    1.1714   23.8872 C   0  0  0  0  0  0  0  0  0  0  0  0
    7.3582    1.2520   22.7207 C   0  0  0  0  0  0  0  0  0  0  0  0
    7.5888   -0.1022   22.1586 C   0  0  0  0  0  0  0  0  0  0  0  0
    8.1488   -1.0386   22.8962 N   0  0  0  0  0  0  0  0  0  0  0  0
    8.2724   -2.0713   22.0339 C   0  0  0  0  0  0  0  0  0  0  0  0
    9.0139   -3.3027   22.4014 C   0  0  0  0  0  0  0  0  0  0  0  0
    8.5974   -4.1409   23.6514 C   0  0  0  0  0  0  0  0  0  0  0  0
   10.0181   -3.9738   24.2437 C   0  0  0  0  0  0  0  0  0  0  0  0
   10.4077   -3.0495   23.0708 C   0  0  0  0  0  0  0  0  0  0  0  0
   10.5301   -2.0085   23.3815 H   0  0  0  0  0  0  0  0  0  0  0  0
   11.2993   -3.2985   22.4918 H   0  0  0  0  0  0  0  0  0  0  0  0
   10.0482   -3.4926   25.2302 H   0  0  0  0  0  0  0  0  0  0  0  0
   10.6040   -4.8956   24.3039 H   0  0  0  0  0  0  0  0  0  0  0  0
    8.3056   -5.1652   23.3974 H   0  0  0  0  0  0  0  0  0  0  0  0
    7.8113   -3.6966   24.2714 H   0  0  0  0  0  0  0  0  0  0  0  0
    8.9999   -3.8819   21.4782 H   0  0  0  0  0  0  0  0  0  0  0  0
    7.8110   -1.8484   20.8202 N   0  0  0  0  0  0  0  0  0  0  0  0
    7.3247   -0.5815   20.9103 N   0  0  0  0  0  0  0  0  0  0  0  0
    6.6133    0.0222   19.8410 C   0  0  0  0  0  0  0  0  0  0  0  0
    5.4060    0.6891   20.0797 C   0  0  0  0  0  0  0  0  0  0  0  0
    4.7909    1.3409   19.0067 C   0  0  0  0  0  0  0  0  0  0  0  0
    5.4041    1.3067   17.7523 C   0  0  0  0  0  0  0  0  0  0  0  0
    6.5373    0.6221   17.5088 N   0  0  0  0  0  0  0  0  0  0  0  0
    7.1156   -0.0222   18.5288 C   0  0  0  0  0  0  0  0  0  0  0  0
    8.0240   -0.5770   18.3037 H   0  0  0  0  0  0  0  0  0  0  0  0
    4.9711    1.8420   16.9099 H   0  0  0  0  0  0  0  0  0  0  0  0
    3.8650    1.8864   19.1445 H   0  0  0  0  0  0  0  0  0  0  0  0
    4.9686    0.6972   21.0777 H   0  0  0  0  0  0  0  0  0  0  0  0
    8.3278    1.5807   23.1106 H   0  0  0  0  0  0  0  0  0  0  0  0
    7.0616    1.9850   21.9633 H   0  0  0  0  0  0  0  0  0  0  0  0
    5.3967    0.7689   23.5182 H   0  0  0  0  0  0  0  0  0  0  0  0
    6.7282    0.4633   24.6287 H   0  0  0  0  0  0  0  0  0  0  0  0
    6.7768    3.1353   25.4552 C   0  0  0  0  0  0  0  0  0  0  0  0
    6.1773    4.7380   25.6689 S   0  0  0  0  0  0  0  0  0  0  0  0
    7.6142    2.7456   26.0168 H   0  0  0  0  0  0  0  0  0  0  0  0
    4.3668    6.4440   24.0230 H   0  0  0  0  0  0  0  0  0  0  0  0
    3.0844    5.3443   24.5857 H   0  0  0  0  0  0  0  0  0  0  0  0
    3.7092    5.1797   22.9401 H   0  0  0  0  0  0  0  0  0  0  0  0
  1  2  1  0
  2  3  2  0
  3  4  1  0
  4  5  1  0
  5  6  1  0
  6  7  1  0
  7  8  2  0
  8  9  1  0
  9 10  1  0
 10 11  1  0
 11 12  1  0
 12 13  1  0
 13 14  1  0
 13 15  1  0
 12 16  1  0
 12 17  1  0
 11 18  1  0
 11 19  1  0
 10 20  1  0
  9 21  2  0
 21 22  1  0
 22 23  1  0
 23 24  2  0
 24 25  1  0
 25 26  2  0
 26 27  1  0
 27 28  2  0
 28 29  1  0
 26 30  1  0
 25 31  1  0
 24 32  1  0
  6 33  1  0
  6 34  1  0
  5 35  1  0
  5 36  1  0
  4 37  2  0
 37 38  1  0
 37 39  1  0
  1 40  1  0
  1 41  1  0
  1 42  1  0
 38  2  1  0
 22  7  1  0
 28 23  1  0
 13 10  1  0
M  END
>  <cnnaffinity>  (1) 
-6.18026

>  <filename>  (1) 
Cc1nc(CCc2nc(C3CCC3)nn2-c2cccnc2)cs1

$$$$
