
     RDKit          3D

 48 51  0  0  0  0  0  0  0  0999 V2000
    8.2233    4.3321   23.9992 C   0  0  0  0  0  0  0  0  0  0  0  0
    8.5104    3.3824   22.9075 C   0  0  0  0  0  0  0  0  0  0  0  0
    9.3448    2.3935   22.8990 N   0  0  0  0  0  0  0  0  0  0  0  0
    9.1648    1.8156   21.6586 C   0  0  0  0  0  0  0  0  0  0  0  0
    9.7364    0.4994   21.2617 C   0  0  0  0  0  0  0  0  0  0  0  0
    8.7643   -0.5859   21.5994 C   0  0  0  0  0  0  0  0  0  0  0  0
    8.9162   -1.4467   22.5741 N   0  0  0  0  0  0  0  0  0  0  0  0
    7.7177   -2.0860   22.6155 C   0  0  0  0  0  0  0  0  0  0  0  0
    7.4039   -3.0955   23.6732 C   0  0  0  0  0  0  0  0  0  0  0  0
    6.9404   -4.4490   23.0915 C   0  0  0  0  0  0  0  0  0  0  0  0
    6.6867   -5.4599   24.2169 C   0  0  0  0  0  0  0  0  0  0  0  0
    5.6817   -4.9463   25.2657 C   0  0  0  0  0  0  0  0  0  0  0  0
    5.4551   -5.9737   26.3779 C   0  0  0  0  0  0  0  0  0  0  0  0
    4.7026   -5.6253   27.0945 H   0  0  0  0  0  0  0  0  0  0  0  0
    5.1157   -6.9332   25.9711 H   0  0  0  0  0  0  0  0  0  0  0  0
    6.3849   -6.1569   26.9321 H   0  0  0  0  0  0  0  0  0  0  0  0
    6.1473   -3.5891   25.8272 C   0  0  0  0  0  0  0  0  0  0  0  0
    6.3870   -2.5574   24.7164 C   0  0  0  0  0  0  0  0  0  0  0  0
    5.4375   -2.3308   24.2091 H   0  0  0  0  0  0  0  0  0  0  0  0
    6.7528   -1.6159   25.1489 H   0  0  0  0  0  0  0  0  0  0  0  0
    5.4097   -3.2043   26.5456 H   0  0  0  0  0  0  0  0  0  0  0  0
    7.0851   -3.7365   26.3909 H   0  0  0  0  0  0  0  0  0  0  0  0
    4.7206   -4.7784   24.7486 H   0  0  0  0  0  0  0  0  0  0  0  0
    6.3268   -6.4015   23.7841 H   0  0  0  0  0  0  0  0  0  0  0  0
    7.6442   -5.6800   24.7213 H   0  0  0  0  0  0  0  0  0  0  0  0
    6.0242   -4.2930   22.5001 H   0  0  0  0  0  0  0  0  0  0  0  0
    7.7040   -4.8407   22.4057 H   0  0  0  0  0  0  0  0  0  0  0  0
    8.3599   -3.2499   24.1891 H   0  0  0  0  0  0  0  0  0  0  0  0
    6.8457   -1.6924   21.7083 N   0  0  0  0  0  0  0  0  0  0  0  0
    7.5234   -0.7260   21.0304 N   0  0  0  0  0  0  0  0  0  0  0  0
    6.8415   -0.0531   19.9646 C   0  0  0  0  0  0  0  0  0  0  0  0
    5.6183    0.5819   20.2251 C   0  0  0  0  0  0  0  0  0  0  0  0
    4.9768    1.2471   19.1792 C   0  0  0  0  0  0  0  0  0  0  0  0
    5.5591    1.2432   17.9058 C   0  0  0  0  0  0  0  0  0  0  0  0
    6.7084    0.6035   17.6378 N   0  0  0  0  0  0  0  0  0  0  0  0
    7.3241   -0.0348   18.6426 C   0  0  0  0  0  0  0  0  0  0  0  0
    8.2404   -0.5581   18.3760 H   0  0  0  0  0  0  0  0  0  0  0  0
    5.0838    1.7741   17.0816 H   0  0  0  0  0  0  0  0  0  0  0  0
    4.0485    1.7852   19.3395 H   0  0  0  0  0  0  0  0  0  0  0  0
    5.2017    0.5759   21.2339 H   0  0  0  0  0  0  0  0  0  0  0  0
    9.9125    0.4696   20.1919 H   0  0  0  0  0  0  0  0  0  0  0  0
   10.6728    0.3008   21.7846 H   0  0  0  0  0  0  0  0  0  0  0  0
    8.2063    2.4801   20.9935 C   0  0  0  0  0  0  0  0  0  0  0  0
    7.7653    3.4982   21.7868 O   0  0  0  0  0  0  0  0  0  0  0  0
    7.7388    2.3160   20.0402 H   0  0  0  0  0  0  0  0  0  0  0  0
    8.2283    5.3581   23.6275 H   0  0  0  0  0  0  0  0  0  0  0  0
    7.2397    4.0967   24.4133 H   0  0  0  0  0  0  0  0  0  0  0  0
    8.9762    4.2056   24.7719 H   0  0  0  0  0  0  0  0  0  0  0  0
  1  2  1  0
  2  3  2  0
  3  4  1  0
  4  5  1  0
  5  6  1  0
  6  7  2  0
  7  8  1  0
  8  9  1  0
  9 10  1  0
 10 11  1  0
 11 12  1  0
 12 13  1  0
 13 14  1  0
 13 15  1  0
 13 16  1  0
 12 17  1  0
 17 18  1  0
 18 19  1  0
 18 20  1  0
 17 21  1  0
 17 22  1  0
 12 23  1  0
 11 24  1  0
 11 25  1  0
 10 26  1  0
 10 27  1  0
  9 28  1  0
  8 29  2  0
 29 30  1  0
 30 31  1  0
 31 32  2  0
 32 33  1  0
 33 34  2  0
 34 35  1  0
 35 36  2  0
 36 37  1  0
 34 38  1  0
 33 39  1  0
 32 40  1  0
  5 41  1  0
  5 42  1  0
  4 43  2  0
 43 44  1  0
 43 45  1  0
  1 46  1  0
  1 47  1  0
  1 48  1  0
 44  2  1  0
 30  6  1  0
 36 31  1  0
 18  9  1  0
M  END
>  <cnnaffinity>  (1) 
-6.2026

>  <filename>  (1) 
Cc1nc(Cc2nc(C3CCC(C)CC3)nn2-c2cccnc2)co1

$$$$
