
     RDKit          3D

 34 35  0  0  0  0  0  0  0  0999 V2000
    5.6156   -4.3397   26.6661 H   0  0  0  0  0  0  0  0  0  0  0  0
    6.5769   -4.4985   26.6262 O   0  0  0  0  0  0  0  0  0  0  0  0
    6.7882   -3.9391   25.4253 C   0  0  0  0  0  0  0  0  0  0  0  0
    5.8415   -3.4857   24.8216 O   0  0  0  0  0  0  0  0  0  0  0  0
    8.1964   -3.9079   24.9718 C   0  0  0  0  0  0  0  0  0  0  0  0
    8.7003   -3.3017   23.8297 C   0  0  0  0  0  0  0  0  0  0  0  0
    8.0067   -2.5947   22.7210 C   0  0  0  0  0  0  0  0  0  0  0  0
    6.9665   -2.9461   22.6370 H   0  0  0  0  0  0  0  0  0  0  0  0
    8.4874   -2.8108   21.7555 H   0  0  0  0  0  0  0  0  0  0  0  0
    8.1082   -1.1441   22.9363 N   0  0  0  0  0  0  0  0  0  0  0  0
    7.6502   -0.7999   23.7657 H   0  0  0  0  0  0  0  0  0  0  0  0
    7.5717   -0.3284   21.9846 C   0  0  0  0  0  0  0  0  0  0  0  0
    7.3983   -0.7071   20.7937 N   0  0  0  0  0  0  0  0  0  0  0  0
    6.7011    0.0366   19.8329 C   0  0  0  0  0  0  0  0  0  0  0  0
    7.2050    0.0757   18.5092 C   0  0  0  0  0  0  0  0  0  0  0  0
    8.1345   -0.4544   18.2997 H   0  0  0  0  0  0  0  0  0  0  0  0
    6.6154    0.7222   17.4983 N   0  0  0  0  0  0  0  0  0  0  0  0
    5.4534    1.3514   17.7630 C   0  0  0  0  0  0  0  0  0  0  0  0
    4.9944    1.8782   16.9325 H   0  0  0  0  0  0  0  0  0  0  0  0
    4.8403    1.3333   19.0182 C   0  0  0  0  0  0  0  0  0  0  0  0
    3.9101    1.8637   19.1801 H   0  0  0  0  0  0  0  0  0  0  0  0
    5.4656    0.6541   20.0707 C   0  0  0  0  0  0  0  0  0  0  0  0
    5.0217    0.5836   21.0642 H   0  0  0  0  0  0  0  0  0  0  0  0
    7.3090    0.8743   22.6092 N   0  0  0  0  0  0  0  0  0  0  0  0
    7.1475    1.5869   21.9136 H   0  0  0  0  0  0  0  0  0  0  0  0
    8.1618    1.0623   23.1145 H   0  0  0  0  0  0  0  0  0  0  0  0
   10.0981   -3.3548   23.9656 C   0  0  0  0  0  0  0  0  0  0  0  0
   11.0931   -2.7614   23.0290 C   0  0  0  0  0  0  0  0  0  0  0  0
   10.7689   -2.8619   21.9952 H   0  0  0  0  0  0  0  0  0  0  0  0
   11.1691   -1.6881   23.2113 H   0  0  0  0  0  0  0  0  0  0  0  0
   12.0702   -3.2235   23.1321 H   0  0  0  0  0  0  0  0  0  0  0  0
   10.4385   -3.9936   25.0771 N   0  0  0  0  0  0  0  0  0  0  0  0
    9.2907   -4.3151   25.6816 N   0  0  0  0  0  0  0  0  0  0  0  0
    9.3314   -4.8240   26.5576 H   0  0  0  0  0  0  0  0  0  0  0  0
  1  2  1  0
  2  3  1  0
  3  4  2  0
  3  5  1  0
  5  6  2  0
  6  7  1  0
  7  8  1  0
  7  9  1  0
  7 10  1  0
 10 11  1  0
 10 12  1  0
 12 13  2  3
 13 14  1  0
 14 15  2  0
 15 16  1  0
 15 17  1  0
 17 18  2  0
 18 19  1  0
 18 20  1  0
 20 21  1  0
 20 22  2  0
 22 23  1  0
 12 24  1  0
 24 25  1  0
 24 26  1  0
  6 27  1  0
 27 28  1  0
 28 29  1  0
 28 30  1  0
 28 31  1  0
 27 32  2  0
 32 33  1  0
 33 34  1  0
 33  5  1  0
 22 14  1  0
M  END
>  <cnnaffinity>  (1) 
-4.94099

>  <filename>  (1) 
Cc1n[nH]c(C(=O)O)c1CNC(N)=Nc1cccnc1

$$$$
