
     RDKit          3D

 45 48  0  0  0  0  0  0  0  0999 V2000
    5.0702   -1.1822   27.3986 C   0  0  0  0  0  0  0  0  0  0  0  0
    5.3118   -0.1676   26.3459 C   0  0  0  0  0  0  0  0  0  0  0  0
    5.3588   -0.3697   25.0747 N   0  0  0  0  0  0  0  0  0  0  0  0
    5.6917    0.8561   24.5206 C   0  0  0  0  0  0  0  0  0  0  0  0
    5.8762    0.9535   23.0406 C   0  0  0  0  0  0  0  0  0  0  0  0
    7.0229    0.1014   22.6009 C   0  0  0  0  0  0  0  0  0  0  0  0
    8.2495    0.3050   23.0194 N   0  0  0  0  0  0  0  0  0  0  0  0
    8.9711   -0.6492   22.3747 C   0  0  0  0  0  0  0  0  0  0  0  0
   10.4391   -0.7099   22.4445 C   0  0  0  0  0  0  0  0  0  0  0  0
   11.1745   -1.5750   21.6134 C   0  0  0  0  0  0  0  0  0  0  0  0
   12.5658   -1.5613   21.6639 C   0  0  0  0  0  0  0  0  0  0  0  0
   13.2023   -0.6923   22.5425 C   0  0  0  0  0  0  0  0  0  0  0  0
   14.5471   -0.7010   22.5644 F   0  0  0  0  0  0  0  0  0  0  0  0
   12.5122    0.1425   23.4350 C   0  0  0  0  0  0  0  0  0  0  0  0
   13.2413    0.9906   24.4451 C   0  0  0  0  0  0  0  0  0  0  0  0
   13.7643    1.8215   23.9571 H   0  0  0  0  0  0  0  0  0  0  0  0
   13.9822    0.3895   24.9832 H   0  0  0  0  0  0  0  0  0  0  0  0
   12.5418    1.4039   25.1784 H   0  0  0  0  0  0  0  0  0  0  0  0
   11.1194    0.1300   23.3460 C   0  0  0  0  0  0  0  0  0  0  0  0
   10.5342    0.7778   23.9985 H   0  0  0  0  0  0  0  0  0  0  0  0
   13.1898   -2.2131   21.0614 H   0  0  0  0  0  0  0  0  0  0  0  0
   10.6436   -2.2318   20.9283 H   0  0  0  0  0  0  0  0  0  0  0  0
    8.2428   -1.4403   21.6007 N   0  0  0  0  0  0  0  0  0  0  0  0
    6.9886   -0.9478   21.7429 N   0  0  0  0  0  0  0  0  0  0  0  0
    5.9571   -1.3544   20.7906 C   0  0  0  0  0  0  0  0  0  0  0  0
    5.8316   -0.4090   19.6080 C   0  0  0  0  0  0  0  0  0  0  0  0
    4.7479    0.4592   19.4260 C   0  0  0  0  0  0  0  0  0  0  0  0
    4.7705    1.3431   18.3433 C   0  0  0  0  0  0  0  0  0  0  0  0
    5.8601    1.3110   17.4705 C   0  0  0  0  0  0  0  0  0  0  0  0
    6.9056    0.4836   17.6221 N   0  0  0  0  0  0  0  0  0  0  0  0
    6.8848   -0.3394   18.6774 C   0  0  0  0  0  0  0  0  0  0  0  0
    7.7586   -0.9839   18.8028 H   0  0  0  0  0  0  0  0  0  0  0  0
    5.9001    1.9771   16.6092 H   0  0  0  0  0  0  0  0  0  0  0  0
    3.9754    2.0630   18.1778 H   0  0  0  0  0  0  0  0  0  0  0  0
    3.8988    0.4547   20.1149 H   0  0  0  0  0  0  0  0  0  0  0  0
    5.0117   -1.4497   21.3254 H   0  0  0  0  0  0  0  0  0  0  0  0
    6.2457   -2.3580   20.4608 H   0  0  0  0  0  0  0  0  0  0  0  0
    4.9588    0.6590   22.5244 H   0  0  0  0  0  0  0  0  0  0  0  0
    6.0899    1.9843   22.7491 H   0  0  0  0  0  0  0  0  0  0  0  0
    5.8337    1.7534   25.5247 C   0  0  0  0  0  0  0  0  0  0  0  0
    5.5929    1.1045   26.7087 O   0  0  0  0  0  0  0  0  0  0  0  0
    6.1116    2.7941   25.5769 H   0  0  0  0  0  0  0  0  0  0  0  0
    4.4358   -1.9672   26.9906 H   0  0  0  0  0  0  0  0  0  0  0  0
    4.6107   -0.7449   28.2831 H   0  0  0  0  0  0  0  0  0  0  0  0
    6.0213   -1.6395   27.6857 H   0  0  0  0  0  0  0  0  0  0  0  0
  1  2  1  0
  2  3  2  0
  3  4  1  0
  4  5  1  0
  5  6  1  0
  6  7  2  0
  7  8  1  0
  8  9  1  0
  9 10  2  0
 10 11  1  0
 11 12  2  0
 12 13  1  0
 12 14  1  0
 14 15  1  0
 15 16  1  0
 15 17  1  0
 15 18  1  0
 14 19  2  0
 19 20  1  0
 11 21  1  0
 10 22  1  0
  8 23  2  0
 23 24  1  0
 24 25  1  0
 25 26  1  0
 26 27  2  0
 27 28  1  0
 28 29  2  0
 29 30  1  0
 30 31  2  0
 31 32  1  0
 29 33  1  0
 28 34  1  0
 27 35  1  0
 25 36  1  0
 25 37  1  0
  5 38  1  0
  5 39  1  0
  4 40  2  0
 40 41  1  0
 40 42  1  0
  1 43  1  0
  1 44  1  0
  1 45  1  0
 41  2  1  0
 24  6  1  0
 31 26  1  0
 19  9  1  0
M  END
>  <cnnaffinity>  (1) 
-6.22544

>  <filename>  (1) 
Cc1nc(Cc2nc(-c3ccc(F)c(C)c3)nn2Cc2cccnc2)co1

$$$$
