
     RDKit          3D

 31 32  0  0  0  0  0  0  0  0999 V2000
   11.1324    3.0919   23.0625 H   0  0  0  0  0  0  0  0  0  0  0  0
   10.6069    2.6415   23.7455 O   0  0  0  0  0  0  0  0  0  0  0  0
   10.4319    1.4699   23.1100 C   0  0  0  0  0  0  0  0  0  0  0  0
   10.9331    1.3171   22.0190 O   0  0  0  0  0  0  0  0  0  0  0  0
    9.6287    0.4965   23.8785 C   0  0  0  0  0  0  0  0  0  0  0  0
    9.1990   -0.7772   23.5194 C   0  0  0  0  0  0  0  0  0  0  0  0
    9.4056   -1.4847   22.2034 C   0  0  0  0  0  0  0  0  0  0  0  0
    9.0380   -2.5161   22.2942 H   0  0  0  0  0  0  0  0  0  0  0  0
   10.4778   -1.5379   21.9923 H   0  0  0  0  0  0  0  0  0  0  0  0
    8.6981   -0.7994   21.0622 C   0  0  0  0  0  0  0  0  0  0  0  0
    9.2827   -0.2716   20.3159 H   0  0  0  0  0  0  0  0  0  0  0  0
    7.3780   -0.6969   20.9566 C   0  0  0  0  0  0  0  0  0  0  0  0
    6.5689   -1.2306   21.9099 F   0  0  0  0  0  0  0  0  0  0  0  0
    6.6326   -0.0014   19.9028 C   0  0  0  0  0  0  0  0  0  0  0  0
    7.1594    0.0601   18.6024 C   0  0  0  0  0  0  0  0  0  0  0  0
    8.1079   -0.4294   18.3749 H   0  0  0  0  0  0  0  0  0  0  0  0
    6.5605    0.6763   17.5809 N   0  0  0  0  0  0  0  0  0  0  0  0
    5.3970    1.2954   17.8398 C   0  0  0  0  0  0  0  0  0  0  0  0
    4.9287    1.7872   16.9911 H   0  0  0  0  0  0  0  0  0  0  0  0
    4.7956    1.3116   19.1037 C   0  0  0  0  0  0  0  0  0  0  0  0
    3.8689    1.8502   19.2467 H   0  0  0  0  0  0  0  0  0  0  0  0
    5.4125    0.6430   20.1578 C   0  0  0  0  0  0  0  0  0  0  0  0
    4.9909    0.6319   21.1629 H   0  0  0  0  0  0  0  0  0  0  0  0
    8.4915   -1.2443   24.6473 C   0  0  0  0  0  0  0  0  0  0  0  0
    7.8490   -2.5875   24.7956 C   0  0  0  0  0  0  0  0  0  0  0  0
    8.6057   -3.3773   24.7388 H   0  0  0  0  0  0  0  0  0  0  0  0
    7.3293   -2.6773   25.7505 H   0  0  0  0  0  0  0  0  0  0  0  0
    7.1384   -2.7565   23.9803 H   0  0  0  0  0  0  0  0  0  0  0  0
    8.4828   -0.3376   25.6148 N   0  0  0  0  0  0  0  0  0  0  0  0
    9.1623    0.7091   25.1440 N   0  0  0  0  0  0  0  0  0  0  0  0
    9.2905    1.5077   25.7575 H   0  0  0  0  0  0  0  0  0  0  0  0
  1  2  1  0
  2  3  1  0
  3  4  2  0
  3  5  1  0
  5  6  2  0
  6  7  1  0
  7  8  1  0
  7  9  1  0
  7 10  1  0
 10 11  1  0
 10 12  2  3
 12 13  1  0
 12 14  1  0
 14 15  2  0
 15 16  1  0
 15 17  1  0
 17 18  2  0
 18 19  1  0
 18 20  1  0
 20 21  1  0
 20 22  2  0
 22 23  1  0
  6 24  1  0
 24 25  1  0
 25 26  1  0
 25 27  1  0
 25 28  1  0
 24 29  2  0
 29 30  1  0
 30 31  1  0
 30  5  1  0
 22 14  1  0
M  END
>  <cnnaffinity>  (1) 
-4.78842

>  <filename>  (1) 
Cc1n[nH]c(C(=O)O)c1CC=C(F)c1cccnc1

$$$$
