
     RDKit          3D

 42 45  0  0  0  0  0  0  0  0999 V2000
    5.3961   -1.1923   26.7606 C   0  0  0  0  0  0  0  0  0  0  0  0
    5.9543   -0.0563   25.9832 C   0  0  0  0  0  0  0  0  0  0  0  0
    5.8353    0.2034   24.7220 N   0  0  0  0  0  0  0  0  0  0  0  0
    6.5900    1.3482   24.5239 C   0  0  0  0  0  0  0  0  0  0  0  0
    6.7739    1.8179   23.1183 C   0  0  0  0  0  0  0  0  0  0  0  0
    7.7873    0.9227   22.4797 C   0  0  0  0  0  0  0  0  0  0  0  0
    9.0693    1.0507   22.7412 N   0  0  0  0  0  0  0  0  0  0  0  0
    9.6337   -0.0195   22.1209 C   0  0  0  0  0  0  0  0  0  0  0  0
   11.1005   -0.2659   22.1609 C   0  0  0  0  0  0  0  0  0  0  0  0
   11.9637    0.6849   22.7526 C   0  0  0  0  0  0  0  0  0  0  0  0
   13.3214    0.4052   22.8602 C   0  0  0  0  0  0  0  0  0  0  0  0
   14.1216    1.2811   23.4850 F   0  0  0  0  0  0  0  0  0  0  0  0
   13.8694   -0.7552   22.3229 C   0  0  0  0  0  0  0  0  0  0  0  0
   13.0273   -1.6552   21.6692 C   0  0  0  0  0  0  0  0  0  0  0  0
   11.6457   -1.4440   21.6082 C   0  0  0  0  0  0  0  0  0  0  0  0
   10.9723   -2.1600   21.1435 H   0  0  0  0  0  0  0  0  0  0  0  0
   13.4708   -2.5403   21.2283 H   0  0  0  0  0  0  0  0  0  0  0  0
   14.9288   -0.9521   22.4114 H   0  0  0  0  0  0  0  0  0  0  0  0
   11.6004    1.6371   23.1267 H   0  0  0  0  0  0  0  0  0  0  0  0
    8.7538   -0.7988   21.5016 N   0  0  0  0  0  0  0  0  0  0  0  0
    7.5710   -0.1866   21.7444 N   0  0  0  0  0  0  0  0  0  0  0  0
    6.3277   -0.6620   21.1417 C   0  0  0  0  0  0  0  0  0  0  0  0
    5.9575    0.0560   19.8578 C   0  0  0  0  0  0  0  0  0  0  0  0
    4.7792    0.7962   19.7146 C   0  0  0  0  0  0  0  0  0  0  0  0
    4.5801    1.5246   18.5396 C   0  0  0  0  0  0  0  0  0  0  0  0
    5.5603    1.4751   17.5474 C   0  0  0  0  0  0  0  0  0  0  0  0
    6.6688    0.7262   17.6377 N   0  0  0  0  0  0  0  0  0  0  0  0
    6.8481    0.0368   18.7705 C   0  0  0  0  0  0  0  0  0  0  0  0
    7.7542   -0.5656   18.8249 H   0  0  0  0  0  0  0  0  0  0  0  0
    5.4575    2.0627   16.6374 H   0  0  0  0  0  0  0  0  0  0  0  0
    3.6979    2.1371   18.3872 H   0  0  0  0  0  0  0  0  0  0  0  0
    4.0257    0.8125   20.5059 H   0  0  0  0  0  0  0  0  0  0  0  0
    6.4320   -1.7413   20.9970 H   0  0  0  0  0  0  0  0  0  0  0  0
    5.5479   -0.5161   21.8877 H   0  0  0  0  0  0  0  0  0  0  0  0
    7.1713    2.8337   23.0872 H   0  0  0  0  0  0  0  0  0  0  0  0
    5.8080    1.7971   22.6052 H   0  0  0  0  0  0  0  0  0  0  0  0
    7.1661    1.7030   25.6912 C   0  0  0  0  0  0  0  0  0  0  0  0
    6.7464    0.8177   26.6479 O   0  0  0  0  0  0  0  0  0  0  0  0
    7.9023    2.4402   25.9803 H   0  0  0  0  0  0  0  0  0  0  0  0
    4.4003   -1.4431   26.3941 H   0  0  0  0  0  0  0  0  0  0  0  0
    6.0364   -2.0735   26.6469 H   0  0  0  0  0  0  0  0  0  0  0  0
    5.3601   -0.9257   27.8163 H   0  0  0  0  0  0  0  0  0  0  0  0
  1  2  1  0
  2  3  2  0
  3  4  1  0
  4  5  1  0
  5  6  1  0
  6  7  2  0
  7  8  1  0
  8  9  1  0
  9 10  2  0
 10 11  1  0
 11 12  1  0
 11 13  2  0
 13 14  1  0
 14 15  2  0
 15 16  1  0
 14 17  1  0
 13 18  1  0
 10 19  1  0
  8 20  2  0
 20 21  1  0
 21 22  1  0
 22 23  1  0
 23 24  2  0
 24 25  1  0
 25 26  2  0
 26 27  1  0
 27 28  2  0
 28 29  1  0
 26 30  1  0
 25 31  1  0
 24 32  1  0
 22 33  1  0
 22 34  1  0
  5 35  1  0
  5 36  1  0
  4 37  2  0
 37 38  1  0
 37 39  1  0
  1 40  1  0
  1 41  1  0
  1 42  1  0
 38  2  1  0
 21  6  1  0
 28 23  1  0
 15  9  1  0
M  END
>  <cnnaffinity>  (1) 
-6.13405

>  <filename>  (1) 
Cc1nc(Cc2nc(-c3cccc(F)c3)nn2Cc2cccnc2)co1

$$$$
