
     RDKit          3D

 43 46  0  0  0  0  0  0  0  0999 V2000
   11.6159    2.8798   23.7504 C   0  0  0  0  0  0  0  0  0  0  0  0
   10.2702    2.3147   24.0862 C   0  0  0  0  0  0  0  0  0  0  0  0
    9.3182    2.1461   23.2204 N   0  0  0  0  0  0  0  0  0  0  0  0
    8.1841    1.6266   23.8057 C   0  0  0  0  0  0  0  0  0  0  0  0
    7.0569    1.2778   22.8735 C   0  0  0  0  0  0  0  0  0  0  0  0
    7.2934   -0.0804   22.2907 C   0  0  0  0  0  0  0  0  0  0  0  0
    7.7911   -1.0852   22.9845 N   0  0  0  0  0  0  0  0  0  0  0  0
    8.0516   -2.0229   22.0457 C   0  0  0  0  0  0  0  0  0  0  0  0
    8.8178   -3.2824   22.3212 C   0  0  0  0  0  0  0  0  0  0  0  0
   10.0259   -3.0000   23.2708 C   0  0  0  0  0  0  0  0  0  0  0  0
    9.7329   -3.3190   24.7189 C   0  0  0  0  0  0  0  0  0  0  0  0
    8.5324   -3.6759   25.1774 C   0  0  0  0  0  0  0  0  0  0  0  0
    7.4009   -4.0993   24.2709 C   0  0  0  0  0  0  0  0  0  0  0  0
    7.9338   -4.4323   22.8688 C   0  0  0  0  0  0  0  0  0  0  0  0
    7.1253   -4.6746   22.1703 H   0  0  0  0  0  0  0  0  0  0  0  0
    8.5660   -5.3322   22.9271 H   0  0  0  0  0  0  0  0  0  0  0  0
    6.6546   -3.2916   24.2429 H   0  0  0  0  0  0  0  0  0  0  0  0
    6.8863   -4.9751   24.6844 H   0  0  0  0  0  0  0  0  0  0  0  0
    8.3253   -3.6320   26.2449 H   0  0  0  0  0  0  0  0  0  0  0  0
   10.5747   -3.2679   25.3999 H   0  0  0  0  0  0  0  0  0  0  0  0
   10.9202   -3.5589   22.9713 H   0  0  0  0  0  0  0  0  0  0  0  0
   10.3268   -1.9427   23.2164 H   0  0  0  0  0  0  0  0  0  0  0  0
    9.1570   -3.5532   21.3240 H   0  0  0  0  0  0  0  0  0  0  0  0
    7.6849   -1.6977   20.8229 N   0  0  0  0  0  0  0  0  0  0  0  0
    7.1401   -0.4626   20.9837 N   0  0  0  0  0  0  0  0  0  0  0  0
    6.5179    0.1709   19.8824 C   0  0  0  0  0  0  0  0  0  0  0  0
    5.3139    0.8627   20.0366 C   0  0  0  0  0  0  0  0  0  0  0  0
    4.7431    1.4537   18.9059 C   0  0  0  0  0  0  0  0  0  0  0  0
    5.4039    1.3427   17.6783 C   0  0  0  0  0  0  0  0  0  0  0  0
    6.5480    0.6515   17.5209 N   0  0  0  0  0  0  0  0  0  0  0  0
    7.0782    0.0606   18.5961 C   0  0  0  0  0  0  0  0  0  0  0  0
    7.9782   -0.5301   18.4346 H   0  0  0  0  0  0  0  0  0  0  0  0
    4.9949    1.8117   16.7847 H   0  0  0  0  0  0  0  0  0  0  0  0
    3.8113    2.0049   18.9788 H   0  0  0  0  0  0  0  0  0  0  0  0
    4.8370    0.9133   21.0147 H   0  0  0  0  0  0  0  0  0  0  0  0
    6.0910    1.2920   23.3902 H   0  0  0  0  0  0  0  0  0  0  0  0
    7.0302    2.0287   22.0789 H   0  0  0  0  0  0  0  0  0  0  0  0
    8.2747    1.3890   25.1381 C   0  0  0  0  0  0  0  0  0  0  0  0
    9.8488    1.8185   25.7029 S   0  0  0  0  0  0  0  0  0  0  0  0
    7.5393    0.9537   25.8029 H   0  0  0  0  0  0  0  0  0  0  0  0
   11.6154    3.2077   22.7098 H   0  0  0  0  0  0  0  0  0  0  0  0
   11.8655    3.7363   24.3824 H   0  0  0  0  0  0  0  0  0  0  0  0
   12.3999    2.1272   23.8791 H   0  0  0  0  0  0  0  0  0  0  0  0
  1  2  1  0
  2  3  2  0
  3  4  1  0
  4  5  1  0
  5  6  1  0
  6  7  2  0
  7  8  1  0
  8  9  1  0
  9 10  1  0
 10 11  1  0
 11 12  2  0
 12 13  1  0
 13 14  1  0
 14 15  1  0
 14 16  1  0
 13 17  1  0
 13 18  1  0
 12 19  1  0
 11 20  1  0
 10 21  1  0
 10 22  1  0
  9 23  1  0
  8 24  2  0
 24 25  1  0
 25 26  1  0
 26 27  2  0
 27 28  1  0
 28 29  2  0
 29 30  1  0
 30 31  2  0
 31 32  1  0
 29 33  1  0
 28 34  1  0
 27 35  1  0
  5 36  1  0
  5 37  1  0
  4 38  2  0
 38 39  1  0
 38 40  1  0
  1 41  1  0
  1 42  1  0
  1 43  1  0
 39  2  1  0
 25  6  1  0
 31 26  1  0
 14  9  1  0
M  END
>  <cnnaffinity>  (1) 
-6.65584

>  <filename>  (1) 
Cc1nc(Cc2nc(C3CC=CCC3)nn2-c2cccnc2)cs1

$$$$
