
     RDKit          3D

 42 45  0  0  0  0  0  0  0  0999 V2000
   11.1839   -1.5472   21.7156 C   0  0  0  0  0  0  0  0  0  0  0  0
   11.7920   -0.1960   21.8606 C   0  0  0  0  0  0  0  0  0  0  0  0
   12.9785   -0.0633   22.3947 N   0  0  0  0  0  0  0  0  0  0  0  0
   13.2285    1.2915   22.4448 O   0  0  0  0  0  0  0  0  0  0  0  0
   12.1772    1.9377   21.9325 C   0  0  0  0  0  0  0  0  0  0  0  0
   11.2147    1.0727   21.5258 C   0  0  0  0  0  0  0  0  0  0  0  0
    9.8112    1.3861   21.0412 C   0  0  0  0  0  0  0  0  0  0  0  0
    8.7590    1.1663   22.0824 C   0  0  0  0  0  0  0  0  0  0  0  0
    8.7050    1.8831   23.1833 N   0  0  0  0  0  0  0  0  0  0  0  0
    7.6582    1.3442   23.8584 C   0  0  0  0  0  0  0  0  0  0  0  0
    7.2222    1.8643   25.1672 C   0  0  0  0  0  0  0  0  0  0  0  0
    7.9580    2.8948   25.7852 C   0  0  0  0  0  0  0  0  0  0  0  0
    7.5622    3.3853   27.0283 C   0  0  0  0  0  0  0  0  0  0  0  0
    6.4350    2.8533   27.6652 C   0  0  0  0  0  0  0  0  0  0  0  0
    5.6998    1.8307   27.0533 C   0  0  0  0  0  0  0  0  0  0  0  0
    6.0853    1.3344   25.8083 C   0  0  0  0  0  0  0  0  0  0  0  0
    5.5252    0.5324   25.3268 H   0  0  0  0  0  0  0  0  0  0  0  0
    4.8261    1.4145   27.5469 H   0  0  0  0  0  0  0  0  0  0  0  0
    6.1313    3.2345   28.6362 H   0  0  0  0  0  0  0  0  0  0  0  0
    8.1339    4.1808   27.4975 H   0  0  0  0  0  0  0  0  0  0  0  0
    8.8385    3.2930   25.2813 H   0  0  0  0  0  0  0  0  0  0  0  0
    7.0712    0.3395   23.2256 N   0  0  0  0  0  0  0  0  0  0  0  0
    7.7923    0.2194   22.0882 N   0  0  0  0  0  0  0  0  0  0  0  0
    7.3659   -0.6990   21.0279 C   0  0  0  0  0  0  0  0  0  0  0  0
    6.6472   -0.0082   19.8776 C   0  0  0  0  0  0  0  0  0  0  0  0
    5.4350    0.6526   20.1232 C   0  0  0  0  0  0  0  0  0  0  0  0
    4.8024    1.3132   19.0694 C   0  0  0  0  0  0  0  0  0  0  0  0
    5.4064    1.2974   17.8101 C   0  0  0  0  0  0  0  0  0  0  0  0
    6.5554    0.6585   17.5475 N   0  0  0  0  0  0  0  0  0  0  0  0
    7.1518    0.0252   18.5670 C   0  0  0  0  0  0  0  0  0  0  0  0
    8.0914   -0.4737   18.3155 H   0  0  0  0  0  0  0  0  0  0  0  0
    4.9461    1.8220   16.9760 H   0  0  0  0  0  0  0  0  0  0  0  0
    3.8699    1.8480   19.2112 H   0  0  0  0  0  0  0  0  0  0  0  0
    5.0129    0.6698   21.1308 H   0  0  0  0  0  0  0  0  0  0  0  0
    8.2418   -1.2614   20.6825 H   0  0  0  0  0  0  0  0  0  0  0  0
    6.7034   -1.4197   21.5188 H   0  0  0  0  0  0  0  0  0  0  0  0
    9.7470    2.4480   20.7826 H   0  0  0  0  0  0  0  0  0  0  0  0
    9.5539    0.8174   20.1428 H   0  0  0  0  0  0  0  0  0  0  0  0
   12.2337    3.0166   21.9197 H   0  0  0  0  0  0  0  0  0  0  0  0
   10.5018   -1.7355   22.5505 H   0  0  0  0  0  0  0  0  0  0  0  0
   10.6195   -1.6136   20.7845 H   0  0  0  0  0  0  0  0  0  0  0  0
   11.9455   -2.3274   21.7161 H   0  0  0  0  0  0  0  0  0  0  0  0
  1  2  1  0
  2  3  2  0
  3  4  1  0
  4  5  1  0
  5  6  2  0
  6  7  1  0
  7  8  1  0
  8  9  2  0
  9 10  1  0
 10 11  1  0
 11 12  2  0
 12 13  1  0
 13 14  2  0
 14 15  1  0
 15 16  2  0
 16 17  1  0
 15 18  1  0
 14 19  1  0
 13 20  1  0
 12 21  1  0
 10 22  2  0
 22 23  1  0
 23 24  1  0
 24 25  1  0
 25 26  2  0
 26 27  1  0
 27 28  2  0
 28 29  1  0
 29 30  2  0
 30 31  1  0
 28 32  1  0
 27 33  1  0
 26 34  1  0
 24 35  1  0
 24 36  1  0
  7 37  1  0
  7 38  1  0
  5 39  1  0
  1 40  1  0
  1 41  1  0
  1 42  1  0
  6  2  1  0
 23  8  1  0
 30 25  1  0
 16 11  1  0
M  END
>  <cnnaffinity>  (1) 
-5.90514

>  <filename>  (1) 
Cc1nocc1Cc1nc(-c2ccccc2)nn1Cc1cccnc1

$$$$
