
     RDKit          3D

 42 45  0  0  0  0  0  0  0  0999 V2000
   13.7768    0.3208   23.3064 C   0  0  0  0  0  0  0  0  0  0  0  0
   12.5073    0.8351   22.7086 C   0  0  0  0  0  0  0  0  0  0  0  0
   11.8244    0.2303   21.7896 N   0  0  0  0  0  0  0  0  0  0  0  0
   10.5897    0.8118   21.6217 C   0  0  0  0  0  0  0  0  0  0  0  0
    9.6229    0.1833   20.6782 C   0  0  0  0  0  0  0  0  0  0  0  0
    8.5741   -0.6103   21.3732 C   0  0  0  0  0  0  0  0  0  0  0  0
    8.7711   -1.3983   22.4023 N   0  0  0  0  0  0  0  0  0  0  0  0
    7.5533   -1.9899   22.5812 C   0  0  0  0  0  0  0  0  0  0  0  0
    7.3474   -2.9989   23.6718 C   0  0  0  0  0  0  0  0  0  0  0  0
    7.7329   -2.4390   25.0558 C   0  0  0  0  0  0  0  0  0  0  0  0
    8.0198   -3.6614   25.9394 C   0  0  0  0  0  0  0  0  0  0  0  0
    8.3408   -4.8270   24.9739 C   0  0  0  0  0  0  0  0  0  0  0  0
    8.2512   -4.2472   23.5513 C   0  0  0  0  0  0  0  0  0  0  0  0
    9.2464   -3.9250   23.2220 H   0  0  0  0  0  0  0  0  0  0  0  0
    7.8727   -4.9708   22.8204 H   0  0  0  0  0  0  0  0  0  0  0  0
    9.3309   -5.2568   25.1632 H   0  0  0  0  0  0  0  0  0  0  0  0
    7.6144   -5.6352   25.1110 H   0  0  0  0  0  0  0  0  0  0  0  0
    7.1463   -3.9080   26.5517 H   0  0  0  0  0  0  0  0  0  0  0  0
    8.8464   -3.4586   26.6296 H   0  0  0  0  0  0  0  0  0  0  0  0
    8.6476   -1.8458   24.9380 H   0  0  0  0  0  0  0  0  0  0  0  0
    6.9561   -1.7815   25.4610 H   0  0  0  0  0  0  0  0  0  0  0  0
    6.2922   -3.2979   23.6574 H   0  0  0  0  0  0  0  0  0  0  0  0
    6.6252   -1.5994   21.7345 N   0  0  0  0  0  0  0  0  0  0  0  0
    7.2858   -0.7184   20.9366 N   0  0  0  0  0  0  0  0  0  0  0  0
    6.6123   -0.0377   19.8811 C   0  0  0  0  0  0  0  0  0  0  0  0
    5.4052    0.6225   20.1319 C   0  0  0  0  0  0  0  0  0  0  0  0
    4.7976    1.3146   19.0835 C   0  0  0  0  0  0  0  0  0  0  0  0
    5.4021    1.3068   17.8207 C   0  0  0  0  0  0  0  0  0  0  0  0
    6.5444    0.6534   17.5638 N   0  0  0  0  0  0  0  0  0  0  0  0
    7.1329    0.0025   18.5730 C   0  0  0  0  0  0  0  0  0  0  0  0
    8.0752   -0.4913   18.3362 H   0  0  0  0  0  0  0  0  0  0  0  0
    4.9503    1.8382   16.9866 H   0  0  0  0  0  0  0  0  0  0  0  0
    3.8737    1.8613   19.2335 H   0  0  0  0  0  0  0  0  0  0  0  0
    4.9780    0.5953   21.1354 H   0  0  0  0  0  0  0  0  0  0  0  0
   10.1941   -0.5168   20.0648 H   0  0  0  0  0  0  0  0  0  0  0  0
    9.1549    0.9409   20.0446 H   0  0  0  0  0  0  0  0  0  0  0  0
   10.3351    1.8889   22.4052 C   0  0  0  0  0  0  0  0  0  0  0  0
   11.7072    2.2232   23.3933 S   0  0  0  0  0  0  0  0  0  0  0  0
    9.4110    2.4442   22.4793 H   0  0  0  0  0  0  0  0  0  0  0  0
   13.5627   -0.0501   24.3130 H   0  0  0  0  0  0  0  0  0  0  0  0
   14.5188    1.1107   23.4052 H   0  0  0  0  0  0  0  0  0  0  0  0
   14.1782   -0.4963   22.7055 H   0  0  0  0  0  0  0  0  0  0  0  0
  1  2  1  0
  2  3  2  0
  3  4  1  0
  4  5  1  0
  5  6  1  0
  6  7  2  0
  7  8  1  0
  8  9  1  0
  9 10  1  0
 10 11  1  0
 11 12  1  0
 12 13  1  0
 13 14  1  0
 13 15  1  0
 12 16  1  0
 12 17  1  0
 11 18  1  0
 11 19  1  0
 10 20  1  0
 10 21  1  0
  9 22  1  0
  8 23  2  0
 23 24  1  0
 24 25  1  0
 25 26  2  0
 26 27  1  0
 27 28  2  0
 28 29  1  0
 29 30  2  0
 30 31  1  0
 28 32  1  0
 27 33  1  0
 26 34  1  0
  5 35  1  0
  5 36  1  0
  4 37  2  0
 37 38  1  0
 37 39  1  0
  1 40  1  0
  1 41  1  0
  1 42  1  0
 38  2  1  0
 24  6  1  0
 30 25  1  0
 13  9  1  0
M  END
>  <cnnaffinity>  (1) 
-6.48138

>  <filename>  (1) 
Cc1nc(Cc2nc(C3CCCC3)nn2-c2cccnc2)cs1

$$$$
