
     RDKit          3D

 42 45  0  0  0  0  0  0  0  0999 V2000
    7.3677   -0.1484   27.8608 C   0  0  0  0  0  0  0  0  0  0  0  0
    6.7241    0.3973   26.6320 C   0  0  0  0  0  0  0  0  0  0  0  0
    5.5475    0.0606   26.1924 N   0  0  0  0  0  0  0  0  0  0  0  0
    5.3213    0.6217   24.9568 C   0  0  0  0  0  0  0  0  0  0  0  0
    6.3287    1.3696   24.4290 C   0  0  0  0  0  0  0  0  0  0  0  0
    6.5690    1.7887   22.9904 C   0  0  0  0  0  0  0  0  0  0  0  0
    7.6268    0.9288   22.3447 C   0  0  0  0  0  0  0  0  0  0  0  0
    8.9133    1.1380   22.5238 N   0  0  0  0  0  0  0  0  0  0  0  0
    9.4936    0.0152   22.0332 C   0  0  0  0  0  0  0  0  0  0  0  0
   10.9595   -0.2101   22.0760 C   0  0  0  0  0  0  0  0  0  0  0  0
   11.5391   -1.2246   21.2936 C   0  0  0  0  0  0  0  0  0  0  0  0
   12.9189   -1.3788   21.2929 C   0  0  0  0  0  0  0  0  0  0  0  0
   13.5149   -2.2555   20.4696 F   0  0  0  0  0  0  0  0  0  0  0  0
   13.7342   -0.6245   22.1283 C   0  0  0  0  0  0  0  0  0  0  0  0
   13.1585    0.3407   22.9544 C   0  0  0  0  0  0  0  0  0  0  0  0
   11.7800    0.5758   22.9105 C   0  0  0  0  0  0  0  0  0  0  0  0
   11.3282    1.3576   23.5129 H   0  0  0  0  0  0  0  0  0  0  0  0
   13.7937    0.9082   23.6301 H   0  0  0  0  0  0  0  0  0  0  0  0
   14.7981   -0.8076   22.1066 H   0  0  0  0  0  0  0  0  0  0  0  0
   10.9060   -1.9039   20.7408 H   0  0  0  0  0  0  0  0  0  0  0  0
    8.6333   -0.8538   21.5266 N   0  0  0  0  0  0  0  0  0  0  0  0
    7.4308   -0.2652   21.7362 N   0  0  0  0  0  0  0  0  0  0  0  0
    6.2575   -0.7782   21.0293 C   0  0  0  0  0  0  0  0  0  0  0  0
    5.9296    0.0259   19.7908 C   0  0  0  0  0  0  0  0  0  0  0  0
    4.7534    0.7698   19.6575 C   0  0  0  0  0  0  0  0  0  0  0  0
    4.5622    1.5248   18.4988 C   0  0  0  0  0  0  0  0  0  0  0  0
    5.5679    1.5347   17.5308 C   0  0  0  0  0  0  0  0  0  0  0  0
    6.6998    0.8209   17.6355 N   0  0  0  0  0  0  0  0  0  0  0  0
    6.8672    0.0985   18.7478 C   0  0  0  0  0  0  0  0  0  0  0  0
    7.8054   -0.4531   18.8249 H   0  0  0  0  0  0  0  0  0  0  0  0
    5.4664    2.1511   16.6385 H   0  0  0  0  0  0  0  0  0  0  0  0
    3.6593    2.1041   18.3392 H   0  0  0  0  0  0  0  0  0  0  0  0
    4.0067    0.7750   20.4541 H   0  0  0  0  0  0  0  0  0  0  0  0
    5.4066   -0.7702   21.7047 H   0  0  0  0  0  0  0  0  0  0  0  0
    6.4863   -1.8223   20.7879 H   0  0  0  0  0  0  0  0  0  0  0  0
    6.9410    2.8168   22.9400 H   0  0  0  0  0  0  0  0  0  0  0  0
    5.6305    1.7519   22.4273 H   0  0  0  0  0  0  0  0  0  0  0  0
    7.5815    1.5246   25.6220 S   0  0  0  0  0  0  0  0  0  0  0  0
    4.3811    0.4185   24.4591 H   0  0  0  0  0  0  0  0  0  0  0  0
    7.5879    0.6431   28.5851 H   0  0  0  0  0  0  0  0  0  0  0  0
    6.6990   -0.8807   28.3168 H   0  0  0  0  0  0  0  0  0  0  0  0
    8.3130   -0.6397   27.5998 H   0  0  0  0  0  0  0  0  0  0  0  0
  1  2  1  0
  2  3  2  0
  3  4  1  0
  4  5  2  0
  5  6  1  0
  6  7  1  0
  7  8  2  0
  8  9  1  0
  9 10  1  0
 10 11  2  0
 11 12  1  0
 12 13  1  0
 12 14  2  0
 14 15  1  0
 15 16  2  0
 16 17  1  0
 15 18  1  0
 14 19  1  0
 11 20  1  0
  9 21  2  0
 21 22  1  0
 22 23  1  0
 23 24  1  0
 24 25  2  0
 25 26  1  0
 26 27  2  0
 27 28  1  0
 28 29  2  0
 29 30  1  0
 27 31  1  0
 26 32  1  0
 25 33  1  0
 23 34  1  0
 23 35  1  0
  6 36  1  0
  6 37  1  0
  5 38  1  0
  4 39  1  0
  1 40  1  0
  1 41  1  0
  1 42  1  0
 38  2  1  0
 22  7  1  0
 29 24  1  0
 16 10  1  0
M  END
>  <cnnaffinity>  (1) 
-6.28155

>  <filename>  (1) 
Cc1ncc(Cc2nc(-c3cccc(F)c3)nn2Cc2cccnc2)s1

$$$$
