
     RDKit          3D

 36 38  0  0  0  0  0  0  0  0999 V2000
    8.5947   -3.5372   22.2462 C   0  0  0  0  0  0  0  0  0  0  0  0
    8.0712   -2.1740   21.9568 C   0  0  0  0  0  0  0  0  0  0  0  0
    7.6853   -1.8218   20.7486 N   0  0  0  0  0  0  0  0  0  0  0  0
    7.2044   -0.5710   20.9348 N   0  0  0  0  0  0  0  0  0  0  0  0
    6.5449    0.0910   19.8704 C   0  0  0  0  0  0  0  0  0  0  0  0
    5.3278    0.7534   20.0511 C   0  0  0  0  0  0  0  0  0  0  0  0
    4.7568    1.3846   18.9430 C   0  0  0  0  0  0  0  0  0  0  0  0
    5.4256    1.3321   17.7153 C   0  0  0  0  0  0  0  0  0  0  0  0
    6.5817    0.6686   17.5343 N   0  0  0  0  0  0  0  0  0  0  0  0
    7.1150    0.0462   18.5874 C   0  0  0  0  0  0  0  0  0  0  0  0
    8.0328   -0.5185   18.4309 H   0  0  0  0  0  0  0  0  0  0  0  0
    5.0044    1.8138   16.8371 H   0  0  0  0  0  0  0  0  0  0  0  0
    3.8149    1.9125   19.0248 H   0  0  0  0  0  0  0  0  0  0  0  0
    4.8449    0.7590   21.0296 H   0  0  0  0  0  0  0  0  0  0  0  0
    7.4138   -0.1886   22.2306 C   0  0  0  0  0  0  0  0  0  0  0  0
    7.1985    1.2016   22.7786 C   0  0  0  0  0  0  0  0  0  0  0  0
    8.4547    1.6956   23.4959 C   0  0  0  0  0  0  0  0  0  0  0  0
    9.5450    2.1761   22.7530 C   0  0  0  0  0  0  0  0  0  0  0  0
    9.3770    2.3990   21.0389 Cl  0  0  0  0  0  0  0  0  0  0  0  0
   10.7989    2.4197   23.3218 C   0  0  0  0  0  0  0  0  0  0  0  0
   10.9649    2.1640   24.6792 C   0  0  0  0  0  0  0  0  0  0  0  0
    9.8986    1.6846   25.4494 C   0  0  0  0  0  0  0  0  0  0  0  0
    8.6392    1.4676   24.8781 C   0  0  0  0  0  0  0  0  0  0  0  0
    7.5095    0.8875   25.6913 C   0  0  0  0  0  0  0  0  0  0  0  0
    6.6095    1.5142   25.6448 H   0  0  0  0  0  0  0  0  0  0  0  0
    7.7864    0.7746   26.7407 H   0  0  0  0  0  0  0  0  0  0  0  0
    7.2642   -0.1037   25.2877 H   0  0  0  0  0  0  0  0  0  0  0  0
   10.0315    1.4349   26.4966 H   0  0  0  0  0  0  0  0  0  0  0  0
   11.9369    2.3191   25.1346 H   0  0  0  0  0  0  0  0  0  0  0  0
   11.6322    2.7337   22.6903 H   0  0  0  0  0  0  0  0  0  0  0  0
    6.9289    1.8907   21.9745 H   0  0  0  0  0  0  0  0  0  0  0  0
    6.3438    1.1758   23.4617 H   0  0  0  0  0  0  0  0  0  0  0  0
    7.9197   -1.2074   22.9033 N   0  0  0  0  0  0  0  0  0  0  0  0
    8.5189   -4.1415   21.3405 H   0  0  0  0  0  0  0  0  0  0  0  0
    8.0023   -4.0076   23.0321 H   0  0  0  0  0  0  0  0  0  0  0  0
    9.6324   -3.4924   22.5901 H   0  0  0  0  0  0  0  0  0  0  0  0
  1  2  1  0
  2  3  2  0
  3  4  1  0
  4  5  1  0
  5  6  2  0
  6  7  1  0
  7  8  2  0
  8  9  1  0
  9 10  2  0
 10 11  1  0
  8 12  1  0
  7 13  1  0
  6 14  1  0
  4 15  1  0
 15 16  1  0
 16 17  1  0
 17 18  2  0
 18 19  1  0
 18 20  1  0
 20 21  2  0
 21 22  1  0
 22 23  2  0
 23 24  1  0
 24 25  1  0
 24 26  1  0
 24 27  1  0
 22 28  1  0
 21 29  1  0
 20 30  1  0
 16 31  1  0
 16 32  1  0
 15 33  2  0
  1 34  1  0
  1 35  1  0
  1 36  1  0
 33  2  1  0
 10  5  1  0
 23 17  1  0
M  END
>  <cnnaffinity>  (1) 
-5.54957

>  <filename>  (1) 
Cc1nc(Cc2c(C)cccc2Cl)n(-c2cccnc2)n1

$$$$
