
     RDKit          3D

 50 53  0  0  0  0  0  0  0  0999 V2000
   12.1966   -0.7904   21.8267 C   0  0  0  0  0  0  0  0  0  0  0  0
   11.6655    0.5273   22.2937 C   0  0  0  0  0  0  0  0  0  0  0  0
   12.3603    1.1292   23.2638 N   0  0  0  0  0  0  0  0  0  0  0  0
   11.8002    2.1989   23.8069 C   0  0  0  0  0  0  0  0  0  0  0  0
   10.6344    2.7420   23.4784 N   0  0  0  0  0  0  0  0  0  0  0  0
    9.9623    2.1632   22.4810 C   0  0  0  0  0  0  0  0  0  0  0  0
    8.6188    2.7457   22.1445 C   0  0  0  0  0  0  0  0  0  0  0  0
    8.3681    3.5403   22.8464 H   0  0  0  0  0  0  0  0  0  0  0  0
    7.8356    1.9819   22.1866 H   0  0  0  0  0  0  0  0  0  0  0  0
    8.6154    3.1600   21.1320 H   0  0  0  0  0  0  0  0  0  0  0  0
   10.4620    1.0499   21.7977 C   0  0  0  0  0  0  0  0  0  0  0  0
    9.6260    0.3131   20.7623 C   0  0  0  0  0  0  0  0  0  0  0  0
    8.5942   -0.6016   21.3516 C   0  0  0  0  0  0  0  0  0  0  0  0
    8.8239   -1.4514   22.3291 N   0  0  0  0  0  0  0  0  0  0  0  0
    7.6087   -2.0212   22.5369 C   0  0  0  0  0  0  0  0  0  0  0  0
    7.4041   -3.0071   23.6409 C   0  0  0  0  0  0  0  0  0  0  0  0
    7.5811   -2.3334   25.0304 C   0  0  0  0  0  0  0  0  0  0  0  0
    7.3646   -3.3465   26.1642 C   0  0  0  0  0  0  0  0  0  0  0  0
    8.2514   -4.5717   26.0006 C   0  0  0  0  0  0  0  0  0  0  0  0
    9.5611   -4.2030   26.2045 F   0  0  0  0  0  0  0  0  0  0  0  0
    7.9563   -5.4833   26.9785 F   0  0  0  0  0  0  0  0  0  0  0  0
    8.1305   -5.2323   24.6348 C   0  0  0  0  0  0  0  0  0  0  0  0
    8.3520   -4.2259   23.4958 C   0  0  0  0  0  0  0  0  0  0  0  0
    9.3942   -3.8776   23.5058 H   0  0  0  0  0  0  0  0  0  0  0  0
    8.1962   -4.7145   22.5265 H   0  0  0  0  0  0  0  0  0  0  0  0
    8.8410   -6.0644   24.5943 H   0  0  0  0  0  0  0  0  0  0  0  0
    7.1202   -5.6545   24.5740 H   0  0  0  0  0  0  0  0  0  0  0  0
    6.3265   -3.6998   26.1611 H   0  0  0  0  0  0  0  0  0  0  0  0
    7.5627   -2.9112   27.1492 H   0  0  0  0  0  0  0  0  0  0  0  0
    6.8818   -1.4949   25.1390 H   0  0  0  0  0  0  0  0  0  0  0  0
    8.5915   -1.9074   25.1014 H   0  0  0  0  0  0  0  0  0  0  0  0
    6.3652   -3.3462   23.5467 H   0  0  0  0  0  0  0  0  0  0  0  0
    6.6574   -1.6016   21.7301 N   0  0  0  0  0  0  0  0  0  0  0  0
    7.3016   -0.7016   20.9397 N   0  0  0  0  0  0  0  0  0  0  0  0
    6.6279   -0.0176   19.8919 C   0  0  0  0  0  0  0  0  0  0  0  0
    5.4205    0.6370   20.1511 C   0  0  0  0  0  0  0  0  0  0  0  0
    4.7996    1.3149   19.0994 C   0  0  0  0  0  0  0  0  0  0  0  0
    5.3947    1.2991   17.8320 C   0  0  0  0  0  0  0  0  0  0  0  0
    6.5469    0.6630   17.5723 N   0  0  0  0  0  0  0  0  0  0  0  0
    7.1494    0.0301   18.5851 C   0  0  0  0  0  0  0  0  0  0  0  0
    8.0995   -0.4496   18.3526 H   0  0  0  0  0  0  0  0  0  0  0  0
    4.9276    1.8081   16.9921 H   0  0  0  0  0  0  0  0  0  0  0  0
    3.8708    1.8541   19.2518 H   0  0  0  0  0  0  0  0  0  0  0  0
    5.0031    0.5998   21.1578 H   0  0  0  0  0  0  0  0  0  0  0  0
    9.1359    1.0313   20.1024 H   0  0  0  0  0  0  0  0  0  0  0  0
   10.2359   -0.3532   20.1461 H   0  0  0  0  0  0  0  0  0  0  0  0
   12.3341    2.6645   24.6284 H   0  0  0  0  0  0  0  0  0  0  0  0
   11.5241   -1.5934   22.1477 H   0  0  0  0  0  0  0  0  0  0  0  0
   13.2020   -0.9635   22.2186 H   0  0  0  0  0  0  0  0  0  0  0  0
   12.2221   -0.8585   20.7401 H   0  0  0  0  0  0  0  0  0  0  0  0
  1  2  1  0
  2  3  2  0
  3  4  1  0
  4  5  2  0
  5  6  1  0
  6  7  1  0
  7  8  1  0
  7  9  1  0
  7 10  1  0
  6 11  2  0
 11 12  1  0
 12 13  1  0
 13 14  2  0
 14 15  1  0
 15 16  1  0
 16 17  1  0
 17 18  1  0
 18 19  1  0
 19 20  1  0
 19 21  1  0
 19 22  1  0
 22 23  1  0
 23 24  1  0
 23 25  1  0
 22 26  1  0
 22 27  1  0
 18 28  1  0
 18 29  1  0
 17 30  1  0
 17 31  1  0
 16 32  1  0
 15 33  2  0
 33 34  1  0
 34 35  1  0
 35 36  2  0
 36 37  1  0
 37 38  2  0
 38 39  1  0
 39 40  2  0
 40 41  1  0
 38 42  1  0
 37 43  1  0
 36 44  1  0
 12 45  1  0
 12 46  1  0
  4 47  1  0
  1 48  1  0
  1 49  1  0
  1 50  1  0
 11  2  1  0
 34 13  1  0
 40 35  1  0
 23 16  1  0
M  END
>  <cnnaffinity>  (1) 
-6.77693

>  <filename>  (1) 
Cc1ncnc(C)c1Cc1nc(C2CCC(F)(F)CC2)nn1-c1cccnc1

$$$$
