
     RDKit          3D

 46 49  0  0  0  0  0  0  0  0999 V2000
   10.4470    3.6140   23.9315 C   0  0  0  0  0  0  0  0  0  0  0  0
    9.3198    4.3273   23.2501 C   0  0  0  0  0  0  0  0  0  0  0  0
    9.0029    5.5853   23.4401 N   0  0  0  0  0  0  0  0  0  0  0  0
    7.8725    5.8036   22.6894 C   0  0  0  0  0  0  0  0  0  0  0  0
    7.5081    4.6612   22.0443 C   0  0  0  0  0  0  0  0  0  0  0  0
    8.4461    3.7074   22.3893 N   0  0  0  0  0  0  0  0  0  0  0  0
    8.4634    2.3444   21.8732 C   0  0  0  0  0  0  0  0  0  0  0  0
    7.5513    1.3968   22.6746 C   0  0  0  0  0  0  0  0  0  0  0  0
    7.6170   -0.0258   22.2316 C   0  0  0  0  0  0  0  0  0  0  0  0
    8.1029   -1.0031   22.9669 N   0  0  0  0  0  0  0  0  0  0  0  0
    8.0657   -2.0786   22.1361 C   0  0  0  0  0  0  0  0  0  0  0  0
    8.5465   -3.4507   22.5396 C   0  0  0  0  0  0  0  0  0  0  0  0
    8.6488   -3.7190   24.0592 C   0  0  0  0  0  0  0  0  0  0  0  0
    8.4950   -5.2491   24.2374 C   0  0  0  0  0  0  0  0  0  0  0  0
    8.0509   -5.8267   22.8702 C   0  0  0  0  0  0  0  0  0  0  0  0
    7.6912   -4.6171   21.9966 C   0  0  0  0  0  0  0  0  0  0  0  0
    7.8391   -4.7860   20.9243 H   0  0  0  0  0  0  0  0  0  0  0  0
    6.6344   -4.3621   22.1160 H   0  0  0  0  0  0  0  0  0  0  0  0
    8.8487   -6.4071   22.3911 H   0  0  0  0  0  0  0  0  0  0  0  0
    7.2128   -6.5235   22.9884 H   0  0  0  0  0  0  0  0  0  0  0  0
    7.7592   -5.4706   25.0198 H   0  0  0  0  0  0  0  0  0  0  0  0
    9.4233   -5.7330   24.5597 H   0  0  0  0  0  0  0  0  0  0  0  0
    9.5969   -3.3487   24.4611 H   0  0  0  0  0  0  0  0  0  0  0  0
    7.8704   -3.1791   24.6058 H   0  0  0  0  0  0  0  0  0  0  0  0
    9.5654   -3.5178   22.1456 H   0  0  0  0  0  0  0  0  0  0  0  0
    7.6173   -1.8136   20.9180 N   0  0  0  0  0  0  0  0  0  0  0  0
    7.2891   -0.4970   20.9936 N   0  0  0  0  0  0  0  0  0  0  0  0
    6.6139    0.1238   19.9013 C   0  0  0  0  0  0  0  0  0  0  0  0
    5.4123    0.8202   20.0833 C   0  0  0  0  0  0  0  0  0  0  0  0
    4.8296    1.4225   18.9645 C   0  0  0  0  0  0  0  0  0  0  0  0
    5.4672    1.3160   17.7233 C   0  0  0  0  0  0  0  0  0  0  0  0
    6.5991    0.6100   17.5373 N   0  0  0  0  0  0  0  0  0  0  0  0
    7.1437    0.0112   18.6018 C   0  0  0  0  0  0  0  0  0  0  0  0
    8.0434   -0.5751   18.4203 H   0  0  0  0  0  0  0  0  0  0  0  0
    5.0541    1.8005   16.8423 H   0  0  0  0  0  0  0  0  0  0  0  0
    3.9026    1.9829   19.0526 H   0  0  0  0  0  0  0  0  0  0  0  0
    4.9349    0.8622   21.0665 H   0  0  0  0  0  0  0  0  0  0  0  0
    6.5181    1.7538   22.6234 H   0  0  0  0  0  0  0  0  0  0  0  0
    7.8471    1.4009   23.7287 H   0  0  0  0  0  0  0  0  0  0  0  0
    9.4979    1.9853   21.8860 H   0  0  0  0  0  0  0  0  0  0  0  0
    8.1489    2.3752   20.8229 H   0  0  0  0  0  0  0  0  0  0  0  0
    6.6449    4.4317   21.4373 H   0  0  0  0  0  0  0  0  0  0  0  0
    7.3820    6.7689   22.6576 H   0  0  0  0  0  0  0  0  0  0  0  0
   10.0689    2.7778   24.5352 H   0  0  0  0  0  0  0  0  0  0  0  0
   10.9711    4.3069   24.5941 H   0  0  0  0  0  0  0  0  0  0  0  0
   11.1698    3.2137   23.2108 H   0  0  0  0  0  0  0  0  0  0  0  0
  1  2  1  0
  2  3  2  0
  3  4  1  0
  4  5  2  0
  5  6  1  0
  6  7  1  0
  7  8  1  0
  8  9  1  0
  9 10  2  0
 10 11  1  0
 11 12  1  0
 12 13  1  0
 13 14  1  0
 14 15  1  0
 15 16  1  0
 16 17  1  0
 16 18  1  0
 15 19  1  0
 15 20  1  0
 14 21  1  0
 14 22  1  0
 13 23  1  0
 13 24  1  0
 12 25  1  0
 11 26  2  0
 26 27  1  0
 27 28  1  0
 28 29  2  0
 29 30  1  0
 30 31  2  0
 31 32  1  0
 32 33  2  0
 33 34  1  0
 31 35  1  0
 30 36  1  0
 29 37  1  0
  8 38  1  0
  8 39  1  0
  7 40  1  0
  7 41  1  0
  5 42  1  0
  4 43  1  0
  1 44  1  0
  1 45  1  0
  1 46  1  0
  6  2  1  0
 27  9  1  0
 33 28  1  0
 16 12  1  0
M  END
>  <cnnaffinity>  (1) 
-6.06654

>  <filename>  (1) 
Cc1nccn1CCc1nc(C2CCCC2)nn1-c1cccnc1

$$$$
