
     RDKit          3D

 41 44  0  0  0  0  0  0  0  0999 V2000
   11.7556    2.8257   24.0242 C   0  0  0  0  0  0  0  0  0  0  0  0
   11.5419    1.7388   23.0251 C   0  0  0  0  0  0  0  0  0  0  0  0
   10.4994    1.6093   22.2493 N   0  0  0  0  0  0  0  0  0  0  0  0
   10.7005    0.4683   21.5143 C   0  0  0  0  0  0  0  0  0  0  0  0
    9.6249    0.0300   20.5844 C   0  0  0  0  0  0  0  0  0  0  0  0
    8.5586   -0.7437   21.2754 C   0  0  0  0  0  0  0  0  0  0  0  0
    8.7587   -1.5524   22.2932 N   0  0  0  0  0  0  0  0  0  0  0  0
    7.5257   -2.0450   22.5435 C   0  0  0  0  0  0  0  0  0  0  0  0
    7.2914   -3.0133   23.6503 C   0  0  0  0  0  0  0  0  0  0  0  0
    6.3327   -2.5756   24.7826 C   0  0  0  0  0  0  0  0  0  0  0  0
    5.7638   -3.9063   25.2991 C   0  0  0  0  0  0  0  0  0  0  0  0
    6.0940   -4.9003   24.3392 O   0  0  0  0  0  0  0  0  0  0  0  0
    6.6633   -4.3312   23.1806 C   0  0  0  0  0  0  0  0  0  0  0  0
    7.4056   -5.0372   22.7872 H   0  0  0  0  0  0  0  0  0  0  0  0
    5.9005   -4.1649   22.4010 H   0  0  0  0  0  0  0  0  0  0  0  0
    4.6720   -3.8602   25.4277 H   0  0  0  0  0  0  0  0  0  0  0  0
    6.2002   -4.2076   26.2618 H   0  0  0  0  0  0  0  0  0  0  0  0
    6.8387   -2.0091   25.5694 H   0  0  0  0  0  0  0  0  0  0  0  0
    5.5321   -1.9423   24.3928 H   0  0  0  0  0  0  0  0  0  0  0  0
    8.2762   -3.2202   24.0768 H   0  0  0  0  0  0  0  0  0  0  0  0
    6.5759   -1.6247   21.7263 N   0  0  0  0  0  0  0  0  0  0  0  0
    7.2456   -0.7944   20.8852 N   0  0  0  0  0  0  0  0  0  0  0  0
    6.5635   -0.1009   19.8436 C   0  0  0  0  0  0  0  0  0  0  0  0
    5.3699    0.5823   20.1050 C   0  0  0  0  0  0  0  0  0  0  0  0
    4.7846    1.3122   19.0658 C   0  0  0  0  0  0  0  0  0  0  0  0
    5.3998    1.3213   17.8074 C   0  0  0  0  0  0  0  0  0  0  0  0
    6.5256    0.6424   17.5385 N   0  0  0  0  0  0  0  0  0  0  0  0
    7.0850   -0.0498   18.5370 C   0  0  0  0  0  0  0  0  0  0  0  0
    8.0032   -0.5826   18.2925 H   0  0  0  0  0  0  0  0  0  0  0  0
    4.9656    1.8832   16.9841 H   0  0  0  0  0  0  0  0  0  0  0  0
    3.8737    1.8811   19.2238 H   0  0  0  0  0  0  0  0  0  0  0  0
    4.9366    0.5464   21.1041 H   0  0  0  0  0  0  0  0  0  0  0  0
   10.0203   -0.6067   19.7891 H   0  0  0  0  0  0  0  0  0  0  0  0
    9.1930    0.9311   20.1444 H   0  0  0  0  0  0  0  0  0  0  0  0
   11.8942   -0.1045   21.8453 C   0  0  0  0  0  0  0  0  0  0  0  0
   12.4349    0.7267   22.8116 N   0  0  0  0  0  0  0  0  0  0  0  0
   13.2770    0.5853   23.3427 H   0  0  0  0  0  0  0  0  0  0  0  0
   12.3877   -0.9931   21.4731 H   0  0  0  0  0  0  0  0  0  0  0  0
   12.6117    3.4584   23.7629 H   0  0  0  0  0  0  0  0  0  0  0  0
   10.8539    3.4404   24.0661 H   0  0  0  0  0  0  0  0  0  0  0  0
   11.9355    2.3927   25.0120 H   0  0  0  0  0  0  0  0  0  0  0  0
  1  2  1  0
  2  3  2  0
  3  4  1  0
  4  5  1  0
  5  6  1  0
  6  7  2  0
  7  8  1  0
  8  9  1  0
  9 10  1  0
 10 11  1  0
 11 12  1  0
 12 13  1  0
 13 14  1  0
 13 15  1  0
 11 16  1  0
 11 17  1  0
 10 18  1  0
 10 19  1  0
  9 20  1  0
  8 21  2  0
 21 22  1  0
 22 23  1  0
 23 24  2  0
 24 25  1  0
 25 26  2  0
 26 27  1  0
 27 28  2  0
 28 29  1  0
 26 30  1  0
 25 31  1  0
 24 32  1  0
  5 33  1  0
  5 34  1  0
  4 35  2  0
 35 36  1  0
 36 37  1  0
 35 38  1  0
  1 39  1  0
  1 40  1  0
  1 41  1  0
 36  2  1  0
 22  6  1  0
 28 23  1  0
 13  9  1  0
M  END
>  <cnnaffinity>  (1) 
-5.87459

>  <filename>  (1) 
Cc1nc(Cc2nc(C3CCOC3)nn2-c2cccnc2)c[nH]1

$$$$
