
     RDKit          3D

 45 48  0  0  0  0  0  0  0  0999 V2000
   13.6366    1.0694   23.1716 C   0  0  0  0  0  0  0  0  0  0  0  0
   12.2461    1.2439   22.6388 C   0  0  0  0  0  0  0  0  0  0  0  0
   11.7913    0.4393   21.7261 N   0  0  0  0  0  0  0  0  0  0  0  0
   10.5213    0.7845   21.3610 C   0  0  0  0  0  0  0  0  0  0  0  0
    9.9449    1.8448   21.9904 C   0  0  0  0  0  0  0  0  0  0  0  0
    8.5034    2.2715   21.9000 C   0  0  0  0  0  0  0  0  0  0  0  0
    7.5508    1.3373   22.7021 C   0  0  0  0  0  0  0  0  0  0  0  0
    7.5919   -0.1002   22.2723 C   0  0  0  0  0  0  0  0  0  0  0  0
    8.0805   -1.1120   22.9716 N   0  0  0  0  0  0  0  0  0  0  0  0
    8.1840   -2.1048   22.0457 C   0  0  0  0  0  0  0  0  0  0  0  0
    8.7070   -3.4750   22.3139 C   0  0  0  0  0  0  0  0  0  0  0  0
    7.7605   -4.3362   23.1505 C   0  0  0  0  0  0  0  0  0  0  0  0
    8.1764   -5.8185   23.3146 C   0  0  0  0  0  0  0  0  0  0  0  0
    6.8649   -6.2644   22.6292 C   0  0  0  0  0  0  0  0  0  0  0  0
    6.4951   -4.7853   22.3830 C   0  0  0  0  0  0  0  0  0  0  0  0
    5.5409   -4.4298   22.7763 H   0  0  0  0  0  0  0  0  0  0  0  0
    6.5251   -4.5127   21.3244 H   0  0  0  0  0  0  0  0  0  0  0  0
    7.0025   -6.8579   21.7195 H   0  0  0  0  0  0  0  0  0  0  0  0
    6.1792   -6.8063   23.2822 H   0  0  0  0  0  0  0  0  0  0  0  0
    8.3206   -6.1595   24.3463 H   0  0  0  0  0  0  0  0  0  0  0  0
    9.0735   -6.0913   22.7537 H   0  0  0  0  0  0  0  0  0  0  0  0
    7.5403   -3.8582   24.1137 H   0  0  0  0  0  0  0  0  0  0  0  0
    9.6849   -3.3949   22.7928 H   0  0  0  0  0  0  0  0  0  0  0  0
    8.8328   -3.9504   21.3358 H   0  0  0  0  0  0  0  0  0  0  0  0
    7.7826   -1.7770   20.8371 N   0  0  0  0  0  0  0  0  0  0  0  0
    7.3381   -0.5069   20.9897 N   0  0  0  0  0  0  0  0  0  0  0  0
    6.6289    0.1005   19.9226 C   0  0  0  0  0  0  0  0  0  0  0  0
    5.4130    0.7584   20.1335 C   0  0  0  0  0  0  0  0  0  0  0  0
    4.8021    1.3727   19.0363 C   0  0  0  0  0  0  0  0  0  0  0  0
    5.4229    1.3089   17.7853 C   0  0  0  0  0  0  0  0  0  0  0  0
    6.5584    0.6238   17.5661 N   0  0  0  0  0  0  0  0  0  0  0  0
    7.1272    0.0099   18.6086 C   0  0  0  0  0  0  0  0  0  0  0  0
    8.0047   -0.5925   18.3876 H   0  0  0  0  0  0  0  0  0  0  0  0
    4.9858    1.8055   16.9222 H   0  0  0  0  0  0  0  0  0  0  0  0
    3.8534    1.8854   19.1431 H   0  0  0  0  0  0  0  0  0  0  0  0
    4.9440    0.7457   21.1167 H   0  0  0  0  0  0  0  0  0  0  0  0
    7.8165    1.3609   23.7632 H   0  0  0  0  0  0  0  0  0  0  0  0
    6.5274    1.7114   22.6116 H   0  0  0  0  0  0  0  0  0  0  0  0
    8.1920    2.2505   20.8447 H   0  0  0  0  0  0  0  0  0  0  0  0
    8.3825    3.3006   22.2648 H   0  0  0  0  0  0  0  0  0  0  0  0
   11.1260    2.5132   23.0789 S   0  0  0  0  0  0  0  0  0  0  0  0
   10.0274    0.1975   20.6036 H   0  0  0  0  0  0  0  0  0  0  0  0
   13.6825    0.9891   24.2625 H   0  0  0  0  0  0  0  0  0  0  0  0
   14.2782    1.9002   22.8587 H   0  0  0  0  0  0  0  0  0  0  0  0
   14.0296    0.1472   22.7324 H   0  0  0  0  0  0  0  0  0  0  0  0
  1  2  1  0
  2  3  2  0
  3  4  1  0
  4  5  2  0
  5  6  1  0
  6  7  1  0
  7  8  1  0
  8  9  2  0
  9 10  1  0
 10 11  1  0
 11 12  1  0
 12 13  1  0
 13 14  1  0
 14 15  1  0
 15 16  1  0
 15 17  1  0
 14 18  1  0
 14 19  1  0
 13 20  1  0
 13 21  1  0
 12 22  1  0
 11 23  1  0
 11 24  1  0
 10 25  2  0
 25 26  1  0
 26 27  1  0
 27 28  2  0
 28 29  1  0
 29 30  2  0
 30 31  1  0
 31 32  2  0
 32 33  1  0
 30 34  1  0
 29 35  1  0
 28 36  1  0
  7 37  1  0
  7 38  1  0
  6 39  1  0
  6 40  1  0
  5 41  1  0
  4 42  1  0
  1 43  1  0
  1 44  1  0
  1 45  1  0
 41  2  1  0
 26  8  1  0
 32 27  1  0
 15 12  1  0
M  END
>  <cnnaffinity>  (1) 
-5.84393

>  <filename>  (1) 
Cc1ncc(CCc2nc(CC3CCC3)nn2-c2cccnc2)s1

$$$$
