
     RDKit          3D

 49 52  0  0  0  0  0  0  0  0999 V2000
    7.7813    2.8721   21.9645 C   0  0  0  0  0  0  0  0  0  0  0  0
    9.1272    2.4826   22.4706 C   0  0  0  0  0  0  0  0  0  0  0  0
    9.6850    3.0395   23.5367 N   0  0  0  0  0  0  0  0  0  0  0  0
   10.8252    2.3536   23.7203 N   0  0  0  0  0  0  0  0  0  0  0  0
   11.0132    1.3748   22.8062 C   0  0  0  0  0  0  0  0  0  0  0  0
    9.9432    1.4412   21.9566 C   0  0  0  0  0  0  0  0  0  0  0  0
    9.6072    0.4413   20.8855 C   0  0  0  0  0  0  0  0  0  0  0  0
    8.6227   -0.5802   21.3614 C   0  0  0  0  0  0  0  0  0  0  0  0
    8.8516   -1.4382   22.3360 N   0  0  0  0  0  0  0  0  0  0  0  0
    7.6434   -2.0352   22.5118 C   0  0  0  0  0  0  0  0  0  0  0  0
    7.4144   -3.0630   23.5847 C   0  0  0  0  0  0  0  0  0  0  0  0
    7.6587   -2.4762   25.0126 C   0  0  0  0  0  0  0  0  0  0  0  0
    9.0651   -2.8031   25.5373 C   0  0  0  0  0  0  0  0  0  0  0  0
    9.3165   -4.3331   25.6418 C   0  0  0  0  0  0  0  0  0  0  0  0
    9.0471   -4.8601   27.0552 C   0  0  0  0  0  0  0  0  0  0  0  0
    9.6915   -4.3687   27.7912 H   0  0  0  0  0  0  0  0  0  0  0  0
    8.0063   -4.6775   27.3528 H   0  0  0  0  0  0  0  0  0  0  0  0
    9.2227   -5.9387   27.1192 H   0  0  0  0  0  0  0  0  0  0  0  0
    8.5007   -5.1379   24.5937 C   0  0  0  0  0  0  0  0  0  0  0  0
    8.2639   -4.3395   23.3099 C   0  0  0  0  0  0  0  0  0  0  0  0
    9.2349   -4.0559   22.8822 H   0  0  0  0  0  0  0  0  0  0  0  0
    7.7606   -4.9572   22.5582 H   0  0  0  0  0  0  0  0  0  0  0  0
    9.0137   -6.0802   24.3695 H   0  0  0  0  0  0  0  0  0  0  0  0
    7.5266   -5.4244   25.0175 H   0  0  0  0  0  0  0  0  0  0  0  0
   10.3804   -4.4953   25.4226 H   0  0  0  0  0  0  0  0  0  0  0  0
    9.2166   -2.3298   26.5154 H   0  0  0  0  0  0  0  0  0  0  0  0
    9.7982   -2.3468   24.8603 H   0  0  0  0  0  0  0  0  0  0  0  0
    6.9168   -2.9003   25.7039 H   0  0  0  0  0  0  0  0  0  0  0  0
    7.4903   -1.3937   25.0193 H   0  0  0  0  0  0  0  0  0  0  0  0
    6.3567   -3.3239   23.5083 H   0  0  0  0  0  0  0  0  0  0  0  0
    6.6995   -1.6249   21.6952 N   0  0  0  0  0  0  0  0  0  0  0  0
    7.3378   -0.7011   20.9212 N   0  0  0  0  0  0  0  0  0  0  0  0
    6.6485   -0.0025   19.8966 C   0  0  0  0  0  0  0  0  0  0  0  0
    5.4374    0.6452   20.1648 C   0  0  0  0  0  0  0  0  0  0  0  0
    4.8112    1.3130   19.1080 C   0  0  0  0  0  0  0  0  0  0  0  0
    5.3992    1.2968   17.8377 C   0  0  0  0  0  0  0  0  0  0  0  0
    6.5577    0.6725   17.5743 N   0  0  0  0  0  0  0  0  0  0  0  0
    7.1647    0.0495   18.5904 C   0  0  0  0  0  0  0  0  0  0  0  0
    8.1131   -0.4338   18.3689 H   0  0  0  0  0  0  0  0  0  0  0  0
    4.9167    1.7855   16.9947 H   0  0  0  0  0  0  0  0  0  0  0  0
    3.8788    1.8406   19.2609 H   0  0  0  0  0  0  0  0  0  0  0  0
    5.0122    0.6086   21.1714 H   0  0  0  0  0  0  0  0  0  0  0  0
   10.5071   -0.1044   20.5963 H   0  0  0  0  0  0  0  0  0  0  0  0
    9.2280    0.9544   20.0013 H   0  0  0  0  0  0  0  0  0  0  0  0
   11.8505    0.6864   22.8269 H   0  0  0  0  0  0  0  0  0  0  0  0
   11.4163    2.6046   24.4926 H   0  0  0  0  0  0  0  0  0  0  0  0
    7.0110    2.1725   22.3040 H   0  0  0  0  0  0  0  0  0  0  0  0
    7.5014    3.8819   22.2643 H   0  0  0  0  0  0  0  0  0  0  0  0
    7.7669    2.7687   20.8836 H   0  0  0  0  0  0  0  0  0  0  0  0
  1  2  1  0
  2  3  2  0
  3  4  1  0
  4  5  1  0
  5  6  2  0
  6  7  1  0
  7  8  1  0
  8  9  2  0
  9 10  1  0
 10 11  1  0
 11 12  1  0
 12 13  1  0
 13 14  1  0
 14 15  1  0
 15 16  1  0
 15 17  1  0
 15 18  1  0
 14 19  1  0
 19 20  1  0
 20 21  1  0
 20 22  1  0
 19 23  1  0
 19 24  1  0
 14 25  1  0
 13 26  1  0
 13 27  1  0
 12 28  1  0
 12 29  1  0
 11 30  1  0
 10 31  2  0
 31 32  1  0
 32 33  1  0
 33 34  2  0
 34 35  1  0
 35 36  2  0
 36 37  1  0
 37 38  2  0
 38 39  1  0
 36 40  1  0
 35 41  1  0
 34 42  1  0
  7 43  1  0
  7 44  1  0
  5 45  1  0
  4 46  1  0
  1 47  1  0
  1 48  1  0
  1 49  1  0
  6  2  1  0
 32  8  1  0
 38 33  1  0
 20 11  1  0
M  END
>  <cnnaffinity>  (1) 
-6.41134

>  <filename>  (1) 
Cc1n[nH]cc1Cc1nc(C2CCC(C)CC2)nn1-c1cccnc1

$$$$
