
     RDKit          3D

 42 45  0  0  0  0  0  0  0  0999 V2000
    9.7012    1.1734   25.3116 C   0  0  0  0  0  0  0  0  0  0  0  0
    8.2546    0.8337   25.1454 C   0  0  0  0  0  0  0  0  0  0  0  0
    7.6400    0.0791   26.0505 N   0  0  0  0  0  0  0  0  0  0  0  0
    6.3923   -0.0793   25.5886 N   0  0  0  0  0  0  0  0  0  0  0  0
    6.1862    0.5525   24.4070 C   0  0  0  0  0  0  0  0  0  0  0  0
    7.3696    1.1625   24.0727 C   0  0  0  0  0  0  0  0  0  0  0  0
    7.7100    1.8776   22.7747 C   0  0  0  0  0  0  0  0  0  0  0  0
    8.7379    1.1199   21.9872 C   0  0  0  0  0  0  0  0  0  0  0  0
   10.0396    1.3247   22.0665 N   0  0  0  0  0  0  0  0  0  0  0  0
   10.5684    0.1654   21.5790 C   0  0  0  0  0  0  0  0  0  0  0  0
   12.0020   -0.1884   21.7904 C   0  0  0  0  0  0  0  0  0  0  0  0
   12.5232   -1.4319   21.3914 C   0  0  0  0  0  0  0  0  0  0  0  0
   13.8401   -1.7497   21.7183 C   0  0  0  0  0  0  0  0  0  0  0  0
   14.6437   -0.9322   22.4089 N   0  0  0  0  0  0  0  0  0  0  0  0
   14.1602    0.2581   22.7809 C   0  0  0  0  0  0  0  0  0  0  0  0
   12.8616    0.6796   22.4914 C   0  0  0  0  0  0  0  0  0  0  0  0
   12.5063    1.6549   22.8135 H   0  0  0  0  0  0  0  0  0  0  0  0
   14.8390    0.8979   23.3496 H   0  0  0  0  0  0  0  0  0  0  0  0
   14.2888   -2.6898   21.4043 H   0  0  0  0  0  0  0  0  0  0  0  0
   11.9054   -2.1185   20.8263 H   0  0  0  0  0  0  0  0  0  0  0  0
    9.6654   -0.6909   21.1350 N   0  0  0  0  0  0  0  0  0  0  0  0
    8.4952   -0.0701   21.3992 N   0  0  0  0  0  0  0  0  0  0  0  0
    7.2360   -0.6976   21.0159 C   0  0  0  0  0  0  0  0  0  0  0  0
    6.5208    0.0282   19.8992 C   0  0  0  0  0  0  0  0  0  0  0  0
    5.2992    0.6832   20.0773 C   0  0  0  0  0  0  0  0  0  0  0  0
    4.7291    1.3561   18.9956 C   0  0  0  0  0  0  0  0  0  0  0  0
    5.3981    1.3406   17.7701 C   0  0  0  0  0  0  0  0  0  0  0  0
    6.5615    0.7024   17.5732 N   0  0  0  0  0  0  0  0  0  0  0  0
    7.1026    0.0698   18.6202 C   0  0  0  0  0  0  0  0  0  0  0  0
    8.0449   -0.4476   18.4313 H   0  0  0  0  0  0  0  0  0  0  0  0
    4.9790    1.8500   16.9052 H   0  0  0  0  0  0  0  0  0  0  0  0
    3.7926    1.8888   19.0911 H   0  0  0  0  0  0  0  0  0  0  0  0
    4.7972    0.6591   21.0468 H   0  0  0  0  0  0  0  0  0  0  0  0
    6.5957   -0.7834   21.9015 H   0  0  0  0  0  0  0  0  0  0  0  0
    7.5104   -1.7120   20.7108 H   0  0  0  0  0  0  0  0  0  0  0  0
    6.8126    2.0063   22.1630 H   0  0  0  0  0  0  0  0  0  0  0  0
    8.1210    2.8729   22.9731 H   0  0  0  0  0  0  0  0  0  0  0  0
    5.2427    0.5111   23.8794 H   0  0  0  0  0  0  0  0  0  0  0  0
    5.7433   -0.6225   26.1356 H   0  0  0  0  0  0  0  0  0  0  0  0
    9.9948    1.1056   26.3599 H   0  0  0  0  0  0  0  0  0  0  0  0
    9.9304    2.1719   24.9289 H   0  0  0  0  0  0  0  0  0  0  0  0
   10.3156    0.4706   24.7399 H   0  0  0  0  0  0  0  0  0  0  0  0
  1  2  1  0
  2  3  2  0
  3  4  1  0
  4  5  1  0
  5  6  2  0
  6  7  1  0
  7  8  1  0
  8  9  2  0
  9 10  1  0
 10 11  1  0
 11 12  2  0
 12 13  1  0
 13 14  2  0
 14 15  1  0
 15 16  2  0
 16 17  1  0
 15 18  1  0
 13 19  1  0
 12 20  1  0
 10 21  2  0
 21 22  1  0
 22 23  1  0
 23 24  1  0
 24 25  2  0
 25 26  1  0
 26 27  2  0
 27 28  1  0
 28 29  2  0
 29 30  1  0
 27 31  1  0
 26 32  1  0
 25 33  1  0
 23 34  1  0
 23 35  1  0
  7 36  1  0
  7 37  1  0
  5 38  1  0
  4 39  1  0
  1 40  1  0
  1 41  1  0
  1 42  1  0
  6  2  1  0
 22  8  1  0
 29 24  1  0
 16 11  1  0
M  END
>  <cnnaffinity>  (1) 
-6.40295

>  <filename>  (1) 
Cc1n[nH]cc1Cc1nc(-c2ccncc2)nn1Cc1cccnc1

$$$$
