
     RDKit          3D

 39 42  0  0  0  0  0  0  0  0999 V2000
    7.7602    2.8262   22.0505 C   0  0  0  0  0  0  0  0  0  0  0  0
    9.1388    2.4018   22.4254 C   0  0  0  0  0  0  0  0  0  0  0  0
    9.9501    1.4215   21.9479 C   0  0  0  0  0  0  0  0  0  0  0  0
    9.6554    0.3795   20.9147 C   0  0  0  0  0  0  0  0  0  0  0  0
    8.6262   -0.5929   21.3889 C   0  0  0  0  0  0  0  0  0  0  0  0
    8.8346   -1.4343   22.3664 N   0  0  0  0  0  0  0  0  0  0  0  0
    7.6346   -2.0555   22.5155 C   0  0  0  0  0  0  0  0  0  0  0  0
    7.4127   -3.0900   23.5458 C   0  0  0  0  0  0  0  0  0  0  0  0
    6.1460   -3.6870   23.6805 C   0  0  0  0  0  0  0  0  0  0  0  0
    5.9338   -4.6610   24.6536 C   0  0  0  0  0  0  0  0  0  0  0  0
    6.9777   -5.0421   25.5043 C   0  0  0  0  0  0  0  0  0  0  0  0
    8.2384   -4.4457   25.3827 C   0  0  0  0  0  0  0  0  0  0  0  0
    8.4574   -3.4728   24.4080 C   0  0  0  0  0  0  0  0  0  0  0  0
    9.4288   -2.9926   24.3054 H   0  0  0  0  0  0  0  0  0  0  0  0
    9.0474   -4.7360   26.0494 H   0  0  0  0  0  0  0  0  0  0  0  0
    6.8096   -5.7974   26.2651 H   0  0  0  0  0  0  0  0  0  0  0  0
    4.9523   -5.1165   24.7511 H   0  0  0  0  0  0  0  0  0  0  0  0
    5.3449   -3.3618   23.0202 H   0  0  0  0  0  0  0  0  0  0  0  0
    6.6971   -1.6393   21.6787 N   0  0  0  0  0  0  0  0  0  0  0  0
    7.3412   -0.7107   20.9301 N   0  0  0  0  0  0  0  0  0  0  0  0
    6.6494   -0.0282   19.8857 C   0  0  0  0  0  0  0  0  0  0  0  0
    5.4363    0.6195   20.1469 C   0  0  0  0  0  0  0  0  0  0  0  0
    4.8035    1.3071   19.1030 C   0  0  0  0  0  0  0  0  0  0  0  0
    5.3922    1.2972   17.8339 C   0  0  0  0  0  0  0  0  0  0  0  0
    6.5354    0.6497   17.5669 N   0  0  0  0  0  0  0  0  0  0  0  0
    7.1485    0.0141   18.5726 C   0  0  0  0  0  0  0  0  0  0  0  0
    8.0901   -0.4725   18.3237 H   0  0  0  0  0  0  0  0  0  0  0  0
    4.9416    1.8302   16.9980 H   0  0  0  0  0  0  0  0  0  0  0  0
    3.8727    1.8477   19.2518 H   0  0  0  0  0  0  0  0  0  0  0  0
    5.0132    0.5693   21.1489 H   0  0  0  0  0  0  0  0  0  0  0  0
    9.3014    0.8205   19.9804 H   0  0  0  0  0  0  0  0  0  0  0  0
   10.5805   -0.1781   20.7467 H   0  0  0  0  0  0  0  0  0  0  0  0
   11.1265    1.3949   22.6853 N   0  0  0  0  0  0  0  0  0  0  0  0
   10.9679    2.3258   23.5651 C   0  0  0  0  0  0  0  0  0  0  0  0
    9.7898    2.9801   23.4839 O   0  0  0  0  0  0  0  0  0  0  0  0
   11.6354    2.6272   24.3688 H   0  0  0  0  0  0  0  0  0  0  0  0
    7.6656    2.7587   20.9627 H   0  0  0  0  0  0  0  0  0  0  0  0
    7.5186    3.8375   22.3850 H   0  0  0  0  0  0  0  0  0  0  0  0
    7.0165    2.1351   22.4684 H   0  0  0  0  0  0  0  0  0  0  0  0
  1  2  1  0
  2  3  2  0
  3  4  1  0
  4  5  1  0
  5  6  2  0
  6  7  1  0
  7  8  1  0
  8  9  2  0
  9 10  1  0
 10 11  2  0
 11 12  1  0
 12 13  2  0
 13 14  1  0
 12 15  1  0
 11 16  1  0
 10 17  1  0
  9 18  1  0
  7 19  2  0
 19 20  1  0
 20 21  1  0
 21 22  2  0
 22 23  1  0
 23 24  2  0
 24 25  1  0
 25 26  2  0
 26 27  1  0
 24 28  1  0
 23 29  1  0
 22 30  1  0
  4 31  1  0
  4 32  1  0
  3 33  1  0
 33 34  2  0
 34 35  1  0
 34 36  1  0
  1 37  1  0
  1 38  1  0
  1 39  1  0
 35  2  1  0
 20  5  1  0
 26 21  1  0
 13  8  1  0
M  END
>  <cnnaffinity>  (1) 
-5.64539

>  <filename>  (1) 
Cc1ocnc1Cc1nc(-c2ccccc2)nn1-c1cccnc1

$$$$
