
     RDKit          3D

 40 44  0  0  0  0  0  0  0  0999 V2000
   12.4329   -1.3062   21.5954 C   0  0  0  0  0  0  0  0  0  0  0  0
   11.8243   -0.0028   21.9843 C   0  0  0  0  0  0  0  0  0  0  0  0
   10.6862    0.6299   21.6189 C   0  0  0  0  0  0  0  0  0  0  0  0
    9.6158    0.2086   20.6692 C   0  0  0  0  0  0  0  0  0  0  0  0
    8.5826   -0.6534   21.3195 C   0  0  0  0  0  0  0  0  0  0  0  0
    8.8238   -1.4857   22.3039 N   0  0  0  0  0  0  0  0  0  0  0  0
    7.6248   -2.1041   22.4957 C   0  0  0  0  0  0  0  0  0  0  0  0
    7.3879   -3.0080   23.6433 C   0  0  0  0  0  0  0  0  0  0  0  0
    8.4072   -2.9947   24.7377 C   0  0  0  0  0  0  0  0  0  0  0  0
    7.0982   -2.2244   24.9475 C   0  0  0  0  0  0  0  0  0  0  0  0
    5.9733   -1.2372   24.9524 C   0  0  0  0  0  0  0  0  0  0  0  0
    6.6331   -1.6250   26.2525 C   0  0  0  0  0  0  0  0  0  0  0  0
    7.3424   -0.9323   26.7059 H   0  0  0  0  0  0  0  0  0  0  0  0
    6.0770   -2.2453   26.9543 H   0  0  0  0  0  0  0  0  0  0  0  0
    6.1566   -0.2848   24.4557 H   0  0  0  0  0  0  0  0  0  0  0  0
    4.9958   -1.7010   24.8036 H   0  0  0  0  0  0  0  0  0  0  0  0
    9.2901   -2.3699   24.5996 H   0  0  0  0  0  0  0  0  0  0  0  0
    8.5451   -3.8911   25.3481 H   0  0  0  0  0  0  0  0  0  0  0  0
    6.7683   -3.8794   23.4429 H   0  0  0  0  0  0  0  0  0  0  0  0
    6.6730   -1.7298   21.6652 N   0  0  0  0  0  0  0  0  0  0  0  0
    7.2954   -0.7993   20.8875 N   0  0  0  0  0  0  0  0  0  0  0  0
    6.6052   -0.0883   19.8636 C   0  0  0  0  0  0  0  0  0  0  0  0
    5.4106    0.5875   20.1392 C   0  0  0  0  0  0  0  0  0  0  0  0
    4.8048    1.2979   19.0973 C   0  0  0  0  0  0  0  0  0  0  0  0
    5.4043    1.3024   17.8329 C   0  0  0  0  0  0  0  0  0  0  0  0
    6.5471    0.6540   17.5602 N   0  0  0  0  0  0  0  0  0  0  0  0
    7.1278   -0.0154   18.5615 C   0  0  0  0  0  0  0  0  0  0  0  0
    8.0647   -0.5181   18.3254 H   0  0  0  0  0  0  0  0  0  0  0  0
    4.9485    1.8428   17.0059 H   0  0  0  0  0  0  0  0  0  0  0  0
    3.8866    1.8552   19.2554 H   0  0  0  0  0  0  0  0  0  0  0  0
    4.9832    0.5571   21.1414 H   0  0  0  0  0  0  0  0  0  0  0  0
    9.1450    1.1093   20.2728 H   0  0  0  0  0  0  0  0  0  0  0  0
   10.0135   -0.3887   19.8384 H   0  0  0  0  0  0  0  0  0  0  0  0
   10.5295    1.7779   22.3873 N   0  0  0  0  0  0  0  0  0  0  0  0
   11.5668    1.7895   23.1517 C   0  0  0  0  0  0  0  0  0  0  0  0
   12.4085    0.7463   22.9728 O   0  0  0  0  0  0  0  0  0  0  0  0
   11.8389    2.5080   23.9210 H   0  0  0  0  0  0  0  0  0  0  0  0
   13.3625   -1.4797   22.1374 H   0  0  0  0  0  0  0  0  0  0  0  0
   12.6281   -1.3532   20.5191 H   0  0  0  0  0  0  0  0  0  0  0  0
   11.7175   -2.1075   21.8172 H   0  0  0  0  0  0  0  0  0  0  0  0
  1  2  1  0
  2  3  2  0
  3  4  1  0
  4  5  1  0
  5  6  2  0
  6  7  1  0
  7  8  1  0
  8  9  1  0
  9 10  1  0
 10 11  1  0
 11 12  1  0
 12 13  1  0
 12 14  1  0
 11 15  1  0
 11 16  1  0
  9 17  1  0
  9 18  1  0
  8 19  1  0
  7 20  2  0
 20 21  1  0
 21 22  1  0
 22 23  2  0
 23 24  1  0
 24 25  2  0
 25 26  1  0
 26 27  2  0
 27 28  1  0
 25 29  1  0
 24 30  1  0
 23 31  1  0
  4 32  1  0
  4 33  1  0
  3 34  1  0
 34 35  2  0
 35 36  1  0
 35 37  1  0
  1 38  1  0
  1 39  1  0
  1 40  1  0
 36  2  1  0
 21  5  1  0
 27 22  1  0
 10  8  1  0
 12 10  1  0
M  END
>  <cnnaffinity>  (1) 
-6.04823

>  <filename>  (1) 
Cc1ocnc1Cc1nc(C2CC23CC3)nn1-c1cccnc1

$$$$
