
     RDKit          3D

 42 45  0  0  0  0  0  0  0  0999 V2000
    8.3081    0.7636   25.8925 C   0  0  0  0  0  0  0  0  0  0  0  0
    7.0247    1.0347   25.1904 C   0  0  0  0  0  0  0  0  0  0  0  0
    6.6944    1.2700   23.8957 C   0  0  0  0  0  0  0  0  0  0  0  0
    7.5345    1.2809   22.6654 C   0  0  0  0  0  0  0  0  0  0  0  0
    7.6436   -0.1112   22.1438 C   0  0  0  0  0  0  0  0  0  0  0  0
    8.1870   -1.0801   22.8586 N   0  0  0  0  0  0  0  0  0  0  0  0
    8.1754   -2.1375   22.0121 C   0  0  0  0  0  0  0  0  0  0  0  0
    8.7199   -3.4987   22.3741 C   0  0  0  0  0  0  0  0  0  0  0  0
    7.9359   -4.6691   21.7381 C   0  0  0  0  0  0  0  0  0  0  0  0
    8.2918   -5.9124   22.5611 C   0  0  0  0  0  0  0  0  0  0  0  0
    8.6856   -5.4119   23.9660 C   0  0  0  0  0  0  0  0  0  0  0  0
    8.7620   -3.8673   23.8797 C   0  0  0  0  0  0  0  0  0  0  0  0
    9.6778   -3.5038   24.3546 H   0  0  0  0  0  0  0  0  0  0  0  0
    7.9119   -3.4120   24.4001 H   0  0  0  0  0  0  0  0  0  0  0  0
    9.6386   -5.8550   24.2776 H   0  0  0  0  0  0  0  0  0  0  0  0
    7.9824   -5.7345   24.7390 H   0  0  0  0  0  0  0  0  0  0  0  0
    9.1459   -6.4316   22.1184 H   0  0  0  0  0  0  0  0  0  0  0  0
    7.4680   -6.6344   22.5769 H   0  0  0  0  0  0  0  0  0  0  0  0
    8.1610   -4.8098   20.6761 H   0  0  0  0  0  0  0  0  0  0  0  0
    6.8682   -4.4302   21.8313 H   0  0  0  0  0  0  0  0  0  0  0  0
    9.7495   -3.4303   22.0127 H   0  0  0  0  0  0  0  0  0  0  0  0
    7.6866   -1.8722   20.8095 N   0  0  0  0  0  0  0  0  0  0  0  0
    7.3048   -0.5739   20.9095 N   0  0  0  0  0  0  0  0  0  0  0  0
    6.5825    0.0564   19.8592 C   0  0  0  0  0  0  0  0  0  0  0  0
    5.3940    0.7617   20.1015 C   0  0  0  0  0  0  0  0  0  0  0  0
    4.7709    1.3867   19.0139 C   0  0  0  0  0  0  0  0  0  0  0  0
    5.3717    1.3164   17.7535 C   0  0  0  0  0  0  0  0  0  0  0  0
    6.5010    0.6251   17.5192 N   0  0  0  0  0  0  0  0  0  0  0  0
    7.0768   -0.0095   18.5438 C   0  0  0  0  0  0  0  0  0  0  0  0
    7.9762   -0.5798   18.3182 H   0  0  0  0  0  0  0  0  0  0  0  0
    4.9386    1.8291   16.8971 H   0  0  0  0  0  0  0  0  0  0  0  0
    3.8428    1.9353   19.1309 H   0  0  0  0  0  0  0  0  0  0  0  0
    4.9747    0.8239   21.1096 H   0  0  0  0  0  0  0  0  0  0  0  0
    8.5513    1.6279   22.8809 H   0  0  0  0  0  0  0  0  0  0  0  0
    7.0835    1.9464   21.9270 H   0  0  0  0  0  0  0  0  0  0  0  0
    5.3104    1.2849   23.7621 N   0  0  0  0  0  0  0  0  0  0  0  0
    4.8844    1.0922   24.9637 C   0  0  0  0  0  0  0  0  0  0  0  0
    5.8494    0.9313   25.8892 O   0  0  0  0  0  0  0  0  0  0  0  0
    3.8619    1.0214   25.3178 H   0  0  0  0  0  0  0  0  0  0  0  0
    8.7265   -0.1745   25.5130 H   0  0  0  0  0  0  0  0  0  0  0  0
    8.1669    0.6799   26.9702 H   0  0  0  0  0  0  0  0  0  0  0  0
    9.0492    1.5409   25.6884 H   0  0  0  0  0  0  0  0  0  0  0  0
  1  2  1  0
  2  3  2  0
  3  4  1  0
  4  5  1  0
  5  6  2  0
  6  7  1  0
  7  8  1  0
  8  9  1  0
  9 10  1  0
 10 11  1  0
 11 12  1  0
 12 13  1  0
 12 14  1  0
 11 15  1  0
 11 16  1  0
 10 17  1  0
 10 18  1  0
  9 19  1  0
  9 20  1  0
  8 21  1  0
  7 22  2  0
 22 23  1  0
 23 24  1  0
 24 25  2  0
 25 26  1  0
 26 27  2  0
 27 28  1  0
 28 29  2  0
 29 30  1  0
 27 31  1  0
 26 32  1  0
 25 33  1  0
  4 34  1  0
  4 35  1  0
  3 36  1  0
 36 37  2  0
 37 38  1  0
 37 39  1  0
  1 40  1  0
  1 41  1  0
  1 42  1  0
 38  2  1  0
 23  5  1  0
 29 24  1  0
 12  8  1  0
M  END
>  <cnnaffinity>  (1) 
-5.8632

>  <filename>  (1) 
Cc1ocnc1Cc1nc(C2CCCC2)nn1-c1cccnc1

$$$$
