
     RDKit          3D

 42 45  0  0  0  0  0  0  0  0999 V2000
   12.2211    1.0510   23.8992 C   0  0  0  0  0  0  0  0  0  0  0  0
   11.9929    0.2930   22.6362 C   0  0  0  0  0  0  0  0  0  0  0  0
   11.1118    0.3062   21.5985 C   0  0  0  0  0  0  0  0  0  0  0  0
    9.9852    1.2013   21.1893 C   0  0  0  0  0  0  0  0  0  0  0  0
    8.8535    1.1241   22.1436 C   0  0  0  0  0  0  0  0  0  0  0  0
    8.8112    1.8361   23.2397 N   0  0  0  0  0  0  0  0  0  0  0  0
    7.6143    1.4968   23.8075 C   0  0  0  0  0  0  0  0  0  0  0  0
    7.1927    2.1799   25.0527 C   0  0  0  0  0  0  0  0  0  0  0  0
    8.1610    2.9857   25.6959 C   0  0  0  0  0  0  0  0  0  0  0  0
    7.8874    3.6830   26.8664 C   0  0  0  0  0  0  0  0  0  0  0  0
    6.6216    3.5844   27.4458 C   0  0  0  0  0  0  0  0  0  0  0  0
    5.6356    2.8038   26.8394 C   0  0  0  0  0  0  0  0  0  0  0  0
    5.9135    2.1094   25.6504 C   0  0  0  0  0  0  0  0  0  0  0  0
    4.6213    1.1617   24.9735 Cl  0  0  0  0  0  0  0  0  0  0  0  0
    4.6480    2.7264   27.2846 H   0  0  0  0  0  0  0  0  0  0  0  0
    6.4061    4.1147   28.3691 H   0  0  0  0  0  0  0  0  0  0  0  0
    8.6576    4.3061   27.3084 H   0  0  0  0  0  0  0  0  0  0  0  0
    9.1473    3.0515   25.2474 H   0  0  0  0  0  0  0  0  0  0  0  0
    6.9616    0.5653   23.1291 N   0  0  0  0  0  0  0  0  0  0  0  0
    7.7844    0.2991   22.0831 N   0  0  0  0  0  0  0  0  0  0  0  0
    7.4107   -0.6582   21.0396 C   0  0  0  0  0  0  0  0  0  0  0  0
    6.7015   -0.0126   19.8612 C   0  0  0  0  0  0  0  0  0  0  0  0
    5.4883    0.6562   20.0745 C   0  0  0  0  0  0  0  0  0  0  0  0
    4.8787    1.2991   18.9966 C   0  0  0  0  0  0  0  0  0  0  0  0
    5.4948    1.2453   17.7430 C   0  0  0  0  0  0  0  0  0  0  0  0
    6.6376    0.5836   17.5091 N   0  0  0  0  0  0  0  0  0  0  0  0
    7.2163   -0.0245   18.5540 C   0  0  0  0  0  0  0  0  0  0  0  0
    8.1460   -0.5519   18.3272 H   0  0  0  0  0  0  0  0  0  0  0  0
    5.0467    1.7494   16.8885 H   0  0  0  0  0  0  0  0  0  0  0  0
    3.9556    1.8552   19.1181 H   0  0  0  0  0  0  0  0  0  0  0  0
    5.0542    0.6874   21.0772 H   0  0  0  0  0  0  0  0  0  0  0  0
    8.3184   -1.1860   20.7250 H   0  0  0  0  0  0  0  0  0  0  0  0
    6.7628   -1.3942   21.5268 H   0  0  0  0  0  0  0  0  0  0  0  0
   10.2980    2.2484   21.1342 H   0  0  0  0  0  0  0  0  0  0  0  0
    9.6490    0.9023   20.1967 H   0  0  0  0  0  0  0  0  0  0  0  0
   11.2729   -0.8529   20.8631 N   0  0  0  0  0  0  0  0  0  0  0  0
   12.2345   -1.4814   21.4402 C   0  0  0  0  0  0  0  0  0  0  0  0
   12.7350   -0.8568   22.5158 O   0  0  0  0  0  0  0  0  0  0  0  0
   12.6820   -2.4251   21.1723 H   0  0  0  0  0  0  0  0  0  0  0  0
   13.1071    0.6701   24.4117 H   0  0  0  0  0  0  0  0  0  0  0  0
   11.3507    0.8945   24.5463 H   0  0  0  0  0  0  0  0  0  0  0  0
   12.3306    2.1233   23.7316 H   0  0  0  0  0  0  0  0  0  0  0  0
  1  2  1  0
  2  3  2  0
  3  4  1  0
  4  5  1  0
  5  6  2  0
  6  7  1  0
  7  8  1  0
  8  9  2  0
  9 10  1  0
 10 11  2  0
 11 12  1  0
 12 13  2  0
 13 14  1  0
 12 15  1  0
 11 16  1  0
 10 17  1  0
  9 18  1  0
  7 19  2  0
 19 20  1  0
 20 21  1  0
 21 22  1  0
 22 23  2  0
 23 24  1  0
 24 25  2  0
 25 26  1  0
 26 27  2  0
 27 28  1  0
 25 29  1  0
 24 30  1  0
 23 31  1  0
 21 32  1  0
 21 33  1  0
  4 34  1  0
  4 35  1  0
  3 36  1  0
 36 37  2  0
 37 38  1  0
 37 39  1  0
  1 40  1  0
  1 41  1  0
  1 42  1  0
 38  2  1  0
 20  5  1  0
 27 22  1  0
 13  8  1  0
M  END
>  <cnnaffinity>  (1) 
-6.63322

>  <filename>  (1) 
Cc1ocnc1Cc1nc(-c2ccccc2Cl)nn1Cc1cccnc1

$$$$
