
     RDKit          3D

 42 45  0  0  0  0  0  0  0  0999 V2000
   12.1489    1.0152   23.9308 C   0  0  0  0  0  0  0  0  0  0  0  0
   11.8735    0.2577   22.6766 C   0  0  0  0  0  0  0  0  0  0  0  0
   11.0137    0.3042   21.6225 C   0  0  0  0  0  0  0  0  0  0  0  0
    9.9257    1.2527   21.2122 C   0  0  0  0  0  0  0  0  0  0  0  0
    8.7801    1.1734   22.1618 C   0  0  0  0  0  0  0  0  0  0  0  0
    8.7393    1.8569   23.2770 N   0  0  0  0  0  0  0  0  0  0  0  0
    7.6313    1.3739   23.9104 C   0  0  0  0  0  0  0  0  0  0  0  0
    7.2355    1.8808   25.2468 C   0  0  0  0  0  0  0  0  0  0  0  0
    8.0228    2.8811   25.8585 C   0  0  0  0  0  0  0  0  0  0  0  0
    7.6584    3.4141   27.0938 C   0  0  0  0  0  0  0  0  0  0  0  0
    6.5215    2.9376   27.7531 C   0  0  0  0  0  0  0  0  0  0  0  0
    5.7487    1.9258   27.1702 C   0  0  0  0  0  0  0  0  0  0  0  0
    6.0983    1.3954   25.9250 C   0  0  0  0  0  0  0  0  0  0  0  0
    5.4955    0.6054   25.4778 H   0  0  0  0  0  0  0  0  0  0  0  0
    4.8671    1.5537   27.6854 H   0  0  0  0  0  0  0  0  0  0  0  0
    6.2413    3.3522   28.7177 H   0  0  0  0  0  0  0  0  0  0  0  0
    8.2569    4.2090   27.5310 H   0  0  0  0  0  0  0  0  0  0  0  0
    8.9205    3.2323   25.3523 H   0  0  0  0  0  0  0  0  0  0  0  0
    7.0033    0.4289   23.2269 N   0  0  0  0  0  0  0  0  0  0  0  0
    7.7591    0.2923   22.1105 N   0  0  0  0  0  0  0  0  0  0  0  0
    7.3793   -0.6420   21.0496 C   0  0  0  0  0  0  0  0  0  0  0  0
    6.6656    0.0202   19.8874 C   0  0  0  0  0  0  0  0  0  0  0  0
    5.4486    0.6775   20.1095 C   0  0  0  0  0  0  0  0  0  0  0  0
    4.8273    1.3185   19.0363 C   0  0  0  0  0  0  0  0  0  0  0  0
    5.4465    1.2809   17.7826 C   0  0  0  0  0  0  0  0  0  0  0  0
    6.5953    0.6294   17.5426 N   0  0  0  0  0  0  0  0  0  0  0  0
    7.1770    0.0137   18.5808 C   0  0  0  0  0  0  0  0  0  0  0  0
    8.1016   -0.5260   18.3576 H   0  0  0  0  0  0  0  0  0  0  0  0
    4.9963    1.7862   16.9299 H   0  0  0  0  0  0  0  0  0  0  0  0
    3.8920    1.8550   19.1615 H   0  0  0  0  0  0  0  0  0  0  0  0
    5.0150    0.6937   21.1117 H   0  0  0  0  0  0  0  0  0  0  0  0
    8.2842   -1.1629   20.7143 H   0  0  0  0  0  0  0  0  0  0  0  0
    6.7259   -1.3820   21.5215 H   0  0  0  0  0  0  0  0  0  0  0  0
   10.2652    2.2942   21.1791 H   0  0  0  0  0  0  0  0  0  0  0  0
    9.5945    0.9656   20.2130 H   0  0  0  0  0  0  0  0  0  0  0  0
   11.1512   -0.8575   20.8821 N   0  0  0  0  0  0  0  0  0  0  0  0
   12.0917   -1.5150   21.4682 C   0  0  0  0  0  0  0  0  0  0  0  0
   12.5807   -0.9143   22.5604 O   0  0  0  0  0  0  0  0  0  0  0  0
   12.5259   -2.4677   21.2021 H   0  0  0  0  0  0  0  0  0  0  0  0
   13.1166    0.7006   24.3299 H   0  0  0  0  0  0  0  0  0  0  0  0
   12.1436    2.0933   23.7546 H   0  0  0  0  0  0  0  0  0  0  0  0
   11.3783    0.7800   24.6762 H   0  0  0  0  0  0  0  0  0  0  0  0
  1  2  1  0
  2  3  2  0
  3  4  1  0
  4  5  1  0
  5  6  2  0
  6  7  1  0
  7  8  1  0
  8  9  2  0
  9 10  1  0
 10 11  2  0
 11 12  1  0
 12 13  2  0
 13 14  1  0
 12 15  1  0
 11 16  1  0
 10 17  1  0
  9 18  1  0
  7 19  2  0
 19 20  1  0
 20 21  1  0
 21 22  1  0
 22 23  2  0
 23 24  1  0
 24 25  2  0
 25 26  1  0
 26 27  2  0
 27 28  1  0
 25 29  1  0
 24 30  1  0
 23 31  1  0
 21 32  1  0
 21 33  1  0
  4 34  1  0
  4 35  1  0
  3 36  1  0
 36 37  2  0
 37 38  1  0
 37 39  1  0
  1 40  1  0
  1 41  1  0
  1 42  1  0
 38  2  1  0
 20  5  1  0
 27 22  1  0
 13  8  1  0
M  END
>  <cnnaffinity>  (1) 
-5.91007

>  <filename>  (1) 
Cc1ocnc1Cc1nc(-c2ccccc2)nn1Cc1cccnc1

$$$$
