
     RDKit          3D

 42 45  0  0  0  0  0  0  0  0999 V2000
   12.1846    1.0177   23.9402 C   0  0  0  0  0  0  0  0  0  0  0  0
   11.9029    0.2749   22.6792 C   0  0  0  0  0  0  0  0  0  0  0  0
   10.9982    0.2916   21.6576 C   0  0  0  0  0  0  0  0  0  0  0  0
    9.9262    1.2401   21.2091 C   0  0  0  0  0  0  0  0  0  0  0  0
    8.7704    1.1944   22.1400 C   0  0  0  0  0  0  0  0  0  0  0  0
    8.7319    1.8898   23.2483 N   0  0  0  0  0  0  0  0  0  0  0  0
    7.6351    1.4037   23.8943 C   0  0  0  0  0  0  0  0  0  0  0  0
    7.2510    1.9209   25.2207 C   0  0  0  0  0  0  0  0  0  0  0  0
    6.1044    1.4574   25.8983 C   0  0  0  0  0  0  0  0  0  0  0  0
    5.7524    2.0001   27.1342 C   0  0  0  0  0  0  0  0  0  0  0  0
    6.5527    2.9973   27.6855 C   0  0  0  0  0  0  0  0  0  0  0  0
    6.2110    3.5264   28.8690 F   0  0  0  0  0  0  0  0  0  0  0  0
    7.6985    3.4688   27.0509 C   0  0  0  0  0  0  0  0  0  0  0  0
    8.0513    2.9140   25.8251 C   0  0  0  0  0  0  0  0  0  0  0  0
    8.9535    3.2496   25.3171 H   0  0  0  0  0  0  0  0  0  0  0  0
    8.2779    4.2618   27.5082 H   0  0  0  0  0  0  0  0  0  0  0  0
    4.8691    1.6735   27.6712 H   0  0  0  0  0  0  0  0  0  0  0  0
    5.4916    0.6747   25.4548 H   0  0  0  0  0  0  0  0  0  0  0  0
    7.0069    0.4467   23.2274 N   0  0  0  0  0  0  0  0  0  0  0  0
    7.7552    0.3021   22.1072 N   0  0  0  0  0  0  0  0  0  0  0  0
    7.3777   -0.6340   21.0502 C   0  0  0  0  0  0  0  0  0  0  0  0
    6.6644    0.0233   19.8836 C   0  0  0  0  0  0  0  0  0  0  0  0
    5.4469    0.6814   20.1084 C   0  0  0  0  0  0  0  0  0  0  0  0
    4.8242    1.3219   19.0374 C   0  0  0  0  0  0  0  0  0  0  0  0
    5.4415    1.2843   17.7835 C   0  0  0  0  0  0  0  0  0  0  0  0
    6.5891    0.6320   17.5394 N   0  0  0  0  0  0  0  0  0  0  0  0
    7.1715    0.0130   18.5748 C   0  0  0  0  0  0  0  0  0  0  0  0
    8.0967   -0.5259   18.3482 H   0  0  0  0  0  0  0  0  0  0  0  0
    4.9913    1.7907   16.9332 H   0  0  0  0  0  0  0  0  0  0  0  0
    3.8873    1.8554   19.1644 H   0  0  0  0  0  0  0  0  0  0  0  0
    5.0189    0.7008   21.1131 H   0  0  0  0  0  0  0  0  0  0  0  0
    6.7248   -1.3715   21.5270 H   0  0  0  0  0  0  0  0  0  0  0  0
    8.2863   -1.1563   20.7266 H   0  0  0  0  0  0  0  0  0  0  0  0
    9.5983    0.9272   20.2160 H   0  0  0  0  0  0  0  0  0  0  0  0
   10.2835    2.2753   21.1480 H   0  0  0  0  0  0  0  0  0  0  0  0
   11.1143   -0.8878   20.9407 N   0  0  0  0  0  0  0  0  0  0  0  0
   12.0911   -1.5179   21.4985 C   0  0  0  0  0  0  0  0  0  0  0  0
   12.6252   -0.8869   22.5491 O   0  0  0  0  0  0  0  0  0  0  0  0
   12.5302   -2.4624   21.2371 H   0  0  0  0  0  0  0  0  0  0  0  0
   12.2070    2.0995   23.7904 H   0  0  0  0  0  0  0  0  0  0  0  0
   13.1463    0.6752   24.3319 H   0  0  0  0  0  0  0  0  0  0  0  0
   11.4135    0.7807   24.6868 H   0  0  0  0  0  0  0  0  0  0  0  0
  1  2  1  0
  2  3  2  0
  3  4  1  0
  4  5  1  0
  5  6  2  0
  6  7  1  0
  7  8  1  0
  8  9  2  0
  9 10  1  0
 10 11  2  0
 11 12  1  0
 11 13  1  0
 13 14  2  0
 14 15  1  0
 13 16  1  0
 10 17  1  0
  9 18  1  0
  7 19  2  0
 19 20  1  0
 20 21  1  0
 21 22  1  0
 22 23  2  0
 23 24  1  0
 24 25  2  0
 25 26  1  0
 26 27  2  0
 27 28  1  0
 25 29  1  0
 24 30  1  0
 23 31  1  0
 21 32  1  0
 21 33  1  0
  4 34  1  0
  4 35  1  0
  3 36  1  0
 36 37  2  0
 37 38  1  0
 37 39  1  0
  1 40  1  0
  1 41  1  0
  1 42  1  0
 38  2  1  0
 20  5  1  0
 27 22  1  0
 14  8  1  0
M  END
>  <cnnaffinity>  (1) 
-6.00019

>  <filename>  (1) 
Cc1ocnc1Cc1nc(-c2ccc(F)cc2)nn1Cc1cccnc1

$$$$
