
     RDKit          3D

 41 44  0  0  0  0  0  0  0  0999 V2000
   12.3963   -1.3089   21.5604 C   0  0  0  0  0  0  0  0  0  0  0  0
   11.8454    0.0244   21.9337 C   0  0  0  0  0  0  0  0  0  0  0  0
   10.7117    0.6931   21.5906 C   0  0  0  0  0  0  0  0  0  0  0  0
    9.6180    0.1951   20.6747 C   0  0  0  0  0  0  0  0  0  0  0  0
    8.5632   -0.6314   21.3533 C   0  0  0  0  0  0  0  0  0  0  0  0
    8.7672   -1.4647   22.3546 N   0  0  0  0  0  0  0  0  0  0  0  0
    7.5564   -2.0357   22.5481 C   0  0  0  0  0  0  0  0  0  0  0  0
    7.3767   -3.0494   23.6391 C   0  0  0  0  0  0  0  0  0  0  0  0
    6.8411   -4.4174   23.1549 C   0  0  0  0  0  0  0  0  0  0  0  0
    5.3169   -4.2069   23.1867 C   0  0  0  0  0  0  0  0  0  0  0  0
    5.0651   -3.1137   24.0521 O   0  0  0  0  0  0  0  0  0  0  0  0
    6.2659   -2.6412   24.6214 C   0  0  0  0  0  0  0  0  0  0  0  0
    6.1759   -1.5587   24.7568 H   0  0  0  0  0  0  0  0  0  0  0  0
    6.4535   -3.0953   25.6104 H   0  0  0  0  0  0  0  0  0  0  0  0
    4.9453   -3.9524   22.1887 H   0  0  0  0  0  0  0  0  0  0  0  0
    4.7814   -5.0953   23.5474 H   0  0  0  0  0  0  0  0  0  0  0  0
    7.2060   -4.6986   22.1586 H   0  0  0  0  0  0  0  0  0  0  0  0
    7.1483   -5.2014   23.8617 H   0  0  0  0  0  0  0  0  0  0  0  0
    8.3503   -3.1296   24.1276 H   0  0  0  0  0  0  0  0  0  0  0  0
    6.6100   -1.6228   21.7252 N   0  0  0  0  0  0  0  0  0  0  0  0
    7.2709   -0.7458   20.9227 N   0  0  0  0  0  0  0  0  0  0  0  0
    6.5887   -0.0674   19.8756 C   0  0  0  0  0  0  0  0  0  0  0  0
    5.3881    0.5982   20.1370 C   0  0  0  0  0  0  0  0  0  0  0  0
    4.7931    1.3068   19.0887 C   0  0  0  0  0  0  0  0  0  0  0  0
    5.3950    1.3063   17.8245 C   0  0  0  0  0  0  0  0  0  0  0  0
    6.5290    0.6397   17.5602 N   0  0  0  0  0  0  0  0  0  0  0  0
    7.1024   -0.0281   18.5679 C   0  0  0  0  0  0  0  0  0  0  0  0
    8.0295   -0.5484   18.3363 H   0  0  0  0  0  0  0  0  0  0  0  0
    4.9551    1.8580   16.9940 H   0  0  0  0  0  0  0  0  0  0  0  0
    3.8744    1.8609   19.2418 H   0  0  0  0  0  0  0  0  0  0  0  0
    4.9518    0.5626   21.1355 H   0  0  0  0  0  0  0  0  0  0  0  0
   10.0332   -0.4665   19.9012 H   0  0  0  0  0  0  0  0  0  0  0  0
    9.1394    1.0353   20.1635 H   0  0  0  0  0  0  0  0  0  0  0  0
   10.6741    1.8646   22.4259 C   0  0  0  0  0  0  0  0  0  0  0  0
   11.7789    1.8076   23.2053 C   0  0  0  0  0  0  0  0  0  0  0  0
   12.5105    0.7037   22.9061 O   0  0  0  0  0  0  0  0  0  0  0  0
   12.1418    2.3940   24.0406 H   0  0  0  0  0  0  0  0  0  0  0  0
    9.9124    2.6380   22.4579 H   0  0  0  0  0  0  0  0  0  0  0  0
   11.6682   -2.0847   21.8305 H   0  0  0  0  0  0  0  0  0  0  0  0
   13.3422   -1.4722   22.0832 H   0  0  0  0  0  0  0  0  0  0  0  0
   12.5461   -1.3949   20.4810 H   0  0  0  0  0  0  0  0  0  0  0  0
  1  2  1  0
  2  3  2  0
  3  4  1  0
  4  5  1  0
  5  6  2  0
  6  7  1  0
  7  8  1  0
  8  9  1  0
  9 10  1  0
 10 11  1  0
 11 12  1  0
 12 13  1  0
 12 14  1  0
 10 15  1  0
 10 16  1  0
  9 17  1  0
  9 18  1  0
  8 19  1  0
  7 20  2  0
 20 21  1  0
 21 22  1  0
 22 23  2  0
 23 24  1  0
 24 25  2  0
 25 26  1  0
 26 27  2  0
 27 28  1  0
 25 29  1  0
 24 30  1  0
 23 31  1  0
  4 32  1  0
  4 33  1  0
  3 34  1  0
 34 35  2  0
 35 36  1  0
 35 37  1  0
 34 38  1  0
  1 39  1  0
  1 40  1  0
  1 41  1  0
 36  2  1  0
 21  5  1  0
 27 22  1  0
 12  8  1  0
M  END
>  <cnnaffinity>  (1) 
-6.07944

>  <filename>  (1) 
Cc1occc1Cc1nc(C2CCOC2)nn1-c1cccnc1

$$$$
