
     RDKit          3D

 41 44  0  0  0  0  0  0  0  0999 V2000
   12.4148   -1.2805   21.5052 C   0  0  0  0  0  0  0  0  0  0  0  0
   11.8626    0.0375   21.9204 C   0  0  0  0  0  0  0  0  0  0  0  0
   10.7258    0.6955   21.5766 C   0  0  0  0  0  0  0  0  0  0  0  0
    9.6350    0.1936   20.6600 C   0  0  0  0  0  0  0  0  0  0  0  0
    8.5863   -0.6344   21.3341 C   0  0  0  0  0  0  0  0  0  0  0  0
    8.7820   -1.4680   22.3337 N   0  0  0  0  0  0  0  0  0  0  0  0
    7.5526   -2.0045   22.5493 C   0  0  0  0  0  0  0  0  0  0  0  0
    7.3916   -3.0737   23.6149 C   0  0  0  0  0  0  0  0  0  0  0  0
    7.3704   -4.5114   23.0351 C   0  0  0  0  0  0  0  0  0  0  0  0
    5.8671   -4.7779   22.9081 C   0  0  0  0  0  0  0  0  0  0  0  0
    5.2831   -4.0125   24.0977 C   0  0  0  0  0  0  0  0  0  0  0  0
    6.2106   -2.9734   24.3983 O   0  0  0  0  0  0  0  0  0  0  0  0
    4.3145   -3.5478   23.8729 H   0  0  0  0  0  0  0  0  0  0  0  0
    5.1657   -4.6466   24.9897 H   0  0  0  0  0  0  0  0  0  0  0  0
    5.6113   -5.8415   22.9330 H   0  0  0  0  0  0  0  0  0  0  0  0
    5.4954   -4.3450   21.9732 H   0  0  0  0  0  0  0  0  0  0  0  0
    7.9117   -4.5862   22.0859 H   0  0  0  0  0  0  0  0  0  0  0  0
    7.8466   -5.1982   23.7468 H   0  0  0  0  0  0  0  0  0  0  0  0
    8.2452   -2.9057   24.2766 H   0  0  0  0  0  0  0  0  0  0  0  0
    6.6231   -1.6005   21.7033 N   0  0  0  0  0  0  0  0  0  0  0  0
    7.2892   -0.7224   20.9065 N   0  0  0  0  0  0  0  0  0  0  0  0
    6.6197   -0.0292   19.8618 C   0  0  0  0  0  0  0  0  0  0  0  0
    5.4128    0.6251   20.1303 C   0  0  0  0  0  0  0  0  0  0  0  0
    4.8007    1.3142   19.0828 C   0  0  0  0  0  0  0  0  0  0  0  0
    5.3939    1.3097   17.8162 C   0  0  0  0  0  0  0  0  0  0  0  0
    6.5374    0.6608   17.5432 N   0  0  0  0  0  0  0  0  0  0  0  0
    7.1349    0.0139   18.5514 C   0  0  0  0  0  0  0  0  0  0  0  0
    8.0726   -0.4891   18.3087 H   0  0  0  0  0  0  0  0  0  0  0  0
    4.9357    1.8443   16.9905 H   0  0  0  0  0  0  0  0  0  0  0  0
    3.8771    1.8529   19.2468 H   0  0  0  0  0  0  0  0  0  0  0  0
    4.9941    0.5797   21.1359 H   0  0  0  0  0  0  0  0  0  0  0  0
    9.1535    1.0346   20.1583 H   0  0  0  0  0  0  0  0  0  0  0  0
   10.0564   -0.4537   19.8801 H   0  0  0  0  0  0  0  0  0  0  0  0
   10.6642    1.8443   22.4373 C   0  0  0  0  0  0  0  0  0  0  0  0
   11.7625    1.7886   23.2242 C   0  0  0  0  0  0  0  0  0  0  0  0
   12.5129    0.7000   22.9138 O   0  0  0  0  0  0  0  0  0  0  0  0
   12.1085    2.3734   24.0598 H   0  0  0  0  0  0  0  0  0  0  0  0
    9.8882    2.5958   22.4828 H   0  0  0  0  0  0  0  0  0  0  0  0
   13.3463   -1.4966   22.0311 H   0  0  0  0  0  0  0  0  0  0  0  0
   11.6657   -2.0493   21.7313 H   0  0  0  0  0  0  0  0  0  0  0  0
   12.5869   -1.3172   20.4259 H   0  0  0  0  0  0  0  0  0  0  0  0
  1  2  1  0
  2  3  2  0
  3  4  1  0
  4  5  1  0
  5  6  2  0
  6  7  1  0
  7  8  1  0
  8  9  1  0
  9 10  1  0
 10 11  1  0
 11 12  1  0
 11 13  1  0
 11 14  1  0
 10 15  1  0
 10 16  1  0
  9 17  1  0
  9 18  1  0
  8 19  1  0
  7 20  2  0
 20 21  1  0
 21 22  1  0
 22 23  2  0
 23 24  1  0
 24 25  2  0
 25 26  1  0
 26 27  2  0
 27 28  1  0
 25 29  1  0
 24 30  1  0
 23 31  1  0
  4 32  1  0
  4 33  1  0
  3 34  1  0
 34 35  2  0
 35 36  1  0
 35 37  1  0
 34 38  1  0
  1 39  1  0
  1 40  1  0
  1 41  1  0
 36  2  1  0
 21  5  1  0
 27 22  1  0
 12  8  1  0
M  END
>  <cnnaffinity>  (1) 
-6.21577

>  <filename>  (1) 
Cc1occc1Cc1nc(C2CCCO2)nn1-c1cccnc1

$$$$
