
     RDKit          3D

 42 45  0  0  0  0  0  0  0  0999 V2000
    8.7619    1.5195   25.8520 C   0  0  0  0  0  0  0  0  0  0  0  0
    7.3769    1.2024   25.4109 C   0  0  0  0  0  0  0  0  0  0  0  0
    6.6613    1.3735   24.2714 C   0  0  0  0  0  0  0  0  0  0  0  0
    7.0489    1.9973   22.9697 C   0  0  0  0  0  0  0  0  0  0  0  0
    8.0530    1.1247   22.3064 C   0  0  0  0  0  0  0  0  0  0  0  0
    9.3453    1.1885   22.5357 N   0  0  0  0  0  0  0  0  0  0  0  0
    9.8316    0.0913   21.8946 C   0  0  0  0  0  0  0  0  0  0  0  0
   11.2708   -0.2886   21.9192 C   0  0  0  0  0  0  0  0  0  0  0  0
   11.6998   -1.4042   21.1776 C   0  0  0  0  0  0  0  0  0  0  0  0
   13.0576   -1.6866   21.1220 C   0  0  0  0  0  0  0  0  0  0  0  0
   13.5335   -2.5635   20.2329 F   0  0  0  0  0  0  0  0  0  0  0  0
   13.9789   -1.0495   21.9375 C   0  0  0  0  0  0  0  0  0  0  0  0
   13.5252    0.0118   22.7061 C   0  0  0  0  0  0  0  0  0  0  0  0
   14.3947    0.6355   23.5060 F   0  0  0  0  0  0  0  0  0  0  0  0
   12.2024    0.4353   22.6881 C   0  0  0  0  0  0  0  0  0  0  0  0
   11.9144    1.2903   23.2902 H   0  0  0  0  0  0  0  0  0  0  0  0
   14.9899   -1.4043   21.9880 H   0  0  0  0  0  0  0  0  0  0  0  0
   10.9628   -2.0601   20.7304 H   0  0  0  0  0  0  0  0  0  0  0  0
    8.8938   -0.6365   21.3024 N   0  0  0  0  0  0  0  0  0  0  0  0
    7.7514    0.0240   21.5947 N   0  0  0  0  0  0  0  0  0  0  0  0
    6.4502   -0.4758   21.1420 C   0  0  0  0  0  0  0  0  0  0  0  0
    5.9706    0.1669   19.8548 C   0  0  0  0  0  0  0  0  0  0  0  0
    4.7960    0.9230   19.7536 C   0  0  0  0  0  0  0  0  0  0  0  0
    4.5041    1.5538   18.5401 C   0  0  0  0  0  0  0  0  0  0  0  0
    5.3923    1.4076   17.4721 C   0  0  0  0  0  0  0  0  0  0  0  0
    6.4947    0.6429   17.5317 N   0  0  0  0  0  0  0  0  0  0  0  0
    6.7631    0.0435   18.6985 C   0  0  0  0  0  0  0  0  0  0  0  0
    7.6659   -0.5661   18.7341 H   0  0  0  0  0  0  0  0  0  0  0  0
    5.2196    1.9279   16.5313 H   0  0  0  0  0  0  0  0  0  0  0  0
    3.6194    2.1690   18.4123 H   0  0  0  0  0  0  0  0  0  0  0  0
    4.1209    1.0406   20.6059 H   0  0  0  0  0  0  0  0  0  0  0  0
    6.5738   -1.5560   21.0217 H   0  0  0  0  0  0  0  0  0  0  0  0
    5.7327   -0.3206   21.9543 H   0  0  0  0  0  0  0  0  0  0  0  0
    6.1542    2.1105   22.3525 H   0  0  0  0  0  0  0  0  0  0  0  0
    7.5120    2.9791   23.1059 H   0  0  0  0  0  0  0  0  0  0  0  0
    5.4523    0.7045   24.3803 N   0  0  0  0  0  0  0  0  0  0  0  0
    5.4847    0.1777   25.5616 C   0  0  0  0  0  0  0  0  0  0  0  0
    6.6143    0.4264   26.2487 O   0  0  0  0  0  0  0  0  0  0  0  0
    4.7277   -0.4150   26.0581 H   0  0  0  0  0  0  0  0  0  0  0  0
    9.4334    0.6901   25.6071 H   0  0  0  0  0  0  0  0  0  0  0  0
    9.1425    2.3922   25.3164 H   0  0  0  0  0  0  0  0  0  0  0  0
    8.7987    1.6717   26.9308 H   0  0  0  0  0  0  0  0  0  0  0  0
  1  2  1  0
  2  3  2  0
  3  4  1  0
  4  5  1  0
  5  6  2  0
  6  7  1  0
  7  8  1  0
  8  9  2  0
  9 10  1  0
 10 11  1  0
 10 12  2  0
 12 13  1  0
 13 14  1  0
 13 15  2  0
 15 16  1  0
 12 17  1  0
  9 18  1  0
  7 19  2  0
 19 20  1  0
 20 21  1  0
 21 22  1  0
 22 23  2  0
 23 24  1  0
 24 25  2  0
 25 26  1  0
 26 27  2  0
 27 28  1  0
 25 29  1  0
 24 30  1  0
 23 31  1  0
 21 32  1  0
 21 33  1  0
  4 34  1  0
  4 35  1  0
  3 36  1  0
 36 37  2  0
 37 38  1  0
 37 39  1  0
  1 40  1  0
  1 41  1  0
  1 42  1  0
 38  2  1  0
 20  5  1  0
 27 22  1  0
 15  8  1  0
M  END
>  <cnnaffinity>  (1) 
-6.5154

>  <filename>  (1) 
Cc1ocnc1Cc1nc(-c2cc(F)cc(F)c2)nn1Cc1cccnc1

$$$$
