
     RDKit          3D

 42 45  0  0  0  0  0  0  0  0999 V2000
   11.2001   -1.2900   21.7896 C   0  0  0  0  0  0  0  0  0  0  0  0
   11.7690    0.0961   21.9366 C   0  0  0  0  0  0  0  0  0  0  0  0
   11.1995    1.2827   21.5821 C   0  0  0  0  0  0  0  0  0  0  0  0
    9.7847    1.4578   21.0847 C   0  0  0  0  0  0  0  0  0  0  0  0
    8.7606    1.1719   22.1326 C   0  0  0  0  0  0  0  0  0  0  0  0
    8.6821    1.8453   23.2606 N   0  0  0  0  0  0  0  0  0  0  0  0
    7.6401    1.2634   23.9024 C   0  0  0  0  0  0  0  0  0  0  0  0
    7.1830    1.7376   25.2014 C   0  0  0  0  0  0  0  0  0  0  0  0
    6.0600    1.2218   25.8745 C   0  0  0  0  0  0  0  0  0  0  0  0
    5.7710    1.7849   27.1080 C   0  0  0  0  0  0  0  0  0  0  0  0
    4.7301    1.3341   27.8189 F   0  0  0  0  0  0  0  0  0  0  0  0
    6.5671    2.8187   27.6280 C   0  0  0  0  0  0  0  0  0  0  0  0
    7.6170    3.3177   26.9638 N   0  0  0  0  0  0  0  0  0  0  0  0
    7.9166    2.7855   25.7744 C   0  0  0  0  0  0  0  0  0  0  0  0
    8.7645    3.1923   25.2307 H   0  0  0  0  0  0  0  0  0  0  0  0
    6.3399    3.2391   28.6053 H   0  0  0  0  0  0  0  0  0  0  0  0
    5.4443    0.4202   25.4578 H   0  0  0  0  0  0  0  0  0  0  0  0
    7.0740    0.2774   23.2377 N   0  0  0  0  0  0  0  0  0  0  0  0
    7.7903    0.2269   22.0929 N   0  0  0  0  0  0  0  0  0  0  0  0
    7.3753   -0.6874   21.0367 C   0  0  0  0  0  0  0  0  0  0  0  0
    6.6582   -0.0038   19.8898 C   0  0  0  0  0  0  0  0  0  0  0  0
    5.4522    0.6683   20.1325 C   0  0  0  0  0  0  0  0  0  0  0  0
    4.8221    1.3168   19.0691 C   0  0  0  0  0  0  0  0  0  0  0  0
    5.4265    1.2920   17.8075 C   0  0  0  0  0  0  0  0  0  0  0  0
    6.5725    0.6424   17.5515 N   0  0  0  0  0  0  0  0  0  0  0  0
    7.1586    0.0137   18.5797 C   0  0  0  0  0  0  0  0  0  0  0  0
    8.0823   -0.5154   18.3414 H   0  0  0  0  0  0  0  0  0  0  0  0
    4.9663    1.8127   16.9680 H   0  0  0  0  0  0  0  0  0  0  0  0
    3.8847    1.8470   19.2038 H   0  0  0  0  0  0  0  0  0  0  0  0
    5.0219    0.6922   21.1380 H   0  0  0  0  0  0  0  0  0  0  0  0
    6.6980   -1.3957   21.5217 H   0  0  0  0  0  0  0  0  0  0  0  0
    8.2420   -1.2597   20.6905 H   0  0  0  0  0  0  0  0  0  0  0  0
    9.6514    2.5093   20.8095 H   0  0  0  0  0  0  0  0  0  0  0  0
    9.5820    0.8572   20.1972 H   0  0  0  0  0  0  0  0  0  0  0  0
   12.0223    2.4111   21.8918 C   0  0  0  0  0  0  0  0  0  0  0  0
   13.1804    2.0683   22.5111 C   0  0  0  0  0  0  0  0  0  0  0  0
   13.3055    0.3635   22.6979 S   0  0  0  0  0  0  0  0  0  0  0  0
   13.9877    2.7139   22.8345 H   0  0  0  0  0  0  0  0  0  0  0  0
   11.7332    3.4333   21.6578 H   0  0  0  0  0  0  0  0  0  0  0  0
   10.6288   -1.3654   20.8568 H   0  0  0  0  0  0  0  0  0  0  0  0
   11.9750   -2.0628   21.7975 H   0  0  0  0  0  0  0  0  0  0  0  0
   10.4949   -1.4937   22.6076 H   0  0  0  0  0  0  0  0  0  0  0  0
  1  2  1  0
  2  3  2  0
  3  4  1  0
  4  5  1  0
  5  6  2  0
  6  7  1  0
  7  8  1  0
  8  9  2  0
  9 10  1  0
 10 11  1  0
 10 12  2  0
 12 13  1  0
 13 14  2  0
 14 15  1  0
 12 16  1  0
  9 17  1  0
  7 18  2  0
 18 19  1  0
 19 20  1  0
 20 21  1  0
 21 22  2  0
 22 23  1  0
 23 24  2  0
 24 25  1  0
 25 26  2  0
 26 27  1  0
 24 28  1  0
 23 29  1  0
 22 30  1  0
 20 31  1  0
 20 32  1  0
  4 33  1  0
  4 34  1  0
  3 35  1  0
 35 36  2  0
 36 37  1  0
 36 38  1  0
 35 39  1  0
  1 40  1  0
  1 41  1  0
  1 42  1  0
 37  2  1  0
 19  5  1  0
 26 21  1  0
 14  8  1  0
M  END
>  <cnnaffinity>  (1) 
-6.25768

>  <filename>  (1) 
Cc1sccc1Cc1nc(-c2cncc(F)c2)nn1Cc1cccnc1

$$$$
