
     RDKit          3D

 45 48  0  0  0  0  0  0  0  0999 V2000
    6.9513    0.2955   25.1540 C   0  0  0  0  0  0  0  0  0  0  0  0
    7.4502    1.7132   25.2659 C   0  0  0  0  0  0  0  0  0  0  0  0
    7.6679    2.5969   24.2514 C   0  0  0  0  0  0  0  0  0  0  0  0
    7.5105    2.2455   22.7876 C   0  0  0  0  0  0  0  0  0  0  0  0
    8.4468    1.1521   22.3658 C   0  0  0  0  0  0  0  0  0  0  0  0
    9.7675    1.1916   22.4774 N   0  0  0  0  0  0  0  0  0  0  0  0
   10.1517   -0.0496   22.0813 C   0  0  0  0  0  0  0  0  0  0  0  0
   11.5261   -0.5316   21.8782 C   0  0  0  0  0  0  0  0  0  0  0  0
   12.6887    0.1311   22.3183 C   0  0  0  0  0  0  0  0  0  0  0  0
   13.9441   -0.2716   21.8458 C   0  0  0  0  0  0  0  0  0  0  0  0
   14.0190   -1.2663   20.8450 C   0  0  0  0  0  0  0  0  0  0  0  0
   15.0762   -1.4015   19.9651 N   0  0  0  0  0  0  0  0  0  0  0  0
   15.0617   -2.3020   19.5107 H   0  0  0  0  0  0  0  0  0  0  0  0
   15.9924   -1.2418   20.3467 H   0  0  0  0  0  0  0  0  0  0  0  0
   12.8863   -2.0131   20.5298 C   0  0  0  0  0  0  0  0  0  0  0  0
   11.6672   -1.6832   21.0807 C   0  0  0  0  0  0  0  0  0  0  0  0
   10.7785   -2.2597   20.8312 H   0  0  0  0  0  0  0  0  0  0  0  0
   12.9807   -2.7712   19.7525 H   0  0  0  0  0  0  0  0  0  0  0  0
   14.8416    0.2618   22.1383 H   0  0  0  0  0  0  0  0  0  0  0  0
   12.5999    0.9912   22.9832 H   0  0  0  0  0  0  0  0  0  0  0  0
    9.1382   -0.8276   21.7254 N   0  0  0  0  0  0  0  0  0  0  0  0
    8.0512   -0.0674   21.9259 N   0  0  0  0  0  0  0  0  0  0  0  0
    6.7720   -0.5522   21.4033 C   0  0  0  0  0  0  0  0  0  0  0  0
    6.3351    0.1503   20.1348 C   0  0  0  0  0  0  0  0  0  0  0  0
    5.1050    0.7951   19.9979 C   0  0  0  0  0  0  0  0  0  0  0  0
    4.8077    1.4329   18.7897 C   0  0  0  0  0  0  0  0  0  0  0  0
    5.7534    1.3983   17.7631 C   0  0  0  0  0  0  0  0  0  0  0  0
    6.9297    0.7631   17.8637 N   0  0  0  0  0  0  0  0  0  0  0  0
    7.2024    0.1621   19.0270 C   0  0  0  0  0  0  0  0  0  0  0  0
    8.1614   -0.3532   19.0870 H   0  0  0  0  0  0  0  0  0  0  0  0
    5.5658    1.9067   16.8187 H   0  0  0  0  0  0  0  0  0  0  0  0
    3.8758    1.9638   18.6392 H   0  0  0  0  0  0  0  0  0  0  0  0
    4.3914    0.8091   20.8233 H   0  0  0  0  0  0  0  0  0  0  0  0
    6.9432   -1.6179   21.2163 H   0  0  0  0  0  0  0  0  0  0  0  0
    6.0165   -0.4819   22.1900 H   0  0  0  0  0  0  0  0  0  0  0  0
    6.4802    1.9578   22.5529 H   0  0  0  0  0  0  0  0  0  0  0  0
    7.7278    3.1241   22.1763 H   0  0  0  0  0  0  0  0  0  0  0  0
    8.2350    3.8309   24.6988 C   0  0  0  0  0  0  0  0  0  0  0  0
    8.4270    3.8640   26.0445 C   0  0  0  0  0  0  0  0  0  0  0  0
    7.9165    2.3989   26.7858 S   0  0  0  0  0  0  0  0  0  0  0  0
    8.8602    4.6523   26.6425 H   0  0  0  0  0  0  0  0  0  0  0  0
    8.4915    4.6352   24.0152 H   0  0  0  0  0  0  0  0  0  0  0  0
    7.6602   -0.3144   24.5794 H   0  0  0  0  0  0  0  0  0  0  0  0
    6.8036   -0.1767   26.1262 H   0  0  0  0  0  0  0  0  0  0  0  0
    6.0071    0.2586   24.5962 H   0  0  0  0  0  0  0  0  0  0  0  0
  1  2  1  0
  2  3  2  0
  3  4  1  0
  4  5  1  0
  5  6  2  0
  6  7  1  0
  7  8  1  0
  8  9  2  0
  9 10  1  0
 10 11  2  0
 11 12  1  0
 12 13  1  0
 12 14  1  0
 11 15  1  0
 15 16  2  0
 16 17  1  0
 15 18  1  0
 10 19  1  0
  9 20  1  0
  7 21  2  0
 21 22  1  0
 22 23  1  0
 23 24  1  0
 24 25  2  0
 25 26  1  0
 26 27  2  0
 27 28  1  0
 28 29  2  0
 29 30  1  0
 27 31  1  0
 26 32  1  0
 25 33  1  0
 23 34  1  0
 23 35  1  0
  4 36  1  0
  4 37  1  0
  3 38  1  0
 38 39  2  0
 39 40  1  0
 39 41  1  0
 38 42  1  0
  1 43  1  0
  1 44  1  0
  1 45  1  0
 40  2  1  0
 22  5  1  0
 29 24  1  0
 16  8  1  0
M  END
>  <cnnaffinity>  (1) 
-6.63279

>  <filename>  (1) 
Cc1sccc1Cc1nc(-c2ccc(N)cc2)nn1Cc1cccnc1

$$$$
