
     RDKit          3D

 42 45  0  0  0  0  0  0  0  0999 V2000
   11.2036   -1.2677   21.7902 C   0  0  0  0  0  0  0  0  0  0  0  0
   11.7669    0.1201   21.9415 C   0  0  0  0  0  0  0  0  0  0  0  0
   11.1876    1.3003   21.5828 C   0  0  0  0  0  0  0  0  0  0  0  0
    9.7701    1.4609   21.0832 C   0  0  0  0  0  0  0  0  0  0  0  0
    8.7504    1.1429   22.1270 C   0  0  0  0  0  0  0  0  0  0  0  0
    8.6641    1.8119   23.2537 N   0  0  0  0  0  0  0  0  0  0  0  0
    7.6136    1.2310   23.9086 C   0  0  0  0  0  0  0  0  0  0  0  0
    7.1644    1.7544   25.2524 C   0  0  0  0  0  0  0  0  0  0  0  0
    7.8973    2.8144   25.8331 C   0  0  0  0  0  0  0  0  0  0  0  0
    7.5245    3.3063   27.0794 C   0  0  0  0  0  0  0  0  0  0  0  0
    6.4266    2.7284   27.7159 C   0  0  0  0  0  0  0  0  0  0  0  0
    5.7411    1.6997   27.0649 C   0  0  0  0  0  0  0  0  0  0  0  0
    6.0824    1.2229   25.8645 N   0  0  0  0  0  0  0  0  0  0  0  0
    4.8809    1.2272   27.5361 H   0  0  0  0  0  0  0  0  0  0  0  0
    6.1100    3.0562   28.6975 H   0  0  0  0  0  0  0  0  0  0  0  0
    8.0865    4.1171   27.5395 H   0  0  0  0  0  0  0  0  0  0  0  0
    8.7425    3.2216   25.2905 H   0  0  0  0  0  0  0  0  0  0  0  0
    7.0605    0.2388   23.2242 N   0  0  0  0  0  0  0  0  0  0  0  0
    7.7772    0.1972   22.0832 N   0  0  0  0  0  0  0  0  0  0  0  0
    7.3733   -0.7131   21.0126 C   0  0  0  0  0  0  0  0  0  0  0  0
    6.6612   -0.0182   19.8676 C   0  0  0  0  0  0  0  0  0  0  0  0
    5.4588    0.6568   20.1225 C   0  0  0  0  0  0  0  0  0  0  0  0
    4.8230    1.3121   19.0678 C   0  0  0  0  0  0  0  0  0  0  0  0
    5.4167    1.2950   17.8029 C   0  0  0  0  0  0  0  0  0  0  0  0
    6.5586    0.6446   17.5353 N   0  0  0  0  0  0  0  0  0  0  0  0
    7.1536    0.0064   18.5533 C   0  0  0  0  0  0  0  0  0  0  0  0
    8.0761   -0.5164   18.2938 H   0  0  0  0  0  0  0  0  0  0  0  0
    4.9565    1.8292   16.9720 H   0  0  0  0  0  0  0  0  0  0  0  0
    3.8895    1.8421   19.2120 H   0  0  0  0  0  0  0  0  0  0  0  0
    5.0435    0.6796   21.1345 H   0  0  0  0  0  0  0  0  0  0  0  0
    8.2498   -1.2754   20.6730 H   0  0  0  0  0  0  0  0  0  0  0  0
    6.7010   -1.4352   21.4878 H   0  0  0  0  0  0  0  0  0  0  0  0
    9.5756    0.8650   20.1893 H   0  0  0  0  0  0  0  0  0  0  0  0
    9.6208    2.5162   20.8237 H   0  0  0  0  0  0  0  0  0  0  0  0
   12.0057    2.4342   21.8844 C   0  0  0  0  0  0  0  0  0  0  0  0
   13.1652    2.1004   22.5096 C   0  0  0  0  0  0  0  0  0  0  0  0
   13.3001    0.3989   22.7071 S   0  0  0  0  0  0  0  0  0  0  0  0
   13.9683    2.7506   22.8286 H   0  0  0  0  0  0  0  0  0  0  0  0
   11.7100    3.4500   21.6417 H   0  0  0  0  0  0  0  0  0  0  0  0
   10.6302   -1.3395   20.8577 H   0  0  0  0  0  0  0  0  0  0  0  0
   11.9782   -2.0418   21.7896 H   0  0  0  0  0  0  0  0  0  0  0  0
   10.5025   -1.4710   22.6122 H   0  0  0  0  0  0  0  0  0  0  0  0
  1  2  1  0
  2  3  2  0
  3  4  1  0
  4  5  1  0
  5  6  2  0
  6  7  1  0
  7  8  1  0
  8  9  2  0
  9 10  1  0
 10 11  2  0
 11 12  1  0
 12 13  2  0
 12 14  1  0
 11 15  1  0
 10 16  1  0
  9 17  1  0
  7 18  2  0
 18 19  1  0
 19 20  1  0
 20 21  1  0
 21 22  2  0
 22 23  1  0
 23 24  2  0
 24 25  1  0
 25 26  2  0
 26 27  1  0
 24 28  1  0
 23 29  1  0
 22 30  1  0
 20 31  1  0
 20 32  1  0
  4 33  1  0
  4 34  1  0
  3 35  1  0
 35 36  2  0
 36 37  1  0
 36 38  1  0
 35 39  1  0
  1 40  1  0
  1 41  1  0
  1 42  1  0
 37  2  1  0
 19  5  1  0
 26 21  1  0
 13  8  1  0
M  END
>  <cnnaffinity>  (1) 
-6.09366

>  <filename>  (1) 
Cc1sccc1Cc1nc(-c2ccccn2)nn1Cc1cccnc1

$$$$
