
     RDKit          3D

 42 45  0  0  0  0  0  0  0  0999 V2000
    9.7111    1.3208   25.2426 C   0  0  0  0  0  0  0  0  0  0  0  0
    8.2814    0.8633   25.1676 C   0  0  0  0  0  0  0  0  0  0  0  0
    7.3525    1.0922   24.1908 C   0  0  0  0  0  0  0  0  0  0  0  0
    7.6577    1.8322   22.8952 C   0  0  0  0  0  0  0  0  0  0  0  0
    8.6906    1.1233   22.0681 C   0  0  0  0  0  0  0  0  0  0  0  0
    9.9924    1.3242   22.1559 N   0  0  0  0  0  0  0  0  0  0  0  0
   10.5265    0.1884   21.6247 C   0  0  0  0  0  0  0  0  0  0  0  0
   11.9679   -0.1743   21.8119 C   0  0  0  0  0  0  0  0  0  0  0  0
   12.5248   -1.3528   21.2664 C   0  0  0  0  0  0  0  0  0  0  0  0
   13.8301   -1.7140   21.6027 C   0  0  0  0  0  0  0  0  0  0  0  0
   14.5931   -1.0245   22.4620 N   0  0  0  0  0  0  0  0  0  0  0  0
   14.0773    0.0997   22.9687 C   0  0  0  0  0  0  0  0  0  0  0  0
   12.8059    0.5854   22.6513 C   0  0  0  0  0  0  0  0  0  0  0  0
   12.5039    1.5603   23.0112 H   0  0  0  0  0  0  0  0  0  0  0  0
   14.7052    0.6521   23.6603 H   0  0  0  0  0  0  0  0  0  0  0  0
   14.2689   -2.6084   21.1587 H   0  0  0  0  0  0  0  0  0  0  0  0
   11.9658   -1.9980   20.6074 H   0  0  0  0  0  0  0  0  0  0  0  0
    9.6242   -0.6337   21.1139 N   0  0  0  0  0  0  0  0  0  0  0  0
    8.4506   -0.0278   21.4068 N   0  0  0  0  0  0  0  0  0  0  0  0
    7.1783   -0.6422   21.0410 C   0  0  0  0  0  0  0  0  0  0  0  0
    6.4524    0.0573   19.9090 C   0  0  0  0  0  0  0  0  0  0  0  0
    5.2233    0.7127   20.0482 C   0  0  0  0  0  0  0  0  0  0  0  0
    4.6826    1.3777   18.9424 C   0  0  0  0  0  0  0  0  0  0  0  0
    5.3883    1.3519   17.7354 C   0  0  0  0  0  0  0  0  0  0  0  0
    6.5486    0.6994   17.5712 N   0  0  0  0  0  0  0  0  0  0  0  0
    7.0571    0.0783   18.6409 C   0  0  0  0  0  0  0  0  0  0  0  0
    8.0036   -0.4395   18.4960 H   0  0  0  0  0  0  0  0  0  0  0  0
    5.0114    1.8771   16.8595 H   0  0  0  0  0  0  0  0  0  0  0  0
    3.7536    1.9334   19.0031 H   0  0  0  0  0  0  0  0  0  0  0  0
    4.6951    0.7233   21.0061 H   0  0  0  0  0  0  0  0  0  0  0  0
    6.5553   -0.6788   21.9400 H   0  0  0  0  0  0  0  0  0  0  0  0
    7.4200   -1.6741   20.7692 H   0  0  0  0  0  0  0  0  0  0  0  0
    8.0476    2.8337   23.1012 H   0  0  0  0  0  0  0  0  0  0  0  0
    6.7452    1.9646   22.3079 H   0  0  0  0  0  0  0  0  0  0  0  0
    6.0941    0.4845   24.4888 C   0  0  0  0  0  0  0  0  0  0  0  0
    6.1015   -0.2326   25.6447 C   0  0  0  0  0  0  0  0  0  0  0  0
    7.6332   -0.1456   26.4206 S   0  0  0  0  0  0  0  0  0  0  0  0
    5.3042   -0.8238   26.0726 H   0  0  0  0  0  0  0  0  0  0  0  0
    5.2163    0.6012   23.8600 H   0  0  0  0  0  0  0  0  0  0  0  0
    9.8300    2.2836   24.7361 H   0  0  0  0  0  0  0  0  0  0  0  0
   10.0760    1.3987   26.2684 H   0  0  0  0  0  0  0  0  0  0  0  0
   10.3457    0.6064   24.7036 H   0  0  0  0  0  0  0  0  0  0  0  0
  1  2  1  0
  2  3  2  0
  3  4  1  0
  4  5  1  0
  5  6  2  0
  6  7  1  0
  7  8  1  0
  8  9  2  0
  9 10  1  0
 10 11  2  0
 11 12  1  0
 12 13  2  0
 13 14  1  0
 12 15  1  0
 10 16  1  0
  9 17  1  0
  7 18  2  0
 18 19  1  0
 19 20  1  0
 20 21  1  0
 21 22  2  0
 22 23  1  0
 23 24  2  0
 24 25  1  0
 25 26  2  0
 26 27  1  0
 24 28  1  0
 23 29  1  0
 22 30  1  0
 20 31  1  0
 20 32  1  0
  4 33  1  0
  4 34  1  0
  3 35  1  0
 35 36  2  0
 36 37  1  0
 36 38  1  0
 35 39  1  0
  1 40  1  0
  1 41  1  0
  1 42  1  0
 37  2  1  0
 19  5  1  0
 26 21  1  0
 13  8  1  0
M  END
>  <cnnaffinity>  (1) 
-6.51164

>  <filename>  (1) 
Cc1sccc1Cc1nc(-c2ccncc2)nn1Cc1cccnc1

$$$$
