
     RDKit          3D

 31 33  0  0  0  0  0  0  0  0999 V2000
    4.9154    1.7751   17.0023 H   0  0  0  0  0  0  0  0  0  0  0  0
    5.4045    1.2901   17.8425 C   0  0  0  0  0  0  0  0  0  0  0  0
    6.5702    0.6784   17.5771 N   0  0  0  0  0  0  0  0  0  0  0  0
    7.1752    0.0567   18.5899 C   0  0  0  0  0  0  0  0  0  0  0  0
    8.1251   -0.4348   18.3747 H   0  0  0  0  0  0  0  0  0  0  0  0
    6.6472    0.0104   19.8897 C   0  0  0  0  0  0  0  0  0  0  0  0
    7.4037   -0.7006   20.9169 C   0  0  0  0  0  0  0  0  0  0  0  0
    8.3303   -1.6008   20.6984 N   0  0  0  0  0  0  0  0  0  0  0  0
    8.8379   -2.0264   21.9051 N   0  0  0  0  0  0  0  0  0  0  0  0
    8.2064   -1.3369   22.8178 C   0  0  0  0  0  0  0  0  0  0  0  0
    8.3030   -1.0408   24.5267 S   0  0  0  0  0  0  0  0  0  0  0  0
    7.0844    0.2350   24.3006 C   0  0  0  0  0  0  0  0  0  0  0  0
    6.6477    1.0772   25.4712 C   0  0  1  0  0  0  0  0  0  0  0  0
    5.8435    1.7116   25.0790 H   0  0  0  0  0  0  0  0  0  0  0  0
    6.0752    0.2178   26.6059 C   0  0  0  0  0  0  0  0  0  0  0  0
    5.2707   -0.4283   26.2404 H   0  0  0  0  0  0  0  0  0  0  0  0
    5.6700    0.8574   27.3952 H   0  0  0  0  0  0  0  0  0  0  0  0
    6.8531   -0.4167   27.0452 H   0  0  0  0  0  0  0  0  0  0  0  0
    7.7881    1.9882   25.9726 C   0  0  0  0  0  0  0  0  0  0  0  0
    8.6273    1.3670   26.3134 H   0  0  0  0  0  0  0  0  0  0  0  0
    7.4339    2.5372   26.8527 H   0  0  0  0  0  0  0  0  0  0  0  0
    8.2703    2.9767   24.9194 C   0  0  0  0  0  0  0  0  0  0  0  0
    7.4405    3.5973   24.5618 H   0  0  0  0  0  0  0  0  0  0  0  0
    9.0346    3.6401   25.3326 H   0  0  0  0  0  0  0  0  0  0  0  0
    8.6997    2.4643   24.0518 H   0  0  0  0  0  0  0  0  0  0  0  0
    6.6487    0.3912   23.0992 N   0  0  0  0  0  0  0  0  0  0  0  0
    7.2714   -0.5137   22.2749 N   0  0  0  0  0  0  0  0  0  0  0  0
    5.4324    0.6514   20.1597 C   0  0  0  0  0  0  0  0  0  0  0  0
    5.0071    0.6344   21.1655 H   0  0  0  0  0  0  0  0  0  0  0  0
    4.8040    1.3090   19.1078 C   0  0  0  0  0  0  0  0  0  0  0  0
    3.8735    1.8439   19.2622 H   0  0  0  0  0  0  0  0  0  0  0  0
  1  2  1  0
  2  3  2  0
  3  4  1  0
  4  5  1  0
  4  6  2  0
  6  7  1  0
  7  8  2  0
  8  9  1  0
  9 10  2  0
 10 11  1  0
 11 12  1  0
 12 13  1  0
 13 14  1  6
 13 15  1  0
 15 16  1  0
 15 17  1  0
 15 18  1  0
 13 19  1  0
 19 20  1  0
 19 21  1  0
 19 22  1  0
 22 23  1  0
 22 24  1  0
 22 25  1  0
 12 26  2  0
 26 27  1  0
  6 28  1  0
 28 29  1  0
 28 30  2  0
 30 31  1  0
 30  2  1  0
 27  7  1  0
 27 10  1  0
M  END
>  <cnnaffinity>  (1) 
-5.02229

>  <filename>  (1) 
CC[C@H](C)c1nn2c(-c3cccnc3)nnc2s1

$$$$
