
     RDKit          3D

 45 47  0  0  0  0  0  0  0  0999 V2000
   10.2904    0.9259   25.8262 C   0  0  0  0  0  0  0  0  0  0  0  0
    9.4007    0.8550   24.5861 C   0  0  0  0  0  0  0  0  0  0  0  0
    8.4619   -0.3691   24.6293 C   0  0  0  0  0  0  0  0  0  0  0  0
    7.4724   -0.3342   25.8190 C   0  0  0  0  0  0  0  0  0  0  0  0
    8.0123   -0.3660   26.7725 H   0  0  0  0  0  0  0  0  0  0  0  0
    6.8039   -1.2024   25.8056 H   0  0  0  0  0  0  0  0  0  0  0  0
    6.8543    0.5729   25.8139 H   0  0  0  0  0  0  0  0  0  0  0  0
    7.7836   -0.6677   23.3151 C   0  0  0  0  0  0  0  0  0  0  0  0
    7.4485    0.1859   22.3663 N   0  0  0  0  0  0  0  0  0  0  0  0
    6.9899   -0.6192   21.3673 N   0  0  0  0  0  0  0  0  0  0  0  0
    6.5103    0.0127   20.1660 C   0  0  0  0  0  0  0  0  0  0  0  0
    5.3267    0.7630   20.1918 C   0  0  0  0  0  0  0  0  0  0  0  0
    4.9137    1.4003   19.0131 C   0  0  0  0  0  0  0  0  0  0  0  0
    5.7144    1.3035   17.8690 C   0  0  0  0  0  0  0  0  0  0  0  0
    6.8651    0.6158   17.8423 N   0  0  0  0  0  0  0  0  0  0  0  0
    7.2522   -0.0051   18.9681 C   0  0  0  0  0  0  0  0  0  0  0  0
    8.2014   -0.5355   18.9052 H   0  0  0  0  0  0  0  0  0  0  0  0
    5.4170    1.8067   16.9472 H   0  0  0  0  0  0  0  0  0  0  0  0
    3.9964    1.9805   18.9829 H   0  0  0  0  0  0  0  0  0  0  0  0
    4.7637    0.8569   21.1210 H   0  0  0  0  0  0  0  0  0  0  0  0
    7.0809   -1.9293   21.7814 C   0  0  0  0  0  0  0  0  0  0  0  0
    6.9273   -3.1595   20.9346 C   0  0  0  0  0  0  0  0  0  0  0  0
    8.1089   -4.1169   21.1512 C   0  0  0  0  0  0  0  0  0  0  0  0
    8.0828   -4.9258   20.4144 H   0  0  0  0  0  0  0  0  0  0  0  0
    9.0424   -3.5598   21.0277 H   0  0  0  0  0  0  0  0  0  0  0  0
    8.0970   -4.5607   22.1540 H   0  0  0  0  0  0  0  0  0  0  0  0
    5.5859   -3.9032   21.0276 C   0  0  0  0  0  0  0  0  0  0  0  0
    5.1569   -4.5201   22.3304 C   0  0  0  0  0  0  0  0  0  0  0  0
    5.1015   -4.1082   23.6341 C   0  0  0  0  0  0  0  0  0  0  0  0
    4.4779   -5.0386   24.4330 N   0  0  0  0  0  0  0  0  0  0  0  0
    4.1529   -6.0135   23.6299 C   0  0  0  0  0  0  0  0  0  0  0  0
    4.5453   -5.7578   22.3554 N   0  0  0  0  0  0  0  0  0  0  0  0
    4.3424   -6.3413   21.5614 H   0  0  0  0  0  0  0  0  0  0  0  0
    3.6540   -6.9378   23.9045 H   0  0  0  0  0  0  0  0  0  0  0  0
    5.4945   -3.1973   24.0597 H   0  0  0  0  0  0  0  0  0  0  0  0
    4.8124   -3.2140   20.6982 H   0  0  0  0  0  0  0  0  0  0  0  0
    5.6249   -4.7020   20.2719 H   0  0  0  0  0  0  0  0  0  0  0  0
    6.9220   -2.7662   19.9172 H   0  0  0  0  0  0  0  0  0  0  0  0
    7.5502   -1.9655   23.0103 N   0  0  0  0  0  0  0  0  0  0  0  0
    9.0932   -1.2600   24.7606 H   0  0  0  0  0  0  0  0  0  0  0  0
    8.8007    1.7720   24.4975 H   0  0  0  0  0  0  0  0  0  0  0  0
   10.0202    0.8050   23.6816 H   0  0  0  0  0  0  0  0  0  0  0  0
   10.9941    1.7611   25.7794 H   0  0  0  0  0  0  0  0  0  0  0  0
    9.6689    1.0569   26.7145 H   0  0  0  0  0  0  0  0  0  0  0  0
   10.8714    0.0044   25.9641 H   0  0  0  0  0  0  0  0  0  0  0  0
  1  2  1  0
  2  3  1  0
  3  4  1  0
  4  5  1  0
  4  6  1  0
  4  7  1  0
  3  8  1  0
  8  9  2  0
  9 10  1  0
 10 11  1  0
 11 12  2  0
 12 13  1  0
 13 14  2  0
 14 15  1  0
 15 16  2  0
 16 17  1  0
 14 18  1  0
 13 19  1  0
 12 20  1  0
 10 21  1  0
 21 22  1  0
 22 23  1  0
 23 24  1  0
 23 25  1  0
 23 26  1  0
 22 27  1  0
 27 28  1  0
 28 29  2  0
 29 30  1  0
 30 31  2  0
 31 32  1  0
 32 33  1  0
 31 34  1  0
 29 35  1  0
 27 36  1  0
 27 37  1  0
 22 38  1  0
 21 39  2  0
  3 40  1  0
  2 41  1  0
  2 42  1  0
  1 43  1  0
  1 44  1  0
  1 45  1  0
 39  8  1  0
 16 11  1  0
 32 28  1  0
M  END
>  <cnnaffinity>  (1) 
-5.58854

>  <filename>  (1) 
CCC(C)c1nc(C(C)Cc2cnc[nH]2)n(-c2cccnc2)n1

$$$$
