
     RDKit          3D

 42 44  0  0  0  0  0  0  0  0999 V2000
    5.7574   -1.1875   24.9737 C   0  0  0  0  0  0  0  0  0  0  0  0
    7.0457   -2.0042   25.0730 C   0  0  0  0  0  0  0  0  0  0  0  0
    7.3979   -2.8194   23.7868 C   0  0  0  0  0  0  0  0  0  0  0  0
    6.3687   -3.9183   23.4623 C   0  0  0  0  0  0  0  0  0  0  0  0
    6.1913   -4.5584   24.3349 H   0  0  0  0  0  0  0  0  0  0  0  0
    5.4113   -3.4786   23.1524 H   0  0  0  0  0  0  0  0  0  0  0  0
    6.7203   -4.5513   22.6395 H   0  0  0  0  0  0  0  0  0  0  0  0
    7.6470   -1.9178   22.6016 C   0  0  0  0  0  0  0  0  0  0  0  0
    6.7146   -1.5441   21.7434 N   0  0  0  0  0  0  0  0  0  0  0  0
    7.3677   -0.6586   20.9458 N   0  0  0  0  0  0  0  0  0  0  0  0
    6.6679    0.0066   19.9027 C   0  0  0  0  0  0  0  0  0  0  0  0
    5.4486    0.6406   20.1610 C   0  0  0  0  0  0  0  0  0  0  0  0
    4.8140    1.3076   19.1091 C   0  0  0  0  0  0  0  0  0  0  0  0
    5.3998    1.2946   17.8376 C   0  0  0  0  0  0  0  0  0  0  0  0
    6.5543    0.6643   17.5771 N   0  0  0  0  0  0  0  0  0  0  0  0
    7.1692    0.0452   18.5902 C   0  0  0  0  0  0  0  0  0  0  0  0
    8.1104   -0.4441   18.3514 H   0  0  0  0  0  0  0  0  0  0  0  0
    4.9330    1.8006   16.9945 H   0  0  0  0  0  0  0  0  0  0  0  0
    3.8806    1.8372   19.2589 H   0  0  0  0  0  0  0  0  0  0  0  0
    5.0223    0.6017   21.1647 H   0  0  0  0  0  0  0  0  0  0  0  0
    8.6472   -0.5147   21.4000 C   0  0  0  0  0  0  0  0  0  0  0  0
    9.5391    0.6014   20.9508 C   0  0  0  0  0  0  0  0  0  0  0  0
    9.0551    2.0146   21.3983 C   0  0  0  0  0  0  0  0  0  0  0  0
    8.8118    2.1153   22.8816 C   0  0  0  0  0  0  0  0  0  0  0  0
    7.6237    1.9399   23.5360 C   0  0  0  0  0  0  0  0  0  0  0  0
    7.9338    1.9197   24.8767 N   0  0  0  0  0  0  0  0  0  0  0  0
    9.2790    2.0841   24.9688 C   0  0  0  0  0  0  0  0  0  0  0  0
    9.8375    2.2081   23.7943 N   0  0  0  0  0  0  0  0  0  0  0  0
    9.7915    2.1078   25.9209 H   0  0  0  0  0  0  0  0  0  0  0  0
    7.3084    1.7658   25.6528 H   0  0  0  0  0  0  0  0  0  0  0  0
    6.6308    1.7637   23.1526 H   0  0  0  0  0  0  0  0  0  0  0  0
    9.7988    2.7629   21.1121 H   0  0  0  0  0  0  0  0  0  0  0  0
    8.1238    2.2593   20.8733 H   0  0  0  0  0  0  0  0  0  0  0  0
   10.5415    0.3988   21.3401 H   0  0  0  0  0  0  0  0  0  0  0  0
    9.5903    0.5716   19.8627 H   0  0  0  0  0  0  0  0  0  0  0  0
    8.8639   -1.3397   22.4071 N   0  0  0  0  0  0  0  0  0  0  0  0
    8.3821   -3.2660   23.9680 H   0  0  0  0  0  0  0  0  0  0  0  0
    7.8940   -1.3417   25.2982 H   0  0  0  0  0  0  0  0  0  0  0  0
    6.9785   -2.7113   25.9132 H   0  0  0  0  0  0  0  0  0  0  0  0
    4.8897   -1.8481   24.8431 H   0  0  0  0  0  0  0  0  0  0  0  0
    5.5716   -0.5850   25.8712 H   0  0  0  0  0  0  0  0  0  0  0  0
    5.8111   -0.4933   24.1245 H   0  0  0  0  0  0  0  0  0  0  0  0
  1  2  1  0
  2  3  1  0
  3  4  1  0
  4  5  1  0
  4  6  1  0
  4  7  1  0
  3  8  1  0
  8  9  2  0
  9 10  1  0
 10 11  1  0
 11 12  2  0
 12 13  1  0
 13 14  2  0
 14 15  1  0
 15 16  2  0
 16 17  1  0
 14 18  1  0
 13 19  1  0
 12 20  1  0
 10 21  1  0
 21 22  1  0
 22 23  1  0
 23 24  1  0
 24 25  2  0
 25 26  1  0
 26 27  1  0
 27 28  2  0
 27 29  1  0
 26 30  1  0
 25 31  1  0
 23 32  1  0
 23 33  1  0
 22 34  1  0
 22 35  1  0
 21 36  2  0
  3 37  1  0
  2 38  1  0
  2 39  1  0
  1 40  1  0
  1 41  1  0
  1 42  1  0
 36  8  1  0
 16 11  1  0
 28 24  1  0
M  END
>  <cnnaffinity>  (1) 
-5.8194

>  <filename>  (1) 
CCC(C)c1nc(CCc2c[nH]cn2)n(-c2cccnc2)n1

$$$$
