
     RDKit          3D

 45 47  0  0  0  0  0  0  0  0999 V2000
    7.3450   -4.0180   24.4370 C   0  0  0  0  0  0  0  0  0  0  0  0
    7.7771   -4.4847   23.0474 C   0  0  0  0  0  0  0  0  0  0  0  0
    8.7756   -3.5194   22.3536 C   0  0  0  0  0  0  0  0  0  0  0  0
   10.0664   -3.3455   23.1823 C   0  0  0  0  0  0  0  0  0  0  0  0
    9.9274   -2.5383   23.9116 H   0  0  0  0  0  0  0  0  0  0  0  0
   10.3001   -4.2580   23.7400 H   0  0  0  0  0  0  0  0  0  0  0  0
   10.9262   -3.0999   22.5531 H   0  0  0  0  0  0  0  0  0  0  0  0
    8.1723   -2.1776   22.0319 C   0  0  0  0  0  0  0  0  0  0  0  0
    7.7555   -1.8661   20.8218 N   0  0  0  0  0  0  0  0  0  0  0  0
    7.3080   -0.5854   20.9761 N   0  0  0  0  0  0  0  0  0  0  0  0
    6.6238    0.0544   19.9141 C   0  0  0  0  0  0  0  0  0  0  0  0
    5.4093    0.7106   20.1403 C   0  0  0  0  0  0  0  0  0  0  0  0
    4.8057    1.3430   19.0494 C   0  0  0  0  0  0  0  0  0  0  0  0
    5.4256    1.3014   17.7978 C   0  0  0  0  0  0  0  0  0  0  0  0
    6.5697    0.6318   17.5678 N   0  0  0  0  0  0  0  0  0  0  0  0
    7.1414    0.0070   18.6061 C   0  0  0  0  0  0  0  0  0  0  0  0
    8.0423   -0.5660   18.3941 H   0  0  0  0  0  0  0  0  0  0  0  0
    4.9909    1.8228   16.9487 H   0  0  0  0  0  0  0  0  0  0  0  0
    3.8684    1.8707   19.1688 H   0  0  0  0  0  0  0  0  0  0  0  0
    4.9412    0.6893   21.1254 H   0  0  0  0  0  0  0  0  0  0  0  0
    7.5466   -0.1819   22.2650 C   0  0  0  0  0  0  0  0  0  0  0  0
    7.6134    1.2244   22.7783 C   0  0  0  0  0  0  0  0  0  0  0  0
    8.9747    1.9348   22.4767 C   0  0  0  0  0  0  0  0  0  0  0  0
    9.1598    2.0960   20.9716 C   0  0  0  0  0  0  0  0  0  0  0  0
   10.0671    2.6713   20.7563 H   0  0  0  0  0  0  0  0  0  0  0  0
    8.2998    2.5921   20.5239 H   0  0  0  0  0  0  0  0  0  0  0  0
    9.2424    1.1162   20.4809 H   0  0  0  0  0  0  0  0  0  0  0  0
   10.1659    1.2780   23.0674 N   0  0  0  0  0  0  0  0  0  0  0  0
   11.0223    0.4007   22.4754 C   0  0  0  0  0  0  0  0  0  0  0  0
   12.0010    0.0989   23.3875 C   0  0  0  0  0  0  0  0  0  0  0  0
   11.6424    0.8414   24.5301 C   0  0  0  0  0  0  0  0  0  0  0  0
   10.5441    1.5553   24.3306 N   0  0  0  0  0  0  0  0  0  0  0  0
   12.1525    0.8769   25.4868 H   0  0  0  0  0  0  0  0  0  0  0  0
   12.8473   -0.5638   23.2524 H   0  0  0  0  0  0  0  0  0  0  0  0
   10.8642    0.0430   21.4665 H   0  0  0  0  0  0  0  0  0  0  0  0
    8.9330    2.9135   22.9691 H   0  0  0  0  0  0  0  0  0  0  0  0
    6.8153    1.8332   22.3441 H   0  0  0  0  0  0  0  0  0  0  0  0
    7.4441    1.1973   23.8591 H   0  0  0  0  0  0  0  0  0  0  0  0
    8.0328   -1.1924   22.9539 N   0  0  0  0  0  0  0  0  0  0  0  0
    8.9498   -3.9167   21.3543 H   0  0  0  0  0  0  0  0  0  0  0  0
    6.9028   -4.6236   22.3987 H   0  0  0  0  0  0  0  0  0  0  0  0
    8.2531   -5.4754   23.1206 H   0  0  0  0  0  0  0  0  0  0  0  0
    6.6085   -4.7016   24.8733 H   0  0  0  0  0  0  0  0  0  0  0  0
    8.2104   -3.9774   25.1111 H   0  0  0  0  0  0  0  0  0  0  0  0
    6.9125   -3.0116   24.3870 H   0  0  0  0  0  0  0  0  0  0  0  0
  1  2  1  0
  2  3  1  0
  3  4  1  0
  4  5  1  0
  4  6  1  0
  4  7  1  0
  3  8  1  0
  8  9  2  0
  9 10  1  0
 10 11  1  0
 11 12  2  0
 12 13  1  0
 13 14  2  0
 14 15  1  0
 15 16  2  0
 16 17  1  0
 14 18  1  0
 13 19  1  0
 12 20  1  0
 10 21  1  0
 21 22  1  0
 22 23  1  0
 23 24  1  0
 24 25  1  0
 24 26  1  0
 24 27  1  0
 23 28  1  0
 28 29  1  0
 29 30  2  0
 30 31  1  0
 31 32  2  0
 31 33  1  0
 30 34  1  0
 29 35  1  0
 23 36  1  0
 22 37  1  0
 22 38  1  0
 21 39  2  0
  3 40  1  0
  2 41  1  0
  2 42  1  0
  1 43  1  0
  1 44  1  0
  1 45  1  0
 39  8  1  0
 16 11  1  0
 32 28  1  0
M  END
>  <cnnaffinity>  (1) 
-6.26316

>  <filename>  (1) 
CCC(C)c1nc(CC(C)n2cccn2)n(-c2cccnc2)n1

$$$$
