
     RDKit          3D

 45 47  0  0  0  0  0  0  0  0999 V2000
    6.6792   -5.4495   24.1503 C   0  0  0  0  0  0  0  0  0  0  0  0
    6.8330   -4.3680   23.0830 C   0  0  0  0  0  0  0  0  0  0  0  0
    7.2882   -3.0092   23.6589 C   0  0  0  0  0  0  0  0  0  0  0  0
    6.4061   -2.5808   24.7036 O   0  0  0  0  0  0  0  0  0  0  0  0
    5.6197   -2.1935   24.2870 H   0  0  0  0  0  0  0  0  0  0  0  0
    7.5428   -1.9796   22.5644 C   0  0  0  0  0  0  0  0  0  0  0  0
    6.6037   -1.5398   21.7393 N   0  0  0  0  0  0  0  0  0  0  0  0
    7.2866   -0.6971   20.9194 N   0  0  0  0  0  0  0  0  0  0  0  0
    6.6088   -0.0186   19.8691 C   0  0  0  0  0  0  0  0  0  0  0  0
    5.4098    0.6472   20.1345 C   0  0  0  0  0  0  0  0  0  0  0  0
    4.7956    1.3315   19.0827 C   0  0  0  0  0  0  0  0  0  0  0  0
    5.3822    1.3105   17.8138 C   0  0  0  0  0  0  0  0  0  0  0  0
    6.5155    0.6458   17.5423 N   0  0  0  0  0  0  0  0  0  0  0  0
    7.1145    0.0023   18.5527 C   0  0  0  0  0  0  0  0  0  0  0  0
    8.0416   -0.5191   18.3099 H   0  0  0  0  0  0  0  0  0  0  0  0
    4.9283    1.8486   16.9851 H   0  0  0  0  0  0  0  0  0  0  0  0
    3.8744    1.8738   19.2404 H   0  0  0  0  0  0  0  0  0  0  0  0
    4.9920    0.6169   21.1431 H   0  0  0  0  0  0  0  0  0  0  0  0
    8.5789   -0.6070   21.3592 C   0  0  0  0  0  0  0  0  0  0  0  0
    9.6483    0.2939   20.8419 C   0  0  0  0  0  0  0  0  0  0  0  0
   10.2520    1.1631   21.9285 C   0  0  0  0  0  0  0  0  0  0  0  0
   11.5268    0.8371   22.4169 C   0  0  0  0  0  0  0  0  0  0  0  0
   12.1043    1.5293   23.4811 C   0  0  0  0  0  0  0  0  0  0  0  0
   11.4112    2.5996   24.0510 C   0  0  0  0  0  0  0  0  0  0  0  0
   10.1465    2.9561   23.5802 C   0  0  0  0  0  0  0  0  0  0  0  0
    9.5685    2.2372   22.5230 C   0  0  0  0  0  0  0  0  0  0  0  0
    7.9694    2.8198   21.8855 S   0  0  0  0  0  0  0  0  0  0  0  0
    7.9102    4.3063   22.1017 O   0  0  0  0  0  0  0  0  0  0  0  0
    6.9434    2.1735   23.2203 C   0  0  0  0  0  0  0  0  0  0  0  0
    7.2665    2.6561   24.1455 H   0  0  0  0  0  0  0  0  0  0  0  0
    6.9932    1.0847   23.2933 H   0  0  0  0  0  0  0  0  0  0  0  0
    5.9302    2.5114   22.9997 H   0  0  0  0  0  0  0  0  0  0  0  0
    9.6188    3.7990   24.0222 H   0  0  0  0  0  0  0  0  0  0  0  0
   11.8624    3.1518   24.8632 H   0  0  0  0  0  0  0  0  0  0  0  0
   13.0969    1.2556   23.8359 H   0  0  0  0  0  0  0  0  0  0  0  0
   12.0741    0.0279   21.9370 H   0  0  0  0  0  0  0  0  0  0  0  0
    9.2659    0.9006   20.0220 H   0  0  0  0  0  0  0  0  0  0  0  0
   10.4289   -0.3660   20.4525 H   0  0  0  0  0  0  0  0  0  0  0  0
    8.7770   -1.4534   22.3450 N   0  0  0  0  0  0  0  0  0  0  0  0
    8.2615   -3.1374   24.1369 H   0  0  0  0  0  0  0  0  0  0  0  0
    7.5477   -4.6941   22.3149 H   0  0  0  0  0  0  0  0  0  0  0  0
    5.8756   -4.2137   22.5721 H   0  0  0  0  0  0  0  0  0  0  0  0
    5.9918   -5.1009   24.9267 H   0  0  0  0  0  0  0  0  0  0  0  0
    6.2734   -6.3697   23.7189 H   0  0  0  0  0  0  0  0  0  0  0  0
    7.6364   -5.6911   24.6303 H   0  0  0  0  0  0  0  0  0  0  0  0
  1  2  1  0
  2  3  1  0
  3  4  1  0
  4  5  1  0
  3  6  1  0
  6  7  2  0
  7  8  1  0
  8  9  1  0
  9 10  2  0
 10 11  1  0
 11 12  2  0
 12 13  1  0
 13 14  2  0
 14 15  1  0
 12 16  1  0
 11 17  1  0
 10 18  1  0
  8 19  1  0
 19 20  1  0
 20 21  1  0
 21 22  2  0
 22 23  1  0
 23 24  2  0
 24 25  1  0
 25 26  2  0
 26 27  1  0
 27 28  2  0
 27 29  1  0
 29 30  1  0
 29 31  1  0
 29 32  1  0
 25 33  1  0
 24 34  1  0
 23 35  1  0
 22 36  1  0
 20 37  1  0
 20 38  1  0
 19 39  2  0
  3 40  1  0
  2 41  1  0
  2 42  1  0
  1 43  1  0
  1 44  1  0
  1 45  1  0
 39  6  1  0
 14  9  1  0
 26 21  1  0
M  END
>  <cnnaffinity>  (1) 
-6.22948

>  <filename>  (1) 
CCC(O)c1nc(Cc2ccccc2S(C)=O)n(-c2cccnc2)n1

$$$$
