
     RDKit          3D

 45 47  0  0  0  0  0  0  0  0999 V2000
    7.2927   -1.1187   25.3777 C   0  0  0  0  0  0  0  0  0  0  0  0
    6.5431   -2.3403   24.8376 C   0  0  0  0  0  0  0  0  0  0  0  0
    7.2680   -3.0311   23.6518 C   0  0  0  0  0  0  0  0  0  0  0  0
    6.5903   -4.3591   23.2697 C   0  0  0  0  0  0  0  0  0  0  0  0
    6.4827   -4.9987   24.1549 H   0  0  0  0  0  0  0  0  0  0  0  0
    7.1756   -4.9090   22.5232 H   0  0  0  0  0  0  0  0  0  0  0  0
    5.5938   -4.1701   22.8543 H   0  0  0  0  0  0  0  0  0  0  0  0
    7.4451   -2.1093   22.4639 C   0  0  0  0  0  0  0  0  0  0  0  0
    6.4783   -1.7412   21.6390 N   0  0  0  0  0  0  0  0  0  0  0  0
    7.1138   -0.9004   20.7738 N   0  0  0  0  0  0  0  0  0  0  0  0
    6.4077   -0.2227   19.7463 C   0  0  0  0  0  0  0  0  0  0  0  0
    5.2316    0.4877   20.0196 C   0  0  0  0  0  0  0  0  0  0  0  0
    4.7136    1.3093   19.0137 C   0  0  0  0  0  0  0  0  0  0  0  0
    5.3447    1.3418   17.7645 C   0  0  0  0  0  0  0  0  0  0  0  0
    6.4087    0.5803   17.4647 N   0  0  0  0  0  0  0  0  0  0  0  0
    6.9139   -0.1906   18.4336 C   0  0  0  0  0  0  0  0  0  0  0  0
    7.7728   -0.8026   18.1604 H   0  0  0  0  0  0  0  0  0  0  0  0
    4.9810    1.9935   16.9741 H   0  0  0  0  0  0  0  0  0  0  0  0
    3.8439    1.9334   19.1847 H   0  0  0  0  0  0  0  0  0  0  0  0
    4.7648    0.4172   21.0049 H   0  0  0  0  0  0  0  0  0  0  0  0
    8.4193   -0.7882   21.1523 C   0  0  0  0  0  0  0  0  0  0  0  0
    9.4310    0.1259   20.5536 C   0  0  0  0  0  0  0  0  0  0  0  0
    9.6818    1.2621   21.4454 N   0  0  0  0  0  0  0  0  0  0  0  0
   10.8753    1.2959   22.0486 N   0  0  0  0  0  0  0  0  0  0  0  0
   10.7982    2.2350   22.9766 C   0  0  0  0  0  0  0  0  0  0  0  0
   11.9569    2.4840   23.9153 C   0  0  0  0  0  0  0  0  0  0  0  0
   11.9925    3.7784   24.2993 F   0  0  0  0  0  0  0  0  0  0  0  0
   11.8151    1.7524   25.0375 F   0  0  0  0  0  0  0  0  0  0  0  0
   13.1450    2.1818   23.3779 F   0  0  0  0  0  0  0  0  0  0  0  0
    9.5057    2.8053   23.0077 C   0  0  0  0  0  0  0  0  0  0  0  0
    8.8135    2.1710   21.9965 C   0  0  0  0  0  0  0  0  0  0  0  0
    7.3686    2.4086   21.6489 C   0  0  0  0  0  0  0  0  0  0  0  0
    7.1320    2.3340   20.5833 H   0  0  0  0  0  0  0  0  0  0  0  0
    6.7151    1.7068   22.1839 H   0  0  0  0  0  0  0  0  0  0  0  0
    7.0980    3.4117   21.9879 H   0  0  0  0  0  0  0  0  0  0  0  0
    9.0919    3.5511   23.6807 H   0  0  0  0  0  0  0  0  0  0  0  0
    9.1559    0.4887   19.5646 H   0  0  0  0  0  0  0  0  0  0  0  0
   10.3801   -0.4105   20.4719 H   0  0  0  0  0  0  0  0  0  0  0  0
    8.6557   -1.5494   22.1989 N   0  0  0  0  0  0  0  0  0  0  0  0
    8.2930   -3.2400   23.9851 H   0  0  0  0  0  0  0  0  0  0  0  0
    6.4346   -3.0876   25.6377 H   0  0  0  0  0  0  0  0  0  0  0  0
    5.5244   -2.0680   24.5299 H   0  0  0  0  0  0  0  0  0  0  0  0
    7.4943   -0.3831   24.5878 H   0  0  0  0  0  0  0  0  0  0  0  0
    8.2599   -1.4134   25.8040 H   0  0  0  0  0  0  0  0  0  0  0  0
    6.7295   -0.6072   26.1668 H   0  0  0  0  0  0  0  0  0  0  0  0
  1  2  1  0
  2  3  1  0
  3  4  1  0
  4  5  1  0
  4  6  1  0
  4  7  1  0
  3  8  1  0
  8  9  2  0
  9 10  1  0
 10 11  1  0
 11 12  2  0
 12 13  1  0
 13 14  2  0
 14 15  1  0
 15 16  2  0
 16 17  1  0
 14 18  1  0
 13 19  1  0
 12 20  1  0
 10 21  1  0
 21 22  1  0
 22 23  1  0
 23 24  1  0
 24 25  2  0
 25 26  1  0
 26 27  1  0
 26 28  1  0
 26 29  1  0
 25 30  1  0
 30 31  2  0
 31 32  1  0
 32 33  1  0
 32 34  1  0
 32 35  1  0
 30 36  1  0
 22 37  1  0
 22 38  1  0
 21 39  2  0
  3 40  1  0
  2 41  1  0
  2 42  1  0
  1 43  1  0
  1 44  1  0
  1 45  1  0
 39  8  1  0
 16 11  1  0
 31 23  1  0
M  END
>  <cnnaffinity>  (1) 
-6.56646

>  <filename>  (1) 
CCC(C)c1nc(Cn2nc(C(F)(F)F)cc2C)n(-c2cccnc2)n1

$$$$
