
     RDKit          3D

 45 47  0  0  0  0  0  0  0  0999 V2000
    8.0347   -5.0341   22.2831 C   0  0  0  0  0  0  0  0  0  0  0  0
    6.9157   -4.5102   23.1869 C   0  0  0  0  0  0  0  0  0  0  0  0
    7.2987   -3.1465   23.7955 C   0  0  0  0  0  0  0  0  0  0  0  0
    6.2886   -2.5754   24.8204 C   0  0  0  0  0  0  0  0  0  0  0  0
    6.7410   -1.2256   25.3845 C   0  0  0  0  0  0  0  0  0  0  0  0
    6.8520   -0.4813   24.5890 H   0  0  0  0  0  0  0  0  0  0  0  0
    7.7178   -1.3068   25.8750 H   0  0  0  0  0  0  0  0  0  0  0  0
    6.0296   -0.8202   26.1080 H   0  0  0  0  0  0  0  0  0  0  0  0
    6.1792   -3.2949   25.6419 H   0  0  0  0  0  0  0  0  0  0  0  0
    5.2948   -2.4800   24.3660 H   0  0  0  0  0  0  0  0  0  0  0  0
    7.6417   -2.1470   22.7141 C   0  0  0  0  0  0  0  0  0  0  0  0
    6.8072   -1.7923   21.7619 N   0  0  0  0  0  0  0  0  0  0  0  0
    7.5114   -0.8437   21.0741 N   0  0  0  0  0  0  0  0  0  0  0  0
    6.8527   -0.1516   20.0031 C   0  0  0  0  0  0  0  0  0  0  0  0
    5.6462    0.5124   20.2598 C   0  0  0  0  0  0  0  0  0  0  0  0
    5.0319    1.1898   19.2064 C   0  0  0  0  0  0  0  0  0  0  0  0
    5.6287    1.1735   17.9398 C   0  0  0  0  0  0  0  0  0  0  0  0
    6.7684    0.5165   17.6785 N   0  0  0  0  0  0  0  0  0  0  0  0
    7.3590   -0.1369   18.6886 C   0  0  0  0  0  0  0  0  0  0  0  0
    8.2705   -0.6790   18.4379 H   0  0  0  0  0  0  0  0  0  0  0  0
    5.1720    1.7070   17.1110 H   0  0  0  0  0  0  0  0  0  0  0  0
    4.1049    1.7268   19.3569 H   0  0  0  0  0  0  0  0  0  0  0  0
    5.2193    0.4914   21.2659 H   0  0  0  0  0  0  0  0  0  0  0  0
    8.7164   -0.6662   21.7010 C   0  0  0  0  0  0  0  0  0  0  0  0
    9.7022    0.4137   21.4161 C   0  0  0  0  0  0  0  0  0  0  0  0
    9.1109    1.7184   21.7983 C   0  0  0  0  0  0  0  0  0  0  0  0
    8.2515    2.4698   21.0648 C   0  0  0  0  0  0  0  0  0  0  0  0
    7.8708    3.5017   21.8984 N   0  0  0  0  0  0  0  0  0  0  0  0
    8.5097    3.3087   23.0854 C   0  0  0  0  0  0  0  0  0  0  0  0
    8.3104    4.1989   24.2585 C   0  0  0  0  0  0  0  0  0  0  0  0
    8.4776    5.2504   24.0063 H   0  0  0  0  0  0  0  0  0  0  0  0
    9.0001    3.9090   25.0508 H   0  0  0  0  0  0  0  0  0  0  0  0
    7.2919    4.0782   24.6394 H   0  0  0  0  0  0  0  0  0  0  0  0
    9.2522    2.2306   23.0582 N   0  0  0  0  0  0  0  0  0  0  0  0
    7.1413    4.1789   21.7365 H   0  0  0  0  0  0  0  0  0  0  0  0
    7.8909    2.3267   20.0608 H   0  0  0  0  0  0  0  0  0  0  0  0
   10.5932    0.2310   22.0181 H   0  0  0  0  0  0  0  0  0  0  0  0
    9.9550    0.3882   20.3598 H   0  0  0  0  0  0  0  0  0  0  0  0
    8.8363   -1.5055   22.7007 N   0  0  0  0  0  0  0  0  0  0  0  0
    8.2463   -3.2748   24.3321 H   0  0  0  0  0  0  0  0  0  0  0  0
    5.9806   -4.4130   22.6199 H   0  0  0  0  0  0  0  0  0  0  0  0
    6.7211   -5.2259   23.9954 H   0  0  0  0  0  0  0  0  0  0  0  0
    8.9736   -5.1197   22.8433 H   0  0  0  0  0  0  0  0  0  0  0  0
    8.2197   -4.3415   21.4540 H   0  0  0  0  0  0  0  0  0  0  0  0
    7.8059   -6.0129   21.8555 H   0  0  0  0  0  0  0  0  0  0  0  0
  1  2  1  0
  2  3  1  0
  3  4  1  0
  4  5  1  0
  5  6  1  0
  5  7  1  0
  5  8  1  0
  4  9  1  0
  4 10  1  0
  3 11  1  0
 11 12  2  0
 12 13  1  0
 13 14  1  0
 14 15  2  0
 15 16  1  0
 16 17  2  0
 17 18  1  0
 18 19  2  0
 19 20  1  0
 17 21  1  0
 16 22  1  0
 15 23  1  0
 13 24  1  0
 24 25  1  0
 25 26  1  0
 26 27  2  0
 27 28  1  0
 28 29  1  0
 29 30  1  0
 30 31  1  0
 30 32  1  0
 30 33  1  0
 29 34  2  0
 28 35  1  0
 27 36  1  0
 25 37  1  0
 25 38  1  0
 24 39  2  0
  3 40  1  0
  2 41  1  0
  2 42  1  0
  1 43  1  0
  1 44  1  0
  1 45  1  0
 39 11  1  0
 19 14  1  0
 34 26  1  0
M  END
>  <cnnaffinity>  (1) 
-5.96367

>  <filename>  (1) 
CCC(CC)c1nc(Cc2c[nH]c(C)n2)n(-c2cccnc2)n1

$$$$
