
     RDKit          3D

 42 44  0  0  0  0  0  0  0  0999 V2000
    8.0958   -5.0283   22.2947 C   0  0  0  0  0  0  0  0  0  0  0  0
    8.2886   -4.2899   23.6187 C   0  0  0  0  0  0  0  0  0  0  0  0
    7.2787   -3.1337   23.7272 C   0  0  0  0  0  0  0  0  0  0  0  0
    7.4421   -2.3787   25.0623 C   0  0  0  0  0  0  0  0  0  0  0  0
    7.0508   -3.2568   26.2428 C   0  0  0  0  0  0  0  0  0  0  0  0
    6.0201   -3.6033   26.1245 H   0  0  0  0  0  0  0  0  0  0  0  0
    7.1268   -2.6918   27.1764 H   0  0  0  0  0  0  0  0  0  0  0  0
    7.7114   -4.1252   26.3059 H   0  0  0  0  0  0  0  0  0  0  0  0
    8.4817   -2.0500   25.1812 H   0  0  0  0  0  0  0  0  0  0  0  0
    6.8103   -1.4828   25.0615 H   0  0  0  0  0  0  0  0  0  0  0  0
    7.5257   -2.1595   22.6103 C   0  0  0  0  0  0  0  0  0  0  0  0
    6.6588   -1.8007   21.6930 N   0  0  0  0  0  0  0  0  0  0  0  0
    7.3222   -0.8320   21.0190 N   0  0  0  0  0  0  0  0  0  0  0  0
    6.7359   -0.0879   19.9852 C   0  0  0  0  0  0  0  0  0  0  0  0
    5.4948    0.5249   20.1772 C   0  0  0  0  0  0  0  0  0  0  0  0
    4.9369    1.2339   19.1135 C   0  0  0  0  0  0  0  0  0  0  0  0
    5.6042    1.2882   17.8866 C   0  0  0  0  0  0  0  0  0  0  0  0
    6.7877    0.6781   17.6893 N   0  0  0  0  0  0  0  0  0  0  0  0
    7.3416    0.0139   18.7241 C   0  0  0  0  0  0  0  0  0  0  0  0
    8.2945   -0.4830   18.5665 H   0  0  0  0  0  0  0  0  0  0  0  0
    5.1548    1.8433   17.0693 H   0  0  0  0  0  0  0  0  0  0  0  0
    3.9940    1.7560   19.2240 H   0  0  0  0  0  0  0  0  0  0  0  0
    4.9857    0.4551   21.1382 H   0  0  0  0  0  0  0  0  0  0  0  0
    8.5735   -0.6526   21.6067 C   0  0  0  0  0  0  0  0  0  0  0  0
    9.6302    0.3910   21.4057 C   0  0  0  0  0  0  0  0  0  0  0  0
    9.2407    1.6338   22.0896 N   0  0  0  0  0  0  0  0  0  0  0  0
    9.3880    1.9488   23.4377 C   0  0  0  0  0  0  0  0  0  0  0  0
    8.8177    3.0972   23.7208 N   0  0  0  0  0  0  0  0  0  0  0  0
    8.3245    3.5832   22.5153 C   0  0  0  0  0  0  0  0  0  0  0  0
    7.4508    5.2773   22.3128 Br  0  0  0  0  0  0  0  0  0  0  0  0
    8.6003    2.6947   21.5095 C   0  0  0  0  0  0  0  0  0  0  0  0
    8.3663    2.7571   20.4599 H   0  0  0  0  0  0  0  0  0  0  0  0
    9.9244    1.3468   24.1618 H   0  0  0  0  0  0  0  0  0  0  0  0
    9.7992    0.5723   20.3451 H   0  0  0  0  0  0  0  0  0  0  0  0
   10.5654    0.0211   21.8364 H   0  0  0  0  0  0  0  0  0  0  0  0
    8.7403   -1.5113   22.5621 N   0  0  0  0  0  0  0  0  0  0  0  0
    6.2591   -3.5242   23.6536 H   0  0  0  0  0  0  0  0  0  0  0  0
    8.1531   -4.9839   24.4550 H   0  0  0  0  0  0  0  0  0  0  0  0
    9.3123   -3.8982   23.6674 H   0  0  0  0  0  0  0  0  0  0  0  0
    8.7597   -5.8942   22.2394 H   0  0  0  0  0  0  0  0  0  0  0  0
    7.0617   -5.3708   22.1995 H   0  0  0  0  0  0  0  0  0  0  0  0
    8.3192   -4.3652   21.4534 H   0  0  0  0  0  0  0  0  0  0  0  0
  1  2  1  0
  2  3  1  0
  3  4  1  0
  4  5  1  0
  5  6  1  0
  5  7  1  0
  5  8  1  0
  4  9  1  0
  4 10  1  0
  3 11  1  0
 11 12  2  0
 12 13  1  0
 13 14  1  0
 14 15  2  0
 15 16  1  0
 16 17  2  0
 17 18  1  0
 18 19  2  0
 19 20  1  0
 17 21  1  0
 16 22  1  0
 15 23  1  0
 13 24  1  0
 24 25  1  0
 25 26  1  0
 26 27  1  0
 27 28  2  0
 28 29  1  0
 29 30  1  0
 29 31  2  0
 31 32  1  0
 27 33  1  0
 25 34  1  0
 25 35  1  0
 24 36  2  0
  3 37  1  0
  2 38  1  0
  2 39  1  0
  1 40  1  0
  1 41  1  0
  1 42  1  0
 36 11  1  0
 19 14  1  0
 31 26  1  0
M  END
>  <cnnaffinity>  (1) 
-5.97602

>  <filename>  (1) 
CCC(CC)c1nc(Cn2cnc(Br)c2)n(-c2cccnc2)n1

$$$$
