
     RDKit          3D

 44 46  0  0  0  0  0  0  0  0999 V2000
    7.9942   -5.0624   22.0315 C   0  0  0  0  0  0  0  0  0  0  0  0
    6.9373   -4.4425   22.9480 C   0  0  0  0  0  0  0  0  0  0  0  0
    7.3958   -3.0993   23.5608 C   0  0  0  0  0  0  0  0  0  0  0  0
    6.4003   -2.5880   24.6281 C   0  0  0  0  0  0  0  0  0  0  0  0
    5.4134   -2.4031   24.1887 H   0  0  0  0  0  0  0  0  0  0  0  0
    6.7418   -1.6538   25.0895 H   0  0  0  0  0  0  0  0  0  0  0  0
    6.2755   -3.3281   25.4267 H   0  0  0  0  0  0  0  0  0  0  0  0
    7.6405   -2.0801   22.4790 C   0  0  0  0  0  0  0  0  0  0  0  0
    6.6945   -1.6470   21.6642 N   0  0  0  0  0  0  0  0  0  0  0  0
    7.3412   -0.7144   20.9153 N   0  0  0  0  0  0  0  0  0  0  0  0
    6.6456   -0.0246   19.8855 C   0  0  0  0  0  0  0  0  0  0  0  0
    5.4361    0.6238   20.1543 C   0  0  0  0  0  0  0  0  0  0  0  0
    4.8044    1.3072   19.1085 C   0  0  0  0  0  0  0  0  0  0  0  0
    5.3953    1.2983   17.8384 C   0  0  0  0  0  0  0  0  0  0  0  0
    6.5431    0.6588   17.5678 N   0  0  0  0  0  0  0  0  0  0  0  0
    7.1517    0.0237   18.5753 C   0  0  0  0  0  0  0  0  0  0  0  0
    8.0969   -0.4623   18.3392 H   0  0  0  0  0  0  0  0  0  0  0  0
    4.9336    1.8189   17.0029 H   0  0  0  0  0  0  0  0  0  0  0  0
    3.8731    1.8476   19.2581 H   0  0  0  0  0  0  0  0  0  0  0  0
    5.0125    0.5859   21.1597 H   0  0  0  0  0  0  0  0  0  0  0  0
    8.6283   -0.6113   21.3493 C   0  0  0  0  0  0  0  0  0  0  0  0
    9.6321    0.4205   20.9171 C   0  0  0  0  0  0  0  0  0  0  0  0
    9.9294    1.4797   21.9633 C   0  0  0  0  0  0  0  0  0  0  0  0
    9.1259    2.4891   22.3875 C   0  0  0  0  0  0  0  0  0  0  0  0
    7.7938    2.9000   21.8629 C   0  0  0  0  0  0  0  0  0  0  0  0
    7.5653    3.9535   22.0193 H   0  0  0  0  0  0  0  0  0  0  0  0
    6.9935    2.2947   22.3055 H   0  0  0  0  0  0  0  0  0  0  0  0
    7.7855    2.6777   20.7936 H   0  0  0  0  0  0  0  0  0  0  0  0
    9.6560    3.0744   23.4710 O   0  0  0  0  0  0  0  0  0  0  0  0
   10.8464    2.4396   23.8047 N   0  0  0  0  0  0  0  0  0  0  0  0
   10.9924    1.4912   22.9135 C   0  0  0  0  0  0  0  0  0  0  0  0
   12.0939    0.4905   22.9566 C   0  0  0  0  0  0  0  0  0  0  0  0
   12.7621    0.6614   23.8016 H   0  0  0  0  0  0  0  0  0  0  0  0
   12.6722    0.5159   22.0267 H   0  0  0  0  0  0  0  0  0  0  0  0
   11.6441   -0.5066   23.0442 H   0  0  0  0  0  0  0  0  0  0  0  0
    9.2784    0.8662   19.9867 H   0  0  0  0  0  0  0  0  0  0  0  0
   10.5390   -0.1394   20.6720 H   0  0  0  0  0  0  0  0  0  0  0  0
    8.8549   -1.5016   22.2977 N   0  0  0  0  0  0  0  0  0  0  0  0
    8.3820   -3.2246   24.0297 H   0  0  0  0  0  0  0  0  0  0  0  0
    6.6876   -5.1293   23.7678 H   0  0  0  0  0  0  0  0  0  0  0  0
    6.0061   -4.2618   22.3906 H   0  0  0  0  0  0  0  0  0  0  0  0
    8.2307   -4.3993   21.1898 H   0  0  0  0  0  0  0  0  0  0  0  0
    8.9254   -5.2438   22.5813 H   0  0  0  0  0  0  0  0  0  0  0  0
    7.6621   -6.0206   21.6194 H   0  0  0  0  0  0  0  0  0  0  0  0
  1  2  1  0
  2  3  1  0
  3  4  1  0
  4  5  1  0
  4  6  1  0
  4  7  1  0
  3  8  1  0
  8  9  2  0
  9 10  1  0
 10 11  1  0
 11 12  2  0
 12 13  1  0
 13 14  2  0
 14 15  1  0
 15 16  2  0
 16 17  1  0
 14 18  1  0
 13 19  1  0
 12 20  1  0
 10 21  1  0
 21 22  1  0
 22 23  1  0
 23 24  2  0
 24 25  1  0
 25 26  1  0
 25 27  1  0
 25 28  1  0
 24 29  1  0
 29 30  1  0
 30 31  2  0
 31 32  1  0
 32 33  1  0
 32 34  1  0
 32 35  1  0
 22 36  1  0
 22 37  1  0
 21 38  2  0
  3 39  1  0
  2 40  1  0
  2 41  1  0
  1 42  1  0
  1 43  1  0
  1 44  1  0
 38  8  1  0
 16 11  1  0
 31 23  1  0
M  END
>  <cnnaffinity>  (1) 
-6.05363

>  <filename>  (1) 
CCC(C)c1nc(Cc2c(C)noc2C)n(-c2cccnc2)n1

$$$$
