
     RDKit          3D

 42 44  0  0  0  0  0  0  0  0999 V2000
   10.0844    1.2373   23.7935 C   0  0  0  0  0  0  0  0  0  0  0  0
   10.3284   -0.2288   24.1385 C   0  0  0  0  0  0  0  0  0  0  0  0
   10.3460   -1.1774   22.9093 C   0  0  0  0  0  0  0  0  0  0  0  0
   11.5208   -0.9353   21.9520 C   0  0  0  0  0  0  0  0  0  0  0  0
   12.4824   -0.9467   22.4767 H   0  0  0  0  0  0  0  0  0  0  0  0
   11.5484   -1.7134   21.1830 H   0  0  0  0  0  0  0  0  0  0  0  0
   11.4142    0.0274   21.4410 H   0  0  0  0  0  0  0  0  0  0  0  0
    9.0231   -1.1546   22.1870 C   0  0  0  0  0  0  0  0  0  0  0  0
    8.7221   -0.3788   21.1557 N   0  0  0  0  0  0  0  0  0  0  0  0
    7.4107   -0.6726   20.9263 N   0  0  0  0  0  0  0  0  0  0  0  0
    6.6797    0.0064   19.9124 C   0  0  0  0  0  0  0  0  0  0  0  0
    5.4539    0.6382   20.1652 C   0  0  0  0  0  0  0  0  0  0  0  0
    4.8276    1.2975   19.0993 C   0  0  0  0  0  0  0  0  0  0  0  0
    5.4390    1.2846   17.8409 C   0  0  0  0  0  0  0  0  0  0  0  0
    6.6146    0.6785   17.5975 N   0  0  0  0  0  0  0  0  0  0  0  0
    7.2271    0.0715   18.6209 C   0  0  0  0  0  0  0  0  0  0  0  0
    8.1911   -0.3928   18.4230 H   0  0  0  0  0  0  0  0  0  0  0  0
    4.9675    1.7767   16.9951 H   0  0  0  0  0  0  0  0  0  0  0  0
    3.8880    1.8199   19.2395 H   0  0  0  0  0  0  0  0  0  0  0  0
    5.0251    0.6609   21.1697 H   0  0  0  0  0  0  0  0  0  0  0  0
    7.0263   -1.6571   21.7809 C   0  0  0  0  0  0  0  0  0  0  0  0
    5.7179   -2.3662   21.8130 C   0  0  0  0  0  0  0  0  0  0  0  0
    5.7617   -3.7585   21.2526 C   0  0  0  0  0  0  0  0  0  0  0  0
    5.8257   -4.2545   19.9674 C   0  0  0  0  0  0  0  0  0  0  0  0
    5.5884   -3.3210   18.5365 Cl  0  0  0  0  0  0  0  0  0  0  0  0
    6.0592   -5.6397   20.1131 C   0  0  0  0  0  0  0  0  0  0  0  0
    6.1018   -5.9765   21.3935 N   0  0  0  0  0  0  0  0  0  0  0  0
    5.9141   -4.8357   22.0597 N   0  0  0  0  0  0  0  0  0  0  0  0
    5.8820   -4.8115   23.5043 C   0  0  0  0  0  0  0  0  0  0  0  0
    4.8877   -4.5160   23.8506 H   0  0  0  0  0  0  0  0  0  0  0  0
    6.6175   -4.0862   23.8615 H   0  0  0  0  0  0  0  0  0  0  0  0
    6.1181   -5.8037   23.8779 H   0  0  0  0  0  0  0  0  0  0  0  0
    6.2066   -6.3993   19.3612 H   0  0  0  0  0  0  0  0  0  0  0  0
    5.4756   -2.4313   22.8797 H   0  0  0  0  0  0  0  0  0  0  0  0
    4.9692   -1.7608   21.3209 H   0  0  0  0  0  0  0  0  0  0  0  0
    8.0084   -1.9517   22.6039 N   0  0  0  0  0  0  0  0  0  0  0  0
   10.4160   -2.1983   23.3022 H   0  0  0  0  0  0  0  0  0  0  0  0
   11.2777   -0.3357   24.6809 H   0  0  0  0  0  0  0  0  0  0  0  0
    9.5496   -0.5771   24.8285 H   0  0  0  0  0  0  0  0  0  0  0  0
    9.1299    1.3691   23.2739 H   0  0  0  0  0  0  0  0  0  0  0  0
   10.8729    1.6276   23.1410 H   0  0  0  0  0  0  0  0  0  0  0  0
   10.0635    1.8590   24.6941 H   0  0  0  0  0  0  0  0  0  0  0  0
  1  2  1  0
  2  3  1  0
  3  4  1  0
  4  5  1  0
  4  6  1  0
  4  7  1  0
  3  8  1  0
  8  9  2  0
  9 10  1  0
 10 11  1  0
 11 12  2  0
 12 13  1  0
 13 14  2  0
 14 15  1  0
 15 16  2  0
 16 17  1  0
 14 18  1  0
 13 19  1  0
 12 20  1  0
 10 21  1  0
 21 22  1  0
 22 23  1  0
 23 24  2  0
 24 25  1  0
 24 26  1  0
 26 27  2  0
 27 28  1  0
 28 29  1  0
 29 30  1  0
 29 31  1  0
 29 32  1  0
 26 33  1  0
 22 34  1  0
 22 35  1  0
 21 36  2  0
  3 37  1  0
  2 38  1  0
  2 39  1  0
  1 40  1  0
  1 41  1  0
  1 42  1  0
 36  8  1  0
 16 11  1  0
 28 23  1  0
M  END
>  <cnnaffinity>  (1) 
-5.75336

>  <filename>  (1) 
CCC(C)c1nc(Cc2c(Cl)cnn2C)n(-c2cccnc2)n1

$$$$
