
     RDKit          3D

 44 46  0  0  0  0  0  0  0  0999 V2000
    6.9226   -3.3844   26.0671 C   0  0  0  0  0  0  0  0  0  0  0  0
    7.3252   -2.4216   24.9470 C   0  0  0  0  0  0  0  0  0  0  0  0
    7.4132   -3.0923   23.5608 C   0  0  0  0  0  0  0  0  0  0  0  0
    8.3811   -4.1381   23.6891 O   0  0  0  0  0  0  0  0  0  0  0  0
    8.4445   -4.6488   22.8724 H   0  0  0  0  0  0  0  0  0  0  0  0
    7.6813   -2.0510   22.4768 C   0  0  0  0  0  0  0  0  0  0  0  0
    6.7168   -1.6250   21.6760 N   0  0  0  0  0  0  0  0  0  0  0  0
    7.3392   -0.6826   20.9196 N   0  0  0  0  0  0  0  0  0  0  0  0
    6.6460   -0.0018   19.8807 C   0  0  0  0  0  0  0  0  0  0  0  0
    5.4335    0.6418   20.1455 C   0  0  0  0  0  0  0  0  0  0  0  0
    4.8003    1.3172   19.0947 C   0  0  0  0  0  0  0  0  0  0  0  0
    5.3906    1.3045   17.8256 C   0  0  0  0  0  0  0  0  0  0  0  0
    6.5448    0.6735   17.5612 N   0  0  0  0  0  0  0  0  0  0  0  0
    7.1560    0.0459   18.5726 C   0  0  0  0  0  0  0  0  0  0  0  0
    8.0996   -0.4451   18.3381 H   0  0  0  0  0  0  0  0  0  0  0  0
    4.9237    1.8152   16.9853 H   0  0  0  0  0  0  0  0  0  0  0  0
    3.8668    1.8509   19.2474 H   0  0  0  0  0  0  0  0  0  0  0  0
    5.0151    0.5970   21.1518 H   0  0  0  0  0  0  0  0  0  0  0  0
    8.6242   -0.5402   21.3629 C   0  0  0  0  0  0  0  0  0  0  0  0
    9.5827    0.5355   20.9766 C   0  0  0  0  0  0  0  0  0  0  0  0
    9.4929    1.8075   21.8665 C   0  0  0  0  0  0  0  0  0  0  0  0
    8.1583    2.5123   21.6769 C   0  0  0  0  0  0  0  0  0  0  0  0
    7.3190    1.9183   22.0560 H   0  0  0  0  0  0  0  0  0  0  0  0
    8.1512    3.4799   22.1885 H   0  0  0  0  0  0  0  0  0  0  0  0
    8.0160    2.6312   20.6060 H   0  0  0  0  0  0  0  0  0  0  0  0
    9.7655    1.5494   23.2769 N   0  0  0  0  0  0  0  0  0  0  0  0
   11.0188    1.4666   23.8209 C   0  0  0  0  0  0  0  0  0  0  0  0
   10.9080    1.0490   25.1217 C   0  0  0  0  0  0  0  0  0  0  0  0
    9.5237    0.8793   25.3882 C   0  0  0  0  0  0  0  0  0  0  0  0
    8.8540    1.1737   24.2288 C   0  0  0  0  0  0  0  0  0  0  0  0
    7.8167    1.0646   23.9513 H   0  0  0  0  0  0  0  0  0  0  0  0
    9.0712    0.5286   26.3105 H   0  0  0  0  0  0  0  0  0  0  0  0
   11.7331    0.8069   25.7717 H   0  0  0  0  0  0  0  0  0  0  0  0
   11.8800    1.7074   23.2158 H   0  0  0  0  0  0  0  0  0  0  0  0
   10.3022    2.4757   21.5435 H   0  0  0  0  0  0  0  0  0  0  0  0
   10.5831    0.1037   21.0385 H   0  0  0  0  0  0  0  0  0  0  0  0
    9.4031    0.8273   19.9427 H   0  0  0  0  0  0  0  0  0  0  0  0
    8.8691   -1.4127   22.3155 N   0  0  0  0  0  0  0  0  0  0  0  0
    6.4263   -3.5094   23.3019 H   0  0  0  0  0  0  0  0  0  0  0  0
    6.6040   -1.5926   24.8784 H   0  0  0  0  0  0  0  0  0  0  0  0
    8.3045   -1.9758   25.1743 H   0  0  0  0  0  0  0  0  0  0  0  0
    6.8399   -2.8549   27.0223 H   0  0  0  0  0  0  0  0  0  0  0  0
    7.6675   -4.1800   26.1790 H   0  0  0  0  0  0  0  0  0  0  0  0
    5.9548   -3.8590   25.8603 H   0  0  0  0  0  0  0  0  0  0  0  0
  1  2  1  0
  2  3  1  0
  3  4  1  0
  4  5  1  0
  3  6  1  0
  6  7  2  0
  7  8  1  0
  8  9  1  0
  9 10  2  0
 10 11  1  0
 11 12  2  0
 12 13  1  0
 13 14  2  0
 14 15  1  0
 12 16  1  0
 11 17  1  0
 10 18  1  0
  8 19  1  0
 19 20  1  0
 20 21  1  0
 21 22  1  0
 22 23  1  0
 22 24  1  0
 22 25  1  0
 21 26  1  0
 26 27  1  0
 27 28  2  0
 28 29  1  0
 29 30  2  0
 30 31  1  0
 29 32  1  0
 28 33  1  0
 27 34  1  0
 21 35  1  0
 20 36  1  0
 20 37  1  0
 19 38  2  0
  3 39  1  0
  2 40  1  0
  2 41  1  0
  1 42  1  0
  1 43  1  0
  1 44  1  0
 38  6  1  0
 14  9  1  0
 30 26  1  0
M  END
>  <cnnaffinity>  (1) 
-5.76654

>  <filename>  (1) 
CCC(O)c1nc(CC(C)n2cccc2)n(-c2cccnc2)n1

$$$$
