
     RDKit          3D

 45 47  0  0  0  0  0  0  0  0999 V2000
    6.9079   -1.3642   25.4217 C   0  0  0  0  0  0  0  0  0  0  0  0
    6.3657   -2.6906   24.8743 C   0  0  0  0  0  0  0  0  0  0  0  0
    7.2855   -3.3758   23.8193 C   0  0  0  0  0  0  0  0  0  0  0  0
    6.6580   -4.6711   23.2912 C   0  0  0  0  0  0  0  0  0  0  0  0
    5.7222   -4.4618   22.7597 H   0  0  0  0  0  0  0  0  0  0  0  0
    6.4384   -5.3508   24.1241 H   0  0  0  0  0  0  0  0  0  0  0  0
    7.3361   -5.1792   22.5983 H   0  0  0  0  0  0  0  0  0  0  0  0
    7.6694   -2.4082   22.7261 C   0  0  0  0  0  0  0  0  0  0  0  0
    6.9007   -2.0872   21.7051 N   0  0  0  0  0  0  0  0  0  0  0  0
    7.5368   -1.0062   21.1646 N   0  0  0  0  0  0  0  0  0  0  0  0
    6.8920   -0.3518   20.0672 C   0  0  0  0  0  0  0  0  0  0  0  0
    5.6600    0.2738   20.2764 C   0  0  0  0  0  0  0  0  0  0  0  0
    5.0483    0.8998   19.1855 C   0  0  0  0  0  0  0  0  0  0  0  0
    5.6612    0.8302   17.9295 C   0  0  0  0  0  0  0  0  0  0  0  0
    6.8190    0.1882   17.7182 N   0  0  0  0  0  0  0  0  0  0  0  0
    7.4239   -0.3860   18.7683 C   0  0  0  0  0  0  0  0  0  0  0  0
    8.3669   -0.8929   18.5637 H   0  0  0  0  0  0  0  0  0  0  0  0
    5.2045    1.3057   17.0620 H   0  0  0  0  0  0  0  0  0  0  0  0
    4.1161    1.4407   19.3025 H   0  0  0  0  0  0  0  0  0  0  0  0
    5.2213    0.2782   21.2766 H   0  0  0  0  0  0  0  0  0  0  0  0
    8.6423   -0.7311   21.9170 C   0  0  0  0  0  0  0  0  0  0  0  0
    9.5413    0.4769   21.8500 C   0  0  0  0  0  0  0  0  0  0  0  0
    8.9755    1.7003   22.4392 N   0  0  0  0  0  0  0  0  0  0  0  0
    9.0675    1.9101   23.7849 C   0  0  0  0  0  0  0  0  0  0  0  0
    8.4948    3.0080   24.3689 C   0  0  0  0  0  0  0  0  0  0  0  0
    8.5513    3.1954   25.8521 C   0  0  0  0  0  0  0  0  0  0  0  0
    9.1047    4.3784   26.1883 F   0  0  0  0  0  0  0  0  0  0  0  0
    7.3175    3.1835   26.3968 F   0  0  0  0  0  0  0  0  0  0  0  0
    9.2563    2.2327   26.4687 F   0  0  0  0  0  0  0  0  0  0  0  0
    7.8208    3.9676   23.5593 C   0  0  0  0  0  0  0  0  0  0  0  0
    7.7192    3.7615   22.2209 C   0  0  0  0  0  0  0  0  0  0  0  0
    8.2400    2.5659   21.5839 C   0  0  0  0  0  0  0  0  0  0  0  0
    8.1104    2.2574   20.4116 O   0  0  0  0  0  0  0  0  0  0  0  0
    7.2400    4.4563   21.5525 H   0  0  0  0  0  0  0  0  0  0  0  0
    7.3792    4.8552   24.0240 H   0  0  0  0  0  0  0  0  0  0  0  0
    9.6265    1.1526   24.3328 H   0  0  0  0  0  0  0  0  0  0  0  0
   10.4492    0.2132   22.4019 H   0  0  0  0  0  0  0  0  0  0  0  0
    9.8040    0.6991   20.8175 H   0  0  0  0  0  0  0  0  0  0  0  0
    8.7801   -1.6402   22.8611 N   0  0  0  0  0  0  0  0  0  0  0  0
    8.2441   -3.6036   24.3022 H   0  0  0  0  0  0  0  0  0  0  0  0
    5.3769   -2.5259   24.4203 H   0  0  0  0  0  0  0  0  0  0  0  0
    6.2132   -3.4000   25.7012 H   0  0  0  0  0  0  0  0  0  0  0  0
    6.2899   -0.9914   26.2439 H   0  0  0  0  0  0  0  0  0  0  0  0
    6.9277   -0.5903   24.6447 H   0  0  0  0  0  0  0  0  0  0  0  0
    7.9380   -1.4724   25.7826 H   0  0  0  0  0  0  0  0  0  0  0  0
  1  2  1  0
  2  3  1  0
  3  4  1  0
  4  5  1  0
  4  6  1  0
  4  7  1  0
  3  8  1  0
  8  9  2  0
  9 10  1  0
 10 11  1  0
 11 12  2  0
 12 13  1  0
 13 14  2  0
 14 15  1  0
 15 16  2  0
 16 17  1  0
 14 18  1  0
 13 19  1  0
 12 20  1  0
 10 21  1  0
 21 22  1  0
 22 23  1  0
 23 24  1  0
 24 25  2  0
 25 26  1  0
 26 27  1  0
 26 28  1  0
 26 29  1  0
 25 30  1  0
 30 31  2  0
 31 32  1  0
 32 33  2  0
 31 34  1  0
 30 35  1  0
 24 36  1  0
 22 37  1  0
 22 38  1  0
 21 39  2  0
  3 40  1  0
  2 41  1  0
  2 42  1  0
  1 43  1  0
  1 44  1  0
  1 45  1  0
 39  8  1  0
 16 11  1  0
 32 23  1  0
M  END
>  <cnnaffinity>  (1) 
-6.10179

>  <filename>  (1) 
CCC(C)c1nc(Cn2cc(C(F)(F)F)ccc2=O)n(-c2cccnc2)n1

$$$$
