
     RDKit          3D

 48 50  0  0  0  0  0  0  0  0999 V2000
    6.6316   -1.2647   25.2946 C   0  0  0  0  0  0  0  0  0  0  0  0
    7.6066   -2.4146   25.0229 C   0  0  0  0  0  0  0  0  0  0  0  0
    7.4131   -3.0552   23.6252 C   0  0  0  0  0  0  0  0  0  0  0  0
    8.3233   -4.2904   23.4383 C   0  0  0  0  0  0  0  0  0  0  0  0
    8.0463   -5.0359   22.1298 C   0  0  0  0  0  0  0  0  0  0  0  0
    8.6633   -5.9363   22.0435 H   0  0  0  0  0  0  0  0  0  0  0  0
    6.9959   -5.3483   22.0678 H   0  0  0  0  0  0  0  0  0  0  0  0
    8.2488   -4.3982   21.2598 H   0  0  0  0  0  0  0  0  0  0  0  0
    9.3753   -3.9674   23.4812 H   0  0  0  0  0  0  0  0  0  0  0  0
    8.1723   -4.9536   24.3015 H   0  0  0  0  0  0  0  0  0  0  0  0
    7.6288   -2.0486   22.5269 C   0  0  0  0  0  0  0  0  0  0  0  0
    6.6814   -1.6314   21.7130 N   0  0  0  0  0  0  0  0  0  0  0  0
    7.3234   -0.7083   20.9385 N   0  0  0  0  0  0  0  0  0  0  0  0
    6.6361   -0.0271   19.8935 C   0  0  0  0  0  0  0  0  0  0  0  0
    5.4285    0.6271   20.1537 C   0  0  0  0  0  0  0  0  0  0  0  0
    4.8029    1.3124   19.1047 C   0  0  0  0  0  0  0  0  0  0  0  0
    5.3953    1.2999   17.8361 C   0  0  0  0  0  0  0  0  0  0  0  0
    6.5440    0.6590   17.5731 N   0  0  0  0  0  0  0  0  0  0  0  0
    7.1491    0.0246   18.5851 C   0  0  0  0  0  0  0  0  0  0  0  0
    8.0967   -0.4545   18.3465 H   0  0  0  0  0  0  0  0  0  0  0  0
    4.9364    1.8177   16.9957 H   0  0  0  0  0  0  0  0  0  0  0  0
    3.8714    1.8504   19.2512 H   0  0  0  0  0  0  0  0  0  0  0  0
    5.0087    0.5834   21.1600 H   0  0  0  0  0  0  0  0  0  0  0  0
    8.6086   -0.5934   21.3744 C   0  0  0  0  0  0  0  0  0  0  0  0
    9.6205    0.4153   20.9238 C   0  0  0  0  0  0  0  0  0  0  0  0
    9.9198    1.4491   21.9872 C   0  0  0  0  0  0  0  0  0  0  0  0
    9.0774    2.4559   22.4127 C   0  0  0  0  0  0  0  0  0  0  0  0
    7.7370    2.8627   21.8801 C   0  0  0  0  0  0  0  0  0  0  0  0
    7.4928    3.9143   22.0498 H   0  0  0  0  0  0  0  0  0  0  0  0
    6.9265    2.2632   22.3118 H   0  0  0  0  0  0  0  0  0  0  0  0
    7.7181    2.6597   20.8082 H   0  0  0  0  0  0  0  0  0  0  0  0
    9.6744    2.9767   23.5160 N   0  0  0  0  0  0  0  0  0  0  0  0
   10.8305    2.3654   23.8505 N   0  0  0  0  0  0  0  0  0  0  0  0
   10.9802    1.4225   22.9294 C   0  0  0  0  0  0  0  0  0  0  0  0
   12.0762    0.4064   22.9742 C   0  0  0  0  0  0  0  0  0  0  0  0
   11.6196   -0.5829   23.1222 H   0  0  0  0  0  0  0  0  0  0  0  0
   12.7816    0.6064   23.7870 H   0  0  0  0  0  0  0  0  0  0  0  0
   12.6129    0.3854   22.0177 H   0  0  0  0  0  0  0  0  0  0  0  0
    9.3530    3.7572   24.0697 H   0  0  0  0  0  0  0  0  0  0  0  0
   10.5219   -0.1542   20.6673 H   0  0  0  0  0  0  0  0  0  0  0  0
    9.2564    0.8866   20.0100 H   0  0  0  0  0  0  0  0  0  0  0  0
    8.8384   -1.4612   22.3415 N   0  0  0  0  0  0  0  0  0  0  0  0
    6.3594   -3.3531   23.5141 H   0  0  0  0  0  0  0  0  0  0  0  0
    8.6452   -2.0591   25.1152 H   0  0  0  0  0  0  0  0  0  0  0  0
    7.4885   -3.2064   25.7760 H   0  0  0  0  0  0  0  0  0  0  0  0
    6.7927   -0.4358   24.5926 H   0  0  0  0  0  0  0  0  0  0  0  0
    5.5888   -1.5894   25.1827 H   0  0  0  0  0  0  0  0  0  0  0  0
    6.7467   -0.8719   26.3111 H   0  0  0  0  0  0  0  0  0  0  0  0
  1  2  1  0
  2  3  1  0
  3  4  1  0
  4  5  1  0
  5  6  1  0
  5  7  1  0
  5  8  1  0
  4  9  1  0
  4 10  1  0
  3 11  1  0
 11 12  2  0
 12 13  1  0
 13 14  1  0
 14 15  2  0
 15 16  1  0
 16 17  2  0
 17 18  1  0
 18 19  2  0
 19 20  1  0
 17 21  1  0
 16 22  1  0
 15 23  1  0
 13 24  1  0
 24 25  1  0
 25 26  1  0
 26 27  2  0
 27 28  1  0
 28 29  1  0
 28 30  1  0
 28 31  1  0
 27 32  1  0
 32 33  1  0
 33 34  2  0
 34 35  1  0
 35 36  1  0
 35 37  1  0
 35 38  1  0
 32 39  1  0
 25 40  1  0
 25 41  1  0
 24 42  2  0
  3 43  1  0
  2 44  1  0
  2 45  1  0
  1 46  1  0
  1 47  1  0
  1 48  1  0
 42 11  1  0
 19 14  1  0
 34 26  1  0
M  END
>  <cnnaffinity>  (1) 
-6.18097

>  <filename>  (1) 
CCC(CC)c1nc(Cc2c(C)n[nH]c2C)n(-c2cccnc2)n1

$$$$
