
     RDKit          3D

 48 50  0  0  0  0  0  0  0  0999 V2000
    7.7731   -1.0154   25.5638 C   0  0  0  0  0  0  0  0  0  0  0  0
    6.6702   -1.9428   25.0558 C   0  0  0  0  0  0  0  0  0  0  0  0
    7.0846   -2.8029   23.8285 C   0  0  0  0  0  0  0  0  0  0  0  0
    8.2080   -3.7985   24.1724 C   0  0  0  0  0  0  0  0  0  0  0  0
    8.4155   -4.8554   23.0967 C   0  0  0  0  0  0  0  0  0  0  0  0
    7.4725   -5.3357   22.8142 H   0  0  0  0  0  0  0  0  0  0  0  0
    8.8519   -4.4257   22.1908 H   0  0  0  0  0  0  0  0  0  0  0  0
    9.0854   -5.6324   23.4692 H   0  0  0  0  0  0  0  0  0  0  0  0
    7.9798   -4.2903   25.1298 H   0  0  0  0  0  0  0  0  0  0  0  0
    9.1472   -3.2505   24.3171 H   0  0  0  0  0  0  0  0  0  0  0  0
    7.4525   -1.9531   22.6288 C   0  0  0  0  0  0  0  0  0  0  0  0
    6.5650   -1.5459   21.7437 N   0  0  0  0  0  0  0  0  0  0  0  0
    7.2858   -0.7218   20.9221 N   0  0  0  0  0  0  0  0  0  0  0  0
    6.6145   -0.0520   19.8553 C   0  0  0  0  0  0  0  0  0  0  0  0
    5.4047    0.6117   20.1036 C   0  0  0  0  0  0  0  0  0  0  0  0
    4.8059    1.3235   19.0604 C   0  0  0  0  0  0  0  0  0  0  0  0
    5.4150    1.3159   17.7997 C   0  0  0  0  0  0  0  0  0  0  0  0
    6.5413    0.6369   17.5348 N   0  0  0  0  0  0  0  0  0  0  0  0
    7.1183   -0.0388   18.5404 C   0  0  0  0  0  0  0  0  0  0  0  0
    8.0108   -0.6086   18.2858 H   0  0  0  0  0  0  0  0  0  0  0  0
    4.9663    1.8502   16.9659 H   0  0  0  0  0  0  0  0  0  0  0  0
    3.8795    1.8690   19.2120 H   0  0  0  0  0  0  0  0  0  0  0  0
    4.9484    0.5377   21.0919 H   0  0  0  0  0  0  0  0  0  0  0  0
    8.5636   -0.6340   21.4103 C   0  0  0  0  0  0  0  0  0  0  0  0
    9.6611    0.3052   20.9814 C   0  0  0  0  0  0  0  0  0  0  0  0
    9.9938    1.3430   22.0421 C   0  0  0  0  0  0  0  0  0  0  0  0
    9.1269    2.2915   22.5612 C   0  0  0  0  0  0  0  0  0  0  0  0
    7.7423    2.6645   22.1333 C   0  0  0  0  0  0  0  0  0  0  0  0
    7.6456    2.5522   21.0501 H   0  0  0  0  0  0  0  0  0  0  0  0
    7.4978    3.7000   22.3964 H   0  0  0  0  0  0  0  0  0  0  0  0
    6.9842    2.0135   22.5886 H   0  0  0  0  0  0  0  0  0  0  0  0
    9.7797    2.8803   23.6020 N   0  0  0  0  0  0  0  0  0  0  0  0
    9.2642    3.9036   24.4898 C   0  0  0  0  0  0  0  0  0  0  0  0
    9.0112    4.8133   23.9413 H   0  0  0  0  0  0  0  0  0  0  0  0
    8.3630    3.5576   25.0016 H   0  0  0  0  0  0  0  0  0  0  0  0
   10.0296    4.1370   25.2224 H   0  0  0  0  0  0  0  0  0  0  0  0
   11.0207    2.3973   23.7788 N   0  0  0  0  0  0  0  0  0  0  0  0
   11.1499    1.4704   22.8392 C   0  0  0  0  0  0  0  0  0  0  0  0
   12.0652    0.8970   22.7544 H   0  0  0  0  0  0  0  0  0  0  0  0
   10.5462   -0.3121   20.7898 H   0  0  0  0  0  0  0  0  0  0  0  0
    9.3901    0.7890   20.0384 H   0  0  0  0  0  0  0  0  0  0  0  0
    8.7055   -1.4578   22.4324 N   0  0  0  0  0  0  0  0  0  0  0  0
    6.1978   -3.3716   23.5217 H   0  0  0  0  0  0  0  0  0  0  0  0
    5.7763   -1.3600   24.8012 H   0  0  0  0  0  0  0  0  0  0  0  0
    6.3622   -2.6213   25.8633 H   0  0  0  0  0  0  0  0  0  0  0  0
    7.4461   -0.4481   26.4408 H   0  0  0  0  0  0  0  0  0  0  0  0
    8.6645   -1.5849   25.8522 H   0  0  0  0  0  0  0  0  0  0  0  0
    8.0762   -0.3092   24.7840 H   0  0  0  0  0  0  0  0  0  0  0  0
  1  2  1  0
  2  3  1  0
  3  4  1  0
  4  5  1  0
  5  6  1  0
  5  7  1  0
  5  8  1  0
  4  9  1  0
  4 10  1  0
  3 11  1  0
 11 12  2  0
 12 13  1  0
 13 14  1  0
 14 15  2  0
 15 16  1  0
 16 17  2  0
 17 18  1  0
 18 19  2  0
 19 20  1  0
 17 21  1  0
 16 22  1  0
 15 23  1  0
 13 24  1  0
 24 25  1  0
 25 26  1  0
 26 27  2  0
 27 28  1  0
 28 29  1  0
 28 30  1  0
 28 31  1  0
 27 32  1  0
 32 33  1  0
 33 34  1  0
 33 35  1  0
 33 36  1  0
 32 37  1  0
 37 38  2  0
 38 39  1  0
 25 40  1  0
 25 41  1  0
 24 42  2  0
  3 43  1  0
  2 44  1  0
  2 45  1  0
  1 46  1  0
  1 47  1  0
  1 48  1  0
 42 11  1  0
 19 14  1  0
 38 26  1  0
M  END
>  <cnnaffinity>  (1) 
-6.06425

>  <filename>  (1) 
CCC(CC)c1nc(Cc2cnn(C)c2C)n(-c2cccnc2)n1

$$$$
