
     RDKit          3D

 45 48  0  0  0  0  0  0  0  0999 V2000
    7.4864   -1.0383   25.5170 C   0  0  0  0  0  0  0  0  0  0  0  0
    6.6874   -2.2038   24.9268 C   0  0  0  0  0  0  0  0  0  0  0  0
    7.3801   -2.9656   23.7586 C   0  0  0  0  0  0  0  0  0  0  0  0
    8.6597   -3.6859   24.2135 C   0  0  0  0  0  0  0  0  0  0  0  0
    9.4090   -2.9646   24.5583 H   0  0  0  0  0  0  0  0  0  0  0  0
    9.1077   -4.2513   23.3901 H   0  0  0  0  0  0  0  0  0  0  0  0
    8.4457   -4.3786   25.0337 H   0  0  0  0  0  0  0  0  0  0  0  0
    7.6671   -2.0235   22.6144 C   0  0  0  0  0  0  0  0  0  0  0  0
    6.7823   -1.6633   21.7092 N   0  0  0  0  0  0  0  0  0  0  0  0
    7.4294   -0.6713   21.0216 N   0  0  0  0  0  0  0  0  0  0  0  0
    6.7424   -0.0194   19.9475 C   0  0  0  0  0  0  0  0  0  0  0  0
    5.5118    0.6064   20.1902 C   0  0  0  0  0  0  0  0  0  0  0  0
    4.8816    1.2693   19.1325 C   0  0  0  0  0  0  0  0  0  0  0  0
    5.4848    1.2592   17.8680 C   0  0  0  0  0  0  0  0  0  0  0  0
    6.6383    0.6203   17.6136 N   0  0  0  0  0  0  0  0  0  0  0  0
    7.2413   -0.0108   18.6322 C   0  0  0  0  0  0  0  0  0  0  0  0
    8.1488   -0.5605   18.3854 H   0  0  0  0  0  0  0  0  0  0  0  0
    5.0142    1.7621   17.0245 H   0  0  0  0  0  0  0  0  0  0  0  0
    3.9337    1.7812   19.2768 H   0  0  0  0  0  0  0  0  0  0  0  0
    5.0707    0.5536   21.1871 H   0  0  0  0  0  0  0  0  0  0  0  0
    8.6550   -0.4683   21.5989 C   0  0  0  0  0  0  0  0  0  0  0  0
    9.5545    0.7213   21.4344 C   0  0  0  0  0  0  0  0  0  0  0  0
    8.9892    1.9334   22.1480 C   0  0  0  0  0  0  0  0  0  0  0  0
    8.1675    2.7728   21.3950 C   0  0  0  0  0  0  0  0  0  0  0  0
    7.6290    3.9673   21.9152 C   0  0  0  0  0  0  0  0  0  0  0  0
    7.9281    4.2342   23.2385 C   0  0  0  0  0  0  0  0  0  0  0  0
    7.5382    5.3094   23.9997 O   0  0  0  0  0  0  0  0  0  0  0  0
    7.9653    5.0911   25.2901 C   0  0  0  0  0  0  0  0  0  0  0  0
    7.6999    5.7808   26.2327 O   0  0  0  0  0  0  0  0  0  0  0  0
    8.7258    3.9441   25.2851 N   0  0  0  0  0  0  0  0  0  0  0  0
    8.6750    3.3574   24.0306 C   0  0  0  0  0  0  0  0  0  0  0  0
    9.2265    2.2018   23.5049 C   0  0  0  0  0  0  0  0  0  0  0  0
    9.8233    1.5551   24.1369 H   0  0  0  0  0  0  0  0  0  0  0  0
    8.8231    3.4653   26.1606 H   0  0  0  0  0  0  0  0  0  0  0  0
    7.0298    4.6505   21.3161 H   0  0  0  0  0  0  0  0  0  0  0  0
    7.9787    2.4520   20.3725 H   0  0  0  0  0  0  0  0  0  0  0  0
    9.6727    0.9459   20.3712 H   0  0  0  0  0  0  0  0  0  0  0  0
   10.5399    0.4619   21.8329 H   0  0  0  0  0  0  0  0  0  0  0  0
    8.8443   -1.3463   22.5554 N   0  0  0  0  0  0  0  0  0  0  0  0
    6.6646   -3.7042   23.3793 H   0  0  0  0  0  0  0  0  0  0  0  0
    5.7182   -1.8306   24.5727 H   0  0  0  0  0  0  0  0  0  0  0  0
    6.4651   -2.9263   25.7230 H   0  0  0  0  0  0  0  0  0  0  0  0
    8.4462   -1.3661   25.9326 H   0  0  0  0  0  0  0  0  0  0  0  0
    7.7046   -0.2679   24.7691 H   0  0  0  0  0  0  0  0  0  0  0  0
    6.9147   -0.5735   26.3262 H   0  0  0  0  0  0  0  0  0  0  0  0
  1  2  1  0
  2  3  1  0
  3  4  1  0
  4  5  1  0
  4  6  1  0
  4  7  1  0
  3  8  1  0
  8  9  2  0
  9 10  1  0
 10 11  1  0
 11 12  2  0
 12 13  1  0
 13 14  2  0
 14 15  1  0
 15 16  2  0
 16 17  1  0
 14 18  1  0
 13 19  1  0
 12 20  1  0
 10 21  1  0
 21 22  1  0
 22 23  1  0
 23 24  2  0
 24 25  1  0
 25 26  2  0
 26 27  1  0
 27 28  1  0
 28 29  2  0
 28 30  1  0
 30 31  1  0
 31 32  2  0
 32 33  1  0
 30 34  1  0
 25 35  1  0
 24 36  1  0
 22 37  1  0
 22 38  1  0
 21 39  2  0
  3 40  1  0
  2 41  1  0
  2 42  1  0
  1 43  1  0
  1 44  1  0
  1 45  1  0
 39  8  1  0
 16 11  1  0
 32 23  1  0
 31 26  1  0
M  END
>  <cnnaffinity>  (1) 
-5.95743

>  <filename>  (1) 
CCC(C)c1nc(Cc2ccc3oc(=O)[nH]c3c2)n(-c2cccnc2)n1

$$$$
