
     RDKit          3D

 41 43  0  0  0  0  0  0  0  0999 V2000
    6.9210   -4.9454   21.7851 C   0  0  0  0  0  0  0  0  0  0  0  0
    7.7875   -4.5184   22.9691 C   0  0  0  0  0  0  0  0  0  0  0  0
    7.4402   -3.1212   23.5454 C   0  0  0  0  0  0  0  0  0  0  0  0
    6.0360   -3.0550   24.1647 C   0  0  0  0  0  0  0  0  0  0  0  0
    5.8757   -2.0960   24.6689 H   0  0  0  0  0  0  0  0  0  0  0  0
    5.2612   -3.1525   23.3957 H   0  0  0  0  0  0  0  0  0  0  0  0
    5.8965   -3.8534   24.9007 H   0  0  0  0  0  0  0  0  0  0  0  0
    7.6399   -2.0442   22.5131 C   0  0  0  0  0  0  0  0  0  0  0  0
    6.6855   -1.6123   21.7053 N   0  0  0  0  0  0  0  0  0  0  0  0
    7.3280   -0.7052   20.9250 N   0  0  0  0  0  0  0  0  0  0  0  0
    6.6429   -0.0060   19.8967 C   0  0  0  0  0  0  0  0  0  0  0  0
    5.4332    0.6401   20.1655 C   0  0  0  0  0  0  0  0  0  0  0  0
    4.8121    1.3120   19.1098 C   0  0  0  0  0  0  0  0  0  0  0  0
    5.3977    1.2963   17.8379 C   0  0  0  0  0  0  0  0  0  0  0  0
    6.5545    0.6693   17.5750 N   0  0  0  0  0  0  0  0  0  0  0  0
    7.1612    0.0463   18.5895 C   0  0  0  0  0  0  0  0  0  0  0  0
    8.1111   -0.4315   18.3613 H   0  0  0  0  0  0  0  0  0  0  0  0
    4.9217    1.7873   16.9933 H   0  0  0  0  0  0  0  0  0  0  0  0
    3.8819    1.8408   19.2594 H   0  0  0  0  0  0  0  0  0  0  0  0
    5.0145    0.6064   21.1758 H   0  0  0  0  0  0  0  0  0  0  0  0
    8.6110   -0.5979   21.3574 C   0  0  0  0  0  0  0  0  0  0  0  0
    9.6326    0.3238   20.7879 C   0  0  0  0  0  0  0  0  0  0  0  0
   10.3533    1.1238   21.8497 C   0  0  0  0  0  0  0  0  0  0  0  0
   11.6072    0.7427   22.3368 C   0  0  0  0  0  0  0  0  0  0  0  0
   12.2473    1.3274   23.3497 N   0  0  0  0  0  0  0  0  0  0  0  0
   11.6280    2.3517   23.9350 C   0  0  0  0  0  0  0  0  0  0  0  0
   10.3728    2.8251   23.5737 C   0  0  0  0  0  0  0  0  0  0  0  0
    9.7342    2.1883   22.5156 C   0  0  0  0  0  0  0  0  0  0  0  0
    8.1433    2.7113   22.0651 Cl  0  0  0  0  0  0  0  0  0  0  0  0
    9.9113    3.6563   24.0863 H   0  0  0  0  0  0  0  0  0  0  0  0
   12.1645    2.8237   24.7459 H   0  0  0  0  0  0  0  0  0  0  0  0
   12.1082   -0.1088   21.8800 H   0  0  0  0  0  0  0  0  0  0  0  0
   10.3158   -0.3425   20.2571 H   0  0  0  0  0  0  0  0  0  0  0  0
    9.1672    1.0137   20.0809 H   0  0  0  0  0  0  0  0  0  0  0  0
    8.8509   -1.4724   22.3179 N   0  0  0  0  0  0  0  0  0  0  0  0
    8.1817   -2.9036   24.3217 H   0  0  0  0  0  0  0  0  0  0  0  0
    8.8447   -4.5190   22.6767 H   0  0  0  0  0  0  0  0  0  0  0  0
    7.6982   -5.2548   23.7783 H   0  0  0  0  0  0  0  0  0  0  0  0
    6.9866   -4.2287   20.9590 H   0  0  0  0  0  0  0  0  0  0  0  0
    5.8639   -5.0146   22.0678 H   0  0  0  0  0  0  0  0  0  0  0  0
    7.2269   -5.9296   21.4148 H   0  0  0  0  0  0  0  0  0  0  0  0
  1  2  1  0
  2  3  1  0
  3  4  1  0
  4  5  1  0
  4  6  1  0
  4  7  1  0
  3  8  1  0
  8  9  2  0
  9 10  1  0
 10 11  1  0
 11 12  2  0
 12 13  1  0
 13 14  2  0
 14 15  1  0
 15 16  2  0
 16 17  1  0
 14 18  1  0
 13 19  1  0
 12 20  1  0
 10 21  1  0
 21 22  1  0
 22 23  1  0
 23 24  2  0
 24 25  1  0
 25 26  2  0
 26 27  1  0
 27 28  2  0
 28 29  1  0
 27 30  1  0
 26 31  1  0
 24 32  1  0
 22 33  1  0
 22 34  1  0
 21 35  2  0
  3 36  1  0
  2 37  1  0
  2 38  1  0
  1 39  1  0
  1 40  1  0
  1 41  1  0
 35  8  1  0
 16 11  1  0
 28 23  1  0
M  END
>  <cnnaffinity>  (1) 
-6.19684

>  <filename>  (1) 
CCC(C)c1nc(Cc2cnccc2Cl)n(-c2cccnc2)n1

$$$$
