
     RDKit          3D

 45 47  0  0  0  0  0  0  0  0999 V2000
    5.8306   -1.5400   25.1723 C   0  0  0  0  0  0  0  0  0  0  0  0
    7.0760   -2.4240   25.1679 C   0  0  0  0  0  0  0  0  0  0  0  0
    7.4215   -3.1290   23.8293 C   0  0  0  0  0  0  0  0  0  0  0  0
    6.4877   -4.2718   23.3950 C   0  0  0  0  0  0  0  0  0  0  0  0
    7.1129   -5.0958   22.2679 C   0  0  0  0  0  0  0  0  0  0  0  0
    7.2577   -4.4905   21.3669 H   0  0  0  0  0  0  0  0  0  0  0  0
    8.0957   -5.4789   22.5706 H   0  0  0  0  0  0  0  0  0  0  0  0
    6.4945   -5.9563   21.9966 H   0  0  0  0  0  0  0  0  0  0  0  0
    5.5131   -3.8757   23.0790 H   0  0  0  0  0  0  0  0  0  0  0  0
    6.2990   -4.9189   24.2616 H   0  0  0  0  0  0  0  0  0  0  0  0
    7.6723   -2.1172   22.7432 C   0  0  0  0  0  0  0  0  0  0  0  0
    6.8525   -1.7865   21.7655 N   0  0  0  0  0  0  0  0  0  0  0  0
    7.5276   -0.7952   21.1103 N   0  0  0  0  0  0  0  0  0  0  0  0
    6.8494   -0.1334   20.0296 C   0  0  0  0  0  0  0  0  0  0  0  0
    5.6282    0.5177   20.2682 C   0  0  0  0  0  0  0  0  0  0  0  0
    5.0236    1.1978   19.2103 C   0  0  0  0  0  0  0  0  0  0  0  0
    5.6288    1.1711   17.9495 C   0  0  0  0  0  0  0  0  0  0  0  0
    6.7618    0.4963   17.6953 N   0  0  0  0  0  0  0  0  0  0  0  0
    7.3480   -0.1458   18.7148 C   0  0  0  0  0  0  0  0  0  0  0  0
    8.2500   -0.7101   18.4738 H   0  0  0  0  0  0  0  0  0  0  0  0
    5.1876    1.7100   17.1156 H   0  0  0  0  0  0  0  0  0  0  0  0
    4.0937    1.7413   19.3481 H   0  0  0  0  0  0  0  0  0  0  0  0
    5.1661    0.4740   21.2557 H   0  0  0  0  0  0  0  0  0  0  0  0
    8.7114   -0.5782   21.7690 C   0  0  0  0  0  0  0  0  0  0  0  0
    9.7228    0.4869   21.5158 C   0  0  0  0  0  0  0  0  0  0  0  0
    9.1550    1.8009   21.8942 C   0  0  0  0  0  0  0  0  0  0  0  0
    9.3216    2.3056   23.1024 N   0  0  0  0  0  0  0  0  0  0  0  0
    8.5430    3.3919   23.1423 N   0  0  0  0  0  0  0  0  0  0  0  0
    8.4808    4.1487   24.3751 C   0  0  0  0  0  0  0  0  0  0  0  0
    7.5270    4.6738   24.4272 H   0  0  0  0  0  0  0  0  0  0  0  0
    9.2999    4.8678   24.4522 H   0  0  0  0  0  0  0  0  0  0  0  0
    8.5492    3.4519   25.2108 H   0  0  0  0  0  0  0  0  0  0  0  0
    7.8806    3.5911   21.9798 C   0  0  0  0  0  0  0  0  0  0  0  0
    8.2643    2.5716   21.1444 C   0  0  0  0  0  0  0  0  0  0  0  0
    7.9739    2.3358   20.1373 H   0  0  0  0  0  0  0  0  0  0  0  0
    7.2051    4.4228   21.8464 H   0  0  0  0  0  0  0  0  0  0  0  0
   10.5947    0.2640   22.1346 H   0  0  0  0  0  0  0  0  0  0  0  0
   10.0125    0.4697   20.4686 H   0  0  0  0  0  0  0  0  0  0  0  0
    8.8249   -1.4029   22.7794 N   0  0  0  0  0  0  0  0  0  0  0  0
    8.4134   -3.5683   23.9989 H   0  0  0  0  0  0  0  0  0  0  0  0
    7.9401   -1.7962   25.4214 H   0  0  0  0  0  0  0  0  0  0  0  0
    7.0141   -3.1879   25.9548 H   0  0  0  0  0  0  0  0  0  0  0  0
    5.6705   -1.1181   26.1709 H   0  0  0  0  0  0  0  0  0  0  0  0
    4.9209   -2.0891   24.9053 H   0  0  0  0  0  0  0  0  0  0  0  0
    5.9272   -0.7007   24.4722 H   0  0  0  0  0  0  0  0  0  0  0  0
  1  2  1  0
  2  3  1  0
  3  4  1  0
  4  5  1  0
  5  6  1  0
  5  7  1  0
  5  8  1  0
  4  9  1  0
  4 10  1  0
  3 11  1  0
 11 12  2  0
 12 13  1  0
 13 14  1  0
 14 15  2  0
 15 16  1  0
 16 17  2  0
 17 18  1  0
 18 19  2  0
 19 20  1  0
 17 21  1  0
 16 22  1  0
 15 23  1  0
 13 24  1  0
 24 25  1  0
 25 26  1  0
 26 27  2  0
 27 28  1  0
 28 29  1  0
 29 30  1  0
 29 31  1  0
 29 32  1  0
 28 33  1  0
 33 34  2  0
 34 35  1  0
 33 36  1  0
 25 37  1  0
 25 38  1  0
 24 39  2  0
  3 40  1  0
  2 41  1  0
  2 42  1  0
  1 43  1  0
  1 44  1  0
  1 45  1  0
 39 11  1  0
 19 14  1  0
 34 26  1  0
M  END
>  <cnnaffinity>  (1) 
-5.88575

>  <filename>  (1) 
CCC(CC)c1nc(Cc2ccn(C)n2)n(-c2cccnc2)n1

$$$$
