
     RDKit          3D

 52 54  0  0  0  0  0  0  0  0999 V2000
   10.9109   -1.7433   22.5329 C   0  0  0  0  0  0  0  0  0  0  0  0
   10.0544   -2.7741   23.2893 C   0  0  0  0  0  0  0  0  0  0  0  0
    8.7273   -3.0880   22.5644 C   0  0  0  0  0  0  0  0  0  0  0  0
    7.8311   -4.1160   23.2923 C   0  0  0  0  0  0  0  0  0  0  0  0
    7.3913   -3.6964   24.6922 C   0  0  0  0  0  0  0  0  0  0  0  0
    6.8972   -2.7194   24.6738 H   0  0  0  0  0  0  0  0  0  0  0  0
    6.6986   -4.4284   25.1191 H   0  0  0  0  0  0  0  0  0  0  0  0
    8.2456   -3.6219   25.3737 H   0  0  0  0  0  0  0  0  0  0  0  0
    8.3709   -5.0710   23.3439 H   0  0  0  0  0  0  0  0  0  0  0  0
    6.9480   -4.3022   22.6669 H   0  0  0  0  0  0  0  0  0  0  0  0
    7.9951   -1.8183   22.2047 C   0  0  0  0  0  0  0  0  0  0  0  0
    7.5643   -1.6159   20.9758 N   0  0  0  0  0  0  0  0  0  0  0  0
    7.1363   -0.3244   21.0071 N   0  0  0  0  0  0  0  0  0  0  0  0
    6.5806    0.2686   19.8467 C   0  0  0  0  0  0  0  0  0  0  0  0
    5.4881    1.1400   19.9106 C   0  0  0  0  0  0  0  0  0  0  0  0
    5.0261    1.6958   18.7141 C   0  0  0  0  0  0  0  0  0  0  0  0
    5.6729    1.3728   17.5186 C   0  0  0  0  0  0  0  0  0  0  0  0
    6.7195    0.5317   17.4517 N   0  0  0  0  0  0  0  0  0  0  0  0
    7.1514   -0.0155   18.5919 C   0  0  0  0  0  0  0  0  0  0  0  0
    7.9903   -0.7053   18.5259 H   0  0  0  0  0  0  0  0  0  0  0  0
    5.3376    1.7968   16.5750 H   0  0  0  0  0  0  0  0  0  0  0  0
    4.1909    2.3877   18.7082 H   0  0  0  0  0  0  0  0  0  0  0  0
    5.0013    1.3582   20.8620 H   0  0  0  0  0  0  0  0  0  0  0  0
    7.4021    0.2005   22.2375 C   0  0  0  0  0  0  0  0  0  0  0  0
    7.4795    1.6698   22.5116 C   0  0  0  0  0  0  0  0  0  0  0  0
    8.5145    2.4193   21.6140 C   0  0  2  0  0  0  0  0  0  0  0  0
    9.9037    1.7389   21.5773 C   0  0  0  0  0  0  0  0  0  0  0  0
   10.6141    1.8342   22.9389 C   0  0  0  0  0  0  0  0  0  0  0  0
   10.7972    3.2969   23.3840 C   0  0  0  0  0  0  0  0  0  0  0  0
    9.4651    4.0681   23.3403 C   0  0  0  0  0  0  0  0  0  0  0  0
    8.7191    3.9047   22.0059 C   0  0  1  0  0  0  0  0  0  0  0  0
    7.5293    4.6703   21.9977 O   0  0  0  0  0  0  0  0  0  0  0  0
    9.3523    4.3402   21.2065 H   0  0  0  0  0  0  0  0  0  0  0  0
    6.9687    4.3161   22.7036 H   0  0  0  0  0  0  0  0  0  0  0  0
    9.6186    5.1387   23.5172 H   0  0  0  0  0  0  0  0  0  0  0  0
    8.8170    3.7360   24.1667 H   0  0  0  0  0  0  0  0  0  0  0  0
   11.5200    3.8053   22.7273 H   0  0  0  0  0  0  0  0  0  0  0  0
   11.2155    3.3276   24.3987 H   0  0  0  0  0  0  0  0  0  0  0  0
   11.5773    1.3019   22.9175 H   0  0  0  0  0  0  0  0  0  0  0  0
    9.9944    1.3120   23.6849 H   0  0  0  0  0  0  0  0  0  0  0  0
    9.8024    0.6950   21.2462 H   0  0  0  0  0  0  0  0  0  0  0  0
   10.5164    2.2515   20.8223 H   0  0  0  0  0  0  0  0  0  0  0  0
    8.0895    2.4102   20.6049 H   0  0  0  0  0  0  0  0  0  0  0  0
    7.7296    1.7774   23.5703 H   0  0  0  0  0  0  0  0  0  0  0  0
    6.4895    2.1158   22.3757 H   0  0  0  0  0  0  0  0  0  0  0  0
    7.8707   -0.7462   23.0350 N   0  0  0  0  0  0  0  0  0  0  0  0
    8.9890   -3.5120   21.5888 H   0  0  0  0  0  0  0  0  0  0  0  0
    9.8385   -2.4016   24.3000 H   0  0  0  0  0  0  0  0  0  0  0  0
   10.6108   -3.7081   23.4235 H   0  0  0  0  0  0  0  0  0  0  0  0
   10.6928   -0.7353   22.8890 H   0  0  0  0  0  0  0  0  0  0  0  0
   10.7028   -1.7381   21.4540 H   0  0  0  0  0  0  0  0  0  0  0  0
   11.9781   -1.9164   22.6756 H   0  0  0  0  0  0  0  0  0  0  0  0
  1  2  1  0
  2  3  1  0
  3  4  1  0
  4  5  1  0
  5  6  1  0
  5  7  1  0
  5  8  1  0
  4  9  1  0
  4 10  1  0
  3 11  1  0
 11 12  2  0
 12 13  1  0
 13 14  1  0
 14 15  2  0
 15 16  1  0
 16 17  2  0
 17 18  1  0
 18 19  2  0
 19 20  1  0
 17 21  1  0
 16 22  1  0
 15 23  1  0
 13 24  1  0
 24 25  1  0
 25 26  1  0
 26 27  1  0
 27 28  1  0
 28 29  1  0
 29 30  1  0
 30 31  1  0
 31 32  1  0
 32 33  1  0
 31 34  1  1
 30 35  1  0
 30 36  1  0
 29 37  1  0
 29 38  1  0
 28 39  1  0
 28 40  1  0
 27 41  1  0
 27 42  1  0
 26 43  1  6
 25 44  1  0
 25 45  1  0
 24 46  2  0
  3 47  1  0
  2 48  1  0
  2 49  1  0
  1 50  1  0
  1 51  1  0
  1 52  1  0
 46 11  1  0
 19 14  1  0
 31 26  1  0
M  END
>  <cnnaffinity>  (1) 
-6.24214

>  <filename>  (1) 
CCC(CC)c1nc(C[C@@H]2CCCC[C@H]2O)n(-c2cccnc2)n1

$$$$
