
     RDKit          3D

 45 47  0  0  0  0  0  0  0  0999 V2000
    8.7124   -5.4432   24.0563 C   0  0  0  0  0  0  0  0  0  0  0  0
    8.1190   -4.0678   23.7322 C   0  0  0  0  0  0  0  0  0  0  0  0
    8.9183   -3.3332   22.6314 C   0  0  0  0  0  0  0  0  0  0  0  0
   10.2862   -3.1727   23.0246 O   0  0  0  0  0  0  0  0  0  0  0  0
   10.3484   -2.4009   23.6079 H   0  0  0  0  0  0  0  0  0  0  0  0
    8.2475   -2.0454   22.1611 C   0  0  0  0  0  0  0  0  0  0  0  0
    7.7645   -1.8402   20.9473 N   0  0  0  0  0  0  0  0  0  0  0  0
    7.3126   -0.5580   21.0077 N   0  0  0  0  0  0  0  0  0  0  0  0
    6.6136    0.0312   19.9150 C   0  0  0  0  0  0  0  0  0  0  0  0
    5.4029    0.7099   20.1127 C   0  0  0  0  0  0  0  0  0  0  0  0
    4.8188    1.3472   19.0151 C   0  0  0  0  0  0  0  0  0  0  0  0
    5.4582    1.2836   17.7747 C   0  0  0  0  0  0  0  0  0  0  0  0
    6.5905    0.5883   17.5674 N   0  0  0  0  0  0  0  0  0  0  0  0
    7.1401   -0.0448   18.6100 C   0  0  0  0  0  0  0  0  0  0  0  0
    8.0406   -0.6249   18.4099 H   0  0  0  0  0  0  0  0  0  0  0  0
    5.0449    1.7974   16.9092 H   0  0  0  0  0  0  0  0  0  0  0  0
    3.8914    1.9000   19.1187 H   0  0  0  0  0  0  0  0  0  0  0  0
    4.9240    0.7219   21.0943 H   0  0  0  0  0  0  0  0  0  0  0  0
    7.6094   -0.0423   22.2384 C   0  0  0  0  0  0  0  0  0  0  0  0
    7.6006    1.4094   22.5828 C   0  0  0  0  0  0  0  0  0  0  0  0
    8.6252    2.2460   21.7714 C   0  0  0  0  0  0  0  0  0  0  0  0
    8.6457    3.6846   22.2475 C   0  0  0  0  0  0  0  0  0  0  0  0
    7.6913    4.4583   21.7190 N   0  0  0  0  0  0  0  0  0  0  0  0
    7.6171    5.7399   22.0893 C   0  0  0  0  0  0  0  0  0  0  0  0
    8.4568    6.3039   23.0465 C   0  0  0  0  0  0  0  0  0  0  0  0
    9.4137    5.4824   23.6509 C   0  0  0  0  0  0  0  0  0  0  0  0
    9.5336    4.1440   23.2541 C   0  0  0  0  0  0  0  0  0  0  0  0
   10.5747    3.2324   23.8649 C   0  0  0  0  0  0  0  0  0  0  0  0
   11.2231    3.7787   24.5525 H   0  0  0  0  0  0  0  0  0  0  0  0
   11.2034    2.7798   23.0892 H   0  0  0  0  0  0  0  0  0  0  0  0
   10.1245    2.4018   24.4241 H   0  0  0  0  0  0  0  0  0  0  0  0
   10.0786    5.8837   24.4187 H   0  0  0  0  0  0  0  0  0  0  0  0
    8.3472    7.3495   23.3087 H   0  0  0  0  0  0  0  0  0  0  0  0
    6.8380    6.3229   21.6029 H   0  0  0  0  0  0  0  0  0  0  0  0
    9.6194    1.7836   21.8372 H   0  0  0  0  0  0  0  0  0  0  0  0
    8.3413    2.2308   20.7182 H   0  0  0  0  0  0  0  0  0  0  0  0
    7.8533    1.4737   23.6444 H   0  0  0  0  0  0  0  0  0  0  0  0
    6.5990    1.8350   22.4626 H   0  0  0  0  0  0  0  0  0  0  0  0
    8.1589   -0.9708   22.9924 N   0  0  0  0  0  0  0  0  0  0  0  0
    8.9406   -3.9864   21.7571 H   0  0  0  0  0  0  0  0  0  0  0  0
    8.0657   -3.4429   24.6370 H   0  0  0  0  0  0  0  0  0  0  0  0
    7.0893   -4.2048   23.3774 H   0  0  0  0  0  0  0  0  0  0  0  0
    9.7098   -5.3542   24.4984 H   0  0  0  0  0  0  0  0  0  0  0  0
    8.8207   -6.0471   23.1472 H   0  0  0  0  0  0  0  0  0  0  0  0
    8.0667   -6.0060   24.7392 H   0  0  0  0  0  0  0  0  0  0  0  0
  1  2  1  0
  2  3  1  0
  3  4  1  0
  4  5  1  0
  3  6  1  0
  6  7  2  0
  7  8  1  0
  8  9  1  0
  9 10  2  0
 10 11  1  0
 11 12  2  0
 12 13  1  0
 13 14  2  0
 14 15  1  0
 12 16  1  0
 11 17  1  0
 10 18  1  0
  8 19  1  0
 19 20  1  0
 20 21  1  0
 21 22  1  0
 22 23  2  0
 23 24  1  0
 24 25  2  0
 25 26  1  0
 26 27  2  0
 27 28  1  0
 28 29  1  0
 28 30  1  0
 28 31  1  0
 26 32  1  0
 25 33  1  0
 24 34  1  0
 21 35  1  0
 21 36  1  0
 20 37  1  0
 20 38  1  0
 19 39  2  0
  3 40  1  0
  2 41  1  0
  2 42  1  0
  1 43  1  0
  1 44  1  0
  1 45  1  0
 39  6  1  0
 14  9  1  0
 27 22  1  0
M  END
>  <cnnaffinity>  (1) 
-5.91297

>  <filename>  (1) 
CCC(O)c1nc(CCc2ncccc2C)n(-c2cccnc2)n1

$$$$
