
     RDKit          3D

 44 46  0  0  0  0  0  0  0  0999 V2000
    6.6027   -1.2425   25.2841 C   0  0  0  0  0  0  0  0  0  0  0  0
    7.5913   -2.3845   25.0286 C   0  0  0  0  0  0  0  0  0  0  0  0
    7.4183   -3.0293   23.6325 C   0  0  0  0  0  0  0  0  0  0  0  0
    8.3294   -4.2657   23.4669 C   0  0  0  0  0  0  0  0  0  0  0  0
    8.0616   -5.0304   22.1671 C   0  0  0  0  0  0  0  0  0  0  0  0
    8.6832   -5.9305   22.1041 H   0  0  0  0  0  0  0  0  0  0  0  0
    7.0119   -5.3491   22.1037 H   0  0  0  0  0  0  0  0  0  0  0  0
    8.2676   -4.4057   21.2875 H   0  0  0  0  0  0  0  0  0  0  0  0
    8.1692   -4.9243   24.3335 H   0  0  0  0  0  0  0  0  0  0  0  0
    9.3815   -3.9418   23.5137 H   0  0  0  0  0  0  0  0  0  0  0  0
    7.6424   -2.0200   22.5342 C   0  0  0  0  0  0  0  0  0  0  0  0
    6.7000   -1.6261   21.7061 N   0  0  0  0  0  0  0  0  0  0  0  0
    7.3355   -0.6996   20.9308 N   0  0  0  0  0  0  0  0  0  0  0  0
    6.6421   -0.0146   19.8959 C   0  0  0  0  0  0  0  0  0  0  0  0
    5.4303    0.6340   20.1579 C   0  0  0  0  0  0  0  0  0  0  0  0
    4.8086    1.3113   19.1048 C   0  0  0  0  0  0  0  0  0  0  0  0
    5.3940    1.2964   17.8349 C   0  0  0  0  0  0  0  0  0  0  0  0
    6.5469    0.6637   17.5738 N   0  0  0  0  0  0  0  0  0  0  0  0
    7.1547    0.0353   18.5863 C   0  0  0  0  0  0  0  0  0  0  0  0
    8.1046   -0.4437   18.3552 H   0  0  0  0  0  0  0  0  0  0  0  0
    4.9280    1.8012   16.9913 H   0  0  0  0  0  0  0  0  0  0  0  0
    3.8793    1.8431   19.2548 H   0  0  0  0  0  0  0  0  0  0  0  0
    5.0071    0.5921   21.1621 H   0  0  0  0  0  0  0  0  0  0  0  0
    8.6142   -0.5667   21.3868 C   0  0  0  0  0  0  0  0  0  0  0  0
    9.6309    0.4057   20.9096 C   0  0  0  0  0  0  0  0  0  0  0  0
    9.9766    1.3649   22.0033 C   0  0  0  0  0  0  0  0  0  0  0  0
   11.1249    1.3099   22.6226 N   0  0  0  0  0  0  0  0  0  0  0  0
   11.0691    2.2673   23.6154 O   0  0  0  0  0  0  0  0  0  0  0  0
    9.8730    2.8701   23.5550 C   0  0  0  0  0  0  0  0  0  0  0  0
    9.1084    2.3662   22.5530 C   0  0  0  0  0  0  0  0  0  0  0  0
    7.6986    2.7142   22.1538 C   0  0  0  0  0  0  0  0  0  0  0  0
    7.5729    2.7270   21.0660 H   0  0  0  0  0  0  0  0  0  0  0  0
    7.4002    3.6932   22.5408 H   0  0  0  0  0  0  0  0  0  0  0  0
    6.9766    1.9767   22.5314 H   0  0  0  0  0  0  0  0  0  0  0  0
    9.7006    3.6437   24.2905 H   0  0  0  0  0  0  0  0  0  0  0  0
    9.2413    0.9566   20.0551 H   0  0  0  0  0  0  0  0  0  0  0  0
   10.5202   -0.1573   20.6247 H   0  0  0  0  0  0  0  0  0  0  0  0
    8.8417   -1.4064   22.3710 N   0  0  0  0  0  0  0  0  0  0  0  0
    6.3683   -3.3328   23.5098 H   0  0  0  0  0  0  0  0  0  0  0  0
    7.4665   -3.1722   25.7865 H   0  0  0  0  0  0  0  0  0  0  0  0
    8.6265   -2.0184   25.1240 H   0  0  0  0  0  0  0  0  0  0  0  0
    6.7087   -0.8489   26.3013 H   0  0  0  0  0  0  0  0  0  0  0  0
    5.5631   -1.5777   25.1635 H   0  0  0  0  0  0  0  0  0  0  0  0
    6.7632   -0.4149   24.5782 H   0  0  0  0  0  0  0  0  0  0  0  0
  1  2  1  0
  2  3  1  0
  3  4  1  0
  4  5  1  0
  5  6  1  0
  5  7  1  0
  5  8  1  0
  4  9  1  0
  4 10  1  0
  3 11  1  0
 11 12  2  0
 12 13  1  0
 13 14  1  0
 14 15  2  0
 15 16  1  0
 16 17  2  0
 17 18  1  0
 18 19  2  0
 19 20  1  0
 17 21  1  0
 16 22  1  0
 15 23  1  0
 13 24  1  0
 24 25  1  0
 25 26  1  0
 26 27  2  0
 27 28  1  0
 28 29  1  0
 29 30  2  0
 30 31  1  0
 31 32  1  0
 31 33  1  0
 31 34  1  0
 29 35  1  0
 25 36  1  0
 25 37  1  0
 24 38  2  0
  3 39  1  0
  2 40  1  0
  2 41  1  0
  1 42  1  0
  1 43  1  0
  1 44  1  0
 38 11  1  0
 19 14  1  0
 30 26  1  0
M  END
>  <cnnaffinity>  (1) 
-6.00691

>  <filename>  (1) 
CCC(CC)c1nc(Cc2nocc2C)n(-c2cccnc2)n1

$$$$
