
     RDKit          3D

 41 43  0  0  0  0  0  0  0  0999 V2000
    7.1549   -4.9391   21.8574 C   0  0  0  0  0  0  0  0  0  0  0  0
    7.9361   -4.4339   23.0678 C   0  0  0  0  0  0  0  0  0  0  0  0
    7.4775   -3.0510   23.5978 C   0  0  0  0  0  0  0  0  0  0  0  0
    6.0439   -3.0610   24.1475 C   0  0  0  0  0  0  0  0  0  0  0  0
    5.9178   -3.8528   24.8937 H   0  0  0  0  0  0  0  0  0  0  0  0
    5.8051   -2.1032   24.6222 H   0  0  0  0  0  0  0  0  0  0  0  0
    5.3136   -3.2207   23.3466 H   0  0  0  0  0  0  0  0  0  0  0  0
    7.6725   -1.9817   22.5528 C   0  0  0  0  0  0  0  0  0  0  0  0
    6.7423   -1.6201   21.6872 N   0  0  0  0  0  0  0  0  0  0  0  0
    7.3696   -0.6850   20.9268 N   0  0  0  0  0  0  0  0  0  0  0  0
    6.6588    0.0002   19.8983 C   0  0  0  0  0  0  0  0  0  0  0  0
    5.4408    0.6382   20.1679 C   0  0  0  0  0  0  0  0  0  0  0  0
    4.8134    1.3087   19.1107 C   0  0  0  0  0  0  0  0  0  0  0  0
    5.4009    1.2960   17.8386 C   0  0  0  0  0  0  0  0  0  0  0  0
    6.5605    0.6748   17.5762 N   0  0  0  0  0  0  0  0  0  0  0  0
    7.1684    0.0530   18.5910 C   0  0  0  0  0  0  0  0  0  0  0  0
    8.1131   -0.4340   18.3677 H   0  0  0  0  0  0  0  0  0  0  0  0
    4.9182    1.7852   16.9941 H   0  0  0  0  0  0  0  0  0  0  0  0
    3.8805    1.8398   19.2613 H   0  0  0  0  0  0  0  0  0  0  0  0
    5.0171    0.6114   21.1766 H   0  0  0  0  0  0  0  0  0  0  0  0
    8.6399   -0.5238   21.3966 C   0  0  0  0  0  0  0  0  0  0  0  0
    9.5327    0.5897   20.9364 C   0  0  0  0  0  0  0  0  0  0  0  0
    9.0702    2.0018   21.4082 C   0  0  0  0  0  0  0  0  0  0  0  0
    8.9636    2.1126   22.9035 C   0  0  0  0  0  0  0  0  0  0  0  0
    7.8821    1.9683   23.6227 N   0  0  0  0  0  0  0  0  0  0  0  0
    8.2495    1.9691   24.9485 N   0  0  0  0  0  0  0  0  0  0  0  0
    9.5423    2.1265   24.9979 C   0  0  0  0  0  0  0  0  0  0  0  0
   10.0432    2.2240   23.7336 N   0  0  0  0  0  0  0  0  0  0  0  0
   10.9994    2.3192   23.4577 H   0  0  0  0  0  0  0  0  0  0  0  0
   10.1318    2.2081   25.9013 H   0  0  0  0  0  0  0  0  0  0  0  0
    9.7681    2.7628   21.0430 H   0  0  0  0  0  0  0  0  0  0  0  0
    8.0830    2.2298   20.9954 H   0  0  0  0  0  0  0  0  0  0  0  0
    9.5950    0.5823   19.8453 H   0  0  0  0  0  0  0  0  0  0  0  0
   10.5316    0.3738   21.3234 H   0  0  0  0  0  0  0  0  0  0  0  0
    8.8672   -1.3517   22.4006 N   0  0  0  0  0  0  0  0  0  0  0  0
    8.1604   -2.7755   24.4083 H   0  0  0  0  0  0  0  0  0  0  0  0
    7.8575   -5.1603   23.8865 H   0  0  0  0  0  0  0  0  0  0  0  0
    9.0029   -4.3742   22.8208 H   0  0  0  0  0  0  0  0  0  0  0  0
    7.2132   -4.2375   21.0189 H   0  0  0  0  0  0  0  0  0  0  0  0
    6.0931   -5.0715   22.0938 H   0  0  0  0  0  0  0  0  0  0  0  0
    7.5386   -5.9089   21.5247 H   0  0  0  0  0  0  0  0  0  0  0  0
  1  2  1  0
  2  3  1  0
  3  4  1  0
  4  5  1  0
  4  6  1  0
  4  7  1  0
  3  8  1  0
  8  9  2  0
  9 10  1  0
 10 11  1  0
 11 12  2  0
 12 13  1  0
 13 14  2  0
 14 15  1  0
 15 16  2  0
 16 17  1  0
 14 18  1  0
 13 19  1  0
 12 20  1  0
 10 21  1  0
 21 22  1  0
 22 23  1  0
 23 24  1  0
 24 25  2  0
 25 26  1  0
 26 27  2  0
 27 28  1  0
 28 29  1  0
 27 30  1  0
 23 31  1  0
 23 32  1  0
 22 33  1  0
 22 34  1  0
 21 35  2  0
  3 36  1  0
  2 37  1  0
  2 38  1  0
  1 39  1  0
  1 40  1  0
  1 41  1  0
 35  8  1  0
 16 11  1  0
 28 24  1  0
M  END
>  <cnnaffinity>  (1) 
-5.72309

>  <filename>  (1) 
CCC(C)c1nc(CCc2nnc[nH]2)n(-c2cccnc2)n1

$$$$
