
     RDKit          3D

 42 44  0  0  0  0  0  0  0  0999 V2000
    6.8908   -3.1141   26.2393 C   0  0  0  0  0  0  0  0  0  0  0  0
    7.2746   -2.3025   25.0004 C   0  0  0  0  0  0  0  0  0  0  0  0
    7.2155   -3.0625   23.6548 C   0  0  0  0  0  0  0  0  0  0  0  0
    8.0735   -4.2042   23.6947 O   0  0  0  0  0  0  0  0  0  0  0  0
    7.9428   -4.6119   24.5627 H   0  0  0  0  0  0  0  0  0  0  0  0
    7.5495   -2.1049   22.5149 C   0  0  0  0  0  0  0  0  0  0  0  0
    6.6228   -1.7026   21.6646 N   0  0  0  0  0  0  0  0  0  0  0  0
    7.2658   -0.7903   20.8968 N   0  0  0  0  0  0  0  0  0  0  0  0
    6.5791   -0.0980   19.8590 C   0  0  0  0  0  0  0  0  0  0  0  0
    5.3804    0.5821   20.1184 C   0  0  0  0  0  0  0  0  0  0  0  0
    4.7957    1.3109   19.0778 C   0  0  0  0  0  0  0  0  0  0  0  0
    5.4068    1.3035   17.8171 C   0  0  0  0  0  0  0  0  0  0  0  0
    6.5216    0.6068   17.5473 N   0  0  0  0  0  0  0  0  0  0  0  0
    7.0814   -0.0817   18.5467 C   0  0  0  0  0  0  0  0  0  0  0  0
    7.9769   -0.6544   18.3054 H   0  0  0  0  0  0  0  0  0  0  0  0
    4.9780    1.8594   16.9857 H   0  0  0  0  0  0  0  0  0  0  0  0
    3.8818    1.8803   19.2268 H   0  0  0  0  0  0  0  0  0  0  0  0
    4.9328    0.5259   21.1096 H   0  0  0  0  0  0  0  0  0  0  0  0
    8.5519   -0.6685   21.3503 C   0  0  0  0  0  0  0  0  0  0  0  0
    9.6264    0.1105   20.6612 C   0  0  0  0  0  0  0  0  0  0  0  0
   10.6402    0.6955   21.6107 C   0  0  0  0  0  0  0  0  0  0  0  0
   11.8479    0.0741   21.9329 C   0  0  0  0  0  0  0  0  0  0  0  0
   12.6924    0.6865   22.8708 C   0  0  0  0  0  0  0  0  0  0  0  0
   12.3986    1.8440   23.4727 N   0  0  0  0  0  0  0  0  0  0  0  0
   11.2427    2.4481   23.1492 C   0  0  0  0  0  0  0  0  0  0  0  0
   10.8243    3.7365   23.8784 C   0  0  0  0  0  0  0  0  0  0  0  0
   10.1848    4.5820   23.0415 F   0  0  0  0  0  0  0  0  0  0  0  0
    9.9468    3.4503   24.8632 F   0  0  0  0  0  0  0  0  0  0  0  0
   11.8381    4.4119   24.4247 F   0  0  0  0  0  0  0  0  0  0  0  0
   10.3377    1.9034   22.2290 C   0  0  0  0  0  0  0  0  0  0  0  0
    9.4118    2.4102   21.9828 H   0  0  0  0  0  0  0  0  0  0  0  0
   13.6506    0.2467   23.1417 H   0  0  0  0  0  0  0  0  0  0  0  0
   12.1356   -0.8642   21.4695 H   0  0  0  0  0  0  0  0  0  0  0  0
   10.0944   -0.5871   19.9612 H   0  0  0  0  0  0  0  0  0  0  0  0
    9.1765    0.9181   20.0751 H   0  0  0  0  0  0  0  0  0  0  0  0
    8.7473   -1.4714   22.3751 N   0  0  0  0  0  0  0  0  0  0  0  0
    6.1791   -3.3758   23.4434 H   0  0  0  0  0  0  0  0  0  0  0  0
    8.2909   -1.8980   25.1103 H   0  0  0  0  0  0  0  0  0  0  0  0
    6.6009   -1.4407   24.9198 H   0  0  0  0  0  0  0  0  0  0  0  0
    5.9046   -3.5832   26.1373 H   0  0  0  0  0  0  0  0  0  0  0  0
    7.6130   -3.9063   26.4809 H   0  0  0  0  0  0  0  0  0  0  0  0
    6.8471   -2.4504   27.1075 H   0  0  0  0  0  0  0  0  0  0  0  0
  1  2  1  0
  2  3  1  0
  3  4  1  0
  4  5  1  0
  3  6  1  0
  6  7  2  0
  7  8  1  0
  8  9  1  0
  9 10  2  0
 10 11  1  0
 11 12  2  0
 12 13  1  0
 13 14  2  0
 14 15  1  0
 12 16  1  0
 11 17  1  0
 10 18  1  0
  8 19  1  0
 19 20  1  0
 20 21  1  0
 21 22  2  0
 22 23  1  0
 23 24  2  0
 24 25  1  0
 25 26  1  0
 26 27  1  0
 26 28  1  0
 26 29  1  0
 25 30  2  0
 30 31  1  0
 23 32  1  0
 22 33  1  0
 20 34  1  0
 20 35  1  0
 19 36  2  0
  3 37  1  0
  2 38  1  0
  2 39  1  0
  1 40  1  0
  1 41  1  0
  1 42  1  0
 36  6  1  0
 14  9  1  0
 30 21  1  0
M  END
>  <cnnaffinity>  (1) 
-6.07295

>  <filename>  (1) 
CCC(O)c1nc(Cc2ccnc(C(F)(F)F)c2)n(-c2cccnc2)n1

$$$$
