
     RDKit          3D

 43 45  0  0  0  0  0  0  0  0999 V2000
    6.2352   -1.3934   25.2045 C   0  0  0  0  0  0  0  0  0  0  0  0
    6.1762   -2.7316   24.4638 C   0  0  0  0  0  0  0  0  0  0  0  0
    7.4414   -3.0149   23.6209 C   0  0  0  0  0  0  0  0  0  0  0  0
    7.3992   -4.4213   22.9890 C   0  0  0  0  0  0  0  0  0  0  0  0
    6.5543   -4.5060   22.2930 H   0  0  0  0  0  0  0  0  0  0  0  0
    7.2880   -5.1902   23.7620 H   0  0  0  0  0  0  0  0  0  0  0  0
    8.3208   -4.6248   22.4326 H   0  0  0  0  0  0  0  0  0  0  0  0
    7.6694   -1.9670   22.5634 C   0  0  0  0  0  0  0  0  0  0  0  0
    6.7347   -1.6004   21.7045 N   0  0  0  0  0  0  0  0  0  0  0  0
    7.3663   -0.6707   20.9431 N   0  0  0  0  0  0  0  0  0  0  0  0
    6.6605   -0.0019   19.9013 C   0  0  0  0  0  0  0  0  0  0  0  0
    5.4443    0.6353   20.1641 C   0  0  0  0  0  0  0  0  0  0  0  0
    4.8125    1.3050   19.1115 C   0  0  0  0  0  0  0  0  0  0  0  0
    5.3992    1.2937   17.8395 C   0  0  0  0  0  0  0  0  0  0  0  0
    6.5549    0.6661   17.5781 N   0  0  0  0  0  0  0  0  0  0  0  0
    7.1665    0.0423   18.5902 C   0  0  0  0  0  0  0  0  0  0  0  0
    8.1107   -0.4430   18.3548 H   0  0  0  0  0  0  0  0  0  0  0  0
    4.9301    1.7970   16.9968 H   0  0  0  0  0  0  0  0  0  0  0  0
    3.8812    1.8389   19.2579 H   0  0  0  0  0  0  0  0  0  0  0  0
    5.0288    0.6058   21.1746 H   0  0  0  0  0  0  0  0  0  0  0  0
    8.6347   -0.5013   21.4130 C   0  0  0  0  0  0  0  0  0  0  0  0
    9.5193    0.6165   20.9667 C   0  0  0  0  0  0  0  0  0  0  0  0
    9.0398    2.0240   21.4384 C   0  0  0  0  0  0  0  0  0  0  0  0
    8.9641    2.1403   22.9400 C   0  0  0  0  0  0  0  0  0  0  0  0
   10.1442    2.2366   23.6765 C   0  0  0  0  0  0  0  0  0  0  0  0
   10.0120    2.2004   25.0525 C   0  0  0  0  0  0  0  0  0  0  0  0
    8.8244    2.1528   25.6573 N   0  0  0  0  0  0  0  0  0  0  0  0
    7.7602    2.0561   24.8601 C   0  0  0  0  0  0  0  0  0  0  0  0
    7.7625    2.0419   23.5304 N   0  0  0  0  0  0  0  0  0  0  0  0
    6.7913    1.9539   25.3606 H   0  0  0  0  0  0  0  0  0  0  0  0
   10.8911    2.1679   25.6992 H   0  0  0  0  0  0  0  0  0  0  0  0
   11.1103    2.2966   23.1935 H   0  0  0  0  0  0  0  0  0  0  0  0
    9.7433    2.7749   21.0647 H   0  0  0  0  0  0  0  0  0  0  0  0
    8.0561    2.2550   21.0163 H   0  0  0  0  0  0  0  0  0  0  0  0
    9.5644    0.6046   19.8770 H   0  0  0  0  0  0  0  0  0  0  0  0
   10.5275    0.3985   21.3354 H   0  0  0  0  0  0  0  0  0  0  0  0
    8.8669   -1.3443   22.4053 N   0  0  0  0  0  0  0  0  0  0  0  0
    8.3264   -2.9361   24.2670 H   0  0  0  0  0  0  0  0  0  0  0  0
    5.3029   -2.7602   23.7957 H   0  0  0  0  0  0  0  0  0  0  0  0
    6.0463   -3.5558   25.1799 H   0  0  0  0  0  0  0  0  0  0  0  0
    6.2915   -0.5410   24.5085 H   0  0  0  0  0  0  0  0  0  0  0  0
    7.1194   -1.3419   25.8552 H   0  0  0  0  0  0  0  0  0  0  0  0
    5.3515   -1.2479   25.8367 H   0  0  0  0  0  0  0  0  0  0  0  0
  1  2  1  0
  2  3  1  0
  3  4  1  0
  4  5  1  0
  4  6  1  0
  4  7  1  0
  3  8  1  0
  8  9  2  0
  9 10  1  0
 10 11  1  0
 11 12  2  0
 12 13  1  0
 13 14  2  0
 14 15  1  0
 15 16  2  0
 16 17  1  0
 14 18  1  0
 13 19  1  0
 12 20  1  0
 10 21  1  0
 21 22  1  0
 22 23  1  0
 23 24  1  0
 24 25  2  0
 25 26  1  0
 26 27  2  0
 27 28  1  0
 28 29  2  0
 28 30  1  0
 26 31  1  0
 25 32  1  0
 23 33  1  0
 23 34  1  0
 22 35  1  0
 22 36  1  0
 21 37  2  0
  3 38  1  0
  2 39  1  0
  2 40  1  0
  1 41  1  0
  1 42  1  0
  1 43  1  0
 37  8  1  0
 16 11  1  0
 29 24  1  0
M  END
>  <cnnaffinity>  (1) 
-6.00311

>  <filename>  (1) 
CCC(C)c1nc(CCc2ccncn2)n(-c2cccnc2)n1

$$$$
