
     RDKit          3D

 45 47  0  0  0  0  0  0  0  0999 V2000
   10.2342    1.3123   23.6940 C   0  0  0  0  0  0  0  0  0  0  0  0
   10.4154   -0.1723   24.0124 C   0  0  0  0  0  0  0  0  0  0  0  0
   10.4116   -1.1235   22.7830 C   0  0  0  0  0  0  0  0  0  0  0  0
   11.5111   -0.8490   21.7294 C   0  0  0  0  0  0  0  0  0  0  0  0
   12.9501   -1.1088   22.1658 C   0  0  0  0  0  0  0  0  0  0  0  0
   13.1950   -0.6342   23.1229 H   0  0  0  0  0  0  0  0  0  0  0  0
   13.6594   -0.7304   21.4231 H   0  0  0  0  0  0  0  0  0  0  0  0
   13.1408   -2.1816   22.2490 H   0  0  0  0  0  0  0  0  0  0  0  0
   11.4112    0.1925   21.4025 H   0  0  0  0  0  0  0  0  0  0  0  0
   11.2902   -1.4571   20.8441 H   0  0  0  0  0  0  0  0  0  0  0  0
    9.0556   -1.1420   22.1356 C   0  0  0  0  0  0  0  0  0  0  0  0
    8.6833   -0.3391   21.1547 N   0  0  0  0  0  0  0  0  0  0  0  0
    7.3854   -0.6860   20.9402 N   0  0  0  0  0  0  0  0  0  0  0  0
    6.6704   -0.0158   19.9047 C   0  0  0  0  0  0  0  0  0  0  0  0
    5.4429    0.6217   20.1262 C   0  0  0  0  0  0  0  0  0  0  0  0
    4.8339    1.2861   19.0532 C   0  0  0  0  0  0  0  0  0  0  0  0
    5.4671    1.2805   17.8072 C   0  0  0  0  0  0  0  0  0  0  0  0
    6.6502    0.6774   17.5914 N   0  0  0  0  0  0  0  0  0  0  0  0
    7.2427    0.0659   18.6219 C   0  0  0  0  0  0  0  0  0  0  0  0
    8.2120   -0.3882   18.4257 H   0  0  0  0  0  0  0  0  0  0  0  0
    5.0216    1.7838   16.9510 H   0  0  0  0  0  0  0  0  0  0  0  0
    3.8910    1.8093   19.1757 H   0  0  0  0  0  0  0  0  0  0  0  0
    4.9993    0.6214   21.1208 H   0  0  0  0  0  0  0  0  0  0  0  0
    7.0624   -1.7114   21.7827 C   0  0  0  0  0  0  0  0  0  0  0  0
    5.7541   -2.4244   21.8608 C   0  0  0  0  0  0  0  0  0  0  0  0
    5.7606   -3.8043   21.2761 C   0  0  0  0  0  0  0  0  0  0  0  0
    5.7507   -4.2599   19.9737 C   0  0  0  0  0  0  0  0  0  0  0  0
    5.4717   -3.3093   18.5599 Cl  0  0  0  0  0  0  0  0  0  0  0  0
    6.0053   -5.6432   20.0546 C   0  0  0  0  0  0  0  0  0  0  0  0
    6.1321   -6.0239   21.3200 N   0  0  0  0  0  0  0  0  0  0  0  0
    5.9661   -4.9073   22.0416 N   0  0  0  0  0  0  0  0  0  0  0  0
    5.9660   -4.9468   23.4932 C   0  0  0  0  0  0  0  0  0  0  0  0
    6.6934   -4.2331   23.8878 H   0  0  0  0  0  0  0  0  0  0  0  0
    6.2209   -5.9553   23.8085 H   0  0  0  0  0  0  0  0  0  0  0  0
    4.9850   -4.6735   23.8942 H   0  0  0  0  0  0  0  0  0  0  0  0
    6.0943   -6.3514   19.2414 H   0  0  0  0  0  0  0  0  0  0  0  0
    4.9924   -1.8092   21.3955 H   0  0  0  0  0  0  0  0  0  0  0  0
    5.5087   -2.5090   22.9247 H   0  0  0  0  0  0  0  0  0  0  0  0
    8.0932   -2.0074   22.5502 N   0  0  0  0  0  0  0  0  0  0  0  0
   10.5092   -2.1440   23.1710 H   0  0  0  0  0  0  0  0  0  0  0  0
   11.3463   -0.3287   24.5740 H   0  0  0  0  0  0  0  0  0  0  0  0
    9.6091   -0.4872   24.6897 H   0  0  0  0  0  0  0  0  0  0  0  0
   11.0862    1.7133   23.1340 H   0  0  0  0  0  0  0  0  0  0  0  0
    9.3310    1.5039   23.1024 H   0  0  0  0  0  0  0  0  0  0  0  0
   10.1570    1.8866   24.6236 H   0  0  0  0  0  0  0  0  0  0  0  0
  1  2  1  0
  2  3  1  0
  3  4  1  0
  4  5  1  0
  5  6  1  0
  5  7  1  0
  5  8  1  0
  4  9  1  0
  4 10  1  0
  3 11  1  0
 11 12  2  0
 12 13  1  0
 13 14  1  0
 14 15  2  0
 15 16  1  0
 16 17  2  0
 17 18  1  0
 18 19  2  0
 19 20  1  0
 17 21  1  0
 16 22  1  0
 15 23  1  0
 13 24  1  0
 24 25  1  0
 25 26  1  0
 26 27  2  0
 27 28  1  0
 27 29  1  0
 29 30  2  0
 30 31  1  0
 31 32  1  0
 32 33  1  0
 32 34  1  0
 32 35  1  0
 29 36  1  0
 25 37  1  0
 25 38  1  0
 24 39  2  0
  3 40  1  0
  2 41  1  0
  2 42  1  0
  1 43  1  0
  1 44  1  0
  1 45  1  0
 39 11  1  0
 19 14  1  0
 31 26  1  0
M  END
>  <cnnaffinity>  (1) 
-5.73939

>  <filename>  (1) 
CCC(CC)c1nc(Cc2c(Cl)cnn2C)n(-c2cccnc2)n1

$$$$
