
     RDKit          3D

 45 47  0  0  0  0  0  0  0  0999 V2000
    6.8632   -1.1704   25.3664 C   0  0  0  0  0  0  0  0  0  0  0  0
    7.6569   -2.4380   25.0419 C   0  0  0  0  0  0  0  0  0  0  0  0
    7.2690   -3.0789   23.6856 C   0  0  0  0  0  0  0  0  0  0  0  0
    8.1090   -4.3517   23.4158 C   0  0  0  0  0  0  0  0  0  0  0  0
    7.7650   -5.0321   22.0893 C   0  0  0  0  0  0  0  0  0  0  0  0
    7.9576   -4.3579   21.2445 H   0  0  0  0  0  0  0  0  0  0  0  0
    8.3663   -5.9348   21.9421 H   0  0  0  0  0  0  0  0  0  0  0  0
    6.7060   -5.3168   22.0505 H   0  0  0  0  0  0  0  0  0  0  0  0
    7.9726   -5.0501   24.2547 H   0  0  0  0  0  0  0  0  0  0  0  0
    9.1715   -4.0677   23.4168 H   0  0  0  0  0  0  0  0  0  0  0  0
    7.4109   -2.0979   22.5446 C   0  0  0  0  0  0  0  0  0  0  0  0
    6.4397   -1.7687   21.7148 N   0  0  0  0  0  0  0  0  0  0  0  0
    7.0432   -0.8882   20.8716 N   0  0  0  0  0  0  0  0  0  0  0  0
    6.3507   -0.2236   19.8251 C   0  0  0  0  0  0  0  0  0  0  0  0
    5.1935    0.5213   20.0745 C   0  0  0  0  0  0  0  0  0  0  0  0
    4.6967    1.3223   19.0401 C   0  0  0  0  0  0  0  0  0  0  0  0
    5.3463    1.3157   17.7985 C   0  0  0  0  0  0  0  0  0  0  0  0
    6.4144    0.5473   17.5358 N   0  0  0  0  0  0  0  0  0  0  0  0
    6.8897   -0.2118   18.5260 C   0  0  0  0  0  0  0  0  0  0  0  0
    7.7654   -0.8169   18.2941 H   0  0  0  0  0  0  0  0  0  0  0  0
    4.9922    1.9385   16.9803 H   0  0  0  0  0  0  0  0  0  0  0  0
    3.8293    1.9601   19.1805 H   0  0  0  0  0  0  0  0  0  0  0  0
    4.7207    0.4750   21.0561 H   0  0  0  0  0  0  0  0  0  0  0  0
    8.3374   -0.7203   21.2607 C   0  0  0  0  0  0  0  0  0  0  0  0
    9.3026    0.1518   20.5122 C   0  0  0  0  0  0  0  0  0  0  0  0
   10.4191    0.6671   21.3514 C   0  0  0  0  0  0  0  0  0  0  0  0
   11.6468    0.1149   21.6019 C   0  0  0  0  0  0  0  0  0  0  0  0
   12.2420    0.9807   22.5428 C   0  0  0  0  0  0  0  0  0  0  0  0
   13.6251    0.9114   23.1453 C   0  0  0  0  0  0  0  0  0  0  0  0
   14.3602   -0.0762   22.5944 F   0  0  0  0  0  0  0  0  0  0  0  0
   14.2751    2.0604   22.9403 F   0  0  0  0  0  0  0  0  0  0  0  0
   13.5939    0.6840   24.4686 F   0  0  0  0  0  0  0  0  0  0  0  0
   11.4359    1.9934   22.8509 N   0  0  0  0  0  0  0  0  0  0  0  0
   10.3365    1.7717   22.1326 N   0  0  0  0  0  0  0  0  0  0  0  0
    9.6312    2.4927   22.0854 H   0  0  0  0  0  0  0  0  0  0  0  0
   12.0640   -0.7907   21.1788 H   0  0  0  0  0  0  0  0  0  0  0  0
    9.7212   -0.4566   19.7021 H   0  0  0  0  0  0  0  0  0  0  0  0
    8.7682    0.9844   20.0469 H   0  0  0  0  0  0  0  0  0  0  0  0
    8.6013   -1.4948   22.2913 N   0  0  0  0  0  0  0  0  0  0  0  0
    6.2019   -3.3392   23.6993 H   0  0  0  0  0  0  0  0  0  0  0  0
    8.7293   -2.1956   25.0185 H   0  0  0  0  0  0  0  0  0  0  0  0
    7.5269   -3.1880   25.8363 H   0  0  0  0  0  0  0  0  0  0  0  0
    7.1332   -0.7723   26.3508 H   0  0  0  0  0  0  0  0  0  0  0  0
    5.7821   -1.3597   25.3658 H   0  0  0  0  0  0  0  0  0  0  0  0
    7.0680   -0.3873   24.6251 H   0  0  0  0  0  0  0  0  0  0  0  0
  1  2  1  0
  2  3  1  0
  3  4  1  0
  4  5  1  0
  5  6  1  0
  5  7  1  0
  5  8  1  0
  4  9  1  0
  4 10  1  0
  3 11  1  0
 11 12  2  0
 12 13  1  0
 13 14  1  0
 14 15  2  0
 15 16  1  0
 16 17  2  0
 17 18  1  0
 18 19  2  0
 19 20  1  0
 17 21  1  0
 16 22  1  0
 15 23  1  0
 13 24  1  0
 24 25  1  0
 25 26  1  0
 26 27  2  0
 27 28  1  0
 28 29  1  0
 29 30  1  0
 29 31  1  0
 29 32  1  0
 28 33  2  0
 33 34  1  0
 34 35  1  0
 27 36  1  0
 25 37  1  0
 25 38  1  0
 24 39  2  0
  3 40  1  0
  2 41  1  0
  2 42  1  0
  1 43  1  0
  1 44  1  0
  1 45  1  0
 39 11  1  0
 19 14  1  0
 34 26  1  0
M  END
>  <cnnaffinity>  (1) 
-6.50737

>  <filename>  (1) 
CCC(CC)c1nc(Cc2cc(C(F)(F)F)n[nH]2)n(-c2cccnc2)n1

$$$$
