
     RDKit          3D

 44 46  0  0  0  0  0  0  0  0999 V2000
    5.9501   -1.2445   25.0706 C   0  0  0  0  0  0  0  0  0  0  0  0
    7.2125   -2.0953   25.0669 C   0  0  0  0  0  0  0  0  0  0  0  0
    7.4153   -2.8709   23.7449 C   0  0  0  0  0  0  0  0  0  0  0  0
    8.5486   -3.8971   23.8701 C   0  0  0  0  0  0  0  0  0  0  0  0
    8.6958   -4.4372   22.9299 H   0  0  0  0  0  0  0  0  0  0  0  0
    8.3165   -4.6284   24.6520 H   0  0  0  0  0  0  0  0  0  0  0  0
    9.4928   -3.4048   24.1292 H   0  0  0  0  0  0  0  0  0  0  0  0
    7.6484   -1.9227   22.5983 C   0  0  0  0  0  0  0  0  0  0  0  0
    6.7254   -1.5950   21.7174 N   0  0  0  0  0  0  0  0  0  0  0  0
    7.3568   -0.6727   20.9385 N   0  0  0  0  0  0  0  0  0  0  0  0
    6.6556    0.0029   19.8996 C   0  0  0  0  0  0  0  0  0  0  0  0
    5.4396    0.6441   20.1649 C   0  0  0  0  0  0  0  0  0  0  0  0
    4.8108    1.3112   19.1092 C   0  0  0  0  0  0  0  0  0  0  0  0
    5.4015    1.2949   17.8391 C   0  0  0  0  0  0  0  0  0  0  0  0
    6.5636    0.6757   17.5773 N   0  0  0  0  0  0  0  0  0  0  0  0
    7.1712    0.0543   18.5942 C   0  0  0  0  0  0  0  0  0  0  0  0
    8.1179   -0.4346   18.3735 H   0  0  0  0  0  0  0  0  0  0  0  0
    4.9140    1.7811   16.9963 H   0  0  0  0  0  0  0  0  0  0  0  0
    3.8771    1.8419   19.2631 H   0  0  0  0  0  0  0  0  0  0  0  0
    5.0157    0.6145   21.1717 H   0  0  0  0  0  0  0  0  0  0  0  0
    8.6220   -0.4868   21.4121 C   0  0  0  0  0  0  0  0  0  0  0  0
    9.5100    0.6337   20.9595 C   0  0  0  0  0  0  0  0  0  0  0  0
    9.0245    2.0230   21.4644 C   0  0  0  0  0  0  0  0  0  0  0  0
    8.8506    2.0645   22.9648 C   0  0  0  0  0  0  0  0  0  0  0  0
    7.6418    2.0018   23.4509 N   0  0  0  0  0  0  0  0  0  0  0  0
    7.5380    1.9370   24.8202 N   0  0  0  0  0  0  0  0  0  0  0  0
    8.5455    1.9394   25.7764 C   0  0  0  0  0  0  0  0  0  0  0  0
    8.2842    1.9166   26.9684 O   0  0  0  0  0  0  0  0  0  0  0  0
    9.8765    1.9955   25.1706 C   0  0  0  0  0  0  0  0  0  0  0  0
   10.0281    2.0474   23.8222 C   0  0  0  0  0  0  0  0  0  0  0  0
   11.0149    2.0713   23.3582 H   0  0  0  0  0  0  0  0  0  0  0  0
   10.6947    1.9799   25.8782 H   0  0  0  0  0  0  0  0  0  0  0  0
    6.6122    1.9059   25.2156 H   0  0  0  0  0  0  0  0  0  0  0  0
    8.0722    2.2783   20.9955 H   0  0  0  0  0  0  0  0  0  0  0  0
    9.7597    2.7777   21.1706 H   0  0  0  0  0  0  0  0  0  0  0  0
   10.5185    0.4214   21.3295 H   0  0  0  0  0  0  0  0  0  0  0  0
    9.5715    0.6510   19.8687 H   0  0  0  0  0  0  0  0  0  0  0  0
    8.8392   -1.2817   22.4408 N   0  0  0  0  0  0  0  0  0  0  0  0
    6.4874   -3.3997   23.5044 H   0  0  0  0  0  0  0  0  0  0  0  0
    7.1701   -2.8127   25.8960 H   0  0  0  0  0  0  0  0  0  0  0  0
    8.0937   -1.4635   25.2489 H   0  0  0  0  0  0  0  0  0  0  0  0
    5.0624   -1.8701   24.9233 H   0  0  0  0  0  0  0  0  0  0  0  0
    5.9615   -0.4978   24.2702 H   0  0  0  0  0  0  0  0  0  0  0  0
    5.8323   -0.7211   26.0249 H   0  0  0  0  0  0  0  0  0  0  0  0
  1  2  1  0
  2  3  1  0
  3  4  1  0
  4  5  1  0
  4  6  1  0
  4  7  1  0
  3  8  1  0
  8  9  2  0
  9 10  1  0
 10 11  1  0
 11 12  2  0
 12 13  1  0
 13 14  2  0
 14 15  1  0
 15 16  2  0
 16 17  1  0
 14 18  1  0
 13 19  1  0
 12 20  1  0
 10 21  1  0
 21 22  1  0
 22 23  1  0
 23 24  1  0
 24 25  2  0
 25 26  1  0
 26 27  1  0
 27 28  2  0
 27 29  1  0
 29 30  2  0
 30 31  1  0
 29 32  1  0
 26 33  1  0
 23 34  1  0
 23 35  1  0
 22 36  1  0
 22 37  1  0
 21 38  2  0
  3 39  1  0
  2 40  1  0
  2 41  1  0
  1 42  1  0
  1 43  1  0
  1 44  1  0
 38  8  1  0
 16 11  1  0
 30 24  1  0
M  END
>  <cnnaffinity>  (1) 
-6.00762

>  <filename>  (1) 
CCC(C)c1nc(CCc2ccc(=O)[nH]n2)n(-c2cccnc2)n1

$$$$
