
     RDKit          3D

 48 50  0  0  0  0  0  0  0  0999 V2000
    7.0341   -3.3012   26.1318 C   0  0  0  0  0  0  0  0  0  0  0  0
    7.5098   -2.3964   24.9894 C   0  0  0  0  0  0  0  0  0  0  0  0
    7.4168   -3.0636   23.5878 C   0  0  0  0  0  0  0  0  0  0  0  0
    8.3935   -4.2495   23.4387 C   0  0  0  0  0  0  0  0  0  0  0  0
    8.1370   -5.0568   24.1334 H   0  0  0  0  0  0  0  0  0  0  0  0
    8.3709   -4.6593   22.4225 H   0  0  0  0  0  0  0  0  0  0  0  0
    9.4278   -3.9404   23.6459 H   0  0  0  0  0  0  0  0  0  0  0  0
    7.6409   -2.0474   22.5031 C   0  0  0  0  0  0  0  0  0  0  0  0
    6.6930   -1.6226   21.6946 N   0  0  0  0  0  0  0  0  0  0  0  0
    7.3305   -0.6910   20.9340 N   0  0  0  0  0  0  0  0  0  0  0  0
    6.6408   -0.0139   19.8887 C   0  0  0  0  0  0  0  0  0  0  0  0
    5.4292    0.6323   20.1493 C   0  0  0  0  0  0  0  0  0  0  0  0
    4.8001    1.3161   19.1029 C   0  0  0  0  0  0  0  0  0  0  0  0
    5.3950    1.3044   17.8338 C   0  0  0  0  0  0  0  0  0  0  0  0
    6.5449    0.6670   17.5702 N   0  0  0  0  0  0  0  0  0  0  0  0
    7.1528    0.0356   18.5809 C   0  0  0  0  0  0  0  0  0  0  0  0
    8.0980   -0.4506   18.3448 H   0  0  0  0  0  0  0  0  0  0  0  0
    4.9312    1.8202   16.9948 H   0  0  0  0  0  0  0  0  0  0  0  0
    3.8674    1.8538   19.2510 H   0  0  0  0  0  0  0  0  0  0  0  0
    5.0094    0.5871   21.1560 H   0  0  0  0  0  0  0  0  0  0  0  0
    8.6155   -0.5753   21.3689 C   0  0  0  0  0  0  0  0  0  0  0  0
    9.6261    0.4391   20.9235 C   0  0  0  0  0  0  0  0  0  0  0  0
    9.8939    1.4907   21.9743 C   0  0  0  0  0  0  0  0  0  0  0  0
    9.0411    2.5114   22.3385 C   0  0  0  0  0  0  0  0  0  0  0  0
    7.7226    2.8902   21.7297 C   0  0  0  0  0  0  0  0  0  0  0  0
    7.7169    2.5453   20.6935 H   0  0  0  0  0  0  0  0  0  0  0  0
    7.5305    3.9691   21.7395 H   0  0  0  0  0  0  0  0  0  0  0  0
    6.8808    2.3988   22.2378 H   0  0  0  0  0  0  0  0  0  0  0  0
    9.5738    3.0597   23.4643 N   0  0  0  0  0  0  0  0  0  0  0  0
    9.0584    4.1786   24.2218 C   0  0  0  0  0  0  0  0  0  0  0  0
    8.0289    3.9722   24.5357 H   0  0  0  0  0  0  0  0  0  0  0  0
    9.7003    4.3051   25.0952 H   0  0  0  0  0  0  0  0  0  0  0  0
    9.0709    5.0861   23.6076 H   0  0  0  0  0  0  0  0  0  0  0  0
   10.6981    2.4332   23.8691 N   0  0  0  0  0  0  0  0  0  0  0  0
   10.8927    1.4750   22.9730 C   0  0  0  0  0  0  0  0  0  0  0  0
   11.9720    0.4522   23.0803 C   0  0  0  0  0  0  0  0  0  0  0  0
   12.6583    0.6620   23.9046 H   0  0  0  0  0  0  0  0  0  0  0  0
   12.5357    0.3943   22.1411 H   0  0  0  0  0  0  0  0  0  0  0  0
   11.4995   -0.5267   23.2374 H   0  0  0  0  0  0  0  0  0  0  0  0
    9.2800    0.8934   19.9955 H   0  0  0  0  0  0  0  0  0  0  0  0
   10.5379   -0.1219   20.6978 H   0  0  0  0  0  0  0  0  0  0  0  0
    8.8493   -1.4488   22.3254 N   0  0  0  0  0  0  0  0  0  0  0  0
    6.3830   -3.4014   23.4273 H   0  0  0  0  0  0  0  0  0  0  0  0
    8.5489   -2.0719   25.1603 H   0  0  0  0  0  0  0  0  0  0  0  0
    6.9126   -1.4728   24.9802 H   0  0  0  0  0  0  0  0  0  0  0  0
    6.0181   -3.6718   25.9439 H   0  0  0  0  0  0  0  0  0  0  0  0
    7.0150   -2.7636   27.0864 H   0  0  0  0  0  0  0  0  0  0  0  0
    7.6831   -4.1744   26.2660 H   0  0  0  0  0  0  0  0  0  0  0  0
  1  2  1  0
  2  3  1  0
  3  4  1  0
  4  5  1  0
  4  6  1  0
  4  7  1  0
  3  8  1  0
  8  9  2  0
  9 10  1  0
 10 11  1  0
 11 12  2  0
 12 13  1  0
 13 14  2  0
 14 15  1  0
 15 16  2  0
 16 17  1  0
 14 18  1  0
 13 19  1  0
 12 20  1  0
 10 21  1  0
 21 22  1  0
 22 23  1  0
 23 24  2  0
 24 25  1  0
 25 26  1  0
 25 27  1  0
 25 28  1  0
 24 29  1  0
 29 30  1  0
 30 31  1  0
 30 32  1  0
 30 33  1  0
 29 34  1  0
 34 35  2  0
 35 36  1  0
 36 37  1  0
 36 38  1  0
 36 39  1  0
 22 40  1  0
 22 41  1  0
 21 42  2  0
  3 43  1  0
  2 44  1  0
  2 45  1  0
  1 46  1  0
  1 47  1  0
  1 48  1  0
 42  8  1  0
 16 11  1  0
 35 23  1  0
M  END
>  <cnnaffinity>  (1) 
-6.17169

>  <filename>  (1) 
CCC(C)c1nc(Cc2c(C)nn(C)c2C)n(-c2cccnc2)n1

$$$$
