
     RDKit          3D

 48 50  0  0  0  0  0  0  0  0999 V2000
    5.6240   -5.2700   23.9135 C   0  0  0  0  0  0  0  0  0  0  0  0
    6.7947   -4.3053   23.7127 C   0  0  0  0  0  0  0  0  0  0  0  0
    7.5853   -4.5980   22.4236 C   0  0  0  0  0  0  0  0  0  0  0  0
    8.3136   -5.9479   22.4952 C   0  0  0  0  0  0  0  0  0  0  0  0
    8.8918   -6.0441   23.4237 H   0  0  0  0  0  0  0  0  0  0  0  0
    9.0103   -6.0732   21.6623 H   0  0  0  0  0  0  0  0  0  0  0  0
    7.6126   -6.7878   22.4527 H   0  0  0  0  0  0  0  0  0  0  0  0
    8.5736   -3.4672   22.0568 C   0  0  0  0  0  0  0  0  0  0  0  0
    7.9435   -2.1323   21.8620 C   0  0  0  0  0  0  0  0  0  0  0  0
    7.5132   -1.7541   20.6782 N   0  0  0  0  0  0  0  0  0  0  0  0
    6.9714   -0.5337   20.9150 N   0  0  0  0  0  0  0  0  0  0  0  0
    6.3718    0.1524   19.8327 C   0  0  0  0  0  0  0  0  0  0  0  0
    5.1721    0.8634   19.9422 C   0  0  0  0  0  0  0  0  0  0  0  0
    4.6875    1.4982   18.7920 C   0  0  0  0  0  0  0  0  0  0  0  0
    5.4046    1.3900   17.5968 C   0  0  0  0  0  0  0  0  0  0  0  0
    6.5373    0.6710   17.4809 N   0  0  0  0  0  0  0  0  0  0  0  0
    6.9950    0.0619   18.5751 C   0  0  0  0  0  0  0  0  0  0  0  0
    7.9088   -0.5217   18.4786 H   0  0  0  0  0  0  0  0  0  0  0  0
    5.0564    1.8856   16.6931 H   0  0  0  0  0  0  0  0  0  0  0  0
    3.7719    2.0809   18.8176 H   0  0  0  0  0  0  0  0  0  0  0  0
    4.6224    0.9031   20.8835 H   0  0  0  0  0  0  0  0  0  0  0  0
    7.1862   -0.2044   22.2212 C   0  0  0  0  0  0  0  0  0  0  0  0
    6.8561    1.1266   22.8494 C   0  0  0  0  0  0  0  0  0  0  0  0
    7.8934    1.6497   23.7623 N   0  0  0  0  0  0  0  0  0  0  0  0
    9.0512    2.1956   23.2512 C   0  0  0  0  0  0  0  0  0  0  0  0
   10.1901    2.2599   24.0109 C   0  0  0  0  0  0  0  0  0  0  0  0
   11.4791    2.8296   23.4858 C   0  0  0  0  0  0  0  0  0  0  0  0
   12.4770    1.9284   23.6060 F   0  0  0  0  0  0  0  0  0  0  0  0
   11.8745    3.9265   24.1637 F   0  0  0  0  0  0  0  0  0  0  0  0
   11.4199    3.1834   22.1922 F   0  0  0  0  0  0  0  0  0  0  0  0
   10.2051    1.6981   25.3273 C   0  0  0  0  0  0  0  0  0  0  0  0
    9.0364    1.2873   25.8817 C   0  0  0  0  0  0  0  0  0  0  0  0
    7.7722    1.3608   25.1684 C   0  0  0  0  0  0  0  0  0  0  0  0
    6.6855    1.1658   25.6867 O   0  0  0  0  0  0  0  0  0  0  0  0
    8.9420    0.8948   26.8812 H   0  0  0  0  0  0  0  0  0  0  0  0
   11.1536    1.5606   25.8502 H   0  0  0  0  0  0  0  0  0  0  0  0
    9.0053    2.5496   22.2156 H   0  0  0  0  0  0  0  0  0  0  0  0
    5.9501    1.0025   23.4480 H   0  0  0  0  0  0  0  0  0  0  0  0
    6.6439    1.8646   22.0711 H   0  0  0  0  0  0  0  0  0  0  0  0
    7.7632   -1.2180   22.8457 N   0  0  0  0  0  0  0  0  0  0  0  0
    9.3681   -3.3731   22.8033 H   0  0  0  0  0  0  0  0  0  0  0  0
    9.0228   -3.6938   21.0887 H   0  0  0  0  0  0  0  0  0  0  0  0
    6.8604   -4.6510   21.5945 H   0  0  0  0  0  0  0  0  0  0  0  0
    7.4819   -4.3496   24.5734 H   0  0  0  0  0  0  0  0  0  0  0  0
    6.4200   -3.2718   23.6887 H   0  0  0  0  0  0  0  0  0  0  0  0
    5.0436   -5.0124   24.8043 H   0  0  0  0  0  0  0  0  0  0  0  0
    5.9619   -6.3069   24.0231 H   0  0  0  0  0  0  0  0  0  0  0  0
    4.9475   -5.2268   23.0507 H   0  0  0  0  0  0  0  0  0  0  0  0
  1  2  1  0
  2  3  1  0
  3  4  1  0
  4  5  1  0
  4  6  1  0
  4  7  1  0
  3  8  1  0
  8  9  1  0
  9 10  2  0
 10 11  1  0
 11 12  1  0
 12 13  2  0
 13 14  1  0
 14 15  2  0
 15 16  1  0
 16 17  2  0
 17 18  1  0
 15 19  1  0
 14 20  1  0
 13 21  1  0
 11 22  1  0
 22 23  1  0
 23 24  1  0
 24 25  1  0
 25 26  2  0
 26 27  1  0
 27 28  1  0
 27 29  1  0
 27 30  1  0
 26 31  1  0
 31 32  2  0
 32 33  1  0
 33 34  2  0
 32 35  1  0
 31 36  1  0
 25 37  1  0
 23 38  1  0
 23 39  1  0
 22 40  2  0
  8 41  1  0
  8 42  1  0
  3 43  1  0
  2 44  1  0
  2 45  1  0
  1 46  1  0
  1 47  1  0
  1 48  1  0
 40  9  1  0
 17 12  1  0
 33 24  1  0
M  END
>  <cnnaffinity>  (1) 
-6.46582

>  <filename>  (1) 
CCC(C)Cc1nc(Cn2cc(C(F)(F)F)ccc2=O)n(-c2cccnc2)n1

$$$$
