
     RDKit          3D

 47 49  0  0  0  0  0  0  0  0999 V2000
    7.0412   -3.3286   26.1221 C   0  0  0  0  0  0  0  0  0  0  0  0
    7.5614   -2.4579   24.9779 C   0  0  0  0  0  0  0  0  0  0  0  0
    7.4055   -3.1069   23.5807 C   0  0  0  0  0  0  0  0  0  0  0  0
    8.3315   -4.3246   23.3851 C   0  0  0  0  0  0  0  0  0  0  0  0
    8.1237   -5.0010   22.0325 C   0  0  0  0  0  0  0  0  0  0  0  0
    7.0813   -5.3153   21.9076 H   0  0  0  0  0  0  0  0  0  0  0  0
    8.7588   -5.8846   21.9198 H   0  0  0  0  0  0  0  0  0  0  0  0
    8.3612   -4.3036   21.2197 H   0  0  0  0  0  0  0  0  0  0  0  0
    9.3717   -3.9829   23.4641 H   0  0  0  0  0  0  0  0  0  0  0  0
    8.1761   -5.0419   24.2006 H   0  0  0  0  0  0  0  0  0  0  0  0
    7.6248   -2.0952   22.4859 C   0  0  0  0  0  0  0  0  0  0  0  0
    6.6862   -1.6621   21.6727 N   0  0  0  0  0  0  0  0  0  0  0  0
    7.3302   -0.7292   20.9154 N   0  0  0  0  0  0  0  0  0  0  0  0
    6.6352   -0.0429   19.8729 C   0  0  0  0  0  0  0  0  0  0  0  0
    5.4212    0.6080   20.1379 C   0  0  0  0  0  0  0  0  0  0  0  0
    4.8006    1.3049   19.0960 C   0  0  0  0  0  0  0  0  0  0  0  0
    5.3987    1.3065   17.8320 C   0  0  0  0  0  0  0  0  0  0  0  0
    6.5382    0.6553   17.5586 N   0  0  0  0  0  0  0  0  0  0  0  0
    7.1403    0.0006   18.5594 C   0  0  0  0  0  0  0  0  0  0  0  0
    8.0721   -0.5123   18.3156 H   0  0  0  0  0  0  0  0  0  0  0  0
    4.9401    1.8522   17.0079 H   0  0  0  0  0  0  0  0  0  0  0  0
    3.8793    1.8559   19.2550 H   0  0  0  0  0  0  0  0  0  0  0  0
    4.9960    0.5620   21.1401 H   0  0  0  0  0  0  0  0  0  0  0  0
    8.6217   -0.6351   21.3537 C   0  0  0  0  0  0  0  0  0  0  0  0
    9.6475    0.3829   20.9424 C   0  0  0  0  0  0  0  0  0  0  0  0
    9.9265    1.4306   21.9990 C   0  0  0  0  0  0  0  0  0  0  0  0
    9.1286    2.4599   22.3797 C   0  0  0  0  0  0  0  0  0  0  0  0
    7.8015    2.8914   21.8599 C   0  0  0  0  0  0  0  0  0  0  0  0
    7.6294    3.9700   21.9246 H   0  0  0  0  0  0  0  0  0  0  0  0
    7.7202    2.5749   20.8176 H   0  0  0  0  0  0  0  0  0  0  0  0
    7.0133    2.3555   22.3997 H   0  0  0  0  0  0  0  0  0  0  0  0
    9.6437    3.0678   23.4562 O   0  0  0  0  0  0  0  0  0  0  0  0
   10.8253    2.4353   23.8230 N   0  0  0  0  0  0  0  0  0  0  0  0
   10.9822    1.4662   22.9599 C   0  0  0  0  0  0  0  0  0  0  0  0
   12.0828    0.4660   23.0288 C   0  0  0  0  0  0  0  0  0  0  0  0
   11.6232   -0.5228   23.1376 H   0  0  0  0  0  0  0  0  0  0  0  0
   12.7586    0.6356   23.8675 H   0  0  0  0  0  0  0  0  0  0  0  0
   12.6707    0.4579   22.1042 H   0  0  0  0  0  0  0  0  0  0  0  0
    9.3425    0.8702   20.0141 H   0  0  0  0  0  0  0  0  0  0  0  0
   10.5689   -0.1711   20.7332 H   0  0  0  0  0  0  0  0  0  0  0  0
    8.8434   -1.5188   22.3050 N   0  0  0  0  0  0  0  0  0  0  0  0
    6.3615   -3.4241   23.4703 H   0  0  0  0  0  0  0  0  0  0  0  0
    7.0260   -1.5000   24.9865 H   0  0  0  0  0  0  0  0  0  0  0  0
    8.6182   -2.2129   25.1443 H   0  0  0  0  0  0  0  0  0  0  0  0
    7.0681   -2.7926   27.0768 H   0  0  0  0  0  0  0  0  0  0  0  0
    6.0017   -3.6244   25.9387 H   0  0  0  0  0  0  0  0  0  0  0  0
    7.6336   -4.2413   26.2486 H   0  0  0  0  0  0  0  0  0  0  0  0
  1  2  1  0
  2  3  1  0
  3  4  1  0
  4  5  1  0
  5  6  1  0
  5  7  1  0
  5  8  1  0
  4  9  1  0
  4 10  1  0
  3 11  1  0
 11 12  2  0
 12 13  1  0
 13 14  1  0
 14 15  2  0
 15 16  1  0
 16 17  2  0
 17 18  1  0
 18 19  2  0
 19 20  1  0
 17 21  1  0
 16 22  1  0
 15 23  1  0
 13 24  1  0
 24 25  1  0
 25 26  1  0
 26 27  2  0
 27 28  1  0
 28 29  1  0
 28 30  1  0
 28 31  1  0
 27 32  1  0
 32 33  1  0
 33 34  2  0
 34 35  1  0
 35 36  1  0
 35 37  1  0
 35 38  1  0
 25 39  1  0
 25 40  1  0
 24 41  2  0
  3 42  1  0
  2 43  1  0
  2 44  1  0
  1 45  1  0
  1 46  1  0
  1 47  1  0
 41 11  1  0
 19 14  1  0
 34 26  1  0
M  END
>  <cnnaffinity>  (1) 
-6.31202

>  <filename>  (1) 
CCC(CC)c1nc(Cc2c(C)noc2C)n(-c2cccnc2)n1

$$$$
