
     RDKit          3D

 52 54  0  0  0  0  0  0  0  0999 V2000
    8.2137   -1.2675   25.5976 C   0  0  0  0  0  0  0  0  0  0  0  0
    7.0254   -2.0649   25.0489 C   0  0  0  0  0  0  0  0  0  0  0  0
    7.3124   -2.9060   23.7717 C   0  0  0  0  0  0  0  0  0  0  0  0
    8.4584   -3.9301   23.9401 C   0  0  0  0  0  0  0  0  0  0  0  0
    8.2027   -4.9778   25.0207 C   0  0  0  0  0  0  0  0  0  0  0  0
    7.2429   -5.4789   24.8560 H   0  0  0  0  0  0  0  0  0  0  0  0
    8.9819   -5.7476   25.0305 H   0  0  0  0  0  0  0  0  0  0  0  0
    8.1781   -4.5294   26.0195 H   0  0  0  0  0  0  0  0  0  0  0  0
    9.3858   -3.3882   24.1586 H   0  0  0  0  0  0  0  0  0  0  0  0
    8.6316   -4.4314   22.9802 H   0  0  0  0  0  0  0  0  0  0  0  0
    7.5728   -1.9871   22.6075 C   0  0  0  0  0  0  0  0  0  0  0  0
    6.6447   -1.5738   21.7696 N   0  0  0  0  0  0  0  0  0  0  0  0
    7.3126   -0.7005   20.9634 N   0  0  0  0  0  0  0  0  0  0  0  0
    6.6436   -0.0204   19.9053 C   0  0  0  0  0  0  0  0  0  0  0  0
    5.4285    0.6328   20.1546 C   0  0  0  0  0  0  0  0  0  0  0  0
    4.8116    1.3087   19.0990 C   0  0  0  0  0  0  0  0  0  0  0  0
    5.4146    1.2947   17.8374 C   0  0  0  0  0  0  0  0  0  0  0  0
    6.5606    0.6453   17.5792 N   0  0  0  0  0  0  0  0  0  0  0  0
    7.1575    0.0089   18.5947 C   0  0  0  0  0  0  0  0  0  0  0  0
    8.0908   -0.5000   18.3476 H   0  0  0  0  0  0  0  0  0  0  0  0
    4.9580    1.8217   17.0032 H   0  0  0  0  0  0  0  0  0  0  0  0
    3.8814    1.8463   19.2511 H   0  0  0  0  0  0  0  0  0  0  0  0
    4.9998    0.5943   21.1543 H   0  0  0  0  0  0  0  0  0  0  0  0
    8.6081   -0.6229   21.3887 C   0  0  0  0  0  0  0  0  0  0  0  0
    9.6817    0.1691   20.7006 C   0  0  0  0  0  0  0  0  0  0  0  0
   10.7399    0.6974   21.5654 N   0  0  0  0  0  0  0  0  0  0  0  0
   10.2759    1.7320   22.4790 C   0  0  0  0  0  0  0  0  0  0  0  0
   11.4317    2.3969   23.2333 C   0  0  0  0  0  0  0  0  0  0  0  0
   10.8588    3.4934   24.1090 C   0  0  0  0  0  0  0  0  0  0  0  0
   10.0335    2.9877   25.0560 F   0  0  0  0  0  0  0  0  0  0  0  0
   11.8178    4.2231   24.7102 F   0  0  0  0  0  0  0  0  0  0  0  0
   10.1184    4.3634   23.3912 F   0  0  0  0  0  0  0  0  0  0  0  0
   12.2645    1.3292   23.9576 C   0  0  0  0  0  0  0  0  0  0  0  0
   12.8157    0.3766   22.8934 C   0  0  0  0  0  0  0  0  0  0  0  0
   11.8415   -0.1050   21.8317 C   0  0  0  0  0  0  0  0  0  0  0  0
   12.0819   -1.1167   21.1959 O   0  0  0  0  0  0  0  0  0  0  0  0
   13.5980    0.8903   22.3248 H   0  0  0  0  0  0  0  0  0  0  0  0
   13.2797   -0.5244   23.2910 H   0  0  0  0  0  0  0  0  0  0  0  0
   13.0932    1.7823   24.5124 H   0  0  0  0  0  0  0  0  0  0  0  0
   11.6398    0.8044   24.6945 H   0  0  0  0  0  0  0  0  0  0  0  0
   12.0750    2.9127   22.5144 H   0  0  0  0  0  0  0  0  0  0  0  0
    9.5563    1.3090   23.2027 H   0  0  0  0  0  0  0  0  0  0  0  0
    9.7337    2.4904   21.8986 H   0  0  0  0  0  0  0  0  0  0  0  0
   10.1477   -0.5099   19.9845 H   0  0  0  0  0  0  0  0  0  0  0  0
    9.2211    0.9982   20.1582 H   0  0  0  0  0  0  0  0  0  0  0  0
    8.7969   -1.4354   22.4060 N   0  0  0  0  0  0  0  0  0  0  0  0
    6.3926   -3.4485   23.5231 H   0  0  0  0  0  0  0  0  0  0  0  0
    6.2044   -1.3754   24.8166 H   0  0  0  0  0  0  0  0  0  0  0  0
    6.6412   -2.7301   25.8318 H   0  0  0  0  0  0  0  0  0  0  0  0
    7.9117   -0.6519   26.4495 H   0  0  0  0  0  0  0  0  0  0  0  0
    8.6367   -0.5955   24.8441 H   0  0  0  0  0  0  0  0  0  0  0  0
    9.0209   -1.9227   25.9412 H   0  0  0  0  0  0  0  0  0  0  0  0
  1  2  1  0
  2  3  1  0
  3  4  1  0
  4  5  1  0
  5  6  1  0
  5  7  1  0
  5  8  1  0
  4  9  1  0
  4 10  1  0
  3 11  1  0
 11 12  2  0
 12 13  1  0
 13 14  1  0
 14 15  2  0
 15 16  1  0
 16 17  2  0
 17 18  1  0
 18 19  2  0
 19 20  1  0
 17 21  1  0
 16 22  1  0
 15 23  1  0
 13 24  1  0
 24 25  1  0
 25 26  1  0
 26 27  1  0
 27 28  1  0
 28 29  1  0
 29 30  1  0
 29 31  1  0
 29 32  1  0
 28 33  1  0
 33 34  1  0
 34 35  1  0
 35 36  2  0
 34 37  1  0
 34 38  1  0
 33 39  1  0
 33 40  1  0
 28 41  1  0
 27 42  1  0
 27 43  1  0
 25 44  1  0
 25 45  1  0
 24 46  2  0
  3 47  1  0
  2 48  1  0
  2 49  1  0
  1 50  1  0
  1 51  1  0
  1 52  1  0
 46 11  1  0
 19 14  1  0
 35 26  1  0
M  END
>  <cnnaffinity>  (1) 
-6.72727

>  <filename>  (1) 
CCC(CC)c1nc(CN2CC(C(F)(F)F)CCC2=O)n(-c2cccnc2)n1

$$$$
