
     RDKit          3D

 45 47  0  0  0  0  0  0  0  0999 V2000
    8.8871   -5.2281   24.0990 C   0  0  0  0  0  0  0  0  0  0  0  0
    8.3534   -3.8076   23.8911 C   0  0  0  0  0  0  0  0  0  0  0  0
    8.9878   -3.0792   22.6818 C   0  0  0  0  0  0  0  0  0  0  0  0
   10.4338   -2.6203   22.9985 C   0  0  0  0  0  0  0  0  0  0  0  0
   11.0605   -3.4275   23.3951 H   0  0  0  0  0  0  0  0  0  0  0  0
   10.9264   -2.2234   22.1039 H   0  0  0  0  0  0  0  0  0  0  0  0
   10.4059   -1.8067   23.7411 H   0  0  0  0  0  0  0  0  0  0  0  0
    8.1790   -1.8953   22.2168 C   0  0  0  0  0  0  0  0  0  0  0  0
    7.6919   -1.7541   20.9994 N   0  0  0  0  0  0  0  0  0  0  0  0
    7.1836   -0.4854   21.0227 N   0  0  0  0  0  0  0  0  0  0  0  0
    6.5608    0.0979   19.8838 C   0  0  0  0  0  0  0  0  0  0  0  0
    5.3915    0.8645   19.9890 C   0  0  0  0  0  0  0  0  0  0  0  0
    4.8924    1.4682   18.8297 C   0  0  0  0  0  0  0  0  0  0  0  0
    5.5683    1.2846   17.6205 C   0  0  0  0  0  0  0  0  0  0  0  0
    6.6746    0.5275   17.5108 N   0  0  0  0  0  0  0  0  0  0  0  0
    7.1435   -0.0622   18.6142 C   0  0  0  0  0  0  0  0  0  0  0  0
    8.0174   -0.7003   18.5090 H   0  0  0  0  0  0  0  0  0  0  0  0
    5.2054    1.7408   16.7012 H   0  0  0  0  0  0  0  0  0  0  0  0
    3.9981    2.0815   18.8580 H   0  0  0  0  0  0  0  0  0  0  0  0
    4.8743    0.9624   20.9444 H   0  0  0  0  0  0  0  0  0  0  0  0
    7.4531    0.0761   22.2373 C   0  0  0  0  0  0  0  0  0  0  0  0
    7.4169    1.5340   22.5674 C   0  0  0  0  0  0  0  0  0  0  0  0
    8.4227    2.4068   21.7645 C   0  0  0  0  0  0  0  0  0  0  0  0
    8.4944    3.8189   22.2598 C   0  0  0  0  0  0  0  0  0  0  0  0
    9.4166    4.2872   23.1624 C   0  0  0  0  0  0  0  0  0  0  0  0
    9.3843    5.6568   23.5737 C   0  0  0  0  0  0  0  0  0  0  0  0
    8.4400    6.5038   23.0682 C   0  0  0  0  0  0  0  0  0  0  0  0
    7.4393    6.0313   22.1200 C   0  0  0  0  0  0  0  0  0  0  0  0
    6.5553    6.7023   21.6155 O   0  0  0  0  0  0  0  0  0  0  0  0
    7.5302    4.6814   21.8034 N   0  0  0  0  0  0  0  0  0  0  0  0
    6.8391    4.4224   21.1156 H   0  0  0  0  0  0  0  0  0  0  0  0
    8.3515    7.5500   23.3221 H   0  0  0  0  0  0  0  0  0  0  0  0
   10.1234    6.0204   24.2916 H   0  0  0  0  0  0  0  0  0  0  0  0
   10.1715    3.6137   23.5506 H   0  0  0  0  0  0  0  0  0  0  0  0
    9.4284    1.9859   21.8480 H   0  0  0  0  0  0  0  0  0  0  0  0
    8.1626    2.3936   20.7004 H   0  0  0  0  0  0  0  0  0  0  0  0
    7.6452    1.5911   23.6365 H   0  0  0  0  0  0  0  0  0  0  0  0
    6.4062    1.9189   22.4297 H   0  0  0  0  0  0  0  0  0  0  0  0
    8.0176   -0.8157   23.0240 N   0  0  0  0  0  0  0  0  0  0  0  0
    8.9855   -3.7607   21.8264 H   0  0  0  0  0  0  0  0  0  0  0  0
    8.5442   -3.2332   24.8085 H   0  0  0  0  0  0  0  0  0  0  0  0
    7.2633   -3.8474   23.7691 H   0  0  0  0  0  0  0  0  0  0  0  0
    8.7451   -5.8603   23.2142 H   0  0  0  0  0  0  0  0  0  0  0  0
    9.9553   -5.2313   24.3463 H   0  0  0  0  0  0  0  0  0  0  0  0
    8.3602   -5.7107   24.9280 H   0  0  0  0  0  0  0  0  0  0  0  0
  1  2  1  0
  2  3  1  0
  3  4  1  0
  4  5  1  0
  4  6  1  0
  4  7  1  0
  3  8  1  0
  8  9  2  0
  9 10  1  0
 10 11  1  0
 11 12  2  0
 12 13  1  0
 13 14  2  0
 14 15  1  0
 15 16  2  0
 16 17  1  0
 14 18  1  0
 13 19  1  0
 12 20  1  0
 10 21  1  0
 21 22  1  0
 22 23  1  0
 23 24  1  0
 24 25  2  0
 25 26  1  0
 26 27  2  0
 27 28  1  0
 28 29  2  0
 28 30  1  0
 30 31  1  0
 27 32  1  0
 26 33  1  0
 25 34  1  0
 23 35  1  0
 23 36  1  0
 22 37  1  0
 22 38  1  0
 21 39  2  0
  3 40  1  0
  2 41  1  0
  2 42  1  0
  1 43  1  0
  1 44  1  0
  1 45  1  0
 39  8  1  0
 16 11  1  0
 30 24  1  0
M  END
>  <cnnaffinity>  (1) 
-5.9439

>  <filename>  (1) 
CCC(C)c1nc(CCc2cccc(=O)[nH]2)n(-c2cccnc2)n1

$$$$
