
     RDKit          3D

 44 46  0  0  0  0  0  0  0  0999 V2000
    5.5915   -5.4576   23.4863 C   0  0  0  0  0  0  0  0  0  0  0  0
    6.5957   -4.7658   22.5695 C   0  0  0  0  0  0  0  0  0  0  0  0
    7.9332   -4.3914   23.2382 C   0  0  0  0  0  0  0  0  0  0  0  0
    8.7159   -5.6269   23.6989 C   0  0  0  0  0  0  0  0  0  0  0  0
    8.1583   -6.2046   24.4432 H   0  0  0  0  0  0  0  0  0  0  0  0
    8.9316   -6.3028   22.8587 H   0  0  0  0  0  0  0  0  0  0  0  0
    9.6668   -5.3430   24.1679 H   0  0  0  0  0  0  0  0  0  0  0  0
    8.7535   -3.5660   22.2267 C   0  0  0  0  0  0  0  0  0  0  0  0
    8.1991   -2.2100   21.9546 C   0  0  0  0  0  0  0  0  0  0  0  0
    7.7370   -1.8671   20.7739 N   0  0  0  0  0  0  0  0  0  0  0  0
    7.2998   -0.5984   20.9678 N   0  0  0  0  0  0  0  0  0  0  0  0
    6.6212    0.0640   19.9125 C   0  0  0  0  0  0  0  0  0  0  0  0
    5.4032    0.7167   20.1276 C   0  0  0  0  0  0  0  0  0  0  0  0
    4.7987    1.3401   19.0303 C   0  0  0  0  0  0  0  0  0  0  0  0
    5.4285    1.2962   17.7811 C   0  0  0  0  0  0  0  0  0  0  0  0
    6.5746    0.6271   17.5618 N   0  0  0  0  0  0  0  0  0  0  0  0
    7.1411    0.0127   18.6044 C   0  0  0  0  0  0  0  0  0  0  0  0
    8.0444   -0.5604   18.4114 H   0  0  0  0  0  0  0  0  0  0  0  0
    5.0066    1.8219   16.9252 H   0  0  0  0  0  0  0  0  0  0  0  0
    3.8545    1.8615   19.1339 H   0  0  0  0  0  0  0  0  0  0  0  0
    4.9191    0.6861   21.1058 H   0  0  0  0  0  0  0  0  0  0  0  0
    7.5821   -0.2179   22.2544 C   0  0  0  0  0  0  0  0  0  0  0  0
    7.3725    1.1348   22.8940 C   0  0  0  0  0  0  0  0  0  0  0  0
    8.6388    1.6934   23.5413 C   0  0  0  0  0  0  0  0  0  0  0  0
    8.9013    1.6612   24.9214 C   0  0  0  0  0  0  0  0  0  0  0  0
   10.0697    1.9987   25.4783 N   0  0  0  0  0  0  0  0  0  0  0  0
   11.0471    2.4212   24.6691 C   0  0  0  0  0  0  0  0  0  0  0  0
   10.8950    2.5747   23.2990 C   0  0  0  0  0  0  0  0  0  0  0  0
    9.6847    2.1770   22.7433 C   0  0  0  0  0  0  0  0  0  0  0  0
    9.5239    2.2092   21.0264 Cl  0  0  0  0  0  0  0  0  0  0  0  0
   11.6895    2.9716   22.6813 H   0  0  0  0  0  0  0  0  0  0  0  0
   12.0003    2.6573   25.1384 H   0  0  0  0  0  0  0  0  0  0  0  0
    8.1294    1.3196   25.6156 H   0  0  0  0  0  0  0  0  0  0  0  0
    7.0307    1.8448   22.1373 H   0  0  0  0  0  0  0  0  0  0  0  0
    6.5634    1.0450   23.6279 H   0  0  0  0  0  0  0  0  0  0  0  0
    8.1269   -1.2369   22.8989 N   0  0  0  0  0  0  0  0  0  0  0  0
    9.7886   -3.4368   22.5650 H   0  0  0  0  0  0  0  0  0  0  0  0
    8.7369   -4.0922   21.2683 H   0  0  0  0  0  0  0  0  0  0  0  0
    7.7346   -3.7615   24.1248 H   0  0  0  0  0  0  0  0  0  0  0  0
    6.8060   -5.4262   21.7117 H   0  0  0  0  0  0  0  0  0  0  0  0
    6.1434   -3.8591   22.1406 H   0  0  0  0  0  0  0  0  0  0  0  0
    5.9498   -6.4424   23.8064 H   0  0  0  0  0  0  0  0  0  0  0  0
    4.6351   -5.6028   22.9736 H   0  0  0  0  0  0  0  0  0  0  0  0
    5.4033   -4.8553   24.3819 H   0  0  0  0  0  0  0  0  0  0  0  0
  1  2  1  0
  2  3  1  0
  3  4  1  0
  4  5  1  0
  4  6  1  0
  4  7  1  0
  3  8  1  0
  8  9  1  0
  9 10  2  0
 10 11  1  0
 11 12  1  0
 12 13  2  0
 13 14  1  0
 14 15  2  0
 15 16  1  0
 16 17  2  0
 17 18  1  0
 15 19  1  0
 14 20  1  0
 13 21  1  0
 11 22  1  0
 22 23  1  0
 23 24  1  0
 24 25  2  0
 25 26  1  0
 26 27  2  0
 27 28  1  0
 28 29  2  0
 29 30  1  0
 28 31  1  0
 27 32  1  0
 25 33  1  0
 23 34  1  0
 23 35  1  0
 22 36  2  0
  8 37  1  0
  8 38  1  0
  3 39  1  0
  2 40  1  0
  2 41  1  0
  1 42  1  0
  1 43  1  0
  1 44  1  0
 36  9  1  0
 17 12  1  0
 29 24  1  0
M  END
>  <cnnaffinity>  (1) 
-6.0792

>  <filename>  (1) 
CCC(C)Cc1nc(Cc2cnccc2Cl)n(-c2cccnc2)n1

$$$$
