
     RDKit          3D

 48 50  0  0  0  0  0  0  0  0999 V2000
    7.8693   -5.0634   22.0840 C   0  0  0  0  0  0  0  0  0  0  0  0
    6.8478   -4.4506   23.0443 C   0  0  0  0  0  0  0  0  0  0  0  0
    7.3210   -3.0929   23.6072 C   0  0  0  0  0  0  0  0  0  0  0  0
    6.4051   -2.5543   24.7254 C   0  0  0  0  0  0  0  0  0  0  0  0
    6.8182   -1.6296   25.1473 H   0  0  0  0  0  0  0  0  0  0  0  0
    6.3454   -3.2905   25.5357 H   0  0  0  0  0  0  0  0  0  0  0  0
    5.3886   -2.3500   24.3688 H   0  0  0  0  0  0  0  0  0  0  0  0
    7.5420   -2.0954   22.4973 C   0  0  0  0  0  0  0  0  0  0  0  0
    6.6084   -1.7087   21.6431 N   0  0  0  0  0  0  0  0  0  0  0  0
    7.2707   -0.8244   20.8448 N   0  0  0  0  0  0  0  0  0  0  0  0
    6.5862   -0.1173   19.8174 C   0  0  0  0  0  0  0  0  0  0  0  0
    5.3968    0.5610   20.0977 C   0  0  0  0  0  0  0  0  0  0  0  0
    4.8069    1.3047   19.0711 C   0  0  0  0  0  0  0  0  0  0  0  0
    5.4069    1.3272   17.8071 C   0  0  0  0  0  0  0  0  0  0  0  0
    6.5291    0.6490   17.5226 N   0  0  0  0  0  0  0  0  0  0  0  0
    7.0958   -0.0548   18.5104 C   0  0  0  0  0  0  0  0  0  0  0  0
    8.0036   -0.6021   18.2607 H   0  0  0  0  0  0  0  0  0  0  0  0
    4.9596    1.8905   16.9888 H   0  0  0  0  0  0  0  0  0  0  0  0
    3.8940    1.8625   19.2380 H   0  0  0  0  0  0  0  0  0  0  0  0
    4.9604    0.5039   21.0966 H   0  0  0  0  0  0  0  0  0  0  0  0
    8.5489   -0.6968   21.2954 C   0  0  0  0  0  0  0  0  0  0  0  0
    9.5885    0.2584   20.8148 C   0  0  0  0  0  0  0  0  0  0  0  0
    9.8468    1.2972   21.8076 N   0  0  0  0  0  0  0  0  0  0  0  0
   11.0325    1.2488   22.4406 N   0  0  0  0  0  0  0  0  0  0  0  0
   10.9800    2.1691   23.3833 C   0  0  0  0  0  0  0  0  0  0  0  0
   12.1630    2.3871   24.2646 C   0  0  0  0  0  0  0  0  0  0  0  0
   12.4986    3.4258   24.1713 H   0  0  0  0  0  0  0  0  0  0  0  0
   11.9147    2.1980   25.3150 H   0  0  0  0  0  0  0  0  0  0  0  0
   12.9697    1.7135   23.9568 H   0  0  0  0  0  0  0  0  0  0  0  0
    9.7318    2.8310   23.3909 C   0  0  0  0  0  0  0  0  0  0  0  0
    9.3113    3.9869   24.2547 C   0  0  0  0  0  0  0  0  0  0  0  0
    8.3098    3.8440   24.6770 H   0  0  0  0  0  0  0  0  0  0  0  0
    9.9958    4.1298   25.0945 H   0  0  0  0  0  0  0  0  0  0  0  0
    9.2970    4.9339   23.6985 H   0  0  0  0  0  0  0  0  0  0  0  0
    9.0227    2.2477   22.3545 C   0  0  0  0  0  0  0  0  0  0  0  0
    7.6421    2.6104   21.8791 C   0  0  0  0  0  0  0  0  0  0  0  0
    7.4159    3.6490   22.1567 H   0  0  0  0  0  0  0  0  0  0  0  0
    6.8666    1.9914   22.3506 H   0  0  0  0  0  0  0  0  0  0  0  0
    7.5510    2.5074   20.7952 H   0  0  0  0  0  0  0  0  0  0  0  0
    9.3533    0.7152   19.8517 H   0  0  0  0  0  0  0  0  0  0  0  0
   10.5168   -0.3136   20.7351 H   0  0  0  0  0  0  0  0  0  0  0  0
    8.7527   -1.5098   22.3110 N   0  0  0  0  0  0  0  0  0  0  0  0
    8.3176   -3.2229   24.0481 H   0  0  0  0  0  0  0  0  0  0  0  0
    5.8868   -4.3064   22.5278 H   0  0  0  0  0  0  0  0  0  0  0  0
    6.6696   -5.1349   23.8851 H   0  0  0  0  0  0  0  0  0  0  0  0
    8.0792   -4.3828   21.2480 H   0  0  0  0  0  0  0  0  0  0  0  0
    7.4949   -6.0065   21.6743 H   0  0  0  0  0  0  0  0  0  0  0  0
    8.8199   -5.2690   22.5943 H   0  0  0  0  0  0  0  0  0  0  0  0
  1  2  1  0
  2  3  1  0
  3  4  1  0
  4  5  1  0
  4  6  1  0
  4  7  1  0
  3  8  1  0
  8  9  2  0
  9 10  1  0
 10 11  1  0
 11 12  2  0
 12 13  1  0
 13 14  2  0
 14 15  1  0
 15 16  2  0
 16 17  1  0
 14 18  1  0
 13 19  1  0
 12 20  1  0
 10 21  1  0
 21 22  1  0
 22 23  1  0
 23 24  1  0
 24 25  2  0
 25 26  1  0
 26 27  1  0
 26 28  1  0
 26 29  1  0
 25 30  1  0
 30 31  1  0
 31 32  1  0
 31 33  1  0
 31 34  1  0
 30 35  2  0
 35 36  1  0
 36 37  1  0
 36 38  1  0
 36 39  1  0
 22 40  1  0
 22 41  1  0
 21 42  2  0
  3 43  1  0
  2 44  1  0
  2 45  1  0
  1 46  1  0
  1 47  1  0
  1 48  1  0
 42  8  1  0
 16 11  1  0
 35 23  1  0
M  END
>  <cnnaffinity>  (1) 
-6.11683

>  <filename>  (1) 
CCC(C)c1nc(Cn2nc(C)c(C)c2C)n(-c2cccnc2)n1

$$$$
