
     RDKit          3D

 41 43  0  0  0  0  0  0  0  0999 V2000
    6.6206   -2.9532   26.2556 C   0  0  0  0  0  0  0  0  0  0  0  0
    6.7721   -2.1313   24.9766 C   0  0  0  0  0  0  0  0  0  0  0  0
    7.2151   -2.9566   23.7437 C   0  0  0  0  0  0  0  0  0  0  0  0
    6.3320   -4.0443   23.4865 O   0  0  0  0  0  0  0  0  0  0  0  0
    5.5288   -3.7024   23.0621 H   0  0  0  0  0  0  0  0  0  0  0  0
    7.4892   -2.0385   22.5622 C   0  0  0  0  0  0  0  0  0  0  0  0
    6.5651   -1.6495   21.6989 N   0  0  0  0  0  0  0  0  0  0  0  0
    7.2379   -0.8006   20.8846 N   0  0  0  0  0  0  0  0  0  0  0  0
    6.5638   -0.0988   19.8452 C   0  0  0  0  0  0  0  0  0  0  0  0
    5.3777    0.5954   20.1125 C   0  0  0  0  0  0  0  0  0  0  0  0
    4.7926    1.3188   19.0687 C   0  0  0  0  0  0  0  0  0  0  0  0
    5.3976    1.3127   17.8073 C   0  0  0  0  0  0  0  0  0  0  0  0
    6.5194    0.6301   17.5385 N   0  0  0  0  0  0  0  0  0  0  0  0
    7.0797   -0.0617   18.5364 C   0  0  0  0  0  0  0  0  0  0  0  0
    7.9929   -0.6016   18.2926 H   0  0  0  0  0  0  0  0  0  0  0  0
    4.9606    1.8620   16.9764 H   0  0  0  0  0  0  0  0  0  0  0  0
    3.8800    1.8827   19.2228 H   0  0  0  0  0  0  0  0  0  0  0  0
    4.9490    0.5724   21.1150 H   0  0  0  0  0  0  0  0  0  0  0  0
    8.5178   -0.6774   21.3465 C   0  0  0  0  0  0  0  0  0  0  0  0
    9.5648    0.1174   20.6325 C   0  0  0  0  0  0  0  0  0  0  0  0
   10.5652    0.7072   21.4477 O   0  0  0  0  0  0  0  0  0  0  0  0
   10.2664    1.6370   22.3985 C   0  0  0  0  0  0  0  0  0  0  0  0
    8.9942    2.1961   22.6125 C   0  0  0  0  0  0  0  0  0  0  0  0
    8.7650    3.1140   23.6433 C   0  0  0  0  0  0  0  0  0  0  0  0
    9.8328    3.5293   24.4291 C   0  0  0  0  0  0  0  0  0  0  0  0
    9.6111    4.4092   25.4170 F   0  0  0  0  0  0  0  0  0  0  0  0
   11.1187    3.0375   24.2231 C   0  0  0  0  0  0  0  0  0  0  0  0
   11.3232    2.0589   23.2439 C   0  0  0  0  0  0  0  0  0  0  0  0
   12.8883    1.3191   23.1372 Cl  0  0  0  0  0  0  0  0  0  0  0  0
   11.9343    3.4000   24.8335 H   0  0  0  0  0  0  0  0  0  0  0  0
    7.7717    3.4915   23.8673 H   0  0  0  0  0  0  0  0  0  0  0  0
    8.1612    1.9161   21.9721 H   0  0  0  0  0  0  0  0  0  0  0  0
   10.1238   -0.5894   20.0196 H   0  0  0  0  0  0  0  0  0  0  0  0
    9.1217    0.8690   19.9725 H   0  0  0  0  0  0  0  0  0  0  0  0
    8.7082   -1.4622   22.3870 N   0  0  0  0  0  0  0  0  0  0  0  0
    8.1845   -3.4103   23.9815 H   0  0  0  0  0  0  0  0  0  0  0  0
    7.5224   -1.3422   25.1291 H   0  0  0  0  0  0  0  0  0  0  0  0
    5.8259   -1.6203   24.7507 H   0  0  0  0  0  0  0  0  0  0  0  0
    6.2408   -2.3225   27.0659 H   0  0  0  0  0  0  0  0  0  0  0  0
    7.5793   -3.3729   26.5838 H   0  0  0  0  0  0  0  0  0  0  0  0
    5.9242   -3.7864   26.1122 H   0  0  0  0  0  0  0  0  0  0  0  0
  1  2  1  0
  2  3  1  0
  3  4  1  0
  4  5  1  0
  3  6  1  0
  6  7  2  0
  7  8  1  0
  8  9  1  0
  9 10  2  0
 10 11  1  0
 11 12  2  0
 12 13  1  0
 13 14  2  0
 14 15  1  0
 12 16  1  0
 11 17  1  0
 10 18  1  0
  8 19  1  0
 19 20  1  0
 20 21  1  0
 21 22  1  0
 22 23  2  0
 23 24  1  0
 24 25  2  0
 25 26  1  0
 25 27  1  0
 27 28  2  0
 28 29  1  0
 27 30  1  0
 24 31  1  0
 23 32  1  0
 20 33  1  0
 20 34  1  0
 19 35  2  0
  3 36  1  0
  2 37  1  0
  2 38  1  0
  1 39  1  0
  1 40  1  0
  1 41  1  0
 35  6  1  0
 14  9  1  0
 28 22  1  0
M  END
>  <cnnaffinity>  (1) 
-6.08717

>  <filename>  (1) 
CCC(O)c1nc(COc2ccc(F)cc2Cl)n(-c2cccnc2)n1

$$$$
