
     RDKit          3D

 48 50  0  0  0  0  0  0  0  0999 V2000
   11.1202   -2.1962   22.4500 C   0  0  0  0  0  0  0  0  0  0  0  0
   10.0798   -3.1066   23.1448 C   0  0  0  0  0  0  0  0  0  0  0  0
    8.8475   -3.3655   22.2505 C   0  0  0  0  0  0  0  0  0  0  0  0
    7.9483   -4.5132   22.7579 C   0  0  0  0  0  0  0  0  0  0  0  0
    7.3265   -4.2611   24.1320 C   0  0  0  0  0  0  0  0  0  0  0  0
    6.6251   -5.0631   24.3880 H   0  0  0  0  0  0  0  0  0  0  0  0
    6.7925   -3.3010   24.1516 H   0  0  0  0  0  0  0  0  0  0  0  0
    8.1006   -4.2288   24.9101 H   0  0  0  0  0  0  0  0  0  0  0  0
    7.1640   -4.7005   22.0110 H   0  0  0  0  0  0  0  0  0  0  0  0
    8.5606   -5.4266   22.7854 H   0  0  0  0  0  0  0  0  0  0  0  0
    8.1037   -2.0907   21.9807 C   0  0  0  0  0  0  0  0  0  0  0  0
    7.7210   -1.7678   20.7615 N   0  0  0  0  0  0  0  0  0  0  0  0
    7.1371   -0.5537   20.9264 N   0  0  0  0  0  0  0  0  0  0  0  0
    6.4985    0.0882   19.8425 C   0  0  0  0  0  0  0  0  0  0  0  0
    5.2848    0.7588   20.0162 C   0  0  0  0  0  0  0  0  0  0  0  0
    4.7297    1.4059   18.9116 C   0  0  0  0  0  0  0  0  0  0  0  0
    5.4013    1.3514   17.6856 C   0  0  0  0  0  0  0  0  0  0  0  0
    6.5489    0.6724   17.5070 N   0  0  0  0  0  0  0  0  0  0  0  0
    7.0748    0.0408   18.5592 C   0  0  0  0  0  0  0  0  0  0  0  0
    7.9905   -0.5222   18.3921 H   0  0  0  0  0  0  0  0  0  0  0  0
    5.0028    1.8608   16.8117 H   0  0  0  0  0  0  0  0  0  0  0  0
    3.8007    1.9566   18.9996 H   0  0  0  0  0  0  0  0  0  0  0  0
    4.7863    0.7570   20.9867 H   0  0  0  0  0  0  0  0  0  0  0  0
    7.2700   -0.1773   22.2290 C   0  0  0  0  0  0  0  0  0  0  0  0
    6.9611    1.1873   22.7908 C   0  0  0  0  0  0  0  0  0  0  0  0
    7.9845    1.6555   23.7387 N   0  0  0  0  0  0  0  0  0  0  0  0
    9.1667    2.1492   23.2506 C   0  0  0  0  0  0  0  0  0  0  0  0
   10.2911    2.1805   24.0260 C   0  0  0  0  0  0  0  0  0  0  0  0
   11.5773    2.7693   23.5181 C   0  0  0  0  0  0  0  0  0  0  0  0
   11.5591    2.9866   22.1901 F   0  0  0  0  0  0  0  0  0  0  0  0
   12.6288    1.9638   23.7743 F   0  0  0  0  0  0  0  0  0  0  0  0
   11.8394    3.9514   24.1151 F   0  0  0  0  0  0  0  0  0  0  0  0
   10.2295    1.7055   25.3714 C   0  0  0  0  0  0  0  0  0  0  0  0
    9.0512    1.2726   25.8859 C   0  0  0  0  0  0  0  0  0  0  0  0
    7.8196    1.3122   25.1233 C   0  0  0  0  0  0  0  0  0  0  0  0
    6.7153    1.0544   25.5765 O   0  0  0  0  0  0  0  0  0  0  0  0
    8.9413    0.9012   26.8940 H   0  0  0  0  0  0  0  0  0  0  0  0
   11.1242    1.6999   25.9882 H   0  0  0  0  0  0  0  0  0  0  0  0
    9.1486    2.4862   22.2099 H   0  0  0  0  0  0  0  0  0  0  0  0
    6.0283    1.1403   23.3556 H   0  0  0  0  0  0  0  0  0  0  0  0
    6.8530    1.9259   21.9898 H   0  0  0  0  0  0  0  0  0  0  0  0
    7.8301   -1.1547   22.9196 N   0  0  0  0  0  0  0  0  0  0  0  0
    9.1642   -3.6319   21.2408 H   0  0  0  0  0  0  0  0  0  0  0  0
    9.7351   -2.6540   24.0853 H   0  0  0  0  0  0  0  0  0  0  0  0
   10.5221   -4.0670   23.4373 H   0  0  0  0  0  0  0  0  0  0  0  0
   12.1280   -2.6211   22.4883 H   0  0  0  0  0  0  0  0  0  0  0  0
   10.8870   -2.0444   21.3863 H   0  0  0  0  0  0  0  0  0  0  0  0
   11.1608   -1.2012   22.9043 H   0  0  0  0  0  0  0  0  0  0  0  0
  1  2  1  0
  2  3  1  0
  3  4  1  0
  4  5  1  0
  5  6  1  0
  5  7  1  0
  5  8  1  0
  4  9  1  0
  4 10  1  0
  3 11  1  0
 11 12  2  0
 12 13  1  0
 13 14  1  0
 14 15  2  0
 15 16  1  0
 16 17  2  0
 17 18  1  0
 18 19  2  0
 19 20  1  0
 17 21  1  0
 16 22  1  0
 15 23  1  0
 13 24  1  0
 24 25  1  0
 25 26  1  0
 26 27  1  0
 27 28  2  0
 28 29  1  0
 29 30  1  0
 29 31  1  0
 29 32  1  0
 28 33  1  0
 33 34  2  0
 34 35  1  0
 35 36  2  0
 34 37  1  0
 33 38  1  0
 27 39  1  0
 25 40  1  0
 25 41  1  0
 24 42  2  0
  3 43  1  0
  2 44  1  0
  2 45  1  0
  1 46  1  0
  1 47  1  0
  1 48  1  0
 42 11  1  0
 19 14  1  0
 35 26  1  0
M  END
>  <cnnaffinity>  (1) 
-6.74244

>  <filename>  (1) 
CCC(CC)c1nc(Cn2cc(C(F)(F)F)ccc2=O)n(-c2cccnc2)n1

$$$$
