
     RDKit          3D

 42 44  0  0  0  0  0  0  0  0999 V2000
    8.4017   -5.6109   23.6504 C   0  0  0  0  0  0  0  0  0  0  0  0
    7.8210   -4.2209   23.4116 C   0  0  0  0  0  0  0  0  0  0  0  0
    8.7330   -3.4437   22.4507 C   0  0  0  0  0  0  0  0  0  0  0  0
   10.0442   -3.3334   23.0655 O   0  0  0  0  0  0  0  0  0  0  0  0
    9.9725   -3.1099   24.0123 H   0  0  0  0  0  0  0  0  0  0  0  0
    8.0927   -2.1152   22.0814 C   0  0  0  0  0  0  0  0  0  0  0  0
    7.8662   -1.7221   20.8463 N   0  0  0  0  0  0  0  0  0  0  0  0
    7.2780   -0.5089   21.0041 N   0  0  0  0  0  0  0  0  0  0  0  0
    6.6592    0.1645   19.9394 C   0  0  0  0  0  0  0  0  0  0  0  0
    5.5332    0.9751   20.1319 C   0  0  0  0  0  0  0  0  0  0  0  0
    4.9186    1.5353   19.0083 C   0  0  0  0  0  0  0  0  0  0  0  0
    5.4412    1.2974   17.7332 C   0  0  0  0  0  0  0  0  0  0  0  0
    6.5245    0.5223   17.5382 N   0  0  0  0  0  0  0  0  0  0  0  0
    7.1106   -0.0323   18.6201 C   0  0  0  0  0  0  0  0  0  0  0  0
    7.9833   -0.6613   18.4731 H   0  0  0  0  0  0  0  0  0  0  0  0
    4.9570    1.7522   16.8738 H   0  0  0  0  0  0  0  0  0  0  0  0
    4.0405    2.1658   19.1036 H   0  0  0  0  0  0  0  0  0  0  0  0
    5.1270    1.1432   21.1270 H   0  0  0  0  0  0  0  0  0  0  0  0
    7.2417   -0.2032   22.3649 C   0  0  0  0  0  0  0  0  0  0  0  0
    6.8863    1.0924   23.0354 C   0  0  0  0  0  0  0  0  0  0  0  0
    7.8564    1.3716   24.2085 C   0  0  0  0  0  0  0  0  0  0  0  0
    7.6826    2.7868   24.6626 C   0  0  0  0  0  0  0  0  0  0  0  0
    7.1972    3.0185   25.9442 C   0  0  0  0  0  0  0  0  0  0  0  0
    6.9701    4.3359   26.3099 C   0  0  0  0  0  0  0  0  0  0  0  0
    7.2573    5.3696   25.4187 C   0  0  0  0  0  0  0  0  0  0  0  0
    7.7659    5.1499   24.1972 N   0  0  0  0  0  0  0  0  0  0  0  0
    7.9657    3.8761   23.8181 C   0  0  0  0  0  0  0  0  0  0  0  0
    8.5943    3.5302   22.0553 Br  0  0  0  0  0  0  0  0  0  0  0  0
    7.0432    6.3840   25.7332 H   0  0  0  0  0  0  0  0  0  0  0  0
    6.5430    4.5716   27.2744 H   0  0  0  0  0  0  0  0  0  0  0  0
    6.9826    2.1902   26.6193 H   0  0  0  0  0  0  0  0  0  0  0  0
    8.9030    1.2037   23.9206 H   0  0  0  0  0  0  0  0  0  0  0  0
    7.6390    0.6928   25.0411 H   0  0  0  0  0  0  0  0  0  0  0  0
    5.8565    1.0358   23.3982 H   0  0  0  0  0  0  0  0  0  0  0  0
    6.9401    1.9008   22.3016 H   0  0  0  0  0  0  0  0  0  0  0  0
    7.6890   -1.2105   23.0497 N   0  0  0  0  0  0  0  0  0  0  0  0
    8.8180   -3.9978   21.5129 H   0  0  0  0  0  0  0  0  0  0  0  0
    7.7359   -3.6884   24.3695 H   0  0  0  0  0  0  0  0  0  0  0  0
    6.8136   -4.3019   22.9834 H   0  0  0  0  0  0  0  0  0  0  0  0
    7.6576   -6.2467   24.1341 H   0  0  0  0  0  0  0  0  0  0  0  0
    9.2837   -5.5393   24.2965 H   0  0  0  0  0  0  0  0  0  0  0  0
    8.6940   -6.0745   22.7007 H   0  0  0  0  0  0  0  0  0  0  0  0
  1  2  1  0
  2  3  1  0
  3  4  1  0
  4  5  1  0
  3  6  1  0
  6  7  2  0
  7  8  1  0
  8  9  1  0
  9 10  2  0
 10 11  1  0
 11 12  2  0
 12 13  1  0
 13 14  2  0
 14 15  1  0
 12 16  1  0
 11 17  1  0
 10 18  1  0
  8 19  1  0
 19 20  1  0
 20 21  1  0
 21 22  1  0
 22 23  2  0
 23 24  1  0
 24 25  2  0
 25 26  1  0
 26 27  2  0
 27 28  1  0
 25 29  1  0
 24 30  1  0
 23 31  1  0
 21 32  1  0
 21 33  1  0
 20 34  1  0
 20 35  1  0
 19 36  2  0
  3 37  1  0
  2 38  1  0
  2 39  1  0
  1 40  1  0
  1 41  1  0
  1 42  1  0
 36  6  1  0
 14  9  1  0
 27 22  1  0
M  END
>  <cnnaffinity>  (1) 
-5.99543

>  <filename>  (1) 
CCC(O)c1nc(CCc2cccnc2Br)n(-c2cccnc2)n1

$$$$
