
     RDKit          3D

 47 49  0  0  0  0  0  0  0  0999 V2000
    6.5904   -5.3500   24.2136 C   0  0  0  0  0  0  0  0  0  0  0  0
    6.6646   -4.2328   23.1759 C   0  0  0  0  0  0  0  0  0  0  0  0
    7.3578   -2.9499   23.6801 C   0  0  0  0  0  0  0  0  0  0  0  0
    6.5987   -2.2409   24.8248 C   0  0  0  0  0  0  0  0  0  0  0  0
    7.1109   -1.3188   25.1329 H   0  0  0  0  0  0  0  0  0  0  0  0
    5.5843   -1.9634   24.5111 H   0  0  0  0  0  0  0  0  0  0  0  0
    6.5185   -2.8822   25.7076 H   0  0  0  0  0  0  0  0  0  0  0  0
    7.5789   -1.9932   22.5479 C   0  0  0  0  0  0  0  0  0  0  0  0
    6.6393   -1.5897   21.7102 N   0  0  0  0  0  0  0  0  0  0  0  0
    7.2978   -0.6947   20.9313 N   0  0  0  0  0  0  0  0  0  0  0  0
    6.6312   -0.0164   19.8798 C   0  0  0  0  0  0  0  0  0  0  0  0
    5.4241    0.6353   20.1397 C   0  0  0  0  0  0  0  0  0  0  0  0
    4.7955    1.3167   19.0963 C   0  0  0  0  0  0  0  0  0  0  0  0
    5.3897    1.2985   17.8271 C   0  0  0  0  0  0  0  0  0  0  0  0
    6.5322    0.6497   17.5616 N   0  0  0  0  0  0  0  0  0  0  0  0
    7.1439    0.0182   18.5679 C   0  0  0  0  0  0  0  0  0  0  0  0
    8.0891   -0.4661   18.3303 H   0  0  0  0  0  0  0  0  0  0  0  0
    4.9343    1.8272   16.9933 H   0  0  0  0  0  0  0  0  0  0  0  0
    3.8676    1.8622   19.2527 H   0  0  0  0  0  0  0  0  0  0  0  0
    5.0102    0.5925   21.1481 H   0  0  0  0  0  0  0  0  0  0  0  0
    8.5837   -0.5863   21.3718 C   0  0  0  0  0  0  0  0  0  0  0  0
    9.6319    0.3157   20.8345 C   0  0  0  0  0  0  0  0  0  0  0  0
   10.2659    1.1497   21.9229 C   0  0  0  0  0  0  0  0  0  0  0  0
   11.5549    0.8233   22.3622 C   0  0  0  0  0  0  0  0  0  0  0  0
   12.1509    1.4985   23.4306 C   0  0  0  0  0  0  0  0  0  0  0  0
   11.4462    2.5188   24.0708 C   0  0  0  0  0  0  0  0  0  0  0  0
   10.1668    2.8737   23.6419 C   0  0  0  0  0  0  0  0  0  0  0  0
    9.5732    2.1832   22.5741 C   0  0  0  0  0  0  0  0  0  0  0  0
    7.9319    2.7352   22.0046 S   0  0  0  0  0  0  0  0  0  0  0  0
    7.8567    4.2226   22.1949 O   0  0  0  0  0  0  0  0  0  0  0  0
    6.9447    2.1015   23.3767 C   0  0  0  0  0  0  0  0  0  0  0  0
    7.0144    1.0146   23.4600 H   0  0  0  0  0  0  0  0  0  0  0  0
    5.9221    2.4226   23.1605 H   0  0  0  0  0  0  0  0  0  0  0  0
    7.2802    2.5926   24.2959 H   0  0  0  0  0  0  0  0  0  0  0  0
    9.6297    3.6963   24.1085 H   0  0  0  0  0  0  0  0  0  0  0  0
   11.9077    3.0648   24.8850 H   0  0  0  0  0  0  0  0  0  0  0  0
   13.1524    1.2286   23.7541 H   0  0  0  0  0  0  0  0  0  0  0  0
   12.0860    0.0338   21.8394 H   0  0  0  0  0  0  0  0  0  0  0  0
   10.3838   -0.3378   20.3829 H   0  0  0  0  0  0  0  0  0  0  0  0
    9.2026    0.9530   20.0635 H   0  0  0  0  0  0  0  0  0  0  0  0
    8.7881   -1.4120   22.3735 N   0  0  0  0  0  0  0  0  0  0  0  0
    8.3757   -3.1864   24.0198 H   0  0  0  0  0  0  0  0  0  0  0  0
    7.2049   -4.5915   22.2888 H   0  0  0  0  0  0  0  0  0  0  0  0
    5.6627   -3.9573   22.8176 H   0  0  0  0  0  0  0  0  0  0  0  0
    5.9650   -5.0728   25.0688 H   0  0  0  0  0  0  0  0  0  0  0  0
    6.1640   -6.2593   23.7788 H   0  0  0  0  0  0  0  0  0  0  0  0
    7.5863   -5.6015   24.5986 H   0  0  0  0  0  0  0  0  0  0  0  0
  1  2  1  0
  2  3  1  0
  3  4  1  0
  4  5  1  0
  4  6  1  0
  4  7  1  0
  3  8  1  0
  8  9  2  0
  9 10  1  0
 10 11  1  0
 11 12  2  0
 12 13  1  0
 13 14  2  0
 14 15  1  0
 15 16  2  0
 16 17  1  0
 14 18  1  0
 13 19  1  0
 12 20  1  0
 10 21  1  0
 21 22  1  0
 22 23  1  0
 23 24  2  0
 24 25  1  0
 25 26  2  0
 26 27  1  0
 27 28  2  0
 28 29  1  0
 29 30  2  0
 29 31  1  0
 31 32  1  0
 31 33  1  0
 31 34  1  0
 27 35  1  0
 26 36  1  0
 25 37  1  0
 24 38  1  0
 22 39  1  0
 22 40  1  0
 21 41  2  0
  3 42  1  0
  2 43  1  0
  2 44  1  0
  1 45  1  0
  1 46  1  0
  1 47  1  0
 41  8  1  0
 16 11  1  0
 28 23  1  0
M  END
>  <cnnaffinity>  (1) 
-6.29914

>  <filename>  (1) 
CCC(C)c1nc(Cc2ccccc2S(C)=O)n(-c2cccnc2)n1

$$$$
