
     RDKit          3D

 45 48  0  0  0  0  0  0  0  0999 V2000
    7.0860   -4.6559   23.0516 C   0  0  0  0  0  0  0  0  0  0  0  0
    8.4379   -4.0917   23.4713 C   0  0  0  0  0  0  0  0  0  0  0  0
    9.0584   -3.1389   22.4235 C   0  0  0  0  0  0  0  0  0  0  0  0
   10.4808   -2.7095   22.8445 C   0  0  0  0  0  0  0  0  0  0  0  0
   10.4460   -1.9501   23.6367 H   0  0  0  0  0  0  0  0  0  0  0  0
   11.0318   -2.2912   21.9943 H   0  0  0  0  0  0  0  0  0  0  0  0
   11.0399   -3.5710   23.2300 H   0  0  0  0  0  0  0  0  0  0  0  0
    8.1980   -1.9472   22.0785 C   0  0  0  0  0  0  0  0  0  0  0  0
    7.7366   -1.7289   20.8608 N   0  0  0  0  0  0  0  0  0  0  0  0
    7.0985   -0.5327   20.9810 N   0  0  0  0  0  0  0  0  0  0  0  0
    6.4685    0.0865   19.8706 C   0  0  0  0  0  0  0  0  0  0  0  0
    5.2918    0.8394   20.0119 C   0  0  0  0  0  0  0  0  0  0  0  0
    4.7845    1.4700   18.8712 C   0  0  0  0  0  0  0  0  0  0  0  0
    5.4522    1.3273   17.6521 C   0  0  0  0  0  0  0  0  0  0  0  0
    6.5632    0.5822   17.5063 N   0  0  0  0  0  0  0  0  0  0  0  0
    7.0480   -0.0292   18.5901 C   0  0  0  0  0  0  0  0  0  0  0  0
    7.9475   -0.6281   18.4598 H   0  0  0  0  0  0  0  0  0  0  0  0
    5.0749    1.8180   16.7571 H   0  0  0  0  0  0  0  0  0  0  0  0
    3.8891    2.0813   18.9215 H   0  0  0  0  0  0  0  0  0  0  0  0
    4.7696    0.9177   20.9658 H   0  0  0  0  0  0  0  0  0  0  0  0
    7.2775   -0.0729   22.2548 C   0  0  0  0  0  0  0  0  0  0  0  0
    6.9521    1.3181   22.6508 C   0  0  2  0  0  0  0  0  0  0  0  0
    7.5453    2.4700   21.8856 C   0  0  0  0  0  0  0  0  0  0  0  0
    8.0154    2.1838   23.2969 C   0  0  1  0  0  0  0  0  0  0  0  0
    7.7192    3.0372   24.4882 C   0  0  0  0  0  0  0  0  0  0  0  0
    6.4154    3.4082   24.8585 C   0  0  0  0  0  0  0  0  0  0  0  0
    6.2277    4.1772   26.0082 C   0  0  0  0  0  0  0  0  0  0  0  0
    7.3446    4.5769   26.7391 C   0  0  0  0  0  0  0  0  0  0  0  0
    8.6033    4.1726   26.2851 C   0  0  0  0  0  0  0  0  0  0  0  0
    8.7950    3.4167   25.2022 N   0  0  0  0  0  0  0  0  0  0  0  0
    9.5057    4.4838   26.8079 H   0  0  0  0  0  0  0  0  0  0  0  0
    7.2534    5.1939   27.6273 H   0  0  0  0  0  0  0  0  0  0  0  0
    5.2261    4.4639   26.3225 H   0  0  0  0  0  0  0  0  0  0  0  0
    5.5652    3.1087   24.2599 H   0  0  0  0  0  0  0  0  0  0  0  0
    9.0101    1.7457   23.3695 H   0  0  0  0  0  0  0  0  0  0  0  0
    8.2264    2.1783   21.0878 H   0  0  0  0  0  0  0  0  0  0  0  0
    6.9466    3.3529   21.6726 H   0  0  0  0  0  0  0  0  0  0  0  0
    5.9294    1.4167   23.0068 H   0  0  0  0  0  0  0  0  0  0  0  0
    7.9163   -0.9730   22.9784 N   0  0  0  0  0  0  0  0  0  0  0  0
    9.1000   -3.6691   21.4700 H   0  0  0  0  0  0  0  0  0  0  0  0
    8.3553   -3.5826   24.4393 H   0  0  0  0  0  0  0  0  0  0  0  0
    9.1412   -4.9210   23.6388 H   0  0  0  0  0  0  0  0  0  0  0  0
    6.7167   -5.3747   23.7936 H   0  0  0  0  0  0  0  0  0  0  0  0
    6.3436   -3.8560   22.9340 H   0  0  0  0  0  0  0  0  0  0  0  0
    7.1762   -5.1784   22.0915 H   0  0  0  0  0  0  0  0  0  0  0  0
  1  2  1  0
  2  3  1  0
  3  4  1  0
  4  5  1  0
  4  6  1  0
  4  7  1  0
  3  8  1  0
  8  9  2  0
  9 10  1  0
 10 11  1  0
 11 12  2  0
 12 13  1  0
 13 14  2  0
 14 15  1  0
 15 16  2  0
 16 17  1  0
 14 18  1  0
 13 19  1  0
 12 20  1  0
 10 21  1  0
 21 22  1  0
 22 23  1  0
 23 24  1  0
 24 25  1  0
 25 26  2  0
 26 27  1  0
 27 28  2  0
 28 29  1  0
 29 30  2  0
 29 31  1  0
 28 32  1  0
 27 33  1  0
 26 34  1  0
 24 35  1  6
 23 36  1  0
 23 37  1  0
 22 38  1  1
 21 39  2  0
  3 40  1  0
  2 41  1  0
  2 42  1  0
  1 43  1  0
  1 44  1  0
  1 45  1  0
 39  8  1  0
 16 11  1  0
 24 22  1  0
 30 25  1  0
M  END
>  <cnnaffinity>  (1) 
-6.10192

>  <filename>  (1) 
CCC(C)c1nc([C@@H]2C[C@H]2c2ccccn2)n(-c2cccnc2)n1

$$$$
