
     RDKit          3D

 42 44  0  0  0  0  0  0  0  0999 V2000
    7.2036   -4.1205   24.3045 C   0  0  0  0  0  0  0  0  0  0  0  0
    7.7621   -4.4550   22.9224 C   0  0  0  0  0  0  0  0  0  0  0  0
    8.7349   -3.4191   22.3257 C   0  0  0  0  0  0  0  0  0  0  0  0
    9.9684   -3.4045   23.0462 O   0  0  0  0  0  0  0  0  0  0  0  0
    9.8992   -2.7421   23.7520 H   0  0  0  0  0  0  0  0  0  0  0  0
    8.0940   -2.0576   22.0912 C   0  0  0  0  0  0  0  0  0  0  0  0
    7.6610   -1.7450   20.8873 N   0  0  0  0  0  0  0  0  0  0  0  0
    7.2274   -0.4695   21.0318 N   0  0  0  0  0  0  0  0  0  0  0  0
    6.5735    0.1632   19.9427 C   0  0  0  0  0  0  0  0  0  0  0  0
    5.3565    0.8358   20.1005 C   0  0  0  0  0  0  0  0  0  0  0  0
    4.7831    1.4160   18.9643 C   0  0  0  0  0  0  0  0  0  0  0  0
    5.4439    1.3133   17.7364 C   0  0  0  0  0  0  0  0  0  0  0  0
    6.5990    0.6403   17.5784 N   0  0  0  0  0  0  0  0  0  0  0  0
    7.1357    0.0638   18.6582 C   0  0  0  0  0  0  0  0  0  0  0  0
    8.0503   -0.5094   18.5125 H   0  0  0  0  0  0  0  0  0  0  0  0
    5.0301    1.7709   16.8409 H   0  0  0  0  0  0  0  0  0  0  0  0
    3.8414    1.9506   19.0271 H   0  0  0  0  0  0  0  0  0  0  0  0
    4.8656    0.8709   21.0739 H   0  0  0  0  0  0  0  0  0  0  0  0
    7.4661   -0.0572   22.3100 C   0  0  0  0  0  0  0  0  0  0  0  0
    7.5117    1.3974   22.6905 C   0  0  0  0  0  0  0  0  0  0  0  0
    8.6047    2.2124   21.9166 C   0  0  0  0  0  0  0  0  0  0  0  0
   10.0260    1.6886   22.0618 C   0  0  0  0  0  0  0  0  0  0  0  0
   10.8840    2.1642   23.0676 C   0  0  0  0  0  0  0  0  0  0  0  0
   12.1076    1.5212   23.2853 C   0  0  0  0  0  0  0  0  0  0  0  0
   12.4496    0.4532   22.4577 C   0  0  0  0  0  0  0  0  0  0  0  0
   11.5617    0.0968   21.4417 C   0  0  0  0  0  0  0  0  0  0  0  0
   10.3966    0.7174   21.2128 N   0  0  0  0  0  0  0  0  0  0  0  0
   11.7847   -0.7413   20.7880 H   0  0  0  0  0  0  0  0  0  0  0  0
   13.3669   -0.1140   22.5853 H   0  0  0  0  0  0  0  0  0  0  0  0
   12.7790    1.8207   24.0882 H   0  0  0  0  0  0  0  0  0  0  0  0
   10.5846    3.0188   23.6652 H   0  0  0  0  0  0  0  0  0  0  0  0
    8.5583    3.2607   22.2354 H   0  0  0  0  0  0  0  0  0  0  0  0
    8.3431    2.1932   20.8548 H   0  0  0  0  0  0  0  0  0  0  0  0
    7.6521    1.4425   23.7754 H   0  0  0  0  0  0  0  0  0  0  0  0
    6.5461    1.8628   22.4706 H   0  0  0  0  0  0  0  0  0  0  0  0
    7.9467   -1.0698   23.0207 N   0  0  0  0  0  0  0  0  0  0  0  0
    8.9709   -3.7578   21.3153 H   0  0  0  0  0  0  0  0  0  0  0  0
    6.9379   -4.5958   22.2093 H   0  0  0  0  0  0  0  0  0  0  0  0
    8.3161   -5.4022   22.9587 H   0  0  0  0  0  0  0  0  0  0  0  0
    6.6790   -3.1572   24.2992 H   0  0  0  0  0  0  0  0  0  0  0  0
    8.0002   -4.0646   25.0576 H   0  0  0  0  0  0  0  0  0  0  0  0
    6.5004   -4.8971   24.6224 H   0  0  0  0  0  0  0  0  0  0  0  0
  1  2  1  0
  2  3  1  0
  3  4  1  0
  4  5  1  0
  3  6  1  0
  6  7  2  0
  7  8  1  0
  8  9  1  0
  9 10  2  0
 10 11  1  0
 11 12  2  0
 12 13  1  0
 13 14  2  0
 14 15  1  0
 12 16  1  0
 11 17  1  0
 10 18  1  0
  8 19  1  0
 19 20  1  0
 20 21  1  0
 21 22  1  0
 22 23  2  0
 23 24  1  0
 24 25  2  0
 25 26  1  0
 26 27  2  0
 26 28  1  0
 25 29  1  0
 24 30  1  0
 23 31  1  0
 21 32  1  0
 21 33  1  0
 20 34  1  0
 20 35  1  0
 19 36  2  0
  3 37  1  0
  2 38  1  0
  2 39  1  0
  1 40  1  0
  1 41  1  0
  1 42  1  0
 36  6  1  0
 14  9  1  0
 27 22  1  0
M  END
>  <cnnaffinity>  (1) 
-5.98199

>  <filename>  (1) 
CCC(O)c1nc(CCc2ccccn2)n(-c2cccnc2)n1

$$$$
