
     RDKit          3D

 42 44  0  0  0  0  0  0  0  0999 V2000
    8.0541   -5.3773   24.3942 C   0  0  0  0  0  0  0  0  0  0  0  0
    8.4137   -4.1953   23.4931 C   0  0  0  0  0  0  0  0  0  0  0  0
    7.4138   -3.0264   23.6154 C   0  0  0  0  0  0  0  0  0  0  0  0
    7.4928   -2.3510   24.9951 C   0  0  0  0  0  0  0  0  0  0  0  0
    8.5129   -2.0196   25.2079 H   0  0  0  0  0  0  0  0  0  0  0  0
    6.8359   -1.4752   25.0285 H   0  0  0  0  0  0  0  0  0  0  0  0
    7.1821   -3.0409   25.7860 H   0  0  0  0  0  0  0  0  0  0  0  0
    7.6531   -2.0059   22.5261 C   0  0  0  0  0  0  0  0  0  0  0  0
    6.7027   -1.6294   21.7056 N   0  0  0  0  0  0  0  0  0  0  0  0
    7.3069   -0.6994   20.9338 N   0  0  0  0  0  0  0  0  0  0  0  0
    6.6635    0.0042   19.9114 C   0  0  0  0  0  0  0  0  0  0  0  0
    5.4460    0.6421   20.1632 C   0  0  0  0  0  0  0  0  0  0  0  0
    4.8242    1.3027   19.1022 C   0  0  0  0  0  0  0  0  0  0  0  0
    5.4050    1.2959   17.8267 C   0  0  0  0  0  0  0  0  0  0  0  0
    6.5767    0.6797   17.5800 N   0  0  0  0  0  0  0  0  0  0  0  0
    7.1899    0.0605   18.6070 C   0  0  0  0  0  0  0  0  0  0  0  0
    8.1306   -0.4414   18.4050 H   0  0  0  0  0  0  0  0  0  0  0  0
    4.8883    1.8005   17.0134 H   0  0  0  0  0  0  0  0  0  0  0  0
    3.8881    1.8274   19.2568 H   0  0  0  0  0  0  0  0  0  0  0  0
    5.0062    0.6256   21.1621 H   0  0  0  0  0  0  0  0  0  0  0  0
    8.6143   -0.5394   21.3720 C   0  0  0  0  0  0  0  0  0  0  0  0
    9.6101    0.4366   20.8615 C   0  0  0  0  0  0  0  0  0  0  0  0
   10.0353    1.3119   21.9552 N   0  0  0  0  0  0  0  0  0  0  0  0
   11.2209    1.1602   22.6109 N   0  0  0  0  0  0  0  0  0  0  0  0
   11.1916    2.0597   23.5664 C   0  0  0  0  0  0  0  0  0  0  0  0
    9.9616    2.8178   23.5530 C   0  0  0  0  0  0  0  0  0  0  0  0
    9.4459    4.1905   24.7882 Br  0  0  0  0  0  0  0  0  0  0  0  0
    9.2406    2.3012   22.5252 C   0  0  0  0  0  0  0  0  0  0  0  0
    7.8499    2.6887   22.1134 C   0  0  0  0  0  0  0  0  0  0  0  0
    7.1386    1.9515   22.4975 H   0  0  0  0  0  0  0  0  0  0  0  0
    7.7725    2.7059   21.0238 H   0  0  0  0  0  0  0  0  0  0  0  0
    7.5876    3.6776   22.5101 H   0  0  0  0  0  0  0  0  0  0  0  0
   11.9791    2.2045   24.2951 H   0  0  0  0  0  0  0  0  0  0  0  0
   10.4717   -0.1331   20.5158 H   0  0  0  0  0  0  0  0  0  0  0  0
    9.1812    1.0074   20.0370 H   0  0  0  0  0  0  0  0  0  0  0  0
    8.8719   -1.3721   22.3314 N   0  0  0  0  0  0  0  0  0  0  0  0
    6.4022   -3.4195   23.4867 H   0  0  0  0  0  0  0  0  0  0  0  0
    9.4237   -3.8527   23.7378 H   0  0  0  0  0  0  0  0  0  0  0  0
    8.4278   -4.5505   22.4585 H   0  0  0  0  0  0  0  0  0  0  0  0
    8.7183   -6.2235   24.1866 H   0  0  0  0  0  0  0  0  0  0  0  0
    8.1565   -5.1080   25.4492 H   0  0  0  0  0  0  0  0  0  0  0  0
    7.0247   -5.6980   24.2143 H   0  0  0  0  0  0  0  0  0  0  0  0
  1  2  1  0
  2  3  1  0
  3  4  1  0
  4  5  1  0
  4  6  1  0
  4  7  1  0
  3  8  1  0
  8  9  2  0
  9 10  1  0
 10 11  1  0
 11 12  2  0
 12 13  1  0
 13 14  2  0
 14 15  1  0
 15 16  2  0
 16 17  1  0
 14 18  1  0
 13 19  1  0
 12 20  1  0
 10 21  1  0
 21 22  1  0
 22 23  1  0
 23 24  1  0
 24 25  2  0
 25 26  1  0
 26 27  1  0
 26 28  2  0
 28 29  1  0
 29 30  1  0
 29 31  1  0
 29 32  1  0
 25 33  1  0
 22 34  1  0
 22 35  1  0
 21 36  2  0
  3 37  1  0
  2 38  1  0
  2 39  1  0
  1 40  1  0
  1 41  1  0
  1 42  1  0
 36  8  1  0
 16 11  1  0
 28 23  1  0
M  END
>  <cnnaffinity>  (1) 
-6.09723

>  <filename>  (1) 
CCC(C)c1nc(Cn2ncc(Br)c2C)n(-c2cccnc2)n1

$$$$
