
     RDKit          3D

 44 46  0  0  0  0  0  0  0  0999 V2000
    8.6312   -5.4943   23.9068 C   0  0  0  0  0  0  0  0  0  0  0  0
    8.0395   -4.1255   23.5535 C   0  0  0  0  0  0  0  0  0  0  0  0
    8.8610   -3.3449   22.5075 C   0  0  0  0  0  0  0  0  0  0  0  0
   10.2179   -3.1972   22.9379 O   0  0  0  0  0  0  0  0  0  0  0  0
   10.2634   -2.4541   23.5605 H   0  0  0  0  0  0  0  0  0  0  0  0
    8.1887   -2.0378   22.1035 C   0  0  0  0  0  0  0  0  0  0  0  0
    7.7997   -1.7683   20.8695 N   0  0  0  0  0  0  0  0  0  0  0  0
    7.2580   -0.5311   20.9786 N   0  0  0  0  0  0  0  0  0  0  0  0
    6.5722    0.0637   19.8872 C   0  0  0  0  0  0  0  0  0  0  0  0
    5.3477    0.7186   20.0744 C   0  0  0  0  0  0  0  0  0  0  0  0
    4.7703    1.3581   18.9749 C   0  0  0  0  0  0  0  0  0  0  0  0
    5.4263    1.3156   17.7433 C   0  0  0  0  0  0  0  0  0  0  0  0
    6.5677    0.6314   17.5448 N   0  0  0  0  0  0  0  0  0  0  0  0
    7.1133    0.0020   18.5911 C   0  0  0  0  0  0  0  0  0  0  0  0
    8.0197   -0.5685   18.4003 H   0  0  0  0  0  0  0  0  0  0  0  0
    5.0189    1.8406   16.8816 H   0  0  0  0  0  0  0  0  0  0  0  0
    3.8337    1.8953   19.0751 H   0  0  0  0  0  0  0  0  0  0  0  0
    4.8574    0.7212   21.0481 H   0  0  0  0  0  0  0  0  0  0  0  0
    7.4072   -0.0886   22.2618 C   0  0  0  0  0  0  0  0  0  0  0  0
    7.1330    1.3296   22.6986 C   0  0  0  0  0  0  0  0  0  0  0  0
    8.1492    1.9030   23.5053 O   0  0  0  0  0  0  0  0  0  0  0  0
    9.4633    1.9354   23.0952 C   0  0  0  0  0  0  0  0  0  0  0  0
    9.8508    1.9884   21.7480 C   0  0  0  0  0  0  0  0  0  0  0  0
   11.1831    2.2964   21.4330 C   0  0  0  0  0  0  0  0  0  0  0  0
   12.1344    2.4407   22.4432 C   0  0  0  0  0  0  0  0  0  0  0  0
   11.7580    2.2017   23.7756 C   0  0  0  0  0  0  0  0  0  0  0  0
   10.4288    1.9470   24.1294 C   0  0  0  0  0  0  0  0  0  0  0  0
   10.0106    1.7117   25.5623 C   0  0  0  0  0  0  0  0  0  0  0  0
    9.5298    2.6068   25.9725 H   0  0  0  0  0  0  0  0  0  0  0  0
    9.2892    0.8896   25.6313 H   0  0  0  0  0  0  0  0  0  0  0  0
   10.8658    1.4552   26.1843 H   0  0  0  0  0  0  0  0  0  0  0  0
   12.5191    2.2072   24.5520 H   0  0  0  0  0  0  0  0  0  0  0  0
   13.1531    2.7384   22.1978 H   0  0  0  0  0  0  0  0  0  0  0  0
   11.4731    2.4228   20.3928 H   0  0  0  0  0  0  0  0  0  0  0  0
    9.1237    1.7782   20.9677 H   0  0  0  0  0  0  0  0  0  0  0  0
    6.9315    1.9755   21.8342 H   0  0  0  0  0  0  0  0  0  0  0  0
    6.2443    1.3515   23.3395 H   0  0  0  0  0  0  0  0  0  0  0  0
    7.9386   -1.0424   23.0028 N   0  0  0  0  0  0  0  0  0  0  0  0
    8.8897   -3.9443   21.5909 H   0  0  0  0  0  0  0  0  0  0  0  0
    7.0319   -4.2778   23.1459 H   0  0  0  0  0  0  0  0  0  0  0  0
    7.9239   -3.5063   24.4542 H   0  0  0  0  0  0  0  0  0  0  0  0
    7.9095   -6.0771   24.4842 H   0  0  0  0  0  0  0  0  0  0  0  0
    8.8690   -6.0757   23.0064 H   0  0  0  0  0  0  0  0  0  0  0  0
    9.5379   -5.4099   24.5145 H   0  0  0  0  0  0  0  0  0  0  0  0
  1  2  1  0
  2  3  1  0
  3  4  1  0
  4  5  1  0
  3  6  1  0
  6  7  2  0
  7  8  1  0
  8  9  1  0
  9 10  2  0
 10 11  1  0
 11 12  2  0
 12 13  1  0
 13 14  2  0
 14 15  1  0
 12 16  1  0
 11 17  1  0
 10 18  1  0
  8 19  1  0
 19 20  1  0
 20 21  1  0
 21 22  1  0
 22 23  2  0
 23 24  1  0
 24 25  2  0
 25 26  1  0
 26 27  2  0
 27 28  1  0
 28 29  1  0
 28 30  1  0
 28 31  1  0
 26 32  1  0
 25 33  1  0
 24 34  1  0
 23 35  1  0
 20 36  1  0
 20 37  1  0
 19 38  2  0
  3 39  1  0
  2 40  1  0
  2 41  1  0
  1 42  1  0
  1 43  1  0
  1 44  1  0
 38  6  1  0
 14  9  1  0
 27 22  1  0
M  END
>  <cnnaffinity>  (1) 
-5.73605

>  <filename>  (1) 
CCC(O)c1nc(COc2ccccc2C)n(-c2cccnc2)n1

$$$$
