
     RDKit          3D

 42 44  0  0  0  0  0  0  0  0999 V2000
   10.2351    1.2114   23.6002 C   0  0  0  0  0  0  0  0  0  0  0  0
   10.5520   -0.2278   24.0221 C   0  0  0  0  0  0  0  0  0  0  0  0
   10.6562   -1.1846   22.8212 C   0  0  0  0  0  0  0  0  0  0  0  0
   11.8726   -0.7925   21.9661 C   0  0  0  0  0  0  0  0  0  0  0  0
   12.7844   -0.8618   22.5710 H   0  0  0  0  0  0  0  0  0  0  0  0
   11.9819   -1.4580   21.1035 H   0  0  0  0  0  0  0  0  0  0  0  0
   11.7755    0.2372   21.6096 H   0  0  0  0  0  0  0  0  0  0  0  0
    9.3283   -1.2066   22.0903 C   0  0  0  0  0  0  0  0  0  0  0  0
    9.0310   -0.6035   20.9592 N   0  0  0  0  0  0  0  0  0  0  0  0
    7.7098   -0.8614   20.8044 N   0  0  0  0  0  0  0  0  0  0  0  0
    6.9208   -0.1923   19.8469 C   0  0  0  0  0  0  0  0  0  0  0  0
    5.6187    0.2659   20.1104 C   0  0  0  0  0  0  0  0  0  0  0  0
    4.9576    0.9841   19.1052 C   0  0  0  0  0  0  0  0  0  0  0  0
    5.5855    1.2100   17.8754 C   0  0  0  0  0  0  0  0  0  0  0  0
    6.8252    0.7615   17.6147 N   0  0  0  0  0  0  0  0  0  0  0  0
    7.4804    0.0997   18.5889 C   0  0  0  0  0  0  0  0  0  0  0  0
    8.4953   -0.2235   18.3800 H   0  0  0  0  0  0  0  0  0  0  0  0
    5.0549    1.7814   17.1179 H   0  0  0  0  0  0  0  0  0  0  0  0
    3.9734    1.4108   19.2606 H   0  0  0  0  0  0  0  0  0  0  0  0
    5.1448    0.1234   21.0819 H   0  0  0  0  0  0  0  0  0  0  0  0
    7.3040   -1.7128   21.8274 C   0  0  0  0  0  0  0  0  0  0  0  0
    5.9697   -2.3570   22.0153 C   0  0  0  0  0  0  0  0  0  0  0  0
    5.9491   -3.7812   21.5454 C   0  0  0  0  0  0  0  0  0  0  0  0
    5.7445   -4.1981   20.2708 C   0  0  0  0  0  0  0  0  0  0  0  0
    5.4694   -3.0821   18.7427 Br  0  0  0  0  0  0  0  0  0  0  0  0
    5.6632   -5.6466   20.3394 C   0  0  0  0  0  0  0  0  0  0  0  0
    5.8305   -6.0620   21.5702 N   0  0  0  0  0  0  0  0  0  0  0  0
    5.9991   -4.9405   22.3226 N   0  0  0  0  0  0  0  0  0  0  0  0
    5.9102   -5.0045   23.7878 C   0  0  0  0  0  0  0  0  0  0  0  0
    4.9094   -4.7248   24.1206 H   0  0  0  0  0  0  0  0  0  0  0  0
    6.6232   -4.3287   24.2553 H   0  0  0  0  0  0  0  0  0  0  0  0
    6.1137   -6.0233   24.1361 H   0  0  0  0  0  0  0  0  0  0  0  0
    5.4509   -6.3045   19.5036 H   0  0  0  0  0  0  0  0  0  0  0  0
    5.7150   -2.3542   23.0752 H   0  0  0  0  0  0  0  0  0  0  0  0
    5.2302   -1.7825   21.4591 H   0  0  0  0  0  0  0  0  0  0  0  0
    8.2827   -1.9130   22.6595 N   0  0  0  0  0  0  0  0  0  0  0  0
   10.8260   -2.1980   23.2001 H   0  0  0  0  0  0  0  0  0  0  0  0
   11.4970   -0.2392   24.5721 H   0  0  0  0  0  0  0  0  0  0  0  0
    9.7693   -0.5808   24.7022 H   0  0  0  0  0  0  0  0  0  0  0  0
    9.2586    1.2636   23.1082 H   0  0  0  0  0  0  0  0  0  0  0  0
   10.9935    1.5922   22.9097 H   0  0  0  0  0  0  0  0  0  0  0  0
   10.2161    1.8594   24.4814 H   0  0  0  0  0  0  0  0  0  0  0  0
  1  2  1  0
  2  3  1  0
  3  4  1  0
  4  5  1  0
  4  6  1  0
  4  7  1  0
  3  8  1  0
  8  9  2  0
  9 10  1  0
 10 11  1  0
 11 12  2  0
 12 13  1  0
 13 14  2  0
 14 15  1  0
 15 16  2  0
 16 17  1  0
 14 18  1  0
 13 19  1  0
 12 20  1  0
 10 21  1  0
 21 22  1  0
 22 23  1  0
 23 24  2  0
 24 25  1  0
 24 26  1  0
 26 27  2  0
 27 28  1  0
 28 29  1  0
 29 30  1  0
 29 31  1  0
 29 32  1  0
 26 33  1  0
 22 34  1  0
 22 35  1  0
 21 36  2  0
  3 37  1  0
  2 38  1  0
  2 39  1  0
  1 40  1  0
  1 41  1  0
  1 42  1  0
 36  8  1  0
 16 11  1  0
 28 23  1  0
M  END
>  <cnnaffinity>  (1) 
-5.54252

>  <filename>  (1) 
CCC(C)c1nc(Cc2c(Br)cnn2C)n(-c2cccnc2)n1

$$$$
