
     RDKit          3D

 43 45  0  0  0  0  0  0  0  0999 V2000
    6.1638   -1.2032   25.1177 C   0  0  0  0  0  0  0  0  0  0  0  0
    7.2949   -2.2295   25.0464 C   0  0  0  0  0  0  0  0  0  0  0  0
    7.3997   -2.9664   23.6904 C   0  0  0  0  0  0  0  0  0  0  0  0
    6.2781   -3.8183   23.5088 O   0  0  0  0  0  0  0  0  0  0  0  0
    5.5279   -3.2433   23.2827 H   0  0  0  0  0  0  0  0  0  0  0  0
    7.6467   -2.0002   22.5404 C   0  0  0  0  0  0  0  0  0  0  0  0
    6.6888   -1.5740   21.7330 N   0  0  0  0  0  0  0  0  0  0  0  0
    7.3310   -0.6841   20.9370 N   0  0  0  0  0  0  0  0  0  0  0  0
    6.6424   -0.0039   19.8966 C   0  0  0  0  0  0  0  0  0  0  0  0
    5.4339    0.6422   20.1644 C   0  0  0  0  0  0  0  0  0  0  0  0
    4.8116    1.3129   19.1087 C   0  0  0  0  0  0  0  0  0  0  0  0
    5.3983    1.2978   17.8370 C   0  0  0  0  0  0  0  0  0  0  0  0
    6.5545    0.6705   17.5729 N   0  0  0  0  0  0  0  0  0  0  0  0
    7.1604    0.0440   18.5881 C   0  0  0  0  0  0  0  0  0  0  0  0
    8.1127   -0.4311   18.3632 H   0  0  0  0  0  0  0  0  0  0  0  0
    4.9211    1.7886   16.9933 H   0  0  0  0  0  0  0  0  0  0  0  0
    3.8807    1.8412   19.2596 H   0  0  0  0  0  0  0  0  0  0  0  0
    5.0148    0.6096   21.1739 H   0  0  0  0  0  0  0  0  0  0  0  0
    8.6174   -0.5610   21.3720 C   0  0  0  0  0  0  0  0  0  0  0  0
    9.6255    0.3651   20.7958 C   0  0  0  0  0  0  0  0  0  0  0  0
   10.3665    1.1360   21.8714 C   0  0  0  0  0  0  0  0  0  0  0  0
   11.5708    0.6577   22.4161 C   0  0  0  0  0  0  0  0  0  0  0  0
   12.2887   -0.8190   21.8256 Cl  0  0  0  0  0  0  0  0  0  0  0  0
   12.2145    1.3063   23.4728 C   0  0  0  0  0  0  0  0  0  0  0  0
   11.6306    2.4518   24.0022 C   0  0  0  0  0  0  0  0  0  0  0  0
   10.4202    2.9311   23.5015 C   0  0  0  0  0  0  0  0  0  0  0  0
    9.7665    2.2762   22.4565 C   0  0  0  0  0  0  0  0  0  0  0  0
    8.4409    2.8125   21.9749 C   0  0  0  0  0  0  0  0  0  0  0  0
    8.5422    3.1846   20.9567 H   0  0  0  0  0  0  0  0  0  0  0  0
    8.0902    3.6416   22.5935 H   0  0  0  0  0  0  0  0  0  0  0  0
    7.6542    2.0499   21.9566 H   0  0  0  0  0  0  0  0  0  0  0  0
    9.9659    3.8257   23.9203 H   0  0  0  0  0  0  0  0  0  0  0  0
   12.0993    2.9799   24.8153 H   0  0  0  0  0  0  0  0  0  0  0  0
   13.1477    0.9031   23.8552 H   0  0  0  0  0  0  0  0  0  0  0  0
   10.2920   -0.3053   20.2556 H   0  0  0  0  0  0  0  0  0  0  0  0
    9.1469    1.0588   20.1011 H   0  0  0  0  0  0  0  0  0  0  0  0
    8.8588   -1.4243   22.3415 N   0  0  0  0  0  0  0  0  0  0  0  0
    8.2807   -3.6133   23.7245 H   0  0  0  0  0  0  0  0  0  0  0  0
    7.1530   -2.9976   25.8149 H   0  0  0  0  0  0  0  0  0  0  0  0
    8.2548   -1.7411   25.2538 H   0  0  0  0  0  0  0  0  0  0  0  0
    5.1815   -1.6774   24.9953 H   0  0  0  0  0  0  0  0  0  0  0  0
    6.2578   -0.4389   24.3369 H   0  0  0  0  0  0  0  0  0  0  0  0
    6.1602   -0.6983   26.0892 H   0  0  0  0  0  0  0  0  0  0  0  0
  1  2  1  0
  2  3  1  0
  3  4  1  0
  4  5  1  0
  3  6  1  0
  6  7  2  0
  7  8  1  0
  8  9  1  0
  9 10  2  0
 10 11  1  0
 11 12  2  0
 12 13  1  0
 13 14  2  0
 14 15  1  0
 12 16  1  0
 11 17  1  0
 10 18  1  0
  8 19  1  0
 19 20  1  0
 20 21  1  0
 21 22  2  0
 22 23  1  0
 22 24  1  0
 24 25  2  0
 25 26  1  0
 26 27  2  0
 27 28  1  0
 28 29  1  0
 28 30  1  0
 28 31  1  0
 26 32  1  0
 25 33  1  0
 24 34  1  0
 20 35  1  0
 20 36  1  0
 19 37  2  0
  3 38  1  0
  2 39  1  0
  2 40  1  0
  1 41  1  0
  1 42  1  0
  1 43  1  0
 37  6  1  0
 14  9  1  0
 27 21  1  0
M  END
>  <cnnaffinity>  (1) 
-6.29827

>  <filename>  (1) 
CCC(O)c1nc(Cc2c(C)cccc2Cl)n(-c2cccnc2)n1

$$$$
