
     RDKit          3D

 45 47  0  0  0  0  0  0  0  0999 V2000
    5.9202   -1.6525   25.0856 C   0  0  0  0  0  0  0  0  0  0  0  0
    6.0537   -2.9383   24.2723 C   0  0  0  0  0  0  0  0  0  0  0  0
    7.4255   -3.0771   23.5859 C   0  0  0  0  0  0  0  0  0  0  0  0
    7.6858   -4.4939   23.0185 C   0  0  0  0  0  0  0  0  0  0  0  0
    6.7298   -4.9133   21.9039 C   0  0  0  0  0  0  0  0  0  0  0  0
    5.6924   -4.9227   22.2569 H   0  0  0  0  0  0  0  0  0  0  0  0
    6.7740   -4.2209   21.0567 H   0  0  0  0  0  0  0  0  0  0  0  0
    6.9649   -5.9207   21.5451 H   0  0  0  0  0  0  0  0  0  0  0  0
    8.7223   -4.5363   22.6627 H   0  0  0  0  0  0  0  0  0  0  0  0
    7.6266   -5.2118   23.8472 H   0  0  0  0  0  0  0  0  0  0  0  0
    7.6436   -2.0151   22.5377 C   0  0  0  0  0  0  0  0  0  0  0  0
    6.7056   -1.6004   21.7033 N   0  0  0  0  0  0  0  0  0  0  0  0
    7.3527   -0.6901   20.9293 N   0  0  0  0  0  0  0  0  0  0  0  0
    6.6527   -0.0030   19.8995 C   0  0  0  0  0  0  0  0  0  0  0  0
    5.4387    0.6402   20.1675 C   0  0  0  0  0  0  0  0  0  0  0  0
    4.8136    1.3102   19.1095 C   0  0  0  0  0  0  0  0  0  0  0  0
    5.3988    1.2966   17.8364 C   0  0  0  0  0  0  0  0  0  0  0  0
    6.5557    0.6698   17.5712 N   0  0  0  0  0  0  0  0  0  0  0  0
    7.1633    0.0470   18.5891 C   0  0  0  0  0  0  0  0  0  0  0  0
    8.1111   -0.4350   18.3642 H   0  0  0  0  0  0  0  0  0  0  0  0
    4.9206    1.7889   16.9928 H   0  0  0  0  0  0  0  0  0  0  0  0
    3.8813    1.8393   19.2598 H   0  0  0  0  0  0  0  0  0  0  0  0
    5.0110    0.6086   21.1746 H   0  0  0  0  0  0  0  0  0  0  0  0
    8.6273   -0.5593   21.3997 C   0  0  0  0  0  0  0  0  0  0  0  0
    9.6166    0.4341   20.9066 C   0  0  0  0  0  0  0  0  0  0  0  0
   10.0267    1.3533   21.9492 N   0  0  0  0  0  0  0  0  0  0  0  0
   11.2047    1.1813   22.5698 N   0  0  0  0  0  0  0  0  0  0  0  0
   11.2099    2.0538   23.5639 C   0  0  0  0  0  0  0  0  0  0  0  0
   10.0052    2.7803   23.5842 C   0  0  0  0  0  0  0  0  0  0  0  0
    9.5310    4.0180   24.6823 Cl  0  0  0  0  0  0  0  0  0  0  0  0
    9.2493    2.3029   22.5376 C   0  0  0  0  0  0  0  0  0  0  0  0
    7.8505    2.6494   22.1335 C   0  0  0  0  0  0  0  0  0  0  0  0
    7.5863    3.6231   22.5506 H   0  0  0  0  0  0  0  0  0  0  0  0
    7.1295    1.9167   22.5200 H   0  0  0  0  0  0  0  0  0  0  0  0
    7.7217    2.6825   21.0474 H   0  0  0  0  0  0  0  0  0  0  0  0
   12.0492    2.1423   24.2408 H   0  0  0  0  0  0  0  0  0  0  0  0
    9.2125    1.0088   20.0762 H   0  0  0  0  0  0  0  0  0  0  0  0
   10.4995   -0.1105   20.5917 H   0  0  0  0  0  0  0  0  0  0  0  0
    8.8543   -1.4271   22.3627 N   0  0  0  0  0  0  0  0  0  0  0  0
    8.2057   -2.8883   24.3309 H   0  0  0  0  0  0  0  0  0  0  0  0
    5.8900   -3.8087   24.9204 H   0  0  0  0  0  0  0  0  0  0  0  0
    5.2677   -2.9722   23.5086 H   0  0  0  0  0  0  0  0  0  0  0  0
    4.9421   -1.5922   25.5737 H   0  0  0  0  0  0  0  0  0  0  0  0
    6.6832   -1.5981   25.8709 H   0  0  0  0  0  0  0  0  0  0  0  0
    6.0305   -0.7604   24.4578 H   0  0  0  0  0  0  0  0  0  0  0  0
  1  2  1  0
  2  3  1  0
  3  4  1  0
  4  5  1  0
  5  6  1  0
  5  7  1  0
  5  8  1  0
  4  9  1  0
  4 10  1  0
  3 11  1  0
 11 12  2  0
 12 13  1  0
 13 14  1  0
 14 15  2  0
 15 16  1  0
 16 17  2  0
 17 18  1  0
 18 19  2  0
 19 20  1  0
 17 21  1  0
 16 22  1  0
 15 23  1  0
 13 24  1  0
 24 25  1  0
 25 26  1  0
 26 27  1  0
 27 28  2  0
 28 29  1  0
 29 30  1  0
 29 31  2  0
 31 32  1  0
 32 33  1  0
 32 34  1  0
 32 35  1  0
 28 36  1  0
 25 37  1  0
 25 38  1  0
 24 39  2  0
  3 40  1  0
  2 41  1  0
  2 42  1  0
  1 43  1  0
  1 44  1  0
  1 45  1  0
 39 11  1  0
 19 14  1  0
 31 26  1  0
M  END
>  <cnnaffinity>  (1) 
-6.13936

>  <filename>  (1) 
CCC(CC)c1nc(Cn2ncc(Cl)c2C)n(-c2cccnc2)n1

$$$$
