
     RDKit          3D

 41 43  0  0  0  0  0  0  0  0999 V2000
    6.9416   -4.9554   21.7677 C   0  0  0  0  0  0  0  0  0  0  0  0
    7.7960   -4.5236   22.9621 C   0  0  0  0  0  0  0  0  0  0  0  0
    7.4211   -3.1308   23.5395 C   0  0  0  0  0  0  0  0  0  0  0  0
    6.0212   -3.0816   24.1711 C   0  0  0  0  0  0  0  0  0  0  0  0
    5.8932   -3.8846   24.9050 H   0  0  0  0  0  0  0  0  0  0  0  0
    5.8534   -2.1229   24.6763 H   0  0  0  0  0  0  0  0  0  0  0  0
    5.2487   -3.1832   23.3991 H   0  0  0  0  0  0  0  0  0  0  0  0
    7.5887   -2.0532   22.5078 C   0  0  0  0  0  0  0  0  0  0  0  0
    6.6529   -1.6385   21.6730 N   0  0  0  0  0  0  0  0  0  0  0  0
    7.3027   -0.7109   20.9249 N   0  0  0  0  0  0  0  0  0  0  0  0
    6.6304   -0.0251   19.8832 C   0  0  0  0  0  0  0  0  0  0  0  0
    5.4239    0.6278   20.1489 C   0  0  0  0  0  0  0  0  0  0  0  0
    4.7991    1.3126   19.1028 C   0  0  0  0  0  0  0  0  0  0  0  0
    5.3922    1.2971   17.8324 C   0  0  0  0  0  0  0  0  0  0  0  0
    6.5389    0.6547   17.5669 N   0  0  0  0  0  0  0  0  0  0  0  0
    7.1445    0.0211   18.5736 C   0  0  0  0  0  0  0  0  0  0  0  0
    8.0937   -0.4570   18.3365 H   0  0  0  0  0  0  0  0  0  0  0  0
    4.9331    1.8174   16.9951 H   0  0  0  0  0  0  0  0  0  0  0  0
    3.8707    1.8557   19.2538 H   0  0  0  0  0  0  0  0  0  0  0  0
    5.0117    0.5896   21.1588 H   0  0  0  0  0  0  0  0  0  0  0  0
    8.5818   -0.5959   21.3775 C   0  0  0  0  0  0  0  0  0  0  0  0
    9.6399    0.2868   20.8114 C   0  0  0  0  0  0  0  0  0  0  0  0
   10.3399    1.1143   21.8679 C   0  0  0  0  0  0  0  0  0  0  0  0
    9.7355    2.2269   22.4822 C   0  0  0  0  0  0  0  0  0  0  0  0
    8.1623    2.7628   21.9707 Cl  0  0  0  0  0  0  0  0  0  0  0  0
   10.3665    2.8841   23.5503 C   0  0  0  0  0  0  0  0  0  0  0  0
   11.5538    2.4855   24.0330 N   0  0  0  0  0  0  0  0  0  0  0  0
   12.1589    1.4355   23.4572 C   0  0  0  0  0  0  0  0  0  0  0  0
   11.5854    0.7448   22.3866 C   0  0  0  0  0  0  0  0  0  0  0  0
   12.2430   -0.3065   21.8667 F   0  0  0  0  0  0  0  0  0  0  0  0
   13.1181    1.1037   23.8513 H   0  0  0  0  0  0  0  0  0  0  0  0
    9.8865    3.7335   24.0384 H   0  0  0  0  0  0  0  0  0  0  0  0
    9.1888    0.9333   20.0601 H   0  0  0  0  0  0  0  0  0  0  0  0
   10.3429   -0.3904   20.3197 H   0  0  0  0  0  0  0  0  0  0  0  0
    8.7910   -1.4519   22.3554 N   0  0  0  0  0  0  0  0  0  0  0  0
    8.1852   -2.8812   24.2876 H   0  0  0  0  0  0  0  0  0  0  0  0
    8.8599   -4.5023   22.6834 H   0  0  0  0  0  0  0  0  0  0  0  0
    7.7146   -5.2571   23.7782 H   0  0  0  0  0  0  0  0  0  0  0  0
    7.0067   -4.2350   20.9436 H   0  0  0  0  0  0  0  0  0  0  0  0
    5.8839   -5.0325   22.0477 H   0  0  0  0  0  0  0  0  0  0  0  0
    7.2532   -5.9347   21.3889 H   0  0  0  0  0  0  0  0  0  0  0  0
  1  2  1  0
  2  3  1  0
  3  4  1  0
  4  5  1  0
  4  6  1  0
  4  7  1  0
  3  8  1  0
  8  9  2  0
  9 10  1  0
 10 11  1  0
 11 12  2  0
 12 13  1  0
 13 14  2  0
 14 15  1  0
 15 16  2  0
 16 17  1  0
 14 18  1  0
 13 19  1  0
 12 20  1  0
 10 21  1  0
 21 22  1  0
 22 23  1  0
 23 24  2  0
 24 25  1  0
 24 26  1  0
 26 27  2  0
 27 28  1  0
 28 29  2  0
 29 30  1  0
 28 31  1  0
 26 32  1  0
 22 33  1  0
 22 34  1  0
 21 35  2  0
  3 36  1  0
  2 37  1  0
  2 38  1  0
  1 39  1  0
  1 40  1  0
  1 41  1  0
 35  8  1  0
 16 11  1  0
 29 23  1  0
M  END
>  <cnnaffinity>  (1) 
-6.62206

>  <filename>  (1) 
CCC(C)c1nc(Cc2c(F)cncc2Cl)n(-c2cccnc2)n1

$$$$
