
     RDKit          3D

 41 43  0  0  0  0  0  0  0  0999 V2000
    7.1871   -1.3655   25.5103 C   0  0  0  0  0  0  0  0  0  0  0  0
    6.5172   -2.5113   24.7486 C   0  0  0  0  0  0  0  0  0  0  0  0
    7.3531   -3.1002   23.5841 C   0  0  0  0  0  0  0  0  0  0  0  0
    6.7553   -4.3114   23.1300 O   0  0  0  0  0  0  0  0  0  0  0  0
    5.9375   -4.0950   22.6505 H   0  0  0  0  0  0  0  0  0  0  0  0
    7.6464   -2.0499   22.5053 C   0  0  0  0  0  0  0  0  0  0  0  0
    6.7230   -1.6564   21.6410 N   0  0  0  0  0  0  0  0  0  0  0  0
    7.3423   -0.6792   20.9345 N   0  0  0  0  0  0  0  0  0  0  0  0
    6.6409   -0.0175   19.8864 C   0  0  0  0  0  0  0  0  0  0  0  0
    5.4285    0.6225   20.1506 C   0  0  0  0  0  0  0  0  0  0  0  0
    4.8181    1.3058   19.0955 C   0  0  0  0  0  0  0  0  0  0  0  0
    5.4075    1.2953   17.8236 C   0  0  0  0  0  0  0  0  0  0  0  0
    6.5425    0.6334   17.5539 N   0  0  0  0  0  0  0  0  0  0  0  0
    7.1335   -0.0069   18.5682 C   0  0  0  0  0  0  0  0  0  0  0  0
    8.0504   -0.5432   18.3328 H   0  0  0  0  0  0  0  0  0  0  0  0
    4.9482    1.8223   16.9887 H   0  0  0  0  0  0  0  0  0  0  0  0
    3.8915    1.8413   19.2515 H   0  0  0  0  0  0  0  0  0  0  0  0
    5.0081    0.6077   21.1607 H   0  0  0  0  0  0  0  0  0  0  0  0
    8.5912   -0.4853   21.4450 C   0  0  0  0  0  0  0  0  0  0  0  0
    9.5523    0.5562   20.9367 C   0  0  0  0  0  0  0  0  0  0  0  0
    9.3443    1.9035   21.3902 O   0  0  0  0  0  0  0  0  0  0  0  0
    9.4743    2.0399   22.7471 C   0  0  0  0  0  0  0  0  0  0  0  0
    8.3272    2.1114   23.5607 C   0  0  0  0  0  0  0  0  0  0  0  0
    6.7560    2.0513   22.8423 Cl  0  0  0  0  0  0  0  0  0  0  0  0
    8.4137    2.1662   24.9518 C   0  0  0  0  0  0  0  0  0  0  0  0
    9.6692    2.1053   25.5485 C   0  0  0  0  0  0  0  0  0  0  0  0
   10.8294    2.0384   24.7767 C   0  0  0  0  0  0  0  0  0  0  0  0
   10.7330    2.0220   23.3845 C   0  0  0  0  0  0  0  0  0  0  0  0
   12.2036    1.9530   22.4518 Cl  0  0  0  0  0  0  0  0  0  0  0  0
   11.8076    1.9728   25.2375 H   0  0  0  0  0  0  0  0  0  0  0  0
    9.7216    2.0780   26.6224 H   0  0  0  0  0  0  0  0  0  0  0  0
    7.5029    2.1983   25.5451 H   0  0  0  0  0  0  0  0  0  0  0  0
   10.5619    0.2327   21.1959 H   0  0  0  0  0  0  0  0  0  0  0  0
    9.4827    0.6261   19.8521 H   0  0  0  0  0  0  0  0  0  0  0  0
    8.8224   -1.3628   22.4137 N   0  0  0  0  0  0  0  0  0  0  0  0
    8.3282   -3.4087   23.9732 H   0  0  0  0  0  0  0  0  0  0  0  0
    5.5547   -2.1695   24.3430 H   0  0  0  0  0  0  0  0  0  0  0  0
    6.2956   -3.3407   25.4335 H   0  0  0  0  0  0  0  0  0  0  0  0
    7.4000   -0.5027   24.8669 H   0  0  0  0  0  0  0  0  0  0  0  0
    6.5283   -1.0144   26.3118 H   0  0  0  0  0  0  0  0  0  0  0  0
    8.1318   -1.6740   25.9741 H   0  0  0  0  0  0  0  0  0  0  0  0
  1  2  1  0
  2  3  1  0
  3  4  1  0
  4  5  1  0
  3  6  1  0
  6  7  2  0
  7  8  1  0
  8  9  1  0
  9 10  2  0
 10 11  1  0
 11 12  2  0
 12 13  1  0
 13 14  2  0
 14 15  1  0
 12 16  1  0
 11 17  1  0
 10 18  1  0
  8 19  1  0
 19 20  1  0
 20 21  1  0
 21 22  1  0
 22 23  2  0
 23 24  1  0
 23 25  1  0
 25 26  2  0
 26 27  1  0
 27 28  2  0
 28 29  1  0
 27 30  1  0
 26 31  1  0
 25 32  1  0
 20 33  1  0
 20 34  1  0
 19 35  2  0
  3 36  1  0
  2 37  1  0
  2 38  1  0
  1 39  1  0
  1 40  1  0
  1 41  1  0
 35  6  1  0
 14  9  1  0
 28 22  1  0
M  END
>  <cnnaffinity>  (1) 
-6.05595

>  <filename>  (1) 
CCC(O)c1nc(COc2c(Cl)cccc2Cl)n(-c2cccnc2)n1

$$$$
