
     RDKit          3D

 45 47  0  0  0  0  0  0  0  0999 V2000
    7.8926   -1.0886   25.4918 C   0  0  0  0  0  0  0  0  0  0  0  0
    6.7416   -2.0050   25.0697 C   0  0  0  0  0  0  0  0  0  0  0  0
    7.1573   -2.8160   23.8368 C   0  0  0  0  0  0  0  0  0  0  0  0
    8.3593   -3.7036   24.2037 C   0  0  0  0  0  0  0  0  0  0  0  0
    8.5186   -4.7571   23.1155 C   0  0  0  0  0  0  0  0  0  0  0  0
    7.5525   -5.2274   22.9088 H   0  0  0  0  0  0  0  0  0  0  0  0
    9.2165   -5.5367   23.4355 H   0  0  0  0  0  0  0  0  0  0  0  0
    8.8696   -4.2872   22.1930 H   0  0  0  0  0  0  0  0  0  0  0  0
    9.2685   -3.0984   24.3303 H   0  0  0  0  0  0  0  0  0  0  0  0
    8.1754   -4.1973   25.1613 H   0  0  0  0  0  0  0  0  0  0  0  0
    7.4718   -1.9080   22.6673 C   0  0  0  0  0  0  0  0  0  0  0  0
    6.5849   -1.5806   21.7589 N   0  0  0  0  0  0  0  0  0  0  0  0
    7.2608   -0.7450   20.9418 N   0  0  0  0  0  0  0  0  0  0  0  0
    6.6472   -0.0265   19.9120 C   0  0  0  0  0  0  0  0  0  0  0  0
    5.4221    0.6102   20.1377 C   0  0  0  0  0  0  0  0  0  0  0  0
    4.8348    1.2895   19.0719 C   0  0  0  0  0  0  0  0  0  0  0  0
    5.4668    1.3114   17.8234 C   0  0  0  0  0  0  0  0  0  0  0  0
    6.6413    0.6923   17.6018 N   0  0  0  0  0  0  0  0  0  0  0  0
    7.2158    0.0403   18.6303 C   0  0  0  0  0  0  0  0  0  0  0  0
    8.1568   -0.4729   18.4505 H   0  0  0  0  0  0  0  0  0  0  0  0
    4.9983    1.8464   17.0033 H   0  0  0  0  0  0  0  0  0  0  0  0
    3.8925    1.8078   19.1999 H   0  0  0  0  0  0  0  0  0  0  0  0
    4.9469    0.5752   21.1192 H   0  0  0  0  0  0  0  0  0  0  0  0
    8.5612   -0.6091   21.4095 C   0  0  0  0  0  0  0  0  0  0  0  0
    9.6388    0.2687   20.8639 C   0  0  0  0  0  0  0  0  0  0  0  0
   10.1181    1.1340   21.9457 N   0  0  0  0  0  0  0  0  0  0  0  0
   11.3653    1.0233   22.4835 N   0  0  0  0  0  0  0  0  0  0  0  0
   11.4007    1.9061   23.4603 C   0  0  0  0  0  0  0  0  0  0  0  0
   10.1435    2.6072   23.5784 C   0  0  0  0  0  0  0  0  0  0  0  0
    9.6734    3.9658   24.8465 Br  0  0  0  0  0  0  0  0  0  0  0  0
    9.3525    2.0911   22.6074 C   0  0  0  0  0  0  0  0  0  0  0  0
    7.9352    2.4976   22.3611 C   0  0  0  0  0  0  0  0  0  0  0  0
    7.2506    1.7242   22.7153 H   0  0  0  0  0  0  0  0  0  0  0  0
    7.7223    3.4243   22.8988 H   0  0  0  0  0  0  0  0  0  0  0  0
    7.7621    2.6640   21.2981 H   0  0  0  0  0  0  0  0  0  0  0  0
   12.2508    2.0993   24.1057 H   0  0  0  0  0  0  0  0  0  0  0  0
    9.2748    0.8635   20.0254 H   0  0  0  0  0  0  0  0  0  0  0  0
   10.4629   -0.3604   20.5186 H   0  0  0  0  0  0  0  0  0  0  0  0
    8.7163   -1.3273   22.4822 N   0  0  0  0  0  0  0  0  0  0  0  0
    6.3179   -3.4554   23.5517 H   0  0  0  0  0  0  0  0  0  0  0  0
    5.8406   -1.4163   24.8537 H   0  0  0  0  0  0  0  0  0  0  0  0
    6.4981   -2.6949   25.8876 H   0  0  0  0  0  0  0  0  0  0  0  0
    8.1535   -0.4013   24.6787 H   0  0  0  0  0  0  0  0  0  0  0  0
    8.7791   -1.6870   25.7313 H   0  0  0  0  0  0  0  0  0  0  0  0
    7.6084   -0.5055   26.3726 H   0  0  0  0  0  0  0  0  0  0  0  0
  1  2  1  0
  2  3  1  0
  3  4  1  0
  4  5  1  0
  5  6  1  0
  5  7  1  0
  5  8  1  0
  4  9  1  0
  4 10  1  0
  3 11  1  0
 11 12  2  0
 12 13  1  0
 13 14  1  0
 14 15  2  0
 15 16  1  0
 16 17  2  0
 17 18  1  0
 18 19  2  0
 19 20  1  0
 17 21  1  0
 16 22  1  0
 15 23  1  0
 13 24  1  0
 24 25  1  0
 25 26  1  0
 26 27  1  0
 27 28  2  0
 28 29  1  0
 29 30  1  0
 29 31  2  0
 31 32  1  0
 32 33  1  0
 32 34  1  0
 32 35  1  0
 28 36  1  0
 25 37  1  0
 25 38  1  0
 24 39  2  0
  3 40  1  0
  2 41  1  0
  2 42  1  0
  1 43  1  0
  1 44  1  0
  1 45  1  0
 39 11  1  0
 19 14  1  0
 31 26  1  0
M  END
>  <cnnaffinity>  (1) 
-6.24581

>  <filename>  (1) 
CCC(CC)c1nc(Cn2ncc(Br)c2C)n(-c2cccnc2)n1

$$$$
