
     RDKit          3D

 44 47  0  0  0  0  0  0  0  0999 V2000
   11.7935    2.0325   23.8095 C   0  0  0  0  0  0  0  0  0  0  0  0
   10.3668    1.5269   24.0445 C   0  0  0  0  0  0  0  0  0  0  0  0
    9.3665    2.3337   23.2297 C   0  0  0  0  0  0  0  0  0  0  0  0
    8.9020    3.5639   23.7419 C   0  0  0  0  0  0  0  0  0  0  0  0
    7.9662    4.3378   23.0473 C   0  0  0  0  0  0  0  0  0  0  0  0
    7.4554    3.8845   21.8311 C   0  0  0  0  0  0  0  0  0  0  0  0
    7.9496    2.6918   21.2992 C   0  0  0  0  0  0  0  0  0  0  0  0
    8.9492    1.9570   21.9379 C   0  0  0  0  0  0  0  0  0  0  0  0
    9.4755    0.7213   21.2175 C   0  0  0  0  0  0  0  0  0  0  0  0
    8.6143   -0.4681   21.4960 C   0  0  0  0  0  0  0  0  0  0  0  0
    8.8369   -1.3593   22.4428 N   0  0  0  0  0  0  0  0  0  0  0  0
    7.6900   -2.0801   22.4715 C   0  0  0  0  0  0  0  0  0  0  0  0
    7.4811   -3.1645   23.4723 C   0  0  0  0  0  0  0  0  0  0  0  0
    6.2830   -2.9343   24.4366 C   0  0  0  0  0  0  0  0  0  0  0  0
    5.4371   -4.4456   23.8584 S   0  0  0  0  0  0  0  0  0  0  0  0
    6.9788   -4.5071   22.8837 C   0  0  0  0  0  0  0  0  0  0  0  0
    6.7981   -4.4830   21.8042 H   0  0  0  0  0  0  0  0  0  0  0  0
    7.6135   -5.3581   23.1450 H   0  0  0  0  0  0  0  0  0  0  0  0
    5.7141   -2.0191   24.2450 H   0  0  0  0  0  0  0  0  0  0  0  0
    6.5619   -2.9796   25.4929 H   0  0  0  0  0  0  0  0  0  0  0  0
    8.4272   -3.2645   24.0090 H   0  0  0  0  0  0  0  0  0  0  0  0
    6.7810   -1.7130   21.5933 N   0  0  0  0  0  0  0  0  0  0  0  0
    7.3858   -0.6840   20.9394 N   0  0  0  0  0  0  0  0  0  0  0  0
    6.6813   -0.0297   19.8846 C   0  0  0  0  0  0  0  0  0  0  0  0
    5.4545    0.5893   20.1465 C   0  0  0  0  0  0  0  0  0  0  0  0
    4.8306    1.2770   19.1024 C   0  0  0  0  0  0  0  0  0  0  0  0
    5.4226    1.2841   17.8337 C   0  0  0  0  0  0  0  0  0  0  0  0
    6.5726    0.6454   17.5645 N   0  0  0  0  0  0  0  0  0  0  0  0
    7.1785    0.0037   18.5718 C   0  0  0  0  0  0  0  0  0  0  0  0
    8.1034   -0.5149   18.3245 H   0  0  0  0  0  0  0  0  0  0  0  0
    4.9495    1.8041   17.0015 H   0  0  0  0  0  0  0  0  0  0  0  0
    3.8957    1.8010   19.2618 H   0  0  0  0  0  0  0  0  0  0  0  0
    5.0266    0.5417   21.1488 H   0  0  0  0  0  0  0  0  0  0  0  0
   10.4900    0.4763   21.5450 H   0  0  0  0  0  0  0  0  0  0  0  0
    9.5128    0.8866   20.1355 H   0  0  0  0  0  0  0  0  0  0  0  0
    7.5777    2.3066   20.3537 H   0  0  0  0  0  0  0  0  0  0  0  0
    6.6938    4.4596   21.3014 H   0  0  0  0  0  0  0  0  0  0  0  0
    7.6166    5.2836   23.4548 H   0  0  0  0  0  0  0  0  0  0  0  0
    9.2726    3.9113   24.7012 H   0  0  0  0  0  0  0  0  0  0  0  0
   10.1215    1.6141   25.1115 H   0  0  0  0  0  0  0  0  0  0  0  0
   10.2918    0.4535   23.8185 H   0  0  0  0  0  0  0  0  0  0  0  0
   11.8662    3.1030   24.0386 H   0  0  0  0  0  0  0  0  0  0  0  0
   12.0688    1.9019   22.7559 H   0  0  0  0  0  0  0  0  0  0  0  0
   12.5243    1.5046   24.4293 H   0  0  0  0  0  0  0  0  0  0  0  0
  1  2  1  0
  2  3  1  0
  3  4  2  0
  4  5  1  0
  5  6  2  0
  6  7  1  0
  7  8  2  0
  8  9  1  0
  9 10  1  0
 10 11  2  0
 11 12  1  0
 12 13  1  0
 13 14  1  0
 14 15  1  0
 15 16  1  0
 16 17  1  0
 16 18  1  0
 14 19  1  0
 14 20  1  0
 13 21  1  0
 12 22  2  0
 22 23  1  0
 23 24  1  0
 24 25  2  0
 25 26  1  0
 26 27  2  0
 27 28  1  0
 28 29  2  0
 29 30  1  0
 27 31  1  0
 26 32  1  0
 25 33  1  0
  9 34  1  0
  9 35  1  0
  7 36  1  0
  6 37  1  0
  5 38  1  0
  4 39  1  0
  2 40  1  0
  2 41  1  0
  1 42  1  0
  1 43  1  0
  1 44  1  0
  8  3  1  0
 23 10  1  0
 29 24  1  0
 16 13  1  0
M  END
>  <cnnaffinity>  (1) 
-6.25441

>  <filename>  (1) 
CCc1ccccc1Cc1nc(C2CSC2)nn1-c1cccnc1

$$$$
