
     RDKit          3D

 52 55  0  0  0  0  0  0  0  0999 V2000
    6.6853    2.0989   23.3502 C   0  0  0  0  0  0  0  0  0  0  0  0
    7.4998    2.8531   22.2860 C   0  0  0  0  0  0  0  0  0  0  0  0
    8.9551    2.4863   22.3423 C   0  0  0  0  0  0  0  0  0  0  0  0
    9.7757    3.1161   23.1773 N   0  0  0  0  0  0  0  0  0  0  0  0
   10.9536    2.4776   23.0635 N   0  0  0  0  0  0  0  0  0  0  0  0
   12.0380    2.8393   23.9486 C   0  0  0  0  0  0  0  0  0  0  0  0
   13.0061    2.7344   23.4459 H   0  0  0  0  0  0  0  0  0  0  0  0
   12.0146    2.2162   24.8485 H   0  0  0  0  0  0  0  0  0  0  0  0
   11.9004    3.8795   24.2375 H   0  0  0  0  0  0  0  0  0  0  0  0
   10.9005    1.4510   22.1771 C   0  0  0  0  0  0  0  0  0  0  0  0
   12.0492    0.5376   21.9047 C   0  0  0  0  0  0  0  0  0  0  0  0
   12.3572   -0.4577   23.0208 C   0  0  0  0  0  0  0  0  0  0  0  0
   11.4312   -0.9534   23.3396 H   0  0  0  0  0  0  0  0  0  0  0  0
   13.0499   -1.2235   22.6523 H   0  0  0  0  0  0  0  0  0  0  0  0
   12.8121    0.0151   23.8995 H   0  0  0  0  0  0  0  0  0  0  0  0
   11.8036   -0.0318   21.0023 H   0  0  0  0  0  0  0  0  0  0  0  0
   12.9329    1.1395   21.6662 H   0  0  0  0  0  0  0  0  0  0  0  0
    9.6153    1.4227   21.6826 C   0  0  0  0  0  0  0  0  0  0  0  0
    9.0353    0.4386   20.6978 C   0  0  0  0  0  0  0  0  0  0  0  0
    8.1602   -0.6259   21.2886 C   0  0  0  0  0  0  0  0  0  0  0  0
    8.4490   -1.3932   22.3160 N   0  0  0  0  0  0  0  0  0  0  0  0
    7.3332   -2.1627   22.4647 C   0  0  0  0  0  0  0  0  0  0  0  0
    7.2078   -3.1546   23.5609 C   0  0  0  0  0  0  0  0  0  0  0  0
    8.3136   -3.4846   24.3730 C   0  0  0  0  0  0  0  0  0  0  0  0
    8.1804   -4.4275   25.3949 C   0  0  0  0  0  0  0  0  0  0  0  0
    6.9437   -5.0408   25.6251 C   0  0  0  0  0  0  0  0  0  0  0  0
    5.8377   -4.7089   24.8363 C   0  0  0  0  0  0  0  0  0  0  0  0
    5.9644   -3.7698   23.8126 C   0  0  0  0  0  0  0  0  0  0  0  0
    5.1088   -3.4968   23.1982 H   0  0  0  0  0  0  0  0  0  0  0  0
    4.8730   -5.1758   25.0163 H   0  0  0  0  0  0  0  0  0  0  0  0
    6.8385   -5.7639   26.4287 H   0  0  0  0  0  0  0  0  0  0  0  0
    9.0389   -4.6805   26.0134 H   0  0  0  0  0  0  0  0  0  0  0  0
    9.2756   -3.0008   24.2092 H   0  0  0  0  0  0  0  0  0  0  0  0
    6.3853   -1.9225   21.5652 N   0  0  0  0  0  0  0  0  0  0  0  0
    6.9343   -0.9609   20.7874 N   0  0  0  0  0  0  0  0  0  0  0  0
    6.2240   -0.3106   19.7316 C   0  0  0  0  0  0  0  0  0  0  0  0
    5.1581    0.5499   20.0108 C   0  0  0  0  0  0  0  0  0  0  0  0
    4.6957    1.3834   18.9890 C   0  0  0  0  0  0  0  0  0  0  0  0
    5.2880    1.3010   17.7235 C   0  0  0  0  0  0  0  0  0  0  0  0
    6.2564    0.4193   17.4268 N   0  0  0  0  0  0  0  0  0  0  0  0
    6.6946   -0.3799   18.4060 C   0  0  0  0  0  0  0  0  0  0  0  0
    7.4939   -1.0759   18.1527 H   0  0  0  0  0  0  0  0  0  0  0  0
    4.9708    1.9581   16.9174 H   0  0  0  0  0  0  0  0  0  0  0  0
    3.9101    2.1089   19.1686 H   0  0  0  0  0  0  0  0  0  0  0  0
    4.7248    0.5817   21.0116 H   0  0  0  0  0  0  0  0  0  0  0  0
    9.8272   -0.0993   20.1634 H   0  0  0  0  0  0  0  0  0  0  0  0
    8.4721    0.9852   19.9367 H   0  0  0  0  0  0  0  0  0  0  0  0
    7.0888    2.6569   21.2831 H   0  0  0  0  0  0  0  0  0  0  0  0
    7.4255    3.9337   22.4517 H   0  0  0  0  0  0  0  0  0  0  0  0
    5.6230    2.3621   23.3040 H   0  0  0  0  0  0  0  0  0  0  0  0
    6.7817    1.0134   23.2222 H   0  0  0  0  0  0  0  0  0  0  0  0
    7.0533    2.3472   24.3522 H   0  0  0  0  0  0  0  0  0  0  0  0
  1  2  1  0
  2  3  1  0
  3  4  2  0
  4  5  1  0
  5  6  1  0
  6  7  1  0
  6  8  1  0
  6  9  1  0
  5 10  1  0
 10 11  1  0
 11 12  1  0
 12 13  1  0
 12 14  1  0
 12 15  1  0
 11 16  1  0
 11 17  1  0
 10 18  2  0
 18 19  1  0
 19 20  1  0
 20 21  2  0
 21 22  1  0
 22 23  1  0
 23 24  2  0
 24 25  1  0
 25 26  2  0
 26 27  1  0
 27 28  2  0
 28 29  1  0
 27 30  1  0
 26 31  1  0
 25 32  1  0
 24 33  1  0
 22 34  2  0
 34 35  1  0
 35 36  1  0
 36 37  2  0
 37 38  1  0
 38 39  2  0
 39 40  1  0
 40 41  2  0
 41 42  1  0
 39 43  1  0
 38 44  1  0
 37 45  1  0
 19 46  1  0
 19 47  1  0
  2 48  1  0
  2 49  1  0
  1 50  1  0
  1 51  1  0
  1 52  1  0
 18  3  1  0
 35 20  1  0
 41 36  1  0
 28 23  1  0
M  END
>  <cnnaffinity>  (1) 
-6.41488

>  <filename>  (1) 
CCc1nn(C)c(CC)c1Cc1nc(-c2ccccc2)nn1-c1cccnc1

$$$$
