
     RDKit          3D

 45 48  0  0  0  0  0  0  0  0999 V2000
    5.2992   -2.3146   25.7080 C   0  0  0  0  0  0  0  0  0  0  0  0
    5.3225   -0.8623   26.2033 C   0  0  0  0  0  0  0  0  0  0  0  0
    6.3995   -0.0131   25.6015 C   0  0  0  0  0  0  0  0  0  0  0  0
    7.6228    0.3938   26.0692 C   0  0  0  0  0  0  0  0  0  0  0  0
    8.2826    1.1470   25.1320 N   0  0  0  0  0  0  0  0  0  0  0  0
    7.4972    1.1963   24.0907 C   0  0  0  0  0  0  0  0  0  0  0  0
    7.8968    1.7980   22.7777 C   0  0  0  0  0  0  0  0  0  0  0  0
    8.8930    0.8983   22.1228 C   0  0  0  0  0  0  0  0  0  0  0  0
   10.2000    0.9600   22.2897 N   0  0  0  0  0  0  0  0  0  0  0  0
   10.6352   -0.2209   21.7853 C   0  0  0  0  0  0  0  0  0  0  0  0
   12.0548   -0.5893   21.6834 C   0  0  0  0  0  0  0  0  0  0  0  0
   12.4289   -1.7082   20.9266 C   0  0  0  0  0  0  0  0  0  0  0  0
   13.7226   -1.8488   20.4259 C   0  0  0  0  0  0  0  0  0  0  0  0
   14.5904   -0.8010   20.7303 C   0  0  0  0  0  0  0  0  0  0  0  0
   16.0225   -0.3606   19.6474 Cl  0  0  0  0  0  0  0  0  0  0  0  0
   14.3468    0.0923   21.6908 N   0  0  0  0  0  0  0  0  0  0  0  0
   13.0978    0.2052   22.1698 C   0  0  0  0  0  0  0  0  0  0  0  0
   12.9274    0.9795   22.9161 H   0  0  0  0  0  0  0  0  0  0  0  0
   14.0334   -2.7014   19.8312 H   0  0  0  0  0  0  0  0  0  0  0  0
   11.6152   -2.3796   20.7240 H   0  0  0  0  0  0  0  0  0  0  0  0
    9.6682   -0.9757   21.2757 N   0  0  0  0  0  0  0  0  0  0  0  0
    8.5502   -0.2432   21.4877 N   0  0  0  0  0  0  0  0  0  0  0  0
    7.2371   -0.7322   21.0583 C   0  0  0  0  0  0  0  0  0  0  0  0
    6.5623    0.0515   19.9443 C   0  0  0  0  0  0  0  0  0  0  0  0
    5.3265    0.6998   20.0927 C   0  0  0  0  0  0  0  0  0  0  0  0
    4.7691    1.3598   18.9925 C   0  0  0  0  0  0  0  0  0  0  0  0
    5.4658    1.3502   17.7809 C   0  0  0  0  0  0  0  0  0  0  0  0
    6.6425    0.7268   17.6142 N   0  0  0  0  0  0  0  0  0  0  0  0
    7.1665    0.1048   18.6764 C   0  0  0  0  0  0  0  0  0  0  0  0
    8.1221   -0.3918   18.5143 H   0  0  0  0  0  0  0  0  0  0  0  0
    5.0613    1.8521   16.9028 H   0  0  0  0  0  0  0  0  0  0  0  0
    3.8225    1.8864   19.0572 H   0  0  0  0  0  0  0  0  0  0  0  0
    4.7985    0.6976   21.0509 H   0  0  0  0  0  0  0  0  0  0  0  0
    7.4070   -1.7674   20.7493 H   0  0  0  0  0  0  0  0  0  0  0  0
    6.5871   -0.7576   21.9376 H   0  0  0  0  0  0  0  0  0  0  0  0
    8.3810    2.7549   22.9737 H   0  0  0  0  0  0  0  0  0  0  0  0
    7.0249    1.9481   22.1373 H   0  0  0  0  0  0  0  0  0  0  0  0
    6.3402    0.5153   24.3185 N   0  0  0  0  0  0  0  0  0  0  0  0
    5.5495    0.4660   23.6914 H   0  0  0  0  0  0  0  0  0  0  0  0
    8.0929    0.1438   27.0116 H   0  0  0  0  0  0  0  0  0  0  0  0
    4.3460   -0.3926   26.0218 H   0  0  0  0  0  0  0  0  0  0  0  0
    5.4571   -0.8603   27.2912 H   0  0  0  0  0  0  0  0  0  0  0  0
    5.1436   -2.3700   24.6257 H   0  0  0  0  0  0  0  0  0  0  0  0
    4.4850   -2.8685   26.1862 H   0  0  0  0  0  0  0  0  0  0  0  0
    6.2365   -2.8295   25.9409 H   0  0  0  0  0  0  0  0  0  0  0  0
  1  2  1  0
  2  3  1  0
  3  4  2  0
  4  5  1  0
  5  6  2  0
  6  7  1  0
  7  8  1  0
  8  9  2  0
  9 10  1  0
 10 11  1  0
 11 12  2  0
 12 13  1  0
 13 14  2  0
 14 15  1  0
 14 16  1  0
 16 17  2  0
 17 18  1  0
 13 19  1  0
 12 20  1  0
 10 21  2  0
 21 22  1  0
 22 23  1  0
 23 24  1  0
 24 25  2  0
 25 26  1  0
 26 27  2  0
 27 28  1  0
 28 29  2  0
 29 30  1  0
 27 31  1  0
 26 32  1  0
 25 33  1  0
 23 34  1  0
 23 35  1  0
  7 36  1  0
  7 37  1  0
  6 38  1  0
 38 39  1  0
  4 40  1  0
  2 41  1  0
  2 42  1  0
  1 43  1  0
  1 44  1  0
  1 45  1  0
 38  3  1  0
 22  8  1  0
 29 24  1  0
 17 11  1  0
M  END
>  <cnnaffinity>  (1) 
-6.72102

>  <filename>  (1) 
CCc1cnc(Cc2nc(-c3ccc(Cl)nc3)nn2Cc2cccnc2)[nH]1

$$$$
