
     RDKit          3D

 46 48  0  0  0  0  0  0  0  0999 V2000
   11.7865    2.0378   23.8216 C   0  0  0  0  0  0  0  0  0  0  0  0
   10.3605    1.5275   24.0520 C   0  0  0  0  0  0  0  0  0  0  0  0
    9.3581    2.3338   23.2364 C   0  0  0  0  0  0  0  0  0  0  0  0
    8.8927    3.5620   23.7512 C   0  0  0  0  0  0  0  0  0  0  0  0
    7.9524    4.3345   23.0585 C   0  0  0  0  0  0  0  0  0  0  0  0
    7.4397    3.8838   21.8419 C   0  0  0  0  0  0  0  0  0  0  0  0
    7.9364    2.6929   21.3053 C   0  0  0  0  0  0  0  0  0  0  0  0
    8.9403    1.9595   21.9438 C   0  0  0  0  0  0  0  0  0  0  0  0
    9.4775    0.7342   21.2119 C   0  0  0  0  0  0  0  0  0  0  0  0
    8.6234   -0.4655   21.4731 C   0  0  0  0  0  0  0  0  0  0  0  0
    8.8577   -1.3557   22.4171 N   0  0  0  0  0  0  0  0  0  0  0  0
    7.7050   -2.0797   22.4638 C   0  0  0  0  0  0  0  0  0  0  0  0
    7.4974   -3.1175   23.5580 C   0  0  0  0  0  0  0  0  0  0  0  0
    6.7095   -2.5510   24.7449 C   0  0  0  0  0  0  0  0  0  0  0  0
    7.2498   -1.7159   25.2068 H   0  0  0  0  0  0  0  0  0  0  0  0
    5.7264   -2.1999   24.4126 H   0  0  0  0  0  0  0  0  0  0  0  0
    6.5742   -3.3381   25.4929 H   0  0  0  0  0  0  0  0  0  0  0  0
    6.8124   -4.2826   23.1295 O   0  0  0  0  0  0  0  0  0  0  0  0
    7.5768   -5.1610   22.3257 C   0  0  0  0  0  0  0  0  0  0  0  0
    8.0760   -4.6364   21.4982 H   0  0  0  0  0  0  0  0  0  0  0  0
    6.8785   -5.8905   21.9075 H   0  0  0  0  0  0  0  0  0  0  0  0
    8.3400   -5.6895   22.9181 H   0  0  0  0  0  0  0  0  0  0  0  0
    8.5135   -3.3708   23.9016 H   0  0  0  0  0  0  0  0  0  0  0  0
    6.7815   -1.7020   21.6030 N   0  0  0  0  0  0  0  0  0  0  0  0
    7.3866   -0.6836   20.9319 N   0  0  0  0  0  0  0  0  0  0  0  0
    6.6821   -0.0272   19.8747 C   0  0  0  0  0  0  0  0  0  0  0  0
    5.4540    0.5901   20.1356 C   0  0  0  0  0  0  0  0  0  0  0  0
    4.8286    1.2797   19.0937 C   0  0  0  0  0  0  0  0  0  0  0  0
    5.4213    1.2911   17.8255 C   0  0  0  0  0  0  0  0  0  0  0  0
    6.5738    0.6578   17.5566 N   0  0  0  0  0  0  0  0  0  0  0  0
    7.1820    0.0146   18.5620 C   0  0  0  0  0  0  0  0  0  0  0  0
    8.1075   -0.4996   18.3089 H   0  0  0  0  0  0  0  0  0  0  0  0
    4.9452    1.8090   16.9939 H   0  0  0  0  0  0  0  0  0  0  0  0
    3.8927    1.8019   19.2536 H   0  0  0  0  0  0  0  0  0  0  0  0
    5.0255    0.5390   21.1379 H   0  0  0  0  0  0  0  0  0  0  0  0
    9.5194    0.9096   20.1323 H   0  0  0  0  0  0  0  0  0  0  0  0
   10.4930    0.4950   21.5428 H   0  0  0  0  0  0  0  0  0  0  0  0
    7.5658    2.3117   20.3603 H   0  0  0  0  0  0  0  0  0  0  0  0
    6.6718    4.4564   21.3168 H   0  0  0  0  0  0  0  0  0  0  0  0
    7.5963    5.2738   23.4721 H   0  0  0  0  0  0  0  0  0  0  0  0
    9.2617    3.9105   24.7116 H   0  0  0  0  0  0  0  0  0  0  0  0
   10.1139    1.6119   25.1189 H   0  0  0  0  0  0  0  0  0  0  0  0
   10.2900    0.4540   23.8242 H   0  0  0  0  0  0  0  0  0  0  0  0
   12.0648    1.9087   22.7684 H   0  0  0  0  0  0  0  0  0  0  0  0
   12.5170    1.5117   24.4435 H   0  0  0  0  0  0  0  0  0  0  0  0
   11.8547    3.1083   24.0523 H   0  0  0  0  0  0  0  0  0  0  0  0
  1  2  1  0
  2  3  1  0
  3  4  2  0
  4  5  1  0
  5  6  2  0
  6  7  1  0
  7  8  2  0
  8  9  1  0
  9 10  1  0
 10 11  2  0
 11 12  1  0
 12 13  1  0
 13 14  1  0
 14 15  1  0
 14 16  1  0
 14 17  1  0
 13 18  1  0
 18 19  1  0
 19 20  1  0
 19 21  1  0
 19 22  1  0
 13 23  1  0
 12 24  2  0
 24 25  1  0
 25 26  1  0
 26 27  2  0
 27 28  1  0
 28 29  2  0
 29 30  1  0
 30 31  2  0
 31 32  1  0
 29 33  1  0
 28 34  1  0
 27 35  1  0
  9 36  1  0
  9 37  1  0
  7 38  1  0
  6 39  1  0
  5 40  1  0
  4 41  1  0
  2 42  1  0
  2 43  1  0
  1 44  1  0
  1 45  1  0
  1 46  1  0
  8  3  1  0
 25 10  1  0
 31 26  1  0
M  END
>  <cnnaffinity>  (1) 
-5.97141

>  <filename>  (1) 
CCc1ccccc1Cc1nc(C(C)OC)nn1-c1cccnc1

$$$$
