
     RDKit          3D

 45 47  0  0  0  0  0  0  0  0999 V2000
   11.7889    2.0352   23.8147 C   0  0  0  0  0  0  0  0  0  0  0  0
   10.3627    1.5275   24.0477 C   0  0  0  0  0  0  0  0  0  0  0  0
    9.3627    2.3355   23.2327 C   0  0  0  0  0  0  0  0  0  0  0  0
    8.8972    3.5636   23.7477 C   0  0  0  0  0  0  0  0  0  0  0  0
    7.9590    4.3377   23.0565 C   0  0  0  0  0  0  0  0  0  0  0  0
    7.4465    3.8866   21.8403 C   0  0  0  0  0  0  0  0  0  0  0  0
    7.9430    2.6967   21.3045 C   0  0  0  0  0  0  0  0  0  0  0  0
    8.9463    1.9628   21.9391 C   0  0  0  0  0  0  0  0  0  0  0  0
    9.4808    0.7360   21.2104 C   0  0  0  0  0  0  0  0  0  0  0  0
    8.6235   -0.4589   21.4813 C   0  0  0  0  0  0  0  0  0  0  0  0
    8.8573   -1.3481   22.4249 N   0  0  0  0  0  0  0  0  0  0  0  0
    7.7074   -2.0717   22.4716 C   0  0  0  0  0  0  0  0  0  0  0  0
    7.4885   -3.1570   23.4952 C   0  0  0  0  0  0  0  0  0  0  0  0
    6.4748   -2.7223   24.5782 C   0  0  0  0  0  0  0  0  0  0  0  0
    5.4832   -2.5439   24.1424 H   0  0  0  0  0  0  0  0  0  0  0  0
    6.8009   -1.8027   25.0791 H   0  0  0  0  0  0  0  0  0  0  0  0
    6.3825   -3.5089   25.3368 H   0  0  0  0  0  0  0  0  0  0  0  0
    7.0740   -4.4909   22.8482 C   0  0  0  0  0  0  0  0  0  0  0  0
    6.9762   -5.2630   23.6212 H   0  0  0  0  0  0  0  0  0  0  0  0
    7.8252   -4.8246   22.1232 H   0  0  0  0  0  0  0  0  0  0  0  0
    6.1120   -4.3895   22.3290 H   0  0  0  0  0  0  0  0  0  0  0  0
    8.4638   -3.2870   23.9774 H   0  0  0  0  0  0  0  0  0  0  0  0
    6.7887   -1.7010   21.6004 N   0  0  0  0  0  0  0  0  0  0  0  0
    7.3900   -0.6755   20.9378 N   0  0  0  0  0  0  0  0  0  0  0  0
    6.6827   -0.0245   19.8825 C   0  0  0  0  0  0  0  0  0  0  0  0
    5.4539    0.5925   20.1429 C   0  0  0  0  0  0  0  0  0  0  0  0
    4.8283    1.2782   19.0989 C   0  0  0  0  0  0  0  0  0  0  0  0
    5.4205    1.2854   17.8305 C   0  0  0  0  0  0  0  0  0  0  0  0
    6.5710    0.6482   17.5617 N   0  0  0  0  0  0  0  0  0  0  0  0
    7.1796    0.0090   18.5689 C   0  0  0  0  0  0  0  0  0  0  0  0
    8.1038   -0.5095   18.3189 H   0  0  0  0  0  0  0  0  0  0  0  0
    4.9468    1.8055   16.9990 H   0  0  0  0  0  0  0  0  0  0  0  0
    3.8933    1.8018   19.2581 H   0  0  0  0  0  0  0  0  0  0  0  0
    5.0251    0.5444   21.1452 H   0  0  0  0  0  0  0  0  0  0  0  0
    9.5165    0.9083   20.1302 H   0  0  0  0  0  0  0  0  0  0  0  0
   10.4982    0.4975   21.5350 H   0  0  0  0  0  0  0  0  0  0  0  0
    7.5680    2.3141   20.3593 H   0  0  0  0  0  0  0  0  0  0  0  0
    6.6792    4.4597   21.3167 H   0  0  0  0  0  0  0  0  0  0  0  0
    7.6069    5.2796   23.4691 H   0  0  0  0  0  0  0  0  0  0  0  0
    9.2673    3.9098   24.7075 H   0  0  0  0  0  0  0  0  0  0  0  0
   10.1177    1.6143   25.1149 H   0  0  0  0  0  0  0  0  0  0  0  0
   10.2894    0.4540   23.8208 H   0  0  0  0  0  0  0  0  0  0  0  0
   12.5196    1.5081   24.4354 H   0  0  0  0  0  0  0  0  0  0  0  0
   12.0650    1.9046   22.7613 H   0  0  0  0  0  0  0  0  0  0  0  0
   11.8596    3.1058   24.0442 H   0  0  0  0  0  0  0  0  0  0  0  0
  1  2  1  0
  2  3  1  0
  3  4  2  0
  4  5  1  0
  5  6  2  0
  6  7  1  0
  7  8  2  0
  8  9  1  0
  9 10  1  0
 10 11  2  0
 11 12  1  0
 12 13  1  0
 13 14  1  0
 14 15  1  0
 14 16  1  0
 14 17  1  0
 13 18  1  0
 18 19  1  0
 18 20  1  0
 18 21  1  0
 13 22  1  0
 12 23  2  0
 23 24  1  0
 24 25  1  0
 25 26  2  0
 26 27  1  0
 27 28  2  0
 28 29  1  0
 29 30  2  0
 30 31  1  0
 28 32  1  0
 27 33  1  0
 26 34  1  0
  9 35  1  0
  9 36  1  0
  7 37  1  0
  6 38  1  0
  5 39  1  0
  4 40  1  0
  2 41  1  0
  2 42  1  0
  1 43  1  0
  1 44  1  0
  1 45  1  0
  8  3  1  0
 24 10  1  0
 30 25  1  0
M  END
>  <cnnaffinity>  (1) 
-5.97419

>  <filename>  (1) 
CCc1ccccc1Cc1nc(C(C)C)nn1-c1cccnc1

$$$$
