
     RDKit          3D

 35 37  0  0  0  0  0  0  0  0999 V2000
    7.7288   -4.4226   23.1346 C   0  0  0  0  0  0  0  0  0  0  0  0
    8.6616   -3.5977   22.2242 C   0  0  0  0  0  0  0  0  0  0  0  0
    8.2306   -2.1968   21.9266 C   0  0  0  0  0  0  0  0  0  0  0  0
    7.6681   -1.9030   20.7754 N   0  0  0  0  0  0  0  0  0  0  0  0
    7.3811   -0.5871   20.8960 N   0  0  0  0  0  0  0  0  0  0  0  0
    6.6470    0.0591   19.8782 C   0  0  0  0  0  0  0  0  0  0  0  0
    5.4224    0.6874   20.1298 C   0  0  0  0  0  0  0  0  0  0  0  0
    4.7902    1.3212   19.0534 C   0  0  0  0  0  0  0  0  0  0  0  0
    5.4006    1.2948   17.7961 C   0  0  0  0  0  0  0  0  0  0  0  0
    6.5446    0.6333   17.5443 N   0  0  0  0  0  0  0  0  0  0  0  0
    7.1390    0.0104   18.5643 C   0  0  0  0  0  0  0  0  0  0  0  0
    8.0486   -0.5512   18.3560 H   0  0  0  0  0  0  0  0  0  0  0  0
    4.9650    1.8332   16.9584 H   0  0  0  0  0  0  0  0  0  0  0  0
    3.8557    1.8468   19.1920 H   0  0  0  0  0  0  0  0  0  0  0  0
    4.9751    0.6535   21.1267 H   0  0  0  0  0  0  0  0  0  0  0  0
    7.8353   -0.1394   22.1034 C   0  0  0  0  0  0  0  0  0  0  0  0
    7.7723    1.3049   22.5310 C   0  0  0  0  0  0  0  0  0  0  0  0
    7.8610    1.4923   24.0304 C   0  0  0  0  0  0  0  0  0  0  0  0
    9.1098    1.7331   24.6040 C   0  0  0  0  0  0  0  0  0  0  0  0
    9.2533    1.7478   25.9899 C   0  0  0  0  0  0  0  0  0  0  0  0
    8.1224    1.5449   26.7773 C   0  0  0  0  0  0  0  0  0  0  0  0
    6.9053    1.3350   26.2635 N   0  0  0  0  0  0  0  0  0  0  0  0
    6.7962    1.3087   24.9427 C   0  0  0  0  0  0  0  0  0  0  0  0
    5.1958    0.9805   24.3369 Cl  0  0  0  0  0  0  0  0  0  0  0  0
    8.1862    1.5503   27.8653 H   0  0  0  0  0  0  0  0  0  0  0  0
   10.2285    1.8833   26.4269 H   0  0  0  0  0  0  0  0  0  0  0  0
    9.9805    1.8809   23.9636 H   0  0  0  0  0  0  0  0  0  0  0  0
    8.6000    1.8388   22.0492 H   0  0  0  0  0  0  0  0  0  0  0  0
    6.8666    1.7602   22.1307 H   0  0  0  0  0  0  0  0  0  0  0  0
    8.3840   -1.1408   22.7668 N   0  0  0  0  0  0  0  0  0  0  0  0
    8.7167   -4.0966   21.2534 H   0  0  0  0  0  0  0  0  0  0  0  0
    9.6680   -3.5394   22.6582 H   0  0  0  0  0  0  0  0  0  0  0  0
    8.2002   -5.3929   23.3353 H   0  0  0  0  0  0  0  0  0  0  0  0
    7.5395   -3.9226   24.0934 H   0  0  0  0  0  0  0  0  0  0  0  0
    6.7638   -4.6192   22.6495 H   0  0  0  0  0  0  0  0  0  0  0  0
  1  2  1  0
  2  3  1  0
  3  4  2  0
  4  5  1  0
  5  6  1  0
  6  7  2  0
  7  8  1  0
  8  9  2  0
  9 10  1  0
 10 11  2  0
 11 12  1  0
  9 13  1  0
  8 14  1  0
  7 15  1  0
  5 16  1  0
 16 17  1  0
 17 18  1  0
 18 19  2  0
 19 20  1  0
 20 21  2  0
 21 22  1  0
 22 23  2  0
 23 24  1  0
 21 25  1  0
 20 26  1  0
 19 27  1  0
 17 28  1  0
 17 29  1  0
 16 30  2  0
  2 31  1  0
  2 32  1  0
  1 33  1  0
  1 34  1  0
  1 35  1  0
 30  3  1  0
 11  6  1  0
 23 18  1  0
M  END
>  <cnnaffinity>  (1) 
-5.12355

>  <filename>  (1) 
CCc1nc(Cc2cccnc2Cl)n(-c2cccnc2)n1

$$$$
