
     RDKit          3D

 36 38  0  0  0  0  0  0  0  0999 V2000
    7.6518   -4.5198   22.9571 C   0  0  0  0  0  0  0  0  0  0  0  0
    8.5405   -3.5773   22.1222 C   0  0  0  0  0  0  0  0  0  0  0  0
    8.0043   -2.1950   21.9305 C   0  0  0  0  0  0  0  0  0  0  0  0
    7.5865   -1.7843   20.7552 N   0  0  0  0  0  0  0  0  0  0  0  0
    7.1541   -0.5200   20.9929 N   0  0  0  0  0  0  0  0  0  0  0  0
    6.5341    0.1968   19.9258 C   0  0  0  0  0  0  0  0  0  0  0  0
    5.3317    0.9046   20.0702 C   0  0  0  0  0  0  0  0  0  0  0  0
    4.7616    1.4712   18.9212 C   0  0  0  0  0  0  0  0  0  0  0  0
    5.4236    1.3467   17.6966 C   0  0  0  0  0  0  0  0  0  0  0  0
    6.5878    0.6864   17.5567 N   0  0  0  0  0  0  0  0  0  0  0  0
    7.1092    0.1111   18.6430 C   0  0  0  0  0  0  0  0  0  0  0  0
    8.0178   -0.4733   18.5063 H   0  0  0  0  0  0  0  0  0  0  0  0
    5.0173    1.7865   16.7876 H   0  0  0  0  0  0  0  0  0  0  0  0
    3.8253    2.0217   18.9660 H   0  0  0  0  0  0  0  0  0  0  0  0
    4.8317    0.9848   21.0374 H   0  0  0  0  0  0  0  0  0  0  0  0
    7.4014   -0.2162   22.3058 C   0  0  0  0  0  0  0  0  0  0  0  0
    7.2017    1.1028   22.9941 C   0  0  0  0  0  0  0  0  0  0  0  0
    8.5013    1.6763   23.5519 C   0  0  0  0  0  0  0  0  0  0  0  0
    9.4972    2.2301   22.7288 C   0  0  0  0  0  0  0  0  0  0  0  0
    9.1472    2.4603   21.0436 Cl  0  0  0  0  0  0  0  0  0  0  0  0
   10.7665    2.5861   23.2033 C   0  0  0  0  0  0  0  0  0  0  0  0
   11.0740    2.3416   24.5421 C   0  0  0  0  0  0  0  0  0  0  0  0
   10.0978    1.8476   25.4058 C   0  0  0  0  0  0  0  0  0  0  0  0
    8.8286    1.5814   24.9112 C   0  0  0  0  0  0  0  0  0  0  0  0
    7.8791    1.2181   25.7937 F   0  0  0  0  0  0  0  0  0  0  0  0
   10.2828    1.6497   26.4506 H   0  0  0  0  0  0  0  0  0  0  0  0
   12.0709    2.5430   24.9230 H   0  0  0  0  0  0  0  0  0  0  0  0
   11.4906    3.0417   22.5327 H   0  0  0  0  0  0  0  0  0  0  0  0
    6.5097    0.9329   23.8239 H   0  0  0  0  0  0  0  0  0  0  0  0
    6.7536    1.8148   22.2988 H   0  0  0  0  0  0  0  0  0  0  0  0
    7.9151   -1.2675   22.9185 N   0  0  0  0  0  0  0  0  0  0  0  0
    8.7078   -3.9846   21.1210 H   0  0  0  0  0  0  0  0  0  0  0  0
    9.5232   -3.4807   22.5967 H   0  0  0  0  0  0  0  0  0  0  0  0
    8.1690   -5.4730   23.1157 H   0  0  0  0  0  0  0  0  0  0  0  0
    7.4315   -4.0859   23.9396 H   0  0  0  0  0  0  0  0  0  0  0  0
    6.6928   -4.7378   22.4722 H   0  0  0  0  0  0  0  0  0  0  0  0
  1  2  1  0
  2  3  1  0
  3  4  2  0
  4  5  1  0
  5  6  1  0
  6  7  2  0
  7  8  1  0
  8  9  2  0
  9 10  1  0
 10 11  2  0
 11 12  1  0
  9 13  1  0
  8 14  1  0
  7 15  1  0
  5 16  1  0
 16 17  1  0
 17 18  1  0
 18 19  2  0
 19 20  1  0
 19 21  1  0
 21 22  2  0
 22 23  1  0
 23 24  2  0
 24 25  1  0
 23 26  1  0
 22 27  1  0
 21 28  1  0
 17 29  1  0
 17 30  1  0
 16 31  2  0
  2 32  1  0
  2 33  1  0
  1 34  1  0
  1 35  1  0
  1 36  1  0
 31  3  1  0
 11  6  1  0
 24 18  1  0
M  END
>  <cnnaffinity>  (1) 
-5.62306

>  <filename>  (1) 
CCc1nc(Cc2c(F)cccc2Cl)n(-c2cccnc2)n1

$$$$
