
     RDKit          3D

 45 48  0  0  0  0  0  0  0  0999 V2000
    8.9677   -1.6032   26.8826 C   0  0  0  0  0  0  0  0  0  0  0  0
    8.5210   -0.1495   27.1231 C   0  0  0  0  0  0  0  0  0  0  0  0
    7.5626    0.3575   26.0905 C   0  0  0  0  0  0  0  0  0  0  0  0
    7.9726    1.0890   25.1020 N   0  0  0  0  0  0  0  0  0  0  0  0
    7.0143    1.2533   24.1403 C   0  0  0  0  0  0  0  0  0  0  0  0
    7.4412    1.8916   22.8504 C   0  0  0  0  0  0  0  0  0  0  0  0
    8.4403    1.0014   22.1956 C   0  0  0  0  0  0  0  0  0  0  0  0
    9.7528    1.1109   22.2983 N   0  0  0  0  0  0  0  0  0  0  0  0
   10.1943   -0.0897   21.8622 C   0  0  0  0  0  0  0  0  0  0  0  0
   11.6027   -0.5050   21.7845 C   0  0  0  0  0  0  0  0  0  0  0  0
   12.6819    0.2598   22.2685 C   0  0  0  0  0  0  0  0  0  0  0  0
   13.9929   -0.1483   21.9949 C   0  0  0  0  0  0  0  0  0  0  0  0
   14.2161   -1.2582   21.1653 C   0  0  0  0  0  0  0  0  0  0  0  0
   13.1504   -2.0111   20.6952 C   0  0  0  0  0  0  0  0  0  0  0  0
   11.8641   -1.6910   21.0884 C   0  0  0  0  0  0  0  0  0  0  0  0
   11.0169   -2.2908   20.7828 H   0  0  0  0  0  0  0  0  0  0  0  0
   13.3297   -2.8082   19.9791 H   0  0  0  0  0  0  0  0  0  0  0  0
   15.1773   -1.5625   20.7967 H   0  0  0  0  0  0  0  0  0  0  0  0
   14.8258    0.4527   22.3507 H   0  0  0  0  0  0  0  0  0  0  0  0
   12.4977    1.1954   22.7891 H   0  0  0  0  0  0  0  0  0  0  0  0
    9.2307   -0.9005   21.4423 N   0  0  0  0  0  0  0  0  0  0  0  0
    8.1099   -0.1936   21.6569 N   0  0  0  0  0  0  0  0  0  0  0  0
    6.8472   -0.7225   21.1472 C   0  0  0  0  0  0  0  0  0  0  0  0
    6.3146    0.0520   19.9653 C   0  0  0  0  0  0  0  0  0  0  0  0
    5.1072    0.7516   20.0065 C   0  0  0  0  0  0  0  0  0  0  0  0
    4.6869    1.4426   18.8688 C   0  0  0  0  0  0  0  0  0  0  0  0
    5.4974    1.4109   17.7306 C   0  0  0  0  0  0  0  0  0  0  0  0
    6.6675    0.7557   17.6730 N   0  0  0  0  0  0  0  0  0  0  0  0
    7.0595    0.1070   18.7747 C   0  0  0  0  0  0  0  0  0  0  0  0
    8.0148   -0.4140   18.7106 H   0  0  0  0  0  0  0  0  0  0  0  0
    5.1983    1.9340   16.8246 H   0  0  0  0  0  0  0  0  0  0  0  0
    3.7597    2.0036   18.8531 H   0  0  0  0  0  0  0  0  0  0  0  0
    4.5095    0.7635   20.9199 H   0  0  0  0  0  0  0  0  0  0  0  0
    7.0578   -1.7627   20.8713 H   0  0  0  0  0  0  0  0  0  0  0  0
    6.1300   -0.7346   21.9712 H   0  0  0  0  0  0  0  0  0  0  0  0
    7.9330    2.8397   23.0588 H   0  0  0  0  0  0  0  0  0  0  0  0
    6.5880    2.0671   22.1909 H   0  0  0  0  0  0  0  0  0  0  0  0
    5.8114    0.7013   24.4326 C   0  0  0  0  0  0  0  0  0  0  0  0
    5.8838   -0.1033   25.9612 S   0  0  0  0  0  0  0  0  0  0  0  0
    4.9154    0.7035   23.8340 H   0  0  0  0  0  0  0  0  0  0  0  0
    8.1015   -0.0322   28.1263 H   0  0  0  0  0  0  0  0  0  0  0  0
    9.3913    0.5080   27.0433 H   0  0  0  0  0  0  0  0  0  0  0  0
    9.7837   -1.8570   27.5660 H   0  0  0  0  0  0  0  0  0  0  0  0
    8.1533   -2.3179   27.0396 H   0  0  0  0  0  0  0  0  0  0  0  0
    9.3332   -1.7304   25.8568 H   0  0  0  0  0  0  0  0  0  0  0  0
  1  2  1  0
  2  3  1  0
  3  4  2  0
  4  5  1  0
  5  6  1  0
  6  7  1  0
  7  8  2  0
  8  9  1  0
  9 10  1  0
 10 11  2  0
 11 12  1  0
 12 13  2  0
 13 14  1  0
 14 15  2  0
 15 16  1  0
 14 17  1  0
 13 18  1  0
 12 19  1  0
 11 20  1  0
  9 21  2  0
 21 22  1  0
 22 23  1  0
 23 24  1  0
 24 25  2  0
 25 26  1  0
 26 27  2  0
 27 28  1  0
 28 29  2  0
 29 30  1  0
 27 31  1  0
 26 32  1  0
 25 33  1  0
 23 34  1  0
 23 35  1  0
  6 36  1  0
  6 37  1  0
  5 38  2  0
 38 39  1  0
 38 40  1  0
  2 41  1  0
  2 42  1  0
  1 43  1  0
  1 44  1  0
  1 45  1  0
 39  3  1  0
 22  7  1  0
 29 24  1  0
 15 10  1  0
M  END
>  <cnnaffinity>  (1) 
-6.68773

>  <filename>  (1) 
CCc1nc(Cc2nc(-c3ccccc3)nn2Cc2cccnc2)cs1

$$$$
