
     RDKit          3D

 46 49  0  0  0  0  0  0  0  0999 V2000
    8.7594   -1.3050   26.7773 C   0  0  0  0  0  0  0  0  0  0  0  0
    7.8102   -0.2175   27.3025 C   0  0  0  0  0  0  0  0  0  0  0  0
    6.9075    0.3273   26.2397 C   0  0  0  0  0  0  0  0  0  0  0  0
    5.5962    0.1114   25.8927 C   0  0  0  0  0  0  0  0  0  0  0  0
    5.3113    0.6692   24.6670 N   0  0  0  0  0  0  0  0  0  0  0  0
    6.4256    1.2254   24.2756 C   0  0  0  0  0  0  0  0  0  0  0  0
    6.7148    1.7798   22.9212 C   0  0  0  0  0  0  0  0  0  0  0  0
    7.8033    0.9523   22.3333 C   0  0  0  0  0  0  0  0  0  0  0  0
    9.0698    1.0739   22.6653 N   0  0  0  0  0  0  0  0  0  0  0  0
    9.6614    0.0153   22.0368 C   0  0  0  0  0  0  0  0  0  0  0  0
   11.1180   -0.2401   22.1171 C   0  0  0  0  0  0  0  0  0  0  0  0
   11.9385    0.6536   22.8319 C   0  0  0  0  0  0  0  0  0  0  0  0
   13.2943    0.3751   22.9376 C   0  0  0  0  0  0  0  0  0  0  0  0
   14.0753    1.2083   23.6385 F   0  0  0  0  0  0  0  0  0  0  0  0
   13.8696   -0.7448   22.3411 C   0  0  0  0  0  0  0  0  0  0  0  0
   13.0541   -1.6190   21.6183 C   0  0  0  0  0  0  0  0  0  0  0  0
   11.6800   -1.3865   21.5096 C   0  0  0  0  0  0  0  0  0  0  0  0
   11.0271   -2.0720   20.9740 H   0  0  0  0  0  0  0  0  0  0  0  0
   13.5064   -2.4886   21.1470 H   0  0  0  0  0  0  0  0  0  0  0  0
   14.9285   -0.9193   22.4748 H   0  0  0  0  0  0  0  0  0  0  0  0
   11.5294    1.5430   23.3096 H   0  0  0  0  0  0  0  0  0  0  0  0
    8.8111   -0.7549   21.3731 N   0  0  0  0  0  0  0  0  0  0  0  0
    7.6166   -0.1592   21.5961 N   0  0  0  0  0  0  0  0  0  0  0  0
    6.3767   -0.6777   21.0287 C   0  0  0  0  0  0  0  0  0  0  0  0
    5.9618    0.0540   19.7650 C   0  0  0  0  0  0  0  0  0  0  0  0
    4.7738    0.7852   19.6364 C   0  0  0  0  0  0  0  0  0  0  0  0
    4.5586    1.5175   18.4639 C   0  0  0  0  0  0  0  0  0  0  0  0
    5.5353    1.4984   17.4661 C   0  0  0  0  0  0  0  0  0  0  0  0
    6.6598    0.7707   17.5534 N   0  0  0  0  0  0  0  0  0  0  0  0
    6.8552    0.0751   18.6784 C   0  0  0  0  0  0  0  0  0  0  0  0
    7.7857   -0.4930   18.7353 H   0  0  0  0  0  0  0  0  0  0  0  0
    5.4217    2.1060   16.5675 H   0  0  0  0  0  0  0  0  0  0  0  0
    3.6672    2.1185   18.3220 H   0  0  0  0  0  0  0  0  0  0  0  0
    4.0311    0.8034   20.4387 H   0  0  0  0  0  0  0  0  0  0  0  0
    5.6068   -0.5872   21.7990 H   0  0  0  0  0  0  0  0  0  0  0  0
    6.5411   -1.7467   20.8538 H   0  0  0  0  0  0  0  0  0  0  0  0
    7.0818    2.8032   23.0010 H   0  0  0  0  0  0  0  0  0  0  0  0
    5.8024    1.7686   22.3211 H   0  0  0  0  0  0  0  0  0  0  0  0
    7.4051    1.1001   25.2063 N   0  0  0  0  0  0  0  0  0  0  0  0
    8.3737    1.3189   25.0095 H   0  0  0  0  0  0  0  0  0  0  0  0
    4.8263   -0.4236   26.4357 H   0  0  0  0  0  0  0  0  0  0  0  0
    7.1981   -0.6202   28.1152 H   0  0  0  0  0  0  0  0  0  0  0  0
    8.3991    0.6001   27.7381 H   0  0  0  0  0  0  0  0  0  0  0  0
    9.3810   -0.9264   25.9572 H   0  0  0  0  0  0  0  0  0  0  0  0
    8.2005   -2.1676   26.4017 H   0  0  0  0  0  0  0  0  0  0  0  0
    9.4338   -1.6483   27.5665 H   0  0  0  0  0  0  0  0  0  0  0  0
  1  2  1  0
  2  3  1  0
  3  4  2  0
  4  5  1  0
  5  6  2  0
  6  7  1  0
  7  8  1  0
  8  9  2  0
  9 10  1  0
 10 11  1  0
 11 12  2  0
 12 13  1  0
 13 14  1  0
 13 15  2  0
 15 16  1  0
 16 17  2  0
 17 18  1  0
 16 19  1  0
 15 20  1  0
 12 21  1  0
 10 22  2  0
 22 23  1  0
 23 24  1  0
 24 25  1  0
 25 26  2  0
 26 27  1  0
 27 28  2  0
 28 29  1  0
 29 30  2  0
 30 31  1  0
 28 32  1  0
 27 33  1  0
 26 34  1  0
 24 35  1  0
 24 36  1  0
  7 37  1  0
  7 38  1  0
  6 39  1  0
 39 40  1  0
  4 41  1  0
  2 42  1  0
  2 43  1  0
  1 44  1  0
  1 45  1  0
  1 46  1  0
 39  3  1  0
 23  8  1  0
 30 25  1  0
 17 11  1  0
M  END
>  <cnnaffinity>  (1) 
-6.33445

>  <filename>  (1) 
CCc1cnc(Cc2nc(-c3cccc(F)c3)nn2Cc2cccnc2)[nH]1

$$$$
