
     RDKit          3D

 53 57  0  0  0  0  0  0  0  0999 V2000
    5.2417   -2.9170   18.8874 C   0  0  0  0  0  0  0  0  0  0  0  0
    6.0955   -3.8971   19.6977 C   0  0  0  0  0  0  0  0  0  0  0  0
    5.6434   -4.4723   20.9895 C   0  0  0  0  0  0  0  0  0  0  0  0
    5.4432   -5.7623   21.1900 N   0  0  0  0  0  0  0  0  0  0  0  0
    5.2115   -5.8701   22.5109 N   0  0  0  0  0  0  0  0  0  0  0  0
    5.0713   -7.1815   23.1065 C   0  0  0  0  0  0  0  0  0  0  0  0
    5.7424   -7.8715   22.5909 H   0  0  0  0  0  0  0  0  0  0  0  0
    4.0391   -7.5369   23.0348 H   0  0  0  0  0  0  0  0  0  0  0  0
    5.3628   -7.1320   24.1567 H   0  0  0  0  0  0  0  0  0  0  0  0
    5.2228   -4.6640   23.1446 C   0  0  0  0  0  0  0  0  0  0  0  0
    4.8705   -4.4844   24.5921 C   0  0  0  0  0  0  0  0  0  0  0  0
    6.0820   -4.2358   25.4954 C   0  0  0  0  0  0  0  0  0  0  0  0
    5.7533   -4.0127   26.5151 H   0  0  0  0  0  0  0  0  0  0  0  0
    6.6833   -3.3949   25.1280 H   0  0  0  0  0  0  0  0  0  0  0  0
    6.7318   -5.1176   25.5312 H   0  0  0  0  0  0  0  0  0  0  0  0
    4.1774   -3.6386   24.6675 H   0  0  0  0  0  0  0  0  0  0  0  0
    4.3043   -5.3498   24.9630 H   0  0  0  0  0  0  0  0  0  0  0  0
    5.5883   -3.7392   22.1876 C   0  0  0  0  0  0  0  0  0  0  0  0
    5.9216   -2.2702   22.2808 C   0  0  0  0  0  0  0  0  0  0  0  0
    7.2846   -1.8207   21.8694 C   0  0  0  0  0  0  0  0  0  0  0  0
    8.3683   -2.1904   22.5120 N   0  0  0  0  0  0  0  0  0  0  0  0
    9.3387   -1.3935   21.9851 C   0  0  0  0  0  0  0  0  0  0  0  0
   10.6557   -1.4382   22.6642 C   0  0  0  0  0  0  0  0  0  0  0  0
   10.5845   -1.0838   24.1160 C   0  0  0  0  0  0  0  0  0  0  0  0
   11.5013   -0.2521   23.1992 C   0  0  0  0  0  0  0  0  0  0  0  0
   12.4741    0.7774   23.7793 C   0  0  0  0  0  0  0  0  0  0  0  0
   12.6215    0.3154   22.3575 C   0  0  0  0  0  0  0  0  0  0  0  0
   13.4372   -0.3553   22.0774 H   0  0  0  0  0  0  0  0  0  0  0  0
   12.3238    1.0170   21.5777 H   0  0  0  0  0  0  0  0  0  0  0  0
   12.1027    1.7874   23.9509 H   0  0  0  0  0  0  0  0  0  0  0  0
   13.1772    0.4060   24.5290 H   0  0  0  0  0  0  0  0  0  0  0  0
   10.9547   -1.7670   24.8711 H   0  0  0  0  0  0  0  0  0  0  0  0
    9.6791   -0.5659   24.4382 H   0  0  0  0  0  0  0  0  0  0  0  0
   11.2335   -2.3188   22.3821 H   0  0  0  0  0  0  0  0  0  0  0  0
    8.9538   -0.6174   21.0004 N   0  0  0  0  0  0  0  0  0  0  0  0
    7.6101   -0.8522   20.9442 N   0  0  0  0  0  0  0  0  0  0  0  0
    6.8503   -0.1496   19.9622 C   0  0  0  0  0  0  0  0  0  0  0  0
    5.6101    0.4531   20.2143 C   0  0  0  0  0  0  0  0  0  0  0  0
    4.9756    1.1142   19.1537 C   0  0  0  0  0  0  0  0  0  0  0  0
    5.5940    1.1578   17.9013 C   0  0  0  0  0  0  0  0  0  0  0  0
    6.7809    0.5791   17.6522 N   0  0  0  0  0  0  0  0  0  0  0  0
    7.3921   -0.0467   18.6632 C   0  0  0  0  0  0  0  0  0  0  0  0
    8.3594   -0.4943   18.4483 H   0  0  0  0  0  0  0  0  0  0  0  0
    5.1308    1.6805   17.0656 H   0  0  0  0  0  0  0  0  0  0  0  0
    4.0133    1.5963   19.2903 H   0  0  0  0  0  0  0  0  0  0  0  0
    5.1544    0.4158   21.2049 H   0  0  0  0  0  0  0  0  0  0  0  0
    5.2088   -1.7106   21.6684 H   0  0  0  0  0  0  0  0  0  0  0  0
    5.8445   -1.9819   23.3375 H   0  0  0  0  0  0  0  0  0  0  0  0
    6.4386   -4.7212   19.0736 H   0  0  0  0  0  0  0  0  0  0  0  0
    6.9534   -3.3028   20.0118 H   0  0  0  0  0  0  0  0  0  0  0  0
    5.1398   -1.9519   19.3855 H   0  0  0  0  0  0  0  0  0  0  0  0
    5.7564   -2.7176   17.9367 H   0  0  0  0  0  0  0  0  0  0  0  0
    4.2483   -3.2717   18.6504 H   0  0  0  0  0  0  0  0  0  0  0  0
  1  2  1  0
  2  3  1  0
  3  4  2  0
  4  5  1  0
  5  6  1  0
  6  7  1  0
  6  8  1  0
  6  9  1  0
  5 10  1  0
 10 11  1  0
 11 12  1  0
 12 13  1  0
 12 14  1  0
 12 15  1  0
 11 16  1  0
 11 17  1  0
 10 18  2  0
 18 19  1  0
 19 20  1  0
 20 21  2  0
 21 22  1  0
 22 23  1  0
 23 24  1  0
 24 25  1  0
 25 26  1  0
 26 27  1  0
 27 28  1  0
 27 29  1  0
 26 30  1  0
 26 31  1  0
 24 32  1  0
 24 33  1  0
 23 34  1  0
 22 35  2  0
 35 36  1  0
 36 37  1  0
 37 38  2  0
 38 39  1  0
 39 40  2  0
 40 41  1  0
 41 42  2  0
 42 43  1  0
 40 44  1  0
 39 45  1  0
 38 46  1  0
 19 47  1  0
 19 48  1  0
  2 49  1  0
  2 50  1  0
  1 51  1  0
  1 52  1  0
  1 53  1  0
 18  3  1  0
 36 20  1  0
 42 37  1  0
 25 23  1  0
 27 25  1  0
M  END
>  <cnnaffinity>  (1) 
-5.74451

>  <filename>  (1) 
CCc1nn(C)c(CC)c1Cc1nc(C2CC23CC3)nn1-c1cccnc1

$$$$
