
     RDKit          3D

 35 37  0  0  0  0  0  0  0  0999 V2000
    7.7234   -4.5164   22.9277 C   0  0  0  0  0  0  0  0  0  0  0  0
    7.4217   -3.1210   23.5185 C   0  0  0  0  0  0  0  0  0  0  0  0
    7.6016   -2.0315   22.5217 C   0  0  0  0  0  0  0  0  0  0  0  0
    6.6531   -1.6172   21.7069 N   0  0  0  0  0  0  0  0  0  0  0  0
    7.2954   -0.6969   20.9441 N   0  0  0  0  0  0  0  0  0  0  0  0
    6.6279   -0.0194   19.8889 C   0  0  0  0  0  0  0  0  0  0  0  0
    5.4221    0.6339   20.1519 C   0  0  0  0  0  0  0  0  0  0  0  0
    4.8007    1.3161   19.1022 C   0  0  0  0  0  0  0  0  0  0  0  0
    5.3926    1.2970   17.8341 C   0  0  0  0  0  0  0  0  0  0  0  0
    6.5423    0.6566   17.5731 N   0  0  0  0  0  0  0  0  0  0  0  0
    7.1469    0.0244   18.5838 C   0  0  0  0  0  0  0  0  0  0  0  0
    8.0979   -0.4493   18.3448 H   0  0  0  0  0  0  0  0  0  0  0  0
    4.9343    1.8103   16.9917 H   0  0  0  0  0  0  0  0  0  0  0  0
    3.8715    1.8547   19.2512 H   0  0  0  0  0  0  0  0  0  0  0  0
    5.0111    0.5914   21.1608 H   0  0  0  0  0  0  0  0  0  0  0  0
    8.5798   -0.5775   21.3798 C   0  0  0  0  0  0  0  0  0  0  0  0
    9.6314    0.3016   20.8033 C   0  0  0  0  0  0  0  0  0  0  0  0
   10.3310    1.1271   21.8640 C   0  0  0  0  0  0  0  0  0  0  0  0
    9.7254    2.2385   22.4765 C   0  0  0  0  0  0  0  0  0  0  0  0
    8.1511    2.7705   21.9641 Cl  0  0  0  0  0  0  0  0  0  0  0  0
   10.3562    2.8963   23.5460 C   0  0  0  0  0  0  0  0  0  0  0  0
   11.5423    2.4980   24.0295 N   0  0  0  0  0  0  0  0  0  0  0  0
   12.1465    1.4486   23.4554 C   0  0  0  0  0  0  0  0  0  0  0  0
   11.5738    0.7548   22.3838 C   0  0  0  0  0  0  0  0  0  0  0  0
   12.2286   -0.3011   21.8703 F   0  0  0  0  0  0  0  0  0  0  0  0
   13.1068    1.1172   23.8486 H   0  0  0  0  0  0  0  0  0  0  0  0
    9.8732    3.7481   24.0291 H   0  0  0  0  0  0  0  0  0  0  0  0
   10.3334   -0.3787   20.3141 H   0  0  0  0  0  0  0  0  0  0  0  0
    9.1776    0.9535   20.0573 H   0  0  0  0  0  0  0  0  0  0  0  0
    8.8028   -1.4280   22.3584 N   0  0  0  0  0  0  0  0  0  0  0  0
    6.3930   -3.0485   23.8852 H   0  0  0  0  0  0  0  0  0  0  0  0
    8.1014   -2.8886   24.3479 H   0  0  0  0  0  0  0  0  0  0  0  0
    8.7657   -4.5856   22.5885 H   0  0  0  0  0  0  0  0  0  0  0  0
    7.5587   -5.2975   23.6781 H   0  0  0  0  0  0  0  0  0  0  0  0
    7.0767   -4.7284   22.0660 H   0  0  0  0  0  0  0  0  0  0  0  0
  1  2  1  0
  2  3  1  0
  3  4  2  0
  4  5  1  0
  5  6  1  0
  6  7  2  0
  7  8  1  0
  8  9  2  0
  9 10  1  0
 10 11  2  0
 11 12  1  0
  9 13  1  0
  8 14  1  0
  7 15  1  0
  5 16  1  0
 16 17  1  0
 17 18  1  0
 18 19  2  0
 19 20  1  0
 19 21  1  0
 21 22  2  0
 22 23  1  0
 23 24  2  0
 24 25  1  0
 23 26  1  0
 21 27  1  0
 17 28  1  0
 17 29  1  0
 16 30  2  0
  2 31  1  0
  2 32  1  0
  1 33  1  0
  1 34  1  0
  1 35  1  0
 30  3  1  0
 11  6  1  0
 24 18  1  0
M  END
>  <cnnaffinity>  (1) 
-6.28803

>  <filename>  (1) 
CCc1nc(Cc2c(F)cncc2Cl)n(-c2cccnc2)n1

$$$$
