
     RDKit          3D

 33 35  0  0  0  0  0  0  0  0999 V2000
    9.0913    1.9512   21.5590 C   0  0  0  0  0  0  0  0  0  0  0  0
    9.5311    0.6150   20.9640 C   0  0  0  0  0  0  0  0  0  0  0  0
    8.6012   -0.4664   21.4137 C   0  0  0  0  0  0  0  0  0  0  0  0
    8.8517   -1.2757   22.4058 N   0  0  0  0  0  0  0  0  0  0  0  0
    7.6679   -1.9897   22.5404 C   0  0  0  0  0  0  0  0  0  0  0  0
    7.4609   -3.0304   23.5716 C   0  0  0  0  0  0  0  0  0  0  0  0
    8.4735   -3.3655   24.4969 C   0  0  0  0  0  0  0  0  0  0  0  0
    8.2640   -4.3516   25.4709 C   0  0  0  0  0  0  0  0  0  0  0  0
    9.6502   -4.7889   26.7142 Br  0  0  0  0  0  0  0  0  0  0  0  0
    7.0352   -5.0154   25.5297 C   0  0  0  0  0  0  0  0  0  0  0  0
    6.0216   -4.6972   24.6230 C   0  0  0  0  0  0  0  0  0  0  0  0
    6.2330   -3.7138   23.6540 C   0  0  0  0  0  0  0  0  0  0  0  0
    5.4312   -3.4791   22.9597 H   0  0  0  0  0  0  0  0  0  0  0  0
    5.0681   -5.2138   24.6724 H   0  0  0  0  0  0  0  0  0  0  0  0
    6.8679   -5.7797   26.2821 H   0  0  0  0  0  0  0  0  0  0  0  0
    9.4363   -2.8611   24.4688 H   0  0  0  0  0  0  0  0  0  0  0  0
    6.7386   -1.6522   21.6696 N   0  0  0  0  0  0  0  0  0  0  0  0
    7.3248   -0.6911   20.9292 N   0  0  0  0  0  0  0  0  0  0  0  0
    6.6651    0.0088   19.9076 C   0  0  0  0  0  0  0  0  0  0  0  0
    5.4457    0.6455   20.1592 C   0  0  0  0  0  0  0  0  0  0  0  0
    4.8111    1.3105   19.1108 C   0  0  0  0  0  0  0  0  0  0  0  0
    5.3986    1.2936   17.8399 C   0  0  0  0  0  0  0  0  0  0  0  0
    6.5695    0.6820   17.5878 N   0  0  0  0  0  0  0  0  0  0  0  0
    7.1918    0.0586   18.6053 C   0  0  0  0  0  0  0  0  0  0  0  0
    8.1343   -0.4418   18.3923 H   0  0  0  0  0  0  0  0  0  0  0  0
    4.8934    1.7782   17.0128 H   0  0  0  0  0  0  0  0  0  0  0  0
    3.8759    1.8409   19.2669 H   0  0  0  0  0  0  0  0  0  0  0  0
    5.0108    0.6273   21.1552 H   0  0  0  0  0  0  0  0  0  0  0  0
   10.5389    0.3741   21.3072 H   0  0  0  0  0  0  0  0  0  0  0  0
    9.5362    0.6804   19.8739 H   0  0  0  0  0  0  0  0  0  0  0  0
    9.0717    1.8945   22.6535 H   0  0  0  0  0  0  0  0  0  0  0  0
    8.0914    2.2294   21.2048 H   0  0  0  0  0  0  0  0  0  0  0  0
    9.7949    2.7328   21.2649 H   0  0  0  0  0  0  0  0  0  0  0  0
  1  2  1  0
  2  3  1  0
  3  4  2  0
  4  5  1  0
  5  6  1  0
  6  7  2  0
  7  8  1  0
  8  9  1  0
  8 10  2  0
 10 11  1  0
 11 12  2  0
 12 13  1  0
 11 14  1  0
 10 15  1  0
  7 16  1  0
  5 17  2  0
 17 18  1  0
 18 19  1  0
 19 20  2  0
 20 21  1  0
 21 22  2  0
 22 23  1  0
 23 24  2  0
 24 25  1  0
 22 26  1  0
 21 27  1  0
 20 28  1  0
  2 29  1  0
  2 30  1  0
  1 31  1  0
  1 32  1  0
  1 33  1  0
 18  3  1  0
 24 19  1  0
 12  6  1  0
M  END
>  <cnnaffinity>  (1) 
-5.45773

>  <filename>  (1) 
CCc1nc(-c2cccc(Br)c2)nn1-c1cccnc1

$$$$
