
     RDKit          3D

 38 40  0  0  0  0  0  0  0  0999 V2000
    6.9960   -2.0509   25.0006 C   0  0  0  0  0  0  0  0  0  0  0  0
    7.4056   -2.8353   23.7448 C   0  0  0  0  0  0  0  0  0  0  0  0
    7.6654   -1.9313   22.5849 C   0  0  0  0  0  0  0  0  0  0  0  0
    6.7343   -1.5864   21.7212 N   0  0  0  0  0  0  0  0  0  0  0  0
    7.3616   -0.6716   20.9410 N   0  0  0  0  0  0  0  0  0  0  0  0
    6.6597    0.0040   19.9021 C   0  0  0  0  0  0  0  0  0  0  0  0
    5.4435    0.6460   20.1661 C   0  0  0  0  0  0  0  0  0  0  0  0
    4.8122    1.3114   19.1101 C   0  0  0  0  0  0  0  0  0  0  0  0
    5.4021    1.2946   17.8398 C   0  0  0  0  0  0  0  0  0  0  0  0
    6.5628    0.6749   17.5799 N   0  0  0  0  0  0  0  0  0  0  0  0
    7.1713    0.0542   18.5951 C   0  0  0  0  0  0  0  0  0  0  0  0
    8.1174   -0.4350   18.3733 H   0  0  0  0  0  0  0  0  0  0  0  0
    4.9142    1.7813   16.9962 H   0  0  0  0  0  0  0  0  0  0  0  0
    3.8775    1.8410   19.2645 H   0  0  0  0  0  0  0  0  0  0  0  0
    5.0125    0.6131   21.1692 H   0  0  0  0  0  0  0  0  0  0  0  0
    8.6329   -0.4915   21.4059 C   0  0  0  0  0  0  0  0  0  0  0  0
    9.5235    0.6215   20.9461 C   0  0  0  0  0  0  0  0  0  0  0  0
    9.0507    2.0115   21.4472 C   0  0  0  0  0  0  0  0  0  0  0  0
    8.9164    2.0573   22.9526 C   0  0  0  0  0  0  0  0  0  0  0  0
    7.6774    1.8052   23.5584 C   0  0  0  0  0  0  0  0  0  0  0  0
    7.5733    1.7659   24.9457 C   0  0  0  0  0  0  0  0  0  0  0  0
    8.7291    1.9664   25.7028 C   0  0  0  0  0  0  0  0  0  0  0  0
    9.9335    2.1907   25.1629 N   0  0  0  0  0  0  0  0  0  0  0  0
   10.0026    2.2168   23.8405 C   0  0  0  0  0  0  0  0  0  0  0  0
   11.5929    2.4990   23.1996 Cl  0  0  0  0  0  0  0  0  0  0  0  0
    8.6869    1.9522   26.7843 H   0  0  0  0  0  0  0  0  0  0  0  0
    6.6244    1.5695   25.4313 H   0  0  0  0  0  0  0  0  0  0  0  0
    6.8055    1.6166   22.9319 H   0  0  0  0  0  0  0  0  0  0  0  0
    8.0800    2.2458   20.9901 H   0  0  0  0  0  0  0  0  0  0  0  0
    9.7560    2.7736   21.1015 H   0  0  0  0  0  0  0  0  0  0  0  0
    9.5812    0.6292   19.8543 H   0  0  0  0  0  0  0  0  0  0  0  0
   10.5253    0.4066   21.3228 H   0  0  0  0  0  0  0  0  0  0  0  0
    8.8607   -1.2977   22.4233 N   0  0  0  0  0  0  0  0  0  0  0  0
    6.6197   -3.5386   23.4614 H   0  0  0  0  0  0  0  0  0  0  0  0
    8.3141   -3.4089   23.9411 H   0  0  0  0  0  0  0  0  0  0  0  0
    6.0974   -1.4533   24.8095 H   0  0  0  0  0  0  0  0  0  0  0  0
    6.7891   -2.7270   25.8352 H   0  0  0  0  0  0  0  0  0  0  0  0
    7.7960   -1.3654   25.3051 H   0  0  0  0  0  0  0  0  0  0  0  0
  1  2  1  0
  2  3  1  0
  3  4  2  0
  4  5  1  0
  5  6  1  0
  6  7  2  0
  7  8  1  0
  8  9  2  0
  9 10  1  0
 10 11  2  0
 11 12  1  0
  9 13  1  0
  8 14  1  0
  7 15  1  0
  5 16  1  0
 16 17  1  0
 17 18  1  0
 18 19  1  0
 19 20  2  0
 20 21  1  0
 21 22  2  0
 22 23  1  0
 23 24  2  0
 24 25  1  0
 22 26  1  0
 21 27  1  0
 20 28  1  0
 18 29  1  0
 18 30  1  0
 17 31  1  0
 17 32  1  0
 16 33  2  0
  2 34  1  0
  2 35  1  0
  1 36  1  0
  1 37  1  0
  1 38  1  0
 33  3  1  0
 11  6  1  0
 24 19  1  0
M  END
>  <cnnaffinity>  (1) 
-5.85258

>  <filename>  (1) 
CCc1nc(CCc2cccnc2Cl)n(-c2cccnc2)n1

$$$$
