
     RDKit          3D

 45 48  0  0  0  0  0  0  0  0999 V2000
    7.9313    0.8088   28.3781 C   0  0  0  0  0  0  0  0  0  0  0  0
    8.2057   -0.1902   27.2460 C   0  0  0  0  0  0  0  0  0  0  0  0
    7.4804    0.1513   25.9830 C   0  0  0  0  0  0  0  0  0  0  0  0
    6.2308   -0.1534   25.5057 C   0  0  0  0  0  0  0  0  0  0  0  0
    6.0144    0.4474   24.2846 N   0  0  0  0  0  0  0  0  0  0  0  0
    7.0919    1.1414   24.0406 C   0  0  0  0  0  0  0  0  0  0  0  0
    7.4020    1.8303   22.7521 C   0  0  0  0  0  0  0  0  0  0  0  0
    8.4682    1.0024   22.1415 C   0  0  0  0  0  0  0  0  0  0  0  0
    9.7120    1.1446   22.5203 N   0  0  0  0  0  0  0  0  0  0  0  0
   10.3142    0.0169   22.0544 C   0  0  0  0  0  0  0  0  0  0  0  0
   11.7576   -0.0990   22.2216 C   0  0  0  0  0  0  0  0  0  0  0  0
   12.5620   -1.0859   21.6265 C   0  0  0  0  0  0  0  0  0  0  0  0
   13.9309   -0.8534   21.6505 C   0  0  0  0  0  0  0  0  0  0  0  0
   14.7254   -1.6643   20.9477 F   0  0  0  0  0  0  0  0  0  0  0  0
   14.4534    0.2668   22.3177 C   0  0  0  0  0  0  0  0  0  0  0  0
   13.6821    1.1258   22.9876 N   0  0  0  0  0  0  0  0  0  0  0  0
   12.3638    0.9671   22.9077 C   0  0  0  0  0  0  0  0  0  0  0  0
   11.7485    1.7237   23.3856 H   0  0  0  0  0  0  0  0  0  0  0  0
   15.5046    0.5225   22.2892 H   0  0  0  0  0  0  0  0  0  0  0  0
   12.1606   -1.9707   21.1270 H   0  0  0  0  0  0  0  0  0  0  0  0
    9.5058   -0.8224   21.4356 N   0  0  0  0  0  0  0  0  0  0  0  0
    8.3044   -0.1735   21.5026 N   0  0  0  0  0  0  0  0  0  0  0  0
    7.0483   -0.7436   21.0192 C   0  0  0  0  0  0  0  0  0  0  0  0
    6.4055    0.0374   19.8834 C   0  0  0  0  0  0  0  0  0  0  0  0
    5.1786    0.7061   20.0021 C   0  0  0  0  0  0  0  0  0  0  0  0
    4.6742    1.4030   18.8982 C   0  0  0  0  0  0  0  0  0  0  0  0
    5.4051    1.3907   17.7072 C   0  0  0  0  0  0  0  0  0  0  0  0
    6.5678    0.7358   17.5640 N   0  0  0  0  0  0  0  0  0  0  0  0
    7.0460    0.0888   18.6339 C   0  0  0  0  0  0  0  0  0  0  0  0
    7.9897   -0.4348   18.4874 H   0  0  0  0  0  0  0  0  0  0  0  0
    5.0387    1.9207   16.8285 H   0  0  0  0  0  0  0  0  0  0  0  0
    3.7459    1.9626   18.9530 H   0  0  0  0  0  0  0  0  0  0  0  0
    4.6192    0.6829   20.9420 H   0  0  0  0  0  0  0  0  0  0  0  0
    7.2951   -1.7610   20.7030 H   0  0  0  0  0  0  0  0  0  0  0  0
    6.3530   -0.7940   21.8709 H   0  0  0  0  0  0  0  0  0  0  0  0
    7.7927    2.8344   22.9305 H   0  0  0  0  0  0  0  0  0  0  0  0
    6.5102    1.8741   22.1322 H   0  0  0  0  0  0  0  0  0  0  0  0
    8.0093    1.0052   25.0318 N   0  0  0  0  0  0  0  0  0  0  0  0
    8.9878    1.2158   24.8858 H   0  0  0  0  0  0  0  0  0  0  0  0
    5.4643   -0.7633   25.9715 H   0  0  0  0  0  0  0  0  0  0  0  0
    9.2870   -0.2454   27.0546 H   0  0  0  0  0  0  0  0  0  0  0  0
    7.9109   -1.1986   27.5546 H   0  0  0  0  0  0  0  0  0  0  0  0
    8.5216    0.5612   29.2667 H   0  0  0  0  0  0  0  0  0  0  0  0
    6.8725    0.8076   28.6539 H   0  0  0  0  0  0  0  0  0  0  0  0
    8.1960    1.8240   28.0638 H   0  0  0  0  0  0  0  0  0  0  0  0
  1  2  1  0
  2  3  1  0
  3  4  2  0
  4  5  1  0
  5  6  2  0
  6  7  1  0
  7  8  1  0
  8  9  2  0
  9 10  1  0
 10 11  1  0
 11 12  2  0
 12 13  1  0
 13 14  1  0
 13 15  2  0
 15 16  1  0
 16 17  2  0
 17 18  1  0
 15 19  1  0
 12 20  1  0
 10 21  2  0
 21 22  1  0
 22 23  1  0
 23 24  1  0
 24 25  2  0
 25 26  1  0
 26 27  2  0
 27 28  1  0
 28 29  2  0
 29 30  1  0
 27 31  1  0
 26 32  1  0
 25 33  1  0
 23 34  1  0
 23 35  1  0
  7 36  1  0
  7 37  1  0
  6 38  1  0
 38 39  1  0
  4 40  1  0
  2 41  1  0
  2 42  1  0
  1 43  1  0
  1 44  1  0
  1 45  1  0
 38  3  1  0
 22  8  1  0
 29 24  1  0
 17 11  1  0
M  END
>  <cnnaffinity>  (1) 
-6.78975

>  <filename>  (1) 
CCc1cnc(Cc2nc(-c3cncc(F)c3)nn2Cc2cccnc2)[nH]1

$$$$
