
     RDKit          3D

 38 40  0  0  0  0  0  0  0  0999 V2000
   10.8212   -2.5514   22.8079 C   0  0  0  0  0  0  0  0  0  0  0  0
    9.3351   -2.9205   22.7088 C   0  0  0  0  0  0  0  0  0  0  0  0
    8.5043   -1.7938   22.1870 C   0  0  0  0  0  0  0  0  0  0  0  0
    8.0301   -1.7195   20.9624 N   0  0  0  0  0  0  0  0  0  0  0  0
    7.3126   -0.5704   20.9947 N   0  0  0  0  0  0  0  0  0  0  0  0
    6.6282   -0.0164   19.9088 C   0  0  0  0  0  0  0  0  0  0  0  0
    5.4880    0.7744   20.0997 C   0  0  0  0  0  0  0  0  0  0  0  0
    4.9180    1.3790   18.9801 C   0  0  0  0  0  0  0  0  0  0  0  0
    5.4920    1.1899   17.7177 C   0  0  0  0  0  0  0  0  0  0  0  0
    6.5660    0.4018   17.5243 N   0  0  0  0  0  0  0  0  0  0  0  0
    7.1103   -0.2012   18.6006 C   0  0  0  0  0  0  0  0  0  0  0  0
    7.9886   -0.8238   18.4615 H   0  0  0  0  0  0  0  0  0  0  0  0
    5.0554    1.6941   16.8616 H   0  0  0  0  0  0  0  0  0  0  0  0
    4.0423    2.0122   19.0708 H   0  0  0  0  0  0  0  0  0  0  0  0
    5.0583    0.9203   21.0916 H   0  0  0  0  0  0  0  0  0  0  0  0
    7.4528    0.0152   22.2486 C   0  0  0  0  0  0  0  0  0  0  0  0
    6.9750    1.3532   22.7172 C   0  0  0  0  0  0  0  0  0  0  0  0
    6.0934    1.2711   23.9639 C   0  0  0  0  0  0  0  0  0  0  0  0
    5.8500    2.6846   24.4184 C   0  0  0  0  0  0  0  0  0  0  0  0
    4.8298    3.4224   23.8188 C   0  0  0  0  0  0  0  0  0  0  0  0
    4.6511    4.7405   24.2262 C   0  0  0  0  0  0  0  0  0  0  0  0
    5.4826    5.2795   25.2114 C   0  0  0  0  0  0  0  0  0  0  0  0
    6.4756    4.5783   25.7776 N   0  0  0  0  0  0  0  0  0  0  0  0
    6.6713    3.3067   25.3826 C   0  0  0  0  0  0  0  0  0  0  0  0
    8.1473    2.3553   26.1442 Br  0  0  0  0  0  0  0  0  0  0  0  0
    5.3262    6.3068   25.5249 H   0  0  0  0  0  0  0  0  0  0  0  0
    3.8803    5.3555   23.7779 H   0  0  0  0  0  0  0  0  0  0  0  0
    4.2094    2.9828   23.0389 H   0  0  0  0  0  0  0  0  0  0  0  0
    6.5905    0.6934   24.7526 H   0  0  0  0  0  0  0  0  0  0  0  0
    5.1422    0.7763   23.7398 H   0  0  0  0  0  0  0  0  0  0  0  0
    7.8635    1.9392   22.9634 H   0  0  0  0  0  0  0  0  0  0  0  0
    6.4428    1.8711   21.9167 H   0  0  0  0  0  0  0  0  0  0  0  0
    8.1902   -0.7331   23.0075 N   0  0  0  0  0  0  0  0  0  0  0  0
    8.9771   -3.1986   23.7038 H   0  0  0  0  0  0  0  0  0  0  0  0
    9.1950   -3.7711   22.0453 H   0  0  0  0  0  0  0  0  0  0  0  0
   11.1928   -2.1264   21.8688 H   0  0  0  0  0  0  0  0  0  0  0  0
   11.4148   -3.4334   23.0579 H   0  0  0  0  0  0  0  0  0  0  0  0
   10.9610   -1.8186   23.6062 H   0  0  0  0  0  0  0  0  0  0  0  0
  1  2  1  0
  2  3  1  0
  3  4  2  0
  4  5  1  0
  5  6  1  0
  6  7  2  0
  7  8  1  0
  8  9  2  0
  9 10  1  0
 10 11  2  0
 11 12  1  0
  9 13  1  0
  8 14  1  0
  7 15  1  0
  5 16  1  0
 16 17  1  0
 17 18  1  0
 18 19  1  0
 19 20  2  0
 20 21  1  0
 21 22  2  0
 22 23  1  0
 23 24  2  0
 24 25  1  0
 22 26  1  0
 21 27  1  0
 20 28  1  0
 18 29  1  0
 18 30  1  0
 17 31  1  0
 17 32  1  0
 16 33  2  0
  2 34  1  0
  2 35  1  0
  1 36  1  0
  1 37  1  0
  1 38  1  0
 33  3  1  0
 11  6  1  0
 24 19  1  0
M  END
>  <cnnaffinity>  (1) 
-5.68305

>  <filename>  (1) 
CCc1nc(CCc2cccnc2Br)n(-c2cccnc2)n1

$$$$
