
     RDKit          3D

 45 48  0  0  0  0  0  0  0  0999 V2000
    7.5606    1.0479   28.8837 C   0  0  0  0  0  0  0  0  0  0  0  0
    7.5778   -0.0224   27.7812 C   0  0  0  0  0  0  0  0  0  0  0  0
    6.9018    0.3765   26.5028 C   0  0  0  0  0  0  0  0  0  0  0  0
    5.7222   -0.0868   26.1688 N   0  0  0  0  0  0  0  0  0  0  0  0
    5.4657    0.4076   24.8990 O   0  0  0  0  0  0  0  0  0  0  0  0
    6.5005    1.1524   24.4945 C   0  0  0  0  0  0  0  0  0  0  0  0
    6.5713    1.6434   23.0744 C   0  0  0  0  0  0  0  0  0  0  0  0
    7.6720    0.9174   22.3557 C   0  0  0  0  0  0  0  0  0  0  0  0
    8.9450    1.1710   22.5749 N   0  0  0  0  0  0  0  0  0  0  0  0
    9.5898    0.1275   21.9868 C   0  0  0  0  0  0  0  0  0  0  0  0
   11.0536   -0.0952   22.0908 C   0  0  0  0  0  0  0  0  0  0  0  0
   11.8906    0.9043   22.6324 C   0  0  0  0  0  0  0  0  0  0  0  0
   13.2594    0.6655   22.7869 C   0  0  0  0  0  0  0  0  0  0  0  0
   13.8028   -0.5797   22.4528 C   0  0  0  0  0  0  0  0  0  0  0  0
   12.9754   -1.5748   21.9220 C   0  0  0  0  0  0  0  0  0  0  0  0
   11.6154   -1.3385   21.7150 C   0  0  0  0  0  0  0  0  0  0  0  0
   10.9788   -2.1072   21.2764 H   0  0  0  0  0  0  0  0  0  0  0  0
   13.3926   -2.5517   21.7022 H   0  0  0  0  0  0  0  0  0  0  0  0
   14.8627   -0.7734   22.5940 H   0  0  0  0  0  0  0  0  0  0  0  0
   13.9028    1.4469   23.1833 H   0  0  0  0  0  0  0  0  0  0  0  0
   11.4686    1.8592   22.9460 H   0  0  0  0  0  0  0  0  0  0  0  0
    8.7724   -0.7278   21.3901 N   0  0  0  0  0  0  0  0  0  0  0  0
    7.5455   -0.2171   21.6344 N   0  0  0  0  0  0  0  0  0  0  0  0
    6.3810   -0.7908   20.9681 C   0  0  0  0  0  0  0  0  0  0  0  0
    5.9838   -0.0178   19.7314 C   0  0  0  0  0  0  0  0  0  0  0  0
    4.7892    0.6988   19.6408 C   0  0  0  0  0  0  0  0  0  0  0  0
    4.5707    1.4854   18.5075 C   0  0  0  0  0  0  0  0  0  0  0  0
    5.5454    1.5064   17.5050 C   0  0  0  0  0  0  0  0  0  0  0  0
    6.6757    0.7827   17.5506 N   0  0  0  0  0  0  0  0  0  0  0  0
    6.8768    0.0430   18.6463 C   0  0  0  0  0  0  0  0  0  0  0  0
    7.7933   -0.5504   18.6753 H   0  0  0  0  0  0  0  0  0  0  0  0
    5.4157    2.1250   16.6196 H   0  0  0  0  0  0  0  0  0  0  0  0
    3.6768    2.0893   18.3968 H   0  0  0  0  0  0  0  0  0  0  0  0
    4.0466    0.6395   20.4423 H   0  0  0  0  0  0  0  0  0  0  0  0
    5.5624   -0.8469   21.6878 H   0  0  0  0  0  0  0  0  0  0  0  0
    6.6620   -1.8153   20.7094 H   0  0  0  0  0  0  0  0  0  0  0  0
    5.6081    1.5531   22.5699 H   0  0  0  0  0  0  0  0  0  0  0  0
    6.8684    2.6939   23.0962 H   0  0  0  0  0  0  0  0  0  0  0  0
    7.4253    1.2139   25.4835 C   0  0  0  0  0  0  0  0  0  0  0  0
    8.3645    1.7420   25.4537 H   0  0  0  0  0  0  0  0  0  0  0  0
    8.6194   -0.2733   27.5389 H   0  0  0  0  0  0  0  0  0  0  0  0
    7.1058   -0.9464   28.1281 H   0  0  0  0  0  0  0  0  0  0  0  0
    7.9978    1.9864   28.5250 H   0  0  0  0  0  0  0  0  0  0  0  0
    6.5398    1.2552   29.2213 H   0  0  0  0  0  0  0  0  0  0  0  0
    8.1422    0.7131   29.7500 H   0  0  0  0  0  0  0  0  0  0  0  0
  1  2  1  0
  2  3  1  0
  3  4  2  0
  4  5  1  0
  5  6  1  0
  6  7  1  0
  7  8  1  0
  8  9  2  0
  9 10  1  0
 10 11  1  0
 11 12  2  0
 12 13  1  0
 13 14  2  0
 14 15  1  0
 15 16  2  0
 16 17  1  0
 15 18  1  0
 14 19  1  0
 13 20  1  0
 12 21  1  0
 10 22  2  0
 22 23  1  0
 23 24  1  0
 24 25  1  0
 25 26  2  0
 26 27  1  0
 27 28  2  0
 28 29  1  0
 29 30  2  0
 30 31  1  0
 28 32  1  0
 27 33  1  0
 26 34  1  0
 24 35  1  0
 24 36  1  0
  7 37  1  0
  7 38  1  0
  6 39  2  0
 39 40  1  0
  2 41  1  0
  2 42  1  0
  1 43  1  0
  1 44  1  0
  1 45  1  0
 39  3  1  0
 23  8  1  0
 30 25  1  0
 16 11  1  0
M  END
>  <cnnaffinity>  (1) 
-5.83873

>  <filename>  (1) 
CCc1cc(Cc2nc(-c3ccccc3)nn2Cc2cccnc2)on1

$$$$
