
     RDKit          3D

 45 48  0  0  0  0  0  0  0  0999 V2000
    9.5936    4.9888   24.8435 C   0  0  0  0  0  0  0  0  0  0  0  0
    8.4505    3.9733   24.6490 C   0  0  0  0  0  0  0  0  0  0  0  0
    8.4917    3.2155   23.3526 C   0  0  0  0  0  0  0  0  0  0  0  0
    9.2186    2.1568   23.1102 N   0  0  0  0  0  0  0  0  0  0  0  0
    9.0798    1.7588   21.8072 C   0  0  0  0  0  0  0  0  0  0  0  0
    9.6599    0.4832   21.2966 C   0  0  0  0  0  0  0  0  0  0  0  0
    8.6898   -0.6229   21.5473 C   0  0  0  0  0  0  0  0  0  0  0  0
    8.8632   -1.5179   22.4861 N   0  0  0  0  0  0  0  0  0  0  0  0
    7.6239   -2.0473   22.6425 C   0  0  0  0  0  0  0  0  0  0  0  0
    7.3771   -2.9840   23.7641 C   0  0  0  0  0  0  0  0  0  0  0  0
    6.0844   -2.9724   24.5338 C   0  0  0  0  0  0  0  0  0  0  0  0
    7.3433   -2.4657   25.1923 C   0  0  0  0  0  0  0  0  0  0  0  0
    7.5344   -0.9759   25.4142 C   0  0  0  0  0  0  0  0  0  0  0  0
    8.6032   -0.7352   25.3564 H   0  0  0  0  0  0  0  0  0  0  0  0
    7.1626   -0.6498   26.3914 H   0  0  0  0  0  0  0  0  0  0  0  0
    7.0355   -0.3887   24.6366 H   0  0  0  0  0  0  0  0  0  0  0  0
    7.9874   -3.3355   26.2554 C   0  0  0  0  0  0  0  0  0  0  0  0
    7.5395   -3.1620   27.2416 H   0  0  0  0  0  0  0  0  0  0  0  0
    9.0589   -3.1214   26.3385 H   0  0  0  0  0  0  0  0  0  0  0  0
    7.8819   -4.4006   26.0262 H   0  0  0  0  0  0  0  0  0  0  0  0
    5.3245   -2.2571   24.2278 H   0  0  0  0  0  0  0  0  0  0  0  0
    5.6759   -3.9234   24.8713 H   0  0  0  0  0  0  0  0  0  0  0  0
    7.8849   -3.9315   23.6066 H   0  0  0  0  0  0  0  0  0  0  0  0
    6.7181   -1.6093   21.7921 N   0  0  0  0  0  0  0  0  0  0  0  0
    7.4179   -0.7190   21.0297 N   0  0  0  0  0  0  0  0  0  0  0  0
    6.7438   -0.0620   19.9492 C   0  0  0  0  0  0  0  0  0  0  0  0
    5.5339    0.6039   20.1984 C   0  0  0  0  0  0  0  0  0  0  0  0
    4.9109    1.2774   19.1447 C   0  0  0  0  0  0  0  0  0  0  0  0
    5.5125    1.2648   17.8808 C   0  0  0  0  0  0  0  0  0  0  0  0
    6.6658    0.6242   17.6321 N   0  0  0  0  0  0  0  0  0  0  0  0
    7.2569   -0.0329   18.6389 C   0  0  0  0  0  0  0  0  0  0  0  0
    8.1793   -0.5586   18.3861 H   0  0  0  0  0  0  0  0  0  0  0  0
    5.0523    1.7728   17.0348 H   0  0  0  0  0  0  0  0  0  0  0  0
    3.9734    1.8043   19.2918 H   0  0  0  0  0  0  0  0  0  0  0  0
    5.1243    0.5941   21.2090 H   0  0  0  0  0  0  0  0  0  0  0  0
    9.8218    0.5630   20.2210 H   0  0  0  0  0  0  0  0  0  0  0  0
   10.5851    0.2504   21.8300 H   0  0  0  0  0  0  0  0  0  0  0  0
    8.2542    2.5099   21.0538 C   0  0  0  0  0  0  0  0  0  0  0  0
    7.5412    3.7507   21.9965 S   0  0  0  0  0  0  0  0  0  0  0  0
    8.0374    2.3363   20.0153 H   0  0  0  0  0  0  0  0  0  0  0  0
    8.4430    3.2332   25.4560 H   0  0  0  0  0  0  0  0  0  0  0  0
    7.5024    4.5174   24.6959 H   0  0  0  0  0  0  0  0  0  0  0  0
    9.6180    5.7241   24.0338 H   0  0  0  0  0  0  0  0  0  0  0  0
    9.4503    5.5380   25.7807 H   0  0  0  0  0  0  0  0  0  0  0  0
   10.5744    4.5081   24.8730 H   0  0  0  0  0  0  0  0  0  0  0  0
  1  2  1  0
  2  3  1  0
  3  4  2  0
  4  5  1  0
  5  6  1  0
  6  7  1  0
  7  8  2  0
  8  9  1  0
  9 10  1  0
 10 11  1  0
 11 12  1  0
 12 13  1  0
 13 14  1  0
 13 15  1  0
 13 16  1  0
 12 17  1  0
 17 18  1  0
 17 19  1  0
 17 20  1  0
 11 21  1  0
 11 22  1  0
 10 23  1  0
  9 24  2  0
 24 25  1  0
 25 26  1  0
 26 27  2  0
 27 28  1  0
 28 29  2  0
 29 30  1  0
 30 31  2  0
 31 32  1  0
 29 33  1  0
 28 34  1  0
 27 35  1  0
  6 36  1  0
  6 37  1  0
  5 38  2  0
 38 39  1  0
 38 40  1  0
  2 41  1  0
  2 42  1  0
  1 43  1  0
  1 44  1  0
  1 45  1  0
 39  3  1  0
 25  7  1  0
 31 26  1  0
 12 10  1  0
M  END
>  <cnnaffinity>  (1) 
-6.20275

>  <filename>  (1) 
CCc1nc(Cc2nc(C3CC3(C)C)nn2-c2cccnc2)cs1

$$$$
