
     RDKit          3D

 33 35  0  0  0  0  0  0  0  0999 V2000
    9.0911    1.9698   21.5545 C   0  0  0  0  0  0  0  0  0  0  0  0
    9.5193    0.6146   20.9774 C   0  0  0  0  0  0  0  0  0  0  0  0
    8.6222   -0.4924   21.4213 C   0  0  0  0  0  0  0  0  0  0  0  0
    8.8474   -1.3168   22.4174 N   0  0  0  0  0  0  0  0  0  0  0  0
    7.6747   -1.9959   22.5419 C   0  0  0  0  0  0  0  0  0  0  0  0
    7.4574   -3.0398   23.5767 C   0  0  0  0  0  0  0  0  0  0  0  0
    6.2212   -3.7146   23.6473 C   0  0  0  0  0  0  0  0  0  0  0  0
    6.0428   -4.6877   24.6241 C   0  0  0  0  0  0  0  0  0  0  0  0
    4.8655   -5.3266   24.6839 F   0  0  0  0  0  0  0  0  0  0  0  0
    7.0373   -5.0259   25.5405 C   0  0  0  0  0  0  0  0  0  0  0  0
    8.2592   -4.3495   25.4633 C   0  0  0  0  0  0  0  0  0  0  0  0
    8.4782   -3.3655   24.4965 C   0  0  0  0  0  0  0  0  0  0  0  0
    9.4373   -2.8505   24.4560 H   0  0  0  0  0  0  0  0  0  0  0  0
    9.0462   -4.5981   26.1694 H   0  0  0  0  0  0  0  0  0  0  0  0
    6.8463   -5.7944   26.2851 H   0  0  0  0  0  0  0  0  0  0  0  0
    5.4092   -3.4834   22.9585 H   0  0  0  0  0  0  0  0  0  0  0  0
    6.7453   -1.6369   21.6696 N   0  0  0  0  0  0  0  0  0  0  0  0
    7.3595   -0.6783   20.9388 N   0  0  0  0  0  0  0  0  0  0  0  0
    6.6585    0.0047   19.9014 C   0  0  0  0  0  0  0  0  0  0  0  0
    5.4403    0.6417   20.1679 C   0  0  0  0  0  0  0  0  0  0  0  0
    4.8119    1.3099   19.1099 C   0  0  0  0  0  0  0  0  0  0  0  0
    5.4027    1.2950   17.8390 C   0  0  0  0  0  0  0  0  0  0  0  0
    6.5621    0.6733   17.5765 N   0  0  0  0  0  0  0  0  0  0  0  0
    7.1697    0.0534   18.5934 C   0  0  0  0  0  0  0  0  0  0  0  0
    8.1152   -0.4345   18.3708 H   0  0  0  0  0  0  0  0  0  0  0  0
    4.9163    1.7824   16.9949 H   0  0  0  0  0  0  0  0  0  0  0  0
    3.8773    1.8417   19.2626 H   0  0  0  0  0  0  0  0  0  0  0  0
    5.0149    0.6118   21.1739 H   0  0  0  0  0  0  0  0  0  0  0  0
    9.5382    0.6650   19.8867 H   0  0  0  0  0  0  0  0  0  0  0  0
   10.5288    0.3544   21.3017 H   0  0  0  0  0  0  0  0  0  0  0  0
    8.0905    2.2499   21.2091 H   0  0  0  0  0  0  0  0  0  0  0  0
    9.0680    1.9202   22.6471 H   0  0  0  0  0  0  0  0  0  0  0  0
    9.7941    2.7538   21.2656 H   0  0  0  0  0  0  0  0  0  0  0  0
  1  2  1  0
  2  3  1  0
  3  4  2  0
  4  5  1  0
  5  6  1  0
  6  7  2  0
  7  8  1  0
  8  9  1  0
  8 10  2  0
 10 11  1  0
 11 12  2  0
 12 13  1  0
 11 14  1  0
 10 15  1  0
  7 16  1  0
  5 17  2  0
 17 18  1  0
 18 19  1  0
 19 20  2  0
 20 21  1  0
 21 22  2  0
 22 23  1  0
 23 24  2  0
 24 25  1  0
 22 26  1  0
 21 27  1  0
 20 28  1  0
  2 29  1  0
  2 30  1  0
  1 31  1  0
  1 32  1  0
  1 33  1  0
 18  3  1  0
 24 19  1  0
 12  6  1  0
M  END
>  <cnnaffinity>  (1) 
-5.25791

>  <filename>  (1) 
CCc1nc(-c2cccc(F)c2)nn1-c1cccnc1

$$$$
