
     RDKit          3D

 43 46  0  0  0  0  0  0  0  0999 V2000
    4.5097    0.3757   27.1560 C   0  0  0  0  0  0  0  0  0  0  0  0
    5.3318   -0.6244   26.3283 C   0  0  0  0  0  0  0  0  0  0  0  0
    6.4915    0.0118   25.6327 C   0  0  0  0  0  0  0  0  0  0  0  0
    7.7533    0.3320   26.0617 C   0  0  0  0  0  0  0  0  0  0  0  0
    8.4379    1.0292   25.1003 N   0  0  0  0  0  0  0  0  0  0  0  0
    7.6211    1.1398   24.0869 C   0  0  0  0  0  0  0  0  0  0  0  0
    7.9871    1.7708   22.7843 C   0  0  0  0  0  0  0  0  0  0  0  0
    8.9661    0.9092   22.0775 C   0  0  0  0  0  0  0  0  0  0  0  0
   10.2660    1.0193   22.2093 N   0  0  0  0  0  0  0  0  0  0  0  0
   10.7253   -0.1272   21.6556 C   0  0  0  0  0  0  0  0  0  0  0  0
   12.1430   -0.4381   21.6516 C   0  0  0  0  0  0  0  0  0  0  0  0
   12.7277   -1.5309   21.0693 C   0  0  0  0  0  0  0  0  0  0  0  0
   14.1228   -1.3645   20.8547 C   0  0  0  0  0  0  0  0  0  0  0  0
   14.5543   -0.1356   21.2529 C   0  0  0  0  0  0  0  0  0  0  0  0
   16.1245    0.4348   19.8348 Cl  0  0  0  0  0  0  0  0  0  0  0  0
   13.3174    0.7542   22.1347 S   0  0  0  0  0  0  0  0  0  0  0  0
   14.7521   -2.0353   20.2800 H   0  0  0  0  0  0  0  0  0  0  0  0
   12.1484   -2.3928   20.7732 H   0  0  0  0  0  0  0  0  0  0  0  0
    9.7863   -0.9011   21.1336 N   0  0  0  0  0  0  0  0  0  0  0  0
    8.6507   -0.2213   21.4047 N   0  0  0  0  0  0  0  0  0  0  0  0
    7.3471   -0.7467   21.0198 C   0  0  0  0  0  0  0  0  0  0  0  0
    6.6506    0.0315   19.9247 C   0  0  0  0  0  0  0  0  0  0  0  0
    5.4220    0.6732   20.1138 C   0  0  0  0  0  0  0  0  0  0  0  0
    4.8285    1.3308   19.0340 C   0  0  0  0  0  0  0  0  0  0  0  0
    5.4873    1.3189   17.8002 C   0  0  0  0  0  0  0  0  0  0  0  0
    6.6674    0.7122   17.5987 N   0  0  0  0  0  0  0  0  0  0  0  0
    7.2319    0.1025   18.6468 C   0  0  0  0  0  0  0  0  0  0  0  0
    8.1988   -0.3644   18.4652 H   0  0  0  0  0  0  0  0  0  0  0  0
    5.0497    1.8123   16.9346 H   0  0  0  0  0  0  0  0  0  0  0  0
    3.8855    1.8566   19.1339 H   0  0  0  0  0  0  0  0  0  0  0  0
    4.9355    0.6616   21.0933 H   0  0  0  0  0  0  0  0  0  0  0  0
    6.7159   -0.7877   21.9138 H   0  0  0  0  0  0  0  0  0  0  0  0
    7.5310   -1.7775   20.7054 H   0  0  0  0  0  0  0  0  0  0  0  0
    8.4930    2.7088   23.0030 H   0  0  0  0  0  0  0  0  0  0  0  0
    7.1094    1.9669   22.1669 H   0  0  0  0  0  0  0  0  0  0  0  0
    6.4285    0.5408   24.3520 N   0  0  0  0  0  0  0  0  0  0  0  0
    5.6288    0.5242   23.7419 H   0  0  0  0  0  0  0  0  0  0  0  0
    8.2144    0.0883   27.0094 H   0  0  0  0  0  0  0  0  0  0  0  0
    5.7106   -1.4169   26.9848 H   0  0  0  0  0  0  0  0  0  0  0  0
    4.6878   -1.1209   25.5911 H   0  0  0  0  0  0  0  0  0  0  0  0
    4.0768    1.1533   26.5190 H   0  0  0  0  0  0  0  0  0  0  0  0
    5.1355    0.8705   27.9054 H   0  0  0  0  0  0  0  0  0  0  0  0
    3.6894   -0.1247   27.6801 H   0  0  0  0  0  0  0  0  0  0  0  0
  1  2  1  0
  2  3  1  0
  3  4  2  0
  4  5  1  0
  5  6  2  0
  6  7  1  0
  7  8  1  0
  8  9  2  0
  9 10  1  0
 10 11  1  0
 11 12  2  0
 12 13  1  0
 13 14  2  0
 14 15  1  0
 14 16  1  0
 13 17  1  0
 12 18  1  0
 10 19  2  0
 19 20  1  0
 20 21  1  0
 21 22  1  0
 22 23  2  0
 23 24  1  0
 24 25  2  0
 25 26  1  0
 26 27  2  0
 27 28  1  0
 25 29  1  0
 24 30  1  0
 23 31  1  0
 21 32  1  0
 21 33  1  0
  7 34  1  0
  7 35  1  0
  6 36  1  0
 36 37  1  0
  4 38  1  0
  2 39  1  0
  2 40  1  0
  1 41  1  0
  1 42  1  0
  1 43  1  0
 36  3  1  0
 20  8  1  0
 27 22  1  0
 16 11  1  0
M  END
>  <cnnaffinity>  (1) 
-6.69638

>  <filename>  (1) 
CCc1cnc(Cc2nc(-c3ccc(Cl)s3)nn2Cc2cccnc2)[nH]1

$$$$
