
     RDKit          3D

 42 44  0  0  0  0  0  0  0  0999 V2000
    7.9162   -4.3979   23.0384 C   0  0  0  0  0  0  0  0  0  0  0  0
    7.4963   -3.0223   23.5823 C   0  0  0  0  0  0  0  0  0  0  0  0
    7.6829   -1.9406   22.5738 C   0  0  0  0  0  0  0  0  0  0  0  0
    6.7535   -1.6018   21.7058 N   0  0  0  0  0  0  0  0  0  0  0  0
    7.3699   -0.6622   20.9457 N   0  0  0  0  0  0  0  0  0  0  0  0
    6.6635    0.0091   19.9064 C   0  0  0  0  0  0  0  0  0  0  0  0
    5.4416    0.6425   20.1666 C   0  0  0  0  0  0  0  0  0  0  0  0
    4.8133    1.3086   19.1096 C   0  0  0  0  0  0  0  0  0  0  0  0
    5.4008    1.2959   17.8377 C   0  0  0  0  0  0  0  0  0  0  0  0
    6.5608    0.6736   17.5767 N   0  0  0  0  0  0  0  0  0  0  0  0
    7.1706    0.0550   18.5952 C   0  0  0  0  0  0  0  0  0  0  0  0
    8.1135   -0.4360   18.3692 H   0  0  0  0  0  0  0  0  0  0  0  0
    4.9196    1.7859   16.9940 H   0  0  0  0  0  0  0  0  0  0  0  0
    3.8804    1.8384   19.2597 H   0  0  0  0  0  0  0  0  0  0  0  0
    5.0153    0.6076   21.1726 H   0  0  0  0  0  0  0  0  0  0  0  0
    8.6345   -0.4699   21.4282 C   0  0  0  0  0  0  0  0  0  0  0  0
    9.5388    0.5999   20.9229 C   0  0  0  0  0  0  0  0  0  0  0  0
    9.0377    2.0181   21.2345 C   0  0  0  0  0  0  0  0  0  0  0  0
    8.8832    2.2714   22.7375 C   0  0  0  0  0  0  0  0  0  0  0  0
    8.3641    3.6568   23.0104 C   0  0  0  0  0  0  0  0  0  0  0  0
    6.9862    3.9063   23.0179 C   0  0  0  0  0  0  0  0  0  0  0  0
    6.5165    5.2019   23.2077 C   0  0  0  0  0  0  0  0  0  0  0  0
    5.1915    5.4160   23.2273 F   0  0  0  0  0  0  0  0  0  0  0  0
    7.3808    6.2788   23.3839 C   0  0  0  0  0  0  0  0  0  0  0  0
    8.7607    6.0490   23.3557 C   0  0  0  0  0  0  0  0  0  0  0  0
    9.2260    4.7505   23.1627 C   0  0  0  0  0  0  0  0  0  0  0  0
   10.5585    4.5465   23.1210 F   0  0  0  0  0  0  0  0  0  0  0  0
    9.4801    6.8512   23.4790 H   0  0  0  0  0  0  0  0  0  0  0  0
    6.9683    7.2705   23.5336 H   0  0  0  0  0  0  0  0  0  0  0  0
    6.2727    3.1010   22.8644 H   0  0  0  0  0  0  0  0  0  0  0  0
    9.8456    2.1197   23.2374 H   0  0  0  0  0  0  0  0  0  0  0  0
    8.1920    1.5327   23.1625 H   0  0  0  0  0  0  0  0  0  0  0  0
    9.7492    2.7447   20.8327 H   0  0  0  0  0  0  0  0  0  0  0  0
    8.0830    2.1963   20.7209 H   0  0  0  0  0  0  0  0  0  0  0  0
    9.6466    0.4858   19.8431 H   0  0  0  0  0  0  0  0  0  0  0  0
   10.5199    0.4341   21.3778 H   0  0  0  0  0  0  0  0  0  0  0  0
    8.8651   -1.2827   22.4384 N   0  0  0  0  0  0  0  0  0  0  0  0
    6.4467   -3.0286   23.8851 H   0  0  0  0  0  0  0  0  0  0  0  0
    8.0916   -2.7620   24.4617 H   0  0  0  0  0  0  0  0  0  0  0  0
    7.7674   -5.1772   23.7914 H   0  0  0  0  0  0  0  0  0  0  0  0
    8.9737   -4.3941   22.7533 H   0  0  0  0  0  0  0  0  0  0  0  0
    7.3282   -4.6583   22.1521 H   0  0  0  0  0  0  0  0  0  0  0  0
  1  2  1  0
  2  3  1  0
  3  4  2  0
  4  5  1  0
  5  6  1  0
  6  7  2  0
  7  8  1  0
  8  9  2  0
  9 10  1  0
 10 11  2  0
 11 12  1  0
  9 13  1  0
  8 14  1  0
  7 15  1  0
  5 16  1  0
 16 17  1  0
 17 18  1  0
 18 19  1  0
 19 20  1  0
 20 21  2  0
 21 22  1  0
 22 23  1  0
 22 24  2  0
 24 25  1  0
 25 26  2  0
 26 27  1  0
 25 28  1  0
 24 29  1  0
 21 30  1  0
 19 31  1  0
 19 32  1  0
 18 33  1  0
 18 34  1  0
 17 35  1  0
 17 36  1  0
 16 37  2  0
  2 38  1  0
  2 39  1  0
  1 40  1  0
  1 41  1  0
  1 42  1  0
 37  3  1  0
 11  6  1  0
 26 20  1  0
M  END
>  <cnnaffinity>  (1) 
-6.24755

>  <filename>  (1) 
CCc1nc(CCCc2cc(F)ccc2F)n(-c2cccnc2)n1

$$$$
