
     RDKit          3D

 39 41  0  0  0  0  0  0  0  0999 V2000
    7.7060   -4.6382   22.9933 C   0  0  0  0  0  0  0  0  0  0  0  0
    7.2648   -3.2261   23.4330 C   0  0  0  0  0  0  0  0  0  0  0  0
    7.4025   -2.1838   22.3706 C   0  0  0  0  0  0  0  0  0  0  0  0
    6.4148   -1.8230   21.5790 N   0  0  0  0  0  0  0  0  0  0  0  0
    7.0006   -0.9329   20.7417 N   0  0  0  0  0  0  0  0  0  0  0  0
    6.2770   -0.2657   19.7133 C   0  0  0  0  0  0  0  0  0  0  0  0
    5.1243    0.4849   19.9777 C   0  0  0  0  0  0  0  0  0  0  0  0
    4.6614    1.3393   18.9691 C   0  0  0  0  0  0  0  0  0  0  0  0
    5.3091    1.3559   17.7268 C   0  0  0  0  0  0  0  0  0  0  0  0
    6.3271    0.5298   17.4283 N   0  0  0  0  0  0  0  0  0  0  0  0
    6.7729   -0.2776   18.3953 C   0  0  0  0  0  0  0  0  0  0  0  0
    7.5787   -0.9559   18.1222 H   0  0  0  0  0  0  0  0  0  0  0  0
    4.9955    2.0432   16.9459 H   0  0  0  0  0  0  0  0  0  0  0  0
    3.8220    2.0071   19.1368 H   0  0  0  0  0  0  0  0  0  0  0  0
    4.6237    0.4023   20.9439 H   0  0  0  0  0  0  0  0  0  0  0  0
    8.3116   -0.7910   21.1052 C   0  0  0  0  0  0  0  0  0  0  0  0
    9.3167    0.0684   20.4183 C   0  0  0  0  0  0  0  0  0  0  0  0
    9.8654    1.0807   21.3070 N   0  0  0  0  0  0  0  0  0  0  0  0
   11.1534    0.9985   21.6565 N   0  0  0  0  0  0  0  0  0  0  0  0
   11.3405    1.9353   22.5755 C   0  0  0  0  0  0  0  0  0  0  0  0
   12.6678    2.1210   23.2770 C   0  0  0  0  0  0  0  0  0  0  0  0
   13.6580    1.4106   22.7334 F   0  0  0  0  0  0  0  0  0  0  0  0
   12.5643    1.7630   24.5740 F   0  0  0  0  0  0  0  0  0  0  0  0
   13.0387    3.4185   23.2741 F   0  0  0  0  0  0  0  0  0  0  0  0
   10.1318    2.6087   22.8601 C   0  0  0  0  0  0  0  0  0  0  0  0
    9.2018    2.0454   22.0124 C   0  0  0  0  0  0  0  0  0  0  0  0
    7.7504    2.4015   21.8825 C   0  0  0  0  0  0  0  0  0  0  0  0
    7.1457    1.7814   22.5542 H   0  0  0  0  0  0  0  0  0  0  0  0
    7.3618    2.2746   20.8646 H   0  0  0  0  0  0  0  0  0  0  0  0
    7.6211    3.4468   22.1841 H   0  0  0  0  0  0  0  0  0  0  0  0
    9.9435    3.3706   23.6056 H   0  0  0  0  0  0  0  0  0  0  0  0
    8.9101    0.5486   19.5304 H   0  0  0  0  0  0  0  0  0  0  0  0
   10.1459   -0.5769   20.1245 H   0  0  0  0  0  0  0  0  0  0  0  0
    8.5917   -1.5701   22.1209 N   0  0  0  0  0  0  0  0  0  0  0  0
    7.8769   -2.8889   24.2729 H   0  0  0  0  0  0  0  0  0  0  0  0
    6.2225   -3.2242   23.7627 H   0  0  0  0  0  0  0  0  0  0  0  0
    7.1008   -5.0075   22.1600 H   0  0  0  0  0  0  0  0  0  0  0  0
    7.6107   -5.3570   23.8147 H   0  0  0  0  0  0  0  0  0  0  0  0
    8.7543   -4.6491   22.6759 H   0  0  0  0  0  0  0  0  0  0  0  0
  1  2  1  0
  2  3  1  0
  3  4  2  0
  4  5  1  0
  5  6  1  0
  6  7  2  0
  7  8  1  0
  8  9  2  0
  9 10  1  0
 10 11  2  0
 11 12  1  0
  9 13  1  0
  8 14  1  0
  7 15  1  0
  5 16  1  0
 16 17  1  0
 17 18  1  0
 18 19  1  0
 19 20  2  0
 20 21  1  0
 21 22  1  0
 21 23  1  0
 21 24  1  0
 20 25  1  0
 25 26  2  0
 26 27  1  0
 27 28  1  0
 27 29  1  0
 27 30  1  0
 25 31  1  0
 17 32  1  0
 17 33  1  0
 16 34  2  0
  2 35  1  0
  2 36  1  0
  1 37  1  0
  1 38  1  0
  1 39  1  0
 34  3  1  0
 11  6  1  0
 26 18  1  0
M  END
>  <cnnaffinity>  (1) 
-6.06445

>  <filename>  (1) 
CCc1nc(Cn2nc(C(F)(F)F)cc2C)n(-c2cccnc2)n1

$$$$
