
     RDKit          3D

 47 50  0  0  0  0  0  0  0  0999 V2000
   11.7975    2.0335   23.8114 C   0  0  0  0  0  0  0  0  0  0  0  0
   10.3707    1.5289   24.0455 C   0  0  0  0  0  0  0  0  0  0  0  0
    9.3704    2.3382   23.2318 C   0  0  0  0  0  0  0  0  0  0  0  0
    8.9039    3.5658   23.7468 C   0  0  0  0  0  0  0  0  0  0  0  0
    7.9650    4.3405   23.0572 C   0  0  0  0  0  0  0  0  0  0  0  0
    7.4523    3.8899   21.8413 C   0  0  0  0  0  0  0  0  0  0  0  0
    7.9488    2.7002   21.3055 C   0  0  0  0  0  0  0  0  0  0  0  0
    8.9529    1.9671   21.9384 C   0  0  0  0  0  0  0  0  0  0  0  0
    9.4846    0.7378   21.2125 C   0  0  0  0  0  0  0  0  0  0  0  0
    8.6292   -0.4554   21.4940 C   0  0  0  0  0  0  0  0  0  0  0  0
    8.8635   -1.3419   22.4420 N   0  0  0  0  0  0  0  0  0  0  0  0
    7.7233   -2.0714   22.4784 C   0  0  0  0  0  0  0  0  0  0  0  0
    7.5131   -3.1623   23.4717 C   0  0  0  0  0  0  0  0  0  0  0  0
    7.0709   -4.5169   22.8847 C   0  0  0  0  0  0  0  0  0  0  0  0
    6.2942   -5.1549   24.0416 C   0  0  0  0  0  0  0  0  0  0  0  0
    5.9215   -4.1120   24.9289 O   0  0  0  0  0  0  0  0  0  0  0  0
    6.3838   -2.8580   24.4733 C   0  0  0  0  0  0  0  0  0  0  0  0
    5.5677   -2.2960   23.9950 H   0  0  0  0  0  0  0  0  0  0  0  0
    6.7357   -2.2862   25.3403 H   0  0  0  0  0  0  0  0  0  0  0  0
    6.9039   -5.8776   24.5987 H   0  0  0  0  0  0  0  0  0  0  0  0
    5.3964   -5.6738   23.6839 H   0  0  0  0  0  0  0  0  0  0  0  0
    7.9211   -5.1301   22.5680 H   0  0  0  0  0  0  0  0  0  0  0  0
    6.4118   -4.3503   22.0223 H   0  0  0  0  0  0  0  0  0  0  0  0
    8.4540   -3.2758   24.0182 H   0  0  0  0  0  0  0  0  0  0  0  0
    6.8007   -1.7050   21.6090 N   0  0  0  0  0  0  0  0  0  0  0  0
    7.3971   -0.6756   20.9482 N   0  0  0  0  0  0  0  0  0  0  0  0
    6.6873   -0.0269   19.8920 C   0  0  0  0  0  0  0  0  0  0  0  0
    5.4582    0.5902   20.1513 C   0  0  0  0  0  0  0  0  0  0  0  0
    4.8324    1.2747   19.1054 C   0  0  0  0  0  0  0  0  0  0  0  0
    5.4245    1.2802   17.8368 C   0  0  0  0  0  0  0  0  0  0  0  0
    6.5749    0.6421   17.5698 N   0  0  0  0  0  0  0  0  0  0  0  0
    7.1829    0.0041   18.5779 C   0  0  0  0  0  0  0  0  0  0  0  0
    8.1062   -0.5159   18.3279 H   0  0  0  0  0  0  0  0  0  0  0  0
    4.9508    1.7991   17.0042 H   0  0  0  0  0  0  0  0  0  0  0  0
    3.8965    1.7971   19.2631 H   0  0  0  0  0  0  0  0  0  0  0  0
    5.0273    0.5451   21.1522 H   0  0  0  0  0  0  0  0  0  0  0  0
   10.5035    0.5034   21.5342 H   0  0  0  0  0  0  0  0  0  0  0  0
    9.5165    0.9055   20.1311 H   0  0  0  0  0  0  0  0  0  0  0  0
    7.5717    2.3124   20.3628 H   0  0  0  0  0  0  0  0  0  0  0  0
    6.6836    4.4653   21.3219 H   0  0  0  0  0  0  0  0  0  0  0  0
    7.6108    5.2821   23.4704 H   0  0  0  0  0  0  0  0  0  0  0  0
    9.2723    3.9115   24.7067 H   0  0  0  0  0  0  0  0  0  0  0  0
   10.1267    1.6157   25.1128 H   0  0  0  0  0  0  0  0  0  0  0  0
   10.2968    0.4552   23.8194 H   0  0  0  0  0  0  0  0  0  0  0  0
   12.5272    1.5038   24.4309 H   0  0  0  0  0  0  0  0  0  0  0  0
   11.8715    3.1036   24.0418 H   0  0  0  0  0  0  0  0  0  0  0  0
   12.0718    1.9019   22.7578 H   0  0  0  0  0  0  0  0  0  0  0  0
  1  2  1  0
  2  3  1  0
  3  4  2  0
  4  5  1  0
  5  6  2  0
  6  7  1  0
  7  8  2  0
  8  9  1  0
  9 10  1  0
 10 11  2  0
 11 12  1  0
 12 13  1  0
 13 14  1  0
 14 15  1  0
 15 16  1  0
 16 17  1  0
 17 18  1  0
 17 19  1  0
 15 20  1  0
 15 21  1  0
 14 22  1  0
 14 23  1  0
 13 24  1  0
 12 25  2  0
 25 26  1  0
 26 27  1  0
 27 28  2  0
 28 29  1  0
 29 30  2  0
 30 31  1  0
 31 32  2  0
 32 33  1  0
 30 34  1  0
 29 35  1  0
 28 36  1  0
  9 37  1  0
  9 38  1  0
  7 39  1  0
  6 40  1  0
  5 41  1  0
  4 42  1  0
  2 43  1  0
  2 44  1  0
  1 45  1  0
  1 46  1  0
  1 47  1  0
  8  3  1  0
 26 10  1  0
 32 27  1  0
 17 13  1  0
M  END
>  <cnnaffinity>  (1) 
-6.64201

>  <filename>  (1) 
CCc1ccccc1Cc1nc(C2CCOC2)nn1-c1cccnc1

$$$$
