
     RDKit          3D

 46 49  0  0  0  0  0  0  0  0999 V2000
   12.6571    0.3107   23.7101 C   0  0  0  0  0  0  0  0  0  0  0  0
   12.5013    1.5981   22.8909 C   0  0  0  0  0  0  0  0  0  0  0  0
   11.1138    2.1745   23.0759 C   0  0  0  0  0  0  0  0  0  0  0  0
   10.8218    2.9856   24.1771 C   0  0  0  0  0  0  0  0  0  0  0  0
    9.5228    3.4395   24.4395 C   0  0  0  0  0  0  0  0  0  0  0  0
    8.5137    3.1743   23.5140 C   0  0  0  0  0  0  0  0  0  0  0  0
    8.7862    2.4101   22.3710 C   0  0  0  0  0  0  0  0  0  0  0  0
   10.0556    1.8348   22.2108 C   0  0  0  0  0  0  0  0  0  0  0  0
   10.3744    0.9410   21.2227 O   0  0  0  0  0  0  0  0  0  0  0  0
    9.4235    0.1627   20.5283 C   0  0  0  0  0  0  0  0  0  0  0  0
    8.4382   -0.6440   21.3275 C   0  0  0  0  0  0  0  0  0  0  0  0
    8.6544   -1.3845   22.3885 N   0  0  0  0  0  0  0  0  0  0  0  0
    7.4438   -2.0019   22.5982 C   0  0  0  0  0  0  0  0  0  0  0  0
    7.2337   -2.9851   23.7308 C   0  0  0  0  0  0  0  0  0  0  0  0
    8.3300   -3.3473   24.5494 C   0  0  0  0  0  0  0  0  0  0  0  0
    8.1365   -4.2563   25.5906 C   0  0  0  0  0  0  0  0  0  0  0  0
    6.8603   -4.7851   25.7851 C   0  0  0  0  0  0  0  0  0  0  0  0
    5.8341   -4.3852   24.9228 C   0  0  0  0  0  0  0  0  0  0  0  0
    6.0042   -3.5139   23.9244 N   0  0  0  0  0  0  0  0  0  0  0  0
    4.8295   -4.7897   25.0285 H   0  0  0  0  0  0  0  0  0  0  0  0
    6.6510   -5.4957   26.5771 H   0  0  0  0  0  0  0  0  0  0  0  0
    8.9683   -4.5547   26.2310 H   0  0  0  0  0  0  0  0  0  0  0  0
    9.3081   -2.9211   24.3529 H   0  0  0  0  0  0  0  0  0  0  0  0
    6.5178   -1.6702   21.7076 N   0  0  0  0  0  0  0  0  0  0  0  0
    7.1645   -0.8336   20.8729 N   0  0  0  0  0  0  0  0  0  0  0  0
    6.4795   -0.1756   19.8103 C   0  0  0  0  0  0  0  0  0  0  0  0
    5.3113    0.5471   20.0650 C   0  0  0  0  0  0  0  0  0  0  0  0
    4.7804    1.3165   19.0260 C   0  0  0  0  0  0  0  0  0  0  0  0
    5.4031    1.2993   17.7713 C   0  0  0  0  0  0  0  0  0  0  0  0
    6.4798    0.5466   17.5014 N   0  0  0  0  0  0  0  0  0  0  0  0
    6.9918   -0.1801   18.4988 C   0  0  0  0  0  0  0  0  0  0  0  0
    7.8697   -0.7738   18.2557 H   0  0  0  0  0  0  0  0  0  0  0  0
    5.0251    1.9077   16.9538 H   0  0  0  0  0  0  0  0  0  0  0  0
    3.9099    1.9435   19.1776 H   0  0  0  0  0  0  0  0  0  0  0  0
    4.8610    0.5086   21.0592 H   0  0  0  0  0  0  0  0  0  0  0  0
   10.0296   -0.5595   19.9734 H   0  0  0  0  0  0  0  0  0  0  0  0
    8.8964    0.7877   19.8032 H   0  0  0  0  0  0  0  0  0  0  0  0
    8.0237    2.2669   21.6127 H   0  0  0  0  0  0  0  0  0  0  0  0
    7.5105    3.5546   23.6888 H   0  0  0  0  0  0  0  0  0  0  0  0
    9.3157    3.9712   25.3632 H   0  0  0  0  0  0  0  0  0  0  0  0
   11.6479    3.2587   24.8194 H   0  0  0  0  0  0  0  0  0  0  0  0
   13.2353    2.3589   23.1820 H   0  0  0  0  0  0  0  0  0  0  0  0
   12.6826    1.3853   21.8302 H   0  0  0  0  0  0  0  0  0  0  0  0
   12.4591    0.5045   24.7697 H   0  0  0  0  0  0  0  0  0  0  0  0
   13.6623   -0.1122   23.6244 H   0  0  0  0  0  0  0  0  0  0  0  0
   11.9147   -0.4310   23.3833 H   0  0  0  0  0  0  0  0  0  0  0  0
  1  2  1  0
  2  3  1  0
  3  4  2  0
  4  5  1  0
  5  6  2  0
  6  7  1  0
  7  8  2  0
  8  9  1  0
  9 10  1  0
 10 11  1  0
 11 12  2  0
 12 13  1  0
 13 14  1  0
 14 15  2  0
 15 16  1  0
 16 17  2  0
 17 18  1  0
 18 19  2  0
 18 20  1  0
 17 21  1  0
 16 22  1  0
 15 23  1  0
 13 24  2  0
 24 25  1  0
 25 26  1  0
 26 27  2  0
 27 28  1  0
 28 29  2  0
 29 30  1  0
 30 31  2  0
 31 32  1  0
 29 33  1  0
 28 34  1  0
 27 35  1  0
 10 36  1  0
 10 37  1  0
  7 38  1  0
  6 39  1  0
  5 40  1  0
  4 41  1  0
  2 42  1  0
  2 43  1  0
  1 44  1  0
  1 45  1  0
  1 46  1  0
  8  3  1  0
 25 11  1  0
 31 26  1  0
 19 14  1  0
M  END
>  <cnnaffinity>  (1) 
-6.34314

>  <filename>  (1) 
CCc1ccccc1OCc1nc(-c2ccccn2)nn1-c1cccnc1

$$$$
