
     RDKit          3D

 47 50  0  0  0  0  0  0  0  0999 V2000
   12.5353    0.3425   23.8843 C   0  0  0  0  0  0  0  0  0  0  0  0
   12.5462    1.6158   23.0291 C   0  0  0  0  0  0  0  0  0  0  0  0
   11.2016    2.2929   23.1182 C   0  0  0  0  0  0  0  0  0  0  0  0
   10.9366    3.2731   24.0822 C   0  0  0  0  0  0  0  0  0  0  0  0
    9.6330    3.7134   24.3274 C   0  0  0  0  0  0  0  0  0  0  0  0
    8.5841    3.2180   23.5464 C   0  0  0  0  0  0  0  0  0  0  0  0
    8.8359    2.3204   22.4960 C   0  0  0  0  0  0  0  0  0  0  0  0
   10.1300    1.8209   22.3211 C   0  0  0  0  0  0  0  0  0  0  0  0
   10.4604    0.8472   21.4088 O   0  0  0  0  0  0  0  0  0  0  0  0
    9.4954    0.2057   20.6009 C   0  0  0  0  0  0  0  0  0  0  0  0
    8.4882   -0.6535   21.3103 C   0  0  0  0  0  0  0  0  0  0  0  0
    8.7212   -1.4400   22.3377 N   0  0  0  0  0  0  0  0  0  0  0  0
    7.5244   -2.0511   22.5338 C   0  0  0  0  0  0  0  0  0  0  0  0
    7.3272   -3.0279   23.6327 C   0  0  2  0  0  0  0  0  0  0  0  0
    8.1827   -4.2764   23.7279 C   0  0  0  0  0  0  0  0  0  0  0  0
    6.7310   -4.3801   23.3537 C   0  0  1  0  0  0  0  0  0  0  0  0
    5.7575   -4.9733   24.3445 C   0  0  0  0  0  0  0  0  0  0  0  0
    5.7214   -6.0627   24.2439 H   0  0  0  0  0  0  0  0  0  0  0  0
    4.7439   -4.5810   24.2097 H   0  0  0  0  0  0  0  0  0  0  0  0
    6.0679   -4.7462   25.3722 H   0  0  0  0  0  0  0  0  0  0  0  0
    6.5234   -4.5802   22.3003 H   0  0  0  0  0  0  0  0  0  0  0  0
    8.9371   -4.4285   22.9566 H   0  0  0  0  0  0  0  0  0  0  0  0
    8.4815   -4.6273   24.7181 H   0  0  0  0  0  0  0  0  0  0  0  0
    7.0378   -2.5298   24.5606 H   0  0  0  0  0  0  0  0  0  0  0  0
    6.5742   -1.6982   21.6857 N   0  0  0  0  0  0  0  0  0  0  0  0
    7.2042   -0.8207   20.8700 N   0  0  0  0  0  0  0  0  0  0  0  0
    6.4984   -0.1590   19.8272 C   0  0  0  0  0  0  0  0  0  0  0  0
    5.3249    0.5569   20.0897 C   0  0  0  0  0  0  0  0  0  0  0  0
    4.7792    1.3104   19.0457 C   0  0  0  0  0  0  0  0  0  0  0  0
    5.3906    1.2816   17.7866 C   0  0  0  0  0  0  0  0  0  0  0  0
    6.4737    0.5394   17.5145 N   0  0  0  0  0  0  0  0  0  0  0  0
    7.0022   -0.1704   18.5153 C   0  0  0  0  0  0  0  0  0  0  0  0
    7.8829   -0.7648   18.2787 H   0  0  0  0  0  0  0  0  0  0  0  0
    4.9971    1.8709   16.9631 H   0  0  0  0  0  0  0  0  0  0  0  0
    3.9095    1.9384   19.1994 H   0  0  0  0  0  0  0  0  0  0  0  0
    4.8849    0.5331   21.0884 H   0  0  0  0  0  0  0  0  0  0  0  0
    9.0031    0.9235   19.9396 H   0  0  0  0  0  0  0  0  0  0  0  0
   10.0824   -0.4678   19.9761 H   0  0  0  0  0  0  0  0  0  0  0  0
    8.0533    2.0186   21.7991 H   0  0  0  0  0  0  0  0  0  0  0  0
    7.5615    3.5255   23.7447 H   0  0  0  0  0  0  0  0  0  0  0  0
    9.4508    4.4352   25.1207 H   0  0  0  0  0  0  0  0  0  0  0  0
   11.7638    3.6990   24.6449 H   0  0  0  0  0  0  0  0  0  0  0  0
   13.3373    2.3036   23.3387 H   0  0  0  0  0  0  0  0  0  0  0  0
   12.7588    1.3586   21.9859 H   0  0  0  0  0  0  0  0  0  0  0  0
   13.5115   -0.1471   23.9005 H   0  0  0  0  0  0  0  0  0  0  0  0
   12.2522    0.5647   24.9197 H   0  0  0  0  0  0  0  0  0  0  0  0
   11.7855   -0.3532   23.4892 H   0  0  0  0  0  0  0  0  0  0  0  0
  1  2  1  0
  2  3  1  0
  3  4  2  0
  4  5  1  0
  5  6  2  0
  6  7  1  0
  7  8  2  0
  8  9  1  0
  9 10  1  0
 10 11  1  0
 11 12  2  0
 12 13  1  0
 13 14  1  0
 14 15  1  0
 15 16  1  0
 16 17  1  0
 17 18  1  0
 17 19  1  0
 17 20  1  0
 16 21  1  6
 15 22  1  0
 15 23  1  0
 14 24  1  1
 13 25  2  0
 25 26  1  0
 26 27  1  0
 27 28  2  0
 28 29  1  0
 29 30  2  0
 30 31  1  0
 31 32  2  0
 32 33  1  0
 30 34  1  0
 29 35  1  0
 28 36  1  0
 10 37  1  0
 10 38  1  0
  7 39  1  0
  6 40  1  0
  5 41  1  0
  4 42  1  0
  2 43  1  0
  2 44  1  0
  1 45  1  0
  1 46  1  0
  1 47  1  0
  8  3  1  0
 26 11  1  0
 32 27  1  0
 16 14  1  0
M  END
>  <cnnaffinity>  (1) 
-6.32809

>  <filename>  (1) 
CCc1ccccc1OCc1nc([C@@H]2C[C@H]2C)nn1-c1cccnc1

$$$$
