
     RDKit          3D

 39 41  0  0  0  0  0  0  0  0999 V2000
    7.0026   -2.0459   25.0091 C   0  0  0  0  0  0  0  0  0  0  0  0
    7.4005   -2.8317   23.7449 C   0  0  0  0  0  0  0  0  0  0  0  0
    7.6661   -1.9380   22.5804 C   0  0  0  0  0  0  0  0  0  0  0  0
    6.7330   -1.5856   21.7207 N   0  0  0  0  0  0  0  0  0  0  0  0
    7.3633   -0.6713   20.9407 N   0  0  0  0  0  0  0  0  0  0  0  0
    6.6598    0.0038   19.9039 C   0  0  0  0  0  0  0  0  0  0  0  0
    5.4431    0.6439   20.1661 C   0  0  0  0  0  0  0  0  0  0  0  0
    4.8151    1.3104   19.1092 C   0  0  0  0  0  0  0  0  0  0  0  0
    5.4002    1.2968   17.8366 C   0  0  0  0  0  0  0  0  0  0  0  0
    6.5575    0.6704   17.5746 N   0  0  0  0  0  0  0  0  0  0  0  0
    7.1661    0.0499   18.5927 C   0  0  0  0  0  0  0  0  0  0  0  0
    8.1109   -0.4353   18.3650 H   0  0  0  0  0  0  0  0  0  0  0  0
    4.9230    1.7889   16.9916 H   0  0  0  0  0  0  0  0  0  0  0  0
    3.8822    1.8375   19.2608 H   0  0  0  0  0  0  0  0  0  0  0  0
    5.0152    0.6066   21.1725 H   0  0  0  0  0  0  0  0  0  0  0  0
    8.6395   -0.5023   21.4038 C   0  0  0  0  0  0  0  0  0  0  0  0
    9.5227    0.6139   20.9478 C   0  0  0  0  0  0  0  0  0  0  0  0
    9.0499    2.0129   21.4406 C   0  0  0  0  0  0  0  0  0  0  0  0
    8.9104    2.0689   22.9466 C   0  0  0  0  0  0  0  0  0  0  0  0
    7.6675    1.8195   23.5582 C   0  0  0  0  0  0  0  0  0  0  0  0
    7.5184    1.7647   24.9452 C   0  0  0  0  0  0  0  0  0  0  0  0
    8.6377    1.9318   25.7661 C   0  0  0  0  0  0  0  0  0  0  0  0
    9.8919    2.1181   25.1870 C   0  0  0  0  0  0  0  0  0  0  0  0
   10.0155    2.2088   23.8001 C   0  0  0  0  0  0  0  0  0  0  0  0
   11.6164    2.4736   23.1562 Cl  0  0  0  0  0  0  0  0  0  0  0  0
   10.7930    2.1215   25.7816 H   0  0  0  0  0  0  0  0  0  0  0  0
    8.5505    1.8967   26.8498 H   0  0  0  0  0  0  0  0  0  0  0  0
    6.5450    1.5588   25.3847 H   0  0  0  0  0  0  0  0  0  0  0  0
    6.8144    1.6340   22.9135 H   0  0  0  0  0  0  0  0  0  0  0  0
    9.7646    2.7717   21.1036 H   0  0  0  0  0  0  0  0  0  0  0  0
    8.0830    2.2523   20.9809 H   0  0  0  0  0  0  0  0  0  0  0  0
   10.5276    0.3998   21.3171 H   0  0  0  0  0  0  0  0  0  0  0  0
    9.5733    0.6174   19.8569 H   0  0  0  0  0  0  0  0  0  0  0  0
    8.8697   -1.3259   22.4074 N   0  0  0  0  0  0  0  0  0  0  0  0
    8.3134   -3.4049   23.9230 H   0  0  0  0  0  0  0  0  0  0  0  0
    6.6148   -3.5326   23.4569 H   0  0  0  0  0  0  0  0  0  0  0  0
    6.7961   -2.7176   25.8472 H   0  0  0  0  0  0  0  0  0  0  0  0
    6.1069   -1.4390   24.8311 H   0  0  0  0  0  0  0  0  0  0  0  0
    7.8063   -1.3639   25.3123 H   0  0  0  0  0  0  0  0  0  0  0  0
  1  2  1  0
  2  3  1  0
  3  4  2  0
  4  5  1  0
  5  6  1  0
  6  7  2  0
  7  8  1  0
  8  9  2  0
  9 10  1  0
 10 11  2  0
 11 12  1  0
  9 13  1  0
  8 14  1  0
  7 15  1  0
  5 16  1  0
 16 17  1  0
 17 18  1  0
 18 19  1  0
 19 20  2  0
 20 21  1  0
 21 22  2  0
 22 23  1  0
 23 24  2  0
 24 25  1  0
 23 26  1  0
 22 27  1  0
 21 28  1  0
 20 29  1  0
 18 30  1  0
 18 31  1  0
 17 32  1  0
 17 33  1  0
 16 34  2  0
  2 35  1  0
  2 36  1  0
  1 37  1  0
  1 38  1  0
  1 39  1  0
 34  3  1  0
 11  6  1  0
 24 19  1  0
M  END
>  <cnnaffinity>  (1) 
-5.78099

>  <filename>  (1) 
CCc1nc(CCc2ccccc2Cl)n(-c2cccnc2)n1

$$$$
