
     RDKit          3D

 43 46  0  0  0  0  0  0  0  0999 V2000
   11.8320    2.0110   23.7829 C   0  0  0  0  0  0  0  0  0  0  0  0
   10.4079    1.5049   24.0399 C   0  0  0  0  0  0  0  0  0  0  0  0
    9.3967    2.3181   23.2422 C   0  0  0  0  0  0  0  0  0  0  0  0
    8.9434    3.5496   23.7614 C   0  0  0  0  0  0  0  0  0  0  0  0
    7.9972    4.3285   23.0844 C   0  0  0  0  0  0  0  0  0  0  0  0
    7.4675    3.8784   21.8750 C   0  0  0  0  0  0  0  0  0  0  0  0
    7.9497    2.6836   21.3344 C   0  0  0  0  0  0  0  0  0  0  0  0
    8.9571    1.9433   21.9600 C   0  0  0  0  0  0  0  0  0  0  0  0
    9.4761    0.7119   21.2239 C   0  0  0  0  0  0  0  0  0  0  0  0
    8.6074   -0.4764   21.4857 C   0  0  0  0  0  0  0  0  0  0  0  0
    8.8255   -1.3770   22.4131 N   0  0  0  0  0  0  0  0  0  0  0  0
    7.6623   -2.1021   22.4563 C   0  0  0  0  0  0  0  0  0  0  0  0
    7.4922   -3.1972   23.4468 C   0  0  0  0  0  0  0  0  0  0  0  0
    6.3871   -3.9461   23.5546 N   0  0  0  0  0  0  0  0  0  0  0  0
    6.6340   -4.7791   24.5637 N   0  0  0  0  0  0  0  0  0  0  0  0
    7.8588   -4.6053   25.1194 C   0  0  0  0  0  0  0  0  0  0  0  0
    8.4550   -3.5860   24.4237 C   0  0  0  0  0  0  0  0  0  0  0  0
    9.4327   -3.1501   24.5752 H   0  0  0  0  0  0  0  0  0  0  0  0
    8.2021   -5.2130   25.9472 H   0  0  0  0  0  0  0  0  0  0  0  0
    5.9078   -5.4229   24.8370 H   0  0  0  0  0  0  0  0  0  0  0  0
    6.7544   -1.6964   21.5816 N   0  0  0  0  0  0  0  0  0  0  0  0
    7.3708   -0.6766   20.9354 N   0  0  0  0  0  0  0  0  0  0  0  0
    6.6766   -0.0162   19.8766 C   0  0  0  0  0  0  0  0  0  0  0  0
    5.4455    0.5966   20.1338 C   0  0  0  0  0  0  0  0  0  0  0  0
    4.8253    1.2832   19.0877 C   0  0  0  0  0  0  0  0  0  0  0  0
    5.4221    1.2937   17.8214 C   0  0  0  0  0  0  0  0  0  0  0  0
    6.5714    0.6548   17.5551 N   0  0  0  0  0  0  0  0  0  0  0  0
    7.1762    0.0140   18.5634 C   0  0  0  0  0  0  0  0  0  0  0  0
    8.0985   -0.5051   18.3122 H   0  0  0  0  0  0  0  0  0  0  0  0
    4.9536    1.8147   16.9884 H   0  0  0  0  0  0  0  0  0  0  0  0
    3.8928    1.8107   19.2413 H   0  0  0  0  0  0  0  0  0  0  0  0
    5.0114    0.5478   21.1345 H   0  0  0  0  0  0  0  0  0  0  0  0
   10.4931    0.4606   21.5431 H   0  0  0  0  0  0  0  0  0  0  0  0
    9.5036    0.8931   20.1449 H   0  0  0  0  0  0  0  0  0  0  0  0
    7.5546    2.2995   20.4014 H   0  0  0  0  0  0  0  0  0  0  0  0
    6.6929    4.4470   21.3545 H   0  0  0  0  0  0  0  0  0  0  0  0
    7.6650    5.2736   23.5088 H   0  0  0  0  0  0  0  0  0  0  0  0
    9.3327    3.8899   24.7158 H   0  0  0  0  0  0  0  0  0  0  0  0
   10.1832    1.5899   25.1109 H   0  0  0  0  0  0  0  0  0  0  0  0
   10.3275    0.4304   23.8122 H   0  0  0  0  0  0  0  0  0  0  0  0
   11.9123    3.0818   24.0118 H   0  0  0  0  0  0  0  0  0  0  0  0
   12.0895    1.8821   22.7248 H   0  0  0  0  0  0  0  0  0  0  0  0
   12.5752    1.4835   24.3885 H   0  0  0  0  0  0  0  0  0  0  0  0
  1  2  1  0
  2  3  1  0
  3  4  2  0
  4  5  1  0
  5  6  2  0
  6  7  1  0
  7  8  2  0
  8  9  1  0
  9 10  1  0
 10 11  2  0
 11 12  1  0
 12 13  1  0
 13 14  2  0
 14 15  1  0
 15 16  1  0
 16 17  2  0
 17 18  1  0
 16 19  1  0
 15 20  1  0
 12 21  2  0
 21 22  1  0
 22 23  1  0
 23 24  2  0
 24 25  1  0
 25 26  2  0
 26 27  1  0
 27 28  2  0
 28 29  1  0
 26 30  1  0
 25 31  1  0
 24 32  1  0
  9 33  1  0
  9 34  1  0
  7 35  1  0
  6 36  1  0
  5 37  1  0
  4 38  1  0
  2 39  1  0
  2 40  1  0
  1 41  1  0
  1 42  1  0
  1 43  1  0
  8  3  1  0
 22 10  1  0
 28 23  1  0
 17 13  1  0
M  END
>  <cnnaffinity>  (1) 
-6.58133

>  <filename>  (1) 
CCc1ccccc1Cc1nc(-c2cc[nH]n2)nn1-c1cccnc1

$$$$
