
     RDKit          3D

 46 49  0  0  0  0  0  0  0  0999 V2000
   10.6371    2.8881   24.2448 C   0  0  0  0  0  0  0  0  0  0  0  0
   10.1442    1.5234   24.7754 C   0  0  0  0  0  0  0  0  0  0  0  0
    8.6636    1.4836   25.0392 C   0  0  0  0  0  0  0  0  0  0  0  0
    8.1672    1.3946   26.2695 N   0  0  0  0  0  0  0  0  0  0  0  0
    6.8328    1.4005   26.0991 N   0  0  0  0  0  0  0  0  0  0  0  0
    6.4516    1.4886   24.8005 C   0  0  0  0  0  0  0  0  0  0  0  0
    5.0446    1.4967   24.2694 C   0  0  0  0  0  0  0  0  0  0  0  0
    3.9082    1.5141   25.2936 C   0  0  0  0  0  0  0  0  0  0  0  0
    2.9395    1.4260   24.7919 H   0  0  0  0  0  0  0  0  0  0  0  0
    3.9022    2.4539   25.8542 H   0  0  0  0  0  0  0  0  0  0  0  0
    3.9843    0.6922   26.0167 H   0  0  0  0  0  0  0  0  0  0  0  0
    4.9635    2.3679   23.6034 H   0  0  0  0  0  0  0  0  0  0  0  0
    4.9547    0.6396   23.5904 H   0  0  0  0  0  0  0  0  0  0  0  0
    7.6258    1.5374   24.0712 C   0  0  0  0  0  0  0  0  0  0  0  0
    7.7764    1.3820   22.5733 C   0  0  0  0  0  0  0  0  0  0  0  0
    7.8012   -0.0571   22.1256 C   0  0  0  0  0  0  0  0  0  0  0  0
    8.3658   -1.0358   22.8050 N   0  0  0  0  0  0  0  0  0  0  0  0
    8.1555   -2.1465   22.0482 C   0  0  0  0  0  0  0  0  0  0  0  0
    8.4195   -3.5464   22.4995 C   0  0  0  0  0  0  0  0  0  0  0  0
    9.0141   -3.8569   23.6586 N   0  0  0  0  0  0  0  0  0  0  0  0
    8.9327   -5.1803   23.7469 N   0  0  0  0  0  0  0  0  0  0  0  0
    8.2994   -5.7553   22.6929 C   0  0  0  0  0  0  0  0  0  0  0  0
    7.9518   -4.7288   21.8556 C   0  0  0  0  0  0  0  0  0  0  0  0
    7.3906   -4.7616   20.9331 H   0  0  0  0  0  0  0  0  0  0  0  0
    8.1107   -6.8194   22.6456 H   0  0  0  0  0  0  0  0  0  0  0  0
    9.2387   -5.6097   24.6083 H   0  0  0  0  0  0  0  0  0  0  0  0
    7.5422   -1.8848   20.8939 N   0  0  0  0  0  0  0  0  0  0  0  0
    7.3170   -0.5510   20.9421 N   0  0  0  0  0  0  0  0  0  0  0  0
    6.6209    0.0953   19.8747 C   0  0  0  0  0  0  0  0  0  0  0  0
    5.4167    0.7766   20.0912 C   0  0  0  0  0  0  0  0  0  0  0  0
    4.7906    1.3913   19.0006 C   0  0  0  0  0  0  0  0  0  0  0  0
    5.3999    1.3171   17.7468 C   0  0  0  0  0  0  0  0  0  0  0  0
    6.5469    0.6486   17.5299 N   0  0  0  0  0  0  0  0  0  0  0  0
    7.1314    0.0373   18.5656 C   0  0  0  0  0  0  0  0  0  0  0  0
    8.0471   -0.5110   18.3456 H   0  0  0  0  0  0  0  0  0  0  0  0
    4.9486    1.7918   16.8785 H   0  0  0  0  0  0  0  0  0  0  0  0
    3.8594    1.9322   19.1187 H   0  0  0  0  0  0  0  0  0  0  0  0
    4.9833    0.8104   21.0909 H   0  0  0  0  0  0  0  0  0  0  0  0
    8.7223    1.8248   22.2338 H   0  0  0  0  0  0  0  0  0  0  0  0
    6.9854    1.9267   22.0483 H   0  0  0  0  0  0  0  0  0  0  0  0
    6.2434    1.3460   26.9181 H   0  0  0  0  0  0  0  0  0  0  0  0
   10.6626    1.2778   25.7090 H   0  0  0  0  0  0  0  0  0  0  0  0
   10.3724    0.7186   24.0566 H   0  0  0  0  0  0  0  0  0  0  0  0
   10.2065    3.7142   24.8220 H   0  0  0  0  0  0  0  0  0  0  0  0
   11.7298    2.9761   24.2945 H   0  0  0  0  0  0  0  0  0  0  0  0
   10.3306    3.0441   23.2039 H   0  0  0  0  0  0  0  0  0  0  0  0
  1  2  1  0
  2  3  1  0
  3  4  2  0
  4  5  1  0
  5  6  1  0
  6  7  1  0
  7  8  1  0
  8  9  1  0
  8 10  1  0
  8 11  1  0
  7 12  1  0
  7 13  1  0
  6 14  2  0
 14 15  1  0
 15 16  1  0
 16 17  2  0
 17 18  1  0
 18 19  1  0
 19 20  2  0
 20 21  1  0
 21 22  1  0
 22 23  2  0
 23 24  1  0
 22 25  1  0
 21 26  1  0
 18 27  2  0
 27 28  1  0
 28 29  1  0
 29 30  2  0
 30 31  1  0
 31 32  2  0
 32 33  1  0
 33 34  2  0
 34 35  1  0
 32 36  1  0
 31 37  1  0
 30 38  1  0
 15 39  1  0
 15 40  1  0
  5 41  1  0
  2 42  1  0
  2 43  1  0
  1 44  1  0
  1 45  1  0
  1 46  1  0
 14  3  1  0
 28 16  1  0
 34 29  1  0
 23 19  1  0
M  END
>  <cnnaffinity>  (1) 
-6.13555

>  <filename>  (1) 
CCc1n[nH]c(CC)c1Cc1nc(-c2cc[nH]n2)nn1-c1cccnc1

$$$$
