
     RDKit          3D

 35 37  0  0  0  0  0  0  0  0999 V2000
    9.1015    1.9631   21.5527 C   0  0  0  0  0  0  0  0  0  0  0  0
    9.5285    0.6109   20.9672 C   0  0  0  0  0  0  0  0  0  0  0  0
    8.6280   -0.4918   21.4046 C   0  0  0  0  0  0  0  0  0  0  0  0
    8.8523   -1.3052   22.4032 N   0  0  0  0  0  0  0  0  0  0  0  0
    7.6757   -1.9686   22.5663 C   0  0  0  0  0  0  0  0  0  0  0  0
    7.4611   -3.0051   23.6622 C   0  0  0  0  0  0  0  0  0  0  0  0
    8.3042   -2.9363   24.7078 N   0  0  0  0  0  0  0  0  0  0  0  0
    8.1638   -3.7590   25.7424 C   0  0  0  0  0  0  0  0  0  0  0  0
    7.1653   -4.7305   25.8103 C   0  0  0  0  0  0  0  0  0  0  0  0
    6.2921   -4.8547   24.7441 C   0  0  0  0  0  0  0  0  0  0  0  0
    6.4467   -4.0055   23.6366 C   0  0  0  0  0  0  0  0  0  0  0  0
    5.5160   -4.1776   22.4532 C   0  0  0  0  0  0  0  0  0  0  0  0
    4.6361   -3.1747   22.3428 F   0  0  0  0  0  0  0  0  0  0  0  0
    4.7791   -5.3063   22.5386 F   0  0  0  0  0  0  0  0  0  0  0  0
    6.1822   -4.2543   21.2896 F   0  0  0  0  0  0  0  0  0  0  0  0
    5.5009   -5.6082   24.7626 H   0  0  0  0  0  0  0  0  0  0  0  0
    7.0920   -5.3748   26.6774 H   0  0  0  0  0  0  0  0  0  0  0  0
    8.8814   -3.6300   26.5463 H   0  0  0  0  0  0  0  0  0  0  0  0
    6.7392   -1.6144   21.6802 N   0  0  0  0  0  0  0  0  0  0  0  0
    7.3569   -0.6730   20.9377 N   0  0  0  0  0  0  0  0  0  0  0  0
    6.6564    0.0058   19.8980 C   0  0  0  0  0  0  0  0  0  0  0  0
    5.4376    0.6388   20.1688 C   0  0  0  0  0  0  0  0  0  0  0  0
    4.8123    1.3088   19.1103 C   0  0  0  0  0  0  0  0  0  0  0  0
    5.4017    1.2955   17.8394 C   0  0  0  0  0  0  0  0  0  0  0  0
    6.5608    0.6731   17.5762 N   0  0  0  0  0  0  0  0  0  0  0  0
    7.1681    0.0535   18.5913 C   0  0  0  0  0  0  0  0  0  0  0  0
    8.1141   -0.4348   18.3688 H   0  0  0  0  0  0  0  0  0  0  0  0
    4.9176    1.7835   16.9953 H   0  0  0  0  0  0  0  0  0  0  0  0
    3.8788    1.8406   19.2621 H   0  0  0  0  0  0  0  0  0  0  0  0
    5.0167    0.6043   21.1761 H   0  0  0  0  0  0  0  0  0  0  0  0
   10.5335    0.3388   21.3007 H   0  0  0  0  0  0  0  0  0  0  0  0
    9.5453    0.6589   19.8778 H   0  0  0  0  0  0  0  0  0  0  0  0
    9.0769    1.9086   22.6460 H   0  0  0  0  0  0  0  0  0  0  0  0
    9.8057    2.7475   21.2662 H   0  0  0  0  0  0  0  0  0  0  0  0
    8.0999    2.2450   21.2089 H   0  0  0  0  0  0  0  0  0  0  0  0
  1  2  1  0
  2  3  1  0
  3  4  2  0
  4  5  1  0
  5  6  1  0
  6  7  2  0
  7  8  1  0
  8  9  2  0
  9 10  1  0
 10 11  2  0
 11 12  1  0
 12 13  1  0
 12 14  1  0
 12 15  1  0
 10 16  1  0
  9 17  1  0
  8 18  1  0
  5 19  2  0
 19 20  1  0
 20 21  1  0
 21 22  2  0
 22 23  1  0
 23 24  2  0
 24 25  1  0
 25 26  2  0
 26 27  1  0
 24 28  1  0
 23 29  1  0
 22 30  1  0
  2 31  1  0
  2 32  1  0
  1 33  1  0
  1 34  1  0
  1 35  1  0
 20  3  1  0
 26 21  1  0
 11  6  1  0
M  END
>  <cnnaffinity>  (1) 
-5.64141

>  <filename>  (1) 
CCc1nc(-c2ncccc2C(F)(F)F)nn1-c1cccnc1

$$$$
