
     RDKit          3D

 45 48  0  0  0  0  0  0  0  0999 V2000
    4.8049    0.4300   27.5084 C   0  0  0  0  0  0  0  0  0  0  0  0
    5.5259   -0.5731   26.5912 C   0  0  0  0  0  0  0  0  0  0  0  0
    6.4741    0.1076   25.6509 C   0  0  0  0  0  0  0  0  0  0  0  0
    7.7173    0.3346   25.9946 N   0  0  0  0  0  0  0  0  0  0  0  0
    8.2800    1.0328   24.9482 O   0  0  0  0  0  0  0  0  0  0  0  0
    7.3661    1.2329   23.9911 C   0  0  0  0  0  0  0  0  0  0  0  0
    7.8262    1.9100   22.7318 C   0  0  0  0  0  0  0  0  0  0  0  0
    8.8201    1.0144   22.0771 C   0  0  0  0  0  0  0  0  0  0  0  0
   10.1154    1.0608   22.3128 N   0  0  0  0  0  0  0  0  0  0  0  0
   10.5465   -0.1414   21.8620 C   0  0  0  0  0  0  0  0  0  0  0  0
   11.9405   -0.5967   21.8139 C   0  0  0  0  0  0  0  0  0  0  0  0
   12.1596   -1.7935   21.1165 C   0  0  0  0  0  0  0  0  0  0  0  0
   13.3905   -2.0690   20.5480 C   0  0  0  0  0  0  0  0  0  0  0  0
   14.4088   -1.1497   20.7598 C   0  0  0  0  0  0  0  0  0  0  0  0
   15.4263   -1.1819   19.8939 F   0  0  0  0  0  0  0  0  0  0  0  0
   14.3079   -0.1172   21.7102 C   0  0  0  0  0  0  0  0  0  0  0  0
   13.0423    0.1772   22.2221 C   0  0  0  0  0  0  0  0  0  0  0  0
   12.9025    1.0685   22.8299 H   0  0  0  0  0  0  0  0  0  0  0  0
   15.1487    0.5378   21.9235 H   0  0  0  0  0  0  0  0  0  0  0  0
   13.5403   -2.9205   19.8930 H   0  0  0  0  0  0  0  0  0  0  0  0
   11.2965   -2.4318   20.9744 H   0  0  0  0  0  0  0  0  0  0  0  0
    9.5873   -0.9015   21.3518 N   0  0  0  0  0  0  0  0  0  0  0  0
    8.4868   -0.1455   21.4683 N   0  0  0  0  0  0  0  0  0  0  0  0
    7.2067   -0.7047   21.0435 C   0  0  0  0  0  0  0  0  0  0  0  0
    6.5360    0.0430   19.9166 C   0  0  0  0  0  0  0  0  0  0  0  0
    5.3116    0.6961   20.0804 C   0  0  0  0  0  0  0  0  0  0  0  0
    4.7499    1.3620   18.9893 C   0  0  0  0  0  0  0  0  0  0  0  0
    5.4365    1.3447   17.7714 C   0  0  0  0  0  0  0  0  0  0  0  0
    6.6096    0.7171   17.5919 N   0  0  0  0  0  0  0  0  0  0  0  0
    7.1417    0.0935   18.6492 C   0  0  0  0  0  0  0  0  0  0  0  0
    8.1011   -0.3979   18.4835 H   0  0  0  0  0  0  0  0  0  0  0  0
    5.0317    1.8564   16.9004 H   0  0  0  0  0  0  0  0  0  0  0  0
    3.8149    1.9029   19.0732 H   0  0  0  0  0  0  0  0  0  0  0  0
    4.8152    0.6935   21.0542 H   0  0  0  0  0  0  0  0  0  0  0  0
    7.4326   -1.7326   20.7404 H   0  0  0  0  0  0  0  0  0  0  0  0
    6.5513   -0.7609   21.9174 H   0  0  0  0  0  0  0  0  0  0  0  0
    8.3119    2.8585   22.9629 H   0  0  0  0  0  0  0  0  0  0  0  0
    6.9681    2.0931   22.0842 H   0  0  0  0  0  0  0  0  0  0  0  0
    6.1967    0.6637   24.3694 C   0  0  0  0  0  0  0  0  0  0  0  0
    5.2616    0.6410   23.8400 H   0  0  0  0  0  0  0  0  0  0  0  0
    6.0835   -1.3030   27.1880 H   0  0  0  0  0  0  0  0  0  0  0  0
    4.7935   -1.1401   26.0045 H   0  0  0  0  0  0  0  0  0  0  0  0
    4.2619    1.1747   26.9165 H   0  0  0  0  0  0  0  0  0  0  0  0
    4.0900   -0.0720   28.1675 H   0  0  0  0  0  0  0  0  0  0  0  0
    5.5300    0.9622   28.1338 H   0  0  0  0  0  0  0  0  0  0  0  0
  1  2  1  0
  2  3  1  0
  3  4  2  0
  4  5  1  0
  5  6  1  0
  6  7  1  0
  7  8  1  0
  8  9  2  0
  9 10  1  0
 10 11  1  0
 11 12  2  0
 12 13  1  0
 13 14  2  0
 14 15  1  0
 14 16  1  0
 16 17  2  0
 17 18  1  0
 16 19  1  0
 13 20  1  0
 12 21  1  0
 10 22  2  0
 22 23  1  0
 23 24  1  0
 24 25  1  0
 25 26  2  0
 26 27  1  0
 27 28  2  0
 28 29  1  0
 29 30  2  0
 30 31  1  0
 28 32  1  0
 27 33  1  0
 26 34  1  0
 24 35  1  0
 24 36  1  0
  7 37  1  0
  7 38  1  0
  6 39  2  0
 39 40  1  0
  2 41  1  0
  2 42  1  0
  1 43  1  0
  1 44  1  0
  1 45  1  0
 39  3  1  0
 23  8  1  0
 30 25  1  0
 17 11  1  0
M  END
>  <cnnaffinity>  (1) 
-6.63004

>  <filename>  (1) 
CCc1cc(Cc2nc(-c3ccc(F)cc3)nn2Cc2cccnc2)on1

$$$$
