
     RDKit          3D

 46 49  0  0  0  0  0  0  0  0999 V2000
    7.8913    0.8010   28.4202 C   0  0  0  0  0  0  0  0  0  0  0  0
    8.1761   -0.2016   27.2928 C   0  0  0  0  0  0  0  0  0  0  0  0
    7.5135    0.1752   26.0091 C   0  0  0  0  0  0  0  0  0  0  0  0
    6.2861   -0.0911   25.4554 C   0  0  0  0  0  0  0  0  0  0  0  0
    6.1536    0.5358   24.2349 N   0  0  0  0  0  0  0  0  0  0  0  0
    7.2585    1.2053   24.0696 C   0  0  0  0  0  0  0  0  0  0  0  0
    7.6838    1.8639   22.8030 C   0  0  0  0  0  0  0  0  0  0  0  0
    8.6931    0.9376   22.2350 C   0  0  0  0  0  0  0  0  0  0  0  0
    9.9677    0.9579   22.5781 N   0  0  0  0  0  0  0  0  0  0  0  0
   10.4392   -0.2100   22.0734 C   0  0  0  0  0  0  0  0  0  0  0  0
   11.8554   -0.6344   22.0015 C   0  0  0  0  0  0  0  0  0  0  0  0
   12.9610    0.1596   22.3519 C   0  0  0  0  0  0  0  0  0  0  0  0
   14.2241   -0.1238   21.8215 C   0  0  0  0  0  0  0  0  0  0  0  0
   14.3139   -1.1539   20.8743 C   0  0  0  0  0  0  0  0  0  0  0  0
   15.3177   -1.2037   19.9876 F   0  0  0  0  0  0  0  0  0  0  0  0
   13.2957   -2.0708   20.6824 C   0  0  0  0  0  0  0  0  0  0  0  0
   12.0876   -1.8408   21.3245 C   0  0  0  0  0  0  0  0  0  0  0  0
   11.2379   -2.5011   21.2266 H   0  0  0  0  0  0  0  0  0  0  0  0
   13.4315   -2.8492   19.9369 H   0  0  0  0  0  0  0  0  0  0  0  0
   15.0733    0.5221   22.0283 H   0  0  0  0  0  0  0  0  0  0  0  0
   12.8274    1.0488   22.9578 H   0  0  0  0  0  0  0  0  0  0  0  0
    9.5064   -0.9523   21.4889 N   0  0  0  0  0  0  0  0  0  0  0  0
    8.3943   -0.2096   21.5903 N   0  0  0  0  0  0  0  0  0  0  0  0
    7.1234   -0.7377   21.1098 C   0  0  0  0  0  0  0  0  0  0  0  0
    6.5339    0.0443   19.9610 C   0  0  0  0  0  0  0  0  0  0  0  0
    5.3143    0.7146   20.0851 C   0  0  0  0  0  0  0  0  0  0  0  0
    4.7946    1.3792   18.9737 C   0  0  0  0  0  0  0  0  0  0  0  0
    5.5242    1.3560   17.7817 C   0  0  0  0  0  0  0  0  0  0  0  0
    6.7084    0.7383   17.6482 N   0  0  0  0  0  0  0  0  0  0  0  0
    7.1988    0.1109   18.7242 C   0  0  0  0  0  0  0  0  0  0  0  0
    8.1643   -0.3797   18.5952 H   0  0  0  0  0  0  0  0  0  0  0  0
    5.1363    1.8435   16.8903 H   0  0  0  0  0  0  0  0  0  0  0  0
    3.8532    1.9131   19.0240 H   0  0  0  0  0  0  0  0  0  0  0  0
    4.7864    0.7125   21.0432 H   0  0  0  0  0  0  0  0  0  0  0  0
    7.3400   -1.7716   20.8195 H   0  0  0  0  0  0  0  0  0  0  0  0
    6.4291   -0.7568   21.9576 H   0  0  0  0  0  0  0  0  0  0  0  0
    6.8189    1.9813   22.1504 H   0  0  0  0  0  0  0  0  0  0  0  0
    8.1573    2.8258   22.9958 H   0  0  0  0  0  0  0  0  0  0  0  0
    8.1157    1.0454   25.1121 N   0  0  0  0  0  0  0  0  0  0  0  0
    9.1136    1.1828   24.9997 H   0  0  0  0  0  0  0  0  0  0  0  0
    5.4871   -0.7012   25.8572 H   0  0  0  0  0  0  0  0  0  0  0  0
    7.8556   -1.2071   27.5893 H   0  0  0  0  0  0  0  0  0  0  0  0
    9.2602   -0.2706   27.1258 H   0  0  0  0  0  0  0  0  0  0  0  0
    6.8307    0.7932   28.6910 H   0  0  0  0  0  0  0  0  0  0  0  0
    8.1539    1.8156   28.1004 H   0  0  0  0  0  0  0  0  0  0  0  0
    8.4810    0.5635   29.3121 H   0  0  0  0  0  0  0  0  0  0  0  0
  1  2  1  0
  2  3  1  0
  3  4  2  0
  4  5  1  0
  5  6  2  0
  6  7  1  0
  7  8  1  0
  8  9  2  0
  9 10  1  0
 10 11  1  0
 11 12  2  0
 12 13  1  0
 13 14  2  0
 14 15  1  0
 14 16  1  0
 16 17  2  0
 17 18  1  0
 16 19  1  0
 13 20  1  0
 12 21  1  0
 10 22  2  0
 22 23  1  0
 23 24  1  0
 24 25  1  0
 25 26  2  0
 26 27  1  0
 27 28  2  0
 28 29  1  0
 29 30  2  0
 30 31  1  0
 28 32  1  0
 27 33  1  0
 26 34  1  0
 24 35  1  0
 24 36  1  0
  7 37  1  0
  7 38  1  0
  6 39  1  0
 39 40  1  0
  4 41  1  0
  2 42  1  0
  2 43  1  0
  1 44  1  0
  1 45  1  0
  1 46  1  0
 39  3  1  0
 23  8  1  0
 30 25  1  0
 17 11  1  0
M  END
>  <cnnaffinity>  (1) 
-6.80739

>  <filename>  (1) 
CCc1cnc(Cc2nc(-c3ccc(F)cc3)nn2Cc2cccnc2)[nH]1

$$$$
