
     RDKit          3D

 38 40  0  0  0  0  0  0  0  0999 V2000
    7.7727   -4.5979   22.8206 C   0  0  0  0  0  0  0  0  0  0  0  0
    8.6410   -3.5659   22.0830 C   0  0  0  0  0  0  0  0  0  0  0  0
    8.0929   -2.1882   21.9195 C   0  0  0  0  0  0  0  0  0  0  0  0
    7.6582   -1.7939   20.7467 N   0  0  0  0  0  0  0  0  0  0  0  0
    7.2313   -0.5326   20.9737 N   0  0  0  0  0  0  0  0  0  0  0  0
    6.5667    0.1250   19.9106 C   0  0  0  0  0  0  0  0  0  0  0  0
    5.3501    0.7858   20.0913 C   0  0  0  0  0  0  0  0  0  0  0  0
    4.7722    1.3994   18.9748 C   0  0  0  0  0  0  0  0  0  0  0  0
    5.4241    1.3336   17.7396 C   0  0  0  0  0  0  0  0  0  0  0  0
    6.5663    0.6471   17.5525 N   0  0  0  0  0  0  0  0  0  0  0  0
    7.0990    0.0331   18.6105 C   0  0  0  0  0  0  0  0  0  0  0  0
    7.9885   -0.5645   18.4336 H   0  0  0  0  0  0  0  0  0  0  0  0
    5.0058    1.8244   16.8616 H   0  0  0  0  0  0  0  0  0  0  0  0
    3.8179    1.9060   19.0492 H   0  0  0  0  0  0  0  0  0  0  0  0
    4.8592    0.7770   21.0639 H   0  0  0  0  0  0  0  0  0  0  0  0
    7.5062   -0.2013   22.2780 C   0  0  0  0  0  0  0  0  0  0  0  0
    7.2606    1.1356   22.9197 C   0  0  0  0  0  0  0  0  0  0  0  0
    8.2855    1.5214   24.0185 C   0  0  0  0  0  0  0  0  0  0  0  0
    7.9756    2.8960   24.5690 C   0  0  0  0  0  0  0  0  0  0  0  0
    8.3991    4.0516   23.8878 C   0  0  0  0  0  0  0  0  0  0  0  0
    9.4427    3.9345   22.5090 Cl  0  0  0  0  0  0  0  0  0  0  0  0
    7.9903    5.3227   24.2982 C   0  0  0  0  0  0  0  0  0  0  0  0
    7.2203    5.5241   25.3752 N   0  0  0  0  0  0  0  0  0  0  0  0
    6.8188    4.4521   26.0665 C   0  0  0  0  0  0  0  0  0  0  0  0
    7.1601    3.1453   25.6917 C   0  0  0  0  0  0  0  0  0  0  0  0
    6.5186    1.8385   26.6335 Cl  0  0  0  0  0  0  0  0  0  0  0  0
    6.1909    4.6137   26.9464 H   0  0  0  0  0  0  0  0  0  0  0  0
    8.2947    6.1908   23.7160 H   0  0  0  0  0  0  0  0  0  0  0  0
    8.3008    0.7728   24.8189 H   0  0  0  0  0  0  0  0  0  0  0  0
    9.2923    1.5396   23.5855 H   0  0  0  0  0  0  0  0  0  0  0  0
    6.2642    1.1108   23.3761 H   0  0  0  0  0  0  0  0  0  0  0  0
    7.2237    1.9218   22.1530 H   0  0  0  0  0  0  0  0  0  0  0  0
    8.0371   -1.2443   22.8907 N   0  0  0  0  0  0  0  0  0  0  0  0
    9.6043   -3.4743   22.5916 H   0  0  0  0  0  0  0  0  0  0  0  0
    8.8170   -3.9150   21.0620 H   0  0  0  0  0  0  0  0  0  0  0  0
    7.4652   -4.2555   23.8160 H   0  0  0  0  0  0  0  0  0  0  0  0
    8.3527   -5.5188   22.9536 H   0  0  0  0  0  0  0  0  0  0  0  0
    6.8792   -4.8524   22.2406 H   0  0  0  0  0  0  0  0  0  0  0  0
  1  2  1  0
  2  3  1  0
  3  4  2  0
  4  5  1  0
  5  6  1  0
  6  7  2  0
  7  8  1  0
  8  9  2  0
  9 10  1  0
 10 11  2  0
 11 12  1  0
  9 13  1  0
  8 14  1  0
  7 15  1  0
  5 16  1  0
 16 17  1  0
 17 18  1  0
 18 19  1  0
 19 20  2  0
 20 21  1  0
 20 22  1  0
 22 23  2  0
 23 24  1  0
 24 25  2  0
 25 26  1  0
 24 27  1  0
 22 28  1  0
 18 29  1  0
 18 30  1  0
 17 31  1  0
 17 32  1  0
 16 33  2  0
  2 34  1  0
  2 35  1  0
  1 36  1  0
  1 37  1  0
  1 38  1  0
 33  3  1  0
 11  6  1  0
 25 19  1  0
M  END
>  <cnnaffinity>  (1) 
-5.81253

>  <filename>  (1) 
CCc1nc(CCc2c(Cl)cncc2Cl)n(-c2cccnc2)n1

$$$$
