
     RDKit          3D

 36 38  0  0  0  0  0  0  0  0999 V2000
    9.0921    1.9713   21.5540 C   0  0  0  0  0  0  0  0  0  0  0  0
    9.5191    0.6133   20.9801 C   0  0  0  0  0  0  0  0  0  0  0  0
    8.6235   -0.4931   21.4244 C   0  0  0  0  0  0  0  0  0  0  0  0
    8.8485   -1.3226   22.4175 N   0  0  0  0  0  0  0  0  0  0  0  0
    7.6730   -1.9977   22.5398 C   0  0  0  0  0  0  0  0  0  0  0  0
    7.4576   -3.0354   23.5751 C   0  0  0  0  0  0  0  0  0  0  0  0
    8.4763   -3.3571   24.4955 C   0  0  0  0  0  0  0  0  0  0  0  0
    8.2688   -4.3366   25.4582 C   0  0  0  0  0  0  0  0  0  0  0  0
    7.0378   -5.0158   25.5136 C   0  0  0  0  0  0  0  0  0  0  0  0
    6.7950   -6.0415   26.5979 C   0  0  0  0  0  0  0  0  0  0  0  0
    6.2780   -5.4953   27.7162 F   0  0  0  0  0  0  0  0  0  0  0  0
    5.9275   -7.0046   26.2217 F   0  0  0  0  0  0  0  0  0  0  0  0
    7.9404   -6.6380   26.9744 F   0  0  0  0  0  0  0  0  0  0  0  0
    6.0135   -4.6897   24.6125 C   0  0  0  0  0  0  0  0  0  0  0  0
    6.2220   -3.7098   23.6516 C   0  0  0  0  0  0  0  0  0  0  0  0
    5.4255   -3.4573   22.9585 H   0  0  0  0  0  0  0  0  0  0  0  0
    5.0526   -5.1971   24.6660 H   0  0  0  0  0  0  0  0  0  0  0  0
    9.0593   -4.5750   26.1696 H   0  0  0  0  0  0  0  0  0  0  0  0
    9.4334   -2.8419   24.4631 H   0  0  0  0  0  0  0  0  0  0  0  0
    6.7479   -1.6354   21.6680 N   0  0  0  0  0  0  0  0  0  0  0  0
    7.3599   -0.6774   20.9378 N   0  0  0  0  0  0  0  0  0  0  0  0
    6.6587    0.0052   19.9009 C   0  0  0  0  0  0  0  0  0  0  0  0
    5.4393    0.6412   20.1685 C   0  0  0  0  0  0  0  0  0  0  0  0
    4.8137    1.3089   19.1097 C   0  0  0  0  0  0  0  0  0  0  0  0
    5.4027    1.2957   17.8372 C   0  0  0  0  0  0  0  0  0  0  0  0
    6.5604    0.6713   17.5751 N   0  0  0  0  0  0  0  0  0  0  0  0
    7.1666    0.0525   18.5911 C   0  0  0  0  0  0  0  0  0  0  0  0
    8.1119   -0.4344   18.3688 H   0  0  0  0  0  0  0  0  0  0  0  0
    4.9187    1.7850   16.9934 H   0  0  0  0  0  0  0  0  0  0  0  0
    3.8794    1.8403   19.2613 H   0  0  0  0  0  0  0  0  0  0  0  0
    5.0147    0.6107   21.1755 H   0  0  0  0  0  0  0  0  0  0  0  0
   10.5300    0.3523   21.3012 H   0  0  0  0  0  0  0  0  0  0  0  0
    9.5367    0.6612   19.8893 H   0  0  0  0  0  0  0  0  0  0  0  0
    8.0908    2.2532   21.2100 H   0  0  0  0  0  0  0  0  0  0  0  0
    9.7941    2.7576   21.2661 H   0  0  0  0  0  0  0  0  0  0  0  0
    9.0677    1.9250   22.6468 H   0  0  0  0  0  0  0  0  0  0  0  0
  1  2  1  0
  2  3  1  0
  3  4  2  0
  4  5  1  0
  5  6  1  0
  6  7  2  0
  7  8  1  0
  8  9  2  0
  9 10  1  0
 10 11  1  0
 10 12  1  0
 10 13  1  0
  9 14  1  0
 14 15  2  0
 15 16  1  0
 14 17  1  0
  8 18  1  0
  7 19  1  0
  5 20  2  0
 20 21  1  0
 21 22  1  0
 22 23  2  0
 23 24  1  0
 24 25  2  0
 25 26  1  0
 26 27  2  0
 27 28  1  0
 25 29  1  0
 24 30  1  0
 23 31  1  0
  2 32  1  0
  2 33  1  0
  1 34  1  0
  1 35  1  0
  1 36  1  0
 21  3  1  0
 27 22  1  0
 15  6  1  0
M  END
>  <cnnaffinity>  (1) 
-5.52334

>  <filename>  (1) 
CCc1nc(-c2ccc(C(F)(F)F)cc2)nn1-c1cccnc1

$$$$
