
     RDKit          3D

 39 41  0  0  0  0  0  0  0  0999 V2000
    9.1243    2.0562   21.4967 C   0  0  0  0  0  0  0  0  0  0  0  0
    9.5169    0.6413   21.0392 C   0  0  0  0  0  0  0  0  0  0  0  0
    8.5634   -0.4445   21.4216 C   0  0  0  0  0  0  0  0  0  0  0  0
    8.7396   -1.3413   22.3685 N   0  0  0  0  0  0  0  0  0  0  0  0
    7.5583   -2.0177   22.3918 C   0  0  0  0  0  0  0  0  0  0  0  0
    7.2752   -3.1104   23.3337 C   0  0  0  0  0  0  0  0  0  0  0  0
    8.3413   -3.6813   24.0391 C   0  0  0  0  0  0  0  0  0  0  0  0
    8.1047   -4.7611   24.8903 C   0  0  0  0  0  0  0  0  0  0  0  0
    9.5049   -5.4358   25.7842 S   0  0  0  0  0  0  0  0  0  0  0  0
   10.7221   -5.0600   25.0705 O   0  0  0  0  0  0  0  0  0  0  0  0
    9.2051   -6.8165   26.1325 O   0  0  0  0  0  0  0  0  0  0  0  0
    9.5290   -4.4910   27.2739 C   0  0  0  0  0  0  0  0  0  0  0  0
    9.7737   -3.4692   27.0029 H   0  0  0  0  0  0  0  0  0  0  0  0
   10.3296   -4.9157   27.8758 H   0  0  0  0  0  0  0  0  0  0  0  0
    8.5633   -4.5540   27.7681 H   0  0  0  0  0  0  0  0  0  0  0  0
    6.8082   -5.2695   25.0724 C   0  0  0  0  0  0  0  0  0  0  0  0
    5.7454   -4.6601   24.3940 C   0  0  0  0  0  0  0  0  0  0  0  0
    5.9647   -3.6003   23.5120 C   0  0  0  0  0  0  0  0  0  0  0  0
    5.1375   -3.1524   22.9587 H   0  0  0  0  0  0  0  0  0  0  0  0
    4.7322   -5.0218   24.5445 H   0  0  0  0  0  0  0  0  0  0  0  0
    6.6211   -6.1363   25.7067 H   0  0  0  0  0  0  0  0  0  0  0  0
    9.3495   -3.2920   23.8933 H   0  0  0  0  0  0  0  0  0  0  0  0
    6.6799   -1.6088   21.4971 N   0  0  0  0  0  0  0  0  0  0  0  0
    7.3343   -0.6195   20.8481 N   0  0  0  0  0  0  0  0  0  0  0  0
    6.6586    0.0512   19.7880 C   0  0  0  0  0  0  0  0  0  0  0  0
    5.4419    0.6886   20.0508 C   0  0  0  0  0  0  0  0  0  0  0  0
    4.8179    1.3731   19.0051 C   0  0  0  0  0  0  0  0  0  0  0  0
    5.4139    1.3635   17.7363 C   0  0  0  0  0  0  0  0  0  0  0  0
    6.5465    0.6958   17.4629 N   0  0  0  0  0  0  0  0  0  0  0  0
    7.1427    0.0438   18.4681 C   0  0  0  0  0  0  0  0  0  0  0  0
    8.0320   -0.5339   18.2136 H   0  0  0  0  0  0  0  0  0  0  0  0
    4.9525    1.8869   16.9014 H   0  0  0  0  0  0  0  0  0  0  0  0
    3.8816    1.9023   19.1575 H   0  0  0  0  0  0  0  0  0  0  0  0
    5.0071    0.6258   21.0508 H   0  0  0  0  0  0  0  0  0  0  0  0
    9.6194    0.6215   19.9507 H   0  0  0  0  0  0  0  0  0  0  0  0
   10.4860    0.3635   21.4611 H   0  0  0  0  0  0  0  0  0  0  0  0
    9.0915    2.1317   22.5893 H   0  0  0  0  0  0  0  0  0  0  0  0
    8.1441    2.3524   21.1077 H   0  0  0  0  0  0  0  0  0  0  0  0
    9.8654    2.7757   21.1390 H   0  0  0  0  0  0  0  0  0  0  0  0
  1  2  1  0
  2  3  1  0
  3  4  2  0
  4  5  1  0
  5  6  1  0
  6  7  2  0
  7  8  1  0
  8  9  1  0
  9 10  2  0
  9 11  2  0
  9 12  1  0
 12 13  1  0
 12 14  1  0
 12 15  1  0
  8 16  2  0
 16 17  1  0
 17 18  2  0
 18 19  1  0
 17 20  1  0
 16 21  1  0
  7 22  1  0
  5 23  2  0
 23 24  1  0
 24 25  1  0
 25 26  2  0
 26 27  1  0
 27 28  2  0
 28 29  1  0
 29 30  2  0
 30 31  1  0
 28 32  1  0
 27 33  1  0
 26 34  1  0
  2 35  1  0
  2 36  1  0
  1 37  1  0
  1 38  1  0
  1 39  1  0
 24  3  1  0
 30 25  1  0
 18  6  1  0
M  END
>  <cnnaffinity>  (1) 
-5.46599

>  <filename>  (1) 
CCc1nc(-c2cccc(S(C)(=O)=O)c2)nn1-c1cccnc1

$$$$
