
     RDKit          3D

 42 44  0  0  0  0  0  0  0  0999 V2000
    7.8404   -4.3890   23.0968 C   0  0  0  0  0  0  0  0  0  0  0  0
    8.5577   -3.4920   22.0730 C   0  0  0  0  0  0  0  0  0  0  0  0
    7.9084   -2.1680   21.8103 C   0  0  0  0  0  0  0  0  0  0  0  0
    7.4535   -1.8132   20.6293 N   0  0  0  0  0  0  0  0  0  0  0  0
    6.9861   -0.5543   20.8391 N   0  0  0  0  0  0  0  0  0  0  0  0
    6.3995    0.1598   19.7626 C   0  0  0  0  0  0  0  0  0  0  0  0
    5.2395    0.9343   19.9031 C   0  0  0  0  0  0  0  0  0  0  0  0
    4.7198    1.5485   18.7589 C   0  0  0  0  0  0  0  0  0  0  0  0
    5.3826    1.3963   17.5385 C   0  0  0  0  0  0  0  0  0  0  0  0
    6.5040    0.6642   17.4019 N   0  0  0  0  0  0  0  0  0  0  0  0
    6.9860    0.0588   18.4873 C   0  0  0  0  0  0  0  0  0  0  0  0
    7.8923   -0.5308   18.3600 H   0  0  0  0  0  0  0  0  0  0  0  0
    5.0057    1.8696   16.6345 H   0  0  0  0  0  0  0  0  0  0  0  0
    3.8134    2.1437   18.8039 H   0  0  0  0  0  0  0  0  0  0  0  0
    4.7406    1.0416   20.8662 H   0  0  0  0  0  0  0  0  0  0  0  0
    7.2485   -0.1922   22.1312 C   0  0  0  0  0  0  0  0  0  0  0  0
    6.9919    1.1600   22.7422 C   0  0  0  0  0  0  0  0  0  0  0  0
    8.0289    1.4644   23.8188 C   0  0  0  0  0  0  0  0  0  0  0  0
    9.1605    2.2242   23.4818 C   0  0  0  0  0  0  0  0  0  0  0  0
   10.2842    2.2683   24.3178 C   0  0  0  0  0  0  0  0  0  0  0  0
   10.2373    1.5767   25.5308 C   0  0  0  0  0  0  0  0  0  0  0  0
    9.0847    0.8902   25.9181 C   0  0  0  0  0  0  0  0  0  0  0  0
    7.9636    0.8154   25.0768 C   0  0  0  0  0  0  0  0  0  0  0  0
    6.7414    0.0172   25.5280 C   0  0  0  0  0  0  0  0  0  0  0  0
    7.0470   -1.3813   26.0883 C   0  0  0  0  0  0  0  0  0  0  0  0
    7.6121   -1.3478   27.0267 H   0  0  0  0  0  0  0  0  0  0  0  0
    6.1085   -1.9061   26.3010 H   0  0  0  0  0  0  0  0  0  0  0  0
    7.6150   -1.9683   25.3536 H   0  0  0  0  0  0  0  0  0  0  0  0
    6.1933    0.6201   26.2683 H   0  0  0  0  0  0  0  0  0  0  0  0
    6.0585   -0.1211   24.6855 H   0  0  0  0  0  0  0  0  0  0  0  0
    9.0789    0.3816   26.8825 H   0  0  0  0  0  0  0  0  0  0  0  0
   11.0854    1.5733   26.1950 H   0  0  0  0  0  0  0  0  0  0  0  0
   11.1824    2.8139   24.0266 H   0  0  0  0  0  0  0  0  0  0  0  0
    9.1639    2.7909   22.5524 H   0  0  0  0  0  0  0  0  0  0  0  0
    7.0025    1.9217   21.9564 H   0  0  0  0  0  0  0  0  0  0  0  0
    5.9821    1.1512   23.1695 H   0  0  0  0  0  0  0  0  0  0  0  0
    7.8027   -1.2111   22.7618 N   0  0  0  0  0  0  0  0  0  0  0  0
    8.6300   -3.9964   21.1062 H   0  0  0  0  0  0  0  0  0  0  0  0
    9.5774   -3.2853   22.4219 H   0  0  0  0  0  0  0  0  0  0  0  0
    6.8162   -4.6213   22.7819 H   0  0  0  0  0  0  0  0  0  0  0  0
    7.7939   -3.9162   24.0872 H   0  0  0  0  0  0  0  0  0  0  0  0
    8.3795   -5.3364   23.2174 H   0  0  0  0  0  0  0  0  0  0  0  0
  1  2  1  0
  2  3  1  0
  3  4  2  0
  4  5  1  0
  5  6  1  0
  6  7  2  0
  7  8  1  0
  8  9  2  0
  9 10  1  0
 10 11  2  0
 11 12  1  0
  9 13  1  0
  8 14  1  0
  7 15  1  0
  5 16  1  0
 16 17  1  0
 17 18  1  0
 18 19  2  0
 19 20  1  0
 20 21  2  0
 21 22  1  0
 22 23  2  0
 23 24  1  0
 24 25  1  0
 25 26  1  0
 25 27  1  0
 25 28  1  0
 24 29  1  0
 24 30  1  0
 22 31  1  0
 21 32  1  0
 20 33  1  0
 19 34  1  0
 17 35  1  0
 17 36  1  0
 16 37  2  0
  2 38  1  0
  2 39  1  0
  1 40  1  0
  1 41  1  0
  1 42  1  0
 37  3  1  0
 11  6  1  0
 23 18  1  0
M  END
>  <cnnaffinity>  (1) 
-5.92557

>  <filename>  (1) 
CCc1nc(Cc2ccccc2CC)n(-c2cccnc2)n1

$$$$
