
     RDKit          3D

 49 52  0  0  0  0  0  0  0  0999 V2000
    7.9877    0.7981   28.3768 C   0  0  0  0  0  0  0  0  0  0  0  0
    8.2704   -0.2367   27.2795 C   0  0  0  0  0  0  0  0  0  0  0  0
    7.6327    0.1286   25.9808 C   0  0  0  0  0  0  0  0  0  0  0  0
    6.3861   -0.0737   25.4441 C   0  0  0  0  0  0  0  0  0  0  0  0
    6.2735    0.5493   24.2190 N   0  0  0  0  0  0  0  0  0  0  0  0
    7.4189    1.1422   24.0280 C   0  0  0  0  0  0  0  0  0  0  0  0
    7.8677    1.8087   22.7773 C   0  0  0  0  0  0  0  0  0  0  0  0
    8.8946    0.9228   22.1754 C   0  0  0  0  0  0  0  0  0  0  0  0
   10.1851    0.9541   22.4479 N   0  0  0  0  0  0  0  0  0  0  0  0
   10.6692   -0.1531   21.8097 C   0  0  0  0  0  0  0  0  0  0  0  0
   12.1128   -0.5237   21.6915 C   0  0  0  0  0  0  0  0  0  0  0  0
   12.4675   -1.6286   20.8931 C   0  0  0  0  0  0  0  0  0  0  0  0
   13.7467   -1.7867   20.3315 C   0  0  0  0  0  0  0  0  0  0  0  0
   14.7124   -0.7919   20.5386 C   0  0  0  0  0  0  0  0  0  0  0  0
   16.0151   -0.3333   19.6527 C   0  0  0  0  0  0  0  0  0  0  0  0
   16.4348    0.5336   20.1427 H   0  0  0  0  0  0  0  0  0  0  0  0
   16.8154   -1.0710   19.6325 H   0  0  0  0  0  0  0  0  0  0  0  0
   15.9370    0.1208   18.6541 H   0  0  0  0  0  0  0  0  0  0  0  0
   14.4451    0.0864   21.6487 C   0  0  0  0  0  0  0  0  0  0  0  0
   13.1746    0.2642   22.1844 C   0  0  0  0  0  0  0  0  0  0  0  0
   13.0157    1.0654   22.9009 H   0  0  0  0  0  0  0  0  0  0  0  0
   15.2399    0.7391   22.0110 H   0  0  0  0  0  0  0  0  0  0  0  0
   13.9469   -2.6970   19.7775 H   0  0  0  0  0  0  0  0  0  0  0  0
   11.6666   -2.3177   20.6888 H   0  0  0  0  0  0  0  0  0  0  0  0
    9.7220   -0.8663   21.2142 N   0  0  0  0  0  0  0  0  0  0  0  0
    8.5925   -0.1635   21.4417 N   0  0  0  0  0  0  0  0  0  0  0  0
    7.2831   -0.6792   21.0499 C   0  0  0  0  0  0  0  0  0  0  0  0
    6.5904    0.0796   19.9316 C   0  0  0  0  0  0  0  0  0  0  0  0
    5.3535    0.7145   20.1021 C   0  0  0  0  0  0  0  0  0  0  0  0
    4.7625    1.3531   19.0076 C   0  0  0  0  0  0  0  0  0  0  0  0
    5.4283    1.3307   17.7786 C   0  0  0  0  0  0  0  0  0  0  0  0
    6.6050    0.7142   17.5888 N   0  0  0  0  0  0  0  0  0  0  0  0
    7.1638    0.1142   18.6475 C   0  0  0  0  0  0  0  0  0  0  0  0
    8.1136   -0.3861   18.4626 H   0  0  0  0  0  0  0  0  0  0  0  0
    4.9980    1.8297   16.9111 H   0  0  0  0  0  0  0  0  0  0  0  0
    3.8161    1.8740   19.0972 H   0  0  0  0  0  0  0  0  0  0  0  0
    4.8501    0.7045   21.0739 H   0  0  0  0  0  0  0  0  0  0  0  0
    7.4745   -1.7159   20.7594 H   0  0  0  0  0  0  0  0  0  0  0  0
    6.6502   -0.6856   21.9452 H   0  0  0  0  0  0  0  0  0  0  0  0
    8.3164    2.7782   22.9952 H   0  0  0  0  0  0  0  0  0  0  0  0
    7.0101    1.9279   22.1147 H   0  0  0  0  0  0  0  0  0  0  0  0
    8.2761    0.9392   25.0591 N   0  0  0  0  0  0  0  0  0  0  0  0
    9.2738    1.0401   24.9333 H   0  0  0  0  0  0  0  0  0  0  0  0
    5.5685   -0.6545   25.8526 H   0  0  0  0  0  0  0  0  0  0  0  0
    9.3553   -0.3367   27.1347 H   0  0  0  0  0  0  0  0  0  0  0  0
    7.9156   -1.2252   27.5893 H   0  0  0  0  0  0  0  0  0  0  0  0
    8.2670    1.8001   28.0351 H   0  0  0  0  0  0  0  0  0  0  0  0
    6.9253    0.8211   28.6335 H   0  0  0  0  0  0  0  0  0  0  0  0
    8.5580    0.5752   29.2841 H   0  0  0  0  0  0  0  0  0  0  0  0
  1  2  1  0
  2  3  1  0
  3  4  2  0
  4  5  1  0
  5  6  2  0
  6  7  1  0
  7  8  1  0
  8  9  2  0
  9 10  1  0
 10 11  1  0
 11 12  2  0
 12 13  1  0
 13 14  2  0
 14 15  1  0
 15 16  1  0
 15 17  1  0
 15 18  1  0
 14 19  1  0
 19 20  2  0
 20 21  1  0
 19 22  1  0
 13 23  1  0
 12 24  1  0
 10 25  2  0
 25 26  1  0
 26 27  1  0
 27 28  1  0
 28 29  2  0
 29 30  1  0
 30 31  2  0
 31 32  1  0
 32 33  2  0
 33 34  1  0
 31 35  1  0
 30 36  1  0
 29 37  1  0
 27 38  1  0
 27 39  1  0
  7 40  1  0
  7 41  1  0
  6 42  1  0
 42 43  1  0
  4 44  1  0
  2 45  1  0
  2 46  1  0
  1 47  1  0
  1 48  1  0
  1 49  1  0
 42  3  1  0
 26  8  1  0
 33 28  1  0
 20 11  1  0
M  END
>  <cnnaffinity>  (1) 
-6.61356

>  <filename>  (1) 
CCc1cnc(Cc2nc(-c3ccc(C)cc3)nn2Cc2cccnc2)[nH]1

$$$$
