
     RDKit          3D

 52 55  0  0  0  0  0  0  0  0999 V2000
    6.6405    2.1576   23.4512 C   0  0  0  0  0  0  0  0  0  0  0  0
    7.5135    3.0288   22.5354 C   0  0  0  0  0  0  0  0  0  0  0  0
    8.9834    2.7440   22.6481 C   0  0  0  0  0  0  0  0  0  0  0  0
    9.7446    3.4315   23.4958 N   0  0  0  0  0  0  0  0  0  0  0  0
   10.9649    2.8766   23.3848 N   0  0  0  0  0  0  0  0  0  0  0  0
   11.0079    1.8397   22.5152 C   0  0  0  0  0  0  0  0  0  0  0  0
   12.2106    0.9937   22.2424 C   0  0  0  0  0  0  0  0  0  0  0  0
   12.3839   -0.2140   23.1740 C   0  0  0  0  0  0  0  0  0  0  0  0
   11.4356   -0.7505   23.3044 H   0  0  0  0  0  0  0  0  0  0  0  0
   13.0955   -0.9174   22.7263 H   0  0  0  0  0  0  0  0  0  0  0  0
   12.7612    0.0754   24.1643 H   0  0  0  0  0  0  0  0  0  0  0  0
   13.1216    1.6055   22.2396 H   0  0  0  0  0  0  0  0  0  0  0  0
   12.0666    0.6282   21.2231 H   0  0  0  0  0  0  0  0  0  0  0  0
    9.7344    1.7271   22.0005 C   0  0  0  0  0  0  0  0  0  0  0  0
    9.2657    0.6620   21.0454 C   0  0  0  0  0  0  0  0  0  0  0  0
    8.3287   -0.3646   21.6078 C   0  0  0  0  0  0  0  0  0  0  0  0
    8.5068   -1.1109   22.6796 N   0  0  0  0  0  0  0  0  0  0  0  0
    7.4726   -1.9979   22.6155 C   0  0  0  0  0  0  0  0  0  0  0  0
    7.2937   -3.0762   23.6440 C   0  0  0  0  0  0  0  0  0  0  0  0
    8.5746   -3.8440   24.0251 C   0  0  0  0  0  0  0  0  0  0  0  0
    8.0626   -5.0779   24.7902 C   0  0  0  0  0  0  0  0  0  0  0  0
    6.6220   -5.3290   24.2727 C   0  0  0  0  0  0  0  0  0  0  0  0
    6.3313   -4.2115   23.2558 C   0  0  0  0  0  0  0  0  0  0  0  0
    6.5828   -4.5471   22.2399 H   0  0  0  0  0  0  0  0  0  0  0  0
    5.2840   -3.8901   23.2550 H   0  0  0  0  0  0  0  0  0  0  0  0
    5.9141   -5.2880   25.1092 H   0  0  0  0  0  0  0  0  0  0  0  0
    6.5064   -6.3111   23.8052 H   0  0  0  0  0  0  0  0  0  0  0  0
    8.0403   -4.8764   25.8688 H   0  0  0  0  0  0  0  0  0  0  0  0
    8.7199   -5.9431   24.6461 H   0  0  0  0  0  0  0  0  0  0  0  0
    9.2697   -3.2322   24.6090 H   0  0  0  0  0  0  0  0  0  0  0  0
    9.0913   -4.1523   23.1064 H   0  0  0  0  0  0  0  0  0  0  0  0
    6.9174   -2.5619   24.5404 H   0  0  0  0  0  0  0  0  0  0  0  0
    6.6563   -1.8178   21.5893 N   0  0  0  0  0  0  0  0  0  0  0  0
    7.2134   -0.7693   20.9356 N   0  0  0  0  0  0  0  0  0  0  0  0
    6.5352   -0.1140   19.8645 C   0  0  0  0  0  0  0  0  0  0  0  0
    5.3938    0.6523   20.1168 C   0  0  0  0  0  0  0  0  0  0  0  0
    4.8302    1.3638   19.0541 C   0  0  0  0  0  0  0  0  0  0  0  0
    5.4211    1.2772   17.7893 C   0  0  0  0  0  0  0  0  0  0  0  0
    6.4935    0.5118   17.5299 N   0  0  0  0  0  0  0  0  0  0  0  0
    7.0318   -0.1677   18.5507 C   0  0  0  0  0  0  0  0  0  0  0  0
    7.9175   -0.7627   18.3278 H   0  0  0  0  0  0  0  0  0  0  0  0
    5.0279    1.8547   16.9562 H   0  0  0  0  0  0  0  0  0  0  0  0
    3.9601    1.9945   19.2000 H   0  0  0  0  0  0  0  0  0  0  0  0
    4.9813    0.6946   21.1268 H   0  0  0  0  0  0  0  0  0  0  0  0
    8.7913    1.1116   20.1706 H   0  0  0  0  0  0  0  0  0  0  0  0
   10.1259    0.0905   20.6717 H   0  0  0  0  0  0  0  0  0  0  0  0
   11.7012    3.1981   23.9929 H   0  0  0  0  0  0  0  0  0  0  0  0
    7.3573    4.0871   22.7765 H   0  0  0  0  0  0  0  0  0  0  0  0
    7.1941    2.8670   21.4963 H   0  0  0  0  0  0  0  0  0  0  0  0
    6.7816    2.4015   24.5072 H   0  0  0  0  0  0  0  0  0  0  0  0
    6.8575    1.0910   23.3334 H   0  0  0  0  0  0  0  0  0  0  0  0
    5.5809    2.3026   23.2237 H   0  0  0  0  0  0  0  0  0  0  0  0
  1  2  1  0
  2  3  1  0
  3  4  2  0
  4  5  1  0
  5  6  1  0
  6  7  1  0
  7  8  1  0
  8  9  1  0
  8 10  1  0
  8 11  1  0
  7 12  1  0
  7 13  1  0
  6 14  2  0
 14 15  1  0
 15 16  1  0
 16 17  2  0
 17 18  1  0
 18 19  1  0
 19 20  1  0
 20 21  1  0
 21 22  1  0
 22 23  1  0
 23 24  1  0
 23 25  1  0
 22 26  1  0
 22 27  1  0
 21 28  1  0
 21 29  1  0
 20 30  1  0
 20 31  1  0
 19 32  1  0
 18 33  2  0
 33 34  1  0
 34 35  1  0
 35 36  2  0
 36 37  1  0
 37 38  2  0
 38 39  1  0
 39 40  2  0
 40 41  1  0
 38 42  1  0
 37 43  1  0
 36 44  1  0
 15 45  1  0
 15 46  1  0
  5 47  1  0
  2 48  1  0
  2 49  1  0
  1 50  1  0
  1 51  1  0
  1 52  1  0
 14  3  1  0
 34 16  1  0
 40 35  1  0
 23 19  1  0
M  END
>  <cnnaffinity>  (1) 
-6.59508

>  <filename>  (1) 
CCc1n[nH]c(CC)c1Cc1nc(C2CCCC2)nn1-c1cccnc1

$$$$
