
     RDKit          3D

 48 51  0  0  0  0  0  0  0  0999 V2000
   12.4727    3.8647   21.1226 C   0  0  0  0  0  0  0  0  0  0  0  0
   11.9677    3.0057   22.2988 C   0  0  0  0  0  0  0  0  0  0  0  0
   12.1731    1.4992   22.1291 C   0  0  0  0  0  0  0  0  0  0  0  0
   13.3541    0.9009   22.6074 C   0  0  0  0  0  0  0  0  0  0  0  0
   13.5877   -0.4755   22.4836 C   0  0  0  0  0  0  0  0  0  0  0  0
   12.6256   -1.2893   21.8797 C   0  0  0  0  0  0  0  0  0  0  0  0
   11.4486   -0.7113   21.3960 C   0  0  0  0  0  0  0  0  0  0  0  0
   11.2210    0.6665   21.4978 C   0  0  0  0  0  0  0  0  0  0  0  0
    9.8898    1.2120   21.0087 C   0  0  0  0  0  0  0  0  0  0  0  0
    8.8316    1.1102   22.0529 C   0  0  0  0  0  0  0  0  0  0  0  0
    8.7851    1.8671   23.1289 N   0  0  0  0  0  0  0  0  0  0  0  0
    7.7114    1.3979   23.8219 C   0  0  0  0  0  0  0  0  0  0  0  0
    7.2563    1.9339   25.1574 C   0  0  0  0  0  0  0  0  0  0  0  0
    6.0921    1.4202   25.7710 C   0  0  0  0  0  0  0  0  0  0  0  0
    5.6934    1.9289   27.0079 C   0  0  0  0  0  0  0  0  0  0  0  0
    6.4638    2.9329   27.6007 C   0  0  0  0  0  0  0  0  0  0  0  0
    7.6028    3.3807   26.9249 C   0  0  0  0  0  0  0  0  0  0  0  0
    7.9916    2.9036   25.7436 N   0  0  0  0  0  0  0  0  0  0  0  0
    8.2384    4.1635   27.3368 H   0  0  0  0  0  0  0  0  0  0  0  0
    6.2069    3.3689   28.5585 H   0  0  0  0  0  0  0  0  0  0  0  0
    4.7982    1.5451   27.4972 H   0  0  0  0  0  0  0  0  0  0  0  0
    5.5418    0.6360   25.2618 H   0  0  0  0  0  0  0  0  0  0  0  0
    7.0917    0.3964   23.1972 N   0  0  0  0  0  0  0  0  0  0  0  0
    7.8142    0.2234   22.0732 N   0  0  0  0  0  0  0  0  0  0  0  0
    7.3740   -0.6984   21.0301 C   0  0  0  0  0  0  0  0  0  0  0  0
    6.6507   -0.0055   19.8866 C   0  0  0  0  0  0  0  0  0  0  0  0
    5.4389    0.6493   20.1341 C   0  0  0  0  0  0  0  0  0  0  0  0
    4.7989    1.3090   19.0827 C   0  0  0  0  0  0  0  0  0  0  0  0
    5.3927    1.2983   17.8182 C   0  0  0  0  0  0  0  0  0  0  0  0
    6.5525    0.6751   17.5603 N   0  0  0  0  0  0  0  0  0  0  0  0
    7.1582    0.0508   18.5789 C   0  0  0  0  0  0  0  0  0  0  0  0
    8.1070   -0.4302   18.3271 H   0  0  0  0  0  0  0  0  0  0  0  0
    4.9260    1.8110   16.9764 H   0  0  0  0  0  0  0  0  0  0  0  0
    3.8693    1.8453   19.2320 H   0  0  0  0  0  0  0  0  0  0  0  0
    5.0268    0.6439   21.1441 H   0  0  0  0  0  0  0  0  0  0  0  0
    6.7248   -1.4199   21.5389 H   0  0  0  0  0  0  0  0  0  0  0  0
    8.2472   -1.2446   20.6561 H   0  0  0  0  0  0  0  0  0  0  0  0
    9.9860    2.2778   20.7856 H   0  0  0  0  0  0  0  0  0  0  0  0
    9.5680    0.7143   20.0886 H   0  0  0  0  0  0  0  0  0  0  0  0
   10.6863   -1.3354   20.9315 H   0  0  0  0  0  0  0  0  0  0  0  0
   12.7803   -2.3623   21.7897 H   0  0  0  0  0  0  0  0  0  0  0  0
   14.5146   -0.9118   22.8529 H   0  0  0  0  0  0  0  0  0  0  0  0
   14.1019    1.5341   23.0802 H   0  0  0  0  0  0  0  0  0  0  0  0
   10.9056    3.1948   22.5132 H   0  0  0  0  0  0  0  0  0  0  0  0
   12.4962    3.3241   23.2047 H   0  0  0  0  0  0  0  0  0  0  0  0
   12.1438    4.9078   21.2011 H   0  0  0  0  0  0  0  0  0  0  0  0
   12.1069    3.4790   20.1657 H   0  0  0  0  0  0  0  0  0  0  0  0
   13.5658    3.8729   21.0843 H   0  0  0  0  0  0  0  0  0  0  0  0
  1  2  1  0
  2  3  1  0
  3  4  2  0
  4  5  1  0
  5  6  2  0
  6  7  1  0
  7  8  2  0
  8  9  1  0
  9 10  1  0
 10 11  2  0
 11 12  1  0
 12 13  1  0
 13 14  2  0
 14 15  1  0
 15 16  2  0
 16 17  1  0
 17 18  2  0
 17 19  1  0
 16 20  1  0
 15 21  1  0
 14 22  1  0
 12 23  2  0
 23 24  1  0
 24 25  1  0
 25 26  1  0
 26 27  2  0
 27 28  1  0
 28 29  2  0
 29 30  1  0
 30 31  2  0
 31 32  1  0
 29 33  1  0
 28 34  1  0
 27 35  1  0
 25 36  1  0
 25 37  1  0
  9 38  1  0
  9 39  1  0
  7 40  1  0
  6 41  1  0
  5 42  1  0
  4 43  1  0
  2 44  1  0
  2 45  1  0
  1 46  1  0
  1 47  1  0
  1 48  1  0
  8  3  1  0
 24 10  1  0
 31 26  1  0
 18 13  1  0
M  END
>  <cnnaffinity>  (1) 
-6.59898

>  <filename>  (1) 
CCc1ccccc1Cc1nc(-c2ccccn2)nn1Cc1cccnc1

$$$$
