
     RDKit          3D

 39 41  0  0  0  0  0  0  0  0999 V2000
    7.9002   -4.4172   23.0481 C   0  0  0  0  0  0  0  0  0  0  0  0
    7.4678   -3.0402   23.5776 C   0  0  0  0  0  0  0  0  0  0  0  0
    7.6682   -1.9738   22.5567 C   0  0  0  0  0  0  0  0  0  0  0  0
    6.7407   -1.6258   21.6917 N   0  0  0  0  0  0  0  0  0  0  0  0
    7.3582   -0.6769   20.9416 N   0  0  0  0  0  0  0  0  0  0  0  0
    6.6570   -0.0020   19.9020 C   0  0  0  0  0  0  0  0  0  0  0  0
    5.4412    0.6397   20.1660 C   0  0  0  0  0  0  0  0  0  0  0  0
    4.8142    1.3091   19.1107 C   0  0  0  0  0  0  0  0  0  0  0  0
    5.3991    1.2964   17.8386 C   0  0  0  0  0  0  0  0  0  0  0  0
    6.5569    0.6705   17.5763 N   0  0  0  0  0  0  0  0  0  0  0  0
    7.1653    0.0468   18.5912 C   0  0  0  0  0  0  0  0  0  0  0  0
    8.1115   -0.4362   18.3632 H   0  0  0  0  0  0  0  0  0  0  0  0
    4.9224    1.7881   16.9935 H   0  0  0  0  0  0  0  0  0  0  0  0
    3.8833    1.8385   19.2608 H   0  0  0  0  0  0  0  0  0  0  0  0
    5.0261    0.6123   21.1774 H   0  0  0  0  0  0  0  0  0  0  0  0
    8.6282   -0.5014   21.4161 C   0  0  0  0  0  0  0  0  0  0  0  0
    9.5193    0.6044   20.9530 C   0  0  0  0  0  0  0  0  0  0  0  0
    9.0887    2.0016   21.4837 C   0  0  0  0  0  0  0  0  0  0  0  0
    9.1372    2.0593   22.9931 C   0  0  0  0  0  0  0  0  0  0  0  0
   10.3396    2.2209   23.6983 C   0  0  0  0  0  0  0  0  0  0  0  0
   11.8343    2.4975   22.8489 Cl  0  0  0  0  0  0  0  0  0  0  0  0
   10.4144    2.1455   25.0861 C   0  0  0  0  0  0  0  0  0  0  0  0
    9.2406    1.9680   25.8217 C   0  0  0  0  0  0  0  0  0  0  0  0
    8.0220    1.7727   25.1749 C   0  0  0  0  0  0  0  0  0  0  0  0
    8.0081    1.8097   23.7873 C   0  0  0  0  0  0  0  0  0  0  0  0
    6.8248    1.6110   23.1750 F   0  0  0  0  0  0  0  0  0  0  0  0
    7.0976    1.5836   25.7135 H   0  0  0  0  0  0  0  0  0  0  0  0
    9.2347    1.9616   26.9005 H   0  0  0  0  0  0  0  0  0  0  0  0
   11.4057    2.1856   25.5170 H   0  0  0  0  0  0  0  0  0  0  0  0
    8.0740    2.2366   21.1444 H   0  0  0  0  0  0  0  0  0  0  0  0
    9.7614    2.7656   21.0810 H   0  0  0  0  0  0  0  0  0  0  0  0
    9.5445    0.6315   19.8616 H   0  0  0  0  0  0  0  0  0  0  0  0
   10.5330    0.3681   21.2863 H   0  0  0  0  0  0  0  0  0  0  0  0
    8.8617   -1.3374   22.4090 N   0  0  0  0  0  0  0  0  0  0  0  0
    6.4134   -3.0411   23.8663 H   0  0  0  0  0  0  0  0  0  0  0  0
    8.0517   -2.7617   24.4595 H   0  0  0  0  0  0  0  0  0  0  0  0
    7.3271   -4.6843   22.1536 H   0  0  0  0  0  0  0  0  0  0  0  0
    8.9619   -4.4105   22.7771 H   0  0  0  0  0  0  0  0  0  0  0  0
    7.7439   -5.1935   23.8019 H   0  0  0  0  0  0  0  0  0  0  0  0
  1  2  1  0
  2  3  1  0
  3  4  2  0
  4  5  1  0
  5  6  1  0
  6  7  2  0
  7  8  1  0
  8  9  2  0
  9 10  1  0
 10 11  2  0
 11 12  1  0
  9 13  1  0
  8 14  1  0
  7 15  1  0
  5 16  1  0
 16 17  1  0
 17 18  1  0
 18 19  1  0
 19 20  2  0
 20 21  1  0
 20 22  1  0
 22 23  2  0
 23 24  1  0
 24 25  2  0
 25 26  1  0
 24 27  1  0
 23 28  1  0
 22 29  1  0
 18 30  1  0
 18 31  1  0
 17 32  1  0
 17 33  1  0
 16 34  2  0
  2 35  1  0
  2 36  1  0
  1 37  1  0
  1 38  1  0
  1 39  1  0
 34  3  1  0
 11  6  1  0
 25 19  1  0
M  END
>  <cnnaffinity>  (1) 
-6.04056

>  <filename>  (1) 
CCc1nc(CCc2c(F)cccc2Cl)n(-c2cccnc2)n1

$$$$
