
     RDKit          3D

 39 41  0  0  0  0  0  0  0  0999 V2000
   10.1342    1.7828   22.0236 C   0  0  0  0  0  0  0  0  0  0  0  0
    8.6683    2.1400   21.7815 C   0  0  0  0  0  0  0  0  0  0  0  0
    7.7042    1.2301   22.5636 C   0  0  0  0  0  0  0  0  0  0  0  0
    7.7905   -0.1890   22.1437 C   0  0  0  0  0  0  0  0  0  0  0  0
    8.4247   -1.1362   22.8032 N   0  0  0  0  0  0  0  0  0  0  0  0
    8.3536   -2.1853   21.9566 C   0  0  0  0  0  0  0  0  0  0  0  0
    8.8767   -3.5324   22.2856 C   0  0  0  0  0  0  0  0  0  0  0  0
    7.9137   -4.3533   23.1077 C   0  0  0  0  0  0  0  0  0  0  0  0
    6.8975   -5.1244   22.5218 C   0  0  0  0  0  0  0  0  0  0  0  0
    6.7580   -5.2281   20.7907 Cl  0  0  0  0  0  0  0  0  0  0  0  0
    5.9570   -5.8141   23.2869 C   0  0  0  0  0  0  0  0  0  0  0  0
    6.0267   -5.7339   24.6781 C   0  0  0  0  0  0  0  0  0  0  0  0
    7.0186   -4.9769   25.3037 C   0  0  0  0  0  0  0  0  0  0  0  0
    7.9376   -4.3095   24.5070 C   0  0  0  0  0  0  0  0  0  0  0  0
    8.8871   -3.5679   25.1019 F   0  0  0  0  0  0  0  0  0  0  0  0
    7.1037   -4.8856   26.3812 H   0  0  0  0  0  0  0  0  0  0  0  0
    5.3057   -6.2677   25.2833 H   0  0  0  0  0  0  0  0  0  0  0  0
    5.1889   -6.3946   22.7892 H   0  0  0  0  0  0  0  0  0  0  0  0
    8.9569   -3.9847   21.3068 H   0  0  0  0  0  0  0  0  0  0  0  0
    9.8418   -3.4271   22.7975 H   0  0  0  0  0  0  0  0  0  0  0  0
    7.7577   -1.9445   20.8075 N   0  0  0  0  0  0  0  0  0  0  0  0
    7.3608   -0.6585   20.9376 N   0  0  0  0  0  0  0  0  0  0  0  0
    6.6513    0.0094   19.9048 C   0  0  0  0  0  0  0  0  0  0  0  0
    5.4390    0.6570   20.1649 C   0  0  0  0  0  0  0  0  0  0  0  0
    4.8073    1.3089   19.1041 C   0  0  0  0  0  0  0  0  0  0  0  0
    5.4035    1.2930   17.8387 C   0  0  0  0  0  0  0  0  0  0  0  0
    6.5700    0.6721   17.5883 N   0  0  0  0  0  0  0  0  0  0  0  0
    7.1732    0.0409   18.5997 C   0  0  0  0  0  0  0  0  0  0  0  0
    8.1207   -0.4447   18.3800 H   0  0  0  0  0  0  0  0  0  0  0  0
    4.9231    1.7825   16.9946 H   0  0  0  0  0  0  0  0  0  0  0  0
    3.8768    1.8398   19.2593 H   0  0  0  0  0  0  0  0  0  0  0  0
    5.0060    0.6280   21.1674 H   0  0  0  0  0  0  0  0  0  0  0  0
    7.9374    1.2524   23.6314 H   0  0  0  0  0  0  0  0  0  0  0  0
    6.6768    1.5817   22.4544 H   0  0  0  0  0  0  0  0  0  0  0  0
    8.4357    2.0819   20.7098 H   0  0  0  0  0  0  0  0  0  0  0  0
    8.4863    3.1773   22.0823 H   0  0  0  0  0  0  0  0  0  0  0  0
   10.7996    2.4850   21.5132 H   0  0  0  0  0  0  0  0  0  0  0  0
   10.3703    0.7718   21.6723 H   0  0  0  0  0  0  0  0  0  0  0  0
   10.3725    1.8089   23.0938 H   0  0  0  0  0  0  0  0  0  0  0  0
  1  2  1  0
  2  3  1  0
  3  4  1  0
  4  5  2  0
  5  6  1  0
  6  7  1  0
  7  8  1  0
  8  9  2  0
  9 10  1  0
  9 11  1  0
 11 12  2  0
 12 13  1  0
 13 14  2  0
 14 15  1  0
 13 16  1  0
 12 17  1  0
 11 18  1  0
  7 19  1  0
  7 20  1  0
  6 21  2  0
 21 22  1  0
 22 23  1  0
 23 24  2  0
 24 25  1  0
 25 26  2  0
 26 27  1  0
 27 28  2  0
 28 29  1  0
 26 30  1  0
 25 31  1  0
 24 32  1  0
  3 33  1  0
  3 34  1  0
  2 35  1  0
  2 36  1  0
  1 37  1  0
  1 38  1  0
  1 39  1  0
 22  4  1  0
 28 23  1  0
 14  8  1  0
M  END
>  <cnnaffinity>  (1) 
-6.18466

>  <filename>  (1) 
CCCc1nc(Cc2c(F)cccc2Cl)nn1-c1cccnc1

$$$$
