
     RDKit          3D

 46 47  0  0  0  0  0  0  0  0999 V2000
    4.9748    1.7568   17.0097 H   0  0  0  0  0  0  0  0  0  0  0  0
    5.4311    1.2721   17.8715 C   0  0  0  0  0  0  0  0  0  0  0  0
    6.5939    0.6401   17.6484 N   0  0  0  0  0  0  0  0  0  0  0  0
    7.1822    0.0402   18.6918 C   0  0  0  0  0  0  0  0  0  0  0  0
    8.1174   -0.4696   18.4669 H   0  0  0  0  0  0  0  0  0  0  0  0
    6.6597    0.0564   19.9937 C   0  0  0  0  0  0  0  0  0  0  0  0
    7.4386   -0.6688   21.0462 C   0  0  0  0  0  0  0  0  0  0  0  0
    8.0775   -1.6809   20.7851 O   0  0  0  0  0  0  0  0  0  0  0  0
    7.4230   -0.1458   22.3014 N   0  0  0  0  0  0  0  0  0  0  0  0
    8.0989   -0.6863   23.4710 C   0  0  0  0  0  0  0  0  0  0  0  0
    7.6414   -1.6087   23.8544 H   0  0  0  0  0  0  0  0  0  0  0  0
    9.1601   -0.9103   23.3046 H   0  0  0  0  0  0  0  0  0  0  0  0
    7.7733    0.6385   24.2191 C   0  0  0  0  0  0  0  0  0  0  0  0
    8.6822    1.1947   24.4930 H   0  0  0  0  0  0  0  0  0  0  0  0
    6.8421    0.5219   25.4284 C   0  0  0  0  0  0  0  0  0  0  0  0
    5.9282   -0.0258   25.1377 H   0  0  0  0  0  0  0  0  0  0  0  0
    7.3354   -0.0986   26.1918 H   0  0  0  0  0  0  0  0  0  0  0  0
    6.4682    1.8764   26.0454 C   0  0  0  0  0  0  0  0  0  0  0  0
    5.9736    2.5023   25.2863 H   0  0  0  0  0  0  0  0  0  0  0  0
    7.3896    2.4108   26.3154 H   0  0  0  0  0  0  0  0  0  0  0  0
    5.5647    1.7709   27.2838 C   0  0  0  0  0  0  0  0  0  0  0  0
    6.0084    1.0591   27.9987 H   0  0  0  0  0  0  0  0  0  0  0  0
    5.5517    2.7404   27.7993 H   0  0  0  0  0  0  0  0  0  0  0  0
    4.1255    1.3417   26.9716 C   0  0  0  0  0  0  0  0  0  0  0  0
    4.1348    0.3782   26.4443 H   0  0  0  0  0  0  0  0  0  0  0  0
    3.6808    2.0622   26.2675 H   0  0  0  0  0  0  0  0  0  0  0  0
    3.2264    1.2304   28.2091 C   0  0  0  0  0  0  0  0  0  0  0  0
    3.7108    0.5854   28.9588 H   0  0  0  0  0  0  0  0  0  0  0  0
    2.2965    0.7162   27.9313 H   0  0  0  0  0  0  0  0  0  0  0  0
    2.8707    2.5737   28.8555 C   0  0  0  0  0  0  0  0  0  0  0  0
    2.4368    3.2391   28.0930 H   0  0  0  0  0  0  0  0  0  0  0  0
    3.7839    3.0776   29.2046 H   0  0  0  0  0  0  0  0  0  0  0  0
    1.8890    2.4411   30.0224 C   0  0  0  0  0  0  0  0  0  0  0  0
    2.3194    1.7716   30.7801 H   0  0  0  0  0  0  0  0  0  0  0  0
    0.9770    1.9419   29.6657 H   0  0  0  0  0  0  0  0  0  0  0  0
    1.5287    3.7832   30.6574 C   0  0  0  0  0  0  0  0  0  0  0  0
    2.4196    4.2865   31.0494 H   0  0  0  0  0  0  0  0  0  0  0  0
    1.0700    4.4556   29.9238 H   0  0  0  0  0  0  0  0  0  0  0  0
    0.8232    3.6677   31.4861 H   0  0  0  0  0  0  0  0  0  0  0  0
    7.1214    1.1561   22.9029 C   0  0  0  0  0  0  0  0  0  0  0  0
    7.6012    2.0139   22.4116 H   0  0  0  0  0  0  0  0  0  0  0  0
    6.0450    1.3705   22.9661 H   0  0  0  0  0  0  0  0  0  0  0  0
    5.4268    0.6942   20.2026 C   0  0  0  0  0  0  0  0  0  0  0  0
    4.9413    0.6906   21.1805 H   0  0  0  0  0  0  0  0  0  0  0  0
    4.8068    1.3173   19.1225 C   0  0  0  0  0  0  0  0  0  0  0  0
    3.8587    1.8364   19.2400 H   0  0  0  0  0  0  0  0  0  0  0  0
  1  2  1  0
  2  3  2  0
  3  4  1  0
  4  5  1  0
  4  6  2  0
  6  7  1  0
  7  8  2  0
  7  9  1  0
  9 10  1  0
 10 11  1  0
 10 12  1  0
 10 13  1  0
 13 14  1  0
 13 15  1  0
 15 16  1  0
 15 17  1  0
 15 18  1  0
 18 19  1  0
 18 20  1  0
 18 21  1  0
 21 22  1  0
 21 23  1  0
 21 24  1  0
 24 25  1  0
 24 26  1  0
 24 27  1  0
 27 28  1  0
 27 29  1  0
 27 30  1  0
 30 31  1  0
 30 32  1  0
 30 33  1  0
 33 34  1  0
 33 35  1  0
 33 36  1  0
 36 37  1  0
 36 38  1  0
 36 39  1  0
 13 40  1  0
 40 41  1  0
 40 42  1  0
  6 43  1  0
 43 44  1  0
 43 45  2  0
 45 46  1  0
 45  2  1  0
 40  9  1  0
M  END
>  <cnnaffinity>  (1) 
-4.99669

>  <filename>  (1) 
CCCCCCCCC1CN(C(=O)c2cccnc2)C1

$$$$
