
     RDKit          3D

 42 45  0  0  0  0  0  0  0  0999 V2000
    8.2854   -5.8203   23.1028 C   0  0  0  0  0  0  0  0  0  0  0  0
    7.6371   -4.4723   22.7857 C   0  0  0  0  0  0  0  0  0  0  0  0
    8.6411   -3.4794   22.1625 C   0  0  0  0  0  0  0  0  0  0  0  0
    8.0967   -2.1119   21.9303 C   0  0  0  0  0  0  0  0  0  0  0  0
    7.6473   -1.7810   20.7385 N   0  0  0  0  0  0  0  0  0  0  0  0
    7.1700   -0.5314   20.9248 N   0  0  0  0  0  0  0  0  0  0  0  0
    6.5067    0.1392   19.8655 C   0  0  0  0  0  0  0  0  0  0  0  0
    5.3177    0.8585   20.0534 C   0  0  0  0  0  0  0  0  0  0  0  0
    4.7526    1.4737   18.9297 C   0  0  0  0  0  0  0  0  0  0  0  0
    5.3929    1.3689   17.6916 C   0  0  0  0  0  0  0  0  0  0  0  0
    6.5246    0.6663   17.5070 N   0  0  0  0  0  0  0  0  0  0  0  0
    7.0523    0.0530   18.5685 C   0  0  0  0  0  0  0  0  0  0  0  0
    7.9537   -0.5342   18.4023 H   0  0  0  0  0  0  0  0  0  0  0  0
    4.9887    1.8592   16.8069 H   0  0  0  0  0  0  0  0  0  0  0  0
    3.8348    2.0461   19.0061 H   0  0  0  0  0  0  0  0  0  0  0  0
    4.8329    0.9237   21.0298 H   0  0  0  0  0  0  0  0  0  0  0  0
    7.4306   -0.1437   22.2118 C   0  0  0  0  0  0  0  0  0  0  0  0
    7.1251    1.2360   22.6714 C   0  0  2  0  0  0  0  0  0  0  0  0
    7.6452    2.4298   21.9159 C   0  0  0  0  0  0  0  0  0  0  0  0
    8.1390    2.1612   23.3284 C   0  0  1  0  0  0  0  0  0  0  0  0
    7.7974    3.0326   24.5037 C   0  0  0  0  0  0  0  0  0  0  0  0
    6.4766    3.3700   24.8468 C   0  0  0  0  0  0  0  0  0  0  0  0
    6.2261    4.1292   25.9918 C   0  0  0  0  0  0  0  0  0  0  0  0
    7.3240    4.5685   26.7330 C   0  0  0  0  0  0  0  0  0  0  0  0
    8.6067    4.2133   26.3049 C   0  0  0  0  0  0  0  0  0  0  0  0
    8.8516    3.4617   25.2290 N   0  0  0  0  0  0  0  0  0  0  0  0
    9.4742    4.5520   26.8707 H   0  0  0  0  0  0  0  0  0  0  0  0
    7.2065    5.1653   27.6291 H   0  0  0  0  0  0  0  0  0  0  0  0
    5.2040    4.3578   26.2984 H   0  0  0  0  0  0  0  0  0  0  0  0
    5.6572    3.0430   24.2207 H   0  0  0  0  0  0  0  0  0  0  0  0
    9.1516    1.7733   23.4306 H   0  0  0  0  0  0  0  0  0  0  0  0
    8.3177    2.2159   21.0858 H   0  0  0  0  0  0  0  0  0  0  0  0
    6.9724    3.2665   21.7331 H   0  0  0  0  0  0  0  0  0  0  0  0
    6.1006    1.3073   23.0303 H   0  0  0  0  0  0  0  0  0  0  0  0
    7.9845   -1.1438   22.8764 N   0  0  0  0  0  0  0  0  0  0  0  0
    8.9207   -3.8322   21.1676 H   0  0  0  0  0  0  0  0  0  0  0  0
    9.5491   -3.4016   22.7719 H   0  0  0  0  0  0  0  0  0  0  0  0
    6.7963   -4.6199   22.0934 H   0  0  0  0  0  0  0  0  0  0  0  0
    7.2118   -4.0404   23.7039 H   0  0  0  0  0  0  0  0  0  0  0  0
    7.5383   -6.5546   23.4158 H   0  0  0  0  0  0  0  0  0  0  0  0
    8.8110   -6.2385   22.2349 H   0  0  0  0  0  0  0  0  0  0  0  0
    9.0145   -5.7239   23.9156 H   0  0  0  0  0  0  0  0  0  0  0  0
  1  2  1  0
  2  3  1  0
  3  4  1  0
  4  5  2  0
  5  6  1  0
  6  7  1  0
  7  8  2  0
  8  9  1  0
  9 10  2  0
 10 11  1  0
 11 12  2  0
 12 13  1  0
 10 14  1  0
  9 15  1  0
  8 16  1  0
  6 17  1  0
 17 18  1  0
 18 19  1  0
 19 20  1  0
 20 21  1  0
 21 22  2  0
 22 23  1  0
 23 24  2  0
 24 25  1  0
 25 26  2  0
 25 27  1  0
 24 28  1  0
 23 29  1  0
 22 30  1  0
 20 31  1  6
 19 32  1  0
 19 33  1  0
 18 34  1  1
 17 35  2  0
  3 36  1  0
  3 37  1  0
  2 38  1  0
  2 39  1  0
  1 40  1  0
  1 41  1  0
  1 42  1  0
 35  4  1  0
 12  7  1  0
 20 18  1  0
 26 21  1  0
M  END
>  <cnnaffinity>  (1) 
-5.79773

>  <filename>  (1) 
CCCc1nc([C@@H]2C[C@H]2c2ccccn2)n(-c2cccnc2)n1

$$$$
