
     RDKit          3D

 46 47  0  0  0  0  0  0  0  0999 V2000
    4.9441    1.7996   17.0008 H   0  0  0  0  0  0  0  0  0  0  0  0
    5.4189    1.2862   17.8334 C   0  0  0  0  0  0  0  0  0  0  0  0
    6.5591    0.6407   17.5482 N   0  0  0  0  0  0  0  0  0  0  0  0
    7.1880    0.0152   18.5499 C   0  0  0  0  0  0  0  0  0  0  0  0
    8.1157   -0.4944   18.3009 H   0  0  0  0  0  0  0  0  0  0  0  0
    6.7108    0.0031   19.8710 C   0  0  0  0  0  0  0  0  0  0  0  0
    7.4353   -0.6347   20.9225 N   0  0  0  0  0  0  0  0  0  0  0  0
    6.6282   -1.3968   21.7504 N   0  0  0  0  0  0  0  0  0  0  0  0
    7.1379   -1.9491   22.7965 C   0  0  0  0  0  0  0  0  0  0  0  0
    6.2820   -2.9321   23.5165 C   0  0  0  0  0  0  0  0  0  0  0  0
    6.8183   -3.2583   24.4131 H   0  0  0  0  0  0  0  0  0  0  0  0
    5.3753   -2.4384   23.8786 H   0  0  0  0  0  0  0  0  0  0  0  0
    5.8961   -4.1353   22.6381 C   0  0  0  0  0  0  0  0  0  0  0  0
    6.8086   -4.6917   22.3856 H   0  0  0  0  0  0  0  0  0  0  0  0
    5.4774   -3.7757   21.6916 H   0  0  0  0  0  0  0  0  0  0  0  0
    4.9301   -5.0463   23.3770 C   0  0  0  0  0  0  0  0  0  0  0  0
    4.6432   -5.9002   22.7499 H   0  0  0  0  0  0  0  0  0  0  0  0
    4.0019   -4.4947   23.5806 H   0  0  0  0  0  0  0  0  0  0  0  0
    5.5463   -5.5050   24.6962 C   0  0  0  0  0  0  0  0  0  0  0  0
    6.5215   -5.9711   24.4867 H   0  0  0  0  0  0  0  0  0  0  0  0
    5.7722   -4.6247   25.3142 H   0  0  0  0  0  0  0  0  0  0  0  0
    4.6442   -6.4077   25.5091 C   0  0  0  0  0  0  0  0  0  0  0  0
    4.4519   -7.3405   24.9571 H   0  0  0  0  0  0  0  0  0  0  0  0
    3.6706   -5.9012   25.6202 H   0  0  0  0  0  0  0  0  0  0  0  0
    5.1943   -6.7056   26.9032 C   0  0  0  0  0  0  0  0  0  0  0  0
    6.0784   -7.3584   26.8412 H   0  0  0  0  0  0  0  0  0  0  0  0
    5.5538   -5.7758   27.3721 H   0  0  0  0  0  0  0  0  0  0  0  0
    4.1295   -7.3169   27.8117 C   0  0  0  0  0  0  0  0  0  0  0  0
    3.3914   -6.5448   28.0684 H   0  0  0  0  0  0  0  0  0  0  0  0
    3.5710   -8.0890   27.2646 H   0  0  0  0  0  0  0  0  0  0  0  0
    4.6860   -7.9056   29.1009 C   0  0  0  0  0  0  0  0  0  0  0  0
    5.2135   -7.1549   29.7020 H   0  0  0  0  0  0  0  0  0  0  0  0
    5.4213   -8.6891   28.8853 H   0  0  0  0  0  0  0  0  0  0  0  0
    3.8782   -8.3323   29.7086 H   0  0  0  0  0  0  0  0  0  0  0  0
    8.5517   -1.6953   23.2702 C   0  0  0  0  0  0  0  0  0  0  0  0
    8.5319   -0.8472   23.9698 H   0  0  0  0  0  0  0  0  0  0  0  0
    8.9195   -2.5580   23.8416 H   0  0  0  0  0  0  0  0  0  0  0  0
    9.4678   -1.4217   22.0777 C   0  0  0  0  0  0  0  0  0  0  0  0
    9.7126   -2.3555   21.5508 H   0  0  0  0  0  0  0  0  0  0  0  0
   10.4141   -0.9714   22.3803 H   0  0  0  0  0  0  0  0  0  0  0  0
    8.8347   -0.4957   21.0508 C   0  0  0  0  0  0  0  0  0  0  0  0
    9.4804    0.2647   20.3581 O   0  0  0  0  0  0  0  0  0  0  0  0
    5.4836    0.6192   20.1470 C   0  0  0  0  0  0  0  0  0  0  0  0
    5.0652    0.5392   21.1497 H   0  0  0  0  0  0  0  0  0  0  0  0
    4.8420    1.2964   19.1085 C   0  0  0  0  0  0  0  0  0  0  0  0
    3.9120    1.8267   19.2720 H   0  0  0  0  0  0  0  0  0  0  0  0
  1  2  1  0
  2  3  2  0
  3  4  1  0
  4  5  1  0
  4  6  2  0
  6  7  1  0
  7  8  1  0
  8  9  2  0
  9 10  1  0
 10 11  1  0
 10 12  1  0
 10 13  1  0
 13 14  1  0
 13 15  1  0
 13 16  1  0
 16 17  1  0
 16 18  1  0
 16 19  1  0
 19 20  1  0
 19 21  1  0
 19 22  1  0
 22 23  1  0
 22 24  1  0
 22 25  1  0
 25 26  1  0
 25 27  1  0
 25 28  1  0
 28 29  1  0
 28 30  1  0
 28 31  1  0
 31 32  1  0
 31 33  1  0
 31 34  1  0
  9 35  1  0
 35 36  1  0
 35 37  1  0
 35 38  1  0
 38 39  1  0
 38 40  1  0
 38 41  1  0
 41 42  2  0
  6 43  1  0
 43 44  1  0
 43 45  2  0
 45 46  1  0
 45  2  1  0
 41  7  1  0
M  END
>  <cnnaffinity>  (1) 
-5.49166

>  <filename>  (1) 
CCCCCCCCC1=NN(c2cccnc2)C(=O)CC1

$$$$
