
     RDKit          3D

 42 44  0  0  0  0  0  0  0  0999 V2000
    6.7264   -2.8951   26.2139 C   0  0  0  0  0  0  0  0  0  0  0  0
    7.0252   -2.0012   25.0168 C   0  0  0  0  0  0  0  0  0  0  0  0
    7.3954   -2.8028   23.7566 C   0  0  0  0  0  0  0  0  0  0  0  0
    7.6647   -1.9273   22.5839 C   0  0  0  0  0  0  0  0  0  0  0  0
    6.7319   -1.5757   21.7242 N   0  0  0  0  0  0  0  0  0  0  0  0
    7.3653   -0.6676   20.9393 N   0  0  0  0  0  0  0  0  0  0  0  0
    6.6602    0.0051   19.9032 C   0  0  0  0  0  0  0  0  0  0  0  0
    5.4427    0.6439   20.1659 C   0  0  0  0  0  0  0  0  0  0  0  0
    4.8149    1.3104   19.1092 C   0  0  0  0  0  0  0  0  0  0  0  0
    5.4002    1.2967   17.8368 C   0  0  0  0  0  0  0  0  0  0  0  0
    6.5576    0.6704   17.5746 N   0  0  0  0  0  0  0  0  0  0  0  0
    7.1666    0.0502   18.5925 C   0  0  0  0  0  0  0  0  0  0  0  0
    8.1115   -0.4353   18.3650 H   0  0  0  0  0  0  0  0  0  0  0  0
    4.9233    1.7885   16.9918 H   0  0  0  0  0  0  0  0  0  0  0  0
    3.8824    1.8380   19.2599 H   0  0  0  0  0  0  0  0  0  0  0  0
    5.0153    0.6062   21.1726 H   0  0  0  0  0  0  0  0  0  0  0  0
    8.6421   -0.4993   21.4013 C   0  0  0  0  0  0  0  0  0  0  0  0
    9.5253    0.6161   20.9462 C   0  0  0  0  0  0  0  0  0  0  0  0
    9.0530    2.0128   21.4437 C   0  0  0  0  0  0  0  0  0  0  0  0
    8.8973    2.0574   22.9484 C   0  0  0  0  0  0  0  0  0  0  0  0
    7.6612    1.8242   23.5720 C   0  0  0  0  0  0  0  0  0  0  0  0
    7.5353    1.7644   24.9631 C   0  0  0  0  0  0  0  0  0  0  0  0
    8.6701    1.9091   25.7698 C   0  0  0  0  0  0  0  0  0  0  0  0
    9.9215    2.0874   25.1765 C   0  0  0  0  0  0  0  0  0  0  0  0
   10.0072    2.1663   23.7910 C   0  0  0  0  0  0  0  0  0  0  0  0
   11.2282    2.3397   23.2414 F   0  0  0  0  0  0  0  0  0  0  0  0
   10.8429    2.1091   25.7412 H   0  0  0  0  0  0  0  0  0  0  0  0
    8.5918    1.8661   26.8541 H   0  0  0  0  0  0  0  0  0  0  0  0
    6.5647    1.5772   25.4138 H   0  0  0  0  0  0  0  0  0  0  0  0
    6.7968    1.6555   22.9352 H   0  0  0  0  0  0  0  0  0  0  0  0
    9.7725    2.7707   21.1136 H   0  0  0  0  0  0  0  0  0  0  0  0
    8.0920    2.2576   20.9732 H   0  0  0  0  0  0  0  0  0  0  0  0
    9.5756    0.6180   19.8556 H   0  0  0  0  0  0  0  0  0  0  0  0
   10.5291    0.4053   21.3211 H   0  0  0  0  0  0  0  0  0  0  0  0
    8.8696   -1.3185   22.4093 N   0  0  0  0  0  0  0  0  0  0  0  0
    6.5924   -3.4921   23.4894 H   0  0  0  0  0  0  0  0  0  0  0  0
    8.2998   -3.3873   23.9387 H   0  0  0  0  0  0  0  0  0  0  0  0
    6.1552   -1.3683   24.7964 H   0  0  0  0  0  0  0  0  0  0  0  0
    7.8502   -1.3174   25.2566 H   0  0  0  0  0  0  0  0  0  0  0  0
    6.4609   -2.3060   27.0975 H   0  0  0  0  0  0  0  0  0  0  0  0
    5.8921   -3.5738   26.0033 H   0  0  0  0  0  0  0  0  0  0  0  0
    7.5923   -3.5134   26.4760 H   0  0  0  0  0  0  0  0  0  0  0  0
  1  2  1  0
  2  3  1  0
  3  4  1  0
  4  5  2  0
  5  6  1  0
  6  7  1  0
  7  8  2  0
  8  9  1  0
  9 10  2  0
 10 11  1  0
 11 12  2  0
 12 13  1  0
 10 14  1  0
  9 15  1  0
  8 16  1  0
  6 17  1  0
 17 18  1  0
 18 19  1  0
 19 20  1  0
 20 21  2  0
 21 22  1  0
 22 23  2  0
 23 24  1  0
 24 25  2  0
 25 26  1  0
 24 27  1  0
 23 28  1  0
 22 29  1  0
 21 30  1  0
 19 31  1  0
 19 32  1  0
 18 33  1  0
 18 34  1  0
 17 35  2  0
  3 36  1  0
  3 37  1  0
  2 38  1  0
  2 39  1  0
  1 40  1  0
  1 41  1  0
  1 42  1  0
 35  4  1  0
 12  7  1  0
 25 20  1  0
M  END
>  <cnnaffinity>  (1) 
-5.81535

>  <filename>  (1) 
CCCc1nc(CCc2ccccc2F)n(-c2cccnc2)n1

$$$$
