
     RDKit          3D

 45 47  0  0  0  0  0  0  0  0999 V2000
    6.4117   -0.4121   26.5504 C   0  0  0  0  0  0  0  0  0  0  0  0
    7.2512   -1.0518   25.4389 C   0  0  0  0  0  0  0  0  0  0  0  0
    6.5460   -2.2553   24.7944 C   0  0  0  0  0  0  0  0  0  0  0  0
    7.3731   -2.9500   23.6784 C   0  0  0  0  0  0  0  0  0  0  0  0
    6.6942   -4.2425   23.1917 C   0  0  0  0  0  0  0  0  0  0  0  0
    6.5557   -4.9390   24.0252 H   0  0  0  0  0  0  0  0  0  0  0  0
    7.2975   -4.7410   22.4252 H   0  0  0  0  0  0  0  0  0  0  0  0
    5.7112   -4.0204   22.7576 H   0  0  0  0  0  0  0  0  0  0  0  0
    7.6307   -1.9930   22.5463 C   0  0  0  0  0  0  0  0  0  0  0  0
    6.6991   -1.6124   21.6883 N   0  0  0  0  0  0  0  0  0  0  0  0
    7.3473   -0.6919   20.9270 N   0  0  0  0  0  0  0  0  0  0  0  0
    6.6503   -0.0141   19.8895 C   0  0  0  0  0  0  0  0  0  0  0  0
    5.4357    0.6266   20.1521 C   0  0  0  0  0  0  0  0  0  0  0  0
    4.8040    1.3062   19.1047 C   0  0  0  0  0  0  0  0  0  0  0  0
    5.3945    1.2939   17.8347 C   0  0  0  0  0  0  0  0  0  0  0  0
    6.5443    0.6565   17.5686 N   0  0  0  0  0  0  0  0  0  0  0  0
    7.1550    0.0278   18.5797 C   0  0  0  0  0  0  0  0  0  0  0  0
    8.1023   -0.4561   18.3469 H   0  0  0  0  0  0  0  0  0  0  0  0
    4.9306    1.8099   16.9966 H   0  0  0  0  0  0  0  0  0  0  0  0
    3.8733    1.8467   19.2568 H   0  0  0  0  0  0  0  0  0  0  0  0
    5.0061    0.5883   21.1539 H   0  0  0  0  0  0  0  0  0  0  0  0
    8.6245   -0.5526   21.3863 C   0  0  0  0  0  0  0  0  0  0  0  0
    9.6482    0.4130   20.9003 C   0  0  0  0  0  0  0  0  0  0  0  0
    9.9966    1.3760   21.9828 C   0  0  0  0  0  0  0  0  0  0  0  0
    9.1627    2.2943   22.5652 C   0  0  0  0  0  0  0  0  0  0  0  0
    7.7347    2.6490   22.2762 C   0  0  0  0  0  0  0  0  0  0  0  0
    7.4214    3.6012   22.7104 H   0  0  0  0  0  0  0  0  0  0  0  0
    7.0536    1.8762   22.6504 H   0  0  0  0  0  0  0  0  0  0  0  0
    7.5648    2.7034   21.1971 H   0  0  0  0  0  0  0  0  0  0  0  0
    9.9079    2.8194   23.6016 N   0  0  0  0  0  0  0  0  0  0  0  0
   11.1272    2.2128   23.5763 C   0  0  0  0  0  0  0  0  0  0  0  0
   11.2109    1.3374   22.6112 N   0  0  0  0  0  0  0  0  0  0  0  0
   11.9050    2.4320   24.3010 H   0  0  0  0  0  0  0  0  0  0  0  0
    9.6043    3.5316   24.2416 H   0  0  0  0  0  0  0  0  0  0  0  0
   10.5419   -0.1564   20.6404 H   0  0  0  0  0  0  0  0  0  0  0  0
    9.2530    0.9401   20.0314 H   0  0  0  0  0  0  0  0  0  0  0  0
    8.8280   -1.3724   22.3965 N   0  0  0  0  0  0  0  0  0  0  0  0
    8.3768   -3.1758   24.0707 H   0  0  0  0  0  0  0  0  0  0  0  0
    6.3102   -3.0011   25.5695 H   0  0  0  0  0  0  0  0  0  0  0  0
    5.5798   -1.9349   24.3709 H   0  0  0  0  0  0  0  0  0  0  0  0
    7.4903   -0.3057   24.6640 H   0  0  0  0  0  0  0  0  0  0  0  0
    8.2226   -1.3804   25.8407 H   0  0  0  0  0  0  0  0  0  0  0  0
    6.9246    0.4402   27.0088 H   0  0  0  0  0  0  0  0  0  0  0  0
    5.4500   -0.0505   26.1649 H   0  0  0  0  0  0  0  0  0  0  0  0
    6.1941   -1.1342   27.3474 H   0  0  0  0  0  0  0  0  0  0  0  0
  1  2  1  0
  2  3  1  0
  3  4  1  0
  4  5  1  0
  5  6  1  0
  5  7  1  0
  5  8  1  0
  4  9  1  0
  9 10  2  0
 10 11  1  0
 11 12  1  0
 12 13  2  0
 13 14  1  0
 14 15  2  0
 15 16  1  0
 16 17  2  0
 17 18  1  0
 15 19  1  0
 14 20  1  0
 13 21  1  0
 11 22  1  0
 22 23  1  0
 23 24  1  0
 24 25  2  0
 25 26  1  0
 26 27  1  0
 26 28  1  0
 26 29  1  0
 25 30  1  0
 30 31  1  0
 31 32  2  0
 31 33  1  0
 30 34  1  0
 23 35  1  0
 23 36  1  0
 22 37  2  0
  4 38  1  0
  3 39  1  0
  3 40  1  0
  2 41  1  0
  2 42  1  0
  1 43  1  0
  1 44  1  0
  1 45  1  0
 37  9  1  0
 17 12  1  0
 32 24  1  0
M  END
>  <cnnaffinity>  (1) 
-5.92342

>  <filename>  (1) 
CCCC(C)c1nc(Cc2nc[nH]c2C)n(-c2cccnc2)n1

$$$$
