
     RDKit          3D

 42 43  0  0  0  0  0  0  0  0999 V2000
    4.9426    1.8141   16.9815 H   0  0  0  0  0  0  0  0  0  0  0  0
    5.4012    1.2964   17.8203 C   0  0  0  0  0  0  0  0  0  0  0  0
    6.5589    0.6707   17.5559 N   0  0  0  0  0  0  0  0  0  0  0  0
    7.1716    0.0489   18.5707 C   0  0  0  0  0  0  0  0  0  0  0  0
    8.1226   -0.4167   18.3185 H   0  0  0  0  0  0  0  0  0  0  0  0
    6.6679   -0.0016   19.8948 C   0  0  0  0  0  0  0  0  0  0  0  0
    7.3950   -0.6765   20.9975 C   0  0  0  0  0  0  0  0  0  0  0  0
    8.6533   -1.8275   20.6965 S   0  0  0  0  0  0  0  0  0  0  0  0
    8.8792   -2.1249   22.3752 C   0  0  0  0  0  0  0  0  0  0  0  0
    9.5790   -2.8910   22.6858 H   0  0  0  0  0  0  0  0  0  0  0  0
    8.0827   -1.3360   23.1551 C   0  0  0  0  0  0  0  0  0  0  0  0
    8.0313   -1.3414   24.6688 C   0  0  0  0  0  0  0  0  0  0  0  0
    8.0855   -0.3096   25.0437 H   0  0  0  0  0  0  0  0  0  0  0  0
    8.9184   -1.8459   25.0781 H   0  0  0  0  0  0  0  0  0  0  0  0
    6.7496   -2.0035   25.2129 C   0  0  0  0  0  0  0  0  0  0  0  0
    6.7131   -1.9097   26.3075 H   0  0  0  0  0  0  0  0  0  0  0  0
    5.8898   -1.4354   24.8316 H   0  0  0  0  0  0  0  0  0  0  0  0
    6.5831   -3.4773   24.8066 C   0  0  0  0  0  0  0  0  0  0  0  0
    6.4991   -3.5301   23.7111 H   0  0  0  0  0  0  0  0  0  0  0  0
    5.6241   -3.8452   25.1975 H   0  0  0  0  0  0  0  0  0  0  0  0
    7.7159   -4.4189   25.2639 C   0  0  0  0  0  0  0  0  0  0  0  0
    7.4654   -5.4407   24.9412 H   0  0  0  0  0  0  0  0  0  0  0  0
    8.6421   -4.1623   24.7290 H   0  0  0  0  0  0  0  0  0  0  0  0
    7.9689   -4.4546   26.7823 C   0  0  0  0  0  0  0  0  0  0  0  0
    8.2731   -3.4526   27.1341 H   0  0  0  0  0  0  0  0  0  0  0  0
    8.8415   -5.0974   26.9826 H   0  0  0  0  0  0  0  0  0  0  0  0
    6.7302   -4.9629   27.5574 C   0  0  0  0  0  0  0  0  0  0  0  0
    6.2983   -5.8231   27.0190 H   0  0  0  0  0  0  0  0  0  0  0  0
    5.9723   -4.1648   27.5502 H   0  0  0  0  0  0  0  0  0  0  0  0
    7.0015   -5.3301   29.0165 C   0  0  0  0  0  0  0  0  0  0  0  0
    7.7339   -6.1462   29.0756 H   0  0  0  0  0  0  0  0  0  0  0  0
    7.4673   -4.4531   29.4404 H   0  0  0  0  0  0  0  0  0  0  0  0
    5.8000   -5.5695   29.9351 C   0  0  0  0  0  0  0  0  0  0  0  0
    5.1133   -4.7237   29.8303 H   0  0  0  0  0  0  0  0  0  0  0  0
    6.1283   -5.5654   30.9822 H   0  0  0  0  0  0  0  0  0  0  0  0
    5.2412   -6.4987   29.7645 H   0  0  0  0  0  0  0  0  0  0  0  0
    7.2290   -0.5122   22.3442 C   0  0  0  0  0  0  0  0  0  0  0  0
    6.5309    0.2102   22.7593 H   0  0  0  0  0  0  0  0  0  0  0  0
    5.4434    0.6468   20.1347 C   0  0  0  0  0  0  0  0  0  0  0  0
    4.9994    0.6353   21.1302 H   0  0  0  0  0  0  0  0  0  0  0  0
    4.8022    1.3072   19.0847 C   0  0  0  0  0  0  0  0  0  0  0  0
    3.8690    1.8398   19.2341 H   0  0  0  0  0  0  0  0  0  0  0  0
  1  2  1  0
  2  3  2  0
  3  4  1  0
  4  5  1  0
  4  6  2  0
  6  7  1  0
  7  8  1  0
  8  9  1  0
  9 10  1  0
  9 11  2  0
 11 12  1  0
 12 13  1  0
 12 14  1  0
 12 15  1  0
 15 16  1  0
 15 17  1  0
 15 18  1  0
 18 19  1  0
 18 20  1  0
 18 21  1  0
 21 22  1  0
 21 23  1  0
 21 24  1  0
 24 25  1  0
 24 26  1  0
 24 27  1  0
 27 28  1  0
 27 29  1  0
 27 30  1  0
 30 31  1  0
 30 32  1  0
 30 33  1  0
 33 34  1  0
 33 35  1  0
 33 36  1  0
 11 37  1  0
 37 38  1  0
  6 39  1  0
 39 40  1  0
 39 41  2  0
 41 42  1  0
 41  2  1  0
 37  7  2  0
M  END
>  <cnnaffinity>  (1) 
-5.44623

>  <filename>  (1) 
CCCCCCCCc1csc(-c2cccnc2)c1

$$$$
