
     RDKit          3D

 45 47  0  0  0  0  0  0  0  0999 V2000
   10.2674    2.0847   23.1521 C   0  0  0  0  0  0  0  0  0  0  0  0
    9.6123    1.0912   24.1099 C   0  0  0  0  0  0  0  0  0  0  0  0
   10.2947   -0.2814   24.2134 C   0  0  0  0  0  0  0  0  0  0  0  0
   10.3533   -1.1517   22.9207 C   0  0  0  0  0  0  0  0  0  0  0  0
   11.5345   -0.8586   21.9828 C   0  0  0  0  0  0  0  0  0  0  0  0
   11.5802   -1.6119   21.1893 H   0  0  0  0  0  0  0  0  0  0  0  0
   12.4882   -0.8890   22.5201 H   0  0  0  0  0  0  0  0  0  0  0  0
   11.4445    0.1209   21.5032 H   0  0  0  0  0  0  0  0  0  0  0  0
    9.0308   -1.1377   22.1896 C   0  0  0  0  0  0  0  0  0  0  0  0
    8.7247   -0.3583   21.1672 N   0  0  0  0  0  0  0  0  0  0  0  0
    7.4160   -0.6649   20.9301 N   0  0  0  0  0  0  0  0  0  0  0  0
    6.6879    0.0142   19.9122 C   0  0  0  0  0  0  0  0  0  0  0  0
    5.4594    0.6395   20.1625 C   0  0  0  0  0  0  0  0  0  0  0  0
    4.8322    1.2955   19.0974 C   0  0  0  0  0  0  0  0  0  0  0  0
    5.4428    1.2837   17.8385 C   0  0  0  0  0  0  0  0  0  0  0  0
    6.6181    0.6771   17.5946 N   0  0  0  0  0  0  0  0  0  0  0  0
    7.2327    0.0742   18.6186 C   0  0  0  0  0  0  0  0  0  0  0  0
    8.1963   -0.3914   18.4199 H   0  0  0  0  0  0  0  0  0  0  0  0
    4.9707    1.7761   16.9920 H   0  0  0  0  0  0  0  0  0  0  0  0
    3.8926    1.8174   19.2375 H   0  0  0  0  0  0  0  0  0  0  0  0
    5.0327    0.6631   21.1697 H   0  0  0  0  0  0  0  0  0  0  0  0
    7.0383   -1.6562   21.7749 C   0  0  0  0  0  0  0  0  0  0  0  0
    5.7304   -2.3681   21.8276 C   0  0  0  0  0  0  0  0  0  0  0  0
    5.7650   -3.7606   21.2696 C   0  0  0  0  0  0  0  0  0  0  0  0
    5.8246   -4.2623   19.9862 C   0  0  0  0  0  0  0  0  0  0  0  0
    5.5733   -3.3395   18.5462 Cl  0  0  0  0  0  0  0  0  0  0  0  0
    6.0613   -5.6479   20.1314 C   0  0  0  0  0  0  0  0  0  0  0  0
    6.1109   -5.9817   21.4149 N   0  0  0  0  0  0  0  0  0  0  0  0
    5.9246   -4.8385   22.0788 N   0  0  0  0  0  0  0  0  0  0  0  0
    5.8904   -4.8084   23.5214 C   0  0  0  0  0  0  0  0  0  0  0  0
    6.1263   -5.7974   23.8991 H   0  0  0  0  0  0  0  0  0  0  0  0
    6.6258   -4.0832   23.8787 H   0  0  0  0  0  0  0  0  0  0  0  0
    4.8946   -4.5168   23.8646 H   0  0  0  0  0  0  0  0  0  0  0  0
    6.2094   -6.4066   19.3749 H   0  0  0  0  0  0  0  0  0  0  0  0
    5.5034   -2.4259   22.8969 H   0  0  0  0  0  0  0  0  0  0  0  0
    4.9720   -1.7677   21.3438 H   0  0  0  0  0  0  0  0  0  0  0  0
    8.0233   -1.9494   22.5986 N   0  0  0  0  0  0  0  0  0  0  0  0
   10.4579   -2.1881   23.2623 H   0  0  0  0  0  0  0  0  0  0  0  0
   11.3153   -0.1576   24.6040 H   0  0  0  0  0  0  0  0  0  0  0  0
    9.7550   -0.8595   24.9739 H   0  0  0  0  0  0  0  0  0  0  0  0
    9.5757    1.5197   25.1192 H   0  0  0  0  0  0  0  0  0  0  0  0
    8.5644    0.9453   23.8163 H   0  0  0  0  0  0  0  0  0  0  0  0
   10.0534    1.8168   22.1118 H   0  0  0  0  0  0  0  0  0  0  0  0
   11.3554    2.1036   23.2910 H   0  0  0  0  0  0  0  0  0  0  0  0
    9.8950    3.1014   23.3193 H   0  0  0  0  0  0  0  0  0  0  0  0
  1  2  1  0
  2  3  1  0
  3  4  1  0
  4  5  1  0
  5  6  1  0
  5  7  1  0
  5  8  1  0
  4  9  1  0
  9 10  2  0
 10 11  1  0
 11 12  1  0
 12 13  2  0
 13 14  1  0
 14 15  2  0
 15 16  1  0
 16 17  2  0
 17 18  1  0
 15 19  1  0
 14 20  1  0
 13 21  1  0
 11 22  1  0
 22 23  1  0
 23 24  1  0
 24 25  2  0
 25 26  1  0
 25 27  1  0
 27 28  2  0
 28 29  1  0
 29 30  1  0
 30 31  1  0
 30 32  1  0
 30 33  1  0
 27 34  1  0
 23 35  1  0
 23 36  1  0
 22 37  2  0
  4 38  1  0
  3 39  1  0
  3 40  1  0
  2 41  1  0
  2 42  1  0
  1 43  1  0
  1 44  1  0
  1 45  1  0
 37  9  1  0
 17 12  1  0
 29 24  1  0
M  END
>  <cnnaffinity>  (1) 
-5.98779

>  <filename>  (1) 
CCCC(C)c1nc(Cc2c(Cl)cnn2C)n(-c2cccnc2)n1

$$$$
