
     RDKit          3D

 45 46  0  0  0  0  0  0  0  0999 V2000
    4.9229    1.7993   16.9001 H   0  0  0  0  0  0  0  0  0  0  0  0
    5.3977    1.3341   17.7620 C   0  0  0  0  0  0  0  0  0  0  0  0
    6.5597    0.7026   17.5331 N   0  0  0  0  0  0  0  0  0  0  0  0
    7.1593    0.0980   18.5683 C   0  0  0  0  0  0  0  0  0  0  0  0
    8.0899   -0.4210   18.3415 H   0  0  0  0  0  0  0  0  0  0  0  0
    6.6507    0.1165   19.8877 C   0  0  0  0  0  0  0  0  0  0  0  0
    7.3143   -0.5608   20.9949 N   0  0  0  0  0  0  0  0  0  0  0  0
    7.4344   -1.9561   20.9703 C   0  0  0  0  0  0  0  0  0  0  0  0
    6.9988   -2.4340   20.0921 H   0  0  0  0  0  0  0  0  0  0  0  0
    8.0518   -2.6579   21.9501 C   0  0  0  0  0  0  0  0  0  0  0  0
    8.2810   -4.1429   21.8909 C   0  0  0  0  0  0  0  0  0  0  0  0
    9.1903   -4.3606   22.4584 H   0  0  0  0  0  0  0  0  0  0  0  0
    8.4357   -4.4406   20.8433 H   0  0  0  0  0  0  0  0  0  0  0  0
    7.1701   -5.0247   22.4690 C   0  0  0  0  0  0  0  0  0  0  0  0
    7.5251   -6.0650   22.4380 H   0  0  0  0  0  0  0  0  0  0  0  0
    7.0292   -4.7731   23.5312 H   0  0  0  0  0  0  0  0  0  0  0  0
    5.8427   -4.9570   21.7102 C   0  0  0  0  0  0  0  0  0  0  0  0
    5.4536   -3.9285   21.7403 H   0  0  0  0  0  0  0  0  0  0  0  0
    6.0119   -5.1987   20.6495 H   0  0  0  0  0  0  0  0  0  0  0  0
    4.7999   -5.9092   22.2979 C   0  0  0  0  0  0  0  0  0  0  0  0
    5.1616   -6.9449   22.2175 H   0  0  0  0  0  0  0  0  0  0  0  0
    3.8803   -5.8672   21.7016 H   0  0  0  0  0  0  0  0  0  0  0  0
    4.4750   -5.5951   23.7598 C   0  0  0  0  0  0  0  0  0  0  0  0
    4.1891   -4.5358   23.8401 H   0  0  0  0  0  0  0  0  0  0  0  0
    5.3791   -5.7034   24.3706 H   0  0  0  0  0  0  0  0  0  0  0  0
    3.3805   -6.4756   24.3529 C   0  0  0  0  0  0  0  0  0  0  0  0
    2.4956   -6.4294   23.7059 H   0  0  0  0  0  0  0  0  0  0  0  0
    3.7175   -7.5231   24.3387 H   0  0  0  0  0  0  0  0  0  0  0  0
    2.9653   -6.0963   25.7792 C   0  0  0  0  0  0  0  0  0  0  0  0
    2.0732   -6.6748   26.0504 H   0  0  0  0  0  0  0  0  0  0  0  0
    2.6581   -5.0406   25.8012 H   0  0  0  0  0  0  0  0  0  0  0  0
    4.0412   -6.3275   26.8414 C   0  0  0  0  0  0  0  0  0  0  0  0
    4.3757   -7.3716   26.8486 H   0  0  0  0  0  0  0  0  0  0  0  0
    4.9258   -5.7014   26.6793 H   0  0  0  0  0  0  0  0  0  0  0  0
    3.6575   -6.0954   27.8405 H   0  0  0  0  0  0  0  0  0  0  0  0
    8.5749   -1.9181   23.1177 C   0  0  0  0  0  0  0  0  0  0  0  0
    9.1521   -2.3767   24.0836 O   0  0  0  0  0  0  0  0  0  0  0  0
    8.3909   -0.5621   23.0692 N   0  0  0  0  0  0  0  0  0  0  0  0
    8.6484   -0.0573   23.8938 H   0  0  0  0  0  0  0  0  0  0  0  0
    7.6908    0.1604   22.1567 C   0  0  0  0  0  0  0  0  0  0  0  0
    7.4601    1.3259   22.3813 O   0  0  0  0  0  0  0  0  0  0  0  0
    5.4476    0.7977   20.1110 C   0  0  0  0  0  0  0  0  0  0  0  0
    5.0430    0.8694   21.1192 H   0  0  0  0  0  0  0  0  0  0  0  0
    4.7978    1.3904   19.0230 C   0  0  0  0  0  0  0  0  0  0  0  0
    3.8443    1.8930   19.1431 H   0  0  0  0  0  0  0  0  0  0  0  0
  1  2  1  0
  2  3  2  0
  3  4  1  0
  4  5  1  0
  4  6  2  0
  6  7  1  0
  7  8  1  0
  8  9  1  0
  8 10  2  0
 10 11  1  0
 11 12  1  0
 11 13  1  0
 11 14  1  0
 14 15  1  0
 14 16  1  0
 14 17  1  0
 17 18  1  0
 17 19  1  0
 17 20  1  0
 20 21  1  0
 20 22  1  0
 20 23  1  0
 23 24  1  0
 23 25  1  0
 23 26  1  0
 26 27  1  0
 26 28  1  0
 26 29  1  0
 29 30  1  0
 29 31  1  0
 29 32  1  0
 32 33  1  0
 32 34  1  0
 32 35  1  0
 10 36  1  0
 36 37  2  0
 36 38  1  0
 38 39  1  0
 38 40  1  0
 40 41  2  0
  6 42  1  0
 42 43  1  0
 42 44  2  0
 44 45  1  0
 44  2  1  0
 40  7  1  0
M  END
>  <cnnaffinity>  (1) 
-5.38779

>  <filename>  (1) 
CCCCCCCCc1cn(-c2cccnc2)c(=O)[nH]c1=O

$$$$
