
     RDKit          3D

 47 49  0  0  0  0  0  0  0  0999 V2000
    6.1952    0.1479   26.2436 C   0  0  0  0  0  0  0  0  0  0  0  0
    6.1155   -0.8439   25.0829 C   0  0  0  0  0  0  0  0  0  0  0  0
    7.1613   -1.9612   25.1866 C   0  0  0  0  0  0  0  0  0  0  0  0
    7.2122   -2.9489   23.9811 C   0  0  0  0  0  0  0  0  0  0  0  0
    5.9700   -3.8399   23.8518 C   0  0  0  0  0  0  0  0  0  0  0  0
    5.8037   -4.3833   24.7905 H   0  0  0  0  0  0  0  0  0  0  0  0
    5.0742   -3.2491   23.6262 H   0  0  0  0  0  0  0  0  0  0  0  0
    6.0956   -4.5798   23.0539 H   0  0  0  0  0  0  0  0  0  0  0  0
    7.5481   -2.1641   22.7372 C   0  0  0  0  0  0  0  0  0  0  0  0
    6.6912   -1.7418   21.8296 N   0  0  0  0  0  0  0  0  0  0  0  0
    7.4321   -0.8718   21.0858 N   0  0  0  0  0  0  0  0  0  0  0  0
    6.8062   -0.1495   20.0251 C   0  0  0  0  0  0  0  0  0  0  0  0
    5.6132    0.5501   20.2552 C   0  0  0  0  0  0  0  0  0  0  0  0
    5.0203    1.2303   19.1882 C   0  0  0  0  0  0  0  0  0  0  0  0
    5.6350    1.1931   17.9322 C   0  0  0  0  0  0  0  0  0  0  0  0
    6.7841    0.5369   17.7070 N   0  0  0  0  0  0  0  0  0  0  0  0
    7.3486   -0.1156   18.7302 C   0  0  0  0  0  0  0  0  0  0  0  0
    8.2815   -0.6383   18.5170 H   0  0  0  0  0  0  0  0  0  0  0  0
    5.1881    1.6934   17.0741 H   0  0  0  0  0  0  0  0  0  0  0  0
    4.0959    1.7854   19.3146 H   0  0  0  0  0  0  0  0  0  0  0  0
    5.1773    0.5586   21.2542 H   0  0  0  0  0  0  0  0  0  0  0  0
    8.6842   -0.7971   21.6268 C   0  0  0  0  0  0  0  0  0  0  0  0
    9.6568    0.3016   21.3106 C   0  0  0  0  0  0  0  0  0  0  0  0
    9.1358    1.6774   21.7372 C   0  0  0  0  0  0  0  0  0  0  0  0
    9.2118    2.1098   23.1410 C   0  0  0  0  0  0  0  0  0  0  0  0
    8.5058    3.2365   23.4673 C   0  0  0  0  0  0  0  0  0  0  0  0
    8.1015    3.6102   24.8564 C   0  0  0  0  0  0  0  0  0  0  0  0
    7.0133    3.4717   25.0340 H   0  0  0  0  0  0  0  0  0  0  0  0
    8.3454    4.6447   25.1604 H   0  0  0  0  0  0  0  0  0  0  0  0
    8.6229    2.9701   25.5872 H   0  0  0  0  0  0  0  0  0  0  0  0
    7.7938    3.9003   22.3618 C   0  0  0  0  0  0  0  0  0  0  0  0
    7.9719    4.1660   22.2414 N   0  0  0  0  0  0  0  0  0  0  0  0
    8.4358    2.5191   20.9862 C   0  0  0  0  0  0  0  0  0  0  0  0
    8.1712    2.3837   19.9423 H   0  0  0  0  0  0  0  0  0  0  0  0
    7.1476    4.7237   22.7866 H   0  0  0  0  0  0  0  0  0  0  0  0
    9.7652    1.5584   23.8897 H   0  0  0  0  0  0  0  0  0  0  0  0
    9.8497    0.2766   20.2331 H   0  0  0  0  0  0  0  0  0  0  0  0
   10.5869    0.0674   21.8344 H   0  0  0  0  0  0  0  0  0  0  0  0
    8.8042   -1.6552   22.6174 N   0  0  0  0  0  0  0  0  0  0  0  0
    8.0918   -3.5851   24.1387 H   0  0  0  0  0  0  0  0  0  0  0  0
    7.0083   -2.5349   26.1113 H   0  0  0  0  0  0  0  0  0  0  0  0
    8.1556   -1.4972   25.2639 H   0  0  0  0  0  0  0  0  0  0  0  0
    5.1080   -1.2796   25.0492 H   0  0  0  0  0  0  0  0  0  0  0  0
    6.2395   -0.3021   24.1342 H   0  0  0  0  0  0  0  0  0  0  0  0
    7.1813    0.6297   26.2915 H   0  0  0  0  0  0  0  0  0  0  0  0
    6.0211   -0.3488   27.2060 H   0  0  0  0  0  0  0  0  0  0  0  0
    5.4454    0.9399   26.1374 H   0  0  0  0  0  0  0  0  0  0  0  0
  1  2  1  0
  2  3  1  0
  3  4  1  0
  4  5  1  0
  5  6  1  0
  5  7  1  0
  5  8  1  0
  4  9  1  0
  9 10  2  0
 10 11  1  0
 11 12  1  0
 12 13  2  0
 13 14  1  0
 14 15  2  0
 15 16  1  0
 16 17  2  0
 17 18  1  0
 15 19  1  0
 14 20  1  0
 13 21  1  0
 11 22  1  0
 22 23  1  0
 23 24  1  0
 24 25  2  0
 25 26  1  0
 26 27  1  0
 27 28  1  0
 27 29  1  0
 27 30  1  0
 26 31  2  0
 31 32  1  0
 32 33  2  0
 33 34  1  0
 31 35  1  0
 25 36  1  0
 23 37  1  0
 23 38  1  0
 22 39  2  0
  4 40  1  0
  3 41  1  0
  3 42  1  0
  2 43  1  0
  2 44  1  0
  1 45  1  0
  1 46  1  0
  1 47  1  0
 39  9  1  0
 17 12  1  0
 33 24  1  0
M  END
>  <cnnaffinity>  (1) 
-6.00478

>  <filename>  (1) 
CCCC(C)c1nc(Cc2cncc(C)c2)n(-c2cccnc2)n1

$$$$
