
     RDKit          3D

 47 47  0  0  0  0  0  0  0  0999 V2000
    5.1174    1.7598   17.0141 H   0  0  0  0  0  0  0  0  0  0  0  0
    5.5293    1.2646   17.8909 C   0  0  0  0  0  0  0  0  0  0  0  0
    6.6825    0.6050   17.7043 N   0  0  0  0  0  0  0  0  0  0  0  0
    7.1979   -0.0417   18.7463 C   0  0  0  0  0  0  0  0  0  0  0  0
    8.1261   -0.5809   18.5802 H   0  0  0  0  0  0  0  0  0  0  0  0
    6.5933   -0.0372   19.9925 C   0  0  0  0  0  0  0  0  0  0  0  0
    7.4711   -0.9191   21.2124 S   0  0  0  0  0  0  0  0  0  0  0  0
    8.2591   -1.9358   20.5189 O   0  0  0  0  0  0  0  0  0  0  0  0
    6.5191   -1.3278   22.2400 O   0  0  0  0  0  0  0  0  0  0  0  0
    8.6908    0.3340   21.9285 C   0  0  0  0  0  0  0  0  0  0  0  0
    9.8734    0.4983   20.9560 C   0  0  0  0  0  0  0  0  0  0  0  0
   10.3578   -0.4640   20.7488 H   0  0  0  0  0  0  0  0  0  0  0  0
    9.5598    0.9274   20.0016 H   0  0  0  0  0  0  0  0  0  0  0  0
   10.6179    1.1737   21.3956 H   0  0  0  0  0  0  0  0  0  0  0  0
    8.0164    1.6839   22.2411 C   0  0  0  0  0  0  0  0  0  0  0  0
    7.1483    1.5628   22.9012 H   0  0  0  0  0  0  0  0  0  0  0  0
    8.7387    2.3139   22.7743 H   0  0  0  0  0  0  0  0  0  0  0  0
    7.7145    2.2425   21.3497 H   0  0  0  0  0  0  0  0  0  0  0  0
    9.1557   -0.2758   23.2661 C   0  0  0  0  0  0  0  0  0  0  0  0
    9.8555    0.4448   23.7302 H   0  0  0  0  0  0  0  0  0  0  0  0
    8.2828   -0.3292   23.9321 H   0  0  0  0  0  0  0  0  0  0  0  0
    9.8172   -1.6556   23.2127 C   0  0  0  0  0  0  0  0  0  0  0  0
   10.6623   -1.6413   22.5093 H   0  0  0  0  0  0  0  0  0  0  0  0
    9.1181   -2.4145   22.8327 H   0  0  0  0  0  0  0  0  0  0  0  0
   10.3170   -2.0491   24.5996 C   0  0  0  0  0  0  0  0  0  0  0  0
   10.9516   -1.2264   24.9701 H   0  0  0  0  0  0  0  0  0  0  0  0
   10.9494   -2.9467   24.5272 H   0  0  0  0  0  0  0  0  0  0  0  0
    9.2202   -2.3030   25.6449 C   0  0  0  0  0  0  0  0  0  0  0  0
    9.7034   -2.5905   26.5859 H   0  0  0  0  0  0  0  0  0  0  0  0
    8.6873   -1.3690   25.8827 H   0  0  0  0  0  0  0  0  0  0  0  0
    8.1684   -3.3743   25.3236 C   0  0  0  0  0  0  0  0  0  0  0  0
    7.4911   -3.0246   24.5294 H   0  0  0  0  0  0  0  0  0  0  0  0
    8.6404   -4.2868   24.9241 H   0  0  0  0  0  0  0  0  0  0  0  0
    7.3741   -3.6943   26.5946 C   0  0  0  0  0  0  0  0  0  0  0  0
    6.9414   -2.7513   26.9753 H   0  0  0  0  0  0  0  0  0  0  0  0
    8.0850   -4.0384   27.3658 H   0  0  0  0  0  0  0  0  0  0  0  0
    6.2634   -4.7347   26.4556 C   0  0  0  0  0  0  0  0  0  0  0  0
    6.6868   -5.6941   26.1181 H   0  0  0  0  0  0  0  0  0  0  0  0
    5.5475   -4.4191   25.6811 H   0  0  0  0  0  0  0  0  0  0  0  0
    5.5208   -4.9449   27.7770 C   0  0  0  0  0  0  0  0  0  0  0  0
    4.7061   -5.6647   27.6620 H   0  0  0  0  0  0  0  0  0  0  0  0
    6.1931   -5.3179   28.5596 H   0  0  0  0  0  0  0  0  0  0  0  0
    5.0887   -4.0059   28.1444 H   0  0  0  0  0  0  0  0  0  0  0  0
    5.4023    0.6534   20.2214 C   0  0  0  0  0  0  0  0  0  0  0  0
    4.9058    0.6891   21.1970 H   0  0  0  0  0  0  0  0  0  0  0  0
    4.8656    1.3120   19.1202 C   0  0  0  0  0  0  0  0  0  0  0  0
    3.9319    1.8577   19.1838 H   0  0  0  0  0  0  0  0  0  0  0  0
  1  2  1  0
  2  3  2  0
  3  4  1  0
  4  5  1  0
  4  6  2  0
  6  7  1  0
  7  8  2  0
  7  9  2  0
  7 10  1  0
 10 11  1  0
 11 12  1  0
 11 13  1  0
 11 14  1  0
 10 15  1  0
 15 16  1  0
 15 17  1  0
 15 18  1  0
 10 19  1  0
 19 20  1  0
 19 21  1  0
 19 22  1  0
 22 23  1  0
 22 24  1  0
 22 25  1  0
 25 26  1  0
 25 27  1  0
 25 28  1  0
 28 29  1  0
 28 30  1  0
 28 31  1  0
 31 32  1  0
 31 33  1  0
 31 34  1  0
 34 35  1  0
 34 36  1  0
 34 37  1  0
 37 38  1  0
 37 39  1  0
 37 40  1  0
 40 41  1  0
 40 42  1  0
 40 43  1  0
  6 44  1  0
 44 45  1  0
 44 46  2  0
 46 47  1  0
 46  2  1  0
M  END
>  <cnnaffinity>  (1) 
-5.02453

>  <filename>  (1) 
CCCCCCCCC(C)(C)S(=O)(=O)c1cccnc1

$$$$
