
     RDKit          3D

 45 46  0  0  0  0  0  0  0  0999 V2000
    4.9125    1.8099   16.9701 H   0  0  0  0  0  0  0  0  0  0  0  0
    5.3838    1.3068   17.8148 C   0  0  0  0  0  0  0  0  0  0  0  0
    6.5457    0.6885   17.5496 N   0  0  0  0  0  0  0  0  0  0  0  0
    7.1532    0.0668   18.5670 C   0  0  0  0  0  0  0  0  0  0  0  0
    8.1108   -0.3933   18.3249 H   0  0  0  0  0  0  0  0  0  0  0  0
    6.6522    0.0063   19.8823 C   0  0  0  0  0  0  0  0  0  0  0  0
    7.3897   -0.6750   20.9656 C   0  0  0  0  0  0  0  0  0  0  0  0
    7.7515   -0.2342   22.2256 C   0  0  0  0  0  0  0  0  0  0  0  0
    7.5893    1.1589   22.7512 C   0  0  0  0  0  0  0  0  0  0  0  0
    7.7199    1.1559   23.8403 H   0  0  0  0  0  0  0  0  0  0  0  0
    6.5700    1.5263   22.5786 H   0  0  0  0  0  0  0  0  0  0  0  0
    8.5780    2.1253   22.0853 C   0  0  0  0  0  0  0  0  0  0  0  0
    8.4728    2.0376   20.9949 H   0  0  0  0  0  0  0  0  0  0  0  0
    9.6006    1.7967   22.3153 H   0  0  0  0  0  0  0  0  0  0  0  0
    8.4006    3.5769   22.5288 C   0  0  0  0  0  0  0  0  0  0  0  0
    7.3622    3.8975   22.3520 H   0  0  0  0  0  0  0  0  0  0  0  0
    9.0157    4.2320   21.9052 H   0  0  0  0  0  0  0  0  0  0  0  0
    8.7763    3.8304   23.9902 C   0  0  0  0  0  0  0  0  0  0  0  0
    8.1244    3.2511   24.6613 H   0  0  0  0  0  0  0  0  0  0  0  0
    9.7970    3.4575   24.1763 H   0  0  0  0  0  0  0  0  0  0  0  0
    8.7101    5.3114   24.3596 C   0  0  0  0  0  0  0  0  0  0  0  0
    9.3813    5.8836   23.6982 H   0  0  0  0  0  0  0  0  0  0  0  0
    7.7001    5.6974   24.1522 H   0  0  0  0  0  0  0  0  0  0  0  0
    9.0897    5.5714   25.8181 C   0  0  0  0  0  0  0  0  0  0  0  0
   10.0711    5.1192   26.0183 H   0  0  0  0  0  0  0  0  0  0  0  0
    8.3763    5.0471   26.4735 H   0  0  0  0  0  0  0  0  0  0  0  0
    9.1294    7.0560   26.1911 C   0  0  0  0  0  0  0  0  0  0  0  0
    9.7863    7.5891   25.4857 H   0  0  0  0  0  0  0  0  0  0  0  0
    9.5952    7.1684   27.1802 H   0  0  0  0  0  0  0  0  0  0  0  0
    7.7530    7.7313   26.2053 C   0  0  0  0  0  0  0  0  0  0  0  0
    7.0780    7.1510   26.8517 H   0  0  0  0  0  0  0  0  0  0  0  0
    7.3055    7.6883   25.2020 H   0  0  0  0  0  0  0  0  0  0  0  0
    7.8201    9.1815   26.6869 C   0  0  0  0  0  0  0  0  0  0  0  0
    8.4717    9.7832   26.0412 H   0  0  0  0  0  0  0  0  0  0  0  0
    8.2307    9.2381   27.7027 H   0  0  0  0  0  0  0  0  0  0  0  0
    6.8326    9.6543   26.6991 H   0  0  0  0  0  0  0  0  0  0  0  0
    8.4856   -1.3076   22.7793 C   0  0  0  0  0  0  0  0  0  0  0  0
    8.9804   -1.3574   23.7451 H   0  0  0  0  0  0  0  0  0  0  0  0
    8.5710   -2.3393   21.9457 N   0  0  0  0  0  0  0  0  0  0  0  0
    7.9090   -1.9258   20.8533 N   0  0  0  0  0  0  0  0  0  0  0  0
    7.7986   -2.5437   20.0625 H   0  0  0  0  0  0  0  0  0  0  0  0
    5.4361    0.6583   20.1342 C   0  0  0  0  0  0  0  0  0  0  0  0
    5.0164    0.6341   21.1406 H   0  0  0  0  0  0  0  0  0  0  0  0
    4.7936    1.3172   19.0824 C   0  0  0  0  0  0  0  0  0  0  0  0
    3.8634    1.8486   19.2391 H   0  0  0  0  0  0  0  0  0  0  0  0
  1  2  1  0
  2  3  2  0
  3  4  1  0
  4  5  1  0
  4  6  2  0
  6  7  1  0
  7  8  2  0
  8  9  1  0
  9 10  1  0
  9 11  1  0
  9 12  1  0
 12 13  1  0
 12 14  1  0
 12 15  1  0
 15 16  1  0
 15 17  1  0
 15 18  1  0
 18 19  1  0
 18 20  1  0
 18 21  1  0
 21 22  1  0
 21 23  1  0
 21 24  1  0
 24 25  1  0
 24 26  1  0
 24 27  1  0
 27 28  1  0
 27 29  1  0
 27 30  1  0
 30 31  1  0
 30 32  1  0
 30 33  1  0
 33 34  1  0
 33 35  1  0
 33 36  1  0
  8 37  1  0
 37 38  1  0
 37 39  2  0
 39 40  1  0
 40 41  1  0
  6 42  1  0
 42 43  1  0
 42 44  2  0
 44 45  1  0
 44  2  1  0
 40  7  1  0
M  END
>  <cnnaffinity>  (1) 
-5.30005

>  <filename>  (1) 
CCCCCCCCCc1cn[nH]c1-c1cccnc1

$$$$
