
     RDKit          3D

 42 44  0  0  0  0  0  0  0  0999 V2000
    7.2037   -4.1642   24.1907 C   0  0  0  0  0  0  0  0  0  0  0  0
    7.7335   -4.5669   22.8159 C   0  0  0  0  0  0  0  0  0  0  0  0
    8.6595   -3.5258   22.1486 C   0  0  0  0  0  0  0  0  0  0  0  0
    8.1190   -2.1408   21.9739 C   0  0  0  0  0  0  0  0  0  0  0  0
    7.6390   -1.7832   20.8035 N   0  0  0  0  0  0  0  0  0  0  0  0
    7.2611   -0.4982   20.9970 N   0  0  0  0  0  0  0  0  0  0  0  0
    6.5848    0.1607   19.9387 C   0  0  0  0  0  0  0  0  0  0  0  0
    5.3793    0.8462   20.1198 C   0  0  0  0  0  0  0  0  0  0  0  0
    4.7971    1.4368   18.9921 C   0  0  0  0  0  0  0  0  0  0  0  0
    5.4393    1.3320   17.7553 C   0  0  0  0  0  0  0  0  0  0  0  0
    6.5811    0.6421   17.5747 N   0  0  0  0  0  0  0  0  0  0  0  0
    7.1183    0.0498   18.6427 C   0  0  0  0  0  0  0  0  0  0  0  0
    8.0107   -0.5526   18.4798 H   0  0  0  0  0  0  0  0  0  0  0  0
    5.0247    1.8077   16.8699 H   0  0  0  0  0  0  0  0  0  0  0  0
    3.8565    1.9721   19.0649 H   0  0  0  0  0  0  0  0  0  0  0  0
    4.8951    0.8787   21.0962 H   0  0  0  0  0  0  0  0  0  0  0  0
    7.6032   -0.1202   22.2621 C   0  0  0  0  0  0  0  0  0  0  0  0
    7.5787    1.3018   22.7213 C   0  0  0  0  0  0  0  0  0  0  0  0
    8.5373    2.2193   21.9254 C   0  0  0  0  0  0  0  0  0  0  0  0
    8.4580    3.6699   22.3502 C   0  0  0  0  0  0  0  0  0  0  0  0
    9.3902    4.2380   23.1733 C   0  0  0  0  0  0  0  0  0  0  0  0
    9.2844    5.5650   23.5145 N   0  0  0  0  0  0  0  0  0  0  0  0
    8.2763    6.4355   23.1054 C   0  0  0  0  0  0  0  0  0  0  0  0
    8.3402    7.5963   23.4853 O   0  0  0  0  0  0  0  0  0  0  0  0
    7.2818    5.8281   22.2354 C   0  0  0  0  0  0  0  0  0  0  0  0
    7.3817    4.5108   21.8815 C   0  0  0  0  0  0  0  0  0  0  0  0
    6.6273    4.0787   21.2144 H   0  0  0  0  0  0  0  0  0  0  0  0
    6.5030    6.4921   21.8843 H   0  0  0  0  0  0  0  0  0  0  0  0
    9.9229    6.0787   24.1029 H   0  0  0  0  0  0  0  0  0  0  0  0
   10.2327    3.6866   23.6016 H   0  0  0  0  0  0  0  0  0  0  0  0
    9.5660    1.8469   22.0339 H   0  0  0  0  0  0  0  0  0  0  0  0
    8.2928    2.1456   20.8577 H   0  0  0  0  0  0  0  0  0  0  0  0
    7.8371    1.3183   23.7811 H   0  0  0  0  0  0  0  0  0  0  0  0
    6.5631    1.6985   22.6372 H   0  0  0  0  0  0  0  0  0  0  0  0
    8.1218   -1.1527   22.9098 N   0  0  0  0  0  0  0  0  0  0  0  0
    9.6147   -3.4511   22.6823 H   0  0  0  0  0  0  0  0  0  0  0  0
    8.8703   -3.8623   21.1309 H   0  0  0  0  0  0  0  0  0  0  0  0
    8.2996   -5.5061   22.8976 H   0  0  0  0  0  0  0  0  0  0  0  0
    6.8890   -4.7874   22.1462 H   0  0  0  0  0  0  0  0  0  0  0  0
    6.4878   -4.9064   24.5601 H   0  0  0  0  0  0  0  0  0  0  0  0
    8.0141   -4.0872   24.9258 H   0  0  0  0  0  0  0  0  0  0  0  0
    6.6965   -3.1925   24.1536 H   0  0  0  0  0  0  0  0  0  0  0  0
  1  2  1  0
  2  3  1  0
  3  4  1  0
  4  5  2  0
  5  6  1  0
  6  7  1  0
  7  8  2  0
  8  9  1  0
  9 10  2  0
 10 11  1  0
 11 12  2  0
 12 13  1  0
 10 14  1  0
  9 15  1  0
  8 16  1  0
  6 17  1  0
 17 18  1  0
 18 19  1  0
 19 20  1  0
 20 21  2  0
 21 22  1  0
 22 23  1  0
 23 24  2  0
 23 25  1  0
 25 26  2  0
 26 27  1  0
 25 28  1  0
 22 29  1  0
 21 30  1  0
 19 31  1  0
 19 32  1  0
 18 33  1  0
 18 34  1  0
 17 35  2  0
  3 36  1  0
  3 37  1  0
  2 38  1  0
  2 39  1  0
  1 40  1  0
  1 41  1  0
  1 42  1  0
 35  4  1  0
 12  7  1  0
 26 20  1  0
M  END
>  <cnnaffinity>  (1) 
-5.28194

>  <filename>  (1) 
CCCc1nc(CCc2ccc(=O)[nH]c2)n(-c2cccnc2)n1

$$$$
