
     RDKit          3D

 43 45  0  0  0  0  0  0  0  0999 V2000
    6.5160   -4.7475   22.6091 C   0  0  0  0  0  0  0  0  0  0  0  0
    7.8541   -4.4042   23.2614 C   0  0  0  0  0  0  0  0  0  0  0  0
    8.7240   -3.6110   22.2773 C   0  0  0  0  0  0  0  0  0  0  0  0
    8.1769   -2.2597   21.9679 C   0  0  0  0  0  0  0  0  0  0  0  0
    7.7278   -1.9182   20.7789 N   0  0  0  0  0  0  0  0  0  0  0  0
    7.3448   -0.6253   20.9591 N   0  0  0  0  0  0  0  0  0  0  0  0
    6.6436    0.0361   19.9160 C   0  0  0  0  0  0  0  0  0  0  0  0
    5.4240    0.6802   20.1497 C   0  0  0  0  0  0  0  0  0  0  0  0
    4.8071    1.3190   19.0710 C   0  0  0  0  0  0  0  0  0  0  0  0
    5.4243    1.2934   17.8165 C   0  0  0  0  0  0  0  0  0  0  0  0
    6.5713    0.6308   17.5776 N   0  0  0  0  0  0  0  0  0  0  0  0
    7.1552    0.0030   18.6060 C   0  0  0  0  0  0  0  0  0  0  0  0
    8.0707   -0.5477   18.3872 H   0  0  0  0  0  0  0  0  0  0  0  0
    4.9841    1.8219   16.9749 H   0  0  0  0  0  0  0  0  0  0  0  0
    3.8754    1.8545   19.2059 H   0  0  0  0  0  0  0  0  0  0  0  0
    4.9696    0.6544   21.1427 H   0  0  0  0  0  0  0  0  0  0  0  0
    7.6433   -0.2512   22.2422 C   0  0  0  0  0  0  0  0  0  0  0  0
    7.6448    1.1516   22.7575 C   0  0  0  0  0  0  0  0  0  0  0  0
    8.9614    1.9359   22.4561 C   0  0  0  0  0  0  0  0  0  0  0  0
    9.1394    2.0774   20.9541 C   0  0  0  0  0  0  0  0  0  0  0  0
    9.2690    1.0962   20.4818 H   0  0  0  0  0  0  0  0  0  0  0  0
    8.2631    2.5239   20.4874 H   0  0  0  0  0  0  0  0  0  0  0  0
   10.0291    2.6694   20.7222 H   0  0  0  0  0  0  0  0  0  0  0  0
   10.1764    1.3603   23.0400 N   0  0  0  0  0  0  0  0  0  0  0  0
   10.9958    0.4210   22.4458 C   0  0  0  0  0  0  0  0  0  0  0  0
   11.9841    0.0793   23.3292 C   0  0  0  0  0  0  0  0  0  0  0  0
   11.7612    0.8373   24.5177 C   0  0  0  0  0  0  0  0  0  0  0  0
   10.6588    1.6244   24.3027 C   0  0  0  0  0  0  0  0  0  0  0  0
   10.1703    2.3741   24.9174 H   0  0  0  0  0  0  0  0  0  0  0  0
   12.3181    0.7597   25.4418 H   0  0  0  0  0  0  0  0  0  0  0  0
   12.7744   -0.6377   23.1386 H   0  0  0  0  0  0  0  0  0  0  0  0
   10.7899    0.0582   21.4470 H   0  0  0  0  0  0  0  0  0  0  0  0
    8.8592    2.9296   22.9151 H   0  0  0  0  0  0  0  0  0  0  0  0
    7.4651    1.1085   23.8334 H   0  0  0  0  0  0  0  0  0  0  0  0
    6.8294    1.7219   22.3010 H   0  0  0  0  0  0  0  0  0  0  0  0
    8.1335   -1.2813   22.9052 N   0  0  0  0  0  0  0  0  0  0  0  0
    8.7573   -4.1427   21.3287 H   0  0  0  0  0  0  0  0  0  0  0  0
    9.7487   -3.4834   22.6426 H   0  0  0  0  0  0  0  0  0  0  0  0
    8.3897   -5.3178   23.5478 H   0  0  0  0  0  0  0  0  0  0  0  0
    7.7044   -3.8239   24.1813 H   0  0  0  0  0  0  0  0  0  0  0  0
    6.6960   -5.3314   21.6974 H   0  0  0  0  0  0  0  0  0  0  0  0
    5.8608   -5.3350   23.2606 H   0  0  0  0  0  0  0  0  0  0  0  0
    5.9718   -3.8404   22.3165 H   0  0  0  0  0  0  0  0  0  0  0  0
  1  2  1  0
  2  3  1  0
  3  4  1  0
  4  5  2  0
  5  6  1  0
  6  7  1  0
  7  8  2  0
  8  9  1  0
  9 10  2  0
 10 11  1  0
 11 12  2  0
 12 13  1  0
 10 14  1  0
  9 15  1  0
  8 16  1  0
  6 17  1  0
 17 18  1  0
 18 19  1  0
 19 20  1  0
 20 21  1  0
 20 22  1  0
 20 23  1  0
 19 24  1  0
 24 25  1  0
 25 26  2  0
 26 27  1  0
 27 28  2  0
 28 29  1  0
 27 30  1  0
 26 31  1  0
 25 32  1  0
 19 33  1  0
 18 34  1  0
 18 35  1  0
 17 36  2  0
  3 37  1  0
  3 38  1  0
  2 39  1  0
  2 40  1  0
  1 41  1  0
  1 42  1  0
  1 43  1  0
 36  4  1  0
 12  7  1  0
 28 24  1  0
M  END
>  <cnnaffinity>  (1) 
-5.72554

>  <filename>  (1) 
CCCc1nc(CC(C)n2cccc2)n(-c2cccnc2)n1

$$$$
