
     RDKit          3D

 44 44  0  0  0  0  0  0  0  0999 V2000
    4.9271    1.7664   17.0114 H   0  0  0  0  0  0  0  0  0  0  0  0
    5.4166    1.2808   17.8582 C   0  0  0  0  0  0  0  0  0  0  0  0
    6.5817    0.6605   17.6217 N   0  0  0  0  0  0  0  0  0  0  0  0
    7.1923    0.0396   18.6350 C   0  0  0  0  0  0  0  0  0  0  0  0
    8.1333   -0.4484   18.3874 H   0  0  0  0  0  0  0  0  0  0  0  0
    6.6522    0.0168   19.9145 C   0  0  0  0  0  0  0  0  0  0  0  0
    7.4890   -0.8939   21.1685 S   0  0  0  0  0  0  0  0  0  0  0  0
    8.2460   -1.9566   20.5153 O   0  0  0  0  0  0  0  0  0  0  0  0
    6.4924   -1.2276   22.1839 O   0  0  0  0  0  0  0  0  0  0  0  0
    8.7689    0.2790   21.9302 C   0  0  0  0  0  0  0  0  0  0  0  0
    9.3211   -0.4281   23.1856 C   0  0  0  0  0  0  0  0  0  0  0  0
   10.0384    0.2250   23.7030 H   0  0  0  0  0  0  0  0  0  0  0  0
    9.8454   -1.3509   22.9151 H   0  0  0  0  0  0  0  0  0  0  0  0
    8.5264   -0.6904   23.8915 H   0  0  0  0  0  0  0  0  0  0  0  0
    9.9109    0.4766   20.9244 C   0  0  0  0  0  0  0  0  0  0  0  0
    9.5584    0.9799   20.0220 H   0  0  0  0  0  0  0  0  0  0  0  0
   10.7022    1.0951   21.3700 H   0  0  0  0  0  0  0  0  0  0  0  0
   10.3508   -0.4815   20.6320 H   0  0  0  0  0  0  0  0  0  0  0  0
    8.1532    1.6553   22.2790 C   0  0  0  0  0  0  0  0  0  0  0  0
    7.7379    2.1089   21.3675 H   0  0  0  0  0  0  0  0  0  0  0  0
    8.9790    2.3239   22.5789 H   0  0  0  0  0  0  0  0  0  0  0  0
    7.1042    1.6828   23.3860 C   0  0  0  0  0  0  0  0  0  0  0  0
    6.3220    0.9429   23.1843 H   0  0  0  0  0  0  0  0  0  0  0  0
    7.5623    1.3859   24.3398 H   0  0  0  0  0  0  0  0  0  0  0  0
    6.4719    3.0587   23.5492 C   0  0  0  0  0  0  0  0  0  0  0  0
    7.2563    3.8037   23.7474 H   0  0  0  0  0  0  0  0  0  0  0  0
    6.0018    3.3555   22.5995 H   0  0  0  0  0  0  0  0  0  0  0  0
    5.4224    3.0920   24.6571 C   0  0  0  0  0  0  0  0  0  0  0  0
    5.9041    2.8654   25.6200 H   0  0  0  0  0  0  0  0  0  0  0  0
    4.6938    2.2888   24.4829 H   0  0  0  0  0  0  0  0  0  0  0  0
    4.6837    4.4242   24.7670 C   0  0  0  0  0  0  0  0  0  0  0  0
    4.2701    4.6907   23.7826 H   0  0  0  0  0  0  0  0  0  0  0  0
    3.8214    4.3017   25.4352 H   0  0  0  0  0  0  0  0  0  0  0  0
    5.5513    5.5741   25.2771 C   0  0  0  0  0  0  0  0  0  0  0  0
    6.0184    5.2784   26.2257 H   0  0  0  0  0  0  0  0  0  0  0  0
    6.3741    5.7669   24.5775 H   0  0  0  0  0  0  0  0  0  0  0  0
    4.7547    6.8541   25.4820 C   0  0  0  0  0  0  0  0  0  0  0  0
    4.2957    7.1781   24.5412 H   0  0  0  0  0  0  0  0  0  0  0  0
    5.3921    7.6639   25.8472 H   0  0  0  0  0  0  0  0  0  0  0  0
    3.9502    6.6977   26.2095 H   0  0  0  0  0  0  0  0  0  0  0  0
    5.4397    0.6560   20.1771 C   0  0  0  0  0  0  0  0  0  0  0  0
    4.9889    0.6315   21.1717 H   0  0  0  0  0  0  0  0  0  0  0  0
    4.8141    1.3068   19.1199 C   0  0  0  0  0  0  0  0  0  0  0  0
    3.8803    1.8386   19.2644 H   0  0  0  0  0  0  0  0  0  0  0  0
  1  2  1  0
  2  3  2  0
  3  4  1  0
  4  5  1  0
  4  6  2  0
  6  7  1  0
  7  8  2  0
  7  9  2  0
  7 10  1  0
 10 11  1  0
 11 12  1  0
 11 13  1  0
 11 14  1  0
 10 15  1  0
 15 16  1  0
 15 17  1  0
 15 18  1  0
 10 19  1  0
 19 20  1  0
 19 21  1  0
 19 22  1  0
 22 23  1  0
 22 24  1  0
 22 25  1  0
 25 26  1  0
 25 27  1  0
 25 28  1  0
 28 29  1  0
 28 30  1  0
 28 31  1  0
 31 32  1  0
 31 33  1  0
 31 34  1  0
 34 35  1  0
 34 36  1  0
 34 37  1  0
 37 38  1  0
 37 39  1  0
 37 40  1  0
  6 41  1  0
 41 42  1  0
 41 43  2  0
 43 44  1  0
 43  2  1  0
M  END
>  <cnnaffinity>  (1) 
-4.84411

>  <filename>  (1) 
CCCCCCCC(C)(C)S(=O)(=O)c1cccnc1

$$$$
