
     RDKit          3D

 39 40  0  0  0  0  0  0  0  0999 V2000
    4.9077    1.8046   16.9795 H   0  0  0  0  0  0  0  0  0  0  0  0
    5.3831    1.3032   17.8184 C   0  0  0  0  0  0  0  0  0  0  0  0
    6.5414    0.6833   17.5443 N   0  0  0  0  0  0  0  0  0  0  0  0
    7.1601    0.0758   18.5680 C   0  0  0  0  0  0  0  0  0  0  0  0
    8.1069   -0.4186   18.3383 H   0  0  0  0  0  0  0  0  0  0  0  0
    6.6596    0.0285   19.8826 C   0  0  0  0  0  0  0  0  0  0  0  0
    7.3698   -0.7188   20.9559 C   0  0  0  0  0  0  0  0  0  0  0  0
    6.7644   -1.9029   21.4850 C   0  0  0  0  0  0  0  0  0  0  0  0
    5.8064   -2.1942   21.0537 H   0  0  0  0  0  0  0  0  0  0  0  0
    7.3665   -2.6343   22.4643 C   0  0  0  0  0  0  0  0  0  0  0  0
    6.9631   -3.5399   22.8927 H   0  0  0  0  0  0  0  0  0  0  0  0
    8.6425   -2.2005   23.0232 C   0  0  0  0  0  0  0  0  0  0  0  0
    9.2849   -2.7477   23.9039 O   0  0  0  0  0  0  0  0  0  0  0  0
    9.1485   -1.0379   22.4670 N   0  0  0  0  0  0  0  0  0  0  0  0
   10.0155   -0.7843   22.9132 H   0  0  0  0  0  0  0  0  0  0  0  0
    8.5779   -0.2840   21.4691 C   0  0  0  0  0  0  0  0  0  0  0  0
    9.2827    0.9864   21.1160 C   0  0  0  0  0  0  0  0  0  0  0  0
    8.9101    1.3002   20.1403 H   0  0  0  0  0  0  0  0  0  0  0  0
   10.3619    0.8126   21.0082 H   0  0  0  0  0  0  0  0  0  0  0  0
    9.0358    2.1357   22.1174 C   0  0  0  0  0  0  0  0  0  0  0  0
    9.3588    1.8225   23.1226 H   0  0  0  0  0  0  0  0  0  0  0  0
    9.6686    2.9931   21.8411 H   0  0  0  0  0  0  0  0  0  0  0  0
    7.5696    2.5894   22.1680 C   0  0  0  0  0  0  0  0  0  0  0  0
    6.9372    1.7400   22.4703 H   0  0  0  0  0  0  0  0  0  0  0  0
    7.2192    2.8532   21.1566 H   0  0  0  0  0  0  0  0  0  0  0  0
    7.3586    3.7804   23.1088 C   0  0  0  0  0  0  0  0  0  0  0  0
    7.6265    3.4833   24.1368 H   0  0  0  0  0  0  0  0  0  0  0  0
    8.0609    4.5833   22.8336 H   0  0  0  0  0  0  0  0  0  0  0  0
    5.9288    4.3394   23.0999 C   0  0  0  0  0  0  0  0  0  0  0  0
    5.6504    4.5976   22.0658 H   0  0  0  0  0  0  0  0  0  0  0  0
    5.9126    5.2851   23.6589 H   0  0  0  0  0  0  0  0  0  0  0  0
    4.8903    3.3779   23.6914 C   0  0  0  0  0  0  0  0  0  0  0  0
    4.7762    2.4765   23.0760 H   0  0  0  0  0  0  0  0  0  0  0  0
    3.9051    3.8514   23.7669 H   0  0  0  0  0  0  0  0  0  0  0  0
    5.1855    3.0503   24.6972 H   0  0  0  0  0  0  0  0  0  0  0  0
    5.4371    0.6590   20.1374 C   0  0  0  0  0  0  0  0  0  0  0  0
    5.0200    0.6279   21.1481 H   0  0  0  0  0  0  0  0  0  0  0  0
    4.7959    1.3196   19.0887 C   0  0  0  0  0  0  0  0  0  0  0  0
    3.8651    1.8465   19.2429 H   0  0  0  0  0  0  0  0  0  0  0  0
  1  2  1  0
  2  3  2  0
  3  4  1  0
  4  5  1  0
  4  6  2  0
  6  7  1  0
  7  8  1  0
  8  9  1  0
  8 10  2  0
 10 11  1  0
 10 12  1  0
 12 13  2  0
 12 14  1  0
 14 15  1  0
 14 16  1  0
 16 17  1  0
 17 18  1  0
 17 19  1  0
 17 20  1  0
 20 21  1  0
 20 22  1  0
 20 23  1  0
 23 24  1  0
 23 25  1  0
 23 26  1  0
 26 27  1  0
 26 28  1  0
 26 29  1  0
 29 30  1  0
 29 31  1  0
 29 32  1  0
 32 33  1  0
 32 34  1  0
 32 35  1  0
  6 36  1  0
 36 37  1  0
 36 38  2  0
 38 39  1  0
 38  2  1  0
 16  7  2  0
M  END
>  <cnnaffinity>  (1) 
-5.21066

>  <filename>  (1) 
CCCCCCc1[nH]c(=O)ccc1-c1cccnc1

$$$$
