
     RDKit          3D

 41 42  0  0  0  0  0  0  0  0999 V2000
    4.9117    1.8059   16.9885 H   0  0  0  0  0  0  0  0  0  0  0  0
    5.3892    1.3013   17.8263 C   0  0  0  0  0  0  0  0  0  0  0  0
    6.5477    0.6791   17.5510 N   0  0  0  0  0  0  0  0  0  0  0  0
    7.1747    0.0683   18.5672 C   0  0  0  0  0  0  0  0  0  0  0  0
    8.1131   -0.4302   18.3265 H   0  0  0  0  0  0  0  0  0  0  0  0
    6.6976    0.0164   19.9024 C   0  0  0  0  0  0  0  0  0  0  0  0
    7.3832   -0.6819   20.9311 N   0  0  0  0  0  0  0  0  0  0  0  0
    8.6894   -0.5133   21.3998 C   0  0  0  0  0  0  0  0  0  0  0  0
    9.5612    0.6291   20.9722 C   0  0  0  0  0  0  0  0  0  0  0  0
   10.5847    0.2471   20.9600 H   0  0  0  0  0  0  0  0  0  0  0  0
    9.2879    0.9155   19.9568 H   0  0  0  0  0  0  0  0  0  0  0  0
    9.4548    1.8315   21.9280 C   0  0  0  0  0  0  0  0  0  0  0  0
   10.2130    2.5790   21.6521 H   0  0  0  0  0  0  0  0  0  0  0  0
    9.7016    1.4954   22.9468 H   0  0  0  0  0  0  0  0  0  0  0  0
    8.0670    2.4724   21.9149 C   0  0  0  0  0  0  0  0  0  0  0  0
    7.3086    1.7505   22.2579 H   0  0  0  0  0  0  0  0  0  0  0  0
    7.7860    2.6938   20.8772 H   0  0  0  0  0  0  0  0  0  0  0  0
    7.9947    3.7352   22.7757 C   0  0  0  0  0  0  0  0  0  0  0  0
    8.2686    3.4827   23.8145 H   0  0  0  0  0  0  0  0  0  0  0  0
    8.7524    4.4614   22.4384 H   0  0  0  0  0  0  0  0  0  0  0  0
    6.6072    4.3832   22.7615 C   0  0  0  0  0  0  0  0  0  0  0  0
    5.8574    3.6235   23.0292 H   0  0  0  0  0  0  0  0  0  0  0  0
    6.3651    4.6976   21.7326 H   0  0  0  0  0  0  0  0  0  0  0  0
    6.4723    5.5862   23.7068 C   0  0  0  0  0  0  0  0  0  0  0  0
    6.7781    5.2797   24.7190 H   0  0  0  0  0  0  0  0  0  0  0  0
    5.4120    5.8597   23.7855 H   0  0  0  0  0  0  0  0  0  0  0  0
    7.2878    6.8086   23.2638 C   0  0  0  0  0  0  0  0  0  0  0  0
    7.0959    7.6738   23.9075 H   0  0  0  0  0  0  0  0  0  0  0  0
    8.3664    6.6111   23.2879 H   0  0  0  0  0  0  0  0  0  0  0  0
    7.0357    7.0956   22.2346 H   0  0  0  0  0  0  0  0  0  0  0  0
    9.0750   -1.3535   22.2793 N   0  0  0  0  0  0  0  0  0  0  0  0
    7.9610   -2.2577   22.5571 C   0  0  0  0  0  0  0  0  0  0  0  0
    7.7335   -2.2259   23.6298 H   0  0  0  0  0  0  0  0  0  0  0  0
    8.2604   -3.2843   22.3128 H   0  0  0  0  0  0  0  0  0  0  0  0
    6.7714   -1.7675   21.6950 C   0  0  0  0  0  0  0  0  0  0  0  0
    5.9374   -1.4017   22.3006 H   0  0  0  0  0  0  0  0  0  0  0  0
    6.3638   -2.5423   21.0332 H   0  0  0  0  0  0  0  0  0  0  0  0
    5.4662    0.6431   20.1525 C   0  0  0  0  0  0  0  0  0  0  0  0
    5.0530    0.6090   21.1628 H   0  0  0  0  0  0  0  0  0  0  0  0
    4.8153    1.3058   19.1019 C   0  0  0  0  0  0  0  0  0  0  0  0
    3.8811    1.8316   19.2565 H   0  0  0  0  0  0  0  0  0  0  0  0
  1  2  1  0
  2  3  2  0
  3  4  1  0
  4  5  1  0
  4  6  2  0
  6  7  1  0
  7  8  1  0
  8  9  1  0
  9 10  1  0
  9 11  1  0
  9 12  1  0
 12 13  1  0
 12 14  1  0
 12 15  1  0
 15 16  1  0
 15 17  1  0
 15 18  1  0
 18 19  1  0
 18 20  1  0
 18 21  1  0
 21 22  1  0
 21 23  1  0
 21 24  1  0
 24 25  1  0
 24 26  1  0
 24 27  1  0
 27 28  1  0
 27 29  1  0
 27 30  1  0
  8 31  2  0
 31 32  1  0
 32 33  1  0
 32 34  1  0
 32 35  1  0
 35 36  1  0
 35 37  1  0
  6 38  1  0
 38 39  1  0
 38 40  2  0
 40 41  1  0
 40  2  1  0
 35  7  1  0
M  END
>  <cnnaffinity>  (1) 
-5.08166

>  <filename>  (1) 
CCCCCCCC1=NCCN1c1cccnc1

$$$$
