
     RDKit          3D

 46 48  0  0  0  0  0  0  0  0999 V2000
    5.0359    1.7942   16.9008 H   0  0  0  0  0  0  0  0  0  0  0  0
    5.4443    1.3035   17.7826 C   0  0  0  0  0  0  0  0  0  0  0  0
    6.5917    0.6332   17.5982 N   0  0  0  0  0  0  0  0  0  0  0  0
    7.1175    0.0103   18.6588 C   0  0  0  0  0  0  0  0  0  0  0  0
    8.0317   -0.5524   18.4737 H   0  0  0  0  0  0  0  0  0  0  0  0
    6.5571    0.0571   19.9479 C   0  0  0  0  0  0  0  0  0  0  0  0
    7.2903   -0.5678   21.0559 C   0  0  0  0  0  0  0  0  0  0  0  0
    7.9167   -1.7250   20.8442 N   0  0  0  0  0  0  0  0  0  0  0  0
    8.4962   -1.9809   22.0137 N   0  0  0  0  0  0  0  0  0  0  0  0
    8.3545   -1.0265   22.9428 C   0  0  0  0  0  0  0  0  0  0  0  0
    7.5319   -0.0658   22.3782 C   0  0  0  0  0  0  0  0  0  0  0  0
    7.2329    1.3456   22.8189 C   0  0  0  0  0  0  0  0  0  0  0  0
    7.4884    1.4798   23.8779 H   0  0  0  0  0  0  0  0  0  0  0  0
    6.1568    1.5403   22.7484 H   0  0  0  0  0  0  0  0  0  0  0  0
    7.9979    2.3549   21.9395 C   0  0  0  0  0  0  0  0  0  0  0  0
    7.6469    2.2276   20.9071 H   0  0  0  0  0  0  0  0  0  0  0  0
    7.7482    3.3847   22.2324 H   0  0  0  0  0  0  0  0  0  0  0  0
    9.5154    2.1409   21.9880 C   0  0  0  0  0  0  0  0  0  0  0  0
   10.0024    2.7330   21.2054 H   0  0  0  0  0  0  0  0  0  0  0  0
    9.7277    1.0906   21.7327 H   0  0  0  0  0  0  0  0  0  0  0  0
   10.1299    2.4465   23.3557 C   0  0  0  0  0  0  0  0  0  0  0  0
    9.9117    3.4895   23.6322 H   0  0  0  0  0  0  0  0  0  0  0  0
    9.6378    1.8347   24.1232 H   0  0  0  0  0  0  0  0  0  0  0  0
   11.6372    2.2049   23.4232 C   0  0  0  0  0  0  0  0  0  0  0  0
   11.9757    2.3999   24.4505 H   0  0  0  0  0  0  0  0  0  0  0  0
   11.8497    1.1397   23.2439 H   0  0  0  0  0  0  0  0  0  0  0  0
   12.4509    3.0463   22.4307 C   0  0  0  0  0  0  0  0  0  0  0  0
   12.0340    4.0605   22.3602 H   0  0  0  0  0  0  0  0  0  0  0  0
   12.3566    2.6239   21.4178 H   0  0  0  0  0  0  0  0  0  0  0  0
   13.9154    3.1466   22.8348 C   0  0  0  0  0  0  0  0  0  0  0  0
   14.4896    3.7823   22.1559 H   0  0  0  0  0  0  0  0  0  0  0  0
   14.0265    3.5767   23.8375 H   0  0  0  0  0  0  0  0  0  0  0  0
   14.3850    2.1562   22.8512 H   0  0  0  0  0  0  0  0  0  0  0  0
    9.3098   -1.3089   24.0755 C   0  0  0  0  0  0  0  0  0  0  0  0
    8.7902   -1.3592   25.0348 H   0  0  0  0  0  0  0  0  0  0  0  0
   10.0553   -0.5095   24.1448 H   0  0  0  0  0  0  0  0  0  0  0  0
    9.9678   -2.6706   23.6869 C   0  0  0  0  0  0  0  0  0  0  0  0
   11.0552   -2.6312   23.6894 H   0  0  0  0  0  0  0  0  0  0  0  0
    9.6732   -3.4635   24.3743 H   0  0  0  0  0  0  0  0  0  0  0  0
    9.4784   -2.9983   22.2605 C   0  0  0  0  0  0  0  0  0  0  0  0
   10.2674   -2.8896   21.5128 H   0  0  0  0  0  0  0  0  0  0  0  0
    9.0153   -3.9836   22.1828 H   0  0  0  0  0  0  0  0  0  0  0  0
    5.3332    0.7241   20.1094 C   0  0  0  0  0  0  0  0  0  0  0  0
    4.8361    0.7349   21.0799 H   0  0  0  0  0  0  0  0  0  0  0  0
    4.7695    1.3621   19.0048 C   0  0  0  0  0  0  0  0  0  0  0  0
    3.8273    1.8955   19.0816 H   0  0  0  0  0  0  0  0  0  0  0  0
  1  2  1  0
  2  3  2  0
  3  4  1  0
  4  5  1  0
  4  6  2  0
  6  7  1  0
  7  8  2  0
  8  9  1  0
  9 10  1  0
 10 11  2  0
 11 12  1  0
 12 13  1  0
 12 14  1  0
 12 15  1  0
 15 16  1  0
 15 17  1  0
 15 18  1  0
 18 19  1  0
 18 20  1  0
 18 21  1  0
 21 22  1  0
 21 23  1  0
 21 24  1  0
 24 25  1  0
 24 26  1  0
 24 27  1  0
 27 28  1  0
 27 29  1  0
 27 30  1  0
 30 31  1  0
 30 32  1  0
 30 33  1  0
 10 34  1  0
 34 35  1  0
 34 36  1  0
 34 37  1  0
 37 38  1  0
 37 39  1  0
 37 40  1  0
 40 41  1  0
 40 42  1  0
  6 43  1  0
 43 44  1  0
 43 45  2  0
 45 46  1  0
 45  2  1  0
 11  7  1  0
 40  9  1  0
M  END
>  <cnnaffinity>  (1) 
-5.86269

>  <filename>  (1) 
CCCCCCCc1c(-c2cccnc2)nn2c1CCC2

$$$$
