
     RDKit          3D

 42 44  0  0  0  0  0  0  0  0999 V2000
    7.2102   -4.1556   24.1803 C   0  0  0  0  0  0  0  0  0  0  0  0
    7.7503   -4.5517   22.8107 C   0  0  0  0  0  0  0  0  0  0  0  0
    8.6915   -3.5119   22.1756 C   0  0  0  0  0  0  0  0  0  0  0  0
    8.1559   -2.1304   21.9920 C   0  0  0  0  0  0  0  0  0  0  0  0
    7.6618   -1.7892   20.8215 N   0  0  0  0  0  0  0  0  0  0  0  0
    7.2994   -0.4981   20.9964 N   0  0  0  0  0  0  0  0  0  0  0  0
    6.6015    0.1479   19.9440 C   0  0  0  0  0  0  0  0  0  0  0  0
    5.3881    0.8180   20.1334 C   0  0  0  0  0  0  0  0  0  0  0  0
    4.7972    1.4136   19.0131 C   0  0  0  0  0  0  0  0  0  0  0  0
    5.4418    1.3272   17.7754 C   0  0  0  0  0  0  0  0  0  0  0  0
    6.5877    0.6465   17.5859 N   0  0  0  0  0  0  0  0  0  0  0  0
    7.1316    0.0458   18.6456 C   0  0  0  0  0  0  0  0  0  0  0  0
    8.0310   -0.5460   18.4784 H   0  0  0  0  0  0  0  0  0  0  0  0
    5.0100    1.7870   16.8912 H   0  0  0  0  0  0  0  0  0  0  0  0
    3.8473    1.9299   19.0919 H   0  0  0  0  0  0  0  0  0  0  0  0
    4.9145    0.8414   21.1160 H   0  0  0  0  0  0  0  0  0  0  0  0
    7.6654   -0.1006   22.2491 C   0  0  0  0  0  0  0  0  0  0  0  0
    7.6520    1.3302   22.6753 C   0  0  0  0  0  0  0  0  0  0  0  0
    8.5831    2.2385   21.8231 C   0  0  0  0  0  0  0  0  0  0  0  0
    8.4656    3.6802   22.2220 C   0  0  0  0  0  0  0  0  0  0  0  0
    7.4628    4.5364   21.8831 C   0  0  0  0  0  0  0  0  0  0  0  0
    7.5752    5.8251   22.4806 C   0  0  0  0  0  0  0  0  0  0  0  0
    8.6516    5.9274   23.3042 C   0  0  0  0  0  0  0  0  0  0  0  0
    9.0870    7.0906   24.1363 C   0  0  0  0  0  0  0  0  0  0  0  0
    8.2584    7.7815   24.3159 H   0  0  0  0  0  0  0  0  0  0  0  0
    9.4851    6.7668   25.1014 H   0  0  0  0  0  0  0  0  0  0  0  0
    9.8670    7.6401   23.6057 H   0  0  0  0  0  0  0  0  0  0  0  0
    9.5837    4.4640   23.2920 S   0  0  0  0  0  0  0  0  0  0  0  0
    6.8666    6.6310   22.3051 H   0  0  0  0  0  0  0  0  0  0  0  0
    6.6253    4.2583   21.2490 H   0  0  0  0  0  0  0  0  0  0  0  0
    8.2968    2.1592   20.7646 H   0  0  0  0  0  0  0  0  0  0  0  0
    9.6223    1.8950   21.8957 H   0  0  0  0  0  0  0  0  0  0  0  0
    6.6261    1.7084   22.6061 H   0  0  0  0  0  0  0  0  0  0  0  0
    7.9411    1.3649   23.7294 H   0  0  0  0  0  0  0  0  0  0  0  0
    8.1884   -1.1232   22.9067 N   0  0  0  0  0  0  0  0  0  0  0  0
    8.9110   -3.8396   21.1603 H   0  0  0  0  0  0  0  0  0  0  0  0
    9.6331   -3.4361   22.7297 H   0  0  0  0  0  0  0  0  0  0  0  0
    6.9148   -4.7562   22.1249 H   0  0  0  0  0  0  0  0  0  0  0  0
    8.3030   -5.4967   22.8987 H   0  0  0  0  0  0  0  0  0  0  0  0
    8.0066   -4.0830   24.9310 H   0  0  0  0  0  0  0  0  0  0  0  0
    6.4913   -4.9007   24.5338 H   0  0  0  0  0  0  0  0  0  0  0  0
    6.7036   -3.1848   24.1427 H   0  0  0  0  0  0  0  0  0  0  0  0
  1  2  1  0
  2  3  1  0
  3  4  1  0
  4  5  2  0
  5  6  1  0
  6  7  1  0
  7  8  2  0
  8  9  1  0
  9 10  2  0
 10 11  1  0
 11 12  2  0
 12 13  1  0
 10 14  1  0
  9 15  1  0
  8 16  1  0
  6 17  1  0
 17 18  1  0
 18 19  1  0
 19 20  1  0
 20 21  2  0
 21 22  1  0
 22 23  2  0
 23 24  1  0
 24 25  1  0
 24 26  1  0
 24 27  1  0
 23 28  1  0
 22 29  1  0
 21 30  1  0
 19 31  1  0
 19 32  1  0
 18 33  1  0
 18 34  1  0
 17 35  2  0
  3 36  1  0
  3 37  1  0
  2 38  1  0
  2 39  1  0
  1 40  1  0
  1 41  1  0
  1 42  1  0
 35  4  1  0
 12  7  1  0
 28 20  1  0
M  END
>  <cnnaffinity>  (1) 
-5.56204

>  <filename>  (1) 
CCCc1nc(CCc2ccc(C)s2)n(-c2cccnc2)n1

$$$$
