
     RDKit          3D

 38 39  0  0  0  0  0  0  0  0999 V2000
    4.9078    1.7774   16.9995 H   0  0  0  0  0  0  0  0  0  0  0  0
    5.4003    1.2942   17.8387 C   0  0  0  0  0  0  0  0  0  0  0  0
    6.5634    0.6818   17.5674 N   0  0  0  0  0  0  0  0  0  0  0  0
    7.1746    0.0706   18.5900 C   0  0  0  0  0  0  0  0  0  0  0  0
    8.1171   -0.4305   18.3730 H   0  0  0  0  0  0  0  0  0  0  0  0
    6.6611    0.0139   19.8983 C   0  0  0  0  0  0  0  0  0  0  0  0
    7.3789   -0.7064   20.9777 C   0  0  0  0  0  0  0  0  0  0  0  0
    8.7674   -0.5825   21.1605 C   0  0  0  0  0  0  0  0  0  0  0  0
    9.3293    0.0661   20.4888 H   0  0  0  0  0  0  0  0  0  0  0  0
    9.4502   -1.1972   22.1320 N   0  0  0  0  0  0  0  0  0  0  0  0
    8.7494   -1.9866   22.9591 C   0  0  0  0  0  0  0  0  0  0  0  0
    9.3131   -2.4767   23.7471 H   0  0  0  0  0  0  0  0  0  0  0  0
    7.3674   -2.2149   22.8628 C   0  0  0  0  0  0  0  0  0  0  0  0
    6.6251   -3.0604   23.8601 C   0  0  0  0  0  0  0  0  0  0  0  0
    7.2701   -3.8809   24.1955 H   0  0  0  0  0  0  0  0  0  0  0  0
    5.7586   -3.5252   23.3693 H   0  0  0  0  0  0  0  0  0  0  0  0
    6.1416   -2.2336   25.0569 C   0  0  0  0  0  0  0  0  0  0  0  0
    7.0120   -1.8174   25.5818 H   0  0  0  0  0  0  0  0  0  0  0  0
    5.5727   -1.3719   24.6910 H   0  0  0  0  0  0  0  0  0  0  0  0
    5.2817   -3.0235   26.0371 C   0  0  0  0  0  0  0  0  0  0  0  0
    4.8103   -2.3243   26.7397 H   0  0  0  0  0  0  0  0  0  0  0  0
    4.4616   -3.5123   25.4896 H   0  0  0  0  0  0  0  0  0  0  0  0
    6.0547   -4.0747   26.8259 C   0  0  0  0  0  0  0  0  0  0  0  0
    6.9171   -3.5984   27.3153 H   0  0  0  0  0  0  0  0  0  0  0  0
    6.4731   -4.8301   26.1460 H   0  0  0  0  0  0  0  0  0  0  0  0
    5.1980   -4.7664   27.8775 C   0  0  0  0  0  0  0  0  0  0  0  0
    4.7917   -4.0129   28.5654 H   0  0  0  0  0  0  0  0  0  0  0  0
    4.3361   -5.2369   27.3866 H   0  0  0  0  0  0  0  0  0  0  0  0
    5.9700   -5.8112   28.6662 C   0  0  0  0  0  0  0  0  0  0  0  0
    6.8203   -5.3541   29.1844 H   0  0  0  0  0  0  0  0  0  0  0  0
    6.3603   -6.5883   27.9997 H   0  0  0  0  0  0  0  0  0  0  0  0
    5.3312   -6.2904   29.4124 H   0  0  0  0  0  0  0  0  0  0  0  0
    6.6812   -1.5343   21.8587 C   0  0  0  0  0  0  0  0  0  0  0  0
    5.6032   -1.6568   21.7391 H   0  0  0  0  0  0  0  0  0  0  0  0
    5.4393    0.6492   20.1519 C   0  0  0  0  0  0  0  0  0  0  0  0
    5.0141    0.6306   21.1593 H   0  0  0  0  0  0  0  0  0  0  0  0
    4.8025    1.3170   19.1055 C   0  0  0  0  0  0  0  0  0  0  0  0
    3.8690    1.8470   19.2632 H   0  0  0  0  0  0  0  0  0  0  0  0
  1  2  1  0
  2  3  2  0
  3  4  1  0
  4  5  1  0
  4  6  2  0
  6  7  1  0
  7  8  2  0
  8  9  1  0
  8 10  1  0
 10 11  2  0
 11 12  1  0
 11 13  1  0
 13 14  1  0
 14 15  1  0
 14 16  1  0
 14 17  1  0
 17 18  1  0
 17 19  1  0
 17 20  1  0
 20 21  1  0
 20 22  1  0
 20 23  1  0
 23 24  1  0
 23 25  1  0
 23 26  1  0
 26 27  1  0
 26 28  1  0
 26 29  1  0
 29 30  1  0
 29 31  1  0
 29 32  1  0
 13 33  2  0
 33 34  1  0
  6 35  1  0
 35 36  1  0
 35 37  2  0
 37 38  1  0
 37  2  1  0
 33  7  1  0
M  END
>  <cnnaffinity>  (1) 
-5.58498

>  <filename>  (1) 
CCCCCCc1cncc(-c2cccnc2)c1

$$$$
