
     RDKit          3D

 42 43  0  0  0  0  0  0  0  0999 V2000
    4.8955    1.8521   16.8883 H   0  0  0  0  0  0  0  0  0  0  0  0
    5.3816    1.3449   17.7188 C   0  0  0  0  0  0  0  0  0  0  0  0
    6.5452    0.7414   17.4355 N   0  0  0  0  0  0  0  0  0  0  0  0
    7.1838    0.1394   18.4469 C   0  0  0  0  0  0  0  0  0  0  0  0
    8.1272   -0.3474   18.2079 H   0  0  0  0  0  0  0  0  0  0  0  0
    6.7108    0.0917   19.7756 C   0  0  0  0  0  0  0  0  0  0  0  0
    7.4508   -0.5881   20.8671 C   0  0  0  0  0  0  0  0  0  0  0  0
    6.7922   -1.4641   21.6996 C   0  0  0  0  0  0  0  0  0  0  0  0
    5.7254   -1.6225   21.5405 H   0  0  0  0  0  0  0  0  0  0  0  0
    7.4410   -2.1791   22.7486 C   0  0  0  0  0  0  0  0  0  0  0  0
    6.7046   -3.2483   23.5123 C   0  0  0  0  0  0  0  0  0  0  0  0
    5.6627   -2.9309   23.6609 H   0  0  0  0  0  0  0  0  0  0  0  0
    7.1446   -3.3615   24.5135 H   0  0  0  0  0  0  0  0  0  0  0  0
    6.7052   -4.6111   22.7946 C   0  0  0  0  0  0  0  0  0  0  0  0
    7.7407   -4.9753   22.7221 H   0  0  0  0  0  0  0  0  0  0  0  0
    6.3677   -4.4697   21.7584 H   0  0  0  0  0  0  0  0  0  0  0  0
    5.8100   -5.6604   23.4745 C   0  0  0  0  0  0  0  0  0  0  0  0
    5.9785   -6.6343   22.9877 H   0  0  0  0  0  0  0  0  0  0  0  0
    4.7539   -5.3983   23.2957 H   0  0  0  0  0  0  0  0  0  0  0  0
    6.0388   -5.8003   24.9885 C   0  0  0  0  0  0  0  0  0  0  0  0
    7.0972   -6.0411   25.1685 H   0  0  0  0  0  0  0  0  0  0  0  0
    5.8766   -4.8304   25.4828 H   0  0  0  0  0  0  0  0  0  0  0  0
    5.1717   -6.8601   25.6806 C   0  0  0  0  0  0  0  0  0  0  0  0
    5.1275   -7.7528   25.0361 H   0  0  0  0  0  0  0  0  0  0  0  0
    5.6755   -7.1645   26.6094 H   0  0  0  0  0  0  0  0  0  0  0  0
    3.7442   -6.4424   26.0571 C   0  0  0  0  0  0  0  0  0  0  0  0
    3.7895   -5.5650   26.7229 H   0  0  0  0  0  0  0  0  0  0  0  0
    3.1896   -6.1126   25.1673 H   0  0  0  0  0  0  0  0  0  0  0  0
    2.9960   -7.5857   26.7492 C   0  0  0  0  0  0  0  0  0  0  0  0
    2.8948   -8.4535   26.0821 H   0  0  0  0  0  0  0  0  0  0  0  0
    1.9939   -7.2861   27.0655 H   0  0  0  0  0  0  0  0  0  0  0  0
    3.5331   -7.9158   27.6487 H   0  0  0  0  0  0  0  0  0  0  0  0
    8.7590   -1.9165   22.9964 C   0  0  0  0  0  0  0  0  0  0  0  0
    9.3130   -2.3810   23.8131 H   0  0  0  0  0  0  0  0  0  0  0  0
    9.4205   -1.0242   22.2037 N   0  0  0  0  0  0  0  0  0  0  0  0
   10.3973   -0.7818   22.2689 H   0  0  0  0  0  0  0  0  0  0  0  0
    8.8894   -0.3401   21.1094 C   0  0  0  0  0  0  0  0  0  0  0  0
    9.6659    0.3825   20.5067 O   0  0  0  0  0  0  0  0  0  0  0  0
    5.4628    0.6870   20.0289 C   0  0  0  0  0  0  0  0  0  0  0  0
    5.0427    0.6574   21.0371 H   0  0  0  0  0  0  0  0  0  0  0  0
    4.7973    1.3385   18.9905 C   0  0  0  0  0  0  0  0  0  0  0  0
    3.8490    1.8387   19.1505 H   0  0  0  0  0  0  0  0  0  0  0  0
  1  2  1  0
  2  3  2  0
  3  4  1  0
  4  5  1  0
  4  6  2  0
  6  7  1  0
  7  8  2  0
  8  9  1  0
  8 10  1  0
 10 11  1  0
 11 12  1  0
 11 13  1  0
 11 14  1  0
 14 15  1  0
 14 16  1  0
 14 17  1  0
 17 18  1  0
 17 19  1  0
 17 20  1  0
 20 21  1  0
 20 22  1  0
 20 23  1  0
 23 24  1  0
 23 25  1  0
 23 26  1  0
 26 27  1  0
 26 28  1  0
 26 29  1  0
 29 30  1  0
 29 31  1  0
 29 32  1  0
 10 33  2  0
 33 34  1  0
 33 35  1  0
 35 36  1  0
 35 37  1  0
 37 38  2  0
  6 39  1  0
 39 40  1  0
 39 41  2  0
 41 42  1  0
 41  2  1  0
 37  7  1  0
M  END
>  <cnnaffinity>  (1) 
-5.3396

>  <filename>  (1) 
CCCCCCCc1c[nH]c(=O)c(-c2cccnc2)c1

$$$$
