
     RDKit          3D

 42 43  0  0  0  0  0  0  0  0999 V2000
    4.9226    1.8052   16.9808 H   0  0  0  0  0  0  0  0  0  0  0  0
    5.3851    1.3040   17.8291 C   0  0  0  0  0  0  0  0  0  0  0  0
    6.5466    0.6844   17.5721 N   0  0  0  0  0  0  0  0  0  0  0  0
    7.1518    0.0664   18.5924 C   0  0  0  0  0  0  0  0  0  0  0  0
    8.1062   -0.4047   18.3577 H   0  0  0  0  0  0  0  0  0  0  0  0
    6.6401    0.0007   19.9002 C   0  0  0  0  0  0  0  0  0  0  0  0
    7.4174   -0.7155   20.9858 C   0  0  0  0  0  0  0  0  0  0  0  0
    6.8848   -0.6300   21.9404 H   0  0  0  0  0  0  0  0  0  0  0  0
    7.5010   -1.7854   20.7706 H   0  0  0  0  0  0  0  0  0  0  0  0
    8.7783   -0.2144   21.1646 N   0  0  0  0  0  0  0  0  0  0  0  0
    9.9330   -0.8760   20.8607 C   0  0  0  0  0  0  0  0  0  0  0  0
    9.9075   -1.8680   20.4211 H   0  0  0  0  0  0  0  0  0  0  0  0
   11.0032   -0.1728   21.1249 N   0  0  0  0  0  0  0  0  0  0  0  0
   10.5255    1.0140   21.6150 C   0  0  0  0  0  0  0  0  0  0  0  0
   11.1928    1.7988   21.9612 H   0  0  0  0  0  0  0  0  0  0  0  0
    9.1555    1.0276   21.6429 C   0  0  0  0  0  0  0  0  0  0  0  0
    8.2156    2.0482   22.2010 C   0  0  0  0  0  0  0  0  0  0  0  0
    8.6999    3.0295   22.1397 H   0  0  0  0  0  0  0  0  0  0  0  0
    7.3067    2.1384   21.5878 H   0  0  0  0  0  0  0  0  0  0  0  0
    7.8530    1.7748   23.6745 C   0  0  0  0  0  0  0  0  0  0  0  0
    8.7701    1.7923   24.2770 H   0  0  0  0  0  0  0  0  0  0  0  0
    7.4525    0.7531   23.7640 H   0  0  0  0  0  0  0  0  0  0  0  0
    6.8451    2.7747   24.2454 C   0  0  0  0  0  0  0  0  0  0  0  0
    7.1867    3.8019   24.0350 H   0  0  0  0  0  0  0  0  0  0  0  0
    6.8218    2.6831   25.3425 H   0  0  0  0  0  0  0  0  0  0  0  0
    5.4270    2.5830   23.6966 C   0  0  0  0  0  0  0  0  0  0  0  0
    5.4221    2.7283   22.6044 H   0  0  0  0  0  0  0  0  0  0  0  0
    5.1145    1.5381   23.8618 H   0  0  0  0  0  0  0  0  0  0  0  0
    4.4117    3.5224   24.3537 C   0  0  0  0  0  0  0  0  0  0  0  0
    4.4882    3.4165   25.4468 H   0  0  0  0  0  0  0  0  0  0  0  0
    4.6906    4.5655   24.1326 H   0  0  0  0  0  0  0  0  0  0  0  0
    2.9612    3.2780   23.9185 C   0  0  0  0  0  0  0  0  0  0  0  0
    2.2951    3.8748   24.5559 H   0  0  0  0  0  0  0  0  0  0  0  0
    2.7009    2.2292   24.1229 H   0  0  0  0  0  0  0  0  0  0  0  0
    2.7000    3.6110   22.4430 C   0  0  0  0  0  0  0  0  0  0  0  0
    3.2469    2.9429   21.7645 H   0  0  0  0  0  0  0  0  0  0  0  0
    3.0236    4.6340   22.2087 H   0  0  0  0  0  0  0  0  0  0  0  0
    1.6357    3.5336   22.1946 H   0  0  0  0  0  0  0  0  0  0  0  0
    5.4216    0.6463   20.1457 C   0  0  0  0  0  0  0  0  0  0  0  0
    4.9956    0.6494   21.1521 H   0  0  0  0  0  0  0  0  0  0  0  0
    4.7896    1.3144   19.0927 C   0  0  0  0  0  0  0  0  0  0  0  0
    3.8634    1.8575   19.2353 H   0  0  0  0  0  0  0  0  0  0  0  0
  1  2  1  0
  2  3  2  0
  3  4  1  0
  4  5  1  0
  4  6  2  0
  6  7  1  0
  7  8  1  0
  7  9  1  0
  7 10  1  0
 10 11  1  0
 11 12  1  0
 11 13  2  0
 13 14  1  0
 14 15  1  0
 14 16  2  0
 16 17  1  0
 17 18  1  0
 17 19  1  0
 17 20  1  0
 20 21  1  0
 20 22  1  0
 20 23  1  0
 23 24  1  0
 23 25  1  0
 23 26  1  0
 26 27  1  0
 26 28  1  0
 26 29  1  0
 29 30  1  0
 29 31  1  0
 29 32  1  0
 32 33  1  0
 32 34  1  0
 32 35  1  0
 35 36  1  0
 35 37  1  0
 35 38  1  0
  6 39  1  0
 39 40  1  0
 39 41  2  0
 41 42  1  0
 41  2  1  0
 16 10  1  0
M  END
>  <cnnaffinity>  (1) 
-4.84554

>  <filename>  (1) 
CCCCCCCc1cncn1Cc1cccnc1

$$$$
