
     RDKit          3D

 43 45  0  0  0  0  0  0  0  0999 V2000
    4.9759    1.8523   16.9492 H   0  0  0  0  0  0  0  0  0  0  0  0
    5.4073    1.2994   17.7844 C   0  0  0  0  0  0  0  0  0  0  0  0
    6.5437    0.6351   17.5294 N   0  0  0  0  0  0  0  0  0  0  0  0
    7.1267   -0.0033   18.5481 C   0  0  0  0  0  0  0  0  0  0  0  0
    8.0361   -0.5499   18.3040 H   0  0  0  0  0  0  0  0  0  0  0  0
    6.6364    0.0111   19.8679 C   0  0  0  0  0  0  0  0  0  0  0  0
    7.4022   -0.6163   20.9500 C   0  0  0  0  0  0  0  0  0  0  0  0
    7.9798   -1.8038   20.7785 N   0  0  0  0  0  0  0  0  0  0  0  0
    8.5516   -2.0380   21.9598 N   0  0  0  0  0  0  0  0  0  0  0  0
    8.4289   -1.0605   22.8631 C   0  0  0  0  0  0  0  0  0  0  0  0
    7.6703   -0.0764   22.2518 C   0  0  0  0  0  0  0  0  0  0  0  0
    7.2495    1.2144   22.8920 C   0  0  0  0  0  0  0  0  0  0  0  0
    6.8749    1.9115   22.1314 H   0  0  0  0  0  0  0  0  0  0  0  0
    8.1243    1.7108   23.3435 H   0  0  0  0  0  0  0  0  0  0  0  0
    6.1977    0.9962   23.9844 C   0  0  0  0  0  0  0  0  0  0  0  0
    6.5836    0.2571   24.7041 H   0  0  0  0  0  0  0  0  0  0  0  0
    5.3005    0.5536   23.5304 H   0  0  0  0  0  0  0  0  0  0  0  0
    5.8099    2.2848   24.7027 C   0  0  0  0  0  0  0  0  0  0  0  0
    6.7127    2.7378   25.1459 H   0  0  0  0  0  0  0  0  0  0  0  0
    5.4316    3.0053   23.9587 H   0  0  0  0  0  0  0  0  0  0  0  0
    4.7621    2.0907   25.8038 C   0  0  0  0  0  0  0  0  0  0  0  0
    5.1338    1.3606   26.5392 H   0  0  0  0  0  0  0  0  0  0  0  0
    3.8493    1.6524   25.3665 H   0  0  0  0  0  0  0  0  0  0  0  0
    4.4060    3.3975   26.5264 C   0  0  0  0  0  0  0  0  0  0  0  0
    3.7612    3.1733   27.3869 H   0  0  0  0  0  0  0  0  0  0  0  0
    5.3265    3.8416   26.9353 H   0  0  0  0  0  0  0  0  0  0  0  0
    3.7129    4.4213   25.6242 C   0  0  0  0  0  0  0  0  0  0  0  0
    3.4452    5.3223   26.1861 H   0  0  0  0  0  0  0  0  0  0  0  0
    2.7958    4.0021   25.1913 H   0  0  0  0  0  0  0  0  0  0  0  0
    4.3605    4.7279   24.7935 H   0  0  0  0  0  0  0  0  0  0  0  0
    9.2399   -1.3899   24.0910 C   0  0  0  0  0  0  0  0  0  0  0  0
    9.9497   -0.5954   24.3370 H   0  0  0  0  0  0  0  0  0  0  0  0
    8.6019   -1.5390   24.9670 H   0  0  0  0  0  0  0  0  0  0  0  0
    9.9744   -2.7048   23.6987 C   0  0  0  0  0  0  0  0  0  0  0  0
    9.7661   -3.5073   24.4075 H   0  0  0  0  0  0  0  0  0  0  0  0
   11.0515   -2.5594   23.6749 H   0  0  0  0  0  0  0  0  0  0  0  0
    9.4987   -3.0682   22.2700 C   0  0  0  0  0  0  0  0  0  0  0  0
   10.3121   -2.9733   21.5500 H   0  0  0  0  0  0  0  0  0  0  0  0
    9.0189   -4.0461   22.1914 H   0  0  0  0  0  0  0  0  0  0  0  0
    5.4132    0.6561   20.1000 C   0  0  0  0  0  0  0  0  0  0  0  0
    4.9505    0.6363   21.0912 H   0  0  0  0  0  0  0  0  0  0  0  0
    4.7896    1.3086   19.0394 C   0  0  0  0  0  0  0  0  0  0  0  0
    3.8580    1.8412   19.1732 H   0  0  0  0  0  0  0  0  0  0  0  0
  1  2  1  0
  2  3  2  0
  3  4  1  0
  4  5  1  0
  4  6  2  0
  6  7  1  0
  7  8  2  0
  8  9  1  0
  9 10  1  0
 10 11  2  0
 11 12  1  0
 12 13  1  0
 12 14  1  0
 12 15  1  0
 15 16  1  0
 15 17  1  0
 15 18  1  0
 18 19  1  0
 18 20  1  0
 18 21  1  0
 21 22  1  0
 21 23  1  0
 21 24  1  0
 24 25  1  0
 24 26  1  0
 24 27  1  0
 27 28  1  0
 27 29  1  0
 27 30  1  0
 10 31  1  0
 31 32  1  0
 31 33  1  0
 31 34  1  0
 34 35  1  0
 34 36  1  0
 34 37  1  0
 37 38  1  0
 37 39  1  0
  6 40  1  0
 40 41  1  0
 40 42  2  0
 42 43  1  0
 42  2  1  0
 11  7  1  0
 37  9  1  0
M  END
>  <cnnaffinity>  (1) 
-5.55325

>  <filename>  (1) 
CCCCCCc1c(-c2cccnc2)nn2c1CCC2

$$$$
