
     RDKit          3D

 47 49  0  0  0  0  0  0  0  0999 V2000
    7.5054   -6.1059   21.0873 C   0  0  0  0  0  0  0  0  0  0  0  0
    6.9658   -4.8583   21.7608 C   0  0  0  0  0  0  0  0  0  0  0  0
    7.8023   -4.4643   22.9810 C   0  0  0  0  0  0  0  0  0  0  0  0
    7.3998   -3.0924   23.5704 C   0  0  0  0  0  0  0  0  0  0  0  0
    5.9851   -3.1179   24.1600 C   0  0  0  0  0  0  0  0  0  0  0  0
    5.7419   -2.1939   24.6930 H   0  0  0  0  0  0  0  0  0  0  0  0
    5.8803   -3.9525   24.8627 H   0  0  0  0  0  0  0  0  0  0  0  0
    5.2462   -3.2492   23.3638 H   0  0  0  0  0  0  0  0  0  0  0  0
    7.5902   -2.0227   22.5263 C   0  0  0  0  0  0  0  0  0  0  0  0
    6.6654   -1.6010   21.6810 N   0  0  0  0  0  0  0  0  0  0  0  0
    7.3406   -0.7036   20.9084 N   0  0  0  0  0  0  0  0  0  0  0  0
    6.6499   -0.0278   19.8644 C   0  0  0  0  0  0  0  0  0  0  0  0
    5.4357    0.6116   20.1355 C   0  0  0  0  0  0  0  0  0  0  0  0
    4.8079    1.3038   19.0981 C   0  0  0  0  0  0  0  0  0  0  0  0
    5.3990    1.3071   17.8285 C   0  0  0  0  0  0  0  0  0  0  0  0
    6.5400    0.6576   17.5483 N   0  0  0  0  0  0  0  0  0  0  0  0
    7.1492    0.0063   18.5491 C   0  0  0  0  0  0  0  0  0  0  0  0
    8.0722   -0.5199   18.3012 H   0  0  0  0  0  0  0  0  0  0  0  0
    4.9319    1.8514   17.0112 H   0  0  0  0  0  0  0  0  0  0  0  0
    3.8839    1.8463   19.2655 H   0  0  0  0  0  0  0  0  0  0  0  0
    5.0122    0.5556   21.1401 H   0  0  0  0  0  0  0  0  0  0  0  0
    8.6238   -0.6141   21.3637 C   0  0  0  0  0  0  0  0  0  0  0  0
    9.6646    0.3801   20.9398 C   0  0  0  0  0  0  0  0  0  0  0  0
    9.9431    1.4355   21.9861 C   0  0  0  0  0  0  0  0  0  0  0  0
    9.1379    2.4567   22.3764 C   0  0  0  0  0  0  0  0  0  0  0  0
    7.8020    2.8829   21.8817 C   0  0  0  0  0  0  0  0  0  0  0  0
    7.6254    3.9577   21.9752 H   0  0  0  0  0  0  0  0  0  0  0  0
    7.7029    2.5849   20.8359 H   0  0  0  0  0  0  0  0  0  0  0  0
    7.0249    2.3338   22.4277 H   0  0  0  0  0  0  0  0  0  0  0  0
    9.6632    3.0682   23.4468 O   0  0  0  0  0  0  0  0  0  0  0  0
   10.8541    2.4453   23.8014 N   0  0  0  0  0  0  0  0  0  0  0  0
   11.0065    1.4759   22.9344 C   0  0  0  0  0  0  0  0  0  0  0  0
   12.1164    0.4851   22.9894 C   0  0  0  0  0  0  0  0  0  0  0  0
   11.6702   -0.5125   23.0718 H   0  0  0  0  0  0  0  0  0  0  0  0
   12.7837    0.6470   23.8357 H   0  0  0  0  0  0  0  0  0  0  0  0
   12.7102    0.5054   22.0698 H   0  0  0  0  0  0  0  0  0  0  0  0
   10.5824   -0.1849   20.7435 H   0  0  0  0  0  0  0  0  0  0  0  0
    9.3690    0.8593   20.0055 H   0  0  0  0  0  0  0  0  0  0  0  0
    8.8139   -1.4699   22.3501 N   0  0  0  0  0  0  0  0  0  0  0  0
    8.1193   -2.8368   24.3547 H   0  0  0  0  0  0  0  0  0  0  0  0
    7.7209   -5.2315   23.7671 H   0  0  0  0  0  0  0  0  0  0  0  0
    8.8604   -4.4286   22.6888 H   0  0  0  0  0  0  0  0  0  0  0  0
    5.9257   -5.0135   22.0678 H   0  0  0  0  0  0  0  0  0  0  0  0
    6.9425   -4.0166   21.0547 H   0  0  0  0  0  0  0  0  0  0  0  0
    6.9537   -6.3702   20.1810 H   0  0  0  0  0  0  0  0  0  0  0  0
    7.4708   -6.9634   21.7723 H   0  0  0  0  0  0  0  0  0  0  0  0
    8.5464   -5.9316   20.7944 H   0  0  0  0  0  0  0  0  0  0  0  0
  1  2  1  0
  2  3  1  0
  3  4  1  0
  4  5  1  0
  5  6  1  0
  5  7  1  0
  5  8  1  0
  4  9  1  0
  9 10  2  0
 10 11  1  0
 11 12  1  0
 12 13  2  0
 13 14  1  0
 14 15  2  0
 15 16  1  0
 16 17  2  0
 17 18  1  0
 15 19  1  0
 14 20  1  0
 13 21  1  0
 11 22  1  0
 22 23  1  0
 23 24  1  0
 24 25  2  0
 25 26  1  0
 26 27  1  0
 26 28  1  0
 26 29  1  0
 25 30  1  0
 30 31  1  0
 31 32  2  0
 32 33  1  0
 33 34  1  0
 33 35  1  0
 33 36  1  0
 23 37  1  0
 23 38  1  0
 22 39  2  0
  4 40  1  0
  3 41  1  0
  3 42  1  0
  2 43  1  0
  2 44  1  0
  1 45  1  0
  1 46  1  0
  1 47  1  0
 39  9  1  0
 17 12  1  0
 32 24  1  0
M  END
>  <cnnaffinity>  (1) 
-6.16106

>  <filename>  (1) 
CCCC(C)c1nc(Cc2c(C)noc2C)n(-c2cccnc2)n1

$$$$
