
     RDKit          3D

 42 43  0  0  0  0  0  0  0  0999 V2000
    5.2086    2.1142   16.7581 H   0  0  0  0  0  0  0  0  0  0  0  0
    5.4506    1.4467   17.5842 C   0  0  0  0  0  0  0  0  0  0  0  0
    6.5509    0.6892   17.4309 N   0  0  0  0  0  0  0  0  0  0  0  0
    6.8907   -0.1175   18.4445 C   0  0  0  0  0  0  0  0  0  0  0  0
    7.7916   -0.7145   18.3183 H   0  0  0  0  0  0  0  0  0  0  0  0
    6.1677   -0.2085   19.6520 C   0  0  0  0  0  0  0  0  0  0  0  0
    6.6555   -0.9794   20.7789 N   0  0  0  0  0  0  0  0  0  0  0  0
    7.1751   -0.2886   21.8714 C   0  0  0  0  0  0  0  0  0  0  0  0
    6.9871    0.7862   21.8668 H   0  0  0  0  0  0  0  0  0  0  0  0
    7.8671   -0.8953   22.8571 C   0  0  0  0  0  0  0  0  0  0  0  0
    8.5168   -0.0985   23.9597 C   0  0  0  0  0  0  0  0  0  0  0  0
    8.5719   -0.7075   24.8704 H   0  0  0  0  0  0  0  0  0  0  0  0
    7.8770    0.7685   24.1953 H   0  0  0  0  0  0  0  0  0  0  0  0
    9.9146    0.4269   23.5799 C   0  0  0  0  0  0  0  0  0  0  0  0
   10.6261   -0.4106   23.5363 H   0  0  0  0  0  0  0  0  0  0  0  0
    9.8791    0.8416   22.5620 H   0  0  0  0  0  0  0  0  0  0  0  0
   10.4485    1.4998   24.5316 C   0  0  0  0  0  0  0  0  0  0  0  0
   10.5091    1.0895   25.5506 H   0  0  0  0  0  0  0  0  0  0  0  0
    9.7402    2.3429   24.5822 H   0  0  0  0  0  0  0  0  0  0  0  0
   11.8435    2.0093   24.1501 C   0  0  0  0  0  0  0  0  0  0  0  0
   12.5050    1.1444   24.0106 H   0  0  0  0  0  0  0  0  0  0  0  0
   12.2360    2.5402   25.0143 H   0  0  0  0  0  0  0  0  0  0  0  0
   11.9538    2.9056   22.9049 C   0  0  0  0  0  0  0  0  0  0  0  0
   11.4424    2.4151   22.0638 H   0  0  0  0  0  0  0  0  0  0  0  0
   13.0133    2.9726   22.6147 H   0  0  0  0  0  0  0  0  0  0  0  0
   11.4110    4.3405   23.0452 C   0  0  0  0  0  0  0  0  0  0  0  0
   10.3371    4.2997   23.2744 H   0  0  0  0  0  0  0  0  0  0  0  0
   11.4926    4.8285   22.0621 H   0  0  0  0  0  0  0  0  0  0  0  0
   12.0972    5.2067   24.1160 C   0  0  0  0  0  0  0  0  0  0  0  0
   13.1929    5.1342   24.0777 H   0  0  0  0  0  0  0  0  0  0  0  0
   11.7802    4.9189   25.1258 H   0  0  0  0  0  0  0  0  0  0  0  0
   11.8258    6.2621   23.9952 H   0  0  0  0  0  0  0  0  0  0  0  0
    8.0468   -2.3586   22.7783 C   0  0  0  0  0  0  0  0  0  0  0  0
    8.6789   -3.0636   23.5393 O   0  0  0  0  0  0  0  0  0  0  0  0
    7.4142   -2.9641   21.7217 N   0  0  0  0  0  0  0  0  0  0  0  0
    7.4709   -3.9613   21.6796 H   0  0  0  0  0  0  0  0  0  0  0  0
    6.6728   -2.3893   20.7397 C   0  0  0  0  0  0  0  0  0  0  0  0
    6.1049   -3.0686   19.9193 O   0  0  0  0  0  0  0  0  0  0  0  0
    5.0080    0.5617   19.7845 C   0  0  0  0  0  0  0  0  0  0  0  0
    4.4236    0.5012   20.7053 H   0  0  0  0  0  0  0  0  0  0  0  0
    4.6428    1.4070   18.7284 C   0  0  0  0  0  0  0  0  0  0  0  0
    3.7608    2.0390   18.7886 H   0  0  0  0  0  0  0  0  0  0  0  0
  1  2  1  0
  2  3  2  0
  3  4  1  0
  4  5  1  0
  4  6  2  0
  6  7  1  0
  7  8  1  0
  8  9  1  0
  8 10  2  0
 10 11  1  0
 11 12  1  0
 11 13  1  0
 11 14  1  0
 14 15  1  0
 14 16  1  0
 14 17  1  0
 17 18  1  0
 17 19  1  0
 17 20  1  0
 20 21  1  0
 20 22  1  0
 20 23  1  0
 23 24  1  0
 23 25  1  0
 23 26  1  0
 26 27  1  0
 26 28  1  0
 26 29  1  0
 29 30  1  0
 29 31  1  0
 29 32  1  0
 10 33  1  0
 33 34  2  0
 33 35  1  0
 35 36  1  0
 35 37  1  0
 37 38  2  0
  6 39  1  0
 39 40  1  0
 39 41  2  0
 41 42  1  0
 41  2  1  0
 37  7  1  0
M  END
>  <cnnaffinity>  (1) 
-5.24609

>  <filename>  (1) 
CCCCCCCc1cn(-c2cccnc2)c(=O)[nH]c1=O

$$$$
