
     RDKit          3D

 45 47  0  0  0  0  0  0  0  0999 V2000
    5.9139   -5.4143   23.6710 C   0  0  0  0  0  0  0  0  0  0  0  0
    6.7705   -4.5570   22.7408 C   0  0  0  0  0  0  0  0  0  0  0  0
    8.1572   -4.2313   23.3055 C   0  0  0  0  0  0  0  0  0  0  0  0
    8.9775   -3.2915   22.3979 C   0  0  0  0  0  0  0  0  0  0  0  0
   10.3584   -2.9693   23.0264 C   0  0  0  0  0  0  0  0  0  0  0  0
   11.0963   -2.7044   22.2598 H   0  0  0  0  0  0  0  0  0  0  0  0
   10.7578   -3.8249   23.5883 H   0  0  0  0  0  0  0  0  0  0  0  0
   10.2760   -2.1319   23.7327 H   0  0  0  0  0  0  0  0  0  0  0  0
    8.2070   -2.0507   22.0368 C   0  0  0  0  0  0  0  0  0  0  0  0
    7.8819   -1.7438   20.7937 N   0  0  0  0  0  0  0  0  0  0  0  0
    7.2152   -0.5678   20.9361 N   0  0  0  0  0  0  0  0  0  0  0  0
    6.5591    0.0626   19.8448 C   0  0  0  0  0  0  0  0  0  0  0  0
    5.3525    0.7489   20.0397 C   0  0  0  0  0  0  0  0  0  0  0  0
    4.7796    1.3953   18.9433 C   0  0  0  0  0  0  0  0  0  0  0  0
    5.4284    1.3310   17.7065 C   0  0  0  0  0  0  0  0  0  0  0  0
    6.5686    0.6449   17.5077 N   0  0  0  0  0  0  0  0  0  0  0  0
    7.1141    0.0169   18.5541 C   0  0  0  0  0  0  0  0  0  0  0  0
    8.0335   -0.5374   18.3665 H   0  0  0  0  0  0  0  0  0  0  0  0
    5.0107    1.8360   16.8378 H   0  0  0  0  0  0  0  0  0  0  0  0
    3.8520    1.9530   19.0421 H   0  0  0  0  0  0  0  0  0  0  0  0
    4.8967    0.7870   21.0300 H   0  0  0  0  0  0  0  0  0  0  0  0
    7.2433   -0.2095   22.2554 C   0  0  0  0  0  0  0  0  0  0  0  0
    6.8714    1.0427   22.8450 C   0  0  0  0  0  0  0  0  0  0  0  0
    6.2890    1.0747   24.0916 C   0  0  0  0  0  0  0  0  0  0  0  0
    6.0054    2.3231   24.6903 C   0  0  0  0  0  0  0  0  0  0  0  0
    5.2134    2.3208   25.9620 C   0  0  0  0  0  0  0  0  0  0  0  0
    5.3705    3.4463   26.6805 F   0  0  0  0  0  0  0  0  0  0  0  0
    5.5636    1.2884   26.7514 F   0  0  0  0  0  0  0  0  0  0  0  0
    3.8953    2.1879   25.7112 F   0  0  0  0  0  0  0  0  0  0  0  0
    6.3900    3.4938   24.0894 C   0  0  0  0  0  0  0  0  0  0  0  0
    7.0448    3.4115   22.9005 N   0  0  0  0  0  0  0  0  0  0  0  0
    7.3659    2.2507   22.2087 C   0  0  0  0  0  0  0  0  0  0  0  0
    8.0246    2.3601   21.1894 O   0  0  0  0  0  0  0  0  0  0  0  0
    7.4346    4.1861   22.3835 H   0  0  0  0  0  0  0  0  0  0  0  0
    6.2221    4.4897   24.5014 H   0  0  0  0  0  0  0  0  0  0  0  0
    6.0712    0.1428   24.6226 H   0  0  0  0  0  0  0  0  0  0  0  0
    7.7932   -1.1696   22.9728 N   0  0  0  0  0  0  0  0  0  0  0  0
    9.0743   -3.7761   21.4258 H   0  0  0  0  0  0  0  0  0  0  0  0
    8.7328   -5.1591   23.4472 H   0  0  0  0  0  0  0  0  0  0  0  0
    8.0558   -3.7784   24.3028 H   0  0  0  0  0  0  0  0  0  0  0  0
    6.2387   -3.6150   22.5487 H   0  0  0  0  0  0  0  0  0  0  0  0
    6.8808   -5.0370   21.7591 H   0  0  0  0  0  0  0  0  0  0  0  0
    6.3760   -6.3833   23.8869 H   0  0  0  0  0  0  0  0  0  0  0  0
    4.9221   -5.6010   23.2419 H   0  0  0  0  0  0  0  0  0  0  0  0
    5.7706   -4.8909   24.6238 H   0  0  0  0  0  0  0  0  0  0  0  0
  1  2  1  0
  2  3  1  0
  3  4  1  0
  4  5  1  0
  5  6  1  0
  5  7  1  0
  5  8  1  0
  4  9  1  0
  9 10  2  0
 10 11  1  0
 11 12  1  0
 12 13  2  0
 13 14  1  0
 14 15  2  0
 15 16  1  0
 16 17  2  0
 17 18  1  0
 15 19  1  0
 14 20  1  0
 13 21  1  0
 11 22  1  0
 22 23  1  0
 23 24  2  0
 24 25  1  0
 25 26  1  0
 26 27  1  0
 26 28  1  0
 26 29  1  0
 25 30  2  0
 30 31  1  0
 31 32  1  0
 32 33  2  0
 31 34  1  0
 30 35  1  0
 24 36  1  0
 22 37  2  0
  4 38  1  0
  3 39  1  0
  3 40  1  0
  2 41  1  0
  2 42  1  0
  1 43  1  0
  1 44  1  0
  1 45  1  0
 37  9  1  0
 17 12  1  0
 32 23  1  0
M  END
>  <cnnaffinity>  (1) 
-6.18483

>  <filename>  (1) 
CCCC(C)c1nc(-c2cc(C(F)(F)F)c[nH]c2=O)n(-c2cccnc2)n1

$$$$
