
     RDKit          3D

 45 47  0  0  0  0  0  0  0  0999 V2000
    8.3558   -6.4829   22.8075 C   0  0  0  0  0  0  0  0  0  0  0  0
    7.4310   -5.3892   23.3429 C   0  0  0  0  0  0  0  0  0  0  0  0
    8.1878   -4.1249   23.7654 C   0  0  0  0  0  0  0  0  0  0  0  0
    8.8441   -3.3602   22.5827 C   0  0  0  0  0  0  0  0  0  0  0  0
   10.3058   -2.9684   22.9143 C   0  0  0  0  0  0  0  0  0  0  0  0
   10.8024   -2.5173   22.0511 H   0  0  0  0  0  0  0  0  0  0  0  0
   10.8946   -3.8239   23.2605 H   0  0  0  0  0  0  0  0  0  0  0  0
   10.3027   -2.2298   23.7316 H   0  0  0  0  0  0  0  0  0  0  0  0
    8.0956   -2.1061   22.2173 C   0  0  0  0  0  0  0  0  0  0  0  0
    7.6977   -1.7954   21.0016 N   0  0  0  0  0  0  0  0  0  0  0  0
    7.2399   -0.5167   21.1506 N   0  0  0  0  0  0  0  0  0  0  0  0
    6.6182    0.1492   20.0681 C   0  0  0  0  0  0  0  0  0  0  0  0
    5.4386    0.8914   20.2223 C   0  0  0  0  0  0  0  0  0  0  0  0
    4.8734    1.4543   19.0730 C   0  0  0  0  0  0  0  0  0  0  0  0
    5.5105    1.2808   17.8412 C   0  0  0  0  0  0  0  0  0  0  0  0
    6.6498    0.5806   17.6939 N   0  0  0  0  0  0  0  0  0  0  0  0
    7.1806    0.0232   18.7851 C   0  0  0  0  0  0  0  0  0  0  0  0
    8.0984   -0.5491   18.6592 H   0  0  0  0  0  0  0  0  0  0  0  0
    5.0885    1.7060   16.9331 H   0  0  0  0  0  0  0  0  0  0  0  0
    3.9494    2.0208   19.1256 H   0  0  0  0  0  0  0  0  0  0  0  0
    4.9614    0.9981   21.1988 H   0  0  0  0  0  0  0  0  0  0  0  0
    7.4639   -0.1115   22.4330 C   0  0  0  0  0  0  0  0  0  0  0  0
    7.3675    1.2781   22.9766 C   0  0  0  0  0  0  0  0  0  0  0  0
    8.6762    1.7634   23.4106 N   0  0  0  0  0  0  0  0  0  0  0  0
    8.9932    1.6782   24.7143 N   0  0  0  0  0  0  0  0  0  0  0  0
   10.2827    1.9692   24.7822 C   0  0  0  0  0  0  0  0  0  0  0  0
   10.8176    2.2435   23.5074 C   0  0  0  0  0  0  0  0  0  0  0  0
    9.7588    2.0797   22.6408 C   0  0  0  0  0  0  0  0  0  0  0  0
    9.7500    2.1047   21.1470 C   0  0  0  0  0  0  0  0  0  0  0  0
    9.6472    1.0894   20.7505 H   0  0  0  0  0  0  0  0  0  0  0  0
    8.9369    2.7079   20.7305 H   0  0  0  0  0  0  0  0  0  0  0  0
   10.6980    2.5061   20.7852 H   0  0  0  0  0  0  0  0  0  0  0  0
   11.8308    2.5205   23.2422 H   0  0  0  0  0  0  0  0  0  0  0  0
   10.7878    1.8981   25.7389 H   0  0  0  0  0  0  0  0  0  0  0  0
    6.9333    1.9794   22.2605 H   0  0  0  0  0  0  0  0  0  0  0  0
    6.7476    1.2346   23.8713 H   0  0  0  0  0  0  0  0  0  0  0  0
    7.9403   -1.1150   23.1359 N   0  0  0  0  0  0  0  0  0  0  0  0
    8.7830   -3.9705   21.6698 H   0  0  0  0  0  0  0  0  0  0  0  0
    8.9692   -4.4421   24.4699 H   0  0  0  0  0  0  0  0  0  0  0  0
    7.5343   -3.4427   24.3242 H   0  0  0  0  0  0  0  0  0  0  0  0
    6.6958   -5.1268   22.5744 H   0  0  0  0  0  0  0  0  0  0  0  0
    6.8518   -5.7835   24.1887 H   0  0  0  0  0  0  0  0  0  0  0  0
    7.7816   -7.3602   22.4954 H   0  0  0  0  0  0  0  0  0  0  0  0
    8.9218   -6.1302   21.9374 H   0  0  0  0  0  0  0  0  0  0  0  0
    9.0737   -6.8008   23.5729 H   0  0  0  0  0  0  0  0  0  0  0  0
  1  2  1  0
  2  3  1  0
  3  4  1  0
  4  5  1  0
  5  6  1  0
  5  7  1  0
  5  8  1  0
  4  9  1  0
  9 10  2  0
 10 11  1  0
 11 12  1  0
 12 13  2  0
 13 14  1  0
 14 15  2  0
 15 16  1  0
 16 17  2  0
 17 18  1  0
 15 19  1  0
 14 20  1  0
 13 21  1  0
 11 22  1  0
 22 23  1  0
 23 24  1  0
 24 25  1  0
 25 26  2  0
 26 27  1  0
 27 28  2  0
 28 29  1  0
 29 30  1  0
 29 31  1  0
 29 32  1  0
 27 33  1  0
 26 34  1  0
 23 35  1  0
 23 36  1  0
 22 37  2  0
  4 38  1  0
  3 39  1  0
  3 40  1  0
  2 41  1  0
  2 42  1  0
  1 43  1  0
  1 44  1  0
  1 45  1  0
 37  9  1  0
 17 12  1  0
 28 24  1  0
M  END
>  <cnnaffinity>  (1) 
-6.20608

>  <filename>  (1) 
CCCC(C)c1nc(Cn2nccc2C)n(-c2cccnc2)n1

$$$$
