
     RDKit          3D

 35 36  0  0  0  0  0  0  0  0999 V2000
    4.9252    1.7832   16.9912 H   0  0  0  0  0  0  0  0  0  0  0  0
    5.4004    1.2933   17.8356 C   0  0  0  0  0  0  0  0  0  0  0  0
    6.5616    0.6767   17.5745 N   0  0  0  0  0  0  0  0  0  0  0  0
    7.1608    0.0672   18.5969 C   0  0  0  0  0  0  0  0  0  0  0  0
    8.1054   -0.4097   18.3562 H   0  0  0  0  0  0  0  0  0  0  0  0
    6.6469    0.0146   19.9028 C   0  0  0  0  0  0  0  0  0  0  0  0
    7.3802   -0.6968   20.9454 C   0  0  0  0  0  0  0  0  0  0  0  0
    6.9337   -0.6945   22.2647 N   0  0  0  0  0  0  0  0  0  0  0  0
    7.8026   -1.4063   22.9021 C   0  0  0  0  0  0  0  0  0  0  0  0
    7.7926   -1.7983   24.3363 C   0  0  0  0  0  0  0  0  0  0  0  0
    8.8035   -1.7068   24.7417 H   0  0  0  0  0  0  0  0  0  0  0  0
    7.1673   -1.0636   24.8454 H   0  0  0  0  0  0  0  0  0  0  0  0
    7.2322   -3.2091   24.5789 C   0  0  0  0  0  0  0  0  0  0  0  0
    7.3439   -3.4591   25.6407 H   0  0  0  0  0  0  0  0  0  0  0  0
    7.8415   -3.9379   24.0329 H   0  0  0  0  0  0  0  0  0  0  0  0
    5.7607   -3.3430   24.1813 C   0  0  0  0  0  0  0  0  0  0  0  0
    5.1830   -2.5459   24.6666 H   0  0  0  0  0  0  0  0  0  0  0  0
    5.6502   -3.1616   23.1042 H   0  0  0  0  0  0  0  0  0  0  0  0
    5.1527   -4.6993   24.5348 C   0  0  0  0  0  0  0  0  0  0  0  0
    4.0631   -4.6502   24.4190 H   0  0  0  0  0  0  0  0  0  0  0  0
    5.3256   -4.9075   25.5995 H   0  0  0  0  0  0  0  0  0  0  0  0
    5.6908   -5.8602   23.7008 C   0  0  0  0  0  0  0  0  0  0  0  0
    5.5792   -5.6163   22.6384 H   0  0  0  0  0  0  0  0  0  0  0  0
    6.7696   -5.9665   23.8619 H   0  0  0  0  0  0  0  0  0  0  0  0
    4.9874   -7.1781   24.0045 C   0  0  0  0  0  0  0  0  0  0  0  0
    5.3819   -7.9995   23.3990 H   0  0  0  0  0  0  0  0  0  0  0  0
    3.9123   -7.1051   23.8104 H   0  0  0  0  0  0  0  0  0  0  0  0
    5.1071   -7.4491   25.0592 H   0  0  0  0  0  0  0  0  0  0  0  0
    8.7961   -1.8963   22.1240 O   0  0  0  0  0  0  0  0  0  0  0  0
    8.5167   -1.4279   20.8746 C   0  0  0  0  0  0  0  0  0  0  0  0
    9.1968   -1.6822   20.0744 H   0  0  0  0  0  0  0  0  0  0  0  0
    5.4250    0.6586   20.1629 C   0  0  0  0  0  0  0  0  0  0  0  0
    5.0063    0.6343   21.1747 H   0  0  0  0  0  0  0  0  0  0  0  0
    4.8017    1.3116   19.1025 C   0  0  0  0  0  0  0  0  0  0  0  0
    3.8715    1.8445   19.2514 H   0  0  0  0  0  0  0  0  0  0  0  0
  1  2  1  0
  2  3  2  0
  3  4  1  0
  4  5  1  0
  4  6  2  0
  6  7  1  0
  7  8  1  0
  8  9  2  0
  9 10  1  0
 10 11  1  0
 10 12  1  0
 10 13  1  0
 13 14  1  0
 13 15  1  0
 13 16  1  0
 16 17  1  0
 16 18  1  0
 16 19  1  0
 19 20  1  0
 19 21  1  0
 19 22  1  0
 22 23  1  0
 22 24  1  0
 22 25  1  0
 25 26  1  0
 25 27  1  0
 25 28  1  0
  9 29  1  0
 29 30  1  0
 30 31  1  0
  6 32  1  0
 32 33  1  0
 32 34  2  0
 34 35  1  0
 34  2  1  0
 30  7  2  0
M  END
>  <cnnaffinity>  (1) 
-5.00523

>  <filename>  (1) 
CCCCCCc1nc(-c2cccnc2)co1

$$$$
