
     RDKit          3D

 46 48  0  0  0  0  0  0  0  0999 V2000
    7.7386   -5.6282   23.9738 C   0  0  0  0  0  0  0  0  0  0  0  0
    7.9110   -4.5273   22.9289 C   0  0  0  0  0  0  0  0  0  0  0  0
    7.4288   -3.1567   23.4413 C   0  0  0  0  0  0  0  0  0  0  0  0
    7.6293   -2.0425   22.4730 C   0  0  0  0  0  0  0  0  0  0  0  0
    6.7034   -1.6213   21.6383 N   0  0  0  0  0  0  0  0  0  0  0  0
    7.3150   -0.5964   20.9905 N   0  0  0  0  0  0  0  0  0  0  0  0
    6.6503    0.0658   19.9191 C   0  0  0  0  0  0  0  0  0  0  0  0
    5.4390    0.7295   20.1453 C   0  0  0  0  0  0  0  0  0  0  0  0
    4.8317    1.3953   19.0728 C   0  0  0  0  0  0  0  0  0  0  0  0
    5.4439    1.3453   17.8151 C   0  0  0  0  0  0  0  0  0  0  0  0
    6.5796    0.6695   17.5783 N   0  0  0  0  0  0  0  0  0  0  0  0
    7.1612    0.0399   18.6087 C   0  0  0  0  0  0  0  0  0  0  0  0
    8.0610   -0.5295   18.3757 H   0  0  0  0  0  0  0  0  0  0  0  0
    5.0022    1.8574   16.9611 H   0  0  0  0  0  0  0  0  0  0  0  0
    3.9024    1.9461   19.1969 H   0  0  0  0  0  0  0  0  0  0  0  0
    4.9817    0.7065   21.1354 H   0  0  0  0  0  0  0  0  0  0  0  0
    8.5640   -0.4276   21.5127 C   0  0  0  0  0  0  0  0  0  0  0  0
    9.4494    0.7618   21.2352 C   0  0  0  0  0  0  0  0  0  0  0  0
    9.2069    1.9307   22.0984 N   0  0  0  0  0  0  0  0  0  0  0  0
    7.9406    2.6412   21.8957 C   0  0  0  0  0  0  0  0  0  0  0  0
    8.0348    4.0517   22.5002 C   0  0  0  0  0  0  0  0  0  0  0  0
    6.7925    4.8892   22.2664 C   0  0  0  0  0  0  0  0  0  0  0  0
    5.6572    4.2391   22.5938 F   0  0  0  0  0  0  0  0  0  0  0  0
    6.6857    5.2544   20.9742 F   0  0  0  0  0  0  0  0  0  0  0  0
    6.8164    6.0234   23.0009 F   0  0  0  0  0  0  0  0  0  0  0  0
    8.4243    3.9229   23.9814 C   0  0  0  0  0  0  0  0  0  0  0  0
    9.8422    3.3764   24.0213 C   0  0  0  0  0  0  0  0  0  0  0  0
   10.0702    2.1477   23.1638 C   0  0  0  0  0  0  0  0  0  0  0  0
   11.0382    1.4369   23.3835 O   0  0  0  0  0  0  0  0  0  0  0  0
   10.1773    3.1114   25.0215 H   0  0  0  0  0  0  0  0  0  0  0  0
   10.5609    4.1065   23.6321 H   0  0  0  0  0  0  0  0  0  0  0  0
    7.7481    3.2321   24.5097 H   0  0  0  0  0  0  0  0  0  0  0  0
    8.3653    4.8995   24.4749 H   0  0  0  0  0  0  0  0  0  0  0  0
    8.8280    4.6023   21.9819 H   0  0  0  0  0  0  0  0  0  0  0  0
    7.0983    2.0965   22.3550 H   0  0  0  0  0  0  0  0  0  0  0  0
    7.7002    2.6490   20.8284 H   0  0  0  0  0  0  0  0  0  0  0  0
   10.4820    0.4404   21.3978 H   0  0  0  0  0  0  0  0  0  0  0  0
    9.3353    1.0621   20.1921 H   0  0  0  0  0  0  0  0  0  0  0  0
    8.8075   -1.3675   22.4022 N   0  0  0  0  0  0  0  0  0  0  0  0
    6.3625   -3.1889   23.6926 H   0  0  0  0  0  0  0  0  0  0  0  0
    7.9818   -2.8866   24.3491 H   0  0  0  0  0  0  0  0  0  0  0  0
    8.9701   -4.4463   22.6464 H   0  0  0  0  0  0  0  0  0  0  0  0
    7.3572   -4.7893   22.0167 H   0  0  0  0  0  0  0  0  0  0  0  0
    6.6886   -5.7358   24.2744 H   0  0  0  0  0  0  0  0  0  0  0  0
    8.3215   -5.4170   24.8793 H   0  0  0  0  0  0  0  0  0  0  0  0
    8.0758   -6.5916   23.5798 H   0  0  0  0  0  0  0  0  0  0  0  0
  1  2  1  0
  2  3  1  0
  3  4  1  0
  4  5  2  0
  5  6  1  0
  6  7  1  0
  7  8  2  0
  8  9  1  0
  9 10  2  0
 10 11  1  0
 11 12  2  0
 12 13  1  0
 10 14  1  0
  9 15  1  0
  8 16  1  0
  6 17  1  0
 17 18  1  0
 18 19  1  0
 19 20  1  0
 20 21  1  0
 21 22  1  0
 22 23  1  0
 22 24  1  0
 22 25  1  0
 21 26  1  0
 26 27  1  0
 27 28  1  0
 28 29  2  0
 27 30  1  0
 27 31  1  0
 26 32  1  0
 26 33  1  0
 21 34  1  0
 20 35  1  0
 20 36  1  0
 18 37  1  0
 18 38  1  0
 17 39  2  0
  3 40  1  0
  3 41  1  0
  2 42  1  0
  2 43  1  0
  1 44  1  0
  1 45  1  0
  1 46  1  0
 39  4  1  0
 12  7  1  0
 28 19  1  0
M  END
>  <cnnaffinity>  (1) 
-5.88014

>  <filename>  (1) 
CCCc1nc(CN2CC(C(F)(F)F)CCC2=O)n(-c2cccnc2)n1

$$$$
