
     RDKit          3D

 41 43  0  0  0  0  0  0  0  0999 V2000
    6.6957   -4.7200   22.7055 C   0  0  0  0  0  0  0  0  0  0  0  0
    8.0417   -4.3258   23.3085 C   0  0  0  0  0  0  0  0  0  0  0  0
    8.8645   -3.5243   22.2913 C   0  0  0  0  0  0  0  0  0  0  0  0
    8.3031   -2.1850   21.9738 C   0  0  0  0  0  0  0  0  0  0  0  0
    7.7516   -1.9119   20.8118 N   0  0  0  0  0  0  0  0  0  0  0  0
    7.3592   -0.6227   20.9587 N   0  0  0  0  0  0  0  0  0  0  0  0
    6.6484    0.0317   19.9166 C   0  0  0  0  0  0  0  0  0  0  0  0
    5.4358    0.6884   20.1534 C   0  0  0  0  0  0  0  0  0  0  0  0
    4.8172    1.3294   19.0764 C   0  0  0  0  0  0  0  0  0  0  0  0
    5.4293    1.2937   17.8188 C   0  0  0  0  0  0  0  0  0  0  0  0
    6.5803    0.6389   17.5816 N   0  0  0  0  0  0  0  0  0  0  0  0
    7.1633    0.0111   18.6075 C   0  0  0  0  0  0  0  0  0  0  0  0
    8.0850   -0.5271   18.3986 H   0  0  0  0  0  0  0  0  0  0  0  0
    4.9764    1.7980   16.9680 H   0  0  0  0  0  0  0  0  0  0  0  0
    3.8793    1.8582   19.2073 H   0  0  0  0  0  0  0  0  0  0  0  0
    4.9814    0.6706   21.1460 H   0  0  0  0  0  0  0  0  0  0  0  0
    7.7464   -0.1793   22.1893 C   0  0  0  0  0  0  0  0  0  0  0  0
    7.6711    1.2473   22.6152 C   0  0  0  0  0  0  0  0  0  0  0  0
    8.6310    2.1706   21.8301 C   0  0  0  0  0  0  0  0  0  0  0  0
    8.5042    3.6092   22.2598 C   0  0  0  0  0  0  0  0  0  0  0  0
    7.4839    4.4209   21.7487 C   0  0  0  0  0  0  0  0  0  0  0  0
    7.4344    5.7648   22.1068 C   0  0  0  0  0  0  0  0  0  0  0  0
    8.2592    6.3240   23.0095 N   0  0  0  0  0  0  0  0  0  0  0  0
    9.1740    5.5307   23.5421 C   0  0  0  0  0  0  0  0  0  0  0  0
   10.2419    6.2484   24.7219 Cl  0  0  0  0  0  0  0  0  0  0  0  0
    9.3461    4.1788   23.2190 C   0  0  0  0  0  0  0  0  0  0  0  0
   10.1114    3.6033   23.7156 H   0  0  0  0  0  0  0  0  0  0  0  0
    6.6925    6.4115   21.6445 H   0  0  0  0  0  0  0  0  0  0  0  0
    6.7211    4.0174   21.0925 H   0  0  0  0  0  0  0  0  0  0  0  0
    9.6615    1.8193   21.9632 H   0  0  0  0  0  0  0  0  0  0  0  0
    8.4162    2.0826   20.7574 H   0  0  0  0  0  0  0  0  0  0  0  0
    7.8966    1.2789   23.6835 H   0  0  0  0  0  0  0  0  0  0  0  0
    6.6450    1.6057   22.4956 H   0  0  0  0  0  0  0  0  0  0  0  0
    8.3369   -1.1522   22.8532 N   0  0  0  0  0  0  0  0  0  0  0  0
    9.8949   -3.3797   22.6344 H   0  0  0  0  0  0  0  0  0  0  0  0
    8.8560   -4.0521   21.3389 H   0  0  0  0  0  0  0  0  0  0  0  0
    7.9093   -3.7362   24.2263 H   0  0  0  0  0  0  0  0  0  0  0  0
    8.6083   -5.2213   23.5940 H   0  0  0  0  0  0  0  0  0  0  0  0
    6.1149   -3.8359   22.4146 H   0  0  0  0  0  0  0  0  0  0  0  0
    6.0951   -5.3124   23.4022 H   0  0  0  0  0  0  0  0  0  0  0  0
    6.8462   -5.3209   21.7984 H   0  0  0  0  0  0  0  0  0  0  0  0
  1  2  1  0
  2  3  1  0
  3  4  1  0
  4  5  2  0
  5  6  1  0
  6  7  1  0
  7  8  2  0
  8  9  1  0
  9 10  2  0
 10 11  1  0
 11 12  2  0
 12 13  1  0
 10 14  1  0
  9 15  1  0
  8 16  1  0
  6 17  1  0
 17 18  1  0
 18 19  1  0
 19 20  1  0
 20 21  2  0
 21 22  1  0
 22 23  2  0
 23 24  1  0
 24 25  1  0
 24 26  2  0
 26 27  1  0
 22 28  1  0
 21 29  1  0
 19 30  1  0
 19 31  1  0
 18 32  1  0
 18 33  1  0
 17 34  2  0
  3 35  1  0
  3 36  1  0
  2 37  1  0
  2 38  1  0
  1 39  1  0
  1 40  1  0
  1 41  1  0
 34  4  1  0
 12  7  1  0
 26 20  1  0
M  END
>  <cnnaffinity>  (1) 
-5.53044

>  <filename>  (1) 
CCCc1nc(CCc2ccnc(Cl)c2)n(-c2cccnc2)n1

$$$$
