
     RDKit          3D

 45 46  0  0  0  0  0  0  0  0999 V2000
    4.9186    1.7825   16.9973 H   0  0  0  0  0  0  0  0  0  0  0  0
    5.4000    1.2926   17.8383 C   0  0  0  0  0  0  0  0  0  0  0  0
    6.5588    0.6719   17.5796 N   0  0  0  0  0  0  0  0  0  0  0  0
    7.1654    0.0530   18.5986 C   0  0  0  0  0  0  0  0  0  0  0  0
    8.1160   -0.4301   18.3734 H   0  0  0  0  0  0  0  0  0  0  0  0
    6.6461    0.0027   19.9011 C   0  0  0  0  0  0  0  0  0  0  0  0
    7.3847   -0.6997   20.9531 C   0  0  0  0  0  0  0  0  0  0  0  0
    8.6010   -0.2877   21.4630 C   0  0  0  0  0  0  0  0  0  0  0  0
    9.2802    1.0032   21.0736 C   0  0  0  0  0  0  0  0  0  0  0  0
    8.9166    1.3196   20.0937 H   0  0  0  0  0  0  0  0  0  0  0  0
   10.3590    0.8207   20.9840 H   0  0  0  0  0  0  0  0  0  0  0  0
    9.0388    2.1353   22.0822 C   0  0  0  0  0  0  0  0  0  0  0  0
    9.3686    1.8101   23.0796 H   0  0  0  0  0  0  0  0  0  0  0  0
    9.6691    2.9936   21.8108 H   0  0  0  0  0  0  0  0  0  0  0  0
    7.5797    2.5792   22.1513 C   0  0  0  0  0  0  0  0  0  0  0  0
    7.2225    2.8399   21.1444 H   0  0  0  0  0  0  0  0  0  0  0  0
    6.9471    1.7385   22.4730 H   0  0  0  0  0  0  0  0  0  0  0  0
    7.3722    3.7673   23.0815 C   0  0  0  0  0  0  0  0  0  0  0  0
    7.9957    4.6103   22.7445 H   0  0  0  0  0  0  0  0  0  0  0  0
    7.7328    3.5112   24.0886 H   0  0  0  0  0  0  0  0  0  0  0  0
    5.9134    4.2148   23.1408 C   0  0  0  0  0  0  0  0  0  0  0  0
    5.2998    3.3917   23.5378 H   0  0  0  0  0  0  0  0  0  0  0  0
    5.5519    4.3980   22.1186 H   0  0  0  0  0  0  0  0  0  0  0  0
    5.6862    5.4673   23.9874 C   0  0  0  0  0  0  0  0  0  0  0  0
    4.6665    5.8380   23.8135 H   0  0  0  0  0  0  0  0  0  0  0  0
    6.3607    6.2651   23.6413 H   0  0  0  0  0  0  0  0  0  0  0  0
    5.8904    5.2483   25.4871 C   0  0  0  0  0  0  0  0  0  0  0  0
    5.2675    4.4050   25.8148 H   0  0  0  0  0  0  0  0  0  0  0  0
    6.9285    4.9531   25.6882 H   0  0  0  0  0  0  0  0  0  0  0  0
    5.5454    6.4870   26.3063 C   0  0  0  0  0  0  0  0  0  0  0  0
    6.1707    7.3381   26.0085 H   0  0  0  0  0  0  0  0  0  0  0  0
    5.6944    6.3140   27.3776 H   0  0  0  0  0  0  0  0  0  0  0  0
    4.4982    6.7770   26.1515 H   0  0  0  0  0  0  0  0  0  0  0  0
    9.1846   -1.0713   22.5082 C   0  0  0  0  0  0  0  0  0  0  0  0
   10.1351   -0.7275   22.9275 H   0  0  0  0  0  0  0  0  0  0  0  0
    8.5798   -2.1968   22.9764 C   0  0  0  0  0  0  0  0  0  0  0  0
    8.9980   -2.8122   23.7543 H   0  0  0  0  0  0  0  0  0  0  0  0
    7.3029   -2.6449   22.4516 C   0  0  0  0  0  0  0  0  0  0  0  0
    6.6842   -3.6381   22.7918 O   0  0  0  0  0  0  0  0  0  0  0  0
    6.7854   -1.8302   21.4595 N   0  0  0  0  0  0  0  0  0  0  0  0
    5.9038   -2.1531   21.1080 H   0  0  0  0  0  0  0  0  0  0  0  0
    5.4247    0.6439   20.1569 C   0  0  0  0  0  0  0  0  0  0  0  0
    5.0029    0.6311   21.1687 H   0  0  0  0  0  0  0  0  0  0  0  0
    4.8024    1.3113   19.1042 C   0  0  0  0  0  0  0  0  0  0  0  0
    3.8720    1.8451   19.2561 H   0  0  0  0  0  0  0  0  0  0  0  0
  1  2  1  0
  2  3  2  0
  3  4  1  0
  4  5  1  0
  4  6  2  0
  6  7  1  0
  7  8  2  0
  8  9  1  0
  9 10  1  0
  9 11  1  0
  9 12  1  0
 12 13  1  0
 12 14  1  0
 12 15  1  0
 15 16  1  0
 15 17  1  0
 15 18  1  0
 18 19  1  0
 18 20  1  0
 18 21  1  0
 21 22  1  0
 21 23  1  0
 21 24  1  0
 24 25  1  0
 24 26  1  0
 24 27  1  0
 27 28  1  0
 27 29  1  0
 27 30  1  0
 30 31  1  0
 30 32  1  0
 30 33  1  0
  8 34  1  0
 34 35  1  0
 34 36  2  0
 36 37  1  0
 36 38  1  0
 38 39  2  0
 38 40  1  0
 40 41  1  0
  6 42  1  0
 42 43  1  0
 42 44  2  0
 44 45  1  0
 44  2  1  0
 40  7  1  0
M  END
>  <cnnaffinity>  (1) 
-5.60198

>  <filename>  (1) 
CCCCCCCCc1ccc(=O)[nH]c1-c1cccnc1

$$$$
