
     RDKit          3D

 40 42  0  0  0  0  0  0  0  0999 V2000
    8.4825   -5.7336   23.3586 C   0  0  0  0  0  0  0  0  0  0  0  0
    7.7917   -4.3966   23.0948 C   0  0  0  0  0  0  0  0  0  0  0  0
    8.6753   -3.4685   22.2465 C   0  0  0  0  0  0  0  0  0  0  0  0
    8.1466   -2.0943   22.0102 C   0  0  0  0  0  0  0  0  0  0  0  0
    7.7741   -1.7262   20.8040 N   0  0  0  0  0  0  0  0  0  0  0  0
    7.3239   -0.4622   20.9850 N   0  0  0  0  0  0  0  0  0  0  0  0
    6.6167    0.1594   19.9228 C   0  0  0  0  0  0  0  0  0  0  0  0
    5.3992    0.8207   20.1218 C   0  0  0  0  0  0  0  0  0  0  0  0
    4.7907    1.4117   19.0103 C   0  0  0  0  0  0  0  0  0  0  0  0
    5.4164    1.3253   17.7637 C   0  0  0  0  0  0  0  0  0  0  0  0
    6.5582    0.6443   17.5606 N   0  0  0  0  0  0  0  0  0  0  0  0
    7.1243    0.0481   18.6142 C   0  0  0  0  0  0  0  0  0  0  0  0
    8.0088   -0.5566   18.4100 H   0  0  0  0  0  0  0  0  0  0  0  0
    4.9766    1.7925   16.8875 H   0  0  0  0  0  0  0  0  0  0  0  0
    3.8445    1.9314   19.1063 H   0  0  0  0  0  0  0  0  0  0  0  0
    4.9326    0.8389   21.1075 H   0  0  0  0  0  0  0  0  0  0  0  0
    7.5433   -0.0948   22.2847 C   0  0  0  0  0  0  0  0  0  0  0  0
    7.4874    1.3339   22.7414 C   0  0  0  0  0  0  0  0  0  0  0  0
    8.4559    2.2636   21.9660 C   0  0  0  0  0  0  0  0  0  0  0  0
    9.8959    1.8380   22.1014 C   0  0  0  0  0  0  0  0  0  0  0  0
   10.4673    0.8398   21.3210 C   0  0  0  0  0  0  0  0  0  0  0  0
   11.7037    0.3695   21.5022 N   0  0  0  0  0  0  0  0  0  0  0  0
   12.3992    0.9082   22.4960 C   0  0  0  0  0  0  0  0  0  0  0  0
   11.9914    1.8928   23.2967 N   0  0  0  0  0  0  0  0  0  0  0  0
   10.7579    2.3413   23.0780 C   0  0  0  0  0  0  0  0  0  0  0  0
   10.4361    3.1608   23.7208 H   0  0  0  0  0  0  0  0  0  0  0  0
   13.3933    0.5024   22.6654 H   0  0  0  0  0  0  0  0  0  0  0  0
    9.8864    0.3906   20.5199 H   0  0  0  0  0  0  0  0  0  0  0  0
    8.3406    3.2898   22.3358 H   0  0  0  0  0  0  0  0  0  0  0  0
    8.1553    2.2721   20.9104 H   0  0  0  0  0  0  0  0  0  0  0  0
    6.4652    1.7052   22.6227 H   0  0  0  0  0  0  0  0  0  0  0  0
    7.7212    1.3365   23.8109 H   0  0  0  0  0  0  0  0  0  0  0  0
    8.0209   -1.1263   22.9618 N   0  0  0  0  0  0  0  0  0  0  0  0
    9.6687   -3.3795   22.7038 H   0  0  0  0  0  0  0  0  0  0  0  0
    8.8004   -3.8996   21.2504 H   0  0  0  0  0  0  0  0  0  0  0  0
    7.5574   -3.9013   24.0450 H   0  0  0  0  0  0  0  0  0  0  0  0
    6.8303   -4.5652   22.5877 H   0  0  0  0  0  0  0  0  0  0  0  0
    8.8283   -6.1991   22.4272 H   0  0  0  0  0  0  0  0  0  0  0  0
    9.3538   -5.6200   24.0151 H   0  0  0  0  0  0  0  0  0  0  0  0
    7.8009   -6.4332   23.8450 H   0  0  0  0  0  0  0  0  0  0  0  0
  1  2  1  0
  2  3  1  0
  3  4  1  0
  4  5  2  0
  5  6  1  0
  6  7  1  0
  7  8  2  0
  8  9  1  0
  9 10  2  0
 10 11  1  0
 11 12  2  0
 12 13  1  0
 10 14  1  0
  9 15  1  0
  8 16  1  0
  6 17  1  0
 17 18  1  0
 18 19  1  0
 19 20  1  0
 20 21  2  0
 21 22  1  0
 22 23  2  0
 23 24  1  0
 24 25  2  0
 25 26  1  0
 23 27  1  0
 21 28  1  0
 19 29  1  0
 19 30  1  0
 18 31  1  0
 18 32  1  0
 17 33  2  0
  3 34  1  0
  3 35  1  0
  2 36  1  0
  2 37  1  0
  1 38  1  0
  1 39  1  0
  1 40  1  0
 33  4  1  0
 12  7  1  0
 25 20  1  0
M  END
>  <cnnaffinity>  (1) 
-5.62969

>  <filename>  (1) 
CCCc1nc(CCc2cncnc2)n(-c2cccnc2)n1

$$$$
