
     RDKit          3D

 39 41  0  0  0  0  0  0  0  0999 V2000
    8.4116   -5.7649   23.2621 C   0  0  0  0  0  0  0  0  0  0  0  0
    7.6761   -4.4401   23.0589 C   0  0  0  0  0  0  0  0  0  0  0  0
    8.5702   -3.4424   22.3069 C   0  0  0  0  0  0  0  0  0  0  0  0
    7.9970   -2.0984   22.0253 C   0  0  0  0  0  0  0  0  0  0  0  0
    7.6627   -1.2178   22.9496 N   0  0  0  0  0  0  0  0  0  0  0  0
    7.2037   -0.1656   22.2196 N   0  0  0  0  0  0  0  0  0  0  0  0
    7.0840    1.1521   22.8651 C   0  0  0  0  0  0  0  0  0  0  0  0
    8.3963    1.6128   23.4836 C   0  0  0  0  0  0  0  0  0  0  0  0
    8.5752    1.5725   24.8731 C   0  0  0  0  0  0  0  0  0  0  0  0
    9.8428    1.7163   25.4448 C   0  0  0  0  0  0  0  0  0  0  0  0
   10.9482    1.9978   24.6388 C   0  0  0  0  0  0  0  0  0  0  0  0
   10.7854    2.1203   23.2565 C   0  0  0  0  0  0  0  0  0  0  0  0
    9.5131    1.9446   22.7035 C   0  0  0  0  0  0  0  0  0  0  0  0
    9.3117    2.1513   20.9982 Cl  0  0  0  0  0  0  0  0  0  0  0  0
   11.6240    2.3153   22.5972 H   0  0  0  0  0  0  0  0  0  0  0  0
   11.9374    2.1296   25.0702 H   0  0  0  0  0  0  0  0  0  0  0  0
    9.9774    1.5438   26.5039 H   0  0  0  0  0  0  0  0  0  0  0  0
    7.7132    1.4331   25.5228 H   0  0  0  0  0  0  0  0  0  0  0  0
    6.3159    1.0733   23.6381 H   0  0  0  0  0  0  0  0  0  0  0  0
    6.7470    1.8665   22.1124 H   0  0  0  0  0  0  0  0  0  0  0  0
    7.2363   -0.5024   20.9008 C   0  0  0  0  0  0  0  0  0  0  0  0
    6.5617    0.2143   19.8224 C   0  0  0  0  0  0  0  0  0  0  0  0
    5.3267    0.8662   19.9802 C   0  0  0  0  0  0  0  0  0  0  0  0
    4.7469    1.4552   18.8586 C   0  0  0  0  0  0  0  0  0  0  0  0
    5.4208    1.3784   17.6348 C   0  0  0  0  0  0  0  0  0  0  0  0
    6.5849    0.7306   17.4661 N   0  0  0  0  0  0  0  0  0  0  0  0
    7.1221    0.1424   18.5395 C   0  0  0  0  0  0  0  0  0  0  0  0
    8.0387   -0.4255   18.3799 H   0  0  0  0  0  0  0  0  0  0  0  0
    5.0071    1.8454   16.7432 H   0  0  0  0  0  0  0  0  0  0  0  0
    3.7975    1.9772   18.9211 H   0  0  0  0  0  0  0  0  0  0  0  0
    4.8187    0.8767   20.9482 H   0  0  0  0  0  0  0  0  0  0  0  0
    7.7964   -1.6869   20.7496 N   0  0  0  0  0  0  0  0  0  0  0  0
    8.8323   -3.8550   21.3314 H   0  0  0  0  0  0  0  0  0  0  0  0
    9.5084   -3.3086   22.8545 H   0  0  0  0  0  0  0  0  0  0  0  0
    6.7503   -4.6148   22.4948 H   0  0  0  0  0  0  0  0  0  0  0  0
    7.3777   -4.0186   24.0271 H   0  0  0  0  0  0  0  0  0  0  0  0
    9.2326   -5.6599   23.9815 H   0  0  0  0  0  0  0  0  0  0  0  0
    7.7424   -6.5406   23.6375 H   0  0  0  0  0  0  0  0  0  0  0  0
    8.8407   -6.1293   22.3202 H   0  0  0  0  0  0  0  0  0  0  0  0
  1  2  1  0
  2  3  1  0
  3  4  1  0
  4  5  2  0
  5  6  1  0
  6  7  1  0
  7  8  1  0
  8  9  2  0
  9 10  1  0
 10 11  2  0
 11 12  1  0
 12 13  2  0
 13 14  1  0
 12 15  1  0
 11 16  1  0
 10 17  1  0
  9 18  1  0
  7 19  1  0
  7 20  1  0
  6 21  1  0
 21 22  1  0
 22 23  2  0
 23 24  1  0
 24 25  2  0
 25 26  1  0
 26 27  2  0
 27 28  1  0
 25 29  1  0
 24 30  1  0
 23 31  1  0
 21 32  2  0
  3 33  1  0
  3 34  1  0
  2 35  1  0
  2 36  1  0
  1 37  1  0
  1 38  1  0
  1 39  1  0
 32  4  1  0
 13  8  1  0
 27 22  1  0
M  END
>  <cnnaffinity>  (1) 
-5.39734

>  <filename>  (1) 
CCCc1nc(-c2cccnc2)n(Cc2ccccc2Cl)n1

$$$$
