
     RDKit          3D

 41 42  0  0  0  0  0  0  0  0999 V2000
    4.9276    1.7765   16.9969 H   0  0  0  0  0  0  0  0  0  0  0  0
    5.4052    1.2876   17.8423 C   0  0  0  0  0  0  0  0  0  0  0  0
    6.5694    0.6697   17.5944 N   0  0  0  0  0  0  0  0  0  0  0  0
    7.1690    0.0571   18.6184 C   0  0  0  0  0  0  0  0  0  0  0  0
    8.1184   -0.4154   18.3694 H   0  0  0  0  0  0  0  0  0  0  0  0
    6.6543    0.0117   19.9238 C   0  0  0  0  0  0  0  0  0  0  0  0
    7.3789   -0.6894   20.9974 C   0  0  0  0  0  0  0  0  0  0  0  0
    7.1140   -0.3956   22.3154 N   0  0  0  0  0  0  0  0  0  0  0  0
    7.8279   -1.1201   23.1183 C   0  0  0  0  0  0  0  0  0  0  0  0
    7.8115   -0.9552   24.6056 C   0  0  0  0  0  0  0  0  0  0  0  0
    6.7734   -1.0479   24.9387 H   0  0  0  0  0  0  0  0  0  0  0  0
    8.3717   -1.7710   25.0657 H   0  0  0  0  0  0  0  0  0  0  0  0
    8.3904    0.3978   25.0441 C   0  0  0  0  0  0  0  0  0  0  0  0
    8.2270    0.5303   26.1211 H   0  0  0  0  0  0  0  0  0  0  0  0
    7.8241    1.1971   24.5472 H   0  0  0  0  0  0  0  0  0  0  0  0
    9.8822    0.5355   24.7370 C   0  0  0  0  0  0  0  0  0  0  0  0
   10.4232   -0.2845   25.2288 H   0  0  0  0  0  0  0  0  0  0  0  0
   10.0589    0.4028   23.6618 H   0  0  0  0  0  0  0  0  0  0  0  0
   10.4814    1.8681   25.1909 C   0  0  0  0  0  0  0  0  0  0  0  0
   11.5669    1.8519   25.0250 H   0  0  0  0  0  0  0  0  0  0  0  0
   10.3469    1.9394   26.2754 H   0  0  0  0  0  0  0  0  0  0  0  0
    9.8782    3.1186   24.5280 C   0  0  0  0  0  0  0  0  0  0  0  0
   10.4036    4.0127   24.8865 H   0  0  0  0  0  0  0  0  0  0  0  0
    8.8420    3.2450   24.8687 H   0  0  0  0  0  0  0  0  0  0  0  0
    9.8990    3.1171   22.9921 C   0  0  0  0  0  0  0  0  0  0  0  0
    9.2343    2.3246   22.6182 H   0  0  0  0  0  0  0  0  0  0  0  0
    9.4604    4.0597   22.6382 H   0  0  0  0  0  0  0  0  0  0  0  0
   11.2876    2.9641   22.3579 C   0  0  0  0  0  0  0  0  0  0  0  0
   11.7318    2.0058   22.6550 H   0  0  0  0  0  0  0  0  0  0  0  0
   11.1739    2.9085   21.2689 H   0  0  0  0  0  0  0  0  0  0  0  0
   12.2498    4.1011   22.7025 C   0  0  0  0  0  0  0  0  0  0  0  0
   13.1834    4.0212   22.1367 H   0  0  0  0  0  0  0  0  0  0  0  0
   11.8000    5.0736   22.4716 H   0  0  0  0  0  0  0  0  0  0  0  0
   12.5076    4.1087   23.7674 H   0  0  0  0  0  0  0  0  0  0  0  0
    8.8772   -2.2542   22.3241 S   0  0  0  0  0  0  0  0  0  0  0  0
    8.3199   -1.6536   20.8195 C   0  0  0  0  0  0  0  0  0  0  0  0
    8.7011   -1.9960   19.8850 H   0  0  0  0  0  0  0  0  0  0  0  0
    5.4295    0.6584   20.1637 C   0  0  0  0  0  0  0  0  0  0  0  0
    5.0029    0.6398   21.1695 H   0  0  0  0  0  0  0  0  0  0  0  0
    4.8044    1.3081   19.1051 C   0  0  0  0  0  0  0  0  0  0  0  0
    3.8743    1.8423   19.2544 H   0  0  0  0  0  0  0  0  0  0  0  0
  1  2  1  0
  2  3  2  0
  3  4  1  0
  4  5  1  0
  4  6  2  0
  6  7  1  0
  7  8  1  0
  8  9  2  0
  9 10  1  0
 10 11  1  0
 10 12  1  0
 10 13  1  0
 13 14  1  0
 13 15  1  0
 13 16  1  0
 16 17  1  0
 16 18  1  0
 16 19  1  0
 19 20  1  0
 19 21  1  0
 19 22  1  0
 22 23  1  0
 22 24  1  0
 22 25  1  0
 25 26  1  0
 25 27  1  0
 25 28  1  0
 28 29  1  0
 28 30  1  0
 28 31  1  0
 31 32  1  0
 31 33  1  0
 31 34  1  0
  9 35  1  0
 35 36  1  0
 36 37  1  0
  6 38  1  0
 38 39  1  0
 38 40  2  0
 40 41  1  0
 40  2  1  0
 36  7  2  0
M  END
>  <cnnaffinity>  (1) 
-5.74111

>  <filename>  (1) 
CCCCCCCCc1nc(-c2cccnc2)cs1

$$$$
