
     RDKit          3D

 52 54  0  0  0  0  0  0  0  0999 V2000
    8.1167   -3.8079   26.9734 C   0  0  0  0  0  0  0  0  0  0  0  0
    6.9444   -3.2775   26.1433 C   0  0  0  0  0  0  0  0  0  0  0  0
    7.3487   -2.3629   24.9726 C   0  0  0  0  0  0  0  0  0  0  0  0
    7.4177   -3.0615   23.5885 C   0  0  0  0  0  0  0  0  0  0  0  0
    8.4640   -4.1901   23.5361 C   0  0  0  0  0  0  0  0  0  0  0  0
    9.4586   -3.8231   23.8161 H   0  0  0  0  0  0  0  0  0  0  0  0
    8.5424   -4.6169   22.5315 H   0  0  0  0  0  0  0  0  0  0  0  0
    8.2007   -5.0046   24.2188 H   0  0  0  0  0  0  0  0  0  0  0  0
    7.6438   -2.0369   22.5117 C   0  0  0  0  0  0  0  0  0  0  0  0
    6.7154   -1.6617   21.6524 N   0  0  0  0  0  0  0  0  0  0  0  0
    7.3384   -0.7035   20.9151 N   0  0  0  0  0  0  0  0  0  0  0  0
    6.6430   -0.0238   19.8746 C   0  0  0  0  0  0  0  0  0  0  0  0
    5.4298    0.6254   20.1397 C   0  0  0  0  0  0  0  0  0  0  0  0
    4.8016    1.3091   19.0929 C   0  0  0  0  0  0  0  0  0  0  0  0
    5.3953    1.3019   17.8260 C   0  0  0  0  0  0  0  0  0  0  0  0
    6.5389    0.6532   17.5542 N   0  0  0  0  0  0  0  0  0  0  0  0
    7.1468    0.0140   18.5627 C   0  0  0  0  0  0  0  0  0  0  0  0
    8.0824   -0.4885   18.3174 H   0  0  0  0  0  0  0  0  0  0  0  0
    4.9359    1.8339   16.9960 H   0  0  0  0  0  0  0  0  0  0  0  0
    3.8754    1.8558   19.2506 H   0  0  0  0  0  0  0  0  0  0  0  0
    5.0180    0.5985   21.1490 H   0  0  0  0  0  0  0  0  0  0  0  0
    8.5980   -0.5159   21.4137 C   0  0  0  0  0  0  0  0  0  0  0  0
    9.6124    0.4889   20.9716 C   0  0  0  0  0  0  0  0  0  0  0  0
    9.9565    1.5661   22.0316 C   0  0  1  0  0  0  0  0  0  0  0  0
   11.2548    2.3303   21.6672 C   0  0  0  0  0  0  0  0  0  0  0  0
   11.5347    3.6095   22.5120 C   0  0  0  0  0  0  0  0  0  0  0  0
   10.6581    3.6951   23.7721 C   0  0  0  0  0  0  0  0  0  0  0  0
    9.1512    3.5038   23.4672 C   0  0  0  0  0  0  0  0  0  0  0  0
    8.8041    2.5435   22.3052 C   0  0  2  0  0  0  0  0  0  0  0  0
    7.5636    1.8990   22.5473 O   0  0  0  0  0  0  0  0  0  0  0  0
    7.7119    1.2704   23.2676 H   0  0  0  0  0  0  0  0  0  0  0  0
    8.6223    3.1200   21.3912 H   0  0  0  0  0  0  0  0  0  0  0  0
    8.6677    3.1058   24.3679 H   0  0  0  0  0  0  0  0  0  0  0  0
    8.6796    4.4697   23.2477 H   0  0  0  0  0  0  0  0  0  0  0  0
   10.8116    4.6488   24.2948 H   0  0  0  0  0  0  0  0  0  0  0  0
   10.9943    2.9244   24.4794 H   0  0  0  0  0  0  0  0  0  0  0  0
   12.5937    3.6307   22.7948 H   0  0  0  0  0  0  0  0  0  0  0  0
   11.3911    4.5072   21.9014 H   0  0  0  0  0  0  0  0  0  0  0  0
   11.2457    2.5967   20.6004 H   0  0  0  0  0  0  0  0  0  0  0  0
   12.0906    1.6321   21.7997 H   0  0  0  0  0  0  0  0  0  0  0  0
   10.1467    1.0474   22.9832 H   0  0  0  0  0  0  0  0  0  0  0  0
   10.5157   -0.0873   20.7479 H   0  0  0  0  0  0  0  0  0  0  0  0
    9.2772    0.9630   20.0485 H   0  0  0  0  0  0  0  0  0  0  0  0
    8.8176   -1.3638   22.3991 N   0  0  0  0  0  0  0  0  0  0  0  0
    6.4317   -3.4860   23.3707 H   0  0  0  0  0  0  0  0  0  0  0  0
    8.3193   -1.8898   25.1794 H   0  0  0  0  0  0  0  0  0  0  0  0
    6.6370   -1.5316   24.8916 H   0  0  0  0  0  0  0  0  0  0  0  0
    6.2669   -2.7344   26.8130 H   0  0  0  0  0  0  0  0  0  0  0  0
    6.3505   -4.1138   25.7547 H   0  0  0  0  0  0  0  0  0  0  0  0
    8.6696   -2.9787   27.4263 H   0  0  0  0  0  0  0  0  0  0  0  0
    8.8290   -4.3750   26.3654 H   0  0  0  0  0  0  0  0  0  0  0  0
    7.7833   -4.4616   27.7862 H   0  0  0  0  0  0  0  0  0  0  0  0
  1  2  1  0
  2  3  1  0
  3  4  1  0
  4  5  1  0
  5  6  1  0
  5  7  1  0
  5  8  1  0
  4  9  1  0
  9 10  2  0
 10 11  1  0
 11 12  1  0
 12 13  2  0
 13 14  1  0
 14 15  2  0
 15 16  1  0
 16 17  2  0
 17 18  1  0
 15 19  1  0
 14 20  1  0
 13 21  1  0
 11 22  1  0
 22 23  1  0
 23 24  1  0
 24 25  1  0
 25 26  1  0
 26 27  1  0
 27 28  1  0
 28 29  1  0
 29 30  1  0
 30 31  1  0
 29 32  1  6
 28 33  1  0
 28 34  1  0
 27 35  1  0
 27 36  1  0
 26 37  1  0
 26 38  1  0
 25 39  1  0
 25 40  1  0
 24 41  1  1
 23 42  1  0
 23 43  1  0
 22 44  2  0
  4 45  1  0
  3 46  1  0
  3 47  1  0
  2 48  1  0
  2 49  1  0
  1 50  1  0
  1 51  1  0
  1 52  1  0
 44  9  1  0
 17 12  1  0
 29 24  1  0
M  END
>  <cnnaffinity>  (1) 
-6.23129

>  <filename>  (1) 
CCCC(C)c1nc(C[C@H]2CCCC[C@@H]2O)n(-c2cccnc2)n1

$$$$
