
     RDKit          3D

 45 46  0  0  0  0  0  0  0  0999 V2000
    4.9256    1.8113   16.9733 H   0  0  0  0  0  0  0  0  0  0  0  0
    5.3842    1.3054   17.8225 C   0  0  0  0  0  0  0  0  0  0  0  0
    6.5455    0.6854   17.5673 N   0  0  0  0  0  0  0  0  0  0  0  0
    7.1477    0.0673   18.5897 C   0  0  0  0  0  0  0  0  0  0  0  0
    8.1020   -0.4024   18.3499 H   0  0  0  0  0  0  0  0  0  0  0  0
    6.6371   -0.0005   19.8979 C   0  0  0  0  0  0  0  0  0  0  0  0
    7.4235   -0.7043   20.9902 C   0  0  0  0  0  0  0  0  0  0  0  0
    6.8510   -0.7196   21.9233 H   0  0  0  0  0  0  0  0  0  0  0  0
    7.6199   -1.7519   20.7335 H   0  0  0  0  0  0  0  0  0  0  0  0
    8.7199   -0.0916   21.2695 N   0  0  0  0  0  0  0  0  0  0  0  0
    9.9262   -0.5480   20.8324 C   0  0  0  0  0  0  0  0  0  0  0  0
    9.9788   -1.4587   20.2500 H   0  0  0  0  0  0  0  0  0  0  0  0
   10.9177    0.2300   21.1788 N   0  0  0  0  0  0  0  0  0  0  0  0
   10.3290    1.2565   21.8699 C   0  0  0  0  0  0  0  0  0  0  0  0
   10.9218    2.0450   22.3256 H   0  0  0  0  0  0  0  0  0  0  0  0
    8.9684    1.0937   21.9354 C   0  0  0  0  0  0  0  0  0  0  0  0
    7.9370    1.8618   22.6893 C   0  0  0  0  0  0  0  0  0  0  0  0
    8.2732    2.9024   22.7622 H   0  0  0  0  0  0  0  0  0  0  0  0
    6.9878    1.9025   22.1334 H   0  0  0  0  0  0  0  0  0  0  0  0
    7.7298    1.3051   24.1132 C   0  0  0  0  0  0  0  0  0  0  0  0
    8.6963    1.3047   24.6331 H   0  0  0  0  0  0  0  0  0  0  0  0
    7.4243    0.2491   24.0420 H   0  0  0  0  0  0  0  0  0  0  0  0
    6.7089    2.0974   24.9320 C   0  0  0  0  0  0  0  0  0  0  0  0
    6.8060    1.8351   25.9957 H   0  0  0  0  0  0  0  0  0  0  0  0
    6.9495    3.1718   24.8685 H   0  0  0  0  0  0  0  0  0  0  0  0
    5.2642    1.8725   24.4687 C   0  0  0  0  0  0  0  0  0  0  0  0
    5.1718    2.1283   23.4036 H   0  0  0  0  0  0  0  0  0  0  0  0
    5.0300    0.7970   24.5346 H   0  0  0  0  0  0  0  0  0  0  0  0
    4.2335    2.6711   25.2720 C   0  0  0  0  0  0  0  0  0  0  0  0
    4.5265    3.7347   25.2884 H   0  0  0  0  0  0  0  0  0  0  0  0
    3.2611    2.6334   24.7585 H   0  0  0  0  0  0  0  0  0  0  0  0
    4.0576    2.1750   26.7126 C   0  0  0  0  0  0  0  0  0  0  0  0
    3.8320    1.0953   26.7020 H   0  0  0  0  0  0  0  0  0  0  0  0
    5.0059    2.2677   27.2666 H   0  0  0  0  0  0  0  0  0  0  0  0
    2.9487    2.9208   27.4616 C   0  0  0  0  0  0  0  0  0  0  0  0
    3.1765    3.9985   27.4583 H   0  0  0  0  0  0  0  0  0  0  0  0
    2.0095    2.8166   26.8954 H   0  0  0  0  0  0  0  0  0  0  0  0
    2.7611    2.4184   28.8960 C   0  0  0  0  0  0  0  0  0  0  0  0
    3.6814    2.5388   29.4815 H   0  0  0  0  0  0  0  0  0  0  0  0
    2.5086    1.3503   28.9118 H   0  0  0  0  0  0  0  0  0  0  0  0
    1.9627    2.9564   29.4176 H   0  0  0  0  0  0  0  0  0  0  0  0
    5.4170    0.6448   20.1376 C   0  0  0  0  0  0  0  0  0  0  0  0
    4.9788    0.6390   21.1386 H   0  0  0  0  0  0  0  0  0  0  0  0
    4.7836    1.3130   19.0839 C   0  0  0  0  0  0  0  0  0  0  0  0
    3.8584    1.8558   19.2254 H   0  0  0  0  0  0  0  0  0  0  0  0
  1  2  1  0
  2  3  2  0
  3  4  1  0
  4  5  1  0
  4  6  2  0
  6  7  1  0
  7  8  1  0
  7  9  1  0
  7 10  1  0
 10 11  1  0
 11 12  1  0
 11 13  2  0
 13 14  1  0
 14 15  1  0
 14 16  2  0
 16 17  1  0
 17 18  1  0
 17 19  1  0
 17 20  1  0
 20 21  1  0
 20 22  1  0
 20 23  1  0
 23 24  1  0
 23 25  1  0
 23 26  1  0
 26 27  1  0
 26 28  1  0
 26 29  1  0
 29 30  1  0
 29 31  1  0
 29 32  1  0
 32 33  1  0
 32 34  1  0
 32 35  1  0
 35 36  1  0
 35 37  1  0
 35 38  1  0
 38 39  1  0
 38 40  1  0
 38 41  1  0
  6 42  1  0
 42 43  1  0
 42 44  2  0
 44 45  1  0
 44  2  1  0
 16 10  1  0
M  END
>  <cnnaffinity>  (1) 
-5.31612

>  <filename>  (1) 
CCCCCCCCc1cncn1Cc1cccnc1

$$$$
