
     RDKit          3D

 36 37  0  0  0  0  0  0  0  0999 V2000
    5.0343    1.8915   17.0002 H   0  0  0  0  0  0  0  0  0  0  0  0
    5.4843    1.3407   17.8209 C   0  0  0  0  0  0  0  0  0  0  0  0
    6.6325    0.7032   17.5420 N   0  0  0  0  0  0  0  0  0  0  0  0
    7.2236    0.0244   18.5331 C   0  0  0  0  0  0  0  0  0  0  0  0
    8.1525   -0.4997   18.2990 H   0  0  0  0  0  0  0  0  0  0  0  0
    6.6897   -0.0631   19.8336 C   0  0  0  0  0  0  0  0  0  0  0  0
    7.3466   -0.7943   20.8685 N   0  0  0  0  0  0  0  0  0  0  0  0
    8.6150   -0.5271   21.4161 C   0  0  0  0  0  0  0  0  0  0  0  0
    9.4773    0.5864   20.9353 C   0  0  0  0  0  0  0  0  0  0  0  0
   10.4879    0.4294   21.3280 H   0  0  0  0  0  0  0  0  0  0  0  0
    9.5567    0.5195   19.8473 H   0  0  0  0  0  0  0  0  0  0  0  0
    8.9568    1.9893   21.3009 C   0  0  0  0  0  0  0  0  0  0  0  0
    7.9964    2.1448   20.7895 H   0  0  0  0  0  0  0  0  0  0  0  0
    9.6492    2.7281   20.8819 H   0  0  0  0  0  0  0  0  0  0  0  0
    8.7940    2.2556   22.8016 C   0  0  0  0  0  0  0  0  0  0  0  0
    8.1317    1.4961   23.2470 H   0  0  0  0  0  0  0  0  0  0  0  0
    9.7671    2.1388   23.3034 H   0  0  0  0  0  0  0  0  0  0  0  0
    8.2226    3.6491   23.1051 C   0  0  0  0  0  0  0  0  0  0  0  0
    7.2976    3.7996   22.5306 H   0  0  0  0  0  0  0  0  0  0  0  0
    8.9253    4.4236   22.7558 H   0  0  0  0  0  0  0  0  0  0  0  0
    7.9103    3.8776   24.5891 C   0  0  0  0  0  0  0  0  0  0  0  0
    7.1534    3.1482   24.9127 H   0  0  0  0  0  0  0  0  0  0  0  0
    7.4569    4.8693   24.7106 H   0  0  0  0  0  0  0  0  0  0  0  0
    9.1351    3.7850   25.4949 C   0  0  0  0  0  0  0  0  0  0  0  0
    9.9036    4.4958   25.1674 H   0  0  0  0  0  0  0  0  0  0  0  0
    8.8804    4.0145   26.5341 H   0  0  0  0  0  0  0  0  0  0  0  0
    9.5744    2.7815   25.4760 H   0  0  0  0  0  0  0  0  0  0  0  0
    8.7793   -1.3973   22.4147 C   0  0  0  0  0  0  0  0  0  0  0  0
    9.5922   -1.5503   23.1116 H   0  0  0  0  0  0  0  0  0  0  0  0
    7.6606   -2.1921   22.5394 O   0  0  0  0  0  0  0  0  0  0  0  0
    6.7456   -1.8236   21.5925 C   0  0  0  0  0  0  0  0  0  0  0  0
    5.6680   -2.3405   21.4356 O   0  0  0  0  0  0  0  0  0  0  0  0
    5.4849    0.5849   20.1045 C   0  0  0  0  0  0  0  0  0  0  0  0
    5.0609    0.4870   21.1041 H   0  0  0  0  0  0  0  0  0  0  0  0
    4.8732    1.3077   19.0794 C   0  0  0  0  0  0  0  0  0  0  0  0
    3.9423    1.8344   19.2472 H   0  0  0  0  0  0  0  0  0  0  0  0
  1  2  1  0
  2  3  2  0
  3  4  1  0
  4  5  1  0
  4  6  2  0
  6  7  1  0
  7  8  1  0
  8  9  1  0
  9 10  1  0
  9 11  1  0
  9 12  1  0
 12 13  1  0
 12 14  1  0
 12 15  1  0
 15 16  1  0
 15 17  1  0
 15 18  1  0
 18 19  1  0
 18 20  1  0
 18 21  1  0
 21 22  1  0
 21 23  1  0
 21 24  1  0
 24 25  1  0
 24 26  1  0
 24 27  1  0
  8 28  2  0
 28 29  1  0
 28 30  1  0
 30 31  1  0
 31 32  2  0
  6 33  1  0
 33 34  1  0
 33 35  2  0
 35 36  1  0
 35  2  1  0
 31  7  1  0
M  END
>  <cnnaffinity>  (1) 
-4.85048

>  <filename>  (1) 
CCCCCCc1coc(=O)n1-c1cccnc1

$$$$
