
     RDKit          3D

 41 43  0  0  0  0  0  0  0  0999 V2000
    8.0484   -1.3994   25.6942 C   0  0  0  0  0  0  0  0  0  0  0  0
    6.9322   -2.1604   24.9885 C   0  0  0  0  0  0  0  0  0  0  0  0
    7.4040   -2.8821   23.7111 C   0  0  0  0  0  0  0  0  0  0  0  0
    7.6749   -1.9466   22.5783 C   0  0  0  0  0  0  0  0  0  0  0  0
    6.7373   -1.5839   21.7281 N   0  0  0  0  0  0  0  0  0  0  0  0
    7.3645   -0.6697   20.9446 N   0  0  0  0  0  0  0  0  0  0  0  0
    6.6623    0.0059   19.9062 C   0  0  0  0  0  0  0  0  0  0  0  0
    5.4453    0.6470   20.1675 C   0  0  0  0  0  0  0  0  0  0  0  0
    4.8136    1.3107   19.1112 C   0  0  0  0  0  0  0  0  0  0  0  0
    5.4022    1.2949   17.8388 C   0  0  0  0  0  0  0  0  0  0  0  0
    6.5628    0.6748   17.5806 N   0  0  0  0  0  0  0  0  0  0  0  0
    7.1716    0.0552   18.5966 C   0  0  0  0  0  0  0  0  0  0  0  0
    8.1150   -0.4349   18.3732 H   0  0  0  0  0  0  0  0  0  0  0  0
    4.9160    1.7824   16.9956 H   0  0  0  0  0  0  0  0  0  0  0  0
    3.8789    1.8393   19.2640 H   0  0  0  0  0  0  0  0  0  0  0  0
    5.0121    0.6107   21.1708 H   0  0  0  0  0  0  0  0  0  0  0  0
    8.6429   -0.5093   21.3961 C   0  0  0  0  0  0  0  0  0  0  0  0
    9.5518    0.5703   20.9089 C   0  0  0  0  0  0  0  0  0  0  0  0
    9.0827    1.9940   21.2957 C   0  0  0  0  0  0  0  0  0  0  0  0
    8.8776    2.1442   22.7847 C   0  0  0  0  0  0  0  0  0  0  0  0
    7.5968    2.0131   23.3457 C   0  0  0  0  0  0  0  0  0  0  0  0
    7.4809    2.1139   24.7262 C   0  0  0  0  0  0  0  0  0  0  0  0
    6.2760    2.0026   25.3091 F   0  0  0  0  0  0  0  0  0  0  0  0
    8.6178    2.3185   25.5145 C   0  0  0  0  0  0  0  0  0  0  0  0
    9.8480    2.4163   24.9941 N   0  0  0  0  0  0  0  0  0  0  0  0
    9.9644    2.3190   23.6620 C   0  0  0  0  0  0  0  0  0  0  0  0
   10.9733    2.3967   23.2652 H   0  0  0  0  0  0  0  0  0  0  0  0
    8.5196    2.3951   26.5943 H   0  0  0  0  0  0  0  0  0  0  0  0
    6.7180    1.8249   22.7306 H   0  0  0  0  0  0  0  0  0  0  0  0
    8.1496    2.2172   20.7633 H   0  0  0  0  0  0  0  0  0  0  0  0
    9.8266    2.7154   20.9405 H   0  0  0  0  0  0  0  0  0  0  0  0
    9.6425    0.4994   19.8224 H   0  0  0  0  0  0  0  0  0  0  0  0
   10.5372    0.3707   21.3370 H   0  0  0  0  0  0  0  0  0  0  0  0
    8.8766   -1.3294   22.4037 N   0  0  0  0  0  0  0  0  0  0  0  0
    6.6522   -3.6001   23.3775 H   0  0  0  0  0  0  0  0  0  0  0  0
    8.3214   -3.4394   23.9142 H   0  0  0  0  0  0  0  0  0  0  0  0
    6.1145   -1.4747   24.7283 H   0  0  0  0  0  0  0  0  0  0  0  0
    6.5020   -2.8968   25.6761 H   0  0  0  0  0  0  0  0  0  0  0  0
    7.6777   -0.8892   26.5887 H   0  0  0  0  0  0  0  0  0  0  0  0
    8.5013   -0.6555   25.0306 H   0  0  0  0  0  0  0  0  0  0  0  0
    8.8529   -2.0765   25.9988 H   0  0  0  0  0  0  0  0  0  0  0  0
  1  2  1  0
  2  3  1  0
  3  4  1  0
  4  5  2  0
  5  6  1  0
  6  7  1  0
  7  8  2  0
  8  9  1  0
  9 10  2  0
 10 11  1  0
 11 12  2  0
 12 13  1  0
 10 14  1  0
  9 15  1  0
  8 16  1  0
  6 17  1  0
 17 18  1  0
 18 19  1  0
 19 20  1  0
 20 21  2  0
 21 22  1  0
 22 23  1  0
 22 24  2  0
 24 25  1  0
 25 26  2  0
 26 27  1  0
 24 28  1  0
 21 29  1  0
 19 30  1  0
 19 31  1  0
 18 32  1  0
 18 33  1  0
 17 34  2  0
  3 35  1  0
  3 36  1  0
  2 37  1  0
  2 38  1  0
  1 39  1  0
  1 40  1  0
  1 41  1  0
 34  4  1  0
 12  7  1  0
 26 20  1  0
M  END
>  <cnnaffinity>  (1) 
-6.00605

>  <filename>  (1) 
CCCc1nc(CCc2cncc(F)c2)n(-c2cccnc2)n1

$$$$
