
     RDKit          3D

 42 44  0  0  0  0  0  0  0  0999 V2000
    7.1608   -4.2961   23.9637 C   0  0  0  0  0  0  0  0  0  0  0  0
    7.8168   -4.6023   22.6179 C   0  0  0  0  0  0  0  0  0  0  0  0
    8.8032   -3.5222   22.1471 C   0  0  0  0  0  0  0  0  0  0  0  0
    8.2309   -2.1650   21.9553 C   0  0  0  0  0  0  0  0  0  0  0  0
    7.6971   -1.8717   20.7864 N   0  0  0  0  0  0  0  0  0  0  0  0
    7.3254   -0.5833   20.9339 N   0  0  0  0  0  0  0  0  0  0  0  0
    6.6386    0.0689   19.8921 C   0  0  0  0  0  0  0  0  0  0  0  0
    5.4225    0.7082   20.1342 C   0  0  0  0  0  0  0  0  0  0  0  0
    4.7866    1.3244   19.0557 C   0  0  0  0  0  0  0  0  0  0  0  0
    5.4051    1.2842   17.8027 C   0  0  0  0  0  0  0  0  0  0  0  0
    6.5549    0.6256   17.5598 N   0  0  0  0  0  0  0  0  0  0  0  0
    7.1516    0.0159   18.5855 C   0  0  0  0  0  0  0  0  0  0  0  0
    8.0744   -0.5298   18.3831 H   0  0  0  0  0  0  0  0  0  0  0  0
    4.9714    1.8147   16.9611 H   0  0  0  0  0  0  0  0  0  0  0  0
    3.8539    1.8547   19.1974 H   0  0  0  0  0  0  0  0  0  0  0  0
    4.9973    0.7007   21.1386 H   0  0  0  0  0  0  0  0  0  0  0  0
    7.7042   -0.1515   22.1656 C   0  0  0  0  0  0  0  0  0  0  0  0
    7.4766    1.1999   22.7355 C   0  0  0  0  0  0  0  0  0  0  0  0
    6.4432    1.1393   23.8730 C   0  0  0  0  0  0  0  0  0  0  0  0
    6.1922    2.5070   24.4285 C   0  0  0  0  0  0  0  0  0  0  0  0
    6.9780    3.0236   25.4689 C   0  0  0  0  0  0  0  0  0  0  0  0
    6.7928    4.3344   25.8926 C   0  0  0  0  0  0  0  0  0  0  0  0
    7.5523    4.8147   26.8924 F   0  0  0  0  0  0  0  0  0  0  0  0
    5.8415    5.1608   25.2997 C   0  0  0  0  0  0  0  0  0  0  0  0
    5.0676    4.6657   24.2432 C   0  0  0  0  0  0  0  0  0  0  0  0
    5.2560    3.3549   23.8212 C   0  0  0  0  0  0  0  0  0  0  0  0
    4.5223    2.8933   22.7841 F   0  0  0  0  0  0  0  0  0  0  0  0
    4.3287    5.2709   23.7276 H   0  0  0  0  0  0  0  0  0  0  0  0
    5.7309    6.1722   25.6703 H   0  0  0  0  0  0  0  0  0  0  0  0
    7.7487    2.4235   25.9447 H   0  0  0  0  0  0  0  0  0  0  0  0
    5.5077    0.7061   23.5020 H   0  0  0  0  0  0  0  0  0  0  0  0
    6.8182    0.4606   24.6461 H   0  0  0  0  0  0  0  0  0  0  0  0
    8.4234    1.5863   23.1267 H   0  0  0  0  0  0  0  0  0  0  0  0
    7.1611    1.9063   21.9647 H   0  0  0  0  0  0  0  0  0  0  0  0
    8.2583   -1.1458   22.8417 N   0  0  0  0  0  0  0  0  0  0  0  0
    9.1281   -3.7547   21.1396 H   0  0  0  0  0  0  0  0  0  0  0  0
    9.6757   -3.4488   22.8000 H   0  0  0  0  0  0  0  0  0  0  0  0
    8.3623   -5.5516   22.6625 H   0  0  0  0  0  0  0  0  0  0  0  0
    7.0375   -4.7439   21.8593 H   0  0  0  0  0  0  0  0  0  0  0  0
    7.9045   -4.2437   24.7693 H   0  0  0  0  0  0  0  0  0  0  0  0
    6.4315   -5.0698   24.2366 H   0  0  0  0  0  0  0  0  0  0  0  0
    6.6289   -3.3354   23.9356 H   0  0  0  0  0  0  0  0  0  0  0  0
  1  2  1  0
  2  3  1  0
  3  4  1  0
  4  5  2  0
  5  6  1  0
  6  7  1  0
  7  8  2  0
  8  9  1  0
  9 10  2  0
 10 11  1  0
 11 12  2  0
 12 13  1  0
 10 14  1  0
  9 15  1  0
  8 16  1  0
  6 17  1  0
 17 18  1  0
 18 19  1  0
 19 20  1  0
 20 21  2  0
 21 22  1  0
 22 23  1  0
 22 24  2  0
 24 25  1  0
 25 26  2  0
 26 27  1  0
 25 28  1  0
 24 29  1  0
 21 30  1  0
 19 31  1  0
 19 32  1  0
 18 33  1  0
 18 34  1  0
 17 35  2  0
  3 36  1  0
  3 37  1  0
  2 38  1  0
  2 39  1  0
  1 40  1  0
  1 41  1  0
  1 42  1  0
 35  4  1  0
 12  7  1  0
 26 20  1  0
M  END
>  <cnnaffinity>  (1) 
-5.63295

>  <filename>  (1) 
CCCc1nc(CCc2cc(F)ccc2F)n(-c2cccnc2)n1

$$$$
