
     RDKit          3D

 43 45  0  0  0  0  0  0  0  0999 V2000
    8.3113   -5.8242   23.1799 C   0  0  0  0  0  0  0  0  0  0  0  0
    7.6321   -4.4735   22.9594 C   0  0  0  0  0  0  0  0  0  0  0  0
    8.5512   -3.5554   22.1338 C   0  0  0  0  0  0  0  0  0  0  0  0
    8.0565   -2.1704   21.9226 C   0  0  0  0  0  0  0  0  0  0  0  0
    7.6451   -1.7662   20.7445 N   0  0  0  0  0  0  0  0  0  0  0  0
    7.1984   -0.5087   20.9791 N   0  0  0  0  0  0  0  0  0  0  0  0
    6.5529    0.1790   19.9171 C   0  0  0  0  0  0  0  0  0  0  0  0
    5.3403    0.8613   20.0760 C   0  0  0  0  0  0  0  0  0  0  0  0
    4.7666    1.4464   18.9410 C   0  0  0  0  0  0  0  0  0  0  0  0
    5.4291    1.3472   17.7131 C   0  0  0  0  0  0  0  0  0  0  0  0
    6.5896    0.6824   17.5557 N   0  0  0  0  0  0  0  0  0  0  0  0
    7.1181    0.0939   18.6304 C   0  0  0  0  0  0  0  0  0  0  0  0
    8.0238   -0.4952   18.4879 H   0  0  0  0  0  0  0  0  0  0  0  0
    5.0161    1.8018   16.8158 H   0  0  0  0  0  0  0  0  0  0  0  0
    3.8277    1.9881   19.0027 H   0  0  0  0  0  0  0  0  0  0  0  0
    4.8513    0.9136   21.0503 H   0  0  0  0  0  0  0  0  0  0  0  0
    7.4372   -0.1959   22.2917 C   0  0  0  0  0  0  0  0  0  0  0  0
    7.2129    1.1133   22.9852 C   0  0  0  0  0  0  0  0  0  0  0  0
    8.5151    1.7036   23.5272 C   0  0  0  0  0  0  0  0  0  0  0  0
    9.4231    2.3522   22.6837 C   0  0  0  0  0  0  0  0  0  0  0  0
    8.9932    2.5917   21.0191 Cl  0  0  0  0  0  0  0  0  0  0  0  0
   10.6935    2.7676   23.0998 C   0  0  0  0  0  0  0  0  0  0  0  0
   11.0926    2.4701   24.3998 C   0  0  0  0  0  0  0  0  0  0  0  0
   10.2173    1.8440   25.2897 C   0  0  0  0  0  0  0  0  0  0  0  0
    8.9207    1.5080   24.8726 C   0  0  0  0  0  0  0  0  0  0  0  0
    7.9927    0.9731   25.7082 O   0  0  0  0  0  0  0  0  0  0  0  0
    8.3129    0.6621   27.0523 C   0  0  0  0  0  0  0  0  0  0  0  0
    9.2074    0.0280   27.1352 H   0  0  0  0  0  0  0  0  0  0  0  0
    8.4457    1.5664   27.6609 H   0  0  0  0  0  0  0  0  0  0  0  0
    7.4536    0.1076   27.4270 H   0  0  0  0  0  0  0  0  0  0  0  0
   10.5227    1.6155   26.3022 H   0  0  0  0  0  0  0  0  0  0  0  0
   12.0985    2.7135   24.7216 H   0  0  0  0  0  0  0  0  0  0  0  0
   11.3376    3.3011   22.4060 H   0  0  0  0  0  0  0  0  0  0  0  0
    6.5306    0.9282   23.8194 H   0  0  0  0  0  0  0  0  0  0  0  0
    6.7476    1.8214   22.2971 H   0  0  0  0  0  0  0  0  0  0  0  0
    7.9570   -1.2423   22.9068 N   0  0  0  0  0  0  0  0  0  0  0  0
    9.5373   -3.4946   22.6087 H   0  0  0  0  0  0  0  0  0  0  0  0
    8.6829   -3.9782   21.1343 H   0  0  0  0  0  0  0  0  0  0  0  0
    6.6695   -4.6059   22.4439 H   0  0  0  0  0  0  0  0  0  0  0  0
    7.3963   -4.0024   23.9238 H   0  0  0  0  0  0  0  0  0  0  0  0
    8.7427   -6.2074   22.2462 H   0  0  0  0  0  0  0  0  0  0  0  0
    7.6097   -6.5691   23.5559 H   0  0  0  0  0  0  0  0  0  0  0  0
    9.1276   -5.7415   23.9066 H   0  0  0  0  0  0  0  0  0  0  0  0
  1  2  1  0
  2  3  1  0
  3  4  1  0
  4  5  2  0
  5  6  1  0
  6  7  1  0
  7  8  2  0
  8  9  1  0
  9 10  2  0
 10 11  1  0
 11 12  2  0
 12 13  1  0
 10 14  1  0
  9 15  1  0
  8 16  1  0
  6 17  1  0
 17 18  1  0
 18 19  1  0
 19 20  2  0
 20 21  1  0
 20 22  1  0
 22 23  2  0
 23 24  1  0
 24 25  2  0
 25 26  1  0
 26 27  1  0
 27 28  1  0
 27 29  1  0
 27 30  1  0
 24 31  1  0
 23 32  1  0
 22 33  1  0
 18 34  1  0
 18 35  1  0
 17 36  2  0
  3 37  1  0
  3 38  1  0
  2 39  1  0
  2 40  1  0
  1 41  1  0
  1 42  1  0
  1 43  1  0
 36  4  1  0
 12  7  1  0
 25 19  1  0
M  END
>  <cnnaffinity>  (1) 
-6.05883

>  <filename>  (1) 
CCCc1nc(Cc2c(Cl)cccc2OC)n(-c2cccnc2)n1

$$$$
