
     RDKit          3D

 35 37  0  0  0  0  0  0  0  0999 V2000
    6.9430   -4.9967   21.9428 C   0  0  0  0  0  0  0  0  0  0  0  0
    8.0845   -4.5563   22.8665 C   0  0  0  0  0  0  0  0  0  0  0  0
    8.9360   -3.4879   22.1543 C   0  0  0  0  0  0  0  0  0  0  0  0
    8.2725   -2.1871   21.9468 C   0  0  0  0  0  0  0  0  0  0  0  0
    7.8880   -1.8277   20.7424 N   0  0  0  0  0  0  0  0  0  0  0  0
    7.3389   -0.6166   20.9499 N   0  0  0  0  0  0  0  0  0  0  0  0
    6.6389    0.0201   19.9032 C   0  0  0  0  0  0  0  0  0  0  0  0
    5.4275    0.6614   20.1527 C   0  0  0  0  0  0  0  0  0  0  0  0
    4.8081    1.3065   19.0817 C   0  0  0  0  0  0  0  0  0  0  0  0
    5.4263    1.2859   17.8249 C   0  0  0  0  0  0  0  0  0  0  0  0
    6.5762    0.6344   17.5803 N   0  0  0  0  0  0  0  0  0  0  0  0
    7.1637    0.0029   18.5982 C   0  0  0  0  0  0  0  0  0  0  0  0
    8.1019   -0.5043   18.3812 H   0  0  0  0  0  0  0  0  0  0  0  0
    4.9867    1.8163   16.9843 H   0  0  0  0  0  0  0  0  0  0  0  0
    3.8773    1.8450   19.2200 H   0  0  0  0  0  0  0  0  0  0  0  0
    5.0048    0.6653   21.1592 H   0  0  0  0  0  0  0  0  0  0  0  0
    7.4808   -0.2909   22.2665 C   0  0  0  0  0  0  0  0  0  0  0  0
    7.0693    0.9897   22.8809 C   0  0  0  0  0  0  0  0  0  0  0  0
    6.2101    0.9639   23.9915 C   0  0  0  0  0  0  0  0  0  0  0  0
    5.7884    2.1617   24.5662 C   0  0  0  0  0  0  0  0  0  0  0  0
    6.1795    3.3635   24.1122 N   0  0  0  0  0  0  0  0  0  0  0  0
    7.0170    3.4054   23.0676 C   0  0  0  0  0  0  0  0  0  0  0  0
    7.4948    2.2542   22.4240 C   0  0  0  0  0  0  0  0  0  0  0  0
    8.6133    2.4201   21.1083 Cl  0  0  0  0  0  0  0  0  0  0  0  0
    7.3294    4.3890   22.7170 H   0  0  0  0  0  0  0  0  0  0  0  0
    5.1174    2.1577   25.4244 H   0  0  0  0  0  0  0  0  0  0  0  0
    5.8958    0.0009   24.3888 H   0  0  0  0  0  0  0  0  0  0  0  0
    8.0455   -1.2875   22.9247 N   0  0  0  0  0  0  0  0  0  0  0  0
    9.0966   -3.7893   21.1228 H   0  0  0  0  0  0  0  0  0  0  0  0
    9.9007   -3.2992   22.6422 H   0  0  0  0  0  0  0  0  0  0  0  0
    7.7012   -4.1793   23.8263 H   0  0  0  0  0  0  0  0  0  0  0  0
    8.7364   -5.4031   23.1216 H   0  0  0  0  0  0  0  0  0  0  0  0
    6.2992   -5.7647   22.3849 H   0  0  0  0  0  0  0  0  0  0  0  0
    6.3075   -4.1491   21.6545 H   0  0  0  0  0  0  0  0  0  0  0  0
    7.3607   -5.4061   21.0142 H   0  0  0  0  0  0  0  0  0  0  0  0
  1  2  1  0
  2  3  1  0
  3  4  1  0
  4  5  2  0
  5  6  1  0
  6  7  1  0
  7  8  2  0
  8  9  1  0
  9 10  2  0
 10 11  1  0
 11 12  2  0
 12 13  1  0
 10 14  1  0
  9 15  1  0
  8 16  1  0
  6 17  1  0
 17 18  1  0
 18 19  2  0
 19 20  1  0
 20 21  2  0
 21 22  1  0
 22 23  2  0
 23 24  1  0
 22 25  1  0
 20 26  1  0
 19 27  1  0
 17 28  2  0
  3 29  1  0
  3 30  1  0
  2 31  1  0
  2 32  1  0
  1 33  1  0
  1 34  1  0
  1 35  1  0
 28  4  1  0
 12  7  1  0
 23 18  1  0
M  END
>  <cnnaffinity>  (1) 
-4.95396

>  <filename>  (1) 
CCCc1nc(-c2ccncc2Cl)n(-c2cccnc2)n1

$$$$
