
     RDKit          3D

 41 43  0  0  0  0  0  0  0  0999 V2000
    6.6106   -4.7349   22.7490 C   0  0  0  0  0  0  0  0  0  0  0  0
    7.9756   -4.3532   23.3119 C   0  0  0  0  0  0  0  0  0  0  0  0
    8.7638   -3.5495   22.2719 C   0  0  0  0  0  0  0  0  0  0  0  0
    8.2154   -2.1929   21.9893 C   0  0  0  0  0  0  0  0  0  0  0  0
    7.7191   -1.8796   20.8130 N   0  0  0  0  0  0  0  0  0  0  0  0
    7.3414   -0.5872   20.9735 N   0  0  0  0  0  0  0  0  0  0  0  0
    6.6426    0.0601   19.9190 C   0  0  0  0  0  0  0  0  0  0  0  0
    5.4382    0.7373   20.1343 C   0  0  0  0  0  0  0  0  0  0  0  0
    4.8391    1.3666   19.0380 C   0  0  0  0  0  0  0  0  0  0  0  0
    5.4658    1.3039   17.7887 C   0  0  0  0  0  0  0  0  0  0  0  0
    6.6008    0.6144   17.5708 N   0  0  0  0  0  0  0  0  0  0  0  0
    7.1558   -0.0143   18.6111 C   0  0  0  0  0  0  0  0  0  0  0  0
    8.0459   -0.6084   18.4129 H   0  0  0  0  0  0  0  0  0  0  0  0
    5.0339    1.8029   16.9242 H   0  0  0  0  0  0  0  0  0  0  0  0
    3.8950    1.8902   19.1411 H   0  0  0  0  0  0  0  0  0  0  0  0
    4.9656    0.7319   21.1188 H   0  0  0  0  0  0  0  0  0  0  0  0
    7.7059   -0.1640   22.2218 C   0  0  0  0  0  0  0  0  0  0  0  0
    7.6560    1.2690   22.6827 C   0  0  0  0  0  0  0  0  0  0  0  0
    8.6130    2.2380   21.9237 C   0  0  0  0  0  0  0  0  0  0  0  0
    8.4959    3.6866   22.3460 C   0  0  0  0  0  0  0  0  0  0  0  0
    9.4248    4.1652   23.1291 N   0  0  0  0  0  0  0  0  0  0  0  0
    9.3286    5.4813   23.4674 N   0  0  0  0  0  0  0  0  0  0  0  0
    8.3862    6.4232   23.0632 C   0  0  0  0  0  0  0  0  0  0  0  0
    8.5012    7.5840   23.4187 O   0  0  0  0  0  0  0  0  0  0  0  0
    7.3167    5.8290   22.2509 C   0  0  0  0  0  0  0  0  0  0  0  0
    7.3733    4.5105   21.9142 C   0  0  0  0  0  0  0  0  0  0  0  0
    6.5941    4.0525   21.3078 H   0  0  0  0  0  0  0  0  0  0  0  0
    6.5371    6.5127   21.9275 H   0  0  0  0  0  0  0  0  0  0  0  0
   10.0686    5.8839   24.0272 H   0  0  0  0  0  0  0  0  0  0  0  0
    9.6502    1.9164   22.0700 H   0  0  0  0  0  0  0  0  0  0  0  0
    8.4098    2.1783   20.8492 H   0  0  0  0  0  0  0  0  0  0  0  0
    6.6232    1.6265   22.5846 H   0  0  0  0  0  0  0  0  0  0  0  0
    7.9051    1.2625   23.7498 H   0  0  0  0  0  0  0  0  0  0  0  0
    8.2266   -1.1770   22.8936 N   0  0  0  0  0  0  0  0  0  0  0  0
    8.7327   -4.0767   21.3163 H   0  0  0  0  0  0  0  0  0  0  0  0
    9.8053   -3.4183   22.5801 H   0  0  0  0  0  0  0  0  0  0  0  0
    8.5442   -5.2525   23.5786 H   0  0  0  0  0  0  0  0  0  0  0  0
    7.8813   -3.7657   24.2348 H   0  0  0  0  0  0  0  0  0  0  0  0
    6.0162   -5.3095   23.4652 H   0  0  0  0  0  0  0  0  0  0  0  0
    6.0441   -3.8428   22.4574 H   0  0  0  0  0  0  0  0  0  0  0  0
    6.7274   -5.3473   21.8453 H   0  0  0  0  0  0  0  0  0  0  0  0
  1  2  1  0
  2  3  1  0
  3  4  1  0
  4  5  2  0
  5  6  1  0
  6  7  1  0
  7  8  2  0
  8  9  1  0
  9 10  2  0
 10 11  1  0
 11 12  2  0
 12 13  1  0
 10 14  1  0
  9 15  1  0
  8 16  1  0
  6 17  1  0
 17 18  1  0
 18 19  1  0
 19 20  1  0
 20 21  2  0
 21 22  1  0
 22 23  1  0
 23 24  2  0
 23 25  1  0
 25 26  2  0
 26 27  1  0
 25 28  1  0
 22 29  1  0
 19 30  1  0
 19 31  1  0
 18 32  1  0
 18 33  1  0
 17 34  2  0
  3 35  1  0
  3 36  1  0
  2 37  1  0
  2 38  1  0
  1 39  1  0
  1 40  1  0
  1 41  1  0
 34  4  1  0
 12  7  1  0
 26 20  1  0
M  END
>  <cnnaffinity>  (1) 
-5.25587

>  <filename>  (1) 
CCCc1nc(CCc2ccc(=O)[nH]n2)n(-c2cccnc2)n1

$$$$
