
     RDKit          3D

 41 43  0  0  0  0  0  0  0  0999 V2000
    8.5267   -5.6771   23.3322 C   0  0  0  0  0  0  0  0  0  0  0  0
    7.8198   -4.3522   23.0688 C   0  0  0  0  0  0  0  0  0  0  0  0
    8.7305   -3.4745   22.2161 C   0  0  0  0  0  0  0  0  0  0  0  0
    8.1906   -2.1054   21.9763 C   0  0  0  0  0  0  0  0  0  0  0  0
    7.7133   -1.8361   20.7927 N   0  0  0  0  0  0  0  0  0  0  0  0
    7.3388   -0.5577   20.9193 N   0  0  0  0  0  0  0  0  0  0  0  0
    6.6715    0.0963   19.8954 C   0  0  0  0  0  0  0  0  0  0  0  0
    5.4948    0.7929   20.1522 C   0  0  0  0  0  0  0  0  0  0  0  0
    4.8543    1.3901   19.0699 C   0  0  0  0  0  0  0  0  0  0  0  0
    5.4211    1.3054   17.7899 C   0  0  0  0  0  0  0  0  0  0  0  0
    6.5489    0.6142   17.5368 N   0  0  0  0  0  0  0  0  0  0  0  0
    7.1441   -0.0007   18.5743 C   0  0  0  0  0  0  0  0  0  0  0  0
    8.0487   -0.5716   18.3857 H   0  0  0  0  0  0  0  0  0  0  0  0
    4.9129    1.7878   16.9639 H   0  0  0  0  0  0  0  0  0  0  0  0
    3.9199    1.9212   19.2127 H   0  0  0  0  0  0  0  0  0  0  0  0
    5.0854    0.8357   21.1613 H   0  0  0  0  0  0  0  0  0  0  0  0
    7.6774   -0.0828   22.1814 C   0  0  0  0  0  0  0  0  0  0  0  0
    7.6129    1.3544   22.6187 C   0  0  0  0  0  0  0  0  0  0  0  0
    8.6426    2.1551   21.8108 C   0  0  0  0  0  0  0  0  0  0  0  0
   10.0232    1.6044   22.0890 C   0  0  0  0  0  0  0  0  0  0  0  0
   10.4475    0.3776   21.5554 C   0  0  0  0  0  0  0  0  0  0  0  0
   11.7301   -0.0765   21.8813 C   0  0  0  0  0  0  0  0  0  0  0  0
   12.3963   -1.7236   21.1674 Br  0  0  0  0  0  0  0  0  0  0  0  0
   12.5328    0.7046   22.7321 C   0  0  0  0  0  0  0  0  0  0  0  0
   12.1139    1.8648   23.2707 N   0  0  0  0  0  0  0  0  0  0  0  0
   10.8772    2.2949   22.9614 C   0  0  0  0  0  0  0  0  0  0  0  0
   10.5038    3.2099   23.4132 H   0  0  0  0  0  0  0  0  0  0  0  0
   13.5296    0.3558   22.9886 H   0  0  0  0  0  0  0  0  0  0  0  0
    9.7840   -0.2127   20.9218 H   0  0  0  0  0  0  0  0  0  0  0  0
    8.4190    2.0939   20.7374 H   0  0  0  0  0  0  0  0  0  0  0  0
    8.5880    3.2139   22.0966 H   0  0  0  0  0  0  0  0  0  0  0  0
    7.8459    1.4193   23.6886 H   0  0  0  0  0  0  0  0  0  0  0  0
    6.6115    1.7609   22.4455 H   0  0  0  0  0  0  0  0  0  0  0  0
    8.2031   -1.0505   22.8794 N   0  0  0  0  0  0  0  0  0  0  0  0
    9.7125   -3.3961   22.6869 H   0  0  0  0  0  0  0  0  0  0  0  0
    8.8368   -3.9531   21.2410 H   0  0  0  0  0  0  0  0  0  0  0  0
    6.8797   -4.5301   22.5378 H   0  0  0  0  0  0  0  0  0  0  0  0
    7.5865   -3.8646   24.0201 H   0  0  0  0  0  0  0  0  0  0  0  0
    7.8443   -6.3845   23.8058 H   0  0  0  0  0  0  0  0  0  0  0  0
    8.8802   -6.1157   22.3951 H   0  0  0  0  0  0  0  0  0  0  0  0
    9.3863   -5.5203   23.9920 H   0  0  0  0  0  0  0  0  0  0  0  0
  1  2  1  0
  2  3  1  0
  3  4  1  0
  4  5  2  0
  5  6  1  0
  6  7  1  0
  7  8  2  0
  8  9  1  0
  9 10  2  0
 10 11  1  0
 11 12  2  0
 12 13  1  0
 10 14  1  0
  9 15  1  0
  8 16  1  0
  6 17  1  0
 17 18  1  0
 18 19  1  0
 19 20  1  0
 20 21  2  0
 21 22  1  0
 22 23  1  0
 22 24  2  0
 24 25  1  0
 25 26  2  0
 26 27  1  0
 24 28  1  0
 21 29  1  0
 19 30  1  0
 19 31  1  0
 18 32  1  0
 18 33  1  0
 17 34  2  0
  3 35  1  0
  3 36  1  0
  2 37  1  0
  2 38  1  0
  1 39  1  0
  1 40  1  0
  1 41  1  0
 34  4  1  0
 12  7  1  0
 26 20  1  0
M  END
>  <cnnaffinity>  (1) 
-5.98995

>  <filename>  (1) 
CCCc1nc(CCc2cncc(Br)c2)n(-c2cccnc2)n1

$$$$
