
     RDKit          3D

 43 45  0  0  0  0  0  0  0  0999 V2000
    7.1761   -4.1629   24.2185 C   0  0  0  0  0  0  0  0  0  0  0  0
    7.6853   -4.5665   22.8336 C   0  0  0  0  0  0  0  0  0  0  0  0
    8.6083   -3.5317   22.1463 C   0  0  0  0  0  0  0  0  0  0  0  0
    8.0914   -2.1332   21.9726 C   0  0  0  0  0  0  0  0  0  0  0  0
    7.5966   -1.7702   20.8106 N   0  0  0  0  0  0  0  0  0  0  0  0
    7.2481   -0.4732   21.0015 N   0  0  0  0  0  0  0  0  0  0  0  0
    6.5803    0.2021   19.9446 C   0  0  0  0  0  0  0  0  0  0  0  0
    5.3820    0.9096   20.1081 C   0  0  0  0  0  0  0  0  0  0  0  0
    4.8022    1.4737   18.9646 C   0  0  0  0  0  0  0  0  0  0  0  0
    5.4419    1.3401   17.7301 C   0  0  0  0  0  0  0  0  0  0  0  0
    6.5908    0.6586   17.5712 N   0  0  0  0  0  0  0  0  0  0  0  0
    7.1241    0.0870   18.6514 C   0  0  0  0  0  0  0  0  0  0  0  0
    8.0249   -0.5044   18.5046 H   0  0  0  0  0  0  0  0  0  0  0  0
    5.0262    1.7894   16.8299 H   0  0  0  0  0  0  0  0  0  0  0  0
    3.8642    2.0143   19.0211 H   0  0  0  0  0  0  0  0  0  0  0  0
    4.8975    0.9832   21.0822 H   0  0  0  0  0  0  0  0  0  0  0  0
    7.6379   -0.0912   22.2527 C   0  0  0  0  0  0  0  0  0  0  0  0
    7.5996    1.3299   22.7340 C   0  0  0  0  0  0  0  0  0  0  0  0
    8.4973    2.3183   21.9186 C   0  0  0  0  0  0  0  0  0  0  0  0
    8.4058    3.7749   22.3263 C   0  0  0  0  0  0  0  0  0  0  0  0
    9.3166    4.2223   23.1940 N   0  0  0  0  0  0  0  0  0  0  0  0
    9.2343    5.4972   23.5892 C   0  0  0  0  0  0  0  0  0  0  0  0
   10.2182    5.9486   24.6272 C   0  0  0  0  0  0  0  0  0  0  0  0
   11.1427    5.3743   24.5289 H   0  0  0  0  0  0  0  0  0  0  0  0
   10.4117    7.0178   24.5256 H   0  0  0  0  0  0  0  0  0  0  0  0
    9.7939    5.7745   25.6238 H   0  0  0  0  0  0  0  0  0  0  0  0
    8.3089    6.3708   23.1872 N   0  0  0  0  0  0  0  0  0  0  0  0
    7.4046    5.9181   22.3187 C   0  0  0  0  0  0  0  0  0  0  0  0
    7.3948    4.6116   21.8481 C   0  0  0  0  0  0  0  0  0  0  0  0
    6.6208    4.2676   21.1744 H   0  0  0  0  0  0  0  0  0  0  0  0
    6.6616    6.6469   21.9928 H   0  0  0  0  0  0  0  0  0  0  0  0
    8.2501    2.2339   20.8525 H   0  0  0  0  0  0  0  0  0  0  0  0
    9.5447    2.0267   22.0457 H   0  0  0  0  0  0  0  0  0  0  0  0
    7.9041    1.3125   23.7838 H   0  0  0  0  0  0  0  0  0  0  0  0
    6.5575    1.6668   22.7190 H   0  0  0  0  0  0  0  0  0  0  0  0
    8.1403   -1.1372   22.8994 N   0  0  0  0  0  0  0  0  0  0  0  0
    8.8169   -3.8791   21.1304 H   0  0  0  0  0  0  0  0  0  0  0  0
    9.5660   -3.4700   22.6766 H   0  0  0  0  0  0  0  0  0  0  0  0
    6.8348   -4.7983   22.1769 H   0  0  0  0  0  0  0  0  0  0  0  0
    8.2589   -5.5011   22.9136 H   0  0  0  0  0  0  0  0  0  0  0  0
    8.0025   -4.0809   24.9352 H   0  0  0  0  0  0  0  0  0  0  0  0
    6.4709   -4.9060   24.6120 H   0  0  0  0  0  0  0  0  0  0  0  0
    6.6644   -3.1931   24.1936 H   0  0  0  0  0  0  0  0  0  0  0  0
  1  2  1  0
  2  3  1  0
  3  4  1  0
  4  5  2  0
  5  6  1  0
  6  7  1  0
  7  8  2  0
  8  9  1  0
  9 10  2  0
 10 11  1  0
 11 12  2  0
 12 13  1  0
 10 14  1  0
  9 15  1  0
  8 16  1  0
  6 17  1  0
 17 18  1  0
 18 19  1  0
 19 20  1  0
 20 21  2  0
 21 22  1  0
 22 23  1  0
 23 24  1  0
 23 25  1  0
 23 26  1  0
 22 27  2  0
 27 28  1  0
 28 29  2  0
 29 30  1  0
 28 31  1  0
 19 32  1  0
 19 33  1  0
 18 34  1  0
 18 35  1  0
 17 36  2  0
  3 37  1  0
  3 38  1  0
  2 39  1  0
  2 40  1  0
  1 41  1  0
  1 42  1  0
  1 43  1  0
 36  4  1  0
 12  7  1  0
 29 20  1  0
M  END
>  <cnnaffinity>  (1) 
-5.53982

>  <filename>  (1) 
CCCc1nc(CCc2ccnc(C)n2)n(-c2cccnc2)n1

$$$$
