
     RDKit          3D

 45 47  0  0  0  0  0  0  0  0999 V2000
    8.4731   -5.7275   23.3875 C   0  0  0  0  0  0  0  0  0  0  0  0
    7.7670   -4.3953   23.1331 C   0  0  0  0  0  0  0  0  0  0  0  0
    8.6228   -3.4786   22.2463 C   0  0  0  0  0  0  0  0  0  0  0  0
    8.1008   -2.0981   22.0124 C   0  0  0  0  0  0  0  0  0  0  0  0
    7.7912   -1.7129   20.7940 N   0  0  0  0  0  0  0  0  0  0  0  0
    7.3560   -0.4447   20.9720 N   0  0  0  0  0  0  0  0  0  0  0  0
    6.6436    0.1799   19.9148 C   0  0  0  0  0  0  0  0  0  0  0  0
    5.4274    0.8441   20.1149 C   0  0  0  0  0  0  0  0  0  0  0  0
    4.8114    1.4174   18.9977 C   0  0  0  0  0  0  0  0  0  0  0  0
    5.4353    1.3247   17.7486 C   0  0  0  0  0  0  0  0  0  0  0  0
    6.5898    0.6605   17.5517 N   0  0  0  0  0  0  0  0  0  0  0  0
    7.1592    0.0804   18.6111 C   0  0  0  0  0  0  0  0  0  0  0  0
    8.0618   -0.5034   18.4256 H   0  0  0  0  0  0  0  0  0  0  0  0
    4.9916    1.7778   16.8666 H   0  0  0  0  0  0  0  0  0  0  0  0
    3.8614    1.9344   19.0861 H   0  0  0  0  0  0  0  0  0  0  0  0
    4.9651    0.8811   21.1040 H   0  0  0  0  0  0  0  0  0  0  0  0
    7.5316   -0.0932   22.2825 C   0  0  0  0  0  0  0  0  0  0  0  0
    7.5506    1.3519   22.6977 C   0  0  0  0  0  0  0  0  0  0  0  0
    8.5325    2.2064   21.8522 C   0  0  0  0  0  0  0  0  0  0  0  0
    9.9619    1.7298   22.0100 C   0  0  0  0  0  0  0  0  0  0  0  0
   10.3804    0.6085   21.2766 C   0  0  0  0  0  0  0  0  0  0  0  0
   11.6372    0.0385   21.4897 C   0  0  0  0  0  0  0  0  0  0  0  0
   12.5169    0.6140   22.4093 C   0  0  0  0  0  0  0  0  0  0  0  0
   12.1111    1.7361   23.1310 C   0  0  0  0  0  0  0  0  0  0  0  0
   10.8368    2.2944   22.9634 C   0  0  0  0  0  0  0  0  0  0  0  0
   10.4180    3.4472   23.8413 C   0  0  0  0  0  0  0  0  0  0  0  0
   10.0729    4.3154   23.2679 H   0  0  0  0  0  0  0  0  0  0  0  0
   11.2338    3.7818   24.4872 H   0  0  0  0  0  0  0  0  0  0  0  0
    9.5924    3.1356   24.4912 H   0  0  0  0  0  0  0  0  0  0  0  0
   12.8012    2.1914   23.8366 H   0  0  0  0  0  0  0  0  0  0  0  0
   13.5202    0.2166   22.5666 H   0  0  0  0  0  0  0  0  0  0  0  0
   11.9269   -0.8473   20.9317 H   0  0  0  0  0  0  0  0  0  0  0  0
    9.6773    0.1751   20.5593 H   0  0  0  0  0  0  0  0  0  0  0  0
    8.4306    3.2680   22.1046 H   0  0  0  0  0  0  0  0  0  0  0  0
    8.2396    2.1416   20.7998 H   0  0  0  0  0  0  0  0  0  0  0  0
    6.5504    1.7799   22.6118 H   0  0  0  0  0  0  0  0  0  0  0  0
    7.8423    1.3868   23.7526 H   0  0  0  0  0  0  0  0  0  0  0  0
    7.9396   -1.1452   22.9739 N   0  0  0  0  0  0  0  0  0  0  0  0
    8.7334   -3.9273   21.2561 H   0  0  0  0  0  0  0  0  0  0  0  0
    9.6262   -3.3874   22.6785 H   0  0  0  0  0  0  0  0  0  0  0  0
    7.5567   -3.8876   24.0830 H   0  0  0  0  0  0  0  0  0  0  0  0
    6.7946   -4.5733   22.6546 H   0  0  0  0  0  0  0  0  0  0  0  0
    7.8110   -6.4398   23.8826 H   0  0  0  0  0  0  0  0  0  0  0  0
    8.8139   -6.1874   22.4510 H   0  0  0  0  0  0  0  0  0  0  0  0
    9.3514   -5.5991   24.0312 H   0  0  0  0  0  0  0  0  0  0  0  0
  1  2  1  0
  2  3  1  0
  3  4  1  0
  4  5  2  0
  5  6  1  0
  6  7  1  0
  7  8  2  0
  8  9  1  0
  9 10  2  0
 10 11  1  0
 11 12  2  0
 12 13  1  0
 10 14  1  0
  9 15  1  0
  8 16  1  0
  6 17  1  0
 17 18  1  0
 18 19  1  0
 19 20  1  0
 20 21  2  0
 21 22  1  0
 22 23  2  0
 23 24  1  0
 24 25  2  0
 25 26  1  0
 26 27  1  0
 26 28  1  0
 26 29  1  0
 24 30  1  0
 23 31  1  0
 22 32  1  0
 21 33  1  0
 19 34  1  0
 19 35  1  0
 18 36  1  0
 18 37  1  0
 17 38  2  0
  3 39  1  0
  3 40  1  0
  2 41  1  0
  2 42  1  0
  1 43  1  0
  1 44  1  0
  1 45  1  0
 38  4  1  0
 12  7  1  0
 25 20  1  0
M  END
>  <cnnaffinity>  (1) 
-5.78246

>  <filename>  (1) 
CCCc1nc(CCc2ccccc2C)n(-c2cccnc2)n1

$$$$
