
     RDKit          3D

 45 47  0  0  0  0  0  0  0  0999 V2000
    8.5051   -6.1099   25.8685 C   0  0  0  0  0  0  0  0  0  0  0  0
    9.0413   -5.4934   24.5694 C   0  0  0  0  0  0  0  0  0  0  0  0
    8.2588   -4.2486   24.1362 C   0  0  0  0  0  0  0  0  0  0  0  0
    8.7469   -3.5393   22.8559 C   0  0  0  0  0  0  0  0  0  0  0  0
   10.2041   -3.0306   22.9571 C   0  0  0  0  0  0  0  0  0  0  0  0
   10.8920   -3.8329   23.2195 H   0  0  0  0  0  0  0  0  0  0  0  0
   10.5493   -2.5914   22.0103 H   0  0  0  0  0  0  0  0  0  0  0  0
   10.2838   -2.2686   23.7425 H   0  0  0  0  0  0  0  0  0  0  0  0
    7.8468   -2.3684   22.5601 C   0  0  0  0  0  0  0  0  0  0  0  0
    7.4546   -2.0238   21.3545 N   0  0  0  0  0  0  0  0  0  0  0  0
    6.9058   -0.7862   21.5514 N   0  0  0  0  0  0  0  0  0  0  0  0
    6.4560   -0.0362   20.4318 C   0  0  0  0  0  0  0  0  0  0  0  0
    5.3302    0.7982   20.4840 C   0  0  0  0  0  0  0  0  0  0  0  0
    4.9598    1.4762   19.3173 C   0  0  0  0  0  0  0  0  0  0  0  0
    5.7125    1.3007   18.1548 C   0  0  0  0  0  0  0  0  0  0  0  0
    6.8006    0.5130   18.1032 N   0  0  0  0  0  0  0  0  0  0  0  0
    7.1592   -0.1333   19.2148 C   0  0  0  0  0  0  0  0  0  0  0  0
    8.0519   -0.7550   19.1467 H   0  0  0  0  0  0  0  0  0  0  0  0
    5.4428    1.8030   17.2283 H   0  0  0  0  0  0  0  0  0  0  0  0
    4.1076    2.1480   19.3040 H   0  0  0  0  0  0  0  0  0  0  0  0
    4.7626    0.9122   21.4074 H   0  0  0  0  0  0  0  0  0  0  0  0
    7.0474   -0.4416   22.8678 C   0  0  0  0  0  0  0  0  0  0  0  0
    7.0118    0.9807   23.3746 C   0  0  0  0  0  0  0  0  0  0  0  0
    8.0180    1.8354   22.6316 C   0  0  0  0  0  0  0  0  0  0  0  0
    7.7795    2.8053   21.6947 C   0  0  0  0  0  0  0  0  0  0  0  0
    8.9491    2.9829   21.0380 N   0  0  0  0  0  0  0  0  0  0  0  0
    9.9511    2.2192   21.5010 N   0  0  0  0  0  0  0  0  0  0  0  0
    9.4041    1.5416   22.5022 C   0  0  0  0  0  0  0  0  0  0  0  0
   10.1744    0.5139   23.2630 C   0  0  0  0  0  0  0  0  0  0  0  0
   11.1852    0.8436   23.5082 H   0  0  0  0  0  0  0  0  0  0  0  0
    9.6442    0.2362   24.1795 H   0  0  0  0  0  0  0  0  0  0  0  0
   10.2574   -0.3847   22.6442 H   0  0  0  0  0  0  0  0  0  0  0  0
    9.1233    3.5815   20.2497 H   0  0  0  0  0  0  0  0  0  0  0  0
    6.8824    3.3639   21.4694 H   0  0  0  0  0  0  0  0  0  0  0  0
    7.2571    0.9510   24.4420 H   0  0  0  0  0  0  0  0  0  0  0  0
    6.0011    1.3821   23.2695 H   0  0  0  0  0  0  0  0  0  0  0  0
    7.5739   -1.4503   23.5330 N   0  0  0  0  0  0  0  0  0  0  0  0
    8.6565   -4.2073   21.9951 H   0  0  0  0  0  0  0  0  0  0  0  0
    8.2632   -3.5109   24.9514 H   0  0  0  0  0  0  0  0  0  0  0  0
    7.2041   -4.5329   23.9954 H   0  0  0  0  0  0  0  0  0  0  0  0
    8.9908   -6.2466   23.7709 H   0  0  0  0  0  0  0  0  0  0  0  0
   10.1043   -5.2506   24.7076 H   0  0  0  0  0  0  0  0  0  0  0  0
    7.4634   -6.4358   25.7554 H   0  0  0  0  0  0  0  0  0  0  0  0
    8.5365   -5.3932   26.7002 H   0  0  0  0  0  0  0  0  0  0  0  0
    9.0922   -6.9863   26.1671 H   0  0  0  0  0  0  0  0  0  0  0  0
  1  2  1  0
  2  3  1  0
  3  4  1  0
  4  5  1  0
  5  6  1  0
  5  7  1  0
  5  8  1  0
  4  9  1  0
  9 10  2  0
 10 11  1  0
 11 12  1  0
 12 13  2  0
 13 14  1  0
 14 15  2  0
 15 16  1  0
 16 17  2  0
 17 18  1  0
 15 19  1  0
 14 20  1  0
 13 21  1  0
 11 22  1  0
 22 23  1  0
 23 24  1  0
 24 25  2  0
 25 26  1  0
 26 27  1  0
 27 28  2  0
 28 29  1  0
 29 30  1  0
 29 31  1  0
 29 32  1  0
 26 33  1  0
 25 34  1  0
 23 35  1  0
 23 36  1  0
 22 37  2  0
  4 38  1  0
  3 39  1  0
  3 40  1  0
  2 41  1  0
  2 42  1  0
  1 43  1  0
  1 44  1  0
  1 45  1  0
 37  9  1  0
 17 12  1  0
 28 24  1  0
M  END
>  <cnnaffinity>  (1) 
-5.95502

>  <filename>  (1) 
CCCC(C)c1nc(Cc2c[nH]nc2C)n(-c2cccnc2)n1

$$$$
