
     RDKit          3D

 41 41  0  0  0  0  0  0  0  0999 V2000
    4.9301    1.8364   16.9675 H   0  0  0  0  0  0  0  0  0  0  0  0
    5.3866    1.3101   17.8052 C   0  0  0  0  0  0  0  0  0  0  0  0
    6.5459    0.6836   17.5496 N   0  0  0  0  0  0  0  0  0  0  0  0
    7.1434    0.0462   18.5638 C   0  0  0  0  0  0  0  0  0  0  0  0
    8.0955   -0.4271   18.3117 H   0  0  0  0  0  0  0  0  0  0  0  0
    6.6285   -0.0326   19.8721 C   0  0  0  0  0  0  0  0  0  0  0  0
    7.3992   -0.6960   20.9978 C   0  0  0  0  0  0  0  0  0  0  0  0
    6.6967   -1.1159   21.7316 H   0  0  0  0  0  0  0  0  0  0  0  0
    7.9686   -1.5495   20.6038 H   0  0  0  0  0  0  0  0  0  0  0  0
    8.3648    0.2683   21.7060 C   0  0  0  0  0  0  0  0  0  0  0  0
    9.0685    0.6771   20.9630 H   0  0  0  0  0  0  0  0  0  0  0  0
    7.7916    1.1237   22.0978 H   0  0  0  0  0  0  0  0  0  0  0  0
    9.1480   -0.3983   22.8444 C   0  0  0  0  0  0  0  0  0  0  0  0
    8.4472   -0.7404   23.6253 H   0  0  0  0  0  0  0  0  0  0  0  0
    9.6439   -1.3063   22.4689 H   0  0  0  0  0  0  0  0  0  0  0  0
   10.2067    0.5186   23.4741 C   0  0  0  0  0  0  0  0  0  0  0  0
   10.9630    0.7746   22.7176 H   0  0  0  0  0  0  0  0  0  0  0  0
   10.7469   -0.0405   24.2509 H   0  0  0  0  0  0  0  0  0  0  0  0
    9.6466    1.8226   24.0717 C   0  0  0  0  0  0  0  0  0  0  0  0
   10.4713    2.3621   24.5600 H   0  0  0  0  0  0  0  0  0  0  0  0
    9.2977    2.4821   23.2629 H   0  0  0  0  0  0  0  0  0  0  0  0
    8.5165    1.6323   25.0970 C   0  0  0  0  0  0  0  0  0  0  0  0
    7.6242    1.2150   24.6045 H   0  0  0  0  0  0  0  0  0  0  0  0
    8.2092    2.6160   25.4695 H   0  0  0  0  0  0  0  0  0  0  0  0
    8.9357    0.7687   26.2912 C   0  0  0  0  0  0  0  0  0  0  0  0
    9.1582   -0.2485   25.9402 H   0  0  0  0  0  0  0  0  0  0  0  0
    9.8999    1.1601   26.6458 H   0  0  0  0  0  0  0  0  0  0  0  0
    7.8998    0.6616   27.4256 C   0  0  0  0  0  0  0  0  0  0  0  0
    6.9677    0.2777   26.9864 H   0  0  0  0  0  0  0  0  0  0  0  0
    8.2356   -0.1080   28.1334 H   0  0  0  0  0  0  0  0  0  0  0  0
    7.5976    1.9370   28.2248 C   0  0  0  0  0  0  0  0  0  0  0  0
    8.5187    2.2793   28.6969 H   0  0  0  0  0  0  0  0  0  0  0  0
    7.2703    2.7439   27.5581 H   0  0  0  0  0  0  0  0  0  0  0  0
    6.6005    1.7516   29.3729 C   0  0  0  0  0  0  0  0  0  0  0  0
    6.4779    2.6869   29.9277 H   0  0  0  0  0  0  0  0  0  0  0  0
    5.5998    1.4256   29.0652 H   0  0  0  0  0  0  0  0  0  0  0  0
    6.9834    1.0115   30.0831 H   0  0  0  0  0  0  0  0  0  0  0  0
    5.4177    0.6412   20.1094 C   0  0  0  0  0  0  0  0  0  0  0  0
    4.9831    0.6481   21.1101 H   0  0  0  0  0  0  0  0  0  0  0  0
    4.7796    1.3161   19.0648 C   0  0  0  0  0  0  0  0  0  0  0  0
    3.8502    1.8636   19.2135 H   0  0  0  0  0  0  0  0  0  0  0  0
  1  2  1  0
  2  3  2  0
  3  4  1  0
  4  5  1  0
  4  6  2  0
  6  7  1  0
  7  8  1  0
  7  9  1  0
  7 10  1  0
 10 11  1  0
 10 12  1  0
 10 13  1  0
 13 14  1  0
 13 15  1  0
 13 16  1  0
 16 17  1  0
 16 18  1  0
 16 19  1  0
 19 20  1  0
 19 21  1  0
 19 22  1  0
 22 23  1  0
 22 24  1  0
 22 25  1  0
 25 26  1  0
 25 27  1  0
 25 28  1  0
 28 29  1  0
 28 30  1  0
 28 31  1  0
 31 32  1  0
 31 33  1  0
 31 34  1  0
 34 35  1  0
 34 36  1  0
 34 37  1  0
  6 38  1  0
 38 39  1  0
 38 40  2  0
 40 41  1  0
 40  2  1  0
M  END
>  <cnnaffinity>  (1) 
-4.60914

>  <filename>  (1) 
CCCCCCCCCCc1cccnc1

$$$$
