
     RDKit          3D

 38 39  0  0  0  0  0  0  0  0999 V2000
    9.0728   -3.0218   22.2575 H   0  0  0  0  0  0  0  0  0  0  0  0
    8.5306   -2.1401   21.9300 C   0  0  0  0  0  0  0  0  0  0  0  0
    8.0366   -1.8746   20.7699 N   0  0  0  0  0  0  0  0  0  0  0  0
    7.3953   -0.6548   20.9448 C   0  0  0  0  0  0  0  0  0  0  0  0
    6.6355   -0.0018   19.8729 C   0  0  0  0  0  0  0  0  0  0  0  0
    7.1370   -0.0145   18.5581 C   0  0  0  0  0  0  0  0  0  0  0  0
    8.0579   -0.5484   18.3355 H   0  0  0  0  0  0  0  0  0  0  0  0
    6.5645    0.6286   17.5339 N   0  0  0  0  0  0  0  0  0  0  0  0
    5.4251    1.2936   17.7808 C   0  0  0  0  0  0  0  0  0  0  0  0
    4.9799    1.8256   16.9409 H   0  0  0  0  0  0  0  0  0  0  0  0
    4.8096    1.3204   19.0369 C   0  0  0  0  0  0  0  0  0  0  0  0
    3.8789    1.8597   19.1667 H   0  0  0  0  0  0  0  0  0  0  0  0
    5.4232    0.6696   20.1061 C   0  0  0  0  0  0  0  0  0  0  0  0
    4.9630    0.6817   21.0976 H   0  0  0  0  0  0  0  0  0  0  0  0
    7.6096   -0.2175   22.2226 C   0  0  0  0  0  0  0  0  0  0  0  0
    7.4430    1.1119   22.8693 C   0  0  0  0  0  0  0  0  0  0  0  0
    6.3752    1.3269   22.9881 H   0  0  0  0  0  0  0  0  0  0  0  0
    7.8703    1.0738   23.8779 H   0  0  0  0  0  0  0  0  0  0  0  0
    8.1088    2.2241   22.0282 C   0  0  0  0  0  0  0  0  0  0  0  0
    7.6202    2.2763   21.0491 H   0  0  0  0  0  0  0  0  0  0  0  0
    7.9491    3.1941   22.5150 H   0  0  0  0  0  0  0  0  0  0  0  0
    9.6115    2.0084   21.8115 C   0  0  0  0  0  0  0  0  0  0  0  0
    9.7778    1.0867   21.2349 H   0  0  0  0  0  0  0  0  0  0  0  0
   10.0105    2.8155   21.1879 H   0  0  0  0  0  0  0  0  0  0  0  0
   10.4072    1.9552   23.1109 C   0  0  0  0  0  0  0  0  0  0  0  0
   10.1930    2.8570   23.7073 H   0  0  0  0  0  0  0  0  0  0  0  0
   10.0804    1.0966   23.7180 H   0  0  0  0  0  0  0  0  0  0  0  0
   11.9175    1.8771   22.9182 C   0  0  0  0  0  0  0  0  0  0  0  0
   12.1841    0.9721   22.3451 H   0  0  0  0  0  0  0  0  0  0  0  0
   12.2505    2.7419   22.3163 H   0  0  0  0  0  0  0  0  0  0  0  0
   12.6402    1.8508   24.2750 C   0  0  0  0  0  0  0  0  0  0  0  0
   12.1459    2.5761   24.9387 H   0  0  0  0  0  0  0  0  0  0  0  0
   13.6742    2.1760   24.1241 H   0  0  0  0  0  0  0  0  0  0  0  0
   12.6344    0.4798   24.9680 C   0  0  0  0  0  0  0  0  0  0  0  0
   13.4923    0.3496   25.6399 H   0  0  0  0  0  0  0  0  0  0  0  0
   11.7197    0.3215   25.5538 H   0  0  0  0  0  0  0  0  0  0  0  0
   12.6913   -0.3016   24.2079 H   0  0  0  0  0  0  0  0  0  0  0  0
    8.3271   -1.1948   22.8616 O   0  0  0  0  0  0  0  0  0  0  0  0
  1  2  1  0
  2  3  2  0
  3  4  1  0
  4  5  1  0
  5  6  2  0
  6  7  1  0
  6  8  1  0
  8  9  2  0
  9 10  1  0
  9 11  1  0
 11 12  1  0
 11 13  2  0
 13 14  1  0
  4 15  2  0
 15 16  1  0
 16 17  1  0
 16 18  1  0
 16 19  1  0
 19 20  1  0
 19 21  1  0
 19 22  1  0
 22 23  1  0
 22 24  1  0
 22 25  1  0
 25 26  1  0
 25 27  1  0
 25 28  1  0
 28 29  1  0
 28 30  1  0
 28 31  1  0
 31 32  1  0
 31 33  1  0
 31 34  1  0
 34 35  1  0
 34 36  1  0
 34 37  1  0
 15 38  1  0
 38  2  1  0
 13  5  1  0
M  END
>  <cnnaffinity>  (1) 
-5.2192

>  <filename>  (1) 
CCCCCCCc1ocnc1-c1cccnc1

$$$$
