
     RDKit          3D

 39 41  0  0  0  0  0  0  0  0999 V2000
    6.5355   -4.8570   22.3891 C   0  0  0  0  0  0  0  0  0  0  0  0
    7.8275   -4.4497   23.0891 C   0  0  0  0  0  0  0  0  0  0  0  0
    8.6845   -3.5341   22.2048 C   0  0  0  0  0  0  0  0  0  0  0  0
    8.1009   -2.1763   21.9754 C   0  0  0  0  0  0  0  0  0  0  0  0
    7.6541   -1.8161   20.7934 N   0  0  0  0  0  0  0  0  0  0  0  0
    7.1885   -0.5594   20.9984 N   0  0  0  0  0  0  0  0  0  0  0  0
    6.5511    0.1041   19.9164 C   0  0  0  0  0  0  0  0  0  0  0  0
    5.3440    0.7923   20.0780 C   0  0  0  0  0  0  0  0  0  0  0  0
    4.7845    1.4105   18.9539 C   0  0  0  0  0  0  0  0  0  0  0  0
    5.4540    1.3313   17.7305 C   0  0  0  0  0  0  0  0  0  0  0  0
    6.5964    0.6390   17.5635 N   0  0  0  0  0  0  0  0  0  0  0  0
    7.1112    0.0159   18.6275 C   0  0  0  0  0  0  0  0  0  0  0  0
    8.0041   -0.5862   18.4580 H   0  0  0  0  0  0  0  0  0  0  0  0
    5.0318    1.7898   16.8387 H   0  0  0  0  0  0  0  0  0  0  0  0
    3.8320    1.9263   19.0173 H   0  0  0  0  0  0  0  0  0  0  0  0
    4.8531    0.8098   21.0504 H   0  0  0  0  0  0  0  0  0  0  0  0
    7.4568   -0.1967   22.2935 C   0  0  0  0  0  0  0  0  0  0  0  0
    7.2613    1.1610   22.9206 C   0  0  0  0  0  0  0  0  0  0  0  0
    8.5529    1.6864   23.5408 C   0  0  0  0  0  0  0  0  0  0  0  0
    8.7979    1.5770   24.9155 C   0  0  0  0  0  0  0  0  0  0  0  0
   10.0547    1.8593   25.4589 C   0  0  0  0  0  0  0  0  0  0  0  0
   11.0738    2.3359   24.6341 C   0  0  0  0  0  0  0  0  0  0  0  0
   10.8436    2.5221   23.2716 C   0  0  0  0  0  0  0  0  0  0  0  0
    9.5994    2.1679   22.7427 C   0  0  0  0  0  0  0  0  0  0  0  0
    9.3656    2.2936   21.0333 Cl  0  0  0  0  0  0  0  0  0  0  0  0
   11.6038    2.9355   22.6160 H   0  0  0  0  0  0  0  0  0  0  0  0
   12.0518    2.5523   25.0478 H   0  0  0  0  0  0  0  0  0  0  0  0
   10.2472    1.6892   26.5095 H   0  0  0  0  0  0  0  0  0  0  0  0
    7.9839    1.2597   25.5591 H   0  0  0  0  0  0  0  0  0  0  0  0
    6.8938    1.8704   22.1744 H   0  0  0  0  0  0  0  0  0  0  0  0
    6.4968    1.0696   23.6978 H   0  0  0  0  0  0  0  0  0  0  0  0
    8.0065   -1.2163   22.9302 N   0  0  0  0  0  0  0  0  0  0  0  0
    9.6846   -3.4195   22.6355 H   0  0  0  0  0  0  0  0  0  0  0  0
    8.7798   -3.9715   21.2093 H   0  0  0  0  0  0  0  0  0  0  0  0
    8.4040   -5.3443   23.3532 H   0  0  0  0  0  0  0  0  0  0  0  0
    7.6191   -3.9425   24.0394 H   0  0  0  0  0  0  0  0  0  0  0  0
    5.9313   -5.5064   23.0312 H   0  0  0  0  0  0  0  0  0  0  0  0
    6.7538   -5.4075   21.4650 H   0  0  0  0  0  0  0  0  0  0  0  0
    5.9398   -3.9808   22.1053 H   0  0  0  0  0  0  0  0  0  0  0  0
  1  2  1  0
  2  3  1  0
  3  4  1  0
  4  5  2  0
  5  6  1  0
  6  7  1  0
  7  8  2  0
  8  9  1  0
  9 10  2  0
 10 11  1  0
 11 12  2  0
 12 13  1  0
 10 14  1  0
  9 15  1  0
  8 16  1  0
  6 17  1  0
 17 18  1  0
 18 19  1  0
 19 20  2  0
 20 21  1  0
 21 22  2  0
 22 23  1  0
 23 24  2  0
 24 25  1  0
 23 26  1  0
 22 27  1  0
 21 28  1  0
 20 29  1  0
 18 30  1  0
 18 31  1  0
 17 32  2  0
  3 33  1  0
  3 34  1  0
  2 35  1  0
  2 36  1  0
  1 37  1  0
  1 38  1  0
  1 39  1  0
 32  4  1  0
 12  7  1  0
 24 19  1  0
M  END
>  <cnnaffinity>  (1) 
-6.00023

>  <filename>  (1) 
CCCc1nc(Cc2ccccc2Cl)n(-c2cccnc2)n1

$$$$
