
     RDKit          3D

 42 43  0  0  0  0  0  0  0  0999 V2000
    4.9250    1.8291   16.9394 H   0  0  0  0  0  0  0  0  0  0  0  0
    5.3872    1.3197   17.7823 C   0  0  0  0  0  0  0  0  0  0  0  0
    6.5390    0.6743   17.5343 N   0  0  0  0  0  0  0  0  0  0  0  0
    7.1213    0.0463   18.5690 C   0  0  0  0  0  0  0  0  0  0  0  0
    8.0681   -0.4438   18.3335 H   0  0  0  0  0  0  0  0  0  0  0  0
    6.6167    0.0261   19.8895 C   0  0  0  0  0  0  0  0  0  0  0  0
    7.3168   -0.7143   21.0028 C   0  0  0  0  0  0  0  0  0  0  0  0
    7.4043   -2.1445   20.9330 C   0  0  0  0  0  0  0  0  0  0  0  0
    6.9114   -2.6481   20.1013 H   0  0  0  0  0  0  0  0  0  0  0  0
    8.0565   -2.8714   21.8865 C   0  0  0  0  0  0  0  0  0  0  0  0
    8.1451   -3.9434   21.8835 H   0  0  0  0  0  0  0  0  0  0  0  0
    8.7046   -2.2227   23.0143 C   0  0  0  0  0  0  0  0  0  0  0  0
    9.3290   -2.7697   23.9066 O   0  0  0  0  0  0  0  0  0  0  0  0
    8.5617   -0.8465   23.0301 N   0  0  0  0  0  0  0  0  0  0  0  0
    9.0446   -0.4643   23.8268 H   0  0  0  0  0  0  0  0  0  0  0  0
    7.8946   -0.0757   22.0885 C   0  0  0  0  0  0  0  0  0  0  0  0
    8.0002    1.4047   22.2396 C   0  0  0  0  0  0  0  0  0  0  0  0
    8.2255    1.6614   23.2798 H   0  0  0  0  0  0  0  0  0  0  0  0
    7.0277    1.8691   22.0309 H   0  0  0  0  0  0  0  0  0  0  0  0
    9.0561    1.9948   21.2788 C   0  0  0  0  0  0  0  0  0  0  0  0
    8.7814    1.6569   20.2772 H   0  0  0  0  0  0  0  0  0  0  0  0
    8.9675    3.0879   21.2693 H   0  0  0  0  0  0  0  0  0  0  0  0
   10.5111    1.5786   21.5460 C   0  0  0  0  0  0  0  0  0  0  0  0
   10.6173    0.4925   21.4103 H   0  0  0  0  0  0  0  0  0  0  0  0
   11.1408    2.0299   20.7680 H   0  0  0  0  0  0  0  0  0  0  0  0
   11.0646    1.9672   22.9269 C   0  0  0  0  0  0  0  0  0  0  0  0
   10.5014    1.4405   23.7047 H   0  0  0  0  0  0  0  0  0  0  0  0
   12.0883    1.5773   23.0188 H   0  0  0  0  0  0  0  0  0  0  0  0
   11.0861    3.4740   23.2290 C   0  0  0  0  0  0  0  0  0  0  0  0
   10.0872    3.9108   23.0638 H   0  0  0  0  0  0  0  0  0  0  0  0
   11.3178    3.6310   24.2950 H   0  0  0  0  0  0  0  0  0  0  0  0
   12.1216    4.2060   22.3734 C   0  0  0  0  0  0  0  0  0  0  0  0
   13.1136    3.8044   22.6137 H   0  0  0  0  0  0  0  0  0  0  0  0
   11.9637    3.9663   21.3181 H   0  0  0  0  0  0  0  0  0  0  0  0
   12.1320    5.7161   22.5281 C   0  0  0  0  0  0  0  0  0  0  0  0
   11.1359    6.1244   22.3063 H   0  0  0  0  0  0  0  0  0  0  0  0
   12.4106    6.0200   23.5430 H   0  0  0  0  0  0  0  0  0  0  0  0
   12.8620    6.1726   21.8470 H   0  0  0  0  0  0  0  0  0  0  0  0
    5.4019    0.6995   20.1079 C   0  0  0  0  0  0  0  0  0  0  0  0
    4.9660    0.7136   21.1085 H   0  0  0  0  0  0  0  0  0  0  0  0
    4.7747    1.3443   19.0383 C   0  0  0  0  0  0  0  0  0  0  0  0
    3.8399    1.8768   19.1748 H   0  0  0  0  0  0  0  0  0  0  0  0
  1  2  1  0
  2  3  2  0
  3  4  1  0
  4  5  1  0
  4  6  2  0
  6  7  1  0
  7  8  1  0
  8  9  1  0
  8 10  2  0
 10 11  1  0
 10 12  1  0
 12 13  2  0
 12 14  1  0
 14 15  1  0
 14 16  1  0
 16 17  1  0
 17 18  1  0
 17 19  1  0
 17 20  1  0
 20 21  1  0
 20 22  1  0
 20 23  1  0
 23 24  1  0
 23 25  1  0
 23 26  1  0
 26 27  1  0
 26 28  1  0
 26 29  1  0
 29 30  1  0
 29 31  1  0
 29 32  1  0
 32 33  1  0
 32 34  1  0
 32 35  1  0
 35 36  1  0
 35 37  1  0
 35 38  1  0
  6 39  1  0
 39 40  1  0
 39 41  2  0
 41 42  1  0
 41  2  1  0
 16  7  2  0
M  END
>  <cnnaffinity>  (1) 
-5.32087

>  <filename>  (1) 
CCCCCCCc1[nH]c(=O)ccc1-c1cccnc1

$$$$
