
     RDKit          3D

 42 44  0  0  0  0  0  0  0  0999 V2000
    8.4487   -5.9035   23.0537 C   0  0  0  0  0  0  0  0  0  0  0  0
    7.7771   -4.5593   22.7890 C   0  0  0  0  0  0  0  0  0  0  0  0
    8.7329   -3.5476   22.1296 C   0  0  0  0  0  0  0  0  0  0  0  0
    8.1886   -2.1753   21.9352 C   0  0  0  0  0  0  0  0  0  0  0  0
    7.7332   -1.8242   20.7548 N   0  0  0  0  0  0  0  0  0  0  0  0
    7.2912   -0.5659   20.9498 N   0  0  0  0  0  0  0  0  0  0  0  0
    6.6065    0.0879   19.9007 C   0  0  0  0  0  0  0  0  0  0  0  0
    5.3788    0.7197   20.1183 C   0  0  0  0  0  0  0  0  0  0  0  0
    4.7721    1.3388   19.0243 C   0  0  0  0  0  0  0  0  0  0  0  0
    5.4127    1.2981   17.7822 C   0  0  0  0  0  0  0  0  0  0  0  0
    6.5608    0.6280   17.5598 N   0  0  0  0  0  0  0  0  0  0  0  0
    7.1338    0.0200   18.6002 C   0  0  0  0  0  0  0  0  0  0  0  0
    8.0460   -0.5517   18.4180 H   0  0  0  0  0  0  0  0  0  0  0  0
    5.0060    1.8342   16.9306 H   0  0  0  0  0  0  0  0  0  0  0  0
    3.8351    1.8713   19.1399 H   0  0  0  0  0  0  0  0  0  0  0  0
    4.9074    0.6892   21.1018 H   0  0  0  0  0  0  0  0  0  0  0  0
    7.5471   -0.1977   22.2372 C   0  0  0  0  0  0  0  0  0  0  0  0
    7.2721    1.1387   22.8370 C   0  0  0  0  0  0  0  0  0  0  0  0
    8.3638    1.5891   23.8205 C   0  0  0  0  0  0  0  0  0  0  0  0
    8.0487    2.9591   24.3491 C   0  0  0  0  0  0  0  0  0  0  0  0
    7.1718    3.1035   25.4284 C   0  0  0  0  0  0  0  0  0  0  0  0
    6.6402    2.0107   26.0105 F   0  0  0  0  0  0  0  0  0  0  0  0
    6.8027    4.3691   25.8876 C   0  0  0  0  0  0  0  0  0  0  0  0
    5.9746    4.4816   26.9369 F   0  0  0  0  0  0  0  0  0  0  0  0
    7.2784    5.5108   25.2507 C   0  0  0  0  0  0  0  0  0  0  0  0
    8.1248    5.3848   24.1434 C   0  0  0  0  0  0  0  0  0  0  0  0
    8.5055    4.1173   23.7000 C   0  0  0  0  0  0  0  0  0  0  0  0
    9.1430    4.0145   22.8237 H   0  0  0  0  0  0  0  0  0  0  0  0
    8.4777    6.2667   23.6160 H   0  0  0  0  0  0  0  0  0  0  0  0
    6.9598    6.4736   25.6302 H   0  0  0  0  0  0  0  0  0  0  0  0
    8.4192    0.8689   24.6418 H   0  0  0  0  0  0  0  0  0  0  0  0
    9.3452    1.5939   23.3301 H   0  0  0  0  0  0  0  0  0  0  0  0
    6.3175    1.0947   23.3750 H   0  0  0  0  0  0  0  0  0  0  0  0
    7.1413    1.8959   22.0567 H   0  0  0  0  0  0  0  0  0  0  0  0
    8.1057   -1.2096   22.8825 N   0  0  0  0  0  0  0  0  0  0  0  0
    9.6777   -3.4543   22.6734 H   0  0  0  0  0  0  0  0  0  0  0  0
    8.9454   -3.8992   21.1197 H   0  0  0  0  0  0  0  0  0  0  0  0
    6.9142   -4.7168   22.1300 H   0  0  0  0  0  0  0  0  0  0  0  0
    7.3802   -4.1582   23.7304 H   0  0  0  0  0  0  0  0  0  0  0  0
    7.7154   -6.6540   23.3591 H   0  0  0  0  0  0  0  0  0  0  0  0
    8.9596   -6.2880   22.1635 H   0  0  0  0  0  0  0  0  0  0  0  0
    9.1889   -5.8175   23.8558 H   0  0  0  0  0  0  0  0  0  0  0  0
  1  2  1  0
  2  3  1  0
  3  4  1  0
  4  5  2  0
  5  6  1  0
  6  7  1  0
  7  8  2  0
  8  9  1  0
  9 10  2  0
 10 11  1  0
 11 12  2  0
 12 13  1  0
 10 14  1  0
  9 15  1  0
  8 16  1  0
  6 17  1  0
 17 18  1  0
 18 19  1  0
 19 20  1  0
 20 21  2  0
 21 22  1  0
 21 23  1  0
 23 24  1  0
 23 25  2  0
 25 26  1  0
 26 27  2  0
 27 28  1  0
 26 29  1  0
 25 30  1  0
 19 31  1  0
 19 32  1  0
 18 33  1  0
 18 34  1  0
 17 35  2  0
  3 36  1  0
  3 37  1  0
  2 38  1  0
  2 39  1  0
  1 40  1  0
  1 41  1  0
  1 42  1  0
 35  4  1  0
 12  7  1  0
 27 20  1  0
M  END
>  <cnnaffinity>  (1) 
-5.72959

>  <filename>  (1) 
CCCc1nc(CCc2cccc(F)c2F)n(-c2cccnc2)n1

$$$$
