
     RDKit          3D

 46 48  0  0  0  0  0  0  0  0999 V2000
    7.6595   -5.5876   24.0293 C   0  0  0  0  0  0  0  0  0  0  0  0
    7.8578   -4.4834   22.9904 C   0  0  0  0  0  0  0  0  0  0  0  0
    7.4161   -3.0946   23.5027 C   0  0  0  0  0  0  0  0  0  0  0  0
    7.6311   -1.9813   22.5283 C   0  0  0  0  0  0  0  0  0  0  0  0
    6.6955   -1.5539   21.7040 N   0  0  0  0  0  0  0  0  0  0  0  0
    7.3375   -0.6162   20.9626 N   0  0  0  0  0  0  0  0  0  0  0  0
    6.6496    0.0164   19.8935 C   0  0  0  0  0  0  0  0  0  0  0  0
    5.4261    0.6426   20.1363 C   0  0  0  0  0  0  0  0  0  0  0  0
    4.8116    1.3157   19.0769 C   0  0  0  0  0  0  0  0  0  0  0  0
    5.4159    1.3026   17.8127 C   0  0  0  0  0  0  0  0  0  0  0  0
    6.5551    0.6413   17.5575 N   0  0  0  0  0  0  0  0  0  0  0  0
    7.1469    0.0099   18.5788 C   0  0  0  0  0  0  0  0  0  0  0  0
    8.0519   -0.5461   18.3489 H   0  0  0  0  0  0  0  0  0  0  0  0
    4.9621    1.8232   16.9712 H   0  0  0  0  0  0  0  0  0  0  0  0
    3.8771    1.8426   19.2222 H   0  0  0  0  0  0  0  0  0  0  0  0
    4.9846    0.5976   21.1359 H   0  0  0  0  0  0  0  0  0  0  0  0
    8.6089   -0.4759   21.4302 C   0  0  0  0  0  0  0  0  0  0  0  0
    9.5523    0.6001   20.9684 C   0  0  0  0  0  0  0  0  0  0  0  0
    9.2217    1.9172   21.4239 O   0  0  0  0  0  0  0  0  0  0  0  0
    9.3522    2.0456   22.8025 C   0  0  0  0  0  0  0  0  0  0  0  0
    8.1800    2.0358   23.5955 C   0  0  0  0  0  0  0  0  0  0  0  0
    6.7787    1.8982   23.0368 C   0  0  0  0  0  0  0  0  0  0  0  0
    6.4821    0.8372   23.0241 H   0  0  0  0  0  0  0  0  0  0  0  0
    6.7016    2.2856   22.0161 H   0  0  0  0  0  0  0  0  0  0  0  0
    6.0641    2.4273   23.6808 H   0  0  0  0  0  0  0  0  0  0  0  0
    8.3388    2.0733   24.9862 C   0  0  0  0  0  0  0  0  0  0  0  0
    9.6030    2.0956   25.5650 C   0  0  0  0  0  0  0  0  0  0  0  0
   10.7451    2.1006   24.7669 C   0  0  0  0  0  0  0  0  0  0  0  0
   10.6498    2.1079   23.3697 C   0  0  0  0  0  0  0  0  0  0  0  0
   11.9127    2.1417   22.5262 C   0  0  0  0  0  0  0  0  0  0  0  0
   12.3536    1.1385   22.4301 H   0  0  0  0  0  0  0  0  0  0  0  0
   11.7010    2.5199   21.5205 H   0  0  0  0  0  0  0  0  0  0  0  0
   12.6864    2.7701   22.9865 H   0  0  0  0  0  0  0  0  0  0  0  0
   11.7212    2.1034   25.2449 H   0  0  0  0  0  0  0  0  0  0  0  0
    9.6953    2.0918   26.6379 H   0  0  0  0  0  0  0  0  0  0  0  0
    7.4547    2.0835   25.6199 H   0  0  0  0  0  0  0  0  0  0  0  0
   10.5511    0.3182   21.3158 H   0  0  0  0  0  0  0  0  0  0  0  0
    9.5729    0.6619   19.8814 H   0  0  0  0  0  0  0  0  0  0  0  0
    8.8306   -1.3548   22.3911 N   0  0  0  0  0  0  0  0  0  0  0  0
    6.3539   -3.1039   23.7730 H   0  0  0  0  0  0  0  0  0  0  0  0
    7.9895   -2.8464   24.4027 H   0  0  0  0  0  0  0  0  0  0  0  0
    8.9209   -4.4392   22.7112 H   0  0  0  0  0  0  0  0  0  0  0  0
    7.2964   -4.7446   22.0820 H   0  0  0  0  0  0  0  0  0  0  0  0
    6.6064   -5.6921   24.3229 H   0  0  0  0  0  0  0  0  0  0  0  0
    7.9867   -6.5463   23.6154 H   0  0  0  0  0  0  0  0  0  0  0  0
    8.2431   -5.4028   24.9407 H   0  0  0  0  0  0  0  0  0  0  0  0
  1  2  1  0
  2  3  1  0
  3  4  1  0
  4  5  2  0
  5  6  1  0
  6  7  1  0
  7  8  2  0
  8  9  1  0
  9 10  2  0
 10 11  1  0
 11 12  2  0
 12 13  1  0
 10 14  1  0
  9 15  1  0
  8 16  1  0
  6 17  1  0
 17 18  1  0
 18 19  1  0
 19 20  1  0
 20 21  2  0
 21 22  1  0
 22 23  1  0
 22 24  1  0
 22 25  1  0
 21 26  1  0
 26 27  2  0
 27 28  1  0
 28 29  2  0
 29 30  1  0
 30 31  1  0
 30 32  1  0
 30 33  1  0
 28 34  1  0
 27 35  1  0
 26 36  1  0
 18 37  1  0
 18 38  1  0
 17 39  2  0
  3 40  1  0
  3 41  1  0
  2 42  1  0
  2 43  1  0
  1 44  1  0
  1 45  1  0
  1 46  1  0
 39  4  1  0
 12  7  1  0
 29 20  1  0
M  END
>  <cnnaffinity>  (1) 
-5.95446

>  <filename>  (1) 
CCCc1nc(COc2c(C)cccc2C)n(-c2cccnc2)n1

$$$$
