
     RDKit          3D

 40 42  0  0  0  0  0  0  0  0999 V2000
    4.9651    1.8071   16.9733 H   0  0  0  0  0  0  0  0  0  0  0  0
    5.4074    1.2976   17.8292 C   0  0  0  0  0  0  0  0  0  0  0  0
    6.5634    0.6578   17.5946 N   0  0  0  0  0  0  0  0  0  0  0  0
    7.1376    0.0280   18.6259 C   0  0  0  0  0  0  0  0  0  0  0  0
    8.0889   -0.4544   18.4052 H   0  0  0  0  0  0  0  0  0  0  0  0
    6.6009   -0.0295   19.9192 C   0  0  0  0  0  0  0  0  0  0  0  0
    7.3241   -0.7148   21.0066 C   0  0  0  0  0  0  0  0  0  0  0  0
    6.6916   -1.4730   21.9098 N   0  0  0  0  0  0  0  0  0  0  0  0
    7.6656   -1.8212   22.7621 N   0  0  0  0  0  0  0  0  0  0  0  0
    8.8670   -1.3051   22.4736 C   0  0  0  0  0  0  0  0  0  0  0  0
    8.7129   -0.5746   21.3176 C   0  0  0  0  0  0  0  0  0  0  0  0
    9.6959    0.3909   20.7348 C   0  0  0  0  0  0  0  0  0  0  0  0
   10.7106    0.1316   21.0670 H   0  0  0  0  0  0  0  0  0  0  0  0
    9.6771    0.2566   19.6498 H   0  0  0  0  0  0  0  0  0  0  0  0
    9.3713    1.8535   21.0762 C   0  0  0  0  0  0  0  0  0  0  0  0
    8.4244    2.1013   20.5717 H   0  0  0  0  0  0  0  0  0  0  0  0
   10.1537    2.4981   20.6565 H   0  0  0  0  0  0  0  0  0  0  0  0
    9.2772    2.1861   22.5683 C   0  0  0  0  0  0  0  0  0  0  0  0
   10.2439    1.9568   23.0500 H   0  0  0  0  0  0  0  0  0  0  0  0
    8.5238    1.5416   23.0539 H   0  0  0  0  0  0  0  0  0  0  0  0
    8.9481    3.6663   22.8115 C   0  0  0  0  0  0  0  0  0  0  0  0
    9.7186    4.2942   22.3396 H   0  0  0  0  0  0  0  0  0  0  0  0
    8.0040    3.9189   22.3028 H   0  0  0  0  0  0  0  0  0  0  0  0
    8.8719    4.0215   24.2974 C   0  0  0  0  0  0  0  0  0  0  0  0
    8.1065    3.4254   24.8089 H   0  0  0  0  0  0  0  0  0  0  0  0
    8.6362    5.0802   24.4563 H   0  0  0  0  0  0  0  0  0  0  0  0
    9.8313    3.8206   24.7908 H   0  0  0  0  0  0  0  0  0  0  0  0
    9.8228   -1.4631   23.6158 C   0  0  0  0  0  0  0  0  0  0  0  0
   10.1645   -0.4704   23.9455 H   0  0  0  0  0  0  0  0  0  0  0  0
   10.7307   -2.0062   23.3248 H   0  0  0  0  0  0  0  0  0  0  0  0
    8.9597   -2.2138   24.6832 C   0  0  0  0  0  0  0  0  0  0  0  0
    9.3741   -3.2046   24.8809 H   0  0  0  0  0  0  0  0  0  0  0  0
    8.9383   -1.6651   25.6274 H   0  0  0  0  0  0  0  0  0  0  0  0
    7.5127   -2.3502   24.0974 C   0  0  0  0  0  0  0  0  0  0  0  0
    7.1492   -3.3816   24.0427 H   0  0  0  0  0  0  0  0  0  0  0  0
    6.7639   -1.7515   24.6347 H   0  0  0  0  0  0  0  0  0  0  0  0
    5.3874    0.6455   20.1454 C   0  0  0  0  0  0  0  0  0  0  0  0
    4.9416    0.6436   21.1409 H   0  0  0  0  0  0  0  0  0  0  0  0
    4.7863    1.3191   19.0820 C   0  0  0  0  0  0  0  0  0  0  0  0
    3.8556    1.8691   19.2071 H   0  0  0  0  0  0  0  0  0  0  0  0
  1  2  1  0
  2  3  2  0
  3  4  1  0
  4  5  1  0
  4  6  2  0
  6  7  1  0
  7  8  2  0
  8  9  1  0
  9 10  1  0
 10 11  2  0
 11 12  1  0
 12 13  1  0
 12 14  1  0
 12 15  1  0
 15 16  1  0
 15 17  1  0
 15 18  1  0
 18 19  1  0
 18 20  1  0
 18 21  1  0
 21 22  1  0
 21 23  1  0
 21 24  1  0
 24 25  1  0
 24 26  1  0
 24 27  1  0
 10 28  1  0
 28 29  1  0
 28 30  1  0
 28 31  1  0
 31 32  1  0
 31 33  1  0
 31 34  1  0
 34 35  1  0
 34 36  1  0
  6 37  1  0
 37 38  1  0
 37 39  2  0
 39 40  1  0
 39  2  1  0
 11  7  1  0
 34  9  1  0
M  END
>  <cnnaffinity>  (1) 
-5.45377

>  <filename>  (1) 
CCCCCc1c(-c2cccnc2)nn2c1CCC2

$$$$
