
     RDKit          3D

 44 45  0  0  0  0  0  0  0  0999 V2000
    4.9849    1.7920   17.0001 H   0  0  0  0  0  0  0  0  0  0  0  0
    5.4305    1.2792   17.8489 C   0  0  0  0  0  0  0  0  0  0  0  0
    6.5854    0.6369   17.6149 N   0  0  0  0  0  0  0  0  0  0  0  0
    7.1643    0.0211   18.6486 C   0  0  0  0  0  0  0  0  0  0  0  0
    8.1053   -0.4849   18.4203 H   0  0  0  0  0  0  0  0  0  0  0  0
    6.6307   -0.0117   19.9423 C   0  0  0  0  0  0  0  0  0  0  0  0
    7.3679   -0.7322   21.0094 C   0  0  0  0  0  0  0  0  0  0  0  0
    6.6184   -1.3394   21.9434 N   0  0  0  0  0  0  0  0  0  0  0  0
    7.2292   -1.9783   22.9471 C   0  0  0  0  0  0  0  0  0  0  0  0
    6.3925   -2.6797   23.9885 C   0  0  0  0  0  0  0  0  0  0  0  0
    6.8676   -2.5375   24.9685 H   0  0  0  0  0  0  0  0  0  0  0  0
    5.4163   -2.2038   24.0568 H   0  0  0  0  0  0  0  0  0  0  0  0
    6.2112   -4.1797   23.7126 C   0  0  0  0  0  0  0  0  0  0  0  0
    5.6832   -4.6165   24.5693 H   0  0  0  0  0  0  0  0  0  0  0  0
    7.1953   -4.6700   23.6782 H   0  0  0  0  0  0  0  0  0  0  0  0
    5.4419   -4.4956   22.4239 C   0  0  0  0  0  0  0  0  0  0  0  0
    5.9121   -3.9772   21.5790 H   0  0  0  0  0  0  0  0  0  0  0  0
    4.4309   -4.0677   22.4931 H   0  0  0  0  0  0  0  0  0  0  0  0
    5.3438   -5.9994   22.1361 C   0  0  0  0  0  0  0  0  0  0  0  0
    6.3606   -6.3997   22.0038 H   0  0  0  0  0  0  0  0  0  0  0  0
    4.8408   -6.1635   21.1735 H   0  0  0  0  0  0  0  0  0  0  0  0
    4.6297   -6.8001   23.2396 C   0  0  0  0  0  0  0  0  0  0  0  0
    5.1868   -6.6629   24.1761 H   0  0  0  0  0  0  0  0  0  0  0  0
    4.7145   -7.8714   23.0361 H   0  0  0  0  0  0  0  0  0  0  0  0
    3.1611   -6.4270   23.5118 C   0  0  0  0  0  0  0  0  0  0  0  0
    3.1377   -5.4402   23.9926 H   0  0  0  0  0  0  0  0  0  0  0  0
    2.7634   -7.1166   24.2704 H   0  0  0  0  0  0  0  0  0  0  0  0
    2.1943   -6.3690   22.3181 C   0  0  0  0  0  0  0  0  0  0  0  0
    2.5359   -5.6006   21.6160 H   0  0  0  0  0  0  0  0  0  0  0  0
    1.2347   -5.9920   22.6907 H   0  0  0  0  0  0  0  0  0  0  0  0
    1.9505   -7.6773   21.5610 C   0  0  0  0  0  0  0  0  0  0  0  0
    1.7716   -8.5205   22.2354 H   0  0  0  0  0  0  0  0  0  0  0  0
    2.7958   -7.9529   20.9253 H   0  0  0  0  0  0  0  0  0  0  0  0
    1.0703   -7.6038   20.9115 H   0  0  0  0  0  0  0  0  0  0  0  0
    8.6251   -2.0650   23.0455 C   0  0  0  0  0  0  0  0  0  0  0  0
    9.0510   -2.6053   23.8831 H   0  0  0  0  0  0  0  0  0  0  0  0
    9.4113   -1.4425   22.0781 C   0  0  0  0  0  0  0  0  0  0  0  0
   10.4962   -1.4864   22.1337 H   0  0  0  0  0  0  0  0  0  0  0  0
    8.7707   -0.7618   21.0401 C   0  0  0  0  0  0  0  0  0  0  0  0
    9.3377   -0.2389   20.2785 H   0  0  0  0  0  0  0  0  0  0  0  0
    5.4067    0.6457   20.1662 C   0  0  0  0  0  0  0  0  0  0  0  0
    4.9506    0.6353   21.1560 H   0  0  0  0  0  0  0  0  0  0  0  0
    4.8032    1.3091   19.0990 C   0  0  0  0  0  0  0  0  0  0  0  0
    3.8715    1.8529   19.2253 H   0  0  0  0  0  0  0  0  0  0  0  0
  1  2  1  0
  2  3  2  0
  3  4  1  0
  4  5  1  0
  4  6  2  0
  6  7  1  0
  7  8  2  0
  8  9  1  0
  9 10  1  0
 10 11  1  0
 10 12  1  0
 10 13  1  0
 13 14  1  0
 13 15  1  0
 13 16  1  0
 16 17  1  0
 16 18  1  0
 16 19  1  0
 19 20  1  0
 19 21  1  0
 19 22  1  0
 22 23  1  0
 22 24  1  0
 22 25  1  0
 25 26  1  0
 25 27  1  0
 25 28  1  0
 28 29  1  0
 28 30  1  0
 28 31  1  0
 31 32  1  0
 31 33  1  0
 31 34  1  0
  9 35  2  0
 35 36  1  0
 35 37  1  0
 37 38  1  0
 37 39  2  0
 39 40  1  0
  6 41  1  0
 41 42  1  0
 41 43  2  0
 43 44  1  0
 43  2  1  0
 39  7  1  0
M  END
>  <cnnaffinity>  (1) 
-5.29251

>  <filename>  (1) 
CCCCCCCCc1cccc(-c2cccnc2)n1

$$$$
