
     RDKit          3D

 40 41  0  0  0  0  0  0  0  0999 V2000
    4.9073    1.7739   17.0039 H   0  0  0  0  0  0  0  0  0  0  0  0
    5.3996    1.2927   17.8455 C   0  0  0  0  0  0  0  0  0  0  0  0
    6.5703    0.6810   17.5902 N   0  0  0  0  0  0  0  0  0  0  0  0
    7.1819    0.0527   18.5960 C   0  0  0  0  0  0  0  0  0  0  0  0
    8.1308   -0.4403   18.3851 H   0  0  0  0  0  0  0  0  0  0  0  0
    6.6580    0.0028   19.8988 C   0  0  0  0  0  0  0  0  0  0  0  0
    7.3664   -0.6912   20.9241 N   0  0  0  0  0  0  0  0  0  0  0  0
    7.8913   -1.9187   20.7410 N   0  0  0  0  0  0  0  0  0  0  0  0
    8.4788   -2.2405   21.8302 N   0  0  0  0  0  0  0  0  0  0  0  0
    8.3777   -1.2547   22.7464 N   0  0  0  0  0  0  0  0  0  0  0  0
    7.6992   -0.2866   22.1780 C   0  0  0  0  0  0  0  0  0  0  0  0
    7.3936    1.0433   22.7834 C   0  0  0  0  0  0  0  0  0  0  0  0
    7.1262    1.7581   21.9992 H   0  0  0  0  0  0  0  0  0  0  0  0
    8.3220    1.4123   23.2332 H   0  0  0  0  0  0  0  0  0  0  0  0
    6.2922    0.9801   23.8470 C   0  0  0  0  0  0  0  0  0  0  0  0
    5.9458    2.0006   24.0468 H   0  0  0  0  0  0  0  0  0  0  0  0
    5.4264    0.4333   23.4508 H   0  0  0  0  0  0  0  0  0  0  0  0
    6.7436    0.3327   25.1499 C   0  0  0  0  0  0  0  0  0  0  0  0
    7.6355    0.8590   25.5217 H   0  0  0  0  0  0  0  0  0  0  0  0
    7.0518   -0.7059   24.9673 H   0  0  0  0  0  0  0  0  0  0  0  0
    5.6620    0.3674   26.2178 C   0  0  0  0  0  0  0  0  0  0  0  0
    4.7718   -0.1616   25.8438 H   0  0  0  0  0  0  0  0  0  0  0  0
    5.3575    1.4109   26.3902 H   0  0  0  0  0  0  0  0  0  0  0  0
    6.1149   -0.2730   27.5271 C   0  0  0  0  0  0  0  0  0  0  0  0
    6.9673    0.2941   27.9333 H   0  0  0  0  0  0  0  0  0  0  0  0
    6.4871   -1.2856   27.3179 H   0  0  0  0  0  0  0  0  0  0  0  0
    5.0141   -0.3555   28.5818 C   0  0  0  0  0  0  0  0  0  0  0  0
    5.3547   -1.0063   29.3988 H   0  0  0  0  0  0  0  0  0  0  0  0
    4.1282   -0.8442   28.1455 H   0  0  0  0  0  0  0  0  0  0  0  0
    4.6108    1.0011   29.1600 C   0  0  0  0  0  0  0  0  0  0  0  0
    5.5081    1.5151   29.5339 H   0  0  0  0  0  0  0  0  0  0  0  0
    4.1876    1.6390   28.3723 H   0  0  0  0  0  0  0  0  0  0  0  0
    3.6013    0.8682   30.2887 C   0  0  0  0  0  0  0  0  0  0  0  0
    2.6908    0.3738   29.9315 H   0  0  0  0  0  0  0  0  0  0  0  0
    4.0160    0.2689   31.1074 H   0  0  0  0  0  0  0  0  0  0  0  0
    3.3281    1.8499   30.6847 H   0  0  0  0  0  0  0  0  0  0  0  0
    5.4459    0.6475   20.1635 C   0  0  0  0  0  0  0  0  0  0  0  0
    5.0090    0.6266   21.1601 H   0  0  0  0  0  0  0  0  0  0  0  0
    4.8053    1.3088   19.1105 C   0  0  0  0  0  0  0  0  0  0  0  0
    3.8720    1.8449   19.2678 H   0  0  0  0  0  0  0  0  0  0  0  0
  1  2  1  0
  2  3  2  0
  3  4  1  0
  4  5  1  0
  4  6  2  0
  6  7  1  0
  7  8  1  0
  8  9  2  0
  9 10  1  0
 10 11  2  0
 11 12  1  0
 12 13  1  0
 12 14  1  0
 12 15  1  0
 15 16  1  0
 15 17  1  0
 15 18  1  0
 18 19  1  0
 18 20  1  0
 18 21  1  0
 21 22  1  0
 21 23  1  0
 21 24  1  0
 24 25  1  0
 24 26  1  0
 24 27  1  0
 27 28  1  0
 27 29  1  0
 27 30  1  0
 30 31  1  0
 30 32  1  0
 30 33  1  0
 33 34  1  0
 33 35  1  0
 33 36  1  0
  6 37  1  0
 37 38  1  0
 37 39  2  0
 39 40  1  0
 39  2  1  0
 11  7  1  0
M  END
>  <cnnaffinity>  (1) 
-5.06904

>  <filename>  (1) 
CCCCCCCCc1nnnn1-c1cccnc1

$$$$
