
     RDKit          3D

 36 37  0  0  0  0  0  0  0  0999 V2000
    4.9445    1.8109   17.0058 H   0  0  0  0  0  0  0  0  0  0  0  0
    5.4186    1.3010   17.8418 C   0  0  0  0  0  0  0  0  0  0  0  0
    6.5775    0.6777   17.5743 N   0  0  0  0  0  0  0  0  0  0  0  0
    7.1950    0.0434   18.5802 C   0  0  0  0  0  0  0  0  0  0  0  0
    8.1323   -0.4613   18.3455 H   0  0  0  0  0  0  0  0  0  0  0  0
    6.6868   -0.0074   19.8943 C   0  0  0  0  0  0  0  0  0  0  0  0
    7.3763   -0.6943   20.9589 N   0  0  0  0  0  0  0  0  0  0  0  0
    8.6217   -0.3886   21.4972 C   0  0  0  0  0  0  0  0  0  0  0  0
    9.4444    0.7637   21.0349 C   0  0  0  0  0  0  0  0  0  0  0  0
    9.5577    0.7060   19.9487 H   0  0  0  0  0  0  0  0  0  0  0  0
   10.4440    0.6427   21.4603 H   0  0  0  0  0  0  0  0  0  0  0  0
    8.8398    2.1211   21.4408 C   0  0  0  0  0  0  0  0  0  0  0  0
    7.9138    2.2618   20.8721 H   0  0  0  0  0  0  0  0  0  0  0  0
    9.5236    2.9180   21.1289 H   0  0  0  0  0  0  0  0  0  0  0  0
    8.5525    2.2406   22.9467 C   0  0  0  0  0  0  0  0  0  0  0  0
    8.0696    3.2064   23.1489 H   0  0  0  0  0  0  0  0  0  0  0  0
    7.8231    1.4681   23.2316 H   0  0  0  0  0  0  0  0  0  0  0  0
    9.8054    2.0804   23.8150 C   0  0  0  0  0  0  0  0  0  0  0  0
   10.5635    2.8068   23.4865 H   0  0  0  0  0  0  0  0  0  0  0  0
   10.2306    1.0807   23.6372 H   0  0  0  0  0  0  0  0  0  0  0  0
    9.6005    2.2652   25.3250 C   0  0  0  0  0  0  0  0  0  0  0  0
   10.5802    2.1519   25.8055 H   0  0  0  0  0  0  0  0  0  0  0  0
    9.2899    3.2999   25.5375 H   0  0  0  0  0  0  0  0  0  0  0  0
    8.6656    1.2593   26.0090 C   0  0  0  0  0  0  0  0  0  0  0  0
    9.0662    0.2409   25.9159 H   0  0  0  0  0  0  0  0  0  0  0  0
    8.5768    1.4897   27.0773 H   0  0  0  0  0  0  0  0  0  0  0  0
    7.6426    1.2377   25.6133 H   0  0  0  0  0  0  0  0  0  0  0  0
    8.9345   -1.1860   22.4760 N   0  0  0  0  0  0  0  0  0  0  0  0
    7.8619   -2.0221   22.5540 N   0  0  0  0  0  0  0  0  0  0  0  0
    7.7649   -2.7765   23.2113 H   0  0  0  0  0  0  0  0  0  0  0  0
    6.8929   -1.7945   21.6528 C   0  0  0  0  0  0  0  0  0  0  0  0
    5.5235   -2.7165   21.4441 S   0  0  0  0  0  0  0  0  0  0  0  0
    5.4666    0.6249   20.1544 C   0  0  0  0  0  0  0  0  0  0  0  0
    5.0548    0.5663   21.1637 H   0  0  0  0  0  0  0  0  0  0  0  0
    4.8217    1.3037   19.1098 C   0  0  0  0  0  0  0  0  0  0  0  0
    3.8776    1.8260   19.2586 H   0  0  0  0  0  0  0  0  0  0  0  0
  1  2  1  0
  2  3  2  0
  3  4  1  0
  4  5  1  0
  4  6  2  0
  6  7  1  0
  7  8  1  0
  8  9  1  0
  9 10  1  0
  9 11  1  0
  9 12  1  0
 12 13  1  0
 12 14  1  0
 12 15  1  0
 15 16  1  0
 15 17  1  0
 15 18  1  0
 18 19  1  0
 18 20  1  0
 18 21  1  0
 21 22  1  0
 21 23  1  0
 21 24  1  0
 24 25  1  0
 24 26  1  0
 24 27  1  0
  8 28  2  0
 28 29  1  0
 29 30  1  0
 29 31  1  0
 31 32  2  0
  6 33  1  0
 33 34  1  0
 33 35  2  0
 35 36  1  0
 35  2  1  0
 31  7  1  0
M  END
>  <cnnaffinity>  (1) 
-5.24416

>  <filename>  (1) 
CCCCCCc1n[nH]c(=S)n1-c1cccnc1

$$$$
