
     RDKit          3D

 45 47  0  0  0  0  0  0  0  0999 V2000
    6.7287   -4.7123   22.7113 C   0  0  0  0  0  0  0  0  0  0  0  0
    8.0709   -4.3106   23.3189 C   0  0  0  0  0  0  0  0  0  0  0  0
    8.8905   -3.5089   22.2973 C   0  0  0  0  0  0  0  0  0  0  0  0
    8.3243   -2.1750   21.9745 C   0  0  0  0  0  0  0  0  0  0  0  0
    7.7607   -1.9163   20.8138 N   0  0  0  0  0  0  0  0  0  0  0  0
    7.3699   -0.6249   20.9506 N   0  0  0  0  0  0  0  0  0  0  0  0
    6.6488    0.0239   19.9132 C   0  0  0  0  0  0  0  0  0  0  0  0
    5.4343    0.6711   20.1569 C   0  0  0  0  0  0  0  0  0  0  0  0
    4.8105    1.3153   19.0835 C   0  0  0  0  0  0  0  0  0  0  0  0
    5.4203    1.2873   17.8261 C   0  0  0  0  0  0  0  0  0  0  0  0
    6.5739    0.6409   17.5825 N   0  0  0  0  0  0  0  0  0  0  0  0
    7.1649    0.0127   18.6059 C   0  0  0  0  0  0  0  0  0  0  0  0
    8.0936   -0.5143   18.3970 H   0  0  0  0  0  0  0  0  0  0  0  0
    4.9657    1.7975   16.9797 H   0  0  0  0  0  0  0  0  0  0  0  0
    3.8766    1.8449   19.2220 H   0  0  0  0  0  0  0  0  0  0  0  0
    4.9868    0.6538   21.1515 H   0  0  0  0  0  0  0  0  0  0  0  0
    7.7730   -0.1712   22.1704 C   0  0  0  0  0  0  0  0  0  0  0  0
    7.6790    1.2466   22.5957 C   0  0  0  0  0  0  0  0  0  0  0  0
    8.6176    2.2009   21.8294 C   0  0  0  0  0  0  0  0  0  0  0  0
    8.4056    3.6195   22.2752 C   0  0  0  0  0  0  0  0  0  0  0  0
    7.3420    4.3559   21.7482 C   0  0  0  0  0  0  0  0  0  0  0  0
    7.2258    5.7303   21.9820 C   0  0  0  0  0  0  0  0  0  0  0  0
    6.2662    6.5781   21.1859 C   0  0  0  0  0  0  0  0  0  0  0  0
    5.2222    6.5000   21.5105 H   0  0  0  0  0  0  0  0  0  0  0  0
    6.5585    7.6331   21.2159 H   0  0  0  0  0  0  0  0  0  0  0  0
    6.2928    6.2711   20.1404 H   0  0  0  0  0  0  0  0  0  0  0  0
    8.1123    6.3183   22.8918 C   0  0  0  0  0  0  0  0  0  0  0  0
    9.0989    5.5694   23.5370 C   0  0  0  0  0  0  0  0  0  0  0  0
    9.2582    4.2228   23.2097 C   0  0  0  0  0  0  0  0  0  0  0  0
   10.0698    3.6493   23.6450 H   0  0  0  0  0  0  0  0  0  0  0  0
    9.7751    6.0423   24.2417 H   0  0  0  0  0  0  0  0  0  0  0  0
    8.0627    7.3901   23.0465 H   0  0  0  0  0  0  0  0  0  0  0  0
    6.6139    3.8518   21.1141 H   0  0  0  0  0  0  0  0  0  0  0  0
    9.6685    1.9171   21.9873 H   0  0  0  0  0  0  0  0  0  0  0  0
    8.4276    2.1369   20.7486 H   0  0  0  0  0  0  0  0  0  0  0  0
    6.6469    1.5857   22.4789 H   0  0  0  0  0  0  0  0  0  0  0  0
    7.9040    1.2907   23.6620 H   0  0  0  0  0  0  0  0  0  0  0  0
    8.3642   -1.1356   22.8440 N   0  0  0  0  0  0  0  0  0  0  0  0
    8.8750   -4.0410   21.3479 H   0  0  0  0  0  0  0  0  0  0  0  0
    9.9238   -3.3645   22.6341 H   0  0  0  0  0  0  0  0  0  0  0  0
    8.6413   -5.2036   23.6072 H   0  0  0  0  0  0  0  0  0  0  0  0
    7.9318   -3.7179   24.2344 H   0  0  0  0  0  0  0  0  0  0  0  0
    6.8883   -5.3115   21.8048 H   0  0  0  0  0  0  0  0  0  0  0  0
    6.1263   -5.3087   23.4024 H   0  0  0  0  0  0  0  0  0  0  0  0
    6.1444   -3.8316   22.4182 H   0  0  0  0  0  0  0  0  0  0  0  0
  1  2  1  0
  2  3  1  0
  3  4  1  0
  4  5  2  0
  5  6  1  0
  6  7  1  0
  7  8  2  0
  8  9  1  0
  9 10  2  0
 10 11  1  0
 11 12  2  0
 12 13  1  0
 10 14  1  0
  9 15  1  0
  8 16  1  0
  6 17  1  0
 17 18  1  0
 18 19  1  0
 19 20  1  0
 20 21  2  0
 21 22  1  0
 22 23  1  0
 23 24  1  0
 23 25  1  0
 23 26  1  0
 22 27  2  0
 27 28  1  0
 28 29  2  0
 29 30  1  0
 28 31  1  0
 27 32  1  0
 21 33  1  0
 19 34  1  0
 19 35  1  0
 18 36  1  0
 18 37  1  0
 17 38  2  0
  3 39  1  0
  3 40  1  0
  2 41  1  0
  2 42  1  0
  1 43  1  0
  1 44  1  0
  1 45  1  0
 38  4  1  0
 12  7  1  0
 29 20  1  0
M  END
>  <cnnaffinity>  (1) 
-5.62069

>  <filename>  (1) 
CCCc1nc(CCc2cccc(C)c2)n(-c2cccnc2)n1

$$$$
