
     RDKit          3D

 38 40  0  0  0  0  0  0  0  0999 V2000
    8.5165   -5.7624   23.3389 C   0  0  0  0  0  0  0  0  0  0  0  0
    7.8548   -4.4143   23.0577 C   0  0  0  0  0  0  0  0  0  0  0  0
    8.7516   -3.4796   22.2320 C   0  0  0  0  0  0  0  0  0  0  0  0
    8.2227   -2.1033   22.0002 C   0  0  0  0  0  0  0  0  0  0  0  0
    7.8442   -1.7462   20.7933 N   0  0  0  0  0  0  0  0  0  0  0  0
    7.3893   -0.4857   20.9666 N   0  0  0  0  0  0  0  0  0  0  0  0
    6.6548    0.1185   19.9175 C   0  0  0  0  0  0  0  0  0  0  0  0
    5.4250    0.7472   20.1414 C   0  0  0  0  0  0  0  0  0  0  0  0
    4.8004    1.3573   19.0495 C   0  0  0  0  0  0  0  0  0  0  0  0
    5.4132    1.3078   17.7928 C   0  0  0  0  0  0  0  0  0  0  0  0
    6.5597    0.6435   17.5620 N   0  0  0  0  0  0  0  0  0  0  0  0
    7.1459    0.0414   18.6010 C   0  0  0  0  0  0  0  0  0  0  0  0
    8.0366   -0.5434   18.3892 H   0  0  0  0  0  0  0  0  0  0  0  0
    4.9628    1.8062   16.9369 H   0  0  0  0  0  0  0  0  0  0  0  0
    3.8508    1.8659   19.1671 H   0  0  0  0  0  0  0  0  0  0  0  0
    4.9569    0.7190   21.1258 H   0  0  0  0  0  0  0  0  0  0  0  0
    7.6068   -0.1031   22.2620 C   0  0  0  0  0  0  0  0  0  0  0  0
    7.5689    1.3482   22.6730 C   0  0  0  0  0  0  0  0  0  0  0  0
    8.5346    2.2714   21.8525 C   0  0  0  0  0  0  0  0  0  0  0  0
    9.9806    1.8608   21.9928 C   0  0  0  0  0  0  0  0  0  0  0  0
   10.5286    0.7973   21.3485 C   0  0  0  0  0  0  0  0  0  0  0  0
   12.0396    0.3700   22.0302 S   0  0  0  0  0  0  0  0  0  0  0  0
   11.8639    1.6981   23.1237 C   0  0  0  0  0  0  0  0  0  0  0  0
   10.7786    2.3950   22.9888 N   0  0  0  0  0  0  0  0  0  0  0  0
   12.6157    1.8815   23.8840 H   0  0  0  0  0  0  0  0  0  0  0  0
   10.0708    0.2097   20.5711 H   0  0  0  0  0  0  0  0  0  0  0  0
    8.2407    2.2638   20.7938 H   0  0  0  0  0  0  0  0  0  0  0  0
    8.4409    3.2971   22.2182 H   0  0  0  0  0  0  0  0  0  0  0  0
    7.8204    1.3977   23.7373 H   0  0  0  0  0  0  0  0  0  0  0  0
    6.5464    1.7279   22.5824 H   0  0  0  0  0  0  0  0  0  0  0  0
    8.0848   -1.1313   22.9490 N   0  0  0  0  0  0  0  0  0  0  0  0
    8.8880   -3.9075   21.2336 H   0  0  0  0  0  0  0  0  0  0  0  0
    9.7307   -3.3875   22.7138 H   0  0  0  0  0  0  0  0  0  0  0  0
    6.9194   -4.5849   22.5097 H   0  0  0  0  0  0  0  0  0  0  0  0
    7.5919   -3.9231   24.0044 H   0  0  0  0  0  0  0  0  0  0  0  0
    8.8566   -6.2537   22.4182 H   0  0  0  0  0  0  0  0  0  0  0  0
    7.8082   -6.4392   23.8215 H   0  0  0  0  0  0  0  0  0  0  0  0
    9.3800   -5.6558   24.0066 H   0  0  0  0  0  0  0  0  0  0  0  0
  1  2  1  0
  2  3  1  0
  3  4  1  0
  4  5  2  0
  5  6  1  0
  6  7  1  0
  7  8  2  0
  8  9  1  0
  9 10  2  0
 10 11  1  0
 11 12  2  0
 12 13  1  0
 10 14  1  0
  9 15  1  0
  8 16  1  0
  6 17  1  0
 17 18  1  0
 18 19  1  0
 19 20  1  0
 20 21  2  0
 21 22  1  0
 22 23  1  0
 23 24  2  0
 23 25  1  0
 21 26  1  0
 19 27  1  0
 19 28  1  0
 18 29  1  0
 18 30  1  0
 17 31  2  0
  3 32  1  0
  3 33  1  0
  2 34  1  0
  2 35  1  0
  1 36  1  0
  1 37  1  0
  1 38  1  0
 31  4  1  0
 12  7  1  0
 24 20  1  0
M  END
>  <cnnaffinity>  (1) 
-5.74015

>  <filename>  (1) 
CCCc1nc(CCc2cscn2)n(-c2cccnc2)n1

$$$$
