
     RDKit          3D

 48 50  0  0  0  0  0  0  0  0999 V2000
    6.2498   -0.3112   26.4717 C   0  0  0  0  0  0  0  0  0  0  0  0
    7.1293   -0.9578   25.3996 C   0  0  0  0  0  0  0  0  0  0  0  0
    6.5224   -2.2527   24.8421 C   0  0  0  0  0  0  0  0  0  0  0  0
    7.3848   -2.9439   23.7526 C   0  0  0  0  0  0  0  0  0  0  0  0
    6.7630   -4.2716   23.2948 C   0  0  0  0  0  0  0  0  0  0  0  0
    5.7866   -4.1140   22.8214 H   0  0  0  0  0  0  0  0  0  0  0  0
    6.6218   -4.9367   24.1547 H   0  0  0  0  0  0  0  0  0  0  0  0
    7.4118   -4.7800   22.5740 H   0  0  0  0  0  0  0  0  0  0  0  0
    7.6614   -1.9961   22.6098 C   0  0  0  0  0  0  0  0  0  0  0  0
    6.7734   -1.6489   21.6991 N   0  0  0  0  0  0  0  0  0  0  0  0
    7.4041   -0.6566   21.0098 N   0  0  0  0  0  0  0  0  0  0  0  0
    6.7078   -0.0124   19.9393 C   0  0  0  0  0  0  0  0  0  0  0  0
    5.4676    0.6026   20.1716 C   0  0  0  0  0  0  0  0  0  0  0  0
    4.8509    1.2724   19.1090 C   0  0  0  0  0  0  0  0  0  0  0  0
    5.4731    1.2738   17.8546 C   0  0  0  0  0  0  0  0  0  0  0  0
    6.6338    0.6437   17.6151 N   0  0  0  0  0  0  0  0  0  0  0  0
    7.2267    0.0070   18.6341 C   0  0  0  0  0  0  0  0  0  0  0  0
    8.1484   -0.5249   18.3959 H   0  0  0  0  0  0  0  0  0  0  0  0
    5.0171    1.7786   17.0043 H   0  0  0  0  0  0  0  0  0  0  0  0
    3.9043    1.7900   19.2366 H   0  0  0  0  0  0  0  0  0  0  0  0
    5.0142    0.5530   21.1635 H   0  0  0  0  0  0  0  0  0  0  0  0
    8.6269   -0.4404   21.5819 C   0  0  0  0  0  0  0  0  0  0  0  0
    9.5115    0.7617   21.3681 C   0  0  0  0  0  0  0  0  0  0  0  0
    8.9764    1.9867   21.9927 N   0  0  0  0  0  0  0  0  0  0  0  0
    8.0538    2.7354   21.3080 C   0  0  0  0  0  0  0  0  0  0  0  0
    7.4642    3.8286   21.8679 C   0  0  0  0  0  0  0  0  0  0  0  0
    7.7486    4.1458   23.2191 C   0  0  0  0  0  0  0  0  0  0  0  0
    8.5441    3.3482   23.9931 C   0  0  0  0  0  0  0  0  0  0  0  0
    8.7065    3.5750   25.4613 C   0  0  0  0  0  0  0  0  0  0  0  0
    8.2162    2.7939   26.0573 H   0  0  0  0  0  0  0  0  0  0  0  0
    9.7565    3.5629   25.7331 H   0  0  0  0  0  0  0  0  0  0  0  0
    8.2788    4.5344   25.7651 H   0  0  0  0  0  0  0  0  0  0  0  0
    9.2587    2.2228   23.3735 C   0  0  0  0  0  0  0  0  0  0  0  0
   10.0559    1.5012   23.9658 O   0  0  0  0  0  0  0  0  0  0  0  0
    7.3458    5.0608   23.6513 H   0  0  0  0  0  0  0  0  0  0  0  0
    6.7995    4.4765   21.3018 H   0  0  0  0  0  0  0  0  0  0  0  0
    7.8594    2.4160   20.2852 H   0  0  0  0  0  0  0  0  0  0  0  0
   10.4683    0.5481   21.8474 H   0  0  0  0  0  0  0  0  0  0  0  0
    9.6860    0.9267   20.3018 H   0  0  0  0  0  0  0  0  0  0  0  0
    8.8270   -1.3086   22.5519 N   0  0  0  0  0  0  0  0  0  0  0  0
    8.3775   -3.1416   24.1786 H   0  0  0  0  0  0  0  0  0  0  0  0
    5.5257   -2.0448   24.4256 H   0  0  0  0  0  0  0  0  0  0  0  0
    6.3623   -2.9649   25.6662 H   0  0  0  0  0  0  0  0  0  0  0  0
    7.2978   -0.2405   24.5834 H   0  0  0  0  0  0  0  0  0  0  0  0
    8.1297   -1.1740   25.8032 H   0  0  0  0  0  0  0  0  0  0  0  0
    5.2720   -0.0284   26.0620 H   0  0  0  0  0  0  0  0  0  0  0  0
    6.0753   -0.9890   27.3165 H   0  0  0  0  0  0  0  0  0  0  0  0
    6.7187    0.5975   26.8646 H   0  0  0  0  0  0  0  0  0  0  0  0
  1  2  1  0
  2  3  1  0
  3  4  1  0
  4  5  1  0
  5  6  1  0
  5  7  1  0
  5  8  1  0
  4  9  1  0
  9 10  2  0
 10 11  1  0
 11 12  1  0
 12 13  2  0
 13 14  1  0
 14 15  2  0
 15 16  1  0
 16 17  2  0
 17 18  1  0
 15 19  1  0
 14 20  1  0
 13 21  1  0
 11 22  1  0
 22 23  1  0
 23 24  1  0
 24 25  1  0
 25 26  2  0
 26 27  1  0
 27 28  2  0
 28 29  1  0
 29 30  1  0
 29 31  1  0
 29 32  1  0
 28 33  1  0
 33 34  2  0
 27 35  1  0
 26 36  1  0
 25 37  1  0
 23 38  1  0
 23 39  1  0
 22 40  2  0
  4 41  1  0
  3 42  1  0
  3 43  1  0
  2 44  1  0
  2 45  1  0
  1 46  1  0
  1 47  1  0
  1 48  1  0
 40  9  1  0
 17 12  1  0
 33 24  1  0
M  END
>  <cnnaffinity>  (1) 
-5.87655

>  <filename>  (1) 
CCCC(C)c1nc(Cn2cccc(C)c2=O)n(-c2cccnc2)n1

$$$$
