
     RDKit          3D

 40 42  0  0  0  0  0  0  0  0999 V2000
    7.2286   -4.1620   24.1600 C   0  0  0  0  0  0  0  0  0  0  0  0
    7.7893   -4.5527   22.7983 C   0  0  0  0  0  0  0  0  0  0  0  0
    8.7359   -3.5114   22.1772 C   0  0  0  0  0  0  0  0  0  0  0  0
    8.1880   -2.1372   21.9902 C   0  0  0  0  0  0  0  0  0  0  0  0
    7.6915   -1.8059   20.8201 N   0  0  0  0  0  0  0  0  0  0  0  0
    7.3276   -0.5172   20.9913 N   0  0  0  0  0  0  0  0  0  0  0  0
    6.6308    0.1215   19.9391 C   0  0  0  0  0  0  0  0  0  0  0  0
    5.4111    0.7654   20.1493 C   0  0  0  0  0  0  0  0  0  0  0  0
    4.8075    1.3706   19.0436 C   0  0  0  0  0  0  0  0  0  0  0  0
    5.4364    1.3092   17.7955 C   0  0  0  0  0  0  0  0  0  0  0  0
    6.5861    0.6410   17.5856 N   0  0  0  0  0  0  0  0  0  0  0  0
    7.1491    0.0373   18.6350 C   0  0  0  0  0  0  0  0  0  0  0  0
    8.0466   -0.5515   18.4556 H   0  0  0  0  0  0  0  0  0  0  0  0
    4.9969    1.7998   16.9291 H   0  0  0  0  0  0  0  0  0  0  0  0
    3.8539    1.8718   19.1433 H   0  0  0  0  0  0  0  0  0  0  0  0
    4.9356    0.7330   21.1315 H   0  0  0  0  0  0  0  0  0  0  0  0
    7.6912   -0.1103   22.2425 C   0  0  0  0  0  0  0  0  0  0  0  0
    7.6709    1.3302   22.6575 C   0  0  0  0  0  0  0  0  0  0  0  0
    8.6281    2.2507   21.8494 C   0  0  0  0  0  0  0  0  0  0  0  0
    8.4973    3.6879   22.2897 C   0  0  0  0  0  0  0  0  0  0  0  0
    7.4404    4.4751   21.8421 C   0  0  0  0  0  0  0  0  0  0  0  0
    7.4596    5.8093   22.2106 C   0  0  0  0  0  0  0  0  0  0  0  0
    8.3880    6.3225   23.0240 N   0  0  0  0  0  0  0  0  0  0  0  0
    9.3015    5.4582   23.4731 C   0  0  0  0  0  0  0  0  0  0  0  0
    9.3866    4.1617   23.1694 N   0  0  0  0  0  0  0  0  0  0  0  0
   10.0580    5.8335   24.1651 H   0  0  0  0  0  0  0  0  0  0  0  0
    6.7079    6.4957   21.8101 H   0  0  0  0  0  0  0  0  0  0  0  0
    6.6343    4.0752   21.2370 H   0  0  0  0  0  0  0  0  0  0  0  0
    8.4020    2.1588   20.7770 H   0  0  0  0  0  0  0  0  0  0  0  0
    9.6712    1.9444   21.9954 H   0  0  0  0  0  0  0  0  0  0  0  0
    6.6465    1.7104   22.5633 H   0  0  0  0  0  0  0  0  0  0  0  0
    7.9224    1.3958   23.7180 H   0  0  0  0  0  0  0  0  0  0  0  0
    8.1968   -1.1358   22.9112 N   0  0  0  0  0  0  0  0  0  0  0  0
    8.9775   -3.8360   21.1657 H   0  0  0  0  0  0  0  0  0  0  0  0
    9.6598   -3.4199   22.7576 H   0  0  0  0  0  0  0  0  0  0  0  0
    8.3387   -5.5028   22.8823 H   0  0  0  0  0  0  0  0  0  0  0  0
    6.9581   -4.7350   22.1032 H   0  0  0  0  0  0  0  0  0  0  0  0
    8.0189   -4.0850   24.9160 H   0  0  0  0  0  0  0  0  0  0  0  0
    6.5043   -4.9139   24.4907 H   0  0  0  0  0  0  0  0  0  0  0  0
    6.7245   -3.1892   24.1150 H   0  0  0  0  0  0  0  0  0  0  0  0
  1  2  1  0
  2  3  1  0
  3  4  1  0
  4  5  2  0
  5  6  1  0
  6  7  1  0
  7  8  2  0
  8  9  1  0
  9 10  2  0
 10 11  1  0
 11 12  2  0
 12 13  1  0
 10 14  1  0
  9 15  1  0
  8 16  1  0
  6 17  1  0
 17 18  1  0
 18 19  1  0
 19 20  1  0
 20 21  2  0
 21 22  1  0
 22 23  2  0
 23 24  1  0
 24 25  2  0
 24 26  1  0
 22 27  1  0
 21 28  1  0
 19 29  1  0
 19 30  1  0
 18 31  1  0
 18 32  1  0
 17 33  2  0
  3 34  1  0
  3 35  1  0
  2 36  1  0
  2 37  1  0
  1 38  1  0
  1 39  1  0
  1 40  1  0
 33  4  1  0
 12  7  1  0
 25 20  1  0
M  END
>  <cnnaffinity>  (1) 
-5.45239

>  <filename>  (1) 
CCCc1nc(CCc2ccncn2)n(-c2cccnc2)n1

$$$$
