
     RDKit          3D

 42 43  0  0  0  0  0  0  0  0999 V2000
    5.0057    1.7925   16.9689 H   0  0  0  0  0  0  0  0  0  0  0  0
    5.4585    1.3142   17.8356 C   0  0  0  0  0  0  0  0  0  0  0  0
    6.6400    0.7091   17.6353 N   0  0  0  0  0  0  0  0  0  0  0  0
    7.2085    0.0892   18.6800 C   0  0  0  0  0  0  0  0  0  0  0  0
    8.1715   -0.3860   18.4968 H   0  0  0  0  0  0  0  0  0  0  0  0
    6.6325    0.0402   19.9654 C   0  0  0  0  0  0  0  0  0  0  0  0
    7.2695   -0.6660   21.0368 N   0  0  0  0  0  0  0  0  0  0  0  0
    7.5372   -2.0111   21.0739 C   0  0  0  0  0  0  0  0  0  0  0  0
    7.1669   -2.6574   20.2904 H   0  0  0  0  0  0  0  0  0  0  0  0
    8.2189   -2.3688   22.1298 N   0  0  0  0  0  0  0  0  0  0  0  0
    8.3967   -1.2013   22.8335 C   0  0  0  0  0  0  0  0  0  0  0  0
    8.9972   -1.1877   23.7326 H   0  0  0  0  0  0  0  0  0  0  0  0
    7.7934   -0.1376   22.2110 C   0  0  0  0  0  0  0  0  0  0  0  0
    7.6536    1.3110   22.5645 C   0  0  0  0  0  0  0  0  0  0  0  0
    6.6017    1.6147   22.5095 H   0  0  0  0  0  0  0  0  0  0  0  0
    7.9325    1.4379   23.6164 H   0  0  0  0  0  0  0  0  0  0  0  0
    8.5205    2.2269   21.6748 C   0  0  0  0  0  0  0  0  0  0  0  0
    8.3817    3.2730   21.9819 H   0  0  0  0  0  0  0  0  0  0  0  0
    8.1654    2.1558   20.6375 H   0  0  0  0  0  0  0  0  0  0  0  0
   10.0036    1.8502   21.7585 C   0  0  0  0  0  0  0  0  0  0  0  0
   10.5924    2.5099   21.1082 H   0  0  0  0  0  0  0  0  0  0  0  0
   10.1250    0.8327   21.3530 H   0  0  0  0  0  0  0  0  0  0  0  0
   10.5506    1.8754   23.1943 C   0  0  0  0  0  0  0  0  0  0  0  0
   10.4378    2.8854   23.6172 H   0  0  0  0  0  0  0  0  0  0  0  0
    9.9480    1.2032   23.8175 H   0  0  0  0  0  0  0  0  0  0  0  0
   12.0026    1.4192   23.3099 C   0  0  0  0  0  0  0  0  0  0  0  0
   12.0526    0.3682   22.9882 H   0  0  0  0  0  0  0  0  0  0  0  0
   12.3126    1.4305   24.3660 H   0  0  0  0  0  0  0  0  0  0  0  0
   12.9724    2.2280   22.4492 C   0  0  0  0  0  0  0  0  0  0  0  0
   12.7068    2.0640   21.3967 H   0  0  0  0  0  0  0  0  0  0  0  0
   13.9822    1.8205   22.5768 H   0  0  0  0  0  0  0  0  0  0  0  0
   13.0212    3.7391   22.6884 C   0  0  0  0  0  0  0  0  0  0  0  0
   12.0391    4.1897   22.4975 H   0  0  0  0  0  0  0  0  0  0  0  0
   13.2573    3.9440   23.7391 H   0  0  0  0  0  0  0  0  0  0  0  0
   14.0329    4.4304   21.7730 C   0  0  0  0  0  0  0  0  0  0  0  0
   13.6333    4.5110   20.7561 H   0  0  0  0  0  0  0  0  0  0  0  0
   14.9774    3.8814   21.7231 H   0  0  0  0  0  0  0  0  0  0  0  0
   14.2827    5.4421   22.0975 H   0  0  0  0  0  0  0  0  0  0  0  0
    5.4077    0.6909   20.1583 C   0  0  0  0  0  0  0  0  0  0  0  0
    4.9512    0.6797   21.1481 H   0  0  0  0  0  0  0  0  0  0  0  0
    4.8080    1.3287   19.0713 C   0  0  0  0  0  0  0  0  0  0  0  0
    3.8524    1.8315   19.1813 H   0  0  0  0  0  0  0  0  0  0  0  0
  1  2  1  0
  2  3  2  0
  3  4  1  0
  4  5  1  0
  4  6  2  0
  6  7  1  0
  7  8  1  0
  8  9  1  0
  8 10  2  0
 10 11  1  0
 11 12  1  0
 11 13  2  0
 13 14  1  0
 14 15  1  0
 14 16  1  0
 14 17  1  0
 17 18  1  0
 17 19  1  0
 17 20  1  0
 20 21  1  0
 20 22  1  0
 20 23  1  0
 23 24  1  0
 23 25  1  0
 23 26  1  0
 26 27  1  0
 26 28  1  0
 26 29  1  0
 29 30  1  0
 29 31  1  0
 29 32  1  0
 32 33  1  0
 32 34  1  0
 32 35  1  0
 35 36  1  0
 35 37  1  0
 35 38  1  0
  6 39  1  0
 39 40  1  0
 39 41  2  0
 41 42  1  0
 41  2  1  0
 13  7  1  0
M  END
>  <cnnaffinity>  (1) 
-5.32159

>  <filename>  (1) 
CCCCCCCCc1cncn1-c1cccnc1

$$$$
