
     RDKit          3D

 41 43  0  0  0  0  0  0  0  0999 V2000
    8.4186   -4.8379   22.4919 C   0  0  0  0  0  0  0  0  0  0  0  0
    7.0979   -4.4534   23.1432 C   0  0  0  0  0  0  0  0  0  0  0  0
    7.1303   -3.0113   23.6923 C   0  0  0  0  0  0  0  0  0  0  0  0
    7.4293   -1.9911   22.6324 C   0  0  0  0  0  0  0  0  0  0  0  0
    6.5363   -1.6246   21.7371 N   0  0  0  0  0  0  0  0  0  0  0  0
    7.2359   -0.7978   20.9178 N   0  0  0  0  0  0  0  0  0  0  0  0
    6.5723   -0.1015   19.8648 C   0  0  0  0  0  0  0  0  0  0  0  0
    5.3808    0.5909   20.1167 C   0  0  0  0  0  0  0  0  0  0  0  0
    4.8011    1.3179   19.0756 C   0  0  0  0  0  0  0  0  0  0  0  0
    5.4163    1.3085   17.8166 C   0  0  0  0  0  0  0  0  0  0  0  0
    6.5383    0.6194   17.5556 N   0  0  0  0  0  0  0  0  0  0  0  0
    7.0939   -0.0697   18.5589 C   0  0  0  0  0  0  0  0  0  0  0  0
    8.0046   -0.6185   18.3197 H   0  0  0  0  0  0  0  0  0  0  0  0
    4.9852    1.8594   16.9850 H   0  0  0  0  0  0  0  0  0  0  0  0
    3.8899    1.8904   19.2250 H   0  0  0  0  0  0  0  0  0  0  0  0
    4.9395    0.5461   21.1132 H   0  0  0  0  0  0  0  0  0  0  0  0
    8.5201   -0.7025   21.3839 C   0  0  0  0  0  0  0  0  0  0  0  0
    9.6142    0.0455   20.6884 C   0  0  0  0  0  0  0  0  0  0  0  0
   10.6490    0.6248   21.6144 C   0  0  0  0  0  0  0  0  0  0  0  0
   11.8541   -0.0073   21.9238 C   0  0  0  0  0  0  0  0  0  0  0  0
   12.7166    0.6113   22.8415 C   0  0  0  0  0  0  0  0  0  0  0  0
   12.4361    1.7714   23.4455 N   0  0  0  0  0  0  0  0  0  0  0  0
   11.2760    2.3777   23.1472 C   0  0  0  0  0  0  0  0  0  0  0  0
   10.8813    3.6912   23.8505 C   0  0  0  0  0  0  0  0  0  0  0  0
   11.9044    4.3647   24.3810 F   0  0  0  0  0  0  0  0  0  0  0  0
    9.9992    3.4303   24.8371 F   0  0  0  0  0  0  0  0  0  0  0  0
   10.2570    4.5381   23.0021 F   0  0  0  0  0  0  0  0  0  0  0  0
   10.3614    1.8376   22.2372 C   0  0  0  0  0  0  0  0  0  0  0  0
    9.4316    2.3555   22.0362 H   0  0  0  0  0  0  0  0  0  0  0  0
   13.6667    0.1652   23.1275 H   0  0  0  0  0  0  0  0  0  0  0  0
   12.1468   -0.9424   21.4536 H   0  0  0  0  0  0  0  0  0  0  0  0
    9.1783    0.8769   20.1322 H   0  0  0  0  0  0  0  0  0  0  0  0
   10.0771   -0.6299   19.9654 H   0  0  0  0  0  0  0  0  0  0  0  0
    8.6636   -1.4478   22.4624 N   0  0  0  0  0  0  0  0  0  0  0  0
    6.1700   -2.7713   24.1588 H   0  0  0  0  0  0  0  0  0  0  0  0
    7.9169   -2.9192   24.4493 H   0  0  0  0  0  0  0  0  0  0  0  0
    6.8935   -5.1486   23.9679 H   0  0  0  0  0  0  0  0  0  0  0  0
    6.2731   -4.5615   22.4270 H   0  0  0  0  0  0  0  0  0  0  0  0
    9.2203   -4.8015   23.2373 H   0  0  0  0  0  0  0  0  0  0  0  0
    8.3831   -5.8498   22.0823 H   0  0  0  0  0  0  0  0  0  0  0  0
    8.6866   -4.1502   21.6818 H   0  0  0  0  0  0  0  0  0  0  0  0
  1  2  1  0
  2  3  1  0
  3  4  1  0
  4  5  2  0
  5  6  1  0
  6  7  1  0
  7  8  2  0
  8  9  1  0
  9 10  2  0
 10 11  1  0
 11 12  2  0
 12 13  1  0
 10 14  1  0
  9 15  1  0
  8 16  1  0
  6 17  1  0
 17 18  1  0
 18 19  1  0
 19 20  2  0
 20 21  1  0
 21 22  2  0
 22 23  1  0
 23 24  1  0
 24 25  1  0
 24 26  1  0
 24 27  1  0
 23 28  2  0
 28 29  1  0
 21 30  1  0
 20 31  1  0
 18 32  1  0
 18 33  1  0
 17 34  2  0
  3 35  1  0
  3 36  1  0
  2 37  1  0
  2 38  1  0
  1 39  1  0
  1 40  1  0
  1 41  1  0
 34  4  1  0
 12  7  1  0
 28 19  1  0
M  END
>  <cnnaffinity>  (1) 
-6.21509

>  <filename>  (1) 
CCCc1nc(Cc2ccnc(C(F)(F)F)c2)n(-c2cccnc2)n1

$$$$
