
     RDKit          3D

 45 47  0  0  0  0  0  0  0  0999 V2000
    8.2629   -6.2209   22.2446 C   0  0  0  0  0  0  0  0  0  0  0  0
    8.3241   -4.8028   22.8048 C   0  0  0  0  0  0  0  0  0  0  0  0
    6.9916   -4.2944   23.3588 C   0  0  0  0  0  0  0  0  0  0  0  0
    7.0609   -2.8241   23.8565 C   0  0  0  0  0  0  0  0  0  0  0  0
    8.0745   -2.6595   25.0076 C   0  0  0  0  0  0  0  0  0  0  0  0
    7.9096   -3.4263   25.7756 H   0  0  0  0  0  0  0  0  0  0  0  0
    7.9896   -1.6774   25.4855 H   0  0  0  0  0  0  0  0  0  0  0  0
    9.1076   -2.7616   24.6509 H   0  0  0  0  0  0  0  0  0  0  0  0
    7.3263   -1.8826   22.7011 C   0  0  0  0  0  0  0  0  0  0  0  0
    6.3972   -1.5917   21.8048 N   0  0  0  0  0  0  0  0  0  0  0  0
    7.0571   -0.7963   20.9224 N   0  0  0  0  0  0  0  0  0  0  0  0
    6.3917   -0.1648   19.8389 C   0  0  0  0  0  0  0  0  0  0  0  0
    5.2215    0.5614   20.0713 C   0  0  0  0  0  0  0  0  0  0  0  0
    4.7097    1.3312   19.0246 C   0  0  0  0  0  0  0  0  0  0  0  0
    5.3533    1.3160   17.7804 C   0  0  0  0  0  0  0  0  0  0  0  0
    6.4344    0.5625   17.5304 N   0  0  0  0  0  0  0  0  0  0  0  0
    6.9286   -0.1671   18.5368 C   0  0  0  0  0  0  0  0  0  0  0  0
    7.8103   -0.7625   18.3048 H   0  0  0  0  0  0  0  0  0  0  0  0
    4.9865    1.9204   16.9533 H   0  0  0  0  0  0  0  0  0  0  0  0
    3.8350    1.9536   19.1649 H   0  0  0  0  0  0  0  0  0  0  0  0
    4.7558    0.5198   21.0567 H   0  0  0  0  0  0  0  0  0  0  0  0
    8.3357   -0.6206   21.3573 C   0  0  0  0  0  0  0  0  0  0  0  0
    9.3309    0.1980   20.5930 C   0  0  0  0  0  0  0  0  0  0  0  0
   10.5020    0.6341   21.3962 C   0  0  0  0  0  0  0  0  0  0  0  0
   11.7198    0.0288   21.5876 C   0  0  0  0  0  0  0  0  0  0  0  0
   12.3821    0.8735   22.5026 C   0  0  0  0  0  0  0  0  0  0  0  0
   13.7835    0.7413   23.0285 C   0  0  0  0  0  0  0  0  0  0  0  0
   14.4815   -0.2015   22.3604 F   0  0  0  0  0  0  0  0  0  0  0  0
   13.8017    0.4092   24.3312 F   0  0  0  0  0  0  0  0  0  0  0  0
   14.4503    1.8874   22.8774 F   0  0  0  0  0  0  0  0  0  0  0  0
   11.6334    1.9162   22.8508 N   0  0  0  0  0  0  0  0  0  0  0  0
   10.4944    1.7373   22.1826 N   0  0  0  0  0  0  0  0  0  0  0  0
    9.7880    2.4586   22.2089 H   0  0  0  0  0  0  0  0  0  0  0  0
   12.0668   -0.9014   21.1507 H   0  0  0  0  0  0  0  0  0  0  0  0
    8.8248    1.0616   20.1477 H   0  0  0  0  0  0  0  0  0  0  0  0
    9.6841   -0.4258   19.7655 H   0  0  0  0  0  0  0  0  0  0  0  0
    8.5364   -1.3121   22.4596 N   0  0  0  0  0  0  0  0  0  0  0  0
    6.0605   -2.5519   24.2167 H   0  0  0  0  0  0  0  0  0  0  0  0
    6.1989   -4.3719   22.6006 H   0  0  0  0  0  0  0  0  0  0  0  0
    6.6818   -4.9292   24.2012 H   0  0  0  0  0  0  0  0  0  0  0  0
    8.6809   -4.1010   22.0373 H   0  0  0  0  0  0  0  0  0  0  0  0
    9.0765   -4.7746   23.6058 H   0  0  0  0  0  0  0  0  0  0  0  0
    9.2657   -6.5458   21.9591 H   0  0  0  0  0  0  0  0  0  0  0  0
    7.8917   -6.9365   22.9910 H   0  0  0  0  0  0  0  0  0  0  0  0
    7.6356   -6.2814   21.3456 H   0  0  0  0  0  0  0  0  0  0  0  0
  1  2  1  0
  2  3  1  0
  3  4  1  0
  4  5  1  0
  5  6  1  0
  5  7  1  0
  5  8  1  0
  4  9  1  0
  9 10  2  0
 10 11  1  0
 11 12  1  0
 12 13  2  0
 13 14  1  0
 14 15  2  0
 15 16  1  0
 16 17  2  0
 17 18  1  0
 15 19  1  0
 14 20  1  0
 13 21  1  0
 11 22  1  0
 22 23  1  0
 23 24  1  0
 24 25  2  0
 25 26  1  0
 26 27  1  0
 27 28  1  0
 27 29  1  0
 27 30  1  0
 26 31  2  0
 31 32  1  0
 32 33  1  0
 25 34  1  0
 23 35  1  0
 23 36  1  0
 22 37  2  0
  4 38  1  0
  3 39  1  0
  3 40  1  0
  2 41  1  0
  2 42  1  0
  1 43  1  0
  1 44  1  0
  1 45  1  0
 37  9  1  0
 17 12  1  0
 32 24  1  0
M  END
>  <cnnaffinity>  (1) 
-6.38093

>  <filename>  (1) 
CCCC(C)c1nc(Cc2cc(C(F)(F)F)n[nH]2)n(-c2cccnc2)n1

$$$$
