
     RDKit          3D

 40 41  0  0  0  0  0  0  0  0999 V2000
    4.9936    1.7653   17.0094 H   0  0  0  0  0  0  0  0  0  0  0  0
    5.4605    1.2740   17.8591 C   0  0  0  0  0  0  0  0  0  0  0  0
    6.6341    0.6626   17.6178 N   0  0  0  0  0  0  0  0  0  0  0  0
    7.2507    0.0640   18.6426 C   0  0  0  0  0  0  0  0  0  0  0  0
    8.2089   -0.4142   18.4474 H   0  0  0  0  0  0  0  0  0  0  0  0
    6.6932    0.0084   19.9316 C   0  0  0  0  0  0  0  0  0  0  0  0
    7.3697   -0.6892   20.9682 N   0  0  0  0  0  0  0  0  0  0  0  0
    8.7536   -0.4852   20.9796 N   0  0  0  0  0  0  0  0  0  0  0  0
    9.4152   -0.8611   22.0144 C   0  0  0  0  0  0  0  0  0  0  0  0
   10.9098   -0.6542   22.0064 C   0  0  0  0  0  0  0  0  0  0  0  0
   11.3226   -1.1719   21.1341 H   0  0  0  0  0  0  0  0  0  0  0  0
   11.3343   -1.1447   22.8893 H   0  0  0  0  0  0  0  0  0  0  0  0
   11.3226    0.8265   21.9855 C   0  0  0  0  0  0  0  0  0  0  0  0
   12.4123    0.8895   21.8944 H   0  0  0  0  0  0  0  0  0  0  0  0
   10.9150    1.2964   21.0824 H   0  0  0  0  0  0  0  0  0  0  0  0
   10.8608    1.6104   23.2140 C   0  0  0  0  0  0  0  0  0  0  0  0
   11.3256    1.1851   24.1139 H   0  0  0  0  0  0  0  0  0  0  0  0
    9.7784    1.4731   23.3452 H   0  0  0  0  0  0  0  0  0  0  0  0
   11.1938    3.1038   23.1565 C   0  0  0  0  0  0  0  0  0  0  0  0
   10.7322    3.6121   24.0139 H   0  0  0  0  0  0  0  0  0  0  0  0
   10.7310    3.5483   22.2652 H   0  0  0  0  0  0  0  0  0  0  0  0
   12.6966    3.4035   23.1528 C   0  0  0  0  0  0  0  0  0  0  0  0
   13.1770    2.8135   23.9398 H   0  0  0  0  0  0  0  0  0  0  0  0
   13.1371    3.0536   22.2125 H   0  0  0  0  0  0  0  0  0  0  0  0
   13.0231    4.8845   23.3285 C   0  0  0  0  0  0  0  0  0  0  0  0
   12.5424    5.2962   24.2246 H   0  0  0  0  0  0  0  0  0  0  0  0
   12.6556    5.4451   22.4633 H   0  0  0  0  0  0  0  0  0  0  0  0
   14.1005    5.0723   23.4133 H   0  0  0  0  0  0  0  0  0  0  0  0
    8.7210   -1.4505   23.2287 C   0  0  0  0  0  0  0  0  0  0  0  0
    9.4371   -2.0518   23.7980 H   0  0  0  0  0  0  0  0  0  0  0  0
    8.4090   -0.6231   23.8858 H   0  0  0  0  0  0  0  0  0  0  0  0
    7.5260   -2.3146   22.7992 C   0  0  0  0  0  0  0  0  0  0  0  0
    6.8291   -2.5408   23.6109 H   0  0  0  0  0  0  0  0  0  0  0  0
    7.8723   -3.2759   22.3994 H   0  0  0  0  0  0  0  0  0  0  0  0
    6.7093   -1.7239   21.6660 C   0  0  0  0  0  0  0  0  0  0  0  0
    5.6165   -2.1642   21.3562 O   0  0  0  0  0  0  0  0  0  0  0  0
    5.4659    0.6289   20.1786 C   0  0  0  0  0  0  0  0  0  0  0  0
    5.0197    0.5788   21.1725 H   0  0  0  0  0  0  0  0  0  0  0  0
    4.8466    1.2921   19.1167 C   0  0  0  0  0  0  0  0  0  0  0  0
    3.9046    1.8137   19.2517 H   0  0  0  0  0  0  0  0  0  0  0  0
  1  2  1  0
  2  3  2  0
  3  4  1  0
  4  5  1  0
  4  6  2  0
  6  7  1  0
  7  8  1  0
  8  9  2  0
  9 10  1  0
 10 11  1  0
 10 12  1  0
 10 13  1  0
 13 14  1  0
 13 15  1  0
 13 16  1  0
 16 17  1  0
 16 18  1  0
 16 19  1  0
 19 20  1  0
 19 21  1  0
 19 22  1  0
 22 23  1  0
 22 24  1  0
 22 25  1  0
 25 26  1  0
 25 27  1  0
 25 28  1  0
  9 29  1  0
 29 30  1  0
 29 31  1  0
 29 32  1  0
 32 33  1  0
 32 34  1  0
 32 35  1  0
 35 36  2  0
  6 37  1  0
 37 38  1  0
 37 39  2  0
 39 40  1  0
 39  2  1  0
 35  7  1  0
M  END
>  <cnnaffinity>  (1) 
-5.91327

>  <filename>  (1) 
CCCCCCC1=NN(c2cccnc2)C(=O)CC1

$$$$
