
     RDKit          3D

 38 40  0  0  0  0  0  0  0  0999 V2000
    8.3656   -5.8919   23.1315 C   0  0  0  0  0  0  0  0  0  0  0  0
    7.7253   -4.5310   22.8705 C   0  0  0  0  0  0  0  0  0  0  0  0
    8.6997   -3.5554   22.1856 C   0  0  0  0  0  0  0  0  0  0  0  0
    8.1858   -2.1812   21.9546 C   0  0  0  0  0  0  0  0  0  0  0  0
    7.7360   -1.8427   20.7680 N   0  0  0  0  0  0  0  0  0  0  0  0
    7.3248   -0.5695   20.9453 N   0  0  0  0  0  0  0  0  0  0  0  0
    6.6276    0.0771   19.8993 C   0  0  0  0  0  0  0  0  0  0  0  0
    5.3960    0.6975   20.1270 C   0  0  0  0  0  0  0  0  0  0  0  0
    4.7790    1.3242   19.0425 C   0  0  0  0  0  0  0  0  0  0  0  0
    5.4094    1.2947   17.7948 C   0  0  0  0  0  0  0  0  0  0  0  0
    6.5612    0.6352   17.5616 N   0  0  0  0  0  0  0  0  0  0  0  0
    7.1476    0.0279   18.5958 C   0  0  0  0  0  0  0  0  0  0  0  0
    8.0717   -0.5203   18.4056 H   0  0  0  0  0  0  0  0  0  0  0  0
    4.9863    1.8278   16.9478 H   0  0  0  0  0  0  0  0  0  0  0  0
    3.8457    1.8604   19.1713 H   0  0  0  0  0  0  0  0  0  0  0  0
    4.9393    0.6650   21.1173 H   0  0  0  0  0  0  0  0  0  0  0  0
    7.5949   -0.1834   22.2255 C   0  0  0  0  0  0  0  0  0  0  0  0
    7.3685    1.1855   22.8070 C   0  0  0  0  0  0  0  0  0  0  0  0
    8.6189    1.7405   23.4745 C   0  0  0  0  0  0  0  0  0  0  0  0
    8.8146    1.6280   24.8514 C   0  0  0  0  0  0  0  0  0  0  0  0
   10.0331    2.0164   25.4102 C   0  0  0  0  0  0  0  0  0  0  0  0
   11.0159    2.5296   24.5724 C   0  0  0  0  0  0  0  0  0  0  0  0
   10.8703    2.6458   23.2510 N   0  0  0  0  0  0  0  0  0  0  0  0
    9.7202    2.2340   22.7447 C   0  0  0  0  0  0  0  0  0  0  0  0
    9.6540    2.2168   21.0271 Cl  0  0  0  0  0  0  0  0  0  0  0  0
   11.9744    2.8505   24.9625 H   0  0  0  0  0  0  0  0  0  0  0  0
   10.2247    1.8916   26.4609 H   0  0  0  0  0  0  0  0  0  0  0  0
    8.0358    1.2078   25.4830 H   0  0  0  0  0  0  0  0  0  0  0  0
    6.5523    1.1037   23.5342 H   0  0  0  0  0  0  0  0  0  0  0  0
    7.0331    1.8714   22.0234 H   0  0  0  0  0  0  0  0  0  0  0  0
    8.1361   -1.1936   22.8857 N   0  0  0  0  0  0  0  0  0  0  0  0
    9.6418   -3.4646   22.7353 H   0  0  0  0  0  0  0  0  0  0  0  0
    8.9044   -3.9326   21.1834 H   0  0  0  0  0  0  0  0  0  0  0  0
    6.8461   -4.6715   22.2276 H   0  0  0  0  0  0  0  0  0  0  0  0
    7.3583   -4.1055   23.8140 H   0  0  0  0  0  0  0  0  0  0  0  0
    9.1586   -5.8246   23.8843 H   0  0  0  0  0  0  0  0  0  0  0  0
    7.6227   -6.6007   23.5005 H   0  0  0  0  0  0  0  0  0  0  0  0
    8.8014   -6.3168   22.2194 H   0  0  0  0  0  0  0  0  0  0  0  0
  1  2  1  0
  2  3  1  0
  3  4  1  0
  4  5  2  0
  5  6  1  0
  6  7  1  0
  7  8  2  0
  8  9  1  0
  9 10  2  0
 10 11  1  0
 11 12  2  0
 12 13  1  0
 10 14  1  0
  9 15  1  0
  8 16  1  0
  6 17  1  0
 17 18  1  0
 18 19  1  0
 19 20  2  0
 20 21  1  0
 21 22  2  0
 22 23  1  0
 23 24  2  0
 24 25  1  0
 22 26  1  0
 21 27  1  0
 20 28  1  0
 18 29  1  0
 18 30  1  0
 17 31  2  0
  3 32  1  0
  3 33  1  0
  2 34  1  0
  2 35  1  0
  1 36  1  0
  1 37  1  0
  1 38  1  0
 31  4  1  0
 12  7  1  0
 24 19  1  0
M  END
>  <cnnaffinity>  (1) 
-6.07313

>  <filename>  (1) 
CCCc1nc(Cc2cccnc2Cl)n(-c2cccnc2)n1

$$$$
