
     RDKit          3D

 51 53  0  0  0  0  0  0  0  0999 V2000
    8.2833   -5.8713   22.7706 C   0  0  0  0  0  0  0  0  0  0  0  0
    7.1563   -5.1057   22.0696 C   0  0  0  0  0  0  0  0  0  0  0  0
    6.2938   -4.2752   23.0326 C   0  0  0  0  0  0  0  0  0  0  0  0
    7.0395   -3.0535   23.6129 C   0  0  0  0  0  0  0  0  0  0  0  0
    6.2946   -2.4263   24.8158 C   0  0  0  0  0  0  0  0  0  0  0  0
    6.8141   -1.5336   25.1819 H   0  0  0  0  0  0  0  0  0  0  0  0
    5.2595   -2.1468   24.5891 H   0  0  0  0  0  0  0  0  0  0  0  0
    6.2609   -3.1501   25.6397 H   0  0  0  0  0  0  0  0  0  0  0  0
    7.3846   -2.0761   22.5081 C   0  0  0  0  0  0  0  0  0  0  0  0
    6.5027   -1.6626   21.6118 N   0  0  0  0  0  0  0  0  0  0  0  0
    7.2205   -0.8093   20.8303 N   0  0  0  0  0  0  0  0  0  0  0  0
    6.5721   -0.0913   19.7859 C   0  0  0  0  0  0  0  0  0  0  0  0
    5.3759    0.5821   20.0548 C   0  0  0  0  0  0  0  0  0  0  0  0
    4.7917    1.3329   19.0314 C   0  0  0  0  0  0  0  0  0  0  0  0
    5.4023    1.3479   17.7701 C   0  0  0  0  0  0  0  0  0  0  0  0
    6.5223    0.6661   17.4890 N   0  0  0  0  0  0  0  0  0  0  0  0
    7.0931   -0.0355   18.4787 C   0  0  0  0  0  0  0  0  0  0  0  0
    7.9939   -0.5908   18.2171 H   0  0  0  0  0  0  0  0  0  0  0  0
    4.9698    1.9203   16.9531 H   0  0  0  0  0  0  0  0  0  0  0  0
    3.8847    1.9036   19.1962 H   0  0  0  0  0  0  0  0  0  0  0  0
    4.9280    0.5065   21.0497 H   0  0  0  0  0  0  0  0  0  0  0  0
    8.4820   -0.7184   21.3371 C   0  0  0  0  0  0  0  0  0  0  0  0
    9.5418    0.2074   20.8481 C   0  0  0  0  0  0  0  0  0  0  0  0
    9.8317    1.2377   21.8308 N   0  0  0  0  0  0  0  0  0  0  0  0
   11.0227    1.1952   22.4507 N   0  0  0  0  0  0  0  0  0  0  0  0
   10.9847    2.1587   23.3544 C   0  0  0  0  0  0  0  0  0  0  0  0
   12.1672    2.4134   24.2222 C   0  0  0  0  0  0  0  0  0  0  0  0
   12.5075    3.4476   24.0981 H   0  0  0  0  0  0  0  0  0  0  0  0
   12.9796    1.7386   23.9485 H   0  0  0  0  0  0  0  0  0  0  0  0
   11.9185    2.2414   25.2742 H   0  0  0  0  0  0  0  0  0  0  0  0
    9.7422    2.8301   23.3518 C   0  0  0  0  0  0  0  0  0  0  0  0
    9.3188    3.9771   24.2293 C   0  0  0  0  0  0  0  0  0  0  0  0
    9.2836    4.9303   23.6852 H   0  0  0  0  0  0  0  0  0  0  0  0
    8.3239    3.8173   24.6599 H   0  0  0  0  0  0  0  0  0  0  0  0
   10.0050    4.1219   25.0696 H   0  0  0  0  0  0  0  0  0  0  0  0
    9.0279    2.2220   22.3297 C   0  0  0  0  0  0  0  0  0  0  0  0
    7.6510    2.5568   21.8322 C   0  0  0  0  0  0  0  0  0  0  0  0
    6.8888    1.9393   22.3240 H   0  0  0  0  0  0  0  0  0  0  0  0
    7.5441    2.4090   20.7540 H   0  0  0  0  0  0  0  0  0  0  0  0
    7.4247    3.6045   22.0632 H   0  0  0  0  0  0  0  0  0  0  0  0
    9.2883    0.6659   19.8927 H   0  0  0  0  0  0  0  0  0  0  0  0
   10.4659   -0.3560   20.7225 H   0  0  0  0  0  0  0  0  0  0  0  0
    8.6218   -1.5288   22.3671 N   0  0  0  0  0  0  0  0  0  0  0  0
    8.0175   -3.3697   23.9977 H   0  0  0  0  0  0  0  0  0  0  0  0
    5.9347   -4.9121   23.8567 H   0  0  0  0  0  0  0  0  0  0  0  0
    5.4039   -3.9114   22.5006 H   0  0  0  0  0  0  0  0  0  0  0  0
    6.5123   -5.8391   21.5706 H   0  0  0  0  0  0  0  0  0  0  0  0
    7.5621   -4.4613   21.2695 H   0  0  0  0  0  0  0  0  0  0  0  0
    7.8950   -6.4544   23.6177 H   0  0  0  0  0  0  0  0  0  0  0  0
    9.0672   -5.2043   23.1504 H   0  0  0  0  0  0  0  0  0  0  0  0
    8.7653   -6.5562   22.0717 H   0  0  0  0  0  0  0  0  0  0  0  0
  1  2  1  0
  2  3  1  0
  3  4  1  0
  4  5  1  0
  5  6  1  0
  5  7  1  0
  5  8  1  0
  4  9  1  0
  9 10  2  0
 10 11  1  0
 11 12  1  0
 12 13  2  0
 13 14  1  0
 14 15  2  0
 15 16  1  0
 16 17  2  0
 17 18  1  0
 15 19  1  0
 14 20  1  0
 13 21  1  0
 11 22  1  0
 22 23  1  0
 23 24  1  0
 24 25  1  0
 25 26  2  0
 26 27  1  0
 27 28  1  0
 27 29  1  0
 27 30  1  0
 26 31  1  0
 31 32  1  0
 32 33  1  0
 32 34  1  0
 32 35  1  0
 31 36  2  0
 36 37  1  0
 37 38  1  0
 37 39  1  0
 37 40  1  0
 23 41  1  0
 23 42  1  0
 22 43  2  0
  4 44  1  0
  3 45  1  0
  3 46  1  0
  2 47  1  0
  2 48  1  0
  1 49  1  0
  1 50  1  0
  1 51  1  0
 43  9  1  0
 17 12  1  0
 36 24  1  0
M  END
>  <cnnaffinity>  (1) 
-6.27774

>  <filename>  (1) 
CCCC(C)c1nc(Cn2nc(C)c(C)c2C)n(-c2cccnc2)n1

$$$$
