
     RDKit          3D

 41 42  0  0  0  0  0  0  0  0999 V2000
    4.9921    1.8109   17.0114 H   0  0  0  0  0  0  0  0  0  0  0  0
    5.4338    1.2860   17.8551 C   0  0  0  0  0  0  0  0  0  0  0  0
    6.5835    0.6409   17.6055 N   0  0  0  0  0  0  0  0  0  0  0  0
    7.1593    0.0072   18.6307 C   0  0  0  0  0  0  0  0  0  0  0  0
    8.0773   -0.5271   18.3886 H   0  0  0  0  0  0  0  0  0  0  0  0
    6.6435   -0.0309   19.9369 C   0  0  0  0  0  0  0  0  0  0  0  0
    7.4543   -0.6842   20.9872 C   0  0  0  0  0  0  0  0  0  0  0  0
    6.7156   -1.1640   22.0332 O   0  0  0  0  0  0  0  0  0  0  0  0
    7.3288   -1.8024   23.0714 C   0  0  0  0  0  0  0  0  0  0  0  0
    6.3513   -2.3720   24.0454 C   0  0  0  0  0  0  0  0  0  0  0  0
    6.8952   -2.6810   24.9433 H   0  0  0  0  0  0  0  0  0  0  0  0
    5.6559   -1.5914   24.3632 H   0  0  0  0  0  0  0  0  0  0  0  0
    5.6009   -3.5769   23.4548 C   0  0  0  0  0  0  0  0  0  0  0  0
    4.7910   -3.8396   24.1440 H   0  0  0  0  0  0  0  0  0  0  0  0
    5.1231   -3.2727   22.5150 H   0  0  0  0  0  0  0  0  0  0  0  0
    6.5044   -4.7970   23.2112 C   0  0  0  0  0  0  0  0  0  0  0  0
    7.2067   -4.9110   24.0544 H   0  0  0  0  0  0  0  0  0  0  0  0
    7.1277   -4.6238   22.3211 H   0  0  0  0  0  0  0  0  0  0  0  0
    5.7189   -6.0909   22.9754 C   0  0  0  0  0  0  0  0  0  0  0  0
    5.1278   -5.9700   22.0565 H   0  0  0  0  0  0  0  0  0  0  0  0
    6.4235   -6.9117   22.7633 H   0  0  0  0  0  0  0  0  0  0  0  0
    4.7498   -6.5498   24.0772 C   0  0  0  0  0  0  0  0  0  0  0  0
    5.3088   -6.7641   24.9974 H   0  0  0  0  0  0  0  0  0  0  0  0
    4.0133   -5.7723   24.3282 H   0  0  0  0  0  0  0  0  0  0  0  0
    3.9978   -7.7927   23.6093 C   0  0  0  0  0  0  0  0  0  0  0  0
    3.5071   -7.5399   22.6594 H   0  0  0  0  0  0  0  0  0  0  0  0
    4.7659   -8.5429   23.3791 H   0  0  0  0  0  0  0  0  0  0  0  0
    2.9097   -8.3367   24.5324 C   0  0  0  0  0  0  0  0  0  0  0  0
    2.4383   -9.2186   24.0874 H   0  0  0  0  0  0  0  0  0  0  0  0
    3.2692   -8.6121   25.5310 H   0  0  0  0  0  0  0  0  0  0  0  0
    2.1049   -7.6030   24.6598 H   0  0  0  0  0  0  0  0  0  0  0  0
    8.6625   -1.9569   23.1234 C   0  0  0  0  0  0  0  0  0  0  0  0
    9.1411   -2.4763   23.9387 H   0  0  0  0  0  0  0  0  0  0  0  0
    9.5213   -1.4450   22.0551 C   0  0  0  0  0  0  0  0  0  0  0  0
   10.7374   -1.5640   22.0699 O   0  0  0  0  0  0  0  0  0  0  0  0
    8.8009   -0.7858   20.9751 C   0  0  0  0  0  0  0  0  0  0  0  0
    9.4136   -0.3563   20.1969 H   0  0  0  0  0  0  0  0  0  0  0  0
    5.4072    0.6084   20.1678 C   0  0  0  0  0  0  0  0  0  0  0  0
    4.9469    0.5783   21.1561 H   0  0  0  0  0  0  0  0  0  0  0  0
    4.8077    1.2849   19.1068 C   0  0  0  0  0  0  0  0  0  0  0  0
    3.8740    1.8245   19.2348 H   0  0  0  0  0  0  0  0  0  0  0  0
  1  2  1  0
  2  3  2  0
  3  4  1  0
  4  5  1  0
  4  6  2  0
  6  7  1  0
  7  8  1  0
  8  9  1  0
  9 10  1  0
 10 11  1  0
 10 12  1  0
 10 13  1  0
 13 14  1  0
 13 15  1  0
 13 16  1  0
 16 17  1  0
 16 18  1  0
 16 19  1  0
 19 20  1  0
 19 21  1  0
 19 22  1  0
 22 23  1  0
 22 24  1  0
 22 25  1  0
 25 26  1  0
 25 27  1  0
 25 28  1  0
 28 29  1  0
 28 30  1  0
 28 31  1  0
  9 32  2  0
 32 33  1  0
 32 34  1  0
 34 35  2  0
 34 36  1  0
 36 37  1  0
  6 38  1  0
 38 39  1  0
 38 40  2  0
 40 41  1  0
 40  2  1  0
 36  7  2  0
M  END
>  <cnnaffinity>  (1) 
-5.24551

>  <filename>  (1) 
CCCCCCCc1cc(=O)cc(-c2cccnc2)o1

$$$$
