
     RDKit          3D

 52 54  0  0  0  0  0  0  0  0999 V2000
    6.3629   -5.6824   24.6863 C   0  0  0  0  0  0  0  0  0  0  0  0
    7.8398   -5.2968   24.5766 C   0  0  0  0  0  0  0  0  0  0  0  0
    8.1144   -4.2021   23.5333 C   0  0  0  0  0  0  0  0  0  0  0  0
    7.3414   -2.8763   23.7735 C   0  0  0  0  0  0  0  0  0  0  0  0
    7.6996   -2.2471   25.1327 C   0  0  0  0  0  0  0  0  0  0  0  0
    7.1805   -1.2953   25.2853 H   0  0  0  0  0  0  0  0  0  0  0  0
    8.7775   -2.0520   25.2000 H   0  0  0  0  0  0  0  0  0  0  0  0
    7.4279   -2.9140   25.9580 H   0  0  0  0  0  0  0  0  0  0  0  0
    7.5516   -1.9121   22.6438 C   0  0  0  0  0  0  0  0  0  0  0  0
    6.6161   -1.5974   21.7724 N   0  0  0  0  0  0  0  0  0  0  0  0
    7.2582   -0.7655   20.9106 N   0  0  0  0  0  0  0  0  0  0  0  0
    6.5730   -0.0995   19.8615 C   0  0  0  0  0  0  0  0  0  0  0  0
    5.3845    0.5909   20.1213 C   0  0  0  0  0  0  0  0  0  0  0  0
    4.8039    1.3114   19.0770 C   0  0  0  0  0  0  0  0  0  0  0  0
    5.4177    1.3048   17.8169 C   0  0  0  0  0  0  0  0  0  0  0  0
    6.5415    0.6190   17.5545 N   0  0  0  0  0  0  0  0  0  0  0  0
    7.0969   -0.0664   18.5568 C   0  0  0  0  0  0  0  0  0  0  0  0
    8.0166   -0.6002   18.3194 H   0  0  0  0  0  0  0  0  0  0  0  0
    4.9898    1.8583   16.9860 H   0  0  0  0  0  0  0  0  0  0  0  0
    3.8929    1.8804   19.2295 H   0  0  0  0  0  0  0  0  0  0  0  0
    4.9611    0.5547   21.1273 H   0  0  0  0  0  0  0  0  0  0  0  0
    8.5438   -0.6075   21.3287 C   0  0  0  0  0  0  0  0  0  0  0  0
    9.5687    0.1529   20.5343 C   0  0  0  0  0  0  0  0  0  0  0  0
   10.6894    0.6614   21.3241 N   0  0  0  0  0  0  0  0  0  0  0  0
   10.3973    1.7911   22.2000 C   0  0  0  0  0  0  0  0  0  0  0  0
   10.5495    1.3755   23.6664 C   0  0  0  0  0  0  0  0  0  0  0  0
    9.9876    2.3981   24.6210 C   0  0  0  0  0  0  0  0  0  0  0  0
    8.6753    2.6225   24.3885 F   0  0  0  0  0  0  0  0  0  0  0  0
   10.6036    3.5938   24.5327 F   0  0  0  0  0  0  0  0  0  0  0  0
   10.0779    1.9609   25.8926 F   0  0  0  0  0  0  0  0  0  0  0  0
   12.0003    0.9289   23.8957 C   0  0  0  0  0  0  0  0  0  0  0  0
   12.1949   -0.3187   23.0346 C   0  0  0  0  0  0  0  0  0  0  0  0
   11.7156   -0.2415   21.6006 C   0  0  0  0  0  0  0  0  0  0  0  0
   12.1078   -1.0508   20.7826 O   0  0  0  0  0  0  0  0  0  0  0  0
   11.5321   -1.1175   23.3997 H   0  0  0  0  0  0  0  0  0  0  0  0
   13.2180   -0.6915   23.0167 H   0  0  0  0  0  0  0  0  0  0  0  0
   12.1946    0.6966   24.9509 H   0  0  0  0  0  0  0  0  0  0  0  0
   12.7170    1.7186   23.6223 H   0  0  0  0  0  0  0  0  0  0  0  0
    9.9017    0.5070   23.8306 H   0  0  0  0  0  0  0  0  0  0  0  0
    9.3716    2.1241   22.0133 H   0  0  0  0  0  0  0  0  0  0  0  0
   11.0471    2.6460   21.9624 H   0  0  0  0  0  0  0  0  0  0  0  0
    9.0932    0.9914   20.0229 H   0  0  0  0  0  0  0  0  0  0  0  0
    9.9617   -0.5203   19.7695 H   0  0  0  0  0  0  0  0  0  0  0  0
    8.7520   -1.3149   22.4230 N   0  0  0  0  0  0  0  0  0  0  0  0
    6.2643   -3.0770   23.7379 H   0  0  0  0  0  0  0  0  0  0  0  0
    7.8676   -4.5848   22.5331 H   0  0  0  0  0  0  0  0  0  0  0  0
    9.1912   -3.9814   23.5103 H   0  0  0  0  0  0  0  0  0  0  0  0
    8.2154   -4.9826   25.5603 H   0  0  0  0  0  0  0  0  0  0  0  0
    8.4299   -6.1861   24.3193 H   0  0  0  0  0  0  0  0  0  0  0  0
    5.7222   -4.8060   24.8346 H   0  0  0  0  0  0  0  0  0  0  0  0
    6.0138   -6.1825   23.7760 H   0  0  0  0  0  0  0  0  0  0  0  0
    6.1809   -6.3560   25.5294 H   0  0  0  0  0  0  0  0  0  0  0  0
  1  2  1  0
  2  3  1  0
  3  4  1  0
  4  5  1  0
  5  6  1  0
  5  7  1  0
  5  8  1  0
  4  9  1  0
  9 10  2  0
 10 11  1  0
 11 12  1  0
 12 13  2  0
 13 14  1  0
 14 15  2  0
 15 16  1  0
 16 17  2  0
 17 18  1  0
 15 19  1  0
 14 20  1  0
 13 21  1  0
 11 22  1  0
 22 23  1  0
 23 24  1  0
 24 25  1  0
 25 26  1  0
 26 27  1  0
 27 28  1  0
 27 29  1  0
 27 30  1  0
 26 31  1  0
 31 32  1  0
 32 33  1  0
 33 34  2  0
 32 35  1  0
 32 36  1  0
 31 37  1  0
 31 38  1  0
 26 39  1  0
 25 40  1  0
 25 41  1  0
 23 42  1  0
 23 43  1  0
 22 44  2  0
  4 45  1  0
  3 46  1  0
  3 47  1  0
  2 48  1  0
  2 49  1  0
  1 50  1  0
  1 51  1  0
  1 52  1  0
 44  9  1  0
 17 12  1  0
 33 24  1  0
M  END
>  <cnnaffinity>  (1) 
-6.63563

>  <filename>  (1) 
CCCC(C)c1nc(CN2CC(C(F)(F)F)CCC2=O)n(-c2cccnc2)n1

$$$$
