
     RDKit          3D

 39 40  0  0  0  0  0  0  0  0999 V2000
    7.7923   -3.8830   21.6653 C   0  0  0  0  0  0  0  0  0  0  0  0
    8.4040   -2.8170   22.5775 C   0  0  0  0  0  0  0  0  0  0  0  0
    9.2771   -1.8735   21.8771 N   0  0  0  0  0  0  0  0  0  0  0  0
   10.6697   -1.7529   22.3316 C   0  0  0  0  0  0  0  0  0  0  0  0
   10.8121   -0.7636   23.4838 C   0  0  0  0  0  0  0  0  0  0  0  0
   10.0930   -0.9827   24.6719 C   0  0  0  0  0  0  0  0  0  0  0  0
   10.0895   -0.0298   25.6944 C   0  0  0  0  0  0  0  0  0  0  0  0
   10.8553    1.1263   25.5548 C   0  0  0  0  0  0  0  0  0  0  0  0
   11.6406    1.3168   24.4147 C   0  0  0  0  0  0  0  0  0  0  0  0
   11.6317    0.3832   23.3698 C   0  0  0  0  0  0  0  0  0  0  0  0
   12.4576    0.6226   22.1271 C   0  0  0  0  0  0  0  0  0  0  0  0
   11.7871    0.8047   21.2758 H   0  0  0  0  0  0  0  0  0  0  0  0
   13.0801   -0.2535   21.8982 H   0  0  0  0  0  0  0  0  0  0  0  0
   13.1245    1.4816   22.2472 H   0  0  0  0  0  0  0  0  0  0  0  0
   12.2675    2.2016   24.3166 H   0  0  0  0  0  0  0  0  0  0  0  0
   10.8230    1.8598   26.3460 H   0  0  0  0  0  0  0  0  0  0  0  0
    9.4843   -0.1755   26.5838 H   0  0  0  0  0  0  0  0  0  0  0  0
    9.5307   -1.9022   24.8158 H   0  0  0  0  0  0  0  0  0  0  0  0
   11.0261   -2.7419   22.6450 H   0  0  0  0  0  0  0  0  0  0  0  0
   11.2915   -1.4633   21.4792 H   0  0  0  0  0  0  0  0  0  0  0  0
    8.8554   -0.9328   20.9557 C   0  0  0  0  0  0  0  0  0  0  0  0
    9.6329   -0.2467   20.3116 O   0  0  0  0  0  0  0  0  0  0  0  0
    7.4834   -0.8453   20.7970 N   0  0  0  0  0  0  0  0  0  0  0  0
    6.7976   -0.0945   19.8149 C   0  0  0  0  0  0  0  0  0  0  0  0
    5.5815    0.5134   20.1472 C   0  0  0  0  0  0  0  0  0  0  0  0
    4.8994    1.2295   19.1558 C   0  0  0  0  0  0  0  0  0  0  0  0
    5.4416    1.2969   17.8658 C   0  0  0  0  0  0  0  0  0  0  0  0
    6.6027    0.7123   17.5281 N   0  0  0  0  0  0  0  0  0  0  0  0
    7.2619    0.0488   18.4845 C   0  0  0  0  0  0  0  0  0  0  0  0
    8.2092   -0.4008   18.2079 H   0  0  0  0  0  0  0  0  0  0  0  0
    4.9278    1.8424   17.0772 H   0  0  0  0  0  0  0  0  0  0  0  0
    3.9633    1.7303   19.3747 H   0  0  0  0  0  0  0  0  0  0  0  0
    5.2012    0.4299   21.1664 H   0  0  0  0  0  0  0  0  0  0  0  0
    6.9684   -1.1253   21.6096 H   0  0  0  0  0  0  0  0  0  0  0  0
    9.0103   -3.3076   23.3478 H   0  0  0  0  0  0  0  0  0  0  0  0
    7.6065   -2.2925   23.1291 H   0  0  0  0  0  0  0  0  0  0  0  0
    7.5041   -4.7712   22.2433 H   0  0  0  0  0  0  0  0  0  0  0  0
    8.5049   -4.2034   20.9034 H   0  0  0  0  0  0  0  0  0  0  0  0
    6.8997   -3.5109   21.1507 H   0  0  0  0  0  0  0  0  0  0  0  0
  1  2  1  0
  2  3  1  0
  3  4  1  0
  4  5  1  0
  5  6  2  0
  6  7  1  0
  7  8  2  0
  8  9  1  0
  9 10  2  0
 10 11  1  0
 11 12  1  0
 11 13  1  0
 11 14  1  0
  9 15  1  0
  8 16  1  0
  7 17  1  0
  6 18  1  0
  4 19  1  0
  4 20  1  0
  3 21  1  0
 21 22  2  0
 21 23  1  0
 23 24  1  0
 24 25  2  0
 25 26  1  0
 26 27  2  0
 27 28  1  0
 28 29  2  0
 29 30  1  0
 27 31  1  0
 26 32  1  0
 25 33  1  0
 23 34  1  0
  2 35  1  0
  2 36  1  0
  1 37  1  0
  1 38  1  0
  1 39  1  0
 10  5  1  0
 29 24  1  0
M  END
>  <cnnaffinity>  (1) 
-5.28927

>  <filename>  (1) 
CCN(Cc1ccccc1C)C(=O)Nc1cccnc1

$$$$
