
     RDKit          3D

 42 42  0  0  0  0  0  0  0  0999 V2000
    4.9214    1.8308   17.0011 H   0  0  0  0  0  0  0  0  0  0  0  0
    5.3885    1.2936   17.8217 C   0  0  0  0  0  0  0  0  0  0  0  0
    6.5421    0.6643   17.5440 N   0  0  0  0  0  0  0  0  0  0  0  0
    7.1633    0.0295   18.5521 C   0  0  0  0  0  0  0  0  0  0  0  0
    8.1110   -0.4494   18.2984 H   0  0  0  0  0  0  0  0  0  0  0  0
    6.6725   -0.0343   19.8858 C   0  0  0  0  0  0  0  0  0  0  0  0
    7.3329   -0.6771   20.9446 N   0  0  0  0  0  0  0  0  0  0  0  0
    6.7215   -1.0691   21.6482 H   0  0  0  0  0  0  0  0  0  0  0  0
    8.7081   -0.4563   21.4065 C   0  0  0  0  0  0  0  0  0  0  0  0
    9.5612   -1.5858   20.8297 C   0  0  0  0  0  0  0  0  0  0  0  0
    9.2048   -2.5528   21.1953 H   0  0  0  0  0  0  0  0  0  0  0  0
    9.4609   -1.5821   19.7419 H   0  0  0  0  0  0  0  0  0  0  0  0
   10.6203   -1.4747   21.0907 H   0  0  0  0  0  0  0  0  0  0  0  0
    9.2654    0.9024   20.9560 C   0  0  0  0  0  0  0  0  0  0  0  0
    9.4431    0.8908   19.8814 H   0  0  0  0  0  0  0  0  0  0  0  0
    8.5625    1.7125   21.1722 H   0  0  0  0  0  0  0  0  0  0  0  0
   10.2172    1.1294   21.4464 H   0  0  0  0  0  0  0  0  0  0  0  0
    8.6956   -0.5645   22.9339 C   0  0  0  0  0  0  0  0  0  0  0  0
    8.3317   -1.5623   23.2180 H   0  0  0  0  0  0  0  0  0  0  0  0
    9.7198   -0.5032   23.3240 H   0  0  0  0  0  0  0  0  0  0  0  0
    7.8464    0.4894   23.6519 C   0  0  0  0  0  0  0  0  0  0  0  0
    8.3474    1.4628   23.6168 H   0  0  0  0  0  0  0  0  0  0  0  0
    6.8954    0.6635   23.1304 H   0  0  0  0  0  0  0  0  0  0  0  0
    7.5620    0.1558   25.0432 N   0  0  0  0  0  0  0  0  0  0  0  0
    6.6154   -0.9512   25.2053 C   0  0  0  0  0  0  0  0  0  0  0  0
    6.0296   -1.0786   24.2856 H   0  0  0  0  0  0  0  0  0  0  0  0
    7.1232   -1.9233   25.3573 H   0  0  0  0  0  0  0  0  0  0  0  0
    5.6438   -0.6862   26.3468 C   0  0  0  0  0  0  0  0  0  0  0  0
    4.9159   -1.4989   26.4399 H   0  0  0  0  0  0  0  0  0  0  0  0
    5.1036    0.2458   26.1586 H   0  0  0  0  0  0  0  0  0  0  0  0
    6.1725   -0.5878   27.2991 H   0  0  0  0  0  0  0  0  0  0  0  0
    8.7538    0.0301   25.8892 C   0  0  0  0  0  0  0  0  0  0  0  0
    9.3809   -0.8325   25.5862 H   0  0  0  0  0  0  0  0  0  0  0  0
    8.4330   -0.1798   26.9176 H   0  0  0  0  0  0  0  0  0  0  0  0
    9.6032    1.3004   25.9161 C   0  0  0  0  0  0  0  0  0  0  0  0
   10.5388    1.1530   26.4626 H   0  0  0  0  0  0  0  0  0  0  0  0
    9.8871    1.6148   24.9082 H   0  0  0  0  0  0  0  0  0  0  0  0
    9.0562    2.1228   26.3908 H   0  0  0  0  0  0  0  0  0  0  0  0
    5.4432    0.5969   20.1313 C   0  0  0  0  0  0  0  0  0  0  0  0
    5.0326    0.5882   21.1411 H   0  0  0  0  0  0  0  0  0  0  0  0
    4.8029    1.2811   19.0925 C   0  0  0  0  0  0  0  0  0  0  0  0
    3.8753    1.8164   19.2576 H   0  0  0  0  0  0  0  0  0  0  0  0
  1  2  1  0
  2  3  2  0
  3  4  1  0
  4  5  1  0
  4  6  2  0
  6  7  1  0
  7  8  1  0
  7  9  1  0
  9 10  1  0
 10 11  1  0
 10 12  1  0
 10 13  1  0
  9 14  1  0
 14 15  1  0
 14 16  1  0
 14 17  1  0
  9 18  1  0
 18 19  1  0
 18 20  1  0
 18 21  1  0
 21 22  1  0
 21 23  1  0
 21 24  1  0
 24 25  1  0
 25 26  1  0
 25 27  1  0
 25 28  1  0
 28 29  1  0
 28 30  1  0
 28 31  1  0
 24 32  1  0
 32 33  1  0
 32 34  1  0
 32 35  1  0
 35 36  1  0
 35 37  1  0
 35 38  1  0
  6 39  1  0
 39 40  1  0
 39 41  2  0
 41 42  1  0
 41  2  1  0
M  END
>  <cnnaffinity>  (1) 
-4.54606

>  <filename>  (1) 
CCN(CC)CCC(C)(C)Nc1cccnc1

$$$$
