
     RDKit          3D

 36 37  0  0  0  0  0  0  0  0999 V2000
   11.4425   -0.1585   23.0226 C   0  0  0  0  0  0  0  0  0  0  0  0
   10.6668   -1.3594   22.5083 C   0  0  0  0  0  0  0  0  0  0  0  0
    9.2239   -1.0993   22.3983 N   0  0  0  0  0  0  0  0  0  0  0  0
    8.4144   -1.2735   23.6145 C   0  0  0  0  0  0  0  0  0  0  0  0
    7.5816   -0.0709   24.0591 C   0  0  0  0  0  0  0  0  0  0  0  0
    8.1066    1.2346   24.0498 C   0  0  0  0  0  0  0  0  0  0  0  0
    7.3100    2.3477   24.3162 C   0  0  0  0  0  0  0  0  0  0  0  0
    5.9478    2.1794   24.5691 C   0  0  0  0  0  0  0  0  0  0  0  0
    5.4112    0.8943   24.6628 C   0  0  0  0  0  0  0  0  0  0  0  0
    6.2531   -0.2122   24.5046 C   0  0  0  0  0  0  0  0  0  0  0  0
    5.6167   -1.7742   24.9881 Cl  0  0  0  0  0  0  0  0  0  0  0  0
    4.3571    0.7328   24.8643 H   0  0  0  0  0  0  0  0  0  0  0  0
    5.3157    3.0468   24.7206 H   0  0  0  0  0  0  0  0  0  0  0  0
    7.7493    3.3399   24.2899 H   0  0  0  0  0  0  0  0  0  0  0  0
    9.1567    1.3800   23.8201 H   0  0  0  0  0  0  0  0  0  0  0  0
    9.0972   -1.5328   24.4344 H   0  0  0  0  0  0  0  0  0  0  0  0
    7.7528   -2.1452   23.5308 H   0  0  0  0  0  0  0  0  0  0  0  0
    8.7949   -0.5020   21.2186 C   0  0  0  0  0  0  0  0  0  0  0  0
    9.5555    0.0172   20.4178 O   0  0  0  0  0  0  0  0  0  0  0  0
    7.4400   -0.6093   20.9746 N   0  0  0  0  0  0  0  0  0  0  0  0
    6.7336    0.0035   19.9089 C   0  0  0  0  0  0  0  0  0  0  0  0
    5.4947    0.6044   20.1709 C   0  0  0  0  0  0  0  0  0  0  0  0
    4.8305    1.2651   19.1307 C   0  0  0  0  0  0  0  0  0  0  0  0
    5.4111    1.2667   17.8592 C   0  0  0  0  0  0  0  0  0  0  0  0
    6.5713    0.6490   17.5725 N   0  0  0  0  0  0  0  0  0  0  0  0
    7.2169    0.0426   18.5774 C   0  0  0  0  0  0  0  0  0  0  0  0
    8.1710   -0.4327   18.3568 H   0  0  0  0  0  0  0  0  0  0  0  0
    4.9334    1.7829   17.0314 H   0  0  0  0  0  0  0  0  0  0  0  0
    3.8945    1.7929   19.2949 H   0  0  0  0  0  0  0  0  0  0  0  0
    5.0861    0.5872   21.1812 H   0  0  0  0  0  0  0  0  0  0  0  0
    6.8972   -0.9671   21.7394 H   0  0  0  0  0  0  0  0  0  0  0  0
   11.0511   -1.6465   21.5253 H   0  0  0  0  0  0  0  0  0  0  0  0
   10.8202   -2.2303   23.1591 H   0  0  0  0  0  0  0  0  0  0  0  0
   11.1459    0.1098   24.0426 H   0  0  0  0  0  0  0  0  0  0  0  0
   12.5114   -0.3923   23.0227 H   0  0  0  0  0  0  0  0  0  0  0  0
   11.2759    0.7047   22.3714 H   0  0  0  0  0  0  0  0  0  0  0  0
  1  2  1  0
  2  3  1  0
  3  4  1  0
  4  5  1  0
  5  6  2  0
  6  7  1  0
  7  8  2  0
  8  9  1  0
  9 10  2  0
 10 11  1  0
  9 12  1  0
  8 13  1  0
  7 14  1  0
  6 15  1  0
  4 16  1  0
  4 17  1  0
  3 18  1  0
 18 19  2  0
 18 20  1  0
 20 21  1  0
 21 22  2  0
 22 23  1  0
 23 24  2  0
 24 25  1  0
 25 26  2  0
 26 27  1  0
 24 28  1  0
 23 29  1  0
 22 30  1  0
 20 31  1  0
  2 32  1  0
  2 33  1  0
  1 34  1  0
  1 35  1  0
  1 36  1  0
 10  5  1  0
 26 21  1  0
M  END
>  <cnnaffinity>  (1) 
-5.16667

>  <filename>  (1) 
CCN(Cc1ccccc1Cl)C(=O)Nc1cccnc1

$$$$
