
     RDKit          3D

 44 44  0  0  0  0  0  0  0  0999 V2000
    4.9948    1.7684   17.0199 H   0  0  0  0  0  0  0  0  0  0  0  0
    5.4452    1.2708   17.8723 C   0  0  0  0  0  0  0  0  0  0  0  0
    6.5955    0.6273   17.6351 N   0  0  0  0  0  0  0  0  0  0  0  0
    7.1766   -0.0059   18.6536 C   0  0  0  0  0  0  0  0  0  0  0  0
    8.1176   -0.5092   18.4343 H   0  0  0  0  0  0  0  0  0  0  0  0
    6.6155    0.0004   19.9226 C   0  0  0  0  0  0  0  0  0  0  0  0
    7.4546   -0.8963   21.1666 S   0  0  0  0  0  0  0  0  0  0  0  0
    6.4649   -1.1413   22.2176 O   0  0  0  0  0  0  0  0  0  0  0  0
    8.1111   -2.0174   20.5044 O   0  0  0  0  0  0  0  0  0  0  0  0
    8.8632    0.2795   21.8681 C   0  0  0  0  0  0  0  0  0  0  0  0
    8.4821    1.6356   21.8878 O   0  0  0  0  0  0  0  0  0  0  0  0
    7.5091    2.0114   22.8588 C   0  0  0  0  0  0  0  0  0  0  0  0
    7.9913    2.0939   23.8445 H   0  0  0  0  0  0  0  0  0  0  0  0
    6.7164    1.2488   22.9214 H   0  0  0  0  0  0  0  0  0  0  0  0
    6.8926    3.3533   22.4722 C   0  0  0  0  0  0  0  0  0  0  0  0
    7.6681    4.1335   22.5047 H   0  0  0  0  0  0  0  0  0  0  0  0
    6.5460    3.3162   21.4298 H   0  0  0  0  0  0  0  0  0  0  0  0
    5.7740    3.7642   23.3239 N   0  0  0  0  0  0  0  0  0  0  0  0
    6.1070    3.9821   24.7320 C   0  0  0  0  0  0  0  0  0  0  0  0
    5.5372    4.8501   25.0957 H   0  0  0  0  0  0  0  0  0  0  0  0
    7.1622    4.2864   24.7668 H   0  0  0  0  0  0  0  0  0  0  0  0
    5.8805    2.7971   25.6879 C   0  0  0  0  0  0  0  0  0  0  0  0
    4.8127    2.6134   25.8508 H   0  0  0  0  0  0  0  0  0  0  0  0
    6.3348    2.9955   26.6630 H   0  0  0  0  0  0  0  0  0  0  0  0
    6.3128    1.8703   25.2937 H   0  0  0  0  0  0  0  0  0  0  0  0
    4.5214    3.0657   23.0625 C   0  0  0  0  0  0  0  0  0  0  0  0
    4.4622    2.8913   21.9793 H   0  0  0  0  0  0  0  0  0  0  0  0
    4.4886    2.0620   23.5357 H   0  0  0  0  0  0  0  0  0  0  0  0
    3.3068    3.8788   23.5003 C   0  0  0  0  0  0  0  0  0  0  0  0
    3.2818    4.0288   24.5854 H   0  0  0  0  0  0  0  0  0  0  0  0
    3.3241    4.8651   23.0247 H   0  0  0  0  0  0  0  0  0  0  0  0
    2.3814    3.3668   23.2155 H   0  0  0  0  0  0  0  0  0  0  0  0
    9.2584   -0.2320   23.2603 C   0  0  0  0  0  0  0  0  0  0  0  0
    9.6961   -1.2326   23.1982 H   0  0  0  0  0  0  0  0  0  0  0  0
    8.3943   -0.2727   23.9313 H   0  0  0  0  0  0  0  0  0  0  0  0
   10.0039    0.4525   23.6791 H   0  0  0  0  0  0  0  0  0  0  0  0
   10.0330    0.2004   20.9047 C   0  0  0  0  0  0  0  0  0  0  0  0
   10.4126   -0.8219   20.8214 H   0  0  0  0  0  0  0  0  0  0  0  0
   10.8361    0.8508   21.2619 H   0  0  0  0  0  0  0  0  0  0  0  0
    9.6954    0.5499   19.9283 H   0  0  0  0  0  0  0  0  0  0  0  0
    5.4171    0.6548   20.1907 C   0  0  0  0  0  0  0  0  0  0  0  0
    4.9664    0.6436   21.1887 H   0  0  0  0  0  0  0  0  0  0  0  0
    4.8179    1.3085   19.1240 C   0  0  0  0  0  0  0  0  0  0  0  0
    3.8837    1.8478   19.2354 H   0  0  0  0  0  0  0  0  0  0  0  0
  1  2  1  0
  2  3  2  0
  3  4  1  0
  4  5  1  0
  4  6  2  0
  6  7  1  0
  7  8  2  0
  7  9  2  0
  7 10  1  0
 10 11  1  0
 11 12  1  0
 12 13  1  0
 12 14  1  0
 12 15  1  0
 15 16  1  0
 15 17  1  0
 15 18  1  0
 18 19  1  0
 19 20  1  0
 19 21  1  0
 19 22  1  0
 22 23  1  0
 22 24  1  0
 22 25  1  0
 18 26  1  0
 26 27  1  0
 26 28  1  0
 26 29  1  0
 29 30  1  0
 29 31  1  0
 29 32  1  0
 10 33  1  0
 33 34  1  0
 33 35  1  0
 33 36  1  0
 10 37  1  0
 37 38  1  0
 37 39  1  0
 37 40  1  0
  6 41  1  0
 41 42  1  0
 41 43  2  0
 43 44  1  0
 43  2  1  0
M  END
>  <cnnaffinity>  (1) 
-4.57026

>  <filename>  (1) 
CCN(CC)CCOC(C)(C)S(=O)(=O)c1cccnc1

$$$$
