
     RDKit          3D

 35 36  0  0  0  0  0  0  0  0999 V2000
    4.9176    1.8338   16.9855 H   0  0  0  0  0  0  0  0  0  0  0  0
    5.3996    1.3039   17.8027 C   0  0  0  0  0  0  0  0  0  0  0  0
    6.5421    0.6658   17.5048 N   0  0  0  0  0  0  0  0  0  0  0  0
    7.1703    0.0266   18.5007 C   0  0  0  0  0  0  0  0  0  0  0  0
    8.1033   -0.4612   18.2380 H   0  0  0  0  0  0  0  0  0  0  0  0
    6.6918   -0.0252   19.8300 C   0  0  0  0  0  0  0  0  0  0  0  0
    7.4024   -0.7074   20.8984 N   0  0  0  0  0  0  0  0  0  0  0  0
    6.7519   -1.7243   21.6009 C   0  0  0  0  0  0  0  0  0  0  0  0
    5.7227   -1.9242   21.3212 H   0  0  0  0  0  0  0  0  0  0  0  0
    7.3081   -2.4361   22.6177 C   0  0  0  0  0  0  0  0  0  0  0  0
    6.5579   -3.4796   23.2194 N   0  0  0  0  0  0  0  0  0  0  0  0
    6.3433   -3.4406   24.6627 C   0  0  0  0  0  0  0  0  0  0  0  0
    7.2758   -3.1517   25.1648 H   0  0  0  0  0  0  0  0  0  0  0  0
    6.0907   -4.4543   24.9917 H   0  0  0  0  0  0  0  0  0  0  0  0
    5.2073   -2.5103   25.0882 C   0  0  0  0  0  0  0  0  0  0  0  0
    4.3066   -2.7372   24.5073 H   0  0  0  0  0  0  0  0  0  0  0  0
    5.4543   -1.4494   24.9626 H   0  0  0  0  0  0  0  0  0  0  0  0
    4.9773   -2.6673   26.1494 H   0  0  0  0  0  0  0  0  0  0  0  0
    6.3216   -4.7154   22.4752 C   0  0  0  0  0  0  0  0  0  0  0  0
    5.5986   -5.3075   23.0481 H   0  0  0  0  0  0  0  0  0  0  0  0
    5.8355   -4.4674   21.5211 H   0  0  0  0  0  0  0  0  0  0  0  0
    7.5722   -5.5529   22.2158 C   0  0  0  0  0  0  0  0  0  0  0  0
    8.0787   -5.8000   23.1543 H   0  0  0  0  0  0  0  0  0  0  0  0
    8.2779   -5.0122   21.5803 H   0  0  0  0  0  0  0  0  0  0  0  0
    7.3161   -6.4901   21.7096 H   0  0  0  0  0  0  0  0  0  0  0  0
    8.6886   -2.0090   23.0606 C   0  0  0  0  0  0  0  0  0  0  0  0
    9.3763   -2.4427   23.9640 O   0  0  0  0  0  0  0  0  0  0  0  0
    9.2327   -0.9898   22.3154 N   0  0  0  0  0  0  0  0  0  0  0  0
   10.1684   -0.7314   22.5533 H   0  0  0  0  0  0  0  0  0  0  0  0
    8.7172   -0.3158   21.2562 C   0  0  0  0  0  0  0  0  0  0  0  0
    9.3791    0.5322   20.7042 O   0  0  0  0  0  0  0  0  0  0  0  0
    5.4781    0.6146   20.1100 C   0  0  0  0  0  0  0  0  0  0  0  0
    5.0663    0.5880   21.1217 H   0  0  0  0  0  0  0  0  0  0  0  0
    4.8268    1.3013   19.0791 C   0  0  0  0  0  0  0  0  0  0  0  0
    3.8970    1.8334   19.2566 H   0  0  0  0  0  0  0  0  0  0  0  0
  1  2  1  0
  2  3  2  0
  3  4  1  0
  4  5  1  0
  4  6  2  0
  6  7  1  0
  7  8  1  0
  8  9  1  0
  8 10  2  0
 10 11  1  0
 11 12  1  0
 12 13  1  0
 12 14  1  0
 12 15  1  0
 15 16  1  0
 15 17  1  0
 15 18  1  0
 11 19  1  0
 19 20  1  0
 19 21  1  0
 19 22  1  0
 22 23  1  0
 22 24  1  0
 22 25  1  0
 10 26  1  0
 26 27  2  0
 26 28  1  0
 28 29  1  0
 28 30  1  0
 30 31  2  0
  6 32  1  0
 32 33  1  0
 32 34  2  0
 34 35  1  0
 34  2  1  0
 30  7  1  0
M  END
>  <cnnaffinity>  (1) 
-5.32504

>  <filename>  (1) 
CCN(CC)c1cn(-c2cccnc2)c(=O)[nH]c1=O

$$$$
