
     RDKit          3D

 35 36  0  0  0  0  0  0  0  0999 V2000
    8.6852   -3.2132   22.9970 C   0  0  0  0  0  0  0  0  0  0  0  0
    8.5688   -3.0260   21.4934 C   0  0  0  0  0  0  0  0  0  0  0  0
    7.4792   -2.1397   21.0666 N   0  0  0  0  0  0  0  0  0  0  0  0
    6.1040   -2.5296   21.4304 C   0  0  0  0  0  0  0  0  0  0  0  0
    5.8083   -3.9811   21.1314 C   0  0  0  0  0  0  0  0  0  0  0  0
    5.5942   -4.9146   22.1641 C   0  0  0  0  0  0  0  0  0  0  0  0
    5.3075   -6.2498   21.8792 C   0  0  0  0  0  0  0  0  0  0  0  0
    5.2726   -6.6701   20.5525 C   0  0  0  0  0  0  0  0  0  0  0  0
    5.5260   -5.7800   19.5125 C   0  0  0  0  0  0  0  0  0  0  0  0
    5.7300   -4.4327   19.8016 C   0  0  0  0  0  0  0  0  0  0  0  0
    5.6566   -3.3157   18.4636 Cl  0  0  0  0  0  0  0  0  0  0  0  0
    5.5385   -6.1307   18.4869 H   0  0  0  0  0  0  0  0  0  0  0  0
    4.9773   -7.6802   20.3028 H   0  0  0  0  0  0  0  0  0  0  0  0
    5.1430   -6.9692   22.6765 H   0  0  0  0  0  0  0  0  0  0  0  0
    5.6106   -4.5962   23.2079 H   0  0  0  0  0  0  0  0  0  0  0  0
    5.8812   -2.3098   22.4834 H   0  0  0  0  0  0  0  0  0  0  0  0
    5.4032   -1.9452   20.8286 H   0  0  0  0  0  0  0  0  0  0  0  0
    7.7771   -0.5040   21.2879 S   0  0  0  0  0  0  0  0  0  0  0  0
    9.1560   -0.2513   20.9147 O   0  0  0  0  0  0  0  0  0  0  0  0
    7.2539   -0.0872   22.5767 O   0  0  0  0  0  0  0  0  0  0  0  0
    6.7490    0.0978   20.0374 C   0  0  0  0  0  0  0  0  0  0  0  0
    5.5093    0.7129   20.2260 C   0  0  0  0  0  0  0  0  0  0  0  0
    4.9206    1.2546   19.0845 C   0  0  0  0  0  0  0  0  0  0  0  0
    5.5780    1.1346   17.8524 C   0  0  0  0  0  0  0  0  0  0  0  0
    6.7206    0.4478   17.6946 N   0  0  0  0  0  0  0  0  0  0  0  0
    7.2801   -0.0960   18.7738 C   0  0  0  0  0  0  0  0  0  0  0  0
    8.1653   -0.7077   18.6093 H   0  0  0  0  0  0  0  0  0  0  0  0
    5.1598    1.5874   16.9548 H   0  0  0  0  0  0  0  0  0  0  0  0
    3.9725    1.7749   19.1392 H   0  0  0  0  0  0  0  0  0  0  0  0
    5.0146    0.7584   21.2022 H   0  0  0  0  0  0  0  0  0  0  0  0
    8.3716   -3.9945   21.0154 H   0  0  0  0  0  0  0  0  0  0  0  0
    9.4976   -2.6484   21.0533 H   0  0  0  0  0  0  0  0  0  0  0  0
    9.5085   -3.9005   23.2114 H   0  0  0  0  0  0  0  0  0  0  0  0
    7.7721   -3.6518   23.4127 H   0  0  0  0  0  0  0  0  0  0  0  0
    8.8675   -2.2597   23.4995 H   0  0  0  0  0  0  0  0  0  0  0  0
  1  2  1  0
  2  3  1  0
  3  4  1  0
  4  5  1  0
  5  6  2  0
  6  7  1  0
  7  8  2  0
  8  9  1  0
  9 10  2  0
 10 11  1  0
  9 12  1  0
  8 13  1  0
  7 14  1  0
  6 15  1  0
  4 16  1  0
  4 17  1  0
  3 18  1  0
 18 19  2  0
 18 20  2  0
 18 21  1  0
 21 22  2  0
 22 23  1  0
 23 24  2  0
 24 25  1  0
 25 26  2  0
 26 27  1  0
 24 28  1  0
 23 29  1  0
 22 30  1  0
  2 31  1  0
  2 32  1  0
  1 33  1  0
  1 34  1  0
  1 35  1  0
 10  5  1  0
 26 21  1  0
M  END
>  <cnnaffinity>  (1) 
-5.01567

>  <filename>  (1) 
CCN(Cc1ccccc1Cl)S(=O)(=O)c1cccnc1

$$$$
