
     RDKit          3D

 37 39  0  0  0  0  0  0  0  0999 V2000
    4.9060    1.7695   17.0084 H   0  0  0  0  0  0  0  0  0  0  0  0
    5.4005    1.2894   17.8491 C   0  0  0  0  0  0  0  0  0  0  0  0
    6.5716    0.6801   17.5908 N   0  0  0  0  0  0  0  0  0  0  0  0
    7.1793    0.0597   18.6077 C   0  0  0  0  0  0  0  0  0  0  0  0
    8.1297   -0.4344   18.3768 H   0  0  0  0  0  0  0  0  0  0  0  0
    6.6575    0.0086   19.9114 C   0  0  0  0  0  0  0  0  0  0  0  0
    7.3726   -0.6961   20.9694 C   0  0  0  0  0  0  0  0  0  0  0  0
    6.8939   -0.7685   22.2675 N   0  0  0  0  0  0  0  0  0  0  0  0
    7.7877   -1.4628   22.8969 C   0  0  0  0  0  0  0  0  0  0  0  0
    7.7580   -1.8113   24.2074 N   0  0  0  0  0  0  0  0  0  0  0  0
    6.5621   -1.4646   25.0052 C   0  0  0  0  0  0  0  0  0  0  0  0
    6.3774   -0.3809   24.9684 H   0  0  0  0  0  0  0  0  0  0  0  0
    5.6698   -1.9762   24.6021 H   0  0  0  0  0  0  0  0  0  0  0  0
    6.6574   -1.8817   26.4869 C   0  0  0  0  0  0  0  0  0  0  0  0
    5.8696   -1.3757   27.0464 H   0  0  0  0  0  0  0  0  0  0  0  0
    6.5337   -2.9545   26.6167 H   0  0  0  0  0  0  0  0  0  0  0  0
    8.0389   -1.5724   27.3680 N   0  0  0  0  0  0  0  0  0  0  0  0
    8.0389   -1.5724   27.3681 C   0  0  0  0  0  0  0  0  0  0  0  0
    6.9483   -0.9452   28.5733 H   0  0  0  0  0  0  0  0  0  0  0  0
    8.2442   -2.6463   28.1098 H   0  0  0  0  0  0  0  0  0  0  0  0
    9.3883   -0.7299   28.9277 C   0  0  0  0  0  0  0  0  0  0  0  0
    9.0708   -0.6812   30.0124 H   0  0  0  0  0  0  0  0  0  0  0  0
   10.2400   -1.3301   28.7276 H   0  0  0  0  0  0  0  0  0  0  0  0
    9.3280    0.2554   28.5853 H   0  0  0  0  0  0  0  0  0  0  0  0
    9.1393   -2.1929   26.2933 C   0  0  0  0  0  0  0  0  0  0  0  0
    9.4061   -3.1622   26.8597 H   0  0  0  0  0  0  0  0  0  0  0  0
    9.9911   -1.5521   26.2969 H   0  0  0  0  0  0  0  0  0  0  0  0
    8.7660   -2.6608   24.8604 C   0  0  0  0  0  0  0  0  0  0  0  0
    8.4158   -3.7057   24.8969 H   0  0  0  0  0  0  0  0  0  0  0  0
    9.7003   -2.6493   24.3051 H   0  0  0  0  0  0  0  0  0  0  0  0
    8.8322   -1.8719   22.1349 O   0  0  0  0  0  0  0  0  0  0  0  0
    8.5414   -1.3592   20.8811 C   0  0  0  0  0  0  0  0  0  0  0  0
    9.2099   -1.5287   20.0561 H   0  0  0  0  0  0  0  0  0  0  0  0
    5.4391    0.6546   20.1584 C   0  0  0  0  0  0  0  0  0  0  0  0
    5.0114    0.6272   21.1571 H   0  0  0  0  0  0  0  0  0  0  0  0
    4.8039    1.3130   19.1128 C   0  0  0  0  0  0  0  0  0  0  0  0
    3.8735    1.8446   19.2683 H   0  0  0  0  0  0  0  0  0  0  0  0
  1  2  1  0
  2  3  2  0
  3  4  1  0
  4  5  1  0
  4  6  2  0
  6  7  1  0
  7  8  1  0
  8  9  2  0
  9 10  1  0
 10 11  1  0
 11 12  1  0
 11 13  1  0
 11 14  1  0
 14 15  1  0
 14 16  1  0
 14 17  1  0
 17 18  1  0
 18 19  1  0
 18 20  1  0
 18 21  1  0
 21 22  1  0
 21 23  1  0
 21 24  1  0
 17 25  1  0
 25 26  1  0
 25 27  1  0
 25 28  1  0
 28 29  1  0
 28 30  1  0
  9 31  1  0
 31 32  1  0
 32 33  1  0
  6 34  1  0
 34 35  1  0
 34 36  2  0
 36 37  1  0
 36  2  1  0
 32  7  2  0
 28 10  1  0
M  END
>  <cnnaffinity>  (1) 
-4.71887

>  <filename>  (1) 
CCN1CCN(c2nc(-c3cccnc3)co2)CC1

$$$$
