
     RDKit          3D

 49 52  0  0  0  0  0  0  0  0999 V2000
    7.7639    0.9092   28.6931 C   0  0  0  0  0  0  0  0  0  0  0  0
    7.9306   -0.0093   27.4829 C   0  0  0  0  0  0  0  0  0  0  0  0
    7.2090    0.4255   26.2934 N   0  0  0  0  0  0  0  0  0  0  0  0
    7.7249    1.0600   25.2176 C   0  0  0  0  0  0  0  0  0  0  0  0
    6.7108    1.2207   24.2972 C   0  0  0  0  0  0  0  0  0  0  0  0
    6.9326    1.7530   22.8837 C   0  0  0  0  0  0  0  0  0  0  0  0
    7.9375    0.9159   22.1440 C   0  0  0  0  0  0  0  0  0  0  0  0
    9.2475    1.0822   22.2246 N   0  0  0  0  0  0  0  0  0  0  0  0
    9.7378   -0.0946   21.7609 C   0  0  0  0  0  0  0  0  0  0  0  0
   11.1648   -0.4640   21.7660 C   0  0  0  0  0  0  0  0  0  0  0  0
   12.1353    0.3411   22.3809 C   0  0  0  0  0  0  0  0  0  0  0  0
   13.4927    0.0341   22.2416 C   0  0  0  0  0  0  0  0  0  0  0  0
   14.5298    0.9095   22.8815 C   0  0  0  0  0  0  0  0  0  0  0  0
   15.4579    0.8834   22.3055 H   0  0  0  0  0  0  0  0  0  0  0  0
   14.2096    1.9562   22.9237 H   0  0  0  0  0  0  0  0  0  0  0  0
   14.7125    0.5609   23.9039 H   0  0  0  0  0  0  0  0  0  0  0  0
   13.8651   -1.0913   21.4848 C   0  0  0  0  0  0  0  0  0  0  0  0
   12.9071   -1.8997   20.8813 C   0  0  0  0  0  0  0  0  0  0  0  0
   11.5596   -1.6390   21.1064 C   0  0  0  0  0  0  0  0  0  0  0  0
   10.7637   -2.2926   20.7579 H   0  0  0  0  0  0  0  0  0  0  0  0
   13.2369   -2.7016   20.2208 H   0  0  0  0  0  0  0  0  0  0  0  0
   14.9004   -1.3711   21.3482 H   0  0  0  0  0  0  0  0  0  0  0  0
   11.8300    1.1968   22.9886 H   0  0  0  0  0  0  0  0  0  0  0  0
    8.8053   -0.9291   21.3246 N   0  0  0  0  0  0  0  0  0  0  0  0
    7.6556   -0.2818   21.5943 N   0  0  0  0  0  0  0  0  0  0  0  0
    6.3952   -0.7685   21.0403 C   0  0  0  0  0  0  0  0  0  0  0  0
    5.9686    0.0122   19.8150 C   0  0  0  0  0  0  0  0  0  0  0  0
    4.7988    0.7757   19.7751 C   0  0  0  0  0  0  0  0  0  0  0  0
    4.5395    1.5468   18.6385 C   0  0  0  0  0  0  0  0  0  0  0  0
    5.4546    1.5103   17.5820 C   0  0  0  0  0  0  0  0  0  0  0  0
    6.5685    0.7626   17.5872 N   0  0  0  0  0  0  0  0  0  0  0  0
    6.8097    0.0409   18.6873 C   0  0  0  0  0  0  0  0  0  0  0  0
    7.7217   -0.5559   18.6799 H   0  0  0  0  0  0  0  0  0  0  0  0
    5.2870    2.1044   16.6869 H   0  0  0  0  0  0  0  0  0  0  0  0
    3.6605    2.1784   18.5670 H   0  0  0  0  0  0  0  0  0  0  0  0
    4.1109    0.7788   20.6249 H   0  0  0  0  0  0  0  0  0  0  0  0
    6.5491   -1.8288   20.8215 H   0  0  0  0  0  0  0  0  0  0  0  0
    5.6453   -0.7133   21.8294 H   0  0  0  0  0  0  0  0  0  0  0  0
    6.0055    1.8230   22.3049 H   0  0  0  0  0  0  0  0  0  0  0  0
    7.3648    2.7581   22.9120 H   0  0  0  0  0  0  0  0  0  0  0  0
    5.5850    0.6658   24.9497 C   0  0  0  0  0  0  0  0  0  0  0  0
    5.8991    0.1886   26.1508 N   0  0  0  0  0  0  0  0  0  0  0  0
    4.5584    0.5887   24.6021 H   0  0  0  0  0  0  0  0  0  0  0  0
    8.7778    1.3287   25.1528 H   0  0  0  0  0  0  0  0  0  0  0  0
    7.5915   -1.0230   27.7198 H   0  0  0  0  0  0  0  0  0  0  0  0
    8.9857   -0.0682   27.1970 H   0  0  0  0  0  0  0  0  0  0  0  0
    6.7251    0.9208   29.0348 H   0  0  0  0  0  0  0  0  0  0  0  0
    8.3887    0.5443   29.5146 H   0  0  0  0  0  0  0  0  0  0  0  0
    8.0707    1.9328   28.4618 H   0  0  0  0  0  0  0  0  0  0  0  0
  1  2  1  0
  2  3  1  0
  3  4  1  0
  4  5  2  0
  5  6  1  0
  6  7  1  0
  7  8  2  0
  8  9  1  0
  9 10  1  0
 10 11  2  0
 11 12  1  0
 12 13  1  0
 13 14  1  0
 13 15  1  0
 13 16  1  0
 12 17  2  0
 17 18  1  0
 18 19  2  0
 19 20  1  0
 18 21  1  0
 17 22  1  0
 11 23  1  0
  9 24  2  0
 24 25  1  0
 25 26  1  0
 26 27  1  0
 27 28  2  0
 28 29  1  0
 29 30  2  0
 30 31  1  0
 31 32  2  0
 32 33  1  0
 30 34  1  0
 29 35  1  0
 28 36  1  0
 26 37  1  0
 26 38  1  0
  6 39  1  0
  6 40  1  0
  5 41  1  0
 41 42  2  0
 41 43  1  0
  4 44  1  0
  2 45  1  0
  2 46  1  0
  1 47  1  0
  1 48  1  0
  1 49  1  0
 42  3  1  0
 25  7  1  0
 32 27  1  0
 19 10  1  0
M  END
>  <cnnaffinity>  (1) 
-6.44189

>  <filename>  (1) 
CCn1cc(Cc2nc(-c3cccc(C)c3)nn2Cc2cccnc2)cn1

$$$$
