
     RDKit          3D

 40 42  0  0  0  0  0  0  0  0999 V2000
    4.9315    1.8751   16.8914 H   0  0  0  0  0  0  0  0  0  0  0  0
    5.3779    1.3480   17.7325 C   0  0  0  0  0  0  0  0  0  0  0  0
    6.5322    0.7080   17.4867 N   0  0  0  0  0  0  0  0  0  0  0  0
    7.1232    0.0581   18.5052 C   0  0  0  0  0  0  0  0  0  0  0  0
    8.0336   -0.4873   18.2560 H   0  0  0  0  0  0  0  0  0  0  0  0
    6.6127    0.0222   19.8304 C   0  0  0  0  0  0  0  0  0  0  0  0
    7.2529   -0.6242   20.9151 N   0  0  0  0  0  0  0  0  0  0  0  0
    6.6438   -0.9769   21.6410 H   0  0  0  0  0  0  0  0  0  0  0  0
    8.6225   -0.5509   21.2671 C   0  0  0  0  0  0  0  0  0  0  0  0
    9.6036    0.3130   20.7152 C   0  0  0  0  0  0  0  0  0  0  0  0
    9.4315    1.0702   19.9691 H   0  0  0  0  0  0  0  0  0  0  0  0
   10.8133    0.1308   21.2228 N   0  0  0  0  0  0  0  0  0  0  0  0
   10.6302   -0.8678   22.1022 N   0  0  0  0  0  0  0  0  0  0  0  0
   11.3748   -1.1796   22.7092 H   0  0  0  0  0  0  0  0  0  0  0  0
    9.3405   -1.2894   22.2126 C   0  0  0  0  0  0  0  0  0  0  0  0
    9.0626   -2.2220   23.2011 N   0  0  0  0  0  0  0  0  0  0  0  0
    9.6736   -3.5499   23.1176 C   0  0  0  0  0  0  0  0  0  0  0  0
    9.0719   -4.2008   22.4665 H   0  0  0  0  0  0  0  0  0  0  0  0
   10.6670   -3.4444   22.6743 H   0  0  0  0  0  0  0  0  0  0  0  0
    9.8153   -4.1748   24.5062 C   0  0  0  0  0  0  0  0  0  0  0  0
   10.1885   -5.2022   24.4175 H   0  0  0  0  0  0  0  0  0  0  0  0
   10.5882   -3.6009   25.0556 H   0  0  0  0  0  0  0  0  0  0  0  0
    8.5226   -4.1995   25.1973 N   0  0  0  0  0  0  0  0  0  0  0  0
    8.5037   -5.0268   26.4038 C   0  0  0  0  0  0  0  0  0  0  0  0
    7.5435   -4.8532   26.9050 H   0  0  0  0  0  0  0  0  0  0  0  0
    8.5029   -6.0889   26.1075 H   0  0  0  0  0  0  0  0  0  0  0  0
    9.6376   -4.7975   27.4117 C   0  0  0  0  0  0  0  0  0  0  0  0
    9.3886   -5.2911   28.3554 H   0  0  0  0  0  0  0  0  0  0  0  0
   10.5923   -5.2047   27.0507 H   0  0  0  0  0  0  0  0  0  0  0  0
    9.7698   -3.7304   27.6148 H   0  0  0  0  0  0  0  0  0  0  0  0
    8.0105   -2.8225   25.3226 C   0  0  0  0  0  0  0  0  0  0  0  0
    8.6966   -2.1560   25.8847 H   0  0  0  0  0  0  0  0  0  0  0  0
    7.0650   -2.8373   25.8753 H   0  0  0  0  0  0  0  0  0  0  0  0
    7.7910   -2.2255   23.9176 C   0  0  0  0  0  0  0  0  0  0  0  0
    7.0313   -2.8365   23.3988 H   0  0  0  0  0  0  0  0  0  0  0  0
    7.4272   -1.1957   23.9902 H   0  0  0  0  0  0  0  0  0  0  0  0
    5.3755    0.6502   20.0397 C   0  0  0  0  0  0  0  0  0  0  0  0
    4.9222    0.6163   21.0284 H   0  0  0  0  0  0  0  0  0  0  0  0
    4.7545    1.3328   18.9849 C   0  0  0  0  0  0  0  0  0  0  0  0
    3.8077    1.8490   19.1198 H   0  0  0  0  0  0  0  0  0  0  0  0
  1  2  1  0
  2  3  2  0
  3  4  1  0
  4  5  1  0
  4  6  2  0
  6  7  1  0
  7  8  1  0
  7  9  1  0
  9 10  1  0
 10 11  1  0
 10 12  2  0
 12 13  1  0
 13 14  1  0
 13 15  1  0
 15 16  1  0
 16 17  1  0
 17 18  1  0
 17 19  1  0
 17 20  1  0
 20 21  1  0
 20 22  1  0
 20 23  1  0
 23 24  1  0
 24 25  1  0
 24 26  1  0
 24 27  1  0
 27 28  1  0
 27 29  1  0
 27 30  1  0
 23 31  1  0
 31 32  1  0
 31 33  1  0
 31 34  1  0
 34 35  1  0
 34 36  1  0
  6 37  1  0
 37 38  1  0
 37 39  2  0
 39 40  1  0
 39  2  1  0
 15  9  2  0
 34 16  1  0
M  END
>  <cnnaffinity>  (1) 
-5.03087

>  <filename>  (1) 
CCN1CCN(c2[nH]ncc2Nc2cccnc2)CC1

$$$$
