
     RDKit          3D

 41 43  0  0  0  0  0  0  0  0999 V2000
    5.0411    1.7416   16.8799 H   0  0  0  0  0  0  0  0  0  0  0  0
    5.4812    1.2565   17.7484 C   0  0  0  0  0  0  0  0  0  0  0  0
    6.6168    0.5703   17.5302 N   0  0  0  0  0  0  0  0  0  0  0  0
    7.1739   -0.0503   18.5727 C   0  0  0  0  0  0  0  0  0  0  0  0
    8.0825   -0.6166   18.3548 H   0  0  0  0  0  0  0  0  0  0  0  0
    6.6647    0.0146   19.8865 C   0  0  0  0  0  0  0  0  0  0  0  0
    7.3362   -0.6610   21.0051 C   0  0  0  0  0  0  0  0  0  0  0  0
    7.5943   -0.0834   22.2412 C   0  0  0  0  0  0  0  0  0  0  0  0
    7.2550    1.2695   22.5069 N   0  0  0  0  0  0  0  0  0  0  0  0
    8.1184    2.2967   21.9144 C   0  0  0  0  0  0  0  0  0  0  0  0
    8.4147    1.9677   20.9155 H   0  0  0  0  0  0  0  0  0  0  0  0
    9.0394    2.4462   22.5064 H   0  0  0  0  0  0  0  0  0  0  0  0
    7.3730    3.6391   21.8261 C   0  0  0  0  0  0  0  0  0  0  0  0
    6.5423    3.5236   21.1155 H   0  0  0  0  0  0  0  0  0  0  0  0
    8.0478    4.3988   21.4173 H   0  0  0  0  0  0  0  0  0  0  0  0
    6.7950    4.1209   23.0822 N   0  0  0  0  0  0  0  0  0  0  0  0
    7.6669    4.8570   23.9946 C   0  0  0  0  0  0  0  0  0  0  0  0
    8.0443    4.2068   24.8011 H   0  0  0  0  0  0  0  0  0  0  0  0
    8.5441    5.2165   23.4348 H   0  0  0  0  0  0  0  0  0  0  0  0
    6.9440    6.0510   24.6198 C   0  0  0  0  0  0  0  0  0  0  0  0
    6.0982    5.7317   25.2440 H   0  0  0  0  0  0  0  0  0  0  0  0
    7.6352    6.6217   25.2507 H   0  0  0  0  0  0  0  0  0  0  0  0
    6.5573    6.7179   23.8428 H   0  0  0  0  0  0  0  0  0  0  0  0
    6.0080    3.0274   23.6643 C   0  0  0  0  0  0  0  0  0  0  0  0
    5.1708    2.8365   22.9771 H   0  0  0  0  0  0  0  0  0  0  0  0
    5.5764    3.3563   24.6150 H   0  0  0  0  0  0  0  0  0  0  0  0
    6.7625    1.6846   23.8207 C   0  0  0  0  0  0  0  0  0  0  0  0
    7.5717    1.7786   24.5714 H   0  0  0  0  0  0  0  0  0  0  0  0
    6.0588    0.9364   24.1879 H   0  0  0  0  0  0  0  0  0  0  0  0
    8.2565   -0.8964   23.2233 C   0  0  0  0  0  0  0  0  0  0  0  0
    8.5001   -0.4189   24.1730 H   0  0  0  0  0  0  0  0  0  0  0  0
    8.5782   -2.2052   22.9773 C   0  0  0  0  0  0  0  0  0  0  0  0
    9.0583   -2.8515   23.6970 H   0  0  0  0  0  0  0  0  0  0  0  0
    8.2671   -2.8263   21.6960 C   0  0  0  0  0  0  0  0  0  0  0  0
    8.4376   -3.9903   21.3715 O   0  0  0  0  0  0  0  0  0  0  0  0
    7.7216   -1.9551   20.7731 N   0  0  0  0  0  0  0  0  0  0  0  0
    7.5235   -2.4201   19.8995 H   0  0  0  0  0  0  0  0  0  0  0  0
    5.4809    0.7400   20.0945 C   0  0  0  0  0  0  0  0  0  0  0  0
    5.0400    0.7860   21.0915 H   0  0  0  0  0  0  0  0  0  0  0  0
    4.8742    1.3543   19.0043 C   0  0  0  0  0  0  0  0  0  0  0  0
    3.9496    1.9113   19.1127 H   0  0  0  0  0  0  0  0  0  0  0  0
  1  2  1  0
  2  3  2  0
  3  4  1  0
  4  5  1  0
  4  6  2  0
  6  7  1  0
  7  8  2  0
  8  9  1  0
  9 10  1  0
 10 11  1  0
 10 12  1  0
 10 13  1  0
 13 14  1  0
 13 15  1  0
 13 16  1  0
 16 17  1  0
 17 18  1  0
 17 19  1  0
 17 20  1  0
 20 21  1  0
 20 22  1  0
 20 23  1  0
 16 24  1  0
 24 25  1  0
 24 26  1  0
 24 27  1  0
 27 28  1  0
 27 29  1  0
  8 30  1  0
 30 31  1  0
 30 32  2  0
 32 33  1  0
 32 34  1  0
 34 35  2  0
 34 36  1  0
 36 37  1  0
  6 38  1  0
 38 39  1  0
 38 40  2  0
 40 41  1  0
 40  2  1  0
 36  7  1  0
 27  9  1  0
M  END
>  <cnnaffinity>  (1) 
-5.31941

>  <filename>  (1) 
CCN1CCN(c2ccc(=O)[nH]c2-c2cccnc2)CC1

$$$$
