
     RDKit          3D

 46 49  0  0  0  0  0  0  0  0999 V2000
    7.8930    0.8641   28.4282 C   0  0  0  0  0  0  0  0  0  0  0  0
    8.1559   -0.1812   27.3445 C   0  0  0  0  0  0  0  0  0  0  0  0
    7.6195    0.2092   26.0497 N   0  0  0  0  0  0  0  0  0  0  0  0
    8.2742    0.9075   25.0977 C   0  0  0  0  0  0  0  0  0  0  0  0
    7.3804    1.1695   24.0837 C   0  0  0  0  0  0  0  0  0  0  0  0
    7.7787    1.8081   22.7628 C   0  0  0  0  0  0  0  0  0  0  0  0
    8.8189    0.9568   22.0824 C   0  0  0  0  0  0  0  0  0  0  0  0
   10.1289    1.0414   22.2619 N   0  0  0  0  0  0  0  0  0  0  0  0
   10.5887   -0.1539   21.8060 C   0  0  0  0  0  0  0  0  0  0  0  0
   12.0275   -0.5228   21.7488 C   0  0  0  0  0  0  0  0  0  0  0  0
   12.3914   -1.6572   21.0077 C   0  0  0  0  0  0  0  0  0  0  0  0
   13.6705   -1.8257   20.4634 C   0  0  0  0  0  0  0  0  0  0  0  0
   14.5989   -0.8286   20.7405 C   0  0  0  0  0  0  0  0  0  0  0  0
   16.0084   -0.3955   19.6500 Cl  0  0  0  0  0  0  0  0  0  0  0  0
   14.3603    0.1036   21.7798 C   0  0  0  0  0  0  0  0  0  0  0  0
   13.0663    0.2815   22.2639 C   0  0  0  0  0  0  0  0  0  0  0  0
   12.8727    1.0739   22.9833 H   0  0  0  0  0  0  0  0  0  0  0  0
   15.1443    0.7978   22.0719 H   0  0  0  0  0  0  0  0  0  0  0  0
   13.9138   -2.7054   19.8754 H   0  0  0  0  0  0  0  0  0  0  0  0
   11.5884   -2.3472   20.8112 H   0  0  0  0  0  0  0  0  0  0  0  0
    9.6324   -0.9429   21.3306 N   0  0  0  0  0  0  0  0  0  0  0  0
    8.5091   -0.2105   21.4824 N   0  0  0  0  0  0  0  0  0  0  0  0
    7.2189   -0.7369   21.0380 C   0  0  0  0  0  0  0  0  0  0  0  0
    6.5435    0.0383   19.9203 C   0  0  0  0  0  0  0  0  0  0  0  0
    5.3143    0.6904   20.0836 C   0  0  0  0  0  0  0  0  0  0  0  0
    4.7494    1.3564   18.9931 C   0  0  0  0  0  0  0  0  0  0  0  0
    5.4338    1.3420   17.7743 C   0  0  0  0  0  0  0  0  0  0  0  0
    6.6079    0.7172   17.5910 N   0  0  0  0  0  0  0  0  0  0  0  0
    7.1410    0.0936   18.6485 C   0  0  0  0  0  0  0  0  0  0  0  0
    8.0920   -0.4091   18.4750 H   0  0  0  0  0  0  0  0  0  0  0  0
    5.0228    1.8507   16.9055 H   0  0  0  0  0  0  0  0  0  0  0  0
    3.8088    1.8909   19.0768 H   0  0  0  0  0  0  0  0  0  0  0  0
    4.8025    0.6838   21.0492 H   0  0  0  0  0  0  0  0  0  0  0  0
    7.4293   -1.7615   20.7198 H   0  0  0  0  0  0  0  0  0  0  0  0
    6.5553   -0.8026   21.9063 H   0  0  0  0  0  0  0  0  0  0  0  0
    6.9107    1.9523   22.1106 H   0  0  0  0  0  0  0  0  0  0  0  0
    8.2227    2.7965   22.9221 H   0  0  0  0  0  0  0  0  0  0  0  0
    6.1828    0.5757   24.5376 C   0  0  0  0  0  0  0  0  0  0  0  0
    6.3343    0.0117   25.7335 N   0  0  0  0  0  0  0  0  0  0  0  0
    5.2120    0.5289   24.0542 H   0  0  0  0  0  0  0  0  0  0  0  0
    9.3390    1.1166   25.1579 H   0  0  0  0  0  0  0  0  0  0  0  0
    9.2322   -0.3280   27.2042 H   0  0  0  0  0  0  0  0  0  0  0  0
    7.7182   -1.1498   27.6042 H   0  0  0  0  0  0  0  0  0  0  0  0
    8.4243    0.6012   29.3475 H   0  0  0  0  0  0  0  0  0  0  0  0
    8.2356    1.8520   28.1033 H   0  0  0  0  0  0  0  0  0  0  0  0
    6.8244    0.9281   28.6489 H   0  0  0  0  0  0  0  0  0  0  0  0
  1  2  1  0
  2  3  1  0
  3  4  1  0
  4  5  2  0
  5  6  1  0
  6  7  1  0
  7  8  2  0
  8  9  1  0
  9 10  1  0
 10 11  2  0
 11 12  1  0
 12 13  2  0
 13 14  1  0
 13 15  1  0
 15 16  2  0
 16 17  1  0
 15 18  1  0
 12 19  1  0
 11 20  1  0
  9 21  2  0
 21 22  1  0
 22 23  1  0
 23 24  1  0
 24 25  2  0
 25 26  1  0
 26 27  2  0
 27 28  1  0
 28 29  2  0
 29 30  1  0
 27 31  1  0
 26 32  1  0
 25 33  1  0
 23 34  1  0
 23 35  1  0
  6 36  1  0
  6 37  1  0
  5 38  1  0
 38 39  2  0
 38 40  1  0
  4 41  1  0
  2 42  1  0
  2 43  1  0
  1 44  1  0
  1 45  1  0
  1 46  1  0
 39  3  1  0
 22  7  1  0
 29 24  1  0
 16 10  1  0
M  END
>  <cnnaffinity>  (1) 
-6.61283

>  <filename>  (1) 
CCn1cc(Cc2nc(-c3ccc(Cl)cc3)nn2Cc2cccnc2)cn1

$$$$
