
     RDKit          3D

 46 49  0  0  0  0  0  0  0  0999 V2000
    7.8195    0.8523   28.5588 C   0  0  0  0  0  0  0  0  0  0  0  0
    8.0378   -0.1149   27.3970 C   0  0  0  0  0  0  0  0  0  0  0  0
    7.4099    0.3266   26.1619 N   0  0  0  0  0  0  0  0  0  0  0  0
    8.0033    1.0441   25.1861 C   0  0  0  0  0  0  0  0  0  0  0  0
    7.0746    1.2561   24.1941 C   0  0  0  0  0  0  0  0  0  0  0  0
    7.4364    1.8482   22.8417 C   0  0  0  0  0  0  0  0  0  0  0  0
    8.4770    1.0001   22.1658 C   0  0  0  0  0  0  0  0  0  0  0  0
    9.7917    1.1089   22.2974 N   0  0  0  0  0  0  0  0  0  0  0  0
   10.2438   -0.0819   21.8342 C   0  0  0  0  0  0  0  0  0  0  0  0
   11.6526   -0.5047   21.7475 C   0  0  0  0  0  0  0  0  0  0  0  0
   12.7401    0.2385   22.2369 C   0  0  0  0  0  0  0  0  0  0  0  0
   14.0462   -0.1747   21.9541 C   0  0  0  0  0  0  0  0  0  0  0  0
   14.2536   -1.2882   21.1280 C   0  0  0  0  0  0  0  0  0  0  0  0
   13.1827   -2.0323   20.6612 C   0  0  0  0  0  0  0  0  0  0  0  0
   11.9000   -1.7026   21.0632 C   0  0  0  0  0  0  0  0  0  0  0  0
   11.0443   -2.3065   20.7899 H   0  0  0  0  0  0  0  0  0  0  0  0
   13.3488   -2.8350   19.9477 H   0  0  0  0  0  0  0  0  0  0  0  0
   15.2139   -1.5792   20.7492 H   0  0  0  0  0  0  0  0  0  0  0  0
   14.8869    0.4249   22.2938 H   0  0  0  0  0  0  0  0  0  0  0  0
   12.5663    1.1691   22.7689 H   0  0  0  0  0  0  0  0  0  0  0  0
    9.2829   -0.8874   21.3989 N   0  0  0  0  0  0  0  0  0  0  0  0
    8.1601   -0.1879   21.6137 N   0  0  0  0  0  0  0  0  0  0  0  0
    6.8831   -0.7085   21.1450 C   0  0  0  0  0  0  0  0  0  0  0  0
    6.3321    0.0541   19.9618 C   0  0  0  0  0  0  0  0  0  0  0  0
    5.1205    0.7459   20.0119 C   0  0  0  0  0  0  0  0  0  0  0  0
    4.6860    1.4315   18.8742 C   0  0  0  0  0  0  0  0  0  0  0  0
    5.4864    1.3997   17.7290 C   0  0  0  0  0  0  0  0  0  0  0  0
    6.6579    0.7485   17.6617 N   0  0  0  0  0  0  0  0  0  0  0  0
    7.0625    0.1035   18.7618 C   0  0  0  0  0  0  0  0  0  0  0  0
    8.0203   -0.4096   18.6875 H   0  0  0  0  0  0  0  0  0  0  0  0
    5.1718    1.9134   16.8228 H   0  0  0  0  0  0  0  0  0  0  0  0
    3.7521    1.9827   18.8659 H   0  0  0  0  0  0  0  0  0  0  0  0
    4.5314    0.7566   20.9309 H   0  0  0  0  0  0  0  0  0  0  0  0
    6.1739   -0.7045   21.9782 H   0  0  0  0  0  0  0  0  0  0  0  0
    7.0700   -1.7540   20.8797 H   0  0  0  0  0  0  0  0  0  0  0  0
    6.5589    1.9523   22.1948 H   0  0  0  0  0  0  0  0  0  0  0  0
    7.8729    2.8436   22.9567 H   0  0  0  0  0  0  0  0  0  0  0  0
    5.9118    0.6311   24.6971 C   0  0  0  0  0  0  0  0  0  0  0  0
    6.1229    0.0811   25.8910 N   0  0  0  0  0  0  0  0  0  0  0  0
    4.9253    0.5498   24.2527 H   0  0  0  0  0  0  0  0  0  0  0  0
    9.0568    1.3053   25.2143 H   0  0  0  0  0  0  0  0  0  0  0  0
    9.1063   -0.2174   27.1779 H   0  0  0  0  0  0  0  0  0  0  0  0
    7.6475   -1.1111   27.6273 H   0  0  0  0  0  0  0  0  0  0  0  0
    6.7605    0.9003   28.8259 H   0  0  0  0  0  0  0  0  0  0  0  0
    8.1532    1.8605   28.2964 H   0  0  0  0  0  0  0  0  0  0  0  0
    8.3854    0.5214   29.4346 H   0  0  0  0  0  0  0  0  0  0  0  0
  1  2  1  0
  2  3  1  0
  3  4  1  0
  4  5  2  0
  5  6  1  0
  6  7  1  0
  7  8  2  0
  8  9  1  0
  9 10  1  0
 10 11  2  0
 11 12  1  0
 12 13  2  0
 13 14  1  0
 14 15  2  0
 15 16  1  0
 14 17  1  0
 13 18  1  0
 12 19  1  0
 11 20  1  0
  9 21  2  0
 21 22  1  0
 22 23  1  0
 23 24  1  0
 24 25  2  0
 25 26  1  0
 26 27  2  0
 27 28  1  0
 28 29  2  0
 29 30  1  0
 27 31  1  0
 26 32  1  0
 25 33  1  0
 23 34  1  0
 23 35  1  0
  6 36  1  0
  6 37  1  0
  5 38  1  0
 38 39  2  0
 38 40  1  0
  4 41  1  0
  2 42  1  0
  2 43  1  0
  1 44  1  0
  1 45  1  0
  1 46  1  0
 39  3  1  0
 22  7  1  0
 29 24  1  0
 15 10  1  0
M  END
>  <cnnaffinity>  (1) 
-6.45123

>  <filename>  (1) 
CCn1cc(Cc2nc(-c3ccccc3)nn2Cc2cccnc2)cn1

$$$$
