
     RDKit          3D

 46 49  0  0  0  0  0  0  0  0999 V2000
    7.7330    0.8813   28.7069 C   0  0  0  0  0  0  0  0  0  0  0  0
    7.8667    0.0134   27.4576 C   0  0  0  0  0  0  0  0  0  0  0  0
    7.0729    0.4701   26.3228 N   0  0  0  0  0  0  0  0  0  0  0  0
    7.5224    1.1872   25.2727 C   0  0  0  0  0  0  0  0  0  0  0  0
    6.5120    1.2779   24.3458 C   0  0  0  0  0  0  0  0  0  0  0  0
    6.7463    1.7459   22.9090 C   0  0  0  0  0  0  0  0  0  0  0  0
    7.7785    0.8590   22.2468 C   0  0  0  0  0  0  0  0  0  0  0  0
    9.0836    1.0207   22.4018 N   0  0  0  0  0  0  0  0  0  0  0  0
    9.5977   -0.1757   22.0252 C   0  0  0  0  0  0  0  0  0  0  0  0
   11.0496   -0.4753   22.0589 C   0  0  0  0  0  0  0  0  0  0  0  0
   11.9469    0.2667   22.8511 C   0  0  0  0  0  0  0  0  0  0  0  0
   13.3081    0.0266   22.6998 C   0  0  0  0  0  0  0  0  0  0  0  0
   14.1763    0.7617   23.4082 F   0  0  0  0  0  0  0  0  0  0  0  0
   13.8073   -0.9233   21.8203 C   0  0  0  0  0  0  0  0  0  0  0  0
   12.8984   -1.6520   21.0684 C   0  0  0  0  0  0  0  0  0  0  0  0
   13.3900   -2.4585   20.1218 F   0  0  0  0  0  0  0  0  0  0  0  0
   11.5295   -1.4894   21.2162 C   0  0  0  0  0  0  0  0  0  0  0  0
   10.8085   -2.1133   20.7077 H   0  0  0  0  0  0  0  0  0  0  0  0
   14.8588   -1.1116   21.7156 H   0  0  0  0  0  0  0  0  0  0  0  0
   11.6119    1.0164   23.5610 H   0  0  0  0  0  0  0  0  0  0  0  0
    8.6928   -1.0415   21.5978 N   0  0  0  0  0  0  0  0  0  0  0  0
    7.5237   -0.3712   21.7445 N   0  0  0  0  0  0  0  0  0  0  0  0
    6.3319   -0.8583   21.0488 C   0  0  0  0  0  0  0  0  0  0  0  0
    5.9835   -0.0306   19.8293 C   0  0  0  0  0  0  0  0  0  0  0  0
    4.8048    0.7181   19.7689 C   0  0  0  0  0  0  0  0  0  0  0  0
    4.5527    1.4908   18.6336 C   0  0  0  0  0  0  0  0  0  0  0  0
    5.4898    1.4829   17.5973 C   0  0  0  0  0  0  0  0  0  0  0  0
    6.6275    0.7730   17.6376 N   0  0  0  0  0  0  0  0  0  0  0  0
    6.8692    0.0520   18.7407 C   0  0  0  0  0  0  0  0  0  0  0  0
    7.8229   -0.4811   18.7586 H   0  0  0  0  0  0  0  0  0  0  0  0
    5.3119    2.0593   16.6896 H   0  0  0  0  0  0  0  0  0  0  0  0
    3.6607    2.1000   18.5523 H   0  0  0  0  0  0  0  0  0  0  0  0
    4.1023    0.7042   20.6058 H   0  0  0  0  0  0  0  0  0  0  0  0
    6.5424   -1.9013   20.7971 H   0  0  0  0  0  0  0  0  0  0  0  0
    5.4876   -0.8668   21.7357 H   0  0  0  0  0  0  0  0  0  0  0  0
    5.8188    1.7827   22.3244 H   0  0  0  0  0  0  0  0  0  0  0  0
    7.1768    2.7543   22.9034 H   0  0  0  0  0  0  0  0  0  0  0  0
    5.4409    0.6009   24.9746 C   0  0  0  0  0  0  0  0  0  0  0  0
    5.7905    0.1166   26.1631 N   0  0  0  0  0  0  0  0  0  0  0  0
    4.4357    0.4327   24.6070 H   0  0  0  0  0  0  0  0  0  0  0  0
    8.5522    1.5159   25.1816 H   0  0  0  0  0  0  0  0  0  0  0  0
    7.5780   -1.0225   27.6618 H   0  0  0  0  0  0  0  0  0  0  0  0
    8.9098    0.0019   27.1210 H   0  0  0  0  0  0  0  0  0  0  0  0
    6.7141    0.8425   29.1032 H   0  0  0  0  0  0  0  0  0  0  0  0
    8.4163    0.5075   29.4763 H   0  0  0  0  0  0  0  0  0  0  0  0
    7.9932    1.9228   28.4955 H   0  0  0  0  0  0  0  0  0  0  0  0
  1  2  1  0
  2  3  1  0
  3  4  1  0
  4  5  2  0
  5  6  1  0
  6  7  1  0
  7  8  2  0
  8  9  1  0
  9 10  1  0
 10 11  2  0
 11 12  1  0
 12 13  1  0
 12 14  2  0
 14 15  1  0
 15 16  1  0
 15 17  2  0
 17 18  1  0
 14 19  1  0
 11 20  1  0
  9 21  2  0
 21 22  1  0
 22 23  1  0
 23 24  1  0
 24 25  2  0
 25 26  1  0
 26 27  2  0
 27 28  1  0
 28 29  2  0
 29 30  1  0
 27 31  1  0
 26 32  1  0
 25 33  1  0
 23 34  1  0
 23 35  1  0
  6 36  1  0
  6 37  1  0
  5 38  1  0
 38 39  2  0
 38 40  1  0
  4 41  1  0
  2 42  1  0
  2 43  1  0
  1 44  1  0
  1 45  1  0
  1 46  1  0
 39  3  1  0
 22  7  1  0
 29 24  1  0
 17 10  1  0
M  END
>  <cnnaffinity>  (1) 
-6.36266

>  <filename>  (1) 
CCn1cc(Cc2nc(-c3cc(F)cc(F)c3)nn2Cc2cccnc2)cn1

$$$$
