
     RDKit          3D

 42 45  0  0  0  0  0  0  0  0999 V2000
    4.9897    1.8366   17.0169 H   0  0  0  0  0  0  0  0  0  0  0  0
    5.4965    1.3090   17.8211 C   0  0  0  0  0  0  0  0  0  0  0  0
    6.6566    0.7135   17.5030 N   0  0  0  0  0  0  0  0  0  0  0  0
    7.3111    0.0562   18.4697 C   0  0  0  0  0  0  0  0  0  0  0  0
    8.2460   -0.4155   18.1678 H   0  0  0  0  0  0  0  0  0  0  0  0
    6.8347   -0.0625   19.7925 C   0  0  0  0  0  0  0  0  0  0  0  0
    7.5198   -0.8462   20.7632 N   0  0  0  0  0  0  0  0  0  0  0  0
    8.8776   -0.8101   21.0803 C   0  0  0  0  0  0  0  0  0  0  0  0
    9.5247   -0.1215   20.5603 H   0  0  0  0  0  0  0  0  0  0  0  0
    9.1332   -1.6991   22.0781 C   0  0  0  0  0  0  0  0  0  0  0  0
   10.0279   -1.9291   22.6279 H   0  0  0  0  0  0  0  0  0  0  0  0
    7.9343   -2.3199   22.3646 N   0  0  0  0  0  0  0  0  0  0  0  0
    7.5255   -3.3248   23.1944 N   0  0  0  0  0  0  0  0  0  0  0  0
    6.2208   -3.4108   22.8994 C   0  0  0  0  0  0  0  0  0  0  0  0
    5.3697   -4.3496   23.4500 N   0  0  0  0  0  0  0  0  0  0  0  0
    3.9381   -4.2263   23.1630 C   0  0  0  0  0  0  0  0  0  0  0  0
    3.7992   -3.9263   22.1257 H   0  0  0  0  0  0  0  0  0  0  0  0
    3.4847   -3.4667   23.8203 H   0  0  0  0  0  0  0  0  0  0  0  0
    3.1874   -5.5474   23.3159 C   0  0  0  0  0  0  0  0  0  0  0  0
    3.5151   -6.2080   22.4899 H   0  0  0  0  0  0  0  0  0  0  0  0
    2.1206   -5.3489   23.1645 H   0  0  0  0  0  0  0  0  0  0  0  0
    3.3966   -6.1597   24.6298 N   0  0  0  0  0  0  0  0  0  0  0  0
    2.6517   -7.4071   24.7782 C   0  0  0  0  0  0  0  0  0  0  0  0
    2.7400   -8.0577   23.8819 H   0  0  0  0  0  0  0  0  0  0  0  0
    3.0834   -7.9707   25.6149 H   0  0  0  0  0  0  0  0  0  0  0  0
    1.1789   -7.1515   25.0825 C   0  0  0  0  0  0  0  0  0  0  0  0
    0.6663   -6.6494   24.2550 H   0  0  0  0  0  0  0  0  0  0  0  0
    0.6593   -8.0977   25.2657 H   0  0  0  0  0  0  0  0  0  0  0  0
    1.0732   -6.5183   25.9687 H   0  0  0  0  0  0  0  0  0  0  0  0
    4.8437   -6.3007   24.8722 C   0  0  0  0  0  0  0  0  0  0  0  0
    5.3115   -6.9892   24.1468 H   0  0  0  0  0  0  0  0  0  0  0  0
    4.9918   -6.7109   25.8786 H   0  0  0  0  0  0  0  0  0  0  0  0
    5.5660   -4.9426   24.7819 C   0  0  0  0  0  0  0  0  0  0  0  0
    6.6334   -5.0443   24.9938 H   0  0  0  0  0  0  0  0  0  0  0  0
    5.1186   -4.2929   25.5506 H   0  0  0  0  0  0  0  0  0  0  0  0
    5.8075   -2.5084   21.8847 C   0  0  0  0  0  0  0  0  0  0  0  0
    4.8058   -2.3579   21.5710 H   0  0  0  0  0  0  0  0  0  0  0  0
    6.9520   -1.8076   21.5892 C   0  0  0  0  0  0  0  0  0  0  0  0
    5.6299    0.5863   20.1149 C   0  0  0  0  0  0  0  0  0  0  0  0
    5.2569    0.5681   21.1392 H   0  0  0  0  0  0  0  0  0  0  0  0
    4.9493    1.2771   19.1088 C   0  0  0  0  0  0  0  0  0  0  0  0
    4.0232    1.8047   19.3151 H   0  0  0  0  0  0  0  0  0  0  0  0
  1  2  1  0
  2  3  2  0
  3  4  1  0
  4  5  1  0
  4  6  2  0
  6  7  1  0
  7  8  1  0
  8  9  1  0
  8 10  2  0
 10 11  1  0
 10 12  1  0
 12 13  1  0
 13 14  2  0
 14 15  1  0
 15 16  1  0
 16 17  1  0
 16 18  1  0
 16 19  1  0
 19 20  1  0
 19 21  1  0
 19 22  1  0
 22 23  1  0
 23 24  1  0
 23 25  1  0
 23 26  1  0
 26 27  1  0
 26 28  1  0
 26 29  1  0
 22 30  1  0
 30 31  1  0
 30 32  1  0
 30 33  1  0
 33 34  1  0
 33 35  1  0
 14 36  1  0
 36 37  1  0
 36 38  2  0
  6 39  1  0
 39 40  1  0
 39 41  2  0
 41 42  1  0
 41  2  1  0
 38  7  1  0
 38 12  1  0
 33 15  1  0
M  END
>  <cnnaffinity>  (1) 
-5.25999

>  <filename>  (1) 
CCN1CCN(c2cc3n(-c4cccnc4)ccn3n2)CC1

$$$$
