
     RDKit          3D

 46 48  0  0  0  0  0  0  0  0999 V2000
    7.6112   -6.3602   22.1714 C   0  0  0  0  0  0  0  0  0  0  0  0
    7.9816   -5.5419   23.4001 C   0  0  0  0  0  0  0  0  0  0  0  0
    7.7404   -4.1590   23.2070 O   0  0  0  0  0  0  0  0  0  0  0  0
    8.6188   -3.4861   22.3107 C   0  0  0  0  0  0  0  0  0  0  0  0
    8.1220   -2.1025   21.9889 C   0  0  0  0  0  0  0  0  0  0  0  0
    7.7362   -1.7837   20.7664 N   0  0  0  0  0  0  0  0  0  0  0  0
    7.2740   -0.5187   20.9064 N   0  0  0  0  0  0  0  0  0  0  0  0
    6.5768    0.1056   19.8418 C   0  0  0  0  0  0  0  0  0  0  0  0
    5.3553    0.7604   20.0470 C   0  0  0  0  0  0  0  0  0  0  0  0
    4.7568    1.3865   18.9511 C   0  0  0  0  0  0  0  0  0  0  0  0
    5.3961    1.3386   17.7092 C   0  0  0  0  0  0  0  0  0  0  0  0
    6.5483    0.6763   17.5009 N   0  0  0  0  0  0  0  0  0  0  0  0
    7.1101    0.0550   18.5419 C   0  0  0  0  0  0  0  0  0  0  0  0
    8.0242   -0.5035   18.3502 H   0  0  0  0  0  0  0  0  0  0  0  0
    4.9604    1.8330   16.8443 H   0  0  0  0  0  0  0  0  0  0  0  0
    3.8164    1.9150   19.0571 H   0  0  0  0  0  0  0  0  0  0  0  0
    4.8928    0.7732   21.0343 H   0  0  0  0  0  0  0  0  0  0  0  0
    7.4986   -0.1038   22.1918 C   0  0  0  0  0  0  0  0  0  0  0  0
    7.2707    1.2765   22.7342 C   0  0  0  0  0  0  0  0  0  0  0  0
    8.5027    1.7328   23.5036 C   0  0  0  0  0  0  0  0  0  0  0  0
    9.6138    2.2204   22.7829 C   0  0  0  0  0  0  0  0  0  0  0  0
    9.5643    2.3877   21.2832 C   0  0  0  0  0  0  0  0  0  0  0  0
    9.3386    1.4307   20.8000 H   0  0  0  0  0  0  0  0  0  0  0  0
   10.5305    2.7275   20.9037 H   0  0  0  0  0  0  0  0  0  0  0  0
    8.7881    3.0941   20.9693 H   0  0  0  0  0  0  0  0  0  0  0  0
   10.8201    2.4593   23.4537 C   0  0  0  0  0  0  0  0  0  0  0  0
   10.9404    2.1620   24.8117 C   0  0  0  0  0  0  0  0  0  0  0  0
    9.8443    1.6494   25.5177 C   0  0  0  0  0  0  0  0  0  0  0  0
    8.6101    1.4490   24.8845 C   0  0  0  0  0  0  0  0  0  0  0  0
    7.4633    0.8198   25.6476 C   0  0  0  0  0  0  0  0  0  0  0  0
    6.5546    1.4326   25.6183 H   0  0  0  0  0  0  0  0  0  0  0  0
    7.2271   -0.1553   25.2046 H   0  0  0  0  0  0  0  0  0  0  0  0
    7.7153    0.6579   26.6980 H   0  0  0  0  0  0  0  0  0  0  0  0
    9.9398    1.3286   26.5493 H   0  0  0  0  0  0  0  0  0  0  0  0
   11.9000    2.3068   25.2953 H   0  0  0  0  0  0  0  0  0  0  0  0
   11.6704    2.8419   22.8834 H   0  0  0  0  0  0  0  0  0  0  0  0
    7.0353    1.9731   21.9247 H   0  0  0  0  0  0  0  0  0  0  0  0
    6.3995    1.2372   23.3944 H   0  0  0  0  0  0  0  0  0  0  0  0
    8.0132   -1.0983   22.8911 N   0  0  0  0  0  0  0  0  0  0  0  0
    8.6797   -3.9936   21.3378 H   0  0  0  0  0  0  0  0  0  0  0  0
    9.6419   -3.4221   22.7219 H   0  0  0  0  0  0  0  0  0  0  0  0
    7.3562   -5.8541   24.2464 H   0  0  0  0  0  0  0  0  0  0  0  0
    9.0215   -5.7151   23.7203 H   0  0  0  0  0  0  0  0  0  0  0  0
    8.1563   -6.0185   21.2850 H   0  0  0  0  0  0  0  0  0  0  0  0
    6.5412   -6.2714   21.9590 H   0  0  0  0  0  0  0  0  0  0  0  0
    7.8437   -7.4148   22.3383 H   0  0  0  0  0  0  0  0  0  0  0  0
  1  2  1  0
  2  3  1  0
  3  4  1  0
  4  5  1  0
  5  6  2  0
  6  7  1  0
  7  8  1  0
  8  9  2  0
  9 10  1  0
 10 11  2  0
 11 12  1  0
 12 13  2  0
 13 14  1  0
 11 15  1  0
 10 16  1  0
  9 17  1  0
  7 18  1  0
 18 19  1  0
 19 20  1  0
 20 21  2  0
 21 22  1  0
 22 23  1  0
 22 24  1  0
 22 25  1  0
 21 26  1  0
 26 27  2  0
 27 28  1  0
 28 29  2  0
 29 30  1  0
 30 31  1  0
 30 32  1  0
 30 33  1  0
 28 34  1  0
 27 35  1  0
 26 36  1  0
 19 37  1  0
 19 38  1  0
 18 39  2  0
  4 40  1  0
  4 41  1  0
  2 42  1  0
  2 43  1  0
  1 44  1  0
  1 45  1  0
  1 46  1  0
 39  5  1  0
 13  8  1  0
 29 20  1  0
M  END
>  <cnnaffinity>  (1) 
-6.14534

>  <filename>  (1) 
CCOCc1nc(Cc2c(C)cccc2C)n(-c2cccnc2)n1

$$$$
