
     RDKit          3D

 47 49  0  0  0  0  0  0  0  0999 V2000
    7.8267   -6.2664   22.0382 C   0  0  0  0  0  0  0  0  0  0  0  0
    7.0414   -5.0267   22.4063 C   0  0  0  0  0  0  0  0  0  0  0  0
    7.8289   -4.3333   23.3591 O   0  0  0  0  0  0  0  0  0  0  0  0
    7.3921   -3.0200   23.6553 C   0  0  0  0  0  0  0  0  0  0  0  0
    7.6333   -2.0069   22.5656 C   0  0  0  0  0  0  0  0  0  0  0  0
    6.7282   -1.6797   21.6597 N   0  0  0  0  0  0  0  0  0  0  0  0
    7.3507   -0.7237   20.9209 N   0  0  0  0  0  0  0  0  0  0  0  0
    6.6454   -0.0557   19.8771 C   0  0  0  0  0  0  0  0  0  0  0  0
    5.4455    0.6158   20.1428 C   0  0  0  0  0  0  0  0  0  0  0  0
    4.8294    1.3065   19.0929 C   0  0  0  0  0  0  0  0  0  0  0  0
    5.4183    1.2819   17.8234 C   0  0  0  0  0  0  0  0  0  0  0  0
    6.5410    0.6001   17.5496 N   0  0  0  0  0  0  0  0  0  0  0  0
    7.1311   -0.0574   18.5574 C   0  0  0  0  0  0  0  0  0  0  0  0
    8.0282   -0.6212   18.3055 H   0  0  0  0  0  0  0  0  0  0  0  0
    4.9595    1.8085   16.9902 H   0  0  0  0  0  0  0  0  0  0  0  0
    3.9077    1.8552   19.2497 H   0  0  0  0  0  0  0  0  0  0  0  0
    5.0228    0.5938   21.1477 H   0  0  0  0  0  0  0  0  0  0  0  0
    8.6024   -0.5246   21.4377 C   0  0  0  0  0  0  0  0  0  0  0  0
    9.6372    0.4618   20.9554 C   0  0  0  0  0  0  0  0  0  0  0  0
   10.0007    1.5145   21.9282 N   0  0  0  0  0  0  0  0  0  0  0  0
   10.9875    1.1285   22.9529 C   0  0  0  0  0  0  0  0  0  0  0  0
   11.5515    2.3504   23.6892 C   0  0  0  0  0  0  0  0  0  0  0  0
   12.5476    3.1001   22.7985 C   0  0  0  0  0  0  0  0  0  0  0  0
   12.1249    3.2909   21.5407 F   0  0  0  0  0  0  0  0  0  0  0  0
   13.7000    2.3956   22.7351 F   0  0  0  0  0  0  0  0  0  0  0  0
   12.8654    4.3123   23.3030 F   0  0  0  0  0  0  0  0  0  0  0  0
   10.4125    3.2259   24.2326 C   0  0  0  0  0  0  0  0  0  0  0  0
    9.4155    3.6130   23.1389 C   0  0  0  0  0  0  0  0  0  0  0  0
    9.0498    2.5040   22.1648 C   0  0  0  0  0  0  0  0  0  0  0  0
    7.9787    2.5044   21.5826 O   0  0  0  0  0  0  0  0  0  0  0  0
    9.7939    4.4391   22.5253 H   0  0  0  0  0  0  0  0  0  0  0  0
    8.4776    3.9583   23.5801 H   0  0  0  0  0  0  0  0  0  0  0  0
   10.8183    4.1319   24.6984 H   0  0  0  0  0  0  0  0  0  0  0  0
    9.9053    2.6667   25.0314 H   0  0  0  0  0  0  0  0  0  0  0  0
   12.1607    1.9879   24.5276 H   0  0  0  0  0  0  0  0  0  0  0  0
   11.8008    0.5918   22.4455 H   0  0  0  0  0  0  0  0  0  0  0  0
   10.5310    0.4212   23.6666 H   0  0  0  0  0  0  0  0  0  0  0  0
   10.5454   -0.1133   20.7466 H   0  0  0  0  0  0  0  0  0  0  0  0
    9.3136    0.9260   20.0242 H   0  0  0  0  0  0  0  0  0  0  0  0
    8.8038   -1.3305   22.4586 N   0  0  0  0  0  0  0  0  0  0  0  0
    6.3251   -3.0026   23.9244 H   0  0  0  0  0  0  0  0  0  0  0  0
    7.9763   -2.7212   24.5287 H   0  0  0  0  0  0  0  0  0  0  0  0
    6.0515   -5.2679   22.8312 H   0  0  0  0  0  0  0  0  0  0  0  0
    6.8527   -4.4130   21.5094 H   0  0  0  0  0  0  0  0  0  0  0  0
    8.6742   -5.9896   21.4040 H   0  0  0  0  0  0  0  0  0  0  0  0
    8.2100   -6.7625   22.9348 H   0  0  0  0  0  0  0  0  0  0  0  0
    7.2016   -6.9778   21.4947 H   0  0  0  0  0  0  0  0  0  0  0  0
  1  2  1  0
  2  3  1  0
  3  4  1  0
  4  5  1  0
  5  6  2  0
  6  7  1  0
  7  8  1  0
  8  9  2  0
  9 10  1  0
 10 11  2  0
 11 12  1  0
 12 13  2  0
 13 14  1  0
 11 15  1  0
 10 16  1  0
  9 17  1  0
  7 18  1  0
 18 19  1  0
 19 20  1  0
 20 21  1  0
 21 22  1  0
 22 23  1  0
 23 24  1  0
 23 25  1  0
 23 26  1  0
 22 27  1  0
 27 28  1  0
 28 29  1  0
 29 30  2  0
 28 31  1  0
 28 32  1  0
 27 33  1  0
 27 34  1  0
 22 35  1  0
 21 36  1  0
 21 37  1  0
 19 38  1  0
 19 39  1  0
 18 40  2  0
  4 41  1  0
  4 42  1  0
  2 43  1  0
  2 44  1  0
  1 45  1  0
  1 46  1  0
  1 47  1  0
 40  5  1  0
 13  8  1  0
 29 20  1  0
M  END
>  <cnnaffinity>  (1) 
-6.38035

>  <filename>  (1) 
CCOCc1nc(CN2CC(C(F)(F)F)CCC2=O)n(-c2cccnc2)n1

$$$$
