
     RDKit          3D

 27 28  0  0  0  0  0  0  0  0999 V2000
    5.0081    1.7703   17.0120 H   0  0  0  0  0  0  0  0  0  0  0  0
    5.4935    1.2468   17.8325 C   0  0  0  0  0  0  0  0  0  0  0  0
    6.6621    0.6477   17.5448 N   0  0  0  0  0  0  0  0  0  0  0  0
    7.2854    0.0135   18.5456 C   0  0  0  0  0  0  0  0  0  0  0  0
    8.2397   -0.4514   18.3036 H   0  0  0  0  0  0  0  0  0  0  0  0
    6.7839   -0.0906   19.8700 C   0  0  0  0  0  0  0  0  0  0  0  0
    7.5149   -0.6906   20.9024 N   0  0  0  0  0  0  0  0  0  0  0  0
    7.0482   -1.7375   21.8423 C   0  0  0  0  0  0  0  0  0  0  0  0
    5.8803   -2.1302   21.8592 O   0  0  0  0  0  0  0  0  0  0  0  0
    4.9300   -4.1040   23.0903 C   0  0  0  0  0  0  0  0  0  0  0  0
    5.4195   -2.3831   23.8730 H   0  0  0  0  0  0  0  0  0  0  0  0
    3.6802   -3.8901   23.5991 H   0  0  0  0  0  0  0  0  0  0  0  0
    4.9744   -3.8722   23.1845 C   0  0  0  0  0  0  0  0  0  0  0  0
    5.3290   -4.5985   24.2955 H   0  0  0  0  0  0  0  0  0  0  0  0
    6.2596   -4.1193   22.7057 H   0  0  0  0  0  0  0  0  0  0  0  0
    4.4958   -3.6445   21.8463 H   0  0  0  0  0  0  0  0  0  0  0  0
    8.0603   -2.1467   22.5674 N   0  0  0  0  0  0  0  0  0  0  0  0
    9.1966   -1.2957   22.3296 C   0  0  0  0  0  0  0  0  0  0  0  0
   10.1221   -1.8767   22.3235 H   0  0  0  0  0  0  0  0  0  0  0  0
    9.2678   -0.5510   23.1358 H   0  0  0  0  0  0  0  0  0  0  0  0
    8.9470   -0.5968   20.9913 C   0  0  0  0  0  0  0  0  0  0  0  0
    9.4405   -1.1214   20.1591 H   0  0  0  0  0  0  0  0  0  0  0  0
    9.2814    0.4479   20.9754 H   0  0  0  0  0  0  0  0  0  0  0  0
    5.5518    0.5207   20.1369 C   0  0  0  0  0  0  0  0  0  0  0  0
    5.1529    0.5050   21.1445 H   0  0  0  0  0  0  0  0  0  0  0  0
    4.9046    1.2061   19.1032 C   0  0  0  0  0  0  0  0  0  0  0  0
    3.9700    1.7301   19.2822 H   0  0  0  0  0  0  0  0  0  0  0  0
  1  2  1  0
  2  3  2  0
  3  4  1  0
  4  5  1  0
  4  6  2  0
  6  7  1  0
  7  8  1  0
  8  9  1  0
  9 10  1  0
 10 11  1  0
 10 12  1  0
 10 13  1  0
 13 14  1  0
 13 15  1  0
 13 16  1  0
  8 17  2  0
 17 18  1  0
 18 19  1  0
 18 20  1  0
 18 21  1  0
 21 22  1  0
 21 23  1  0
  6 24  1  0
 24 25  1  0
 24 26  2  0
 26 27  1  0
 26  2  1  0
 21  7  1  0
M  END
>  <cnnaffinity>  (1) 
-4.01014

>  <filename>  (1) 
CCOC1=NCCN1c1cccnc1

$$$$
