
     RDKit          3D

 45 47  0  0  0  0  0  0  0  0999 V2000
    7.7983   -6.0523   22.8127 C   0  0  0  0  0  0  0  0  0  0  0  0
    6.8116   -5.3664   23.7458 C   0  0  0  0  0  0  0  0  0  0  0  0
    6.4931   -4.0674   23.2752 O   0  0  0  0  0  0  0  0  0  0  0  0
    7.3537   -3.0010   23.6394 C   0  0  0  0  0  0  0  0  0  0  0  0
    6.7798   -2.2774   24.8684 C   0  0  0  0  0  0  0  0  0  0  0  0
    5.8094   -1.8384   24.6175 H   0  0  0  0  0  0  0  0  0  0  0  0
    7.4485   -1.4811   25.2121 H   0  0  0  0  0  0  0  0  0  0  0  0
    6.6349   -2.9926   25.6829 H   0  0  0  0  0  0  0  0  0  0  0  0
    7.5586   -2.0437   22.4907 C   0  0  0  0  0  0  0  0  0  0  0  0
    6.6313   -1.6207   21.6542 N   0  0  0  0  0  0  0  0  0  0  0  0
    7.2964   -0.6931   20.9182 N   0  0  0  0  0  0  0  0  0  0  0  0
    6.6289   -0.0078   19.8643 C   0  0  0  0  0  0  0  0  0  0  0  0
    5.4192    0.6401   20.1258 C   0  0  0  0  0  0  0  0  0  0  0  0
    4.7897    1.3221   19.0836 C   0  0  0  0  0  0  0  0  0  0  0  0
    5.3870    1.3103   17.8144 C   0  0  0  0  0  0  0  0  0  0  0  0
    6.5292    0.6591   17.5460 N   0  0  0  0  0  0  0  0  0  0  0  0
    7.1389    0.0229   18.5525 C   0  0  0  0  0  0  0  0  0  0  0  0
    8.0765   -0.4792   18.3127 H   0  0  0  0  0  0  0  0  0  0  0  0
    4.9307    1.8443   16.9862 H   0  0  0  0  0  0  0  0  0  0  0  0
    3.8619    1.8656   19.2424 H   0  0  0  0  0  0  0  0  0  0  0  0
    5.0038    0.5857   21.1332 H   0  0  0  0  0  0  0  0  0  0  0  0
    8.5774   -0.5820   21.3823 C   0  0  0  0  0  0  0  0  0  0  0  0
    9.6507    0.3329   20.8695 C   0  0  0  0  0  0  0  0  0  0  0  0
   10.3009    1.1918   21.9497 C   0  0  0  0  0  0  0  0  0  0  0  0
   11.5675    0.8638   22.4517 C   0  0  0  0  0  0  0  0  0  0  0  0
   12.1817    1.5013   23.4572 N   0  0  0  0  0  0  0  0  0  0  0  0
   11.5187    2.5209   24.0061 C   0  0  0  0  0  0  0  0  0  0  0  0
   10.2630    2.9539   23.5829 C   0  0  0  0  0  0  0  0  0  0  0  0
    9.6231    2.2823   22.5341 C   0  0  0  0  0  0  0  0  0  0  0  0
    8.2618    2.7208   22.0678 C   0  0  0  0  0  0  0  0  0  0  0  0
    7.8941    3.5786   22.6319 H   0  0  0  0  0  0  0  0  0  0  0  0
    8.2748    3.0019   21.0143 H   0  0  0  0  0  0  0  0  0  0  0  0
    7.5199    1.9239   22.1670 H   0  0  0  0  0  0  0  0  0  0  0  0
    9.7852    3.7981   24.0713 H   0  0  0  0  0  0  0  0  0  0  0  0
   12.0102    3.0042   24.8414 H   0  0  0  0  0  0  0  0  0  0  0  0
   12.1193    0.0333   22.0115 H   0  0  0  0  0  0  0  0  0  0  0  0
    9.2284    0.9465   20.0719 H   0  0  0  0  0  0  0  0  0  0  0  0
   10.4043   -0.3256   20.4269 H   0  0  0  0  0  0  0  0  0  0  0  0
    8.7656   -1.4319   22.3679 N   0  0  0  0  0  0  0  0  0  0  0  0
    8.3720   -3.3606   23.8552 H   0  0  0  0  0  0  0  0  0  0  0  0
    7.1897   -5.3400   24.7805 H   0  0  0  0  0  0  0  0  0  0  0  0
    5.8488   -5.8875   23.7704 H   0  0  0  0  0  0  0  0  0  0  0  0
    8.0371   -7.0648   23.1430 H   0  0  0  0  0  0  0  0  0  0  0  0
    8.7378   -5.4920   22.7679 H   0  0  0  0  0  0  0  0  0  0  0  0
    7.3886   -6.1115   21.8012 H   0  0  0  0  0  0  0  0  0  0  0  0
  1  2  1  0
  2  3  1  0
  3  4  1  0
  4  5  1  0
  5  6  1  0
  5  7  1  0
  5  8  1  0
  4  9  1  0
  9 10  2  0
 10 11  1  0
 11 12  1  0
 12 13  2  0
 13 14  1  0
 14 15  2  0
 15 16  1  0
 16 17  2  0
 17 18  1  0
 15 19  1  0
 14 20  1  0
 13 21  1  0
 11 22  1  0
 22 23  1  0
 23 24  1  0
 24 25  2  0
 25 26  1  0
 26 27  2  0
 27 28  1  0
 28 29  2  0
 29 30  1  0
 30 31  1  0
 30 32  1  0
 30 33  1  0
 28 34  1  0
 27 35  1  0
 25 36  1  0
 23 37  1  0
 23 38  1  0
 22 39  2  0
  4 40  1  0
  2 41  1  0
  2 42  1  0
  1 43  1  0
  1 44  1  0
  1 45  1  0
 39  9  1  0
 17 12  1  0
 29 24  1  0
M  END
>  <cnnaffinity>  (1) 
-5.98766

>  <filename>  (1) 
CCOC(C)c1nc(Cc2cnccc2C)n(-c2cccnc2)n1

$$$$
