
     RDKit          3D

 42 44  0  0  0  0  0  0  0  0999 V2000
    5.0950   -1.4621   25.9466 C   0  0  0  0  0  0  0  0  0  0  0  0
    6.4470   -1.8566   25.3799 C   0  0  0  0  0  0  0  0  0  0  0  0
    6.2662   -2.8766   24.4024 O   0  0  0  0  0  0  0  0  0  0  0  0
    7.4038   -3.0891   23.5739 C   0  0  0  0  0  0  0  0  0  0  0  0
    7.2802   -4.4772   22.9459 C   0  0  0  0  0  0  0  0  0  0  0  0
    6.4393   -4.5035   22.2447 H   0  0  0  0  0  0  0  0  0  0  0  0
    8.2003   -4.7294   22.4063 H   0  0  0  0  0  0  0  0  0  0  0  0
    7.1138   -5.2173   23.7322 H   0  0  0  0  0  0  0  0  0  0  0  0
    7.5860   -2.0091   22.5295 C   0  0  0  0  0  0  0  0  0  0  0  0
    6.6493   -1.5974   21.6973 N   0  0  0  0  0  0  0  0  0  0  0  0
    7.3089   -0.6880   20.9329 N   0  0  0  0  0  0  0  0  0  0  0  0
    6.6407   -0.0113   19.8805 C   0  0  0  0  0  0  0  0  0  0  0  0
    5.4303    0.6328   20.1457 C   0  0  0  0  0  0  0  0  0  0  0  0
    4.8019    1.3141   19.0995 C   0  0  0  0  0  0  0  0  0  0  0  0
    5.3911    1.2988   17.8285 C   0  0  0  0  0  0  0  0  0  0  0  0
    6.5389    0.6583   17.5612 N   0  0  0  0  0  0  0  0  0  0  0  0
    7.1494    0.0291   18.5700 C   0  0  0  0  0  0  0  0  0  0  0  0
    8.0974   -0.4491   18.3294 H   0  0  0  0  0  0  0  0  0  0  0  0
    4.9309    1.8169   16.9898 H   0  0  0  0  0  0  0  0  0  0  0  0
    3.8727    1.8530   19.2518 H   0  0  0  0  0  0  0  0  0  0  0  0
    5.0206    0.5865   21.1558 H   0  0  0  0  0  0  0  0  0  0  0  0
    8.5931   -0.5810   21.3754 C   0  0  0  0  0  0  0  0  0  0  0  0
    9.6404    0.3119   20.8001 C   0  0  0  0  0  0  0  0  0  0  0  0
   10.3770    1.1203   21.8502 C   0  0  0  0  0  0  0  0  0  0  0  0
   11.6412    0.7174   22.2941 C   0  0  0  0  0  0  0  0  0  0  0  0
   12.2556    1.3829   23.3673 C   0  0  0  0  0  0  0  0  0  0  0  0
   11.5618    2.4365   23.9657 C   0  0  0  0  0  0  0  0  0  0  0  0
   10.3511    2.8391   23.5593 N   0  0  0  0  0  0  0  0  0  0  0  0
    9.7902    2.2029   22.5450 C   0  0  0  0  0  0  0  0  0  0  0  0
    8.1815    2.7379   22.1311 Cl  0  0  0  0  0  0  0  0  0  0  0  0
   11.9707    2.9979   24.8068 H   0  0  0  0  0  0  0  0  0  0  0  0
   13.2289    1.0908   23.7456 H   0  0  0  0  0  0  0  0  0  0  0  0
   12.1121   -0.1398   21.8054 H   0  0  0  0  0  0  0  0  0  0  0  0
    9.1833    0.9698   20.0595 H   0  0  0  0  0  0  0  0  0  0  0  0
   10.3358   -0.3660   20.2969 H   0  0  0  0  0  0  0  0  0  0  0  0
    8.8035   -1.4343   22.3574 N   0  0  0  0  0  0  0  0  0  0  0  0
    8.3288   -3.0308   24.1735 H   0  0  0  0  0  0  0  0  0  0  0  0
    6.9525   -0.9864   24.9293 H   0  0  0  0  0  0  0  0  0  0  0  0
    7.1087   -2.2320   26.1794 H   0  0  0  0  0  0  0  0  0  0  0  0
    4.4576   -0.9878   25.1957 H   0  0  0  0  0  0  0  0  0  0  0  0
    4.5734   -2.3390   26.3372 H   0  0  0  0  0  0  0  0  0  0  0  0
    5.2385   -0.7483   26.7641 H   0  0  0  0  0  0  0  0  0  0  0  0
  1  2  1  0
  2  3  1  0
  3  4  1  0
  4  5  1  0
  5  6  1  0
  5  7  1  0
  5  8  1  0
  4  9  1  0
  9 10  2  0
 10 11  1  0
 11 12  1  0
 12 13  2  0
 13 14  1  0
 14 15  2  0
 15 16  1  0
 16 17  2  0
 17 18  1  0
 15 19  1  0
 14 20  1  0
 13 21  1  0
 11 22  1  0
 22 23  1  0
 23 24  1  0
 24 25  2  0
 25 26  1  0
 26 27  2  0
 27 28  1  0
 28 29  2  0
 29 30  1  0
 27 31  1  0
 26 32  1  0
 25 33  1  0
 23 34  1  0
 23 35  1  0
 22 36  2  0
  4 37  1  0
  2 38  1  0
  2 39  1  0
  1 40  1  0
  1 41  1  0
  1 42  1  0
 36  9  1  0
 17 12  1  0
 29 24  1  0
M  END
>  <cnnaffinity>  (1) 
-6.01872

>  <filename>  (1) 
CCOC(C)c1nc(Cc2cccnc2Cl)n(-c2cccnc2)n1

$$$$
