
     RDKit          3D

 45 47  0  0  0  0  0  0  0  0999 V2000
    6.6367   -1.8566   26.4821 C   0  0  0  0  0  0  0  0  0  0  0  0
    7.4545   -3.0594   26.0374 C   0  0  0  0  0  0  0  0  0  0  0  0
    8.1007   -2.8060   24.8021 O   0  0  0  0  0  0  0  0  0  0  0  0
    7.3727   -3.0719   23.6060 C   0  0  0  0  0  0  0  0  0  0  0  0
    7.8130   -4.4526   23.0871 C   0  0  0  0  0  0  0  0  0  0  0  0
    8.8892   -4.4342   22.8808 H   0  0  0  0  0  0  0  0  0  0  0  0
    7.2791   -4.7301   22.1733 H   0  0  0  0  0  0  0  0  0  0  0  0
    7.6236   -5.2116   23.8543 H   0  0  0  0  0  0  0  0  0  0  0  0
    7.6117   -1.9848   22.5774 C   0  0  0  0  0  0  0  0  0  0  0  0
    6.6521   -1.5720   21.7663 N   0  0  0  0  0  0  0  0  0  0  0  0
    7.2947   -0.7042   20.9409 N   0  0  0  0  0  0  0  0  0  0  0  0
    6.6163   -0.0329   19.8845 C   0  0  0  0  0  0  0  0  0  0  0  0
    5.4085    0.6264   20.1368 C   0  0  0  0  0  0  0  0  0  0  0  0
    4.7901    1.3141   19.0898 C   0  0  0  0  0  0  0  0  0  0  0  0
    5.3911    1.3033   17.8257 C   0  0  0  0  0  0  0  0  0  0  0  0
    6.5385    0.6557   17.5676 N   0  0  0  0  0  0  0  0  0  0  0  0
    7.1355    0.0117   18.5773 C   0  0  0  0  0  0  0  0  0  0  0  0
    8.0822   -0.4724   18.3358 H   0  0  0  0  0  0  0  0  0  0  0  0
    4.9369    1.8307   16.9908 H   0  0  0  0  0  0  0  0  0  0  0  0
    3.8649    1.8647   19.2411 H   0  0  0  0  0  0  0  0  0  0  0  0
    4.9896    0.5982   21.1417 H   0  0  0  0  0  0  0  0  0  0  0  0
    8.6045   -0.6311   21.3287 C   0  0  0  0  0  0  0  0  0  0  0  0
    9.6485    0.1834   20.6454 C   0  0  0  0  0  0  0  0  0  0  0  0
   10.6746    0.7177   21.6090 C   0  0  0  0  0  0  0  0  0  0  0  0
   11.8804    0.0677   21.8640 C   0  0  0  0  0  0  0  0  0  0  0  0
   12.7341    0.5592   22.8606 C   0  0  0  0  0  0  0  0  0  0  0  0
   12.4622    1.6581   23.5777 N   0  0  0  0  0  0  0  0  0  0  0  0
   11.3024    2.2942   23.3207 C   0  0  0  0  0  0  0  0  0  0  0  0
   10.8915    3.5751   24.0702 C   0  0  0  0  0  0  0  0  0  0  0  0
   11.9073    4.2297   24.6370 F   0  0  0  0  0  0  0  0  0  0  0  0
   10.2691    4.4486   23.2432 F   0  0  0  0  0  0  0  0  0  0  0  0
    9.9818    3.2863   25.0233 F   0  0  0  0  0  0  0  0  0  0  0  0
   10.3696    1.8288   22.3825 C   0  0  0  0  0  0  0  0  0  0  0  0
    9.4139    2.3273   22.2758 H   0  0  0  0  0  0  0  0  0  0  0  0
   13.6616    0.0364   23.0917 H   0  0  0  0  0  0  0  0  0  0  0  0
   12.1604   -0.8050   21.2924 H   0  0  0  0  0  0  0  0  0  0  0  0
   10.1039   -0.4774   19.9044 H   0  0  0  0  0  0  0  0  0  0  0  0
    9.1725    1.0050   20.1087 H   0  0  0  0  0  0  0  0  0  0  0  0
    8.8308   -1.4517   22.3248 N   0  0  0  0  0  0  0  0  0  0  0  0
    6.2854   -3.0549   23.7891 H   0  0  0  0  0  0  0  0  0  0  0  0
    8.2621   -3.2665   26.7482 H   0  0  0  0  0  0  0  0  0  0  0  0
    6.8285   -3.9669   25.9879 H   0  0  0  0  0  0  0  0  0  0  0  0
    7.2793   -0.9780   26.5992 H   0  0  0  0  0  0  0  0  0  0  0  0
    6.1414   -2.0554   27.4372 H   0  0  0  0  0  0  0  0  0  0  0  0
    5.8639   -1.6209   25.7411 H   0  0  0  0  0  0  0  0  0  0  0  0
  1  2  1  0
  2  3  1  0
  3  4  1  0
  4  5  1  0
  5  6  1  0
  5  7  1  0
  5  8  1  0
  4  9  1  0
  9 10  2  0
 10 11  1  0
 11 12  1  0
 12 13  2  0
 13 14  1  0
 14 15  2  0
 15 16  1  0
 16 17  2  0
 17 18  1  0
 15 19  1  0
 14 20  1  0
 13 21  1  0
 11 22  1  0
 22 23  1  0
 23 24  1  0
 24 25  2  0
 25 26  1  0
 26 27  2  0
 27 28  1  0
 28 29  1  0
 29 30  1  0
 29 31  1  0
 29 32  1  0
 28 33  2  0
 33 34  1  0
 26 35  1  0
 25 36  1  0
 23 37  1  0
 23 38  1  0
 22 39  2  0
  4 40  1  0
  2 41  1  0
  2 42  1  0
  1 43  1  0
  1 44  1  0
  1 45  1  0
 39  9  1  0
 17 12  1  0
 33 24  1  0
M  END
>  <cnnaffinity>  (1) 
-6.26394

>  <filename>  (1) 
CCOC(C)c1nc(Cc2ccnc(C(F)(F)F)c2)n(-c2cccnc2)n1

$$$$
