
     RDKit          3D

 43 45  0  0  0  0  0  0  0  0999 V2000
    7.7105   -1.2014   26.7373 C   0  0  0  0  0  0  0  0  0  0  0  0
    6.9306   -1.7584   25.5591 C   0  0  0  0  0  0  0  0  0  0  0  0
    7.7177   -2.7843   24.9674 O   0  0  0  0  0  0  0  0  0  0  0  0
    7.3867   -3.1530   23.6313 C   0  0  0  0  0  0  0  0  0  0  0  0
    8.2352   -4.3904   23.3287 C   0  0  0  0  0  0  0  0  0  0  0  0
    9.2919   -4.1045   23.2900 H   0  0  0  0  0  0  0  0  0  0  0  0
    8.1030   -5.1210   24.1301 H   0  0  0  0  0  0  0  0  0  0  0  0
    7.9591   -4.8507   22.3740 H   0  0  0  0  0  0  0  0  0  0  0  0
    7.6527   -2.0405   22.6263 C   0  0  0  0  0  0  0  0  0  0  0  0
    6.7569   -1.6069   21.7638 N   0  0  0  0  0  0  0  0  0  0  0  0
    7.4298   -0.6396   21.0723 N   0  0  0  0  0  0  0  0  0  0  0  0
    6.7700    0.0256   19.9911 C   0  0  0  0  0  0  0  0  0  0  0  0
    5.5343    0.6471   20.2163 C   0  0  0  0  0  0  0  0  0  0  0  0
    4.9037    1.2905   19.1466 C   0  0  0  0  0  0  0  0  0  0  0  0
    5.5166    1.2702   17.8872 C   0  0  0  0  0  0  0  0  0  0  0  0
    6.6798    0.6421   17.6514 N   0  0  0  0  0  0  0  0  0  0  0  0
    7.2847    0.0330   18.6814 C   0  0  0  0  0  0  0  0  0  0  0  0
    8.2048   -0.5031   18.4483 H   0  0  0  0  0  0  0  0  0  0  0  0
    5.0442    1.7533   17.0320 H   0  0  0  0  0  0  0  0  0  0  0  0
    3.9483    1.7935   19.2759 H   0  0  0  0  0  0  0  0  0  0  0  0
    5.0852    0.5977   21.2092 H   0  0  0  0  0  0  0  0  0  0  0  0
    8.6868   -0.5294   21.5988 C   0  0  0  0  0  0  0  0  0  0  0  0
    9.6162    0.6202   21.3615 C   0  0  0  0  0  0  0  0  0  0  0  0
    9.0918    1.8727   22.0168 C   0  0  0  0  0  0  0  0  0  0  0  0
    8.3409    2.7666   21.3252 C   0  0  0  0  0  0  0  0  0  0  0  0
    7.8543    3.8856   21.9531 N   0  0  0  0  0  0  0  0  0  0  0  0
    8.1093    4.2139   23.2826 C   0  0  0  0  0  0  0  0  0  0  0  0
    7.7325    5.2978   23.6903 O   0  0  0  0  0  0  0  0  0  0  0  0
    8.8154    3.1909   24.0420 C   0  0  0  0  0  0  0  0  0  0  0  0
    9.2913    2.0763   23.4202 C   0  0  0  0  0  0  0  0  0  0  0  0
    9.8457    1.3125   23.9598 H   0  0  0  0  0  0  0  0  0  0  0  0
    8.9494    3.4060   25.0920 H   0  0  0  0  0  0  0  0  0  0  0  0
    7.4090    4.6770   21.5063 H   0  0  0  0  0  0  0  0  0  0  0  0
    8.1244    2.5701   20.2819 H   0  0  0  0  0  0  0  0  0  0  0  0
   10.5823    0.3635   21.8051 H   0  0  0  0  0  0  0  0  0  0  0  0
    9.7617    0.7655   20.2893 H   0  0  0  0  0  0  0  0  0  0  0  0
    8.8650   -1.4342   22.5351 N   0  0  0  0  0  0  0  0  0  0  0  0
    6.3126   -3.3876   23.5500 H   0  0  0  0  0  0  0  0  0  0  0  0
    6.7172   -0.9587   24.8294 H   0  0  0  0  0  0  0  0  0  0  0  0
    5.9650   -2.1742   25.8897 H   0  0  0  0  0  0  0  0  0  0  0  0
    7.0851   -0.5165   27.3185 H   0  0  0  0  0  0  0  0  0  0  0  0
    8.0417   -2.0098   27.3943 H   0  0  0  0  0  0  0  0  0  0  0  0
    8.5951   -0.6537   26.3980 H   0  0  0  0  0  0  0  0  0  0  0  0
  1  2  1  0
  2  3  1  0
  3  4  1  0
  4  5  1  0
  5  6  1  0
  5  7  1  0
  5  8  1  0
  4  9  1  0
  9 10  2  0
 10 11  1  0
 11 12  1  0
 12 13  2  0
 13 14  1  0
 14 15  2  0
 15 16  1  0
 16 17  2  0
 17 18  1  0
 15 19  1  0
 14 20  1  0
 13 21  1  0
 11 22  1  0
 22 23  1  0
 23 24  1  0
 24 25  2  0
 25 26  1  0
 26 27  1  0
 27 28  2  0
 27 29  1  0
 29 30  2  0
 30 31  1  0
 29 32  1  0
 26 33  1  0
 25 34  1  0
 23 35  1  0
 23 36  1  0
 22 37  2  0
  4 38  1  0
  2 39  1  0
  2 40  1  0
  1 41  1  0
  1 42  1  0
  1 43  1  0
 37  9  1  0
 17 12  1  0
 30 24  1  0
M  END
>  <cnnaffinity>  (1) 
-5.76767

>  <filename>  (1) 
CCOC(C)c1nc(Cc2ccc(=O)[nH]c2)n(-c2cccnc2)n1

$$$$
