
     RDKit          3D

 47 49  0  0  0  0  0  0  0  0999 V2000
    7.8842   -5.0654   21.5437 C   0  0  0  0  0  0  0  0  0  0  0  0
    7.1738   -5.3078   22.8697 C   0  0  0  0  0  0  0  0  0  0  0  0
    6.5288   -4.1426   23.3634 O   0  0  0  0  0  0  0  0  0  0  0  0
    7.3639   -3.0312   23.6626 C   0  0  0  0  0  0  0  0  0  0  0  0
    6.7352   -2.3338   24.8661 C   0  0  0  0  0  0  0  0  0  0  0  0
    7.3782   -1.5319   25.2435 H   0  0  0  0  0  0  0  0  0  0  0  0
    5.7694   -1.9111   24.5746 H   0  0  0  0  0  0  0  0  0  0  0  0
    6.5757   -3.0684   25.6606 H   0  0  0  0  0  0  0  0  0  0  0  0
    7.5946   -2.0632   22.5050 C   0  0  0  0  0  0  0  0  0  0  0  0
    6.6780   -1.6392   21.6564 N   0  0  0  0  0  0  0  0  0  0  0  0
    7.3435   -0.7051   20.9155 N   0  0  0  0  0  0  0  0  0  0  0  0
    6.6563   -0.0084   19.8757 C   0  0  0  0  0  0  0  0  0  0  0  0
    5.4409    0.6357   20.1405 C   0  0  0  0  0  0  0  0  0  0  0  0
    4.8158    1.3153   19.0896 C   0  0  0  0  0  0  0  0  0  0  0  0
    5.4061    1.3098   17.8194 C   0  0  0  0  0  0  0  0  0  0  0  0
    6.5521    0.6649   17.5490 N   0  0  0  0  0  0  0  0  0  0  0  0
    7.1562    0.0241   18.5596 C   0  0  0  0  0  0  0  0  0  0  0  0
    8.0755   -0.5065   18.3156 H   0  0  0  0  0  0  0  0  0  0  0  0
    4.9374    1.8344   16.9902 H   0  0  0  0  0  0  0  0  0  0  0  0
    3.8823    1.8431   19.2452 H   0  0  0  0  0  0  0  0  0  0  0  0
    5.0017    0.5789   21.1393 H   0  0  0  0  0  0  0  0  0  0  0  0
    8.6083   -0.5721   21.4212 C   0  0  0  0  0  0  0  0  0  0  0  0
    9.6479    0.4205   21.0049 C   0  0  0  0  0  0  0  0  0  0  0  0
   10.0491    1.3090   22.0793 N   0  0  0  0  0  0  0  0  0  0  0  0
    9.2888    2.3588   22.5722 C   0  0  0  0  0  0  0  0  0  0  0  0
    7.9440    2.7044   22.0187 C   0  0  0  0  0  0  0  0  0  0  0  0
    7.6211    3.6915   22.3598 H   0  0  0  0  0  0  0  0  0  0  0  0
    7.9429    2.7123   20.9274 H   0  0  0  0  0  0  0  0  0  0  0  0
    7.1918    1.9728   22.3352 H   0  0  0  0  0  0  0  0  0  0  0  0
    9.9783    2.9121   23.6212 C   0  0  0  0  0  0  0  0  0  0  0  0
   11.1782    2.1682   23.7973 C   0  0  0  0  0  0  0  0  0  0  0  0
   11.1883    1.1742   22.8568 C   0  0  0  0  0  0  0  0  0  0  0  0
   12.1628    0.0615   22.6426 C   0  0  0  0  0  0  0  0  0  0  0  0
   11.6428   -0.9036   22.6157 H   0  0  0  0  0  0  0  0  0  0  0  0
   12.7184    0.1738   21.7105 H   0  0  0  0  0  0  0  0  0  0  0  0
   12.9121    0.0468   23.4386 H   0  0  0  0  0  0  0  0  0  0  0  0
   11.9367    2.3208   24.5535 H   0  0  0  0  0  0  0  0  0  0  0  0
    9.6507    3.7574   24.2122 H   0  0  0  0  0  0  0  0  0  0  0  0
    9.3166    1.0005   20.1473 H   0  0  0  0  0  0  0  0  0  0  0  0
   10.5331   -0.1386   20.6959 H   0  0  0  0  0  0  0  0  0  0  0  0
    8.8035   -1.4495   22.3849 N   0  0  0  0  0  0  0  0  0  0  0  0
    8.3768   -3.3742   23.9340 H   0  0  0  0  0  0  0  0  0  0  0  0
    7.8776   -5.7111   23.6223 H   0  0  0  0  0  0  0  0  0  0  0  0
    6.3660   -6.0389   22.7626 H   0  0  0  0  0  0  0  0  0  0  0  0
    7.1617   -4.8134   20.7609 H   0  0  0  0  0  0  0  0  0  0  0  0
    8.5771   -4.2221   21.6320 H   0  0  0  0  0  0  0  0  0  0  0  0
    8.4525   -5.9551   21.2519 H   0  0  0  0  0  0  0  0  0  0  0  0
  1  2  1  0
  2  3  1  0
  3  4  1  0
  4  5  1  0
  5  6  1  0
  5  7  1  0
  5  8  1  0
  4  9  1  0
  9 10  2  0
 10 11  1  0
 11 12  1  0
 12 13  2  0
 13 14  1  0
 14 15  2  0
 15 16  1  0
 16 17  2  0
 17 18  1  0
 15 19  1  0
 14 20  1  0
 13 21  1  0
 11 22  1  0
 22 23  1  0
 23 24  1  0
 24 25  1  0
 25 26  1  0
 26 27  1  0
 26 28  1  0
 26 29  1  0
 25 30  2  0
 30 31  1  0
 31 32  2  0
 32 33  1  0
 33 34  1  0
 33 35  1  0
 33 36  1  0
 31 37  1  0
 30 38  1  0
 23 39  1  0
 23 40  1  0
 22 41  2  0
  4 42  1  0
  2 43  1  0
  2 44  1  0
  1 45  1  0
  1 46  1  0
  1 47  1  0
 41  9  1  0
 17 12  1  0
 32 24  1  0
M  END
>  <cnnaffinity>  (1) 
-6.03162

>  <filename>  (1) 
CCOC(C)c1nc(Cn2c(C)ccc2C)n(-c2cccnc2)n1

$$$$
