
     RDKit          3D

 27 28  0  0  0  0  0  0  0  0999 V2000
    4.9367    1.7316   16.9358 H   0  0  0  0  0  0  0  0  0  0  0  0
    5.3876    1.3378   17.8418 C   0  0  0  0  0  0  0  0  0  0  0  0
    6.6018    0.7911   17.6906 N   0  0  0  0  0  0  0  0  0  0  0  0
    7.1722    0.2589   18.7741 C   0  0  0  0  0  0  0  0  0  0  0  0
    8.1529   -0.1925   18.6192 H   0  0  0  0  0  0  0  0  0  0  0  0
    6.5927    0.2631   20.0623 C   0  0  0  0  0  0  0  0  0  0  0  0
    7.2777   -0.4484   21.1687 C   0  0  0  0  0  0  0  0  0  0  0  0
    7.4628    0.3696   22.7143 S   0  0  0  0  0  0  0  0  0  0  0  0
    8.2263   -0.8799   23.6710 C   0  0  0  0  0  0  0  0  0  0  0  0
    8.3274   -0.4537   24.9384 O   0  0  0  0  0  0  0  0  0  0  0  0
    9.0785   -1.2592   25.8598 C   0  0  0  0  0  0  0  0  0  0  0  0
    8.6437   -2.2652   25.9309 H   0  0  0  0  0  0  0  0  0  0  0  0
   10.1058   -1.3525   25.4862 H   0  0  0  0  0  0  0  0  0  0  0  0
    9.0344   -0.5578   27.1912 C   0  0  0  0  0  0  0  0  0  0  0  0
    8.0071   -0.4831   27.5516 H   0  0  0  0  0  0  0  0  0  0  0  0
    9.6283   -1.0971   27.9334 H   0  0  0  0  0  0  0  0  0  0  0  0
    9.4258    0.4525   27.0800 H   0  0  0  0  0  0  0  0  0  0  0  0
    8.6418   -2.0828   23.2220 C   0  0  0  0  0  0  0  0  0  0  0  0
    9.2045   -2.7678   23.8479 H   0  0  0  0  0  0  0  0  0  0  0  0
    8.3378   -2.6017   21.9040 C   0  0  0  0  0  0  0  0  0  0  0  0
    8.5865   -3.7597   21.6005 O   0  0  0  0  0  0  0  0  0  0  0  0
    7.7369   -1.6903   20.9336 C   0  0  0  0  0  0  0  0  0  0  0  0
    7.6377   -2.1033   19.9465 H   0  0  0  0  0  0  0  0  0  0  0  0
    5.3479    0.8863   20.2050 C   0  0  0  0  0  0  0  0  0  0  0  0
    4.8759    0.9593   21.1849 H   0  0  0  0  0  0  0  0  0  0  0  0
    4.7289    1.4121   19.0724 C   0  0  0  0  0  0  0  0  0  0  0  0
    3.7580    1.8843   19.1175 H   0  0  0  0  0  0  0  0  0  0  0  0
  1  2  1  0
  2  3  2  0
  3  4  1  0
  4  5  1  0
  4  6  2  0
  6  7  1  0
  7  8  1  0
  8  9  1  0
  9 10  1  0
 10 11  1  0
 11 12  1  0
 11 13  1  0
 11 14  1  0
 14 15  1  0
 14 16  1  0
 14 17  1  0
  9 18  2  0
 18 19  1  0
 18 20  1  0
 20 21  2  0
 20 22  1  0
 22 23  1  0
  6 24  1  0
 24 25  1  0
 24 26  2  0
 26 27  1  0
 26  2  1  0
 22  7  2  0
M  END
>  <cnnaffinity>  (1) 
-4.75495

>  <filename>  (1) 
CCOc1cc(=O)cc(-c2cccnc2)s1

$$$$
