
     RDKit          3D

 40 42  0  0  0  0  0  0  0  0999 V2000
    8.7373   -5.7311   24.7312 C   0  0  0  0  0  0  0  0  0  0  0  0
    7.3770   -5.4577   24.0847 C   0  0  0  0  0  0  0  0  0  0  0  0
    7.4479   -4.4458   23.0853 O   0  0  0  0  0  0  0  0  0  0  0  0
    7.3214   -3.1056   23.5610 C   0  0  0  0  0  0  0  0  0  0  0  0
    7.5583   -2.0634   22.4955 C   0  0  0  0  0  0  0  0  0  0  0  0
    6.6403   -1.6615   21.6363 N   0  0  0  0  0  0  0  0  0  0  0  0
    7.2862   -0.7275   20.8968 N   0  0  0  0  0  0  0  0  0  0  0  0
    6.6025   -0.0300   19.8616 C   0  0  0  0  0  0  0  0  0  0  0  0
    5.3907    0.6232   20.1209 C   0  0  0  0  0  0  0  0  0  0  0  0
    4.7856    1.3211   19.0724 C   0  0  0  0  0  0  0  0  0  0  0  0
    5.3856    1.3141   17.8081 C   0  0  0  0  0  0  0  0  0  0  0  0
    6.5220    0.6528   17.5425 N   0  0  0  0  0  0  0  0  0  0  0  0
    7.1121    0.0011   18.5501 C   0  0  0  0  0  0  0  0  0  0  0  0
    8.0359   -0.5250   18.3181 H   0  0  0  0  0  0  0  0  0  0  0  0
    4.9408    1.8590   16.9784 H   0  0  0  0  0  0  0  0  0  0  0  0
    3.8664    1.8727   19.2244 H   0  0  0  0  0  0  0  0  0  0  0  0
    4.9531    0.5758   21.1200 H   0  0  0  0  0  0  0  0  0  0  0  0
    8.5624   -0.5851   21.3834 C   0  0  0  0  0  0  0  0  0  0  0  0
    9.6506    0.2558   20.8005 C   0  0  0  0  0  0  0  0  0  0  0  0
   10.3691    1.0772   21.8519 C   0  0  0  0  0  0  0  0  0  0  0  0
   11.6402    0.6829   22.2898 C   0  0  0  0  0  0  0  0  0  0  0  0
   12.2504    1.3419   23.3528 C   0  0  0  0  0  0  0  0  0  0  0  0
   13.4570    0.9338   23.7776 F   0  0  0  0  0  0  0  0  0  0  0  0
   11.6284    2.4042   23.9965 C   0  0  0  0  0  0  0  0  0  0  0  0
   10.3818    2.8366   23.5467 C   0  0  0  0  0  0  0  0  0  0  0  0
    9.7611    2.1768   22.4802 C   0  0  0  0  0  0  0  0  0  0  0  0
    8.1866    2.7293   21.9824 Cl  0  0  0  0  0  0  0  0  0  0  0  0
    9.8809    3.6700   24.0287 H   0  0  0  0  0  0  0  0  0  0  0  0
   12.0898    2.8517   24.8632 H   0  0  0  0  0  0  0  0  0  0  0  0
   12.1575   -0.1515   21.8270 H   0  0  0  0  0  0  0  0  0  0  0  0
   10.3662   -0.4389   20.3511 H   0  0  0  0  0  0  0  0  0  0  0  0
    9.2611    0.9017   20.0124 H   0  0  0  0  0  0  0  0  0  0  0  0
    8.7473   -1.4072   22.3929 N   0  0  0  0  0  0  0  0  0  0  0  0
    8.0604   -2.8766   24.3469 H   0  0  0  0  0  0  0  0  0  0  0  0
    6.3190   -2.9390   23.9882 H   0  0  0  0  0  0  0  0  0  0  0  0
    7.0097   -6.3501   23.5656 H   0  0  0  0  0  0  0  0  0  0  0  0
    6.6175   -5.2060   24.8478 H   0  0  0  0  0  0  0  0  0  0  0  0
    8.6505   -6.4710   25.5379 H   0  0  0  0  0  0  0  0  0  0  0  0
    9.1740   -4.8101   25.1414 H   0  0  0  0  0  0  0  0  0  0  0  0
    9.4315   -6.1312   23.9939 H   0  0  0  0  0  0  0  0  0  0  0  0
  1  2  1  0
  2  3  1  0
  3  4  1  0
  4  5  1  0
  5  6  2  0
  6  7  1  0
  7  8  1  0
  8  9  2  0
  9 10  1  0
 10 11  2  0
 11 12  1  0
 12 13  2  0
 13 14  1  0
 11 15  1  0
 10 16  1  0
  9 17  1  0
  7 18  1  0
 18 19  1  0
 19 20  1  0
 20 21  2  0
 21 22  1  0
 22 23  1  0
 22 24  2  0
 24 25  1  0
 25 26  2  0
 26 27  1  0
 25 28  1  0
 24 29  1  0
 21 30  1  0
 19 31  1  0
 19 32  1  0
 18 33  2  0
  4 34  1  0
  4 35  1  0
  2 36  1  0
  2 37  1  0
  1 38  1  0
  1 39  1  0
  1 40  1  0
 33  5  1  0
 13  8  1  0
 26 20  1  0
M  END
>  <cnnaffinity>  (1) 
-6.26847

>  <filename>  (1) 
CCOCc1nc(Cc2cc(F)ccc2Cl)n(-c2cccnc2)n1

$$$$
