
     RDKit          3D

 42 44  0  0  0  0  0  0  0  0999 V2000
   10.8865    0.8382   25.0154 C   0  0  0  0  0  0  0  0  0  0  0  0
   11.8764    0.5861   23.8848 C   0  0  0  0  0  0  0  0  0  0  0  0
   11.1691    0.1848   22.6995 O   0  0  0  0  0  0  0  0  0  0  0  0
   10.4105   -1.0510   22.8157 C   0  0  0  0  0  0  0  0  0  0  0  0
   11.1999   -2.1627   22.1308 C   0  0  0  0  0  0  0  0  0  0  0  0
   12.2017   -2.2310   22.5559 H   0  0  0  0  0  0  0  0  0  0  0  0
   11.2870   -1.9715   21.0562 H   0  0  0  0  0  0  0  0  0  0  0  0
   10.6910   -3.1202   22.2715 H   0  0  0  0  0  0  0  0  0  0  0  0
    9.0222   -1.0143   22.1994 C   0  0  0  0  0  0  0  0  0  0  0  0
    8.6649   -0.1026   21.3295 N   0  0  0  0  0  0  0  0  0  0  0  0
    7.4253   -0.4817   20.9946 N   0  0  0  0  0  0  0  0  0  0  0  0
    6.7260    0.1070   19.9501 C   0  0  0  0  0  0  0  0  0  0  0  0
    5.4543    0.6341   20.1534 C   0  0  0  0  0  0  0  0  0  0  0  0
    4.8192    1.2307   19.0642 C   0  0  0  0  0  0  0  0  0  0  0  0
    5.4551    1.2553   17.8165 C   0  0  0  0  0  0  0  0  0  0  0  0
    6.6776    0.7262   17.6207 N   0  0  0  0  0  0  0  0  0  0  0  0
    7.3109    0.1846   18.6778 C   0  0  0  0  0  0  0  0  0  0  0  0
    8.3043   -0.2299   18.5281 H   0  0  0  0  0  0  0  0  0  0  0  0
    4.9471    1.7279   16.9808 H   0  0  0  0  0  0  0  0  0  0  0  0
    3.8449    1.6901   19.1807 H   0  0  0  0  0  0  0  0  0  0  0  0
    5.0004    0.6062   21.1426 H   0  0  0  0  0  0  0  0  0  0  0  0
    7.0863   -1.6562   21.6456 C   0  0  0  0  0  0  0  0  0  0  0  0
    5.8363   -2.4187   21.3031 C   0  0  0  0  0  0  0  0  0  0  0  0
    5.7414   -3.8362   21.8381 C   0  0  0  0  0  0  0  0  0  0  0  0
    5.6140   -4.1283   23.1957 C   0  0  0  0  0  0  0  0  0  0  0  0
    5.4476   -5.4693   23.5599 C   0  0  0  0  0  0  0  0  0  0  0  0
    5.4315   -6.4663   22.5805 C   0  0  0  0  0  0  0  0  0  0  0  0
    5.5603   -6.1818   21.2808 N   0  0  0  0  0  0  0  0  0  0  0  0
    5.7033   -4.8964   20.9302 C   0  0  0  0  0  0  0  0  0  0  0  0
    5.7561   -4.4135   19.1136 Br  0  0  0  0  0  0  0  0  0  0  0  0
    5.3108   -7.5078   22.8683 H   0  0  0  0  0  0  0  0  0  0  0  0
    5.3202   -5.7608   24.5933 H   0  0  0  0  0  0  0  0  0  0  0  0
    5.6002   -3.3326   23.9385 H   0  0  0  0  0  0  0  0  0  0  0  0
    5.8019   -2.4415   20.2084 H   0  0  0  0  0  0  0  0  0  0  0  0
    4.9709   -1.8551   21.6197 H   0  0  0  0  0  0  0  0  0  0  0  0
    8.0582   -2.0042   22.4378 N   0  0  0  0  0  0  0  0  0  0  0  0
   10.2792   -1.3182   23.8664 H   0  0  0  0  0  0  0  0  0  0  0  0
   12.5859   -0.1906   24.1822 H   0  0  0  0  0  0  0  0  0  0  0  0
   12.4536    1.4972   23.6900 H   0  0  0  0  0  0  0  0  0  0  0  0
   10.3625    1.7887   24.8652 H   0  0  0  0  0  0  0  0  0  0  0  0
   10.1538    0.0296   25.0600 H   0  0  0  0  0  0  0  0  0  0  0  0
   11.4122    0.8606   25.9669 H   0  0  0  0  0  0  0  0  0  0  0  0
  1  2  1  0
  2  3  1  0
  3  4  1  0
  4  5  1  0
  5  6  1  0
  5  7  1  0
  5  8  1  0
  4  9  1  0
  9 10  2  0
 10 11  1  0
 11 12  1  0
 12 13  2  0
 13 14  1  0
 14 15  2  0
 15 16  1  0
 16 17  2  0
 17 18  1  0
 15 19  1  0
 14 20  1  0
 13 21  1  0
 11 22  1  0
 22 23  1  0
 23 24  1  0
 24 25  2  0
 25 26  1  0
 26 27  2  0
 27 28  1  0
 28 29  2  0
 29 30  1  0
 27 31  1  0
 26 32  1  0
 25 33  1  0
 23 34  1  0
 23 35  1  0
 22 36  2  0
  4 37  1  0
  2 38  1  0
  2 39  1  0
  1 40  1  0
  1 41  1  0
  1 42  1  0
 36  9  1  0
 17 12  1  0
 29 24  1  0
M  END
>  <cnnaffinity>  (1) 
-5.29745

>  <filename>  (1) 
CCOC(C)c1nc(Cc2cccnc2Br)n(-c2cccnc2)n1

$$$$
