
     RDKit          3D

 45 47  0  0  0  0  0  0  0  0999 V2000
    7.7987   -6.0524   22.8235 C   0  0  0  0  0  0  0  0  0  0  0  0
    6.8148   -5.3376   23.7407 C   0  0  0  0  0  0  0  0  0  0  0  0
    6.5188   -4.0425   23.2476 O   0  0  0  0  0  0  0  0  0  0  0  0
    7.3842   -2.9871   23.6362 C   0  0  0  0  0  0  0  0  0  0  0  0
    6.7861   -2.2710   24.8594 C   0  0  0  0  0  0  0  0  0  0  0  0
    5.8153   -1.8392   24.5928 H   0  0  0  0  0  0  0  0  0  0  0  0
    7.4476   -1.4735   25.2159 H   0  0  0  0  0  0  0  0  0  0  0  0
    6.6309   -2.9897   25.6707 H   0  0  0  0  0  0  0  0  0  0  0  0
    7.6023   -2.0335   22.4907 C   0  0  0  0  0  0  0  0  0  0  0  0
    6.6619   -1.6124   21.6685 N   0  0  0  0  0  0  0  0  0  0  0  0
    7.3112   -0.6783   20.9321 N   0  0  0  0  0  0  0  0  0  0  0  0
    6.6409   -0.0023   19.8791 C   0  0  0  0  0  0  0  0  0  0  0  0
    5.4305    0.6407   20.1445 C   0  0  0  0  0  0  0  0  0  0  0  0
    4.7990    1.3175   19.0967 C   0  0  0  0  0  0  0  0  0  0  0  0
    5.3908    1.3013   17.8262 C   0  0  0  0  0  0  0  0  0  0  0  0
    6.5377    0.6600   17.5597 N   0  0  0  0  0  0  0  0  0  0  0  0
    7.1493    0.0321   18.5693 C   0  0  0  0  0  0  0  0  0  0  0  0
    8.0947   -0.4534   18.3319 H   0  0  0  0  0  0  0  0  0  0  0  0
    4.9297    1.8206   16.9889 H   0  0  0  0  0  0  0  0  0  0  0  0
    3.8676    1.8542   19.2505 H   0  0  0  0  0  0  0  0  0  0  0  0
    5.0180    0.5910   21.1529 H   0  0  0  0  0  0  0  0  0  0  0  0
    8.5931   -0.5568   21.3865 C   0  0  0  0  0  0  0  0  0  0  0  0
    9.6333    0.3589   20.8396 C   0  0  0  0  0  0  0  0  0  0  0  0
   10.2927    1.1913   21.9158 C   0  0  0  0  0  0  0  0  0  0  0  0
   11.5474    0.8131   22.4025 C   0  0  0  0  0  0  0  0  0  0  0  0
   12.1103    1.5192   23.4669 C   0  0  0  0  0  0  0  0  0  0  0  0
   11.4989    2.5590   24.0464 N   0  0  0  0  0  0  0  0  0  0  0  0
   10.2973    2.9215   23.5698 C   0  0  0  0  0  0  0  0  0  0  0  0
    9.6259    2.2762   22.5173 C   0  0  0  0  0  0  0  0  0  0  0  0
    8.2569    2.7334   22.0672 C   0  0  0  0  0  0  0  0  0  0  0  0
    7.9112    3.5918   22.6511 H   0  0  0  0  0  0  0  0  0  0  0  0
    8.2829    3.0204   21.0137 H   0  0  0  0  0  0  0  0  0  0  0  0
    7.5066    1.9375   22.1561 H   0  0  0  0  0  0  0  0  0  0  0  0
    9.8303    3.7746   24.0673 H   0  0  0  0  0  0  0  0  0  0  0  0
   13.0776    1.2338   23.8863 H   0  0  0  0  0  0  0  0  0  0  0  0
   12.0615   -0.0443   21.9737 H   0  0  0  0  0  0  0  0  0  0  0  0
    9.1841    0.9835   20.0685 H   0  0  0  0  0  0  0  0  0  0  0  0
   10.3677   -0.3044   20.3776 H   0  0  0  0  0  0  0  0  0  0  0  0
    8.8072   -1.4205   22.3545 N   0  0  0  0  0  0  0  0  0  0  0  0
    8.3977   -3.3533   23.8692 H   0  0  0  0  0  0  0  0  0  0  0  0
    7.1933   -5.2971   24.7759 H   0  0  0  0  0  0  0  0  0  0  0  0
    5.8447   -5.8457   23.7697 H   0  0  0  0  0  0  0  0  0  0  0  0
    8.0229   -7.0628   23.1717 H   0  0  0  0  0  0  0  0  0  0  0  0
    8.7477   -5.5082   22.7747 H   0  0  0  0  0  0  0  0  0  0  0  0
    7.3945   -6.1222   21.8100 H   0  0  0  0  0  0  0  0  0  0  0  0
  1  2  1  0
  2  3  1  0
  3  4  1  0
  4  5  1  0
  5  6  1  0
  5  7  1  0
  5  8  1  0
  4  9  1  0
  9 10  2  0
 10 11  1  0
 11 12  1  0
 12 13  2  0
 13 14  1  0
 14 15  2  0
 15 16  1  0
 16 17  2  0
 17 18  1  0
 15 19  1  0
 14 20  1  0
 13 21  1  0
 11 22  1  0
 22 23  1  0
 23 24  1  0
 24 25  2  0
 25 26  1  0
 26 27  2  0
 27 28  1  0
 28 29  2  0
 29 30  1  0
 30 31  1  0
 30 32  1  0
 30 33  1  0
 28 34  1  0
 26 35  1  0
 25 36  1  0
 23 37  1  0
 23 38  1  0
 22 39  2  0
  4 40  1  0
  2 41  1  0
  2 42  1  0
  1 43  1  0
  1 44  1  0
  1 45  1  0
 39  9  1  0
 17 12  1  0
 29 24  1  0
M  END
>  <cnnaffinity>  (1) 
-6.08593

>  <filename>  (1) 
CCOC(C)c1nc(Cc2ccncc2C)n(-c2cccnc2)n1

$$$$
