
     RDKit          3D

 42 44  0  0  0  0  0  0  0  0999 V2000
    6.7588   -6.1460   21.8933 C   0  0  0  0  0  0  0  0  0  0  0  0
    7.6507   -5.1121   22.5605 C   0  0  0  0  0  0  0  0  0  0  0  0
    6.8179   -4.2317   23.3223 O   0  0  0  0  0  0  0  0  0  0  0  0
    7.4839   -3.0114   23.7021 C   0  0  0  0  0  0  0  0  0  0  0  0
    6.6957   -2.3615   24.8404 C   0  0  0  0  0  0  0  0  0  0  0  0
    7.2319   -1.4836   25.2164 H   0  0  0  0  0  0  0  0  0  0  0  0
    6.5658   -3.0683   25.6653 H   0  0  0  0  0  0  0  0  0  0  0  0
    5.7092   -2.0428   24.4906 H   0  0  0  0  0  0  0  0  0  0  0  0
    7.6401   -2.0013   22.5741 C   0  0  0  0  0  0  0  0  0  0  0  0
    6.7565   -1.7306   21.6353 N   0  0  0  0  0  0  0  0  0  0  0  0
    7.3217   -0.7132   20.9481 N   0  0  0  0  0  0  0  0  0  0  0  0
    6.6737   -0.0152   19.9173 C   0  0  0  0  0  0  0  0  0  0  0  0
    5.4441    0.6152   20.1408 C   0  0  0  0  0  0  0  0  0  0  0  0
    4.8434    1.2896   19.0762 C   0  0  0  0  0  0  0  0  0  0  0  0
    5.4603    1.3059   17.8213 C   0  0  0  0  0  0  0  0  0  0  0  0
    6.6352    0.6860   17.5974 N   0  0  0  0  0  0  0  0  0  0  0  0
    7.2256    0.0494   18.6276 C   0  0  0  0  0  0  0  0  0  0  0  0
    8.1732   -0.4502   18.4472 H   0  0  0  0  0  0  0  0  0  0  0  0
    4.9807    1.8370   17.0039 H   0  0  0  0  0  0  0  0  0  0  0  0
    3.9046    1.8166   19.2066 H   0  0  0  0  0  0  0  0  0  0  0  0
    4.9784    0.5966   21.1257 H   0  0  0  0  0  0  0  0  0  0  0  0
    8.5434   -0.4116   21.5379 C   0  0  0  0  0  0  0  0  0  0  0  0
    9.4598    0.7300   21.2251 C   0  0  0  0  0  0  0  0  0  0  0  0
    8.9359    1.9804   21.9056 C   0  0  0  0  0  0  0  0  0  0  0  0
    7.6848    2.4800   21.5272 C   0  0  0  0  0  0  0  0  0  0  0  0
    7.2119    3.6516   22.1154 C   0  0  0  0  0  0  0  0  0  0  0  0
    5.4818    4.3440   21.6682 Br  0  0  0  0  0  0  0  0  0  0  0  0
    8.0099    4.2970   23.0620 C   0  0  0  0  0  0  0  0  0  0  0  0
    9.1866    3.7872   23.4871 N   0  0  0  0  0  0  0  0  0  0  0  0
    9.6330    2.6466   22.9321 C   0  0  0  0  0  0  0  0  0  0  0  0
   10.5588    2.2149   23.3121 H   0  0  0  0  0  0  0  0  0  0  0  0
    7.6567    5.2251   23.4986 H   0  0  0  0  0  0  0  0  0  0  0  0
    7.0905    1.9719   20.7720 H   0  0  0  0  0  0  0  0  0  0  0  0
    9.5063    0.8756   20.1439 H   0  0  0  0  0  0  0  0  0  0  0  0
   10.4661    0.4832   21.5716 H   0  0  0  0  0  0  0  0  0  0  0  0
    8.7794   -1.2123   22.5340 N   0  0  0  0  0  0  0  0  0  0  0  0
    8.4857   -3.2512   24.0718 H   0  0  0  0  0  0  0  0  0  0  0  0
    8.3726   -5.6081   23.2179 H   0  0  0  0  0  0  0  0  0  0  0  0
    8.2095   -4.5552   21.8003 H   0  0  0  0  0  0  0  0  0  0  0  0
    7.3642   -6.8993   21.3883 H   0  0  0  0  0  0  0  0  0  0  0  0
    6.1142   -5.6597   21.1555 H   0  0  0  0  0  0  0  0  0  0  0  0
    6.1324   -6.6450   22.6385 H   0  0  0  0  0  0  0  0  0  0  0  0
  1  2  1  0
  2  3  1  0
  3  4  1  0
  4  5  1  0
  5  6  1  0
  5  7  1  0
  5  8  1  0
  4  9  1  0
  9 10  2  0
 10 11  1  0
 11 12  1  0
 12 13  2  0
 13 14  1  0
 14 15  2  0
 15 16  1  0
 16 17  2  0
 17 18  1  0
 15 19  1  0
 14 20  1  0
 13 21  1  0
 11 22  1  0
 22 23  1  0
 23 24  1  0
 24 25  2  0
 25 26  1  0
 26 27  1  0
 26 28  2  0
 28 29  1  0
 29 30  2  0
 30 31  1  0
 28 32  1  0
 25 33  1  0
 23 34  1  0
 23 35  1  0
 22 36  2  0
  4 37  1  0
  2 38  1  0
  2 39  1  0
  1 40  1  0
  1 41  1  0
  1 42  1  0
 36  9  1  0
 17 12  1  0
 30 24  1  0
M  END
>  <cnnaffinity>  (1) 
-5.92577

>  <filename>  (1) 
CCOC(C)c1nc(Cc2cncc(Br)c2)n(-c2cccnc2)n1

$$$$
