
     RDKit          3D

 46 48  0  0  0  0  0  0  0  0999 V2000
    6.7938   -1.9157   26.4679 C   0  0  0  0  0  0  0  0  0  0  0  0
    6.2889   -3.1148   25.6760 C   0  0  0  0  0  0  0  0  0  0  0  0
    6.2354   -2.8379   24.2893 O   0  0  0  0  0  0  0  0  0  0  0  0
    7.4314   -3.0743   23.5550 C   0  0  0  0  0  0  0  0  0  0  0  0
    7.3455   -4.4621   22.9094 C   0  0  0  0  0  0  0  0  0  0  0  0
    7.1967   -5.2256   23.6798 H   0  0  0  0  0  0  0  0  0  0  0  0
    6.4880   -4.4798   22.2294 H   0  0  0  0  0  0  0  0  0  0  0  0
    8.2607   -4.6874   22.3528 H   0  0  0  0  0  0  0  0  0  0  0  0
    7.6397   -1.9925   22.5264 C   0  0  0  0  0  0  0  0  0  0  0  0
    6.6926   -1.5841   21.7021 N   0  0  0  0  0  0  0  0  0  0  0  0
    7.3380   -0.6866   20.9213 N   0  0  0  0  0  0  0  0  0  0  0  0
    6.6449   -0.0009   19.8903 C   0  0  0  0  0  0  0  0  0  0  0  0
    5.4354    0.6423   20.1639 C   0  0  0  0  0  0  0  0  0  0  0  0
    4.8124    1.3128   19.1085 C   0  0  0  0  0  0  0  0  0  0  0  0
    5.3983    1.2986   17.8354 C   0  0  0  0  0  0  0  0  0  0  0  0
    6.5532    0.6712   17.5670 N   0  0  0  0  0  0  0  0  0  0  0  0
    7.1592    0.0459   18.5821 C   0  0  0  0  0  0  0  0  0  0  0  0
    8.1100   -0.4325   18.3598 H   0  0  0  0  0  0  0  0  0  0  0  0
    4.9208    1.7898   16.9925 H   0  0  0  0  0  0  0  0  0  0  0  0
    3.8810    1.8405   19.2602 H   0  0  0  0  0  0  0  0  0  0  0  0
    5.0156    0.6054   21.1746 H   0  0  0  0  0  0  0  0  0  0  0  0
    8.6220   -0.5574   21.3653 C   0  0  0  0  0  0  0  0  0  0  0  0
    9.6295    0.3808   20.8107 C   0  0  0  0  0  0  0  0  0  0  0  0
   10.3222    1.1866   21.8902 C   0  0  0  0  0  0  0  0  0  0  0  0
   11.5606    0.7493   22.3711 C   0  0  0  0  0  0  0  0  0  0  0  0
   12.1899    1.4016   23.4356 C   0  0  0  0  0  0  0  0  0  0  0  0
   11.5609    2.4978   24.0239 C   0  0  0  0  0  0  0  0  0  0  0  0
   10.3118    2.9264   23.5644 C   0  0  0  0  0  0  0  0  0  0  0  0
    9.6676    2.2736   22.5076 C   0  0  0  0  0  0  0  0  0  0  0  0
    8.3035    2.7449   22.0615 C   0  0  0  0  0  0  0  0  0  0  0  0
    7.5432    1.9569   22.1159 H   0  0  0  0  0  0  0  0  0  0  0  0
    8.3373    3.0653   21.0210 H   0  0  0  0  0  0  0  0  0  0  0  0
    7.9525    3.5914   22.6556 H   0  0  0  0  0  0  0  0  0  0  0  0
    9.8163    3.7810   24.0219 H   0  0  0  0  0  0  0  0  0  0  0  0
   12.0250    3.0296   24.8417 H   0  0  0  0  0  0  0  0  0  0  0  0
   13.1570    1.0541   23.7915 H   0  0  0  0  0  0  0  0  0  0  0  0
   12.0119   -0.1301   21.9136 H   0  0  0  0  0  0  0  0  0  0  0  0
    9.1606    1.0368   20.0758 H   0  0  0  0  0  0  0  0  0  0  0  0
   10.3315   -0.2870   20.3135 H   0  0  0  0  0  0  0  0  0  0  0  0
    8.8583   -1.4288   22.3260 N   0  0  0  0  0  0  0  0  0  0  0  0
    8.3216   -3.0176   24.2030 H   0  0  0  0  0  0  0  0  0  0  0  0
    6.9172   -4.0007   25.8714 H   0  0  0  0  0  0  0  0  0  0  0  0
    5.2604   -3.3621   25.9553 H   0  0  0  0  0  0  0  0  0  0  0  0
    6.7945   -2.1378   27.5408 H   0  0  0  0  0  0  0  0  0  0  0  0
    6.1543   -1.0459   26.2869 H   0  0  0  0  0  0  0  0  0  0  0  0
    7.8156   -1.6449   26.1744 H   0  0  0  0  0  0  0  0  0  0  0  0
  1  2  1  0
  2  3  1  0
  3  4  1  0
  4  5  1  0
  5  6  1  0
  5  7  1  0
  5  8  1  0
  4  9  1  0
  9 10  2  0
 10 11  1  0
 11 12  1  0
 12 13  2  0
 13 14  1  0
 14 15  2  0
 15 16  1  0
 16 17  2  0
 17 18  1  0
 15 19  1  0
 14 20  1  0
 13 21  1  0
 11 22  1  0
 22 23  1  0
 23 24  1  0
 24 25  2  0
 25 26  1  0
 26 27  2  0
 27 28  1  0
 28 29  2  0
 29 30  1  0
 30 31  1  0
 30 32  1  0
 30 33  1  0
 28 34  1  0
 27 35  1  0
 26 36  1  0
 25 37  1  0
 23 38  1  0
 23 39  1  0
 22 40  2  0
  4 41  1  0
  2 42  1  0
  2 43  1  0
  1 44  1  0
  1 45  1  0
  1 46  1  0
 40  9  1  0
 17 12  1  0
 29 24  1  0
M  END
>  <cnnaffinity>  (1) 
-5.94551

>  <filename>  (1) 
CCOC(C)c1nc(Cc2ccccc2C)n(-c2cccnc2)n1

$$$$
