
     RDKit          3D

 31 33  0  0  0  0  0  0  0  0999 V2000
    4.9588    1.8126   16.9718 H   0  0  0  0  0  0  0  0  0  0  0  0
    5.4126    1.2921   17.8101 C   0  0  0  0  0  0  0  0  0  0  0  0
    6.5680    0.6578   17.5620 N   0  0  0  0  0  0  0  0  0  0  0  0
    7.1566    0.0132   18.5746 C   0  0  0  0  0  0  0  0  0  0  0  0
    8.1084   -0.4624   18.3398 H   0  0  0  0  0  0  0  0  0  0  0  0
    6.6229   -0.0341   19.8788 C   0  0  0  0  0  0  0  0  0  0  0  0
    7.3715   -0.6561   20.9838 C   0  0  0  0  0  0  0  0  0  0  0  0
    8.4952   -1.3496   20.7364 N   0  0  0  0  0  0  0  0  0  0  0  0
    8.9345   -1.6542   21.9802 N   0  0  0  0  0  0  0  0  0  0  0  0
   10.1184   -2.1589   22.5049 C   0  0  0  0  0  0  0  0  0  0  0  0
   10.8732   -2.5448   21.8416 H   0  0  0  0  0  0  0  0  0  0  0  0
   10.0555   -1.9816   23.8456 C   0  0  0  0  0  0  0  0  0  0  0  0
   10.7690   -2.2356   24.6171 H   0  0  0  0  0  0  0  0  0  0  0  0
    8.8021   -1.3779   24.1667 N   0  0  0  0  0  0  0  0  0  0  0  0
    8.2087   -0.6676   25.5945 S   0  0  0  0  0  0  0  0  0  0  0  0
    8.7900   -1.3592   26.7273 O   0  0  0  0  0  0  0  0  0  0  0  0
    6.7715   -0.4893   25.4705 O   0  0  0  0  0  0  0  0  0  0  0  0
    8.9930    0.9389   25.5388 C   0  0  0  0  0  0  0  0  0  0  0  0
   10.0605    0.7261   25.6633 H   0  0  0  0  0  0  0  0  0  0  0  0
    8.6139    1.3658   26.4715 H   0  0  0  0  0  0  0  0  0  0  0  0
    8.6921    1.8368   24.3366 C   0  0  0  0  0  0  0  0  0  0  0  0
    9.0485    1.4138   23.3864 H   0  0  0  0  0  0  0  0  0  0  0  0
    7.6125    2.0063   24.2475 H   0  0  0  0  0  0  0  0  0  0  0  0
    9.1773    2.8125   24.4805 H   0  0  0  0  0  0  0  0  0  0  0  0
    8.1499   -1.1789   22.9537 C   0  0  0  0  0  0  0  0  0  0  0  0
    7.0862   -0.5283   22.3735 C   0  0  0  0  0  0  0  0  0  0  0  0
    6.2904   -0.0246   22.8927 H   0  0  0  0  0  0  0  0  0  0  0  0
    5.4091    0.6304   20.1117 C   0  0  0  0  0  0  0  0  0  0  0  0
    4.9669    0.6476   21.1076 H   0  0  0  0  0  0  0  0  0  0  0  0
    4.7947    1.3036   19.0626 C   0  0  0  0  0  0  0  0  0  0  0  0
    3.8713    1.8506   19.2105 H   0  0  0  0  0  0  0  0  0  0  0  0
  1  2  1  0
  2  3  2  0
  3  4  1  0
  4  5  1  0
  4  6  2  0
  6  7  1  0
  7  8  2  0
  8  9  1  0
  9 10  1  0
 10 11  1  0
 10 12  2  0
 12 13  1  0
 12 14  1  0
 14 15  1  0
 15 16  2  0
 15 17  2  0
 15 18  1  0
 18 19  1  0
 18 20  1  0
 18 21  1  0
 21 22  1  0
 21 23  1  0
 21 24  1  0
 14 25  1  0
 25 26  2  0
 26 27  1  0
  6 28  1  0
 28 29  1  0
 28 30  2  0
 30 31  1  0
 30  2  1  0
 26  7  1  0
 25  9  1  0
M  END
>  <cnnaffinity>  (1) 
-5.1509

>  <filename>  (1) 
CCS(=O)(=O)n1ccn2nc(-c3cccnc3)cc12

$$$$
