
     RDKit          3D

 29 30  0  0  0  0  0  0  0  0999 V2000
    6.9211    1.7633   22.1777 H   0  0  0  0  0  0  0  0  0  0  0  0
    7.3486    0.9663   22.7875 C   0  0  0  0  0  0  0  0  0  0  0  0
    7.7736    1.5015   24.4274 S   0  0  0  0  0  0  0  0  0  0  0  0
    9.2486    2.4789   24.0026 C   0  0  0  0  0  0  0  0  0  0  0  0
    9.4603    3.0979   24.8803 H   0  0  0  0  0  0  0  0  0  0  0  0
    8.9586    3.1490   23.1897 H   0  0  0  0  0  0  0  0  0  0  0  0
   10.4531    1.6347   23.6168 C   0  0  0  0  0  0  0  0  0  0  0  0
   10.2614    1.0716   22.6976 H   0  0  0  0  0  0  0  0  0  0  0  0
   11.3286    2.2700   23.4521 H   0  0  0  0  0  0  0  0  0  0  0  0
   10.6902    0.9172   24.4075 H   0  0  0  0  0  0  0  0  0  0  0  0
    7.6133   -0.2542   22.3014 C   0  0  0  0  0  0  0  0  0  0  0  0
    7.3813   -0.7596   20.9322 C   0  0  0  0  0  0  0  0  0  0  0  0
    6.6533    0.0170   19.9060 C   0  0  0  0  0  0  0  0  0  0  0  0
    7.1695    0.0536   18.6069 C   0  0  0  0  0  0  0  0  0  0  0  0
    8.1127   -0.4369   18.3808 H   0  0  0  0  0  0  0  0  0  0  0  0
    6.5716    0.6766   17.5888 N   0  0  0  0  0  0  0  0  0  0  0  0
    5.4065    1.2913   17.8428 C   0  0  0  0  0  0  0  0  0  0  0  0
    4.9229    1.7779   16.9984 H   0  0  0  0  0  0  0  0  0  0  0  0
    4.8014    1.3100   19.1053 C   0  0  0  0  0  0  0  0  0  0  0  0
    3.8690    1.8449   19.2567 H   0  0  0  0  0  0  0  0  0  0  0  0
    5.4366    0.6604   20.1632 C   0  0  0  0  0  0  0  0  0  0  0  0
    4.9897    0.6372   21.1643 H   0  0  0  0  0  0  0  0  0  0  0  0
    7.8524   -1.9271   20.7100 N   0  0  0  0  0  0  0  0  0  0  0  0
    8.4580   -2.4422   21.9395 C   0  0  0  0  0  0  0  0  0  0  0  0
    7.9842   -3.3876   22.2086 H   0  0  0  0  0  0  0  0  0  0  0  0
    9.5101   -2.6456   21.7343 H   0  0  0  0  0  0  0  0  0  0  0  0
    8.2897   -1.3818   23.0524 C   0  0  0  0  0  0  0  0  0  0  0  0
    9.2462   -1.0664   23.4892 H   0  0  0  0  0  0  0  0  0  0  0  0
    7.6565   -1.7313   23.8740 H   0  0  0  0  0  0  0  0  0  0  0  0
  1  2  1  0
  2  3  1  0
  3  4  1  0
  4  5  1  0
  4  6  1  0
  4  7  1  0
  7  8  1  0
  7  9  1  0
  7 10  1  0
  2 11  2  3
 11 12  1  0
 12 13  1  0
 13 14  2  0
 14 15  1  0
 14 16  1  0
 16 17  2  0
 17 18  1  0
 17 19  1  0
 19 20  1  0
 19 21  2  0
 21 22  1  0
 12 23  2  0
 23 24  1  0
 24 25  1  0
 24 26  1  0
 24 27  1  0
 27 28  1  0
 27 29  1  0
 27 11  1  0
 21 13  1  0
M  END
>  <cnnaffinity>  (1) 
-4.58802

>  <filename>  (1) 
CCSC=C1CCN=C1c1cccnc1

$$$$
