
     RDKit          3D

 48 51  0  0  0  0  0  0  0  0999 V2000
    3.2650    3.4362   23.5874 C   0  0  0  0  0  0  0  0  0  0  0  0
    4.6289    3.2248   24.2364 C   0  0  0  0  0  0  0  0  0  0  0  0
    5.0426    1.4346   24.2325 S   0  0  0  0  0  0  0  0  0  0  0  0
    6.7058    1.4851   24.8850 C   0  0  0  0  0  0  0  0  0  0  0  0
    6.9035    1.3697   26.2739 C   0  0  0  0  0  0  0  0  0  0  0  0
    8.1811    1.4956   26.8288 C   0  0  0  0  0  0  0  0  0  0  0  0
    9.2770    1.7352   25.9945 C   0  0  0  0  0  0  0  0  0  0  0  0
    9.0870    1.8025   24.6129 C   0  0  0  0  0  0  0  0  0  0  0  0
    7.8226    1.6263   24.0338 C   0  0  0  0  0  0  0  0  0  0  0  0
    7.7336    1.4095   22.5371 C   0  0  0  0  0  0  0  0  0  0  0  0
    7.6735   -0.0512   22.1714 C   0  0  0  0  0  0  0  0  0  0  0  0
    8.2365   -1.0393   22.8456 N   0  0  0  0  0  0  0  0  0  0  0  0
    8.1004   -2.1026   22.0200 C   0  0  0  0  0  0  0  0  0  0  0  0
    8.6752   -3.4468   22.3213 C   0  0  0  0  0  0  0  0  0  0  0  0
    7.9217   -4.6627   21.7205 C   0  0  0  0  0  0  0  0  0  0  0  0
    8.2754   -5.8098   22.6847 C   0  0  0  0  0  0  0  0  0  0  0  0
    8.9685   -5.2268   23.7798 O   0  0  0  0  0  0  0  0  0  0  0  0
    8.7535   -3.8260   23.8028 C   0  0  0  0  0  0  0  0  0  0  0  0
    9.5981   -3.3713   24.3352 H   0  0  0  0  0  0  0  0  0  0  0  0
    7.8257   -3.5567   24.3374 H   0  0  0  0  0  0  0  0  0  0  0  0
    8.9370   -6.5507   22.2219 H   0  0  0  0  0  0  0  0  0  0  0  0
    7.3821   -6.3461   23.0393 H   0  0  0  0  0  0  0  0  0  0  0  0
    8.1931   -4.8848   20.6840 H   0  0  0  0  0  0  0  0  0  0  0  0
    6.8444   -4.4604   21.7323 H   0  0  0  0  0  0  0  0  0  0  0  0
    9.7030   -3.3743   21.9587 H   0  0  0  0  0  0  0  0  0  0  0  0
    7.5259   -1.8388   20.8625 N   0  0  0  0  0  0  0  0  0  0  0  0
    7.2061   -0.5285   20.9772 N   0  0  0  0  0  0  0  0  0  0  0  0
    6.5331    0.0999   19.9010 C   0  0  0  0  0  0  0  0  0  0  0  0
    5.3411    0.8004   20.0977 C   0  0  0  0  0  0  0  0  0  0  0  0
    4.7542    1.4098   18.9815 C   0  0  0  0  0  0  0  0  0  0  0  0
    5.3910    1.3109   17.7410 C   0  0  0  0  0  0  0  0  0  0  0  0
    6.5170    0.6007   17.5446 N   0  0  0  0  0  0  0  0  0  0  0  0
    7.0519   -0.0223   18.5990 C   0  0  0  0  0  0  0  0  0  0  0  0
    7.9308   -0.6380   18.4095 H   0  0  0  0  0  0  0  0  0  0  0  0
    4.9789    1.8085   16.8635 H   0  0  0  0  0  0  0  0  0  0  0  0
    3.8270    1.9626   19.0743 H   0  0  0  0  0  0  0  0  0  0  0  0
    4.8920    0.8443   21.0959 H   0  0  0  0  0  0  0  0  0  0  0  0
    6.8762    1.9370   22.1141 H   0  0  0  0  0  0  0  0  0  0  0  0
    8.6227    1.8230   22.0510 H   0  0  0  0  0  0  0  0  0  0  0  0
    9.9405    1.9624   23.9581 H   0  0  0  0  0  0  0  0  0  0  0  0
   10.2819    1.8325   26.3918 H   0  0  0  0  0  0  0  0  0  0  0  0
    8.3202    1.3989   27.9045 H   0  0  0  0  0  0  0  0  0  0  0  0
    6.0422    1.1807   26.9091 H   0  0  0  0  0  0  0  0  0  0  0  0
    5.4067    3.7668   23.6861 H   0  0  0  0  0  0  0  0  0  0  0  0
    4.6300    3.5841   25.2703 H   0  0  0  0  0  0  0  0  0  0  0  0
    2.4920    2.8734   24.1194 H   0  0  0  0  0  0  0  0  0  0  0  0
    2.9722    4.4961   23.5909 H   0  0  0  0  0  0  0  0  0  0  0  0
    3.2825    3.1021   22.5440 H   0  0  0  0  0  0  0  0  0  0  0  0
  1  2  1  0
  2  3  1  0
  3  4  1  0
  4  5  2  0
  5  6  1  0
  6  7  2  0
  7  8  1  0
  8  9  2  0
  9 10  1  0
 10 11  1  0
 11 12  2  0
 12 13  1  0
 13 14  1  0
 14 15  1  0
 15 16  1  0
 16 17  1  0
 17 18  1  0
 18 19  1  0
 18 20  1  0
 16 21  1  0
 16 22  1  0
 15 23  1  0
 15 24  1  0
 14 25  1  0
 13 26  2  0
 26 27  1  0
 27 28  1  0
 28 29  2  0
 29 30  1  0
 30 31  2  0
 31 32  1  0
 32 33  2  0
 33 34  1  0
 31 35  1  0
 30 36  1  0
 29 37  1  0
 10 38  1  0
 10 39  1  0
  8 40  1  0
  7 41  1  0
  6 42  1  0
  5 43  1  0
  2 44  1  0
  2 45  1  0
  1 46  1  0
  1 47  1  0
  1 48  1  0
  9  4  1  0
 27 11  1  0
 33 28  1  0
 18 14  1  0
M  END
>  <cnnaffinity>  (1) 
-6.02286

>  <filename>  (1) 
CCSc1ccccc1Cc1nc(C2CCOC2)nn1-c1cccnc1

$$$$
