
     RDKit          3D

 27 28  0  0  0  0  0  0  0  0999 V2000
    5.0204    1.8306   17.0924 H   0  0  0  0  0  0  0  0  0  0  0  0
    5.4970    1.2885   17.9038 C   0  0  0  0  0  0  0  0  0  0  0  0
    6.6470    0.6392   17.6619 N   0  0  0  0  0  0  0  0  0  0  0  0
    7.1833   -0.0810   18.6614 C   0  0  0  0  0  0  0  0  0  0  0  0
    8.1118   -0.6089   18.4685 H   0  0  0  0  0  0  0  0  0  0  0  0
    6.5914   -0.2025   19.9260 C   0  0  0  0  0  0  0  0  0  0  0  0
    7.1845   -1.1796   20.9175 C   0  0  2  0  0  0  0  0  0  0  0  0
    8.0305   -1.7021   20.4652 H   0  0  0  0  0  0  0  0  0  0  0  0
    5.9405   -2.4099   21.3247 Cl  0  0  0  0  0  0  0  0  0  0  0  0
    7.6797   -0.5173   22.2004 C   0  0  0  0  0  0  0  0  0  0  0  0
    8.0302   -1.2917   22.8899 H   0  0  0  0  0  0  0  0  0  0  0  0
    6.8388   -0.0170   22.6873 H   0  0  0  0  0  0  0  0  0  0  0  0
    8.8123    0.4641   21.9501 C   0  0  0  0  0  0  0  0  0  0  0  0
    8.5291    1.8305   21.9060 C   0  0  0  0  0  0  0  0  0  0  0  0
    7.5105    2.1967   21.9725 H   0  0  0  0  0  0  0  0  0  0  0  0
    9.5511    2.7617   21.8146 C   0  0  0  0  0  0  0  0  0  0  0  0
    9.2768    3.8061   21.8449 H   0  0  0  0  0  0  0  0  0  0  0  0
   10.8857    2.3710   21.7140 C   0  0  0  0  0  0  0  0  0  0  0  0
   12.2591    3.7019   21.6536 Br  0  0  0  0  0  0  0  0  0  0  0  0
   11.1828    1.0049   21.6823 C   0  0  0  0  0  0  0  0  0  0  0  0
   12.2183    0.6915   21.5882 H   0  0  0  0  0  0  0  0  0  0  0  0
   10.1523    0.0472   21.8020 C   0  0  0  0  0  0  0  0  0  0  0  0
   10.4066   -1.0098   21.8123 H   0  0  0  0  0  0  0  0  0  0  0  0
    5.4324    0.5314   20.2008 C   0  0  0  0  0  0  0  0  0  0  0  0
    4.9636    0.5104   21.1850 H   0  0  0  0  0  0  0  0  0  0  0  0
    4.8790    1.2737   19.1575 C   0  0  0  0  0  0  0  0  0  0  0  0
    3.9662    1.8370   19.2981 H   0  0  0  0  0  0  0  0  0  0  0  0
  1  2  1  0
  2  3  2  0
  3  4  1  0
  4  5  1  0
  4  6  2  0
  6  7  1  0
  7  8  1  6
  7  9  1  0
  7 10  1  0
 10 11  1  0
 10 12  1  0
 10 13  1  0
 13 14  2  0
 14 15  1  0
 14 16  1  0
 16 17  1  0
 16 18  2  0
 18 19  1  0
 18 20  1  0
 20 21  1  0
 20 22  2  0
 22 23  1  0
  6 24  1  0
 24 25  1  0
 24 26  2  0
 26 27  1  0
 26  2  1  0
 22 13  1  0
M  END
>  <cnnaffinity>  (1) 
-5.19104

>  <filename>  (1) 
Cl[C@H](Cc1ccc(Br)cc1)c1cccnc1

$$$$
