
     RDKit          3D

 25 26  0  0  0  0  0  0  0  0999 V2000
    9.0289   -4.9005   25.0613 H   0  0  0  0  0  0  0  0  0  0  0  0
    8.6357   -4.2876   24.2416 C   0  0  0  0  0  0  0  0  0  0  0  0
    7.3237   -4.0516   24.2116 N   0  0  0  0  0  0  0  0  0  0  0  0
    6.8675   -3.2954   23.2046 C   0  0  0  0  0  0  0  0  0  0  0  0
    5.7840   -3.1325   23.1872 H   0  0  0  0  0  0  0  0  0  0  0  0
    7.6924   -2.7580   22.2123 C   0  0  0  0  0  0  0  0  0  0  0  0
    7.2641   -1.9270   21.0227 C   0  0  0  0  0  0  0  0  0  0  0  0
    7.9551   -2.1516   20.2043 H   0  0  0  0  0  0  0  0  0  0  0  0
    6.2543   -2.2011   20.6948 H   0  0  0  0  0  0  0  0  0  0  0  0
    7.2688   -0.3903   21.1755 C   0  0  1  0  0  0  0  0  0  0  0  0
    6.7906   -0.1006   22.1137 H   0  0  0  0  0  0  0  0  0  0  0  0
    8.9540    0.2356   21.2897 Cl  0  0  0  0  0  0  0  0  0  0  0  0
    6.5704    0.2611   20.0079 C   0  0  0  0  0  0  0  0  0  0  0  0
    7.1306    0.1978   18.7226 C   0  0  0  0  0  0  0  0  0  0  0  0
    8.0765   -0.3228   18.5817 H   0  0  0  0  0  0  0  0  0  0  0  0
    6.5677    0.7224   17.6262 N   0  0  0  0  0  0  0  0  0  0  0  0
    5.3807    1.3307   17.7776 C   0  0  0  0  0  0  0  0  0  0  0  0
    4.9301    1.7626   16.8841 H   0  0  0  0  0  0  0  0  0  0  0  0
    4.7115    1.4096   19.0043 C   0  0  0  0  0  0  0  0  0  0  0  0
    3.7447    1.8945   19.0591 H   0  0  0  0  0  0  0  0  0  0  0  0
    5.3145    0.8620   20.1399 C   0  0  0  0  0  0  0  0  0  0  0  0
    4.8130    0.8878   21.1098 H   0  0  0  0  0  0  0  0  0  0  0  0
    9.0374   -3.0905   22.3637 C   0  0  0  0  0  0  0  0  0  0  0  0
    9.7519   -2.7269   21.6206 H   0  0  0  0  0  0  0  0  0  0  0  0
    9.5197   -3.8435   23.3516 N   0  0  0  0  0  0  0  0  0  0  0  0
  1  2  1  0
  2  3  2  0
  3  4  1  0
  4  5  1  0
  4  6  2  0
  6  7  1  0
  7  8  1  0
  7  9  1  0
  7 10  1  0
 10 11  1  1
 10 12  1  0
 10 13  1  0
 13 14  2  0
 14 15  1  0
 14 16  1  0
 16 17  2  0
 17 18  1  0
 17 19  1  0
 19 20  1  0
 19 21  2  0
 21 22  1  0
  6 23  1  0
 23 24  1  0
 23 25  2  0
 25  2  1  0
 21 13  1  0
M  END
>  <cnnaffinity>  (1) 
-4.41425

>  <filename>  (1) 
Cl[C@H](Cc1cncnc1)c1cccnc1

$$$$
