
     RDKit          3D

 42 45  0  0  0  0  0  0  0  0999 V2000
    8.3790    2.6933   22.2618 Cl  0  0  0  0  0  0  0  0  0  0  0  0
    9.9693    2.0801   22.5816 C   0  0  0  0  0  0  0  0  0  0  0  0
   10.6064    2.6473   23.5916 N   0  0  0  0  0  0  0  0  0  0  0  0
   11.8171    2.1602   23.8815 C   0  0  0  0  0  0  0  0  0  0  0  0
   12.4204    1.1031   23.2070 C   0  0  0  0  0  0  0  0  0  0  0  0
   11.7203    0.5173   22.1508 C   0  0  0  0  0  0  0  0  0  0  0  0
   10.4657    1.0150   21.7979 C   0  0  0  0  0  0  0  0  0  0  0  0
    9.6362    0.3105   20.7467 C   0  0  0  0  0  0  0  0  0  0  0  0
    8.6182   -0.6021   21.3381 C   0  0  0  0  0  0  0  0  0  0  0  0
    8.8563   -1.4518   22.3141 N   0  0  0  0  0  0  0  0  0  0  0  0
    7.6398   -2.0044   22.5443 C   0  0  0  0  0  0  0  0  0  0  0  0
    7.3893   -2.9600   23.6735 C   0  0  0  0  0  0  0  0  0  0  0  0
    7.4385   -2.2492   25.0506 C   0  0  0  0  0  0  0  0  0  0  0  0
    8.9024   -2.3454   25.5228 C   0  0  0  0  0  0  0  0  0  0  0  0
    9.5356   -3.5375   24.7713 C   0  0  0  0  0  0  0  0  0  0  0  0
    8.4694   -4.0609   23.7818 C   0  0  0  0  0  0  0  0  0  0  0  0
    8.0107   -4.9790   24.1664 H   0  0  0  0  0  0  0  0  0  0  0  0
    8.9005   -4.3099   22.8058 H   0  0  0  0  0  0  0  0  0  0  0  0
    9.8486   -4.3334   25.4559 H   0  0  0  0  0  0  0  0  0  0  0  0
   10.4324   -3.2141   24.2347 H   0  0  0  0  0  0  0  0  0  0  0  0
    8.9540   -2.4690   26.6100 H   0  0  0  0  0  0  0  0  0  0  0  0
    9.4381   -1.4221   25.2795 H   0  0  0  0  0  0  0  0  0  0  0  0
    7.0885   -1.2114   24.9917 H   0  0  0  0  0  0  0  0  0  0  0  0
    6.7719   -2.7673   25.7498 H   0  0  0  0  0  0  0  0  0  0  0  0
    6.4008   -3.3756   23.4758 H   0  0  0  0  0  0  0  0  0  0  0  0
    6.6824   -1.5814   21.7427 N   0  0  0  0  0  0  0  0  0  0  0  0
    7.3233   -0.6961   20.9318 N   0  0  0  0  0  0  0  0  0  0  0  0
    6.6445   -0.0014   19.8978 C   0  0  0  0  0  0  0  0  0  0  0  0
    5.4339    0.6462   20.1639 C   0  0  0  0  0  0  0  0  0  0  0  0
    4.8107    1.3131   19.1081 C   0  0  0  0  0  0  0  0  0  0  0  0
    5.3998    1.2952   17.8373 C   0  0  0  0  0  0  0  0  0  0  0  0
    6.5581    0.6710   17.5761 N   0  0  0  0  0  0  0  0  0  0  0  0
    7.1646    0.0487   18.5912 C   0  0  0  0  0  0  0  0  0  0  0  0
    8.1138   -0.4323   18.3649 H   0  0  0  0  0  0  0  0  0  0  0  0
    4.9178    1.7838   16.9944 H   0  0  0  0  0  0  0  0  0  0  0  0
    3.8793    1.8420   19.2612 H   0  0  0  0  0  0  0  0  0  0  0  0
    5.0180    0.6133   21.1737 H   0  0  0  0  0  0  0  0  0  0  0  0
    9.1625    1.0498   20.0973 H   0  0  0  0  0  0  0  0  0  0  0  0
   10.2553   -0.3565   20.1430 H   0  0  0  0  0  0  0  0  0  0  0  0
   12.1303   -0.3366   21.6107 H   0  0  0  0  0  0  0  0  0  0  0  0
   13.4016    0.7518   23.4950 H   0  0  0  0  0  0  0  0  0  0  0  0
   12.3147    2.6506   24.7047 H   0  0  0  0  0  0  0  0  0  0  0  0
  1  2  1  0
  2  3  2  0
  3  4  1  0
  4  5  2  0
  5  6  1  0
  6  7  2  0
  7  8  1  0
  8  9  1  0
  9 10  2  0
 10 11  1  0
 11 12  1  0
 12 13  1  0
 13 14  1  0
 14 15  1  0
 15 16  1  0
 16 17  1  0
 16 18  1  0
 15 19  1  0
 15 20  1  0
 14 21  1  0
 14 22  1  0
 13 23  1  0
 13 24  1  0
 12 25  1  0
 11 26  2  0
 26 27  1  0
 27 28  1  0
 28 29  2  0
 29 30  1  0
 30 31  2  0
 31 32  1  0
 32 33  2  0
 33 34  1  0
 31 35  1  0
 30 36  1  0
 29 37  1  0
  8 38  1  0
  8 39  1  0
  6 40  1  0
  5 41  1  0
  4 42  1  0
  7  2  1  0
 27  9  1  0
 33 28  1  0
 16 12  1  0
M  END
>  <cnnaffinity>  (1) 
-6.63351

>  <filename>  (1) 
Clc1ncccc1Cc1nc(C2CCCC2)nn1-c1cccnc1

$$$$
