
     RDKit          3D

 37 39  0  0  0  0  0  0  0  0999 V2000
    4.9650    1.8076   16.9621 H   0  0  0  0  0  0  0  0  0  0  0  0
    5.4283    1.2905   17.8005 C   0  0  0  0  0  0  0  0  0  0  0  0
    6.5816    0.6587   17.5562 N   0  0  0  0  0  0  0  0  0  0  0  0
    7.1818    0.0426   18.5864 C   0  0  0  0  0  0  0  0  0  0  0  0
    8.1297   -0.4344   18.3359 H   0  0  0  0  0  0  0  0  0  0  0  0
    6.6820   -0.0037   19.9088 C   0  0  0  0  0  0  0  0  0  0  0  0
    7.3623   -0.7520   21.0893 C   0  0  0  0  0  0  0  0  0  0  0  0
    6.4485   -1.9665   21.4853 C   0  0  0  0  0  0  0  0  0  0  0  0
    5.4632   -1.5700   21.7378 H   0  0  0  0  0  0  0  0  0  0  0  0
    6.2965   -2.5444   20.5737 H   0  0  0  0  0  0  0  0  0  0  0  0
    6.8949   -2.9037   22.6000 C   0  0  0  0  0  0  0  0  0  0  0  0
    6.7069   -2.5468   23.9496 C   0  0  0  0  0  0  0  0  0  0  0  0
    6.1882   -1.6222   24.1848 H   0  0  0  0  0  0  0  0  0  0  0  0
    7.1701   -3.3276   25.0071 C   0  0  0  0  0  0  0  0  0  0  0  0
    7.0090   -3.0101   26.0310 H   0  0  0  0  0  0  0  0  0  0  0  0
    7.8491   -4.5158   24.7411 C   0  0  0  0  0  0  0  0  0  0  0  0
    8.2362   -5.1109   25.5587 H   0  0  0  0  0  0  0  0  0  0  0  0
    8.0226   -4.9356   23.4241 C   0  0  0  0  0  0  0  0  0  0  0  0
    8.5656   -5.8518   23.2149 H   0  0  0  0  0  0  0  0  0  0  0  0
    7.5017   -4.1652   22.3788 C   0  0  0  0  0  0  0  0  0  0  0  0
    7.6001   -4.8571   20.7813 Cl  0  0  0  0  0  0  0  0  0  0  0  0
    7.6739    0.2423   22.2470 C   0  0  0  0  0  0  0  0  0  0  0  0
    7.8887   -0.3191   23.1614 H   0  0  0  0  0  0  0  0  0  0  0  0
    6.8409    0.9187   22.4718 H   0  0  0  0  0  0  0  0  0  0  0  0
    8.9570    0.9860   21.8136 C   0  0  0  0  0  0  0  0  0  0  0  0
    9.5727    1.2463   22.6820 H   0  0  0  0  0  0  0  0  0  0  0  0
    8.7059    1.9262   21.3102 H   0  0  0  0  0  0  0  0  0  0  0  0
    9.6674    0.0381   20.8174 C   0  0  0  0  0  0  0  0  0  0  0  0
   10.7175   -0.1738   21.0463 H   0  0  0  0  0  0  0  0  0  0  0  0
    9.6446    0.4939   19.8256 H   0  0  0  0  0  0  0  0  0  0  0  0
    8.8015   -1.2276   20.7811 C   0  0  0  0  0  0  0  0  0  0  0  0
    8.8724   -1.7760   19.8410 H   0  0  0  0  0  0  0  0  0  0  0  0
    9.1128   -1.9284   21.5626 H   0  0  0  0  0  0  0  0  0  0  0  0
    5.4573    0.6575   20.1159 C   0  0  0  0  0  0  0  0  0  0  0  0
    5.0017    0.6743   21.1093 H   0  0  0  0  0  0  0  0  0  0  0  0
    4.8216    1.3099   19.0600 C   0  0  0  0  0  0  0  0  0  0  0  0
    3.8839    1.8359   19.2017 H   0  0  0  0  0  0  0  0  0  0  0  0
  1  2  1  0
  2  3  2  0
  3  4  1  0
  4  5  1  0
  4  6  2  0
  6  7  1  0
  7  8  1  0
  8  9  1  0
  8 10  1  0
  8 11  1  0
 11 12  2  0
 12 13  1  0
 12 14  1  0
 14 15  1  0
 14 16  2  0
 16 17  1  0
 16 18  1  0
 18 19  1  0
 18 20  2  0
 20 21  1  0
  7 22  1  0
 22 23  1  0
 22 24  1  0
 22 25  1  0
 25 26  1  0
 25 27  1  0
 25 28  1  0
 28 29  1  0
 28 30  1  0
 28 31  1  0
 31 32  1  0
 31 33  1  0
  6 34  1  0
 34 35  1  0
 34 36  2  0
 36 37  1  0
 36  2  1  0
 31  7  1  0
 20 11  1  0
M  END
>  <cnnaffinity>  (1) 
-4.90396

>  <filename>  (1) 
Clc1ccccc1CC1(c2cccnc2)CCCC1

$$$$
