
     RDKit          3D

 32 34  0  0  0  0  0  0  0  0999 V2000
    6.7295   -1.4648   21.5173 H   0  0  0  0  0  0  0  0  0  0  0  0
    7.3283   -0.7103   20.9950 C   0  0  0  0  0  0  0  0  0  0  0  0
    8.5783   -0.4287   21.3930 C   0  0  0  0  0  0  0  0  0  0  0  0
    9.3169   -1.0458   22.5067 C   0  0  0  0  0  0  0  0  0  0  0  0
    8.7406   -2.1583   23.3184 C   0  0  0  0  0  0  0  0  0  0  0  0
    9.3652   -3.4091   23.2622 C   0  0  0  0  0  0  0  0  0  0  0  0
   10.2435   -3.5183   22.6371 H   0  0  0  0  0  0  0  0  0  0  0  0
    8.8924   -4.4813   24.0145 C   0  0  0  0  0  0  0  0  0  0  0  0
    9.3916   -5.4428   23.9681 H   0  0  0  0  0  0  0  0  0  0  0  0
    7.7880   -4.3140   24.8497 C   0  0  0  0  0  0  0  0  0  0  0  0
    7.4151   -5.1394   25.4459 H   0  0  0  0  0  0  0  0  0  0  0  0
    7.1564   -3.0719   24.9357 C   0  0  0  0  0  0  0  0  0  0  0  0
    5.7946   -2.9168   25.9965 Cl  0  0  0  0  0  0  0  0  0  0  0  0
    7.6336   -1.9892   24.1744 C   0  0  0  0  0  0  0  0  0  0  0  0
    6.8827   -0.4372   24.3173 Cl  0  0  0  0  0  0  0  0  0  0  0  0
   10.4900   -0.5747   22.6908 N   0  0  0  0  0  0  0  0  0  0  0  0
   10.7226    0.5217   21.7442 C   0  0  0  0  0  0  0  0  0  0  0  0
   10.9181    1.4365   22.3065 H   0  0  0  0  0  0  0  0  0  0  0  0
   11.6216    0.2841   21.1777 H   0  0  0  0  0  0  0  0  0  0  0  0
    9.4737    0.6565   20.8440 C   0  0  0  0  0  0  0  0  0  0  0  0
    9.0064    1.6431   20.9073 H   0  0  0  0  0  0  0  0  0  0  0  0
    9.6712    0.4700   19.7892 H   0  0  0  0  0  0  0  0  0  0  0  0
    6.6439   -0.0035   19.8944 C   0  0  0  0  0  0  0  0  0  0  0  0
    7.1664    0.0710   18.5874 C   0  0  0  0  0  0  0  0  0  0  0  0
    8.1080   -0.4295   18.3761 H   0  0  0  0  0  0  0  0  0  0  0  0
    6.5630    0.6850   17.5629 N   0  0  0  0  0  0  0  0  0  0  0  0
    5.4007    1.2990   17.8332 C   0  0  0  0  0  0  0  0  0  0  0  0
    4.9130    1.7839   16.9932 H   0  0  0  0  0  0  0  0  0  0  0  0
    4.8000    1.3142   19.1006 C   0  0  0  0  0  0  0  0  0  0  0  0
    3.8677    1.8489   19.2568 H   0  0  0  0  0  0  0  0  0  0  0  0
    5.4232    0.6379   20.1472 C   0  0  0  0  0  0  0  0  0  0  0  0
    5.0073    0.6242   21.1610 H   0  0  0  0  0  0  0  0  0  0  0  0
  1  2  1  0
  2  3  2  3
  3  4  1  0
  4  5  1  0
  5  6  2  0
  6  7  1  0
  6  8  1  0
  8  9  1  0
  8 10  2  0
 10 11  1  0
 10 12  1  0
 12 13  1  0
 12 14  2  0
 14 15  1  0
  4 16  2  0
 16 17  1  0
 17 18  1  0
 17 19  1  0
 17 20  1  0
 20 21  1  0
 20 22  1  0
  2 23  1  0
 23 24  2  0
 24 25  1  0
 24 26  1  0
 26 27  2  0
 27 28  1  0
 27 29  1  0
 29 30  1  0
 29 31  2  0
 31 32  1  0
 20  3  1  0
 31 23  1  0
 14  5  1  0
M  END
>  <cnnaffinity>  (1) 
-5.75656

>  <filename>  (1) 
Clc1cccc(C2=NCCC2=Cc2cccnc2)c1Cl

$$$$
