
     RDKit          3D

 33 35  0  0  0  0  0  0  0  0999 V2000
    4.9212    1.7778   16.9980 H   0  0  0  0  0  0  0  0  0  0  0  0
    5.4073    1.2877   17.8423 C   0  0  0  0  0  0  0  0  0  0  0  0
    6.5707    0.6686   17.5955 N   0  0  0  0  0  0  0  0  0  0  0  0
    7.1752    0.0550   18.6190 C   0  0  0  0  0  0  0  0  0  0  0  0
    8.1206   -0.4267   18.3771 H   0  0  0  0  0  0  0  0  0  0  0  0
    6.6700   -0.0060   19.9392 C   0  0  0  0  0  0  0  0  0  0  0  0
    7.3498   -0.6759   20.9646 N   0  0  0  0  0  0  0  0  0  0  0  0
    6.8422   -0.7485   22.2197 N   0  0  0  0  0  0  0  0  0  0  0  0
    7.6641   -1.4111   22.9701 C   0  0  0  0  0  0  0  0  0  0  0  0
    7.4049   -1.6640   24.4168 C   0  0  0  0  0  0  0  0  0  0  0  0
    6.4672   -2.2221   24.5174 H   0  0  0  0  0  0  0  0  0  0  0  0
    8.1902   -2.3085   24.8247 H   0  0  0  0  0  0  0  0  0  0  0  0
    7.3297   -0.3795   25.2147 C   0  0  0  0  0  0  0  0  0  0  0  0
    6.0868    0.2452   25.3904 C   0  0  0  0  0  0  0  0  0  0  0  0
    5.2065   -0.2390   24.9782 H   0  0  0  0  0  0  0  0  0  0  0  0
    5.9712    1.4663   26.0569 C   0  0  0  0  0  0  0  0  0  0  0  0
    4.9951    1.9253   26.1869 H   0  0  0  0  0  0  0  0  0  0  0  0
    7.1169    2.0905   26.5529 C   0  0  0  0  0  0  0  0  0  0  0  0
    7.0426    3.0366   27.0785 H   0  0  0  0  0  0  0  0  0  0  0  0
    8.3713    1.5035   26.3709 C   0  0  0  0  0  0  0  0  0  0  0  0
    9.2724    1.9808   26.7338 H   0  0  0  0  0  0  0  0  0  0  0  0
    8.4670    0.2802   25.7042 C   0  0  0  0  0  0  0  0  0  0  0  0
   10.0612   -0.3995   25.4853 Cl  0  0  0  0  0  0  0  0  0  0  0  0
    8.8854   -1.8854   22.2363 C   0  0  0  0  0  0  0  0  0  0  0  0
    9.8035   -1.4921   22.6799 H   0  0  0  0  0  0  0  0  0  0  0  0
    8.9500   -2.9786   22.2580 H   0  0  0  0  0  0  0  0  0  0  0  0
    8.6353   -1.3330   20.8332 C   0  0  0  0  0  0  0  0  0  0  0  0
    8.5717   -2.1322   20.1046 H   0  0  0  0  0  0  0  0  0  0  0  0
    9.4173   -0.6488   20.4766 H   0  0  0  0  0  0  0  0  0  0  0  0
    5.4414    0.6454   20.1781 C   0  0  0  0  0  0  0  0  0  0  0  0
    5.0106    0.6262   21.1805 H   0  0  0  0  0  0  0  0  0  0  0  0
    4.8178    1.3007   19.1149 C   0  0  0  0  0  0  0  0  0  0  0  0
    3.8852    1.8346   19.2636 H   0  0  0  0  0  0  0  0  0  0  0  0
  1  2  1  0
  2  3  2  0
  3  4  1  0
  4  5  1  0
  4  6  2  0
  6  7  1  0
  7  8  1  0
  8  9  2  0
  9 10  1  0
 10 11  1  0
 10 12  1  0
 10 13  1  0
 13 14  2  0
 14 15  1  0
 14 16  1  0
 16 17  1  0
 16 18  2  0
 18 19  1  0
 18 20  1  0
 20 21  1  0
 20 22  2  0
 22 23  1  0
  9 24  1  0
 24 25  1  0
 24 26  1  0
 24 27  1  0
 27 28  1  0
 27 29  1  0
  6 30  1  0
 30 31  1  0
 30 32  2  0
 32 33  1  0
 32  2  1  0
 27  7  1  0
 22 13  1  0
M  END
>  <cnnaffinity>  (1) 
-5.09772

>  <filename>  (1) 
Clc1ccccc1CC1=NN(c2cccnc2)CC1

$$$$
