
     RDKit          3D

 36 39  0  0  0  0  0  0  0  0999 V2000
   14.5862    5.6281   21.5914 Cl  0  0  0  0  0  0  0  0  0  0  0  0
   13.5077    4.6741   22.5667 C   0  0  0  0  0  0  0  0  0  0  0  0
   13.7674    3.3162   22.7633 C   0  0  0  0  0  0  0  0  0  0  0  0
   12.8456    2.5397   23.4697 C   0  0  0  0  0  0  0  0  0  0  0  0
   11.6874    3.1226   24.0113 C   0  0  0  0  0  0  0  0  0  0  0  0
   10.5043    2.1286   24.8862 S   0  0  0  0  0  0  0  0  0  0  0  0
    9.2887    1.8102   23.5661 C   0  0  0  0  0  0  0  0  0  0  0  0
    8.1199    0.9531   24.0791 C   0  0  0  0  0  0  0  0  0  0  0  0
    7.0285    0.8052   22.9917 C   0  0  0  0  0  0  0  0  0  0  0  0
    7.5178   -0.2841   22.1627 N   0  0  0  0  0  0  0  0  0  0  0  0
    8.3308   -1.1941   22.7597 C   0  0  0  0  0  0  0  0  0  0  0  0
    8.7272   -2.1113   21.9241 N   0  0  0  0  0  0  0  0  0  0  0  0
    8.1598   -1.7835   20.7080 N   0  0  0  0  0  0  0  0  0  0  0  0
    7.4385   -0.7013   20.8667 C   0  0  0  0  0  0  0  0  0  0  0  0
    6.6547   -0.0068   19.8469 C   0  0  0  0  0  0  0  0  0  0  0  0
    5.4380    0.6420   20.1047 C   0  0  0  0  0  0  0  0  0  0  0  0
    4.8107    1.3085   19.0550 C   0  0  0  0  0  0  0  0  0  0  0  0
    5.4182    1.3087   17.7945 C   0  0  0  0  0  0  0  0  0  0  0  0
    6.5643    0.6626   17.5302 N   0  0  0  0  0  0  0  0  0  0  0  0
    7.1539    0.0150   18.5371 C   0  0  0  0  0  0  0  0  0  0  0  0
    8.0757   -0.5147   18.3050 H   0  0  0  0  0  0  0  0  0  0  0  0
    4.9633    1.8417   16.9609 H   0  0  0  0  0  0  0  0  0  0  0  0
    3.8782    1.8380   19.2021 H   0  0  0  0  0  0  0  0  0  0  0  0
    4.9879    0.6220   21.0995 H   0  0  0  0  0  0  0  0  0  0  0  0
    8.6615   -0.7866   24.4295 S   0  0  0  0  0  0  0  0  0  0  0  0
    6.0607    0.5459   23.4428 H   0  0  0  0  0  0  0  0  0  0  0  0
    6.9050    1.7237   22.4075 H   0  0  0  0  0  0  0  0  0  0  0  0
    7.6996    1.3726   24.9959 H   0  0  0  0  0  0  0  0  0  0  0  0
    9.7842    1.2879   22.7395 H   0  0  0  0  0  0  0  0  0  0  0  0
    8.9090    2.7681   23.1909 H   0  0  0  0  0  0  0  0  0  0  0  0
   11.4630    4.4989   23.8498 C   0  0  0  0  0  0  0  0  0  0  0  0
   12.3665    5.2703   23.1121 C   0  0  0  0  0  0  0  0  0  0  0  0
   12.1692    6.3140   22.9345 H   0  0  0  0  0  0  0  0  0  0  0  0
   10.5621    4.9609   24.2545 H   0  0  0  0  0  0  0  0  0  0  0  0
   13.0112    1.4678   23.5616 H   0  0  0  0  0  0  0  0  0  0  0  0
   14.6798    2.8763   22.3779 H   0  0  0  0  0  0  0  0  0  0  0  0
  1  2  1  0
  2  3  2  0
  3  4  1  0
  4  5  2  0
  5  6  1  0
  6  7  1  0
  7  8  1  0
  8  9  1  0
  9 10  1  0
 10 11  1  0
 11 12  2  0
 12 13  1  0
 13 14  2  0
 14 15  1  0
 15 16  2  0
 16 17  1  0
 17 18  2  0
 18 19  1  0
 19 20  2  0
 20 21  1  0
 18 22  1  0
 17 23  1  0
 16 24  1  0
 11 25  1  0
  9 26  1  0
  9 27  1  0
  8 28  1  0
  7 29  1  0
  7 30  1  0
  5 31  1  0
 31 32  2  0
 32 33  1  0
 31 34  1  0
  4 35  1  0
  3 36  1  0
 32  2  1  0
 25  8  1  0
 14 10  1  0
 20 15  1  0
M  END
>  <cnnaffinity>  (1) 
-5.77637

>  <filename>  (1) 
Clc1ccc(SCC2Cn3c(nnc3-c3cccnc3)S2)cc1

$$$$
