
     RDKit          3D

 33 35  0  0  0  0  0  0  0  0999 V2000
    7.8755    1.3090   23.7527 H   0  0  0  0  0  0  0  0  0  0  0  0
    7.6201    1.0640   22.7183 C   0  0  0  0  0  0  0  0  0  0  0  0
    7.2045    2.0956   21.9280 O   0  0  0  0  0  0  0  0  0  0  0  0
    7.2235    3.4246   22.3040 C   0  0  0  0  0  0  0  0  0  0  0  0
    7.9634    3.9380   23.3720 C   0  0  0  0  0  0  0  0  0  0  0  0
    8.5775    3.2808   23.9768 H   0  0  0  0  0  0  0  0  0  0  0  0
    7.9305    5.3095   23.6434 C   0  0  0  0  0  0  0  0  0  0  0  0
    8.4908    5.7079   24.4811 H   0  0  0  0  0  0  0  0  0  0  0  0
    7.1737    6.1628   22.8408 C   0  0  0  0  0  0  0  0  0  0  0  0
    7.1391    7.8628   23.2045 Cl  0  0  0  0  0  0  0  0  0  0  0  0
    6.4455    5.6634   21.7587 C   0  0  0  0  0  0  0  0  0  0  0  0
    5.8737    6.3466   21.1360 H   0  0  0  0  0  0  0  0  0  0  0  0
    6.4688    4.2913   21.5001 C   0  0  0  0  0  0  0  0  0  0  0  0
    5.9308    3.8785   20.6552 H   0  0  0  0  0  0  0  0  0  0  0  0
    7.6975   -0.1949   22.2699 C   0  0  0  0  0  0  0  0  0  0  0  0
    7.3646   -0.7424   20.9360 C   0  0  0  0  0  0  0  0  0  0  0  0
    6.6393    0.0111   19.8958 C   0  0  0  0  0  0  0  0  0  0  0  0
    7.1652    0.0500   18.6025 C   0  0  0  0  0  0  0  0  0  0  0  0
    8.1103   -0.4404   18.3783 H   0  0  0  0  0  0  0  0  0  0  0  0
    6.5714    0.6760   17.5836 N   0  0  0  0  0  0  0  0  0  0  0  0
    5.4060    1.2929   17.8379 C   0  0  0  0  0  0  0  0  0  0  0  0
    4.9287    1.7825   16.9935 H   0  0  0  0  0  0  0  0  0  0  0  0
    4.7973    1.3068   19.0968 C   0  0  0  0  0  0  0  0  0  0  0  0
    3.8703    1.8464   19.2518 H   0  0  0  0  0  0  0  0  0  0  0  0
    5.4218    0.6536   20.1543 C   0  0  0  0  0  0  0  0  0  0  0  0
    4.9825    0.6480   21.1538 H   0  0  0  0  0  0  0  0  0  0  0  0
    7.7384   -1.9530   20.7554 N   0  0  0  0  0  0  0  0  0  0  0  0
    8.3264   -2.4742   21.9902 C   0  0  0  0  0  0  0  0  0  0  0  0
    7.7999   -3.3868   22.2848 H   0  0  0  0  0  0  0  0  0  0  0  0
    9.3573   -2.7656   21.7758 H   0  0  0  0  0  0  0  0  0  0  0  0
    8.2459   -1.3642   23.0692 C   0  0  0  0  0  0  0  0  0  0  0  0
    9.2283   -1.1525   23.5080 H   0  0  0  0  0  0  0  0  0  0  0  0
    7.5881   -1.6605   23.8967 H   0  0  0  0  0  0  0  0  0  0  0  0
  1  2  1  0
  2  3  1  0
  3  4  1  0
  4  5  2  0
  5  6  1  0
  5  7  1  0
  7  8  1  0
  7  9  2  0
  9 10  1  0
  9 11  1  0
 11 12  1  0
 11 13  2  0
 13 14  1  0
  2 15  2  3
 15 16  1  0
 16 17  1  0
 17 18  2  0
 18 19  1  0
 18 20  1  0
 20 21  2  0
 21 22  1  0
 21 23  1  0
 23 24  1  0
 23 25  2  0
 25 26  1  0
 16 27  2  0
 27 28  1  0
 28 29  1  0
 28 30  1  0
 28 31  1  0
 31 32  1  0
 31 33  1  0
 13  4  1  0
 31 15  1  0
 25 17  1  0
M  END
>  <cnnaffinity>  (1) 
-5.04016

>  <filename>  (1) 
Clc1ccc(OC=C2CCN=C2c2cccnc2)cc1

$$$$
