
     RDKit          3D

 27 29  0  0  0  0  0  0  0  0999 V2000
    5.0047    1.9148   16.7923 H   0  0  0  0  0  0  0  0  0  0  0  0
    5.4463    1.3639   17.6202 C   0  0  0  0  0  0  0  0  0  0  0  0
    6.5896    0.7122   17.3605 N   0  0  0  0  0  0  0  0  0  0  0  0
    7.1633    0.0448   18.3663 C   0  0  0  0  0  0  0  0  0  0  0  0
    8.1034   -0.4523   18.1352 H   0  0  0  0  0  0  0  0  0  0  0  0
    6.6243   -0.0170   19.6572 C   0  0  0  0  0  0  0  0  0  0  0  0
    7.3499   -0.7313   20.7081 C   0  0  0  0  0  0  0  0  0  0  0  0
    6.8529   -0.7856   21.9686 N   0  0  0  0  0  0  0  0  0  0  0  0
    7.7696   -1.4482   22.6402 C   0  0  0  0  0  0  0  0  0  0  0  0
    7.7111   -1.8400   24.0606 C   0  0  0  0  0  0  0  0  0  0  0  0
    6.5942   -2.5856   24.4864 C   0  0  0  0  0  0  0  0  0  0  0  0
    5.8112   -2.8284   23.7681 H   0  0  0  0  0  0  0  0  0  0  0  0
    6.4801   -2.9951   25.8116 C   0  0  0  0  0  0  0  0  0  0  0  0
    5.6347   -3.5976   26.1389 H   0  0  0  0  0  0  0  0  0  0  0  0
    7.4421   -2.5954   26.7332 C   0  0  0  0  0  0  0  0  0  0  0  0
    7.3600   -2.8720   27.7701 H   0  0  0  0  0  0  0  0  0  0  0  0
    8.5365   -1.8193   26.3425 C   0  0  0  0  0  0  0  0  0  0  0  0
    9.6435   -1.3186   27.5754 Cl  0  0  0  0  0  0  0  0  0  0  0  0
    8.7080   -1.4658   24.9933 C   0  0  0  0  0  0  0  0  0  0  0  0
   10.1346   -0.6082   24.4918 Cl  0  0  0  0  0  0  0  0  0  0  0  0
    8.7718   -1.7790   21.8129 N   0  0  0  0  0  0  0  0  0  0  0  0
    9.6275   -2.2455   22.0725 H   0  0  0  0  0  0  0  0  0  0  0  0
    8.5226   -1.3342   20.5590 N   0  0  0  0  0  0  0  0  0  0  0  0
    5.4282    0.6730   19.9226 C   0  0  0  0  0  0  0  0  0  0  0  0
    5.0010    0.6771   20.9291 H   0  0  0  0  0  0  0  0  0  0  0  0
    4.8304    1.3712   18.8782 C   0  0  0  0  0  0  0  0  0  0  0  0
    3.9230    1.9448   19.0325 H   0  0  0  0  0  0  0  0  0  0  0  0
  1  2  1  0
  2  3  2  0
  3  4  1  0
  4  5  1  0
  4  6  2  0
  6  7  1  0
  7  8  1  0
  8  9  2  0
  9 10  1  0
 10 11  2  0
 11 12  1  0
 11 13  1  0
 13 14  1  0
 13 15  2  0
 15 16  1  0
 15 17  1  0
 17 18  1  0
 17 19  2  0
 19 20  1  0
  9 21  1  0
 21 22  1  0
 21 23  1  0
  6 24  1  0
 24 25  1  0
 24 26  2  0
 26 27  1  0
 26  2  1  0
 23  7  2  0
 19 10  1  0
M  END
>  <cnnaffinity>  (1) 
-5.58207

>  <filename>  (1) 
Clc1cccc(-c2nc(-c3cccnc3)n[nH]2)c1Cl

$$$$
