
     RDKit          3D

 43 46  0  0  0  0  0  0  0  0999 V2000
    7.6727    5.5616   24.2227 Cl  0  0  0  0  0  0  0  0  0  0  0  0
    8.1645    4.1249   23.3695 C   0  0  0  0  0  0  0  0  0  0  0  0
    7.7330    3.9263   22.0489 C   0  0  0  0  0  0  0  0  0  0  0  0
    8.1869    2.7724   21.4091 C   0  0  0  0  0  0  0  0  0  0  0  0
    9.0687    1.9152   22.0668 C   0  0  0  0  0  0  0  0  0  0  0  0
    9.5830    0.6778   21.3525 C   0  0  0  0  0  0  0  0  0  0  0  0
    8.6702   -0.5007   21.5367 C   0  0  0  0  0  0  0  0  0  0  0  0
    8.8741   -1.3900   22.4778 N   0  0  0  0  0  0  0  0  0  0  0  0
    7.6825   -2.0352   22.5823 C   0  0  0  0  0  0  0  0  0  0  0  0
    7.3947   -2.9989   23.7125 C   0  0  0  0  0  0  0  0  0  0  0  0
    6.8262   -2.2667   24.9655 C   0  0  0  0  0  0  0  0  0  0  0  0
    7.9246   -1.5378   25.7434 C   0  0  0  0  0  0  0  0  0  0  0  0
    8.9568   -2.4341   26.1245 O   0  0  0  0  0  0  0  0  0  0  0  0
    9.6164   -3.0184   25.0085 C   0  0  0  0  0  0  0  0  0  0  0  0
    8.6437   -3.8186   24.1282 C   0  0  0  0  0  0  0  0  0  0  0  0
    9.1734   -4.1914   23.2436 H   0  0  0  0  0  0  0  0  0  0  0  0
    8.3163   -4.6912   24.7071 H   0  0  0  0  0  0  0  0  0  0  0  0
   10.3776   -3.6856   25.4273 H   0  0  0  0  0  0  0  0  0  0  0  0
   10.1165   -2.2392   24.4165 H   0  0  0  0  0  0  0  0  0  0  0  0
    8.3437   -0.7089   25.1463 H   0  0  0  0  0  0  0  0  0  0  0  0
    7.5207   -1.1230   26.6722 H   0  0  0  0  0  0  0  0  0  0  0  0
    6.0358   -1.5650   24.6728 H   0  0  0  0  0  0  0  0  0  0  0  0
    6.3799   -3.0066   25.6421 H   0  0  0  0  0  0  0  0  0  0  0  0
    6.6235   -3.6733   23.3307 H   0  0  0  0  0  0  0  0  0  0  0  0
    6.7749   -1.6439   21.7116 N   0  0  0  0  0  0  0  0  0  0  0  0
    7.4299   -0.6816   20.9895 N   0  0  0  0  0  0  0  0  0  0  0  0
    6.7391   -0.0118   19.9325 C   0  0  0  0  0  0  0  0  0  0  0  0
    5.5171    0.6222   20.1883 C   0  0  0  0  0  0  0  0  0  0  0  0
    4.8858    1.2872   19.1343 C   0  0  0  0  0  0  0  0  0  0  0  0
    5.4793    1.2751   17.8656 C   0  0  0  0  0  0  0  0  0  0  0  0
    6.6315    0.6407   17.6034 N   0  0  0  0  0  0  0  0  0  0  0  0
    7.2377    0.0071   18.6168 C   0  0  0  0  0  0  0  0  0  0  0  0
    8.1474   -0.5367   18.3666 H   0  0  0  0  0  0  0  0  0  0  0  0
    5.0053    1.7727   17.0226 H   0  0  0  0  0  0  0  0  0  0  0  0
    3.9425    1.7999   19.2815 H   0  0  0  0  0  0  0  0  0  0  0  0
    5.0835    0.5759   21.1902 H   0  0  0  0  0  0  0  0  0  0  0  0
   10.5748    0.3930   21.7242 H   0  0  0  0  0  0  0  0  0  0  0  0
    9.6961    0.8764   20.2877 H   0  0  0  0  0  0  0  0  0  0  0  0
    9.3845    2.2034   23.4015 C   0  0  0  0  0  0  0  0  0  0  0  0
    8.9467    3.2942   24.0431 N   0  0  0  0  0  0  0  0  0  0  0  0
   10.0110    1.5217   23.9848 H   0  0  0  0  0  0  0  0  0  0  0  0
    7.8854    2.4811   20.3996 H   0  0  0  0  0  0  0  0  0  0  0  0
    7.1119    4.6618   21.5450 H   0  0  0  0  0  0  0  0  0  0  0  0
  1  2  1  0
  2  3  2  0
  3  4  1  0
  4  5  2  0
  5  6  1  0
  6  7  1  0
  7  8  2  0
  8  9  1  0
  9 10  1  0
 10 11  1  0
 11 12  1  0
 12 13  1  0
 13 14  1  0
 14 15  1  0
 15 16  1  0
 15 17  1  0
 14 18  1  0
 14 19  1  0
 12 20  1  0
 12 21  1  0
 11 22  1  0
 11 23  1  0
 10 24  1  0
  9 25  2  0
 25 26  1  0
 26 27  1  0
 27 28  2  0
 28 29  1  0
 29 30  2  0
 30 31  1  0
 31 32  2  0
 32 33  1  0
 30 34  1  0
 29 35  1  0
 28 36  1  0
  6 37  1  0
  6 38  1  0
  5 39  1  0
 39 40  2  0
 39 41  1  0
  4 42  1  0
  3 43  1  0
 40  2  1  0
 26  7  1  0
 32 27  1  0
 15 10  1  0
M  END
>  <cnnaffinity>  (1) 
-5.96196

>  <filename>  (1) 
Clc1ccc(Cc2nc(C3CCOCC3)nn2-c2cccnc2)cn1

$$$$
