
     RDKit          3D

 40 43  0  0  0  0  0  0  0  0999 V2000
   15.9977   -0.4124   19.6522 Cl  0  0  0  0  0  0  0  0  0  0  0  0
   14.5895   -0.8289   20.7379 C   0  0  0  0  0  0  0  0  0  0  0  0
   14.3529    0.1048   21.7738 C   0  0  0  0  0  0  0  0  0  0  0  0
   13.0627    0.2776   22.2662 C   0  0  0  0  0  0  0  0  0  0  0  0
   12.0168   -0.5237   21.7665 C   0  0  0  0  0  0  0  0  0  0  0  0
   10.5824   -0.1402   21.8298 C   0  0  0  0  0  0  0  0  0  0  0  0
    9.6275   -0.9311   21.3581 N   0  0  0  0  0  0  0  0  0  0  0  0
    8.5012   -0.2095   21.5255 N   0  0  0  0  0  0  0  0  0  0  0  0
    7.2136   -0.7314   21.0650 C   0  0  0  0  0  0  0  0  0  0  0  0
    6.5450    0.0470   19.9411 C   0  0  0  0  0  0  0  0  0  0  0  0
    5.3143    0.6995   20.0928 C   0  0  0  0  0  0  0  0  0  0  0  0
    4.7524    1.3603   18.9954 C   0  0  0  0  0  0  0  0  0  0  0  0
    5.4423    1.3409   17.7795 C   0  0  0  0  0  0  0  0  0  0  0  0
    6.6186    0.7177   17.6088 N   0  0  0  0  0  0  0  0  0  0  0  0
    7.1474    0.0967   18.6710 C   0  0  0  0  0  0  0  0  0  0  0  0
    8.1008   -0.4028   18.5027 H   0  0  0  0  0  0  0  0  0  0  0  0
    5.0373    1.8500   16.9058 H   0  0  0  0  0  0  0  0  0  0  0  0
    3.8122    1.8962   19.0712 H   0  0  0  0  0  0  0  0  0  0  0  0
    4.7960    0.6927   21.0553 H   0  0  0  0  0  0  0  0  0  0  0  0
    6.5433   -0.7892   21.9296 H   0  0  0  0  0  0  0  0  0  0  0  0
    7.4264   -1.7556   20.7423 H   0  0  0  0  0  0  0  0  0  0  0  0
    8.8117    0.9700   22.1012 C   0  0  0  0  0  0  0  0  0  0  0  0
    7.7713    1.8211   22.7822 C   0  0  0  0  0  0  0  0  0  0  0  0
    7.3939    1.1839   24.1169 C   0  0  0  0  0  0  0  0  0  0  0  0
    8.3192    0.9526   25.1131 C   0  0  0  0  0  0  0  0  0  0  0  0
    7.6900    0.2416   26.0708 N   0  0  0  0  0  0  0  0  0  0  0  0
    6.4079   -0.0147   25.7850 N   0  0  0  0  0  0  0  0  0  0  0  0
    6.2181    0.5583   24.5975 C   0  0  0  0  0  0  0  0  0  0  0  0
    5.2425    0.4934   24.1327 H   0  0  0  0  0  0  0  0  0  0  0  0
    8.0926   -0.1229   26.9221 H   0  0  0  0  0  0  0  0  0  0  0  0
    9.3688    1.2181   25.1523 H   0  0  0  0  0  0  0  0  0  0  0  0
    8.2112    2.8135   22.9340 H   0  0  0  0  0  0  0  0  0  0  0  0
    6.8962    1.9447   22.1351 H   0  0  0  0  0  0  0  0  0  0  0  0
   10.1226    1.0601   22.2772 N   0  0  0  0  0  0  0  0  0  0  0  0
   12.3709   -1.6516   21.0069 C   0  0  0  0  0  0  0  0  0  0  0  0
   13.6521   -1.8209   20.4679 C   0  0  0  0  0  0  0  0  0  0  0  0
   13.8812   -2.6883   19.8598 H   0  0  0  0  0  0  0  0  0  0  0  0
   11.5718   -2.3457   20.8089 H   0  0  0  0  0  0  0  0  0  0  0  0
   12.8756    1.0859   22.9684 H   0  0  0  0  0  0  0  0  0  0  0  0
   15.1533    0.7774   22.0731 H   0  0  0  0  0  0  0  0  0  0  0  0
  1  2  1  0
  2  3  2  0
  3  4  1  0
  4  5  2  0
  5  6  1  0
  6  7  2  0
  7  8  1  0
  8  9  1  0
  9 10  1  0
 10 11  2  0
 11 12  1  0
 12 13  2  0
 13 14  1  0
 14 15  2  0
 15 16  1  0
 13 17  1  0
 12 18  1  0
 11 19  1  0
  9 20  1  0
  9 21  1  0
  8 22  1  0
 22 23  1  0
 23 24  1  0
 24 25  2  0
 25 26  1  0
 26 27  1  0
 27 28  2  0
 28 29  1  0
 26 30  1  0
 25 31  1  0
 23 32  1  0
 23 33  1  0
 22 34  2  0
  5 35  1  0
 35 36  2  0
 36 37  1  0
 35 38  1  0
  4 39  1  0
  3 40  1  0
 36  2  1  0
 34  6  1  0
 15 10  1  0
 28 24  1  0
M  END
>  <cnnaffinity>  (1) 
-6.3492

>  <filename>  (1) 
Clc1ccc(-c2nc(Cc3cn[nH]c3)n(Cc3cccnc3)n2)cc1

$$$$
