
     RDKit          3D

 18 19  0  0  0  0  0  0  0  0999 V2000
    4.9232    1.7800   16.9960 H   0  0  0  0  0  0  0  0  0  0  0  0
    5.4071    1.2892   17.8414 C   0  0  0  0  0  0  0  0  0  0  0  0
    6.5742    0.6715   17.5890 N   0  0  0  0  0  0  0  0  0  0  0  0
    7.1780    0.0480   18.6029 C   0  0  0  0  0  0  0  0  0  0  0  0
    8.1233   -0.4376   18.3763 H   0  0  0  0  0  0  0  0  0  0  0  0
    6.6546    0.0024   19.9071 C   0  0  0  0  0  0  0  0  0  0  0  0
    7.3596   -0.6799   20.9416 N   0  0  0  0  0  0  0  0  0  0  0  0
    7.9232   -1.8838   20.7144 N   0  0  0  0  0  0  0  0  0  0  0  0
    8.4821   -2.2264   21.8618 C   0  0  0  0  0  0  0  0  0  0  0  0
    9.0060   -3.1660   21.9417 H   0  0  0  0  0  0  0  0  0  0  0  0
    8.3154   -1.2492   22.8596 C   0  0  0  0  0  0  0  0  0  0  0  0
    8.6707   -1.2362   23.8766 H   0  0  0  0  0  0  0  0  0  0  0  0
    7.6010   -0.2694   22.2205 C   0  0  0  0  0  0  0  0  0  0  0  0
    7.1327    1.2574   22.8291 Cl  0  0  0  0  0  0  0  0  0  0  0  0
    5.4372    0.6444   20.1693 C   0  0  0  0  0  0  0  0  0  0  0  0
    5.0007    0.6302   21.1694 H   0  0  0  0  0  0  0  0  0  0  0  0
    4.8116    1.3016   19.1075 C   0  0  0  0  0  0  0  0  0  0  0  0
    3.8801    1.8380   19.2609 H   0  0  0  0  0  0  0  0  0  0  0  0
  1  2  1  0
  2  3  2  0
  3  4  1  0
  4  5  1  0
  4  6  2  0
  6  7  1  0
  7  8  1  0
  8  9  2  0
  9 10  1  0
  9 11  1  0
 11 12  1  0
 11 13  2  0
 13 14  1  0
  6 15  1  0
 15 16  1  0
 15 17  2  0
 17 18  1  0
 17  2  1  0
 13  7  1  0
M  END
>  <cnnaffinity>  (1) 
-4.02174

>  <filename>  (1) 
Clc1ccnn1-c1cccnc1

$$$$
