
     RDKit          3D

 35 38  0  0  0  0  0  0  0  0999 V2000
    5.0155    1.8566   16.8754 H   0  0  0  0  0  0  0  0  0  0  0  0
    5.4360    1.2945   17.7100 C   0  0  0  0  0  0  0  0  0  0  0  0
    6.5761    0.6272   17.4764 N   0  0  0  0  0  0  0  0  0  0  0  0
    7.1450   -0.0198   18.5008 C   0  0  0  0  0  0  0  0  0  0  0  0
    8.0673   -0.5483   18.2712 H   0  0  0  0  0  0  0  0  0  0  0  0
    6.6188   -0.0339   19.8050 C   0  0  0  0  0  0  0  0  0  0  0  0
    7.3779   -0.6436   20.9143 C   0  0  0  0  0  0  0  0  0  0  0  0
    8.5698   -1.2257   20.6982 N   0  0  0  0  0  0  0  0  0  0  0  0
    8.9473   -1.5986   21.9369 N   0  0  0  0  0  0  0  0  0  0  0  0
   10.0524   -2.2293   22.4866 C   0  0  0  0  0  0  0  0  0  0  0  0
   10.8517   -2.5893   21.8618 H   0  0  0  0  0  0  0  0  0  0  0  0
    9.8353   -2.2430   23.8242 C   0  0  0  0  0  0  0  0  0  0  0  0
   10.4561   -2.6358   24.6156 H   0  0  0  0  0  0  0  0  0  0  0  0
    8.6069   -1.6497   24.1138 N   0  0  0  0  0  0  0  0  0  0  0  0
    8.2241   -0.9968   25.3695 C   0  0  0  0  0  0  0  0  0  0  0  0
    8.7156   -1.5256   26.1937 H   0  0  0  0  0  0  0  0  0  0  0  0
    7.1445   -1.1194   25.5008 H   0  0  0  0  0  0  0  0  0  0  0  0
    8.6266    0.4716   25.3474 C   0  0  0  0  0  0  0  0  0  0  0  0
    7.7066    1.5119   25.1510 C   0  0  0  0  0  0  0  0  0  0  0  0
    6.6395    1.2864   25.1083 H   0  0  0  0  0  0  0  0  0  0  0  0
    8.1395    2.8305   24.9472 C   0  0  0  0  0  0  0  0  0  0  0  0
    7.4276    3.6380   24.8115 H   0  0  0  0  0  0  0  0  0  0  0  0
    9.5113    3.0974   24.9136 C   0  0  0  0  0  0  0  0  0  0  0  0
   10.1010    4.7164   24.6478 Cl  0  0  0  0  0  0  0  0  0  0  0  0
   10.4440    2.0739   25.0939 C   0  0  0  0  0  0  0  0  0  0  0  0
   11.5025    2.2974   25.0120 H   0  0  0  0  0  0  0  0  0  0  0  0
    9.9969    0.7778   25.3316 C   0  0  0  0  0  0  0  0  0  0  0  0
   10.7220   -0.0219   25.4849 H   0  0  0  0  0  0  0  0  0  0  0  0
    8.0695   -1.2597   22.9036 C   0  0  0  0  0  0  0  0  0  0  0  0
    7.0008   -0.6444   22.2767 C   0  0  0  0  0  0  0  0  0  0  0  0
    6.0837   -0.2714   22.6964 H   0  0  0  0  0  0  0  0  0  0  0  0
    5.3961    0.6241   20.0146 C   0  0  0  0  0  0  0  0  0  0  0  0
    4.9205    0.6184   20.9951 H   0  0  0  0  0  0  0  0  0  0  0  0
    4.8002    1.3036   18.9546 C   0  0  0  0  0  0  0  0  0  0  0  0
    3.8795    1.8608   19.0894 H   0  0  0  0  0  0  0  0  0  0  0  0
  1  2  1  0
  2  3  2  0
  3  4  1  0
  4  5  1  0
  4  6  2  0
  6  7  1  0
  7  8  2  0
  8  9  1  0
  9 10  1  0
 10 11  1  0
 10 12  2  0
 12 13  1  0
 12 14  1  0
 14 15  1  0
 15 16  1  0
 15 17  1  0
 15 18  1  0
 18 19  2  0
 19 20  1  0
 19 21  1  0
 21 22  1  0
 21 23  2  0
 23 24  1  0
 23 25  1  0
 25 26  1  0
 25 27  2  0
 27 28  1  0
 14 29  1  0
 29 30  2  0
 30 31  1  0
  6 32  1  0
 32 33  1  0
 32 34  2  0
 34 35  1  0
 34  2  1  0
 30  7  1  0
 29  9  1  0
 27 18  1  0
M  END
>  <cnnaffinity>  (1) 
-5.68222

>  <filename>  (1) 
Clc1ccc(Cn2ccn3nc(-c4cccnc4)cc23)cc1

$$$$
