
     RDKit          3D

 32 35  0  0  0  0  0  0  0  0999 V2000
    4.9375    1.8014   16.9542 H   0  0  0  0  0  0  0  0  0  0  0  0
    5.4179    1.3051   17.7910 C   0  0  0  0  0  0  0  0  0  0  0  0
    6.5803    0.6882   17.5344 N   0  0  0  0  0  0  0  0  0  0  0  0
    7.2134    0.0999   18.5535 C   0  0  0  0  0  0  0  0  0  0  0  0
    8.1490   -0.3991   18.3058 H   0  0  0  0  0  0  0  0  0  0  0  0
    6.7134    0.0863   19.8686 C   0  0  0  0  0  0  0  0  0  0  0  0
    7.4086   -0.6561   20.9315 C   0  0  0  0  0  0  0  0  0  0  0  0
    8.6321   -1.1789   20.7601 N   0  0  0  0  0  0  0  0  0  0  0  0
    8.8100   -1.8818   21.9013 N   0  0  0  0  0  0  0  0  0  0  0  0
    9.7544   -2.7955   22.3521 C   0  0  0  0  0  0  0  0  0  0  0  0
   10.7004   -2.9006   21.8525 H   0  0  0  0  0  0  0  0  0  0  0  0
    9.1997   -3.4006   23.4310 C   0  0  0  0  0  0  0  0  0  0  0  0
    9.5486   -4.2372   24.0220 H   0  0  0  0  0  0  0  0  0  0  0  0
    7.9663   -2.8007   23.7157 N   0  0  0  0  0  0  0  0  0  0  0  0
    6.9865   -3.1680   24.6701 C   0  0  0  0  0  0  0  0  0  0  0  0
    6.5068   -4.4882   24.6710 C   0  0  0  0  0  0  0  0  0  0  0  0
    6.9405   -5.1884   23.9636 H   0  0  0  0  0  0  0  0  0  0  0  0
    5.4573   -4.8641   25.5016 C   0  0  0  0  0  0  0  0  0  0  0  0
    5.0782   -5.8826   25.4609 H   0  0  0  0  0  0  0  0  0  0  0  0
    4.8723   -3.9280   26.3549 C   0  0  0  0  0  0  0  0  0  0  0  0
    4.0414   -4.1991   26.9956 H   0  0  0  0  0  0  0  0  0  0  0  0
    5.3390   -2.6089   26.3754 C   0  0  0  0  0  0  0  0  0  0  0  0
    4.5409   -1.4874   27.4343 Cl  0  0  0  0  0  0  0  0  0  0  0  0
    6.3927   -2.2113   25.5333 C   0  0  0  0  0  0  0  0  0  0  0  0
    6.9138   -0.5581   25.5255 Cl  0  0  0  0  0  0  0  0  0  0  0  0
    7.7525   -1.8405   22.7385 C   0  0  0  0  0  0  0  0  0  0  0  0
    6.8303   -0.9762   22.1797 C   0  0  0  0  0  0  0  0  0  0  0  0
    5.9439   -0.5338   22.5875 H   0  0  0  0  0  0  0  0  0  0  0  0
    5.4781    0.7115   20.1079 C   0  0  0  0  0  0  0  0  0  0  0  0
    5.0273    0.7081   21.1002 H   0  0  0  0  0  0  0  0  0  0  0  0
    4.8207    1.3306   19.0540 C   0  0  0  0  0  0  0  0  0  0  0  0
    3.8736    1.8349   19.2039 H   0  0  0  0  0  0  0  0  0  0  0  0
  1  2  1  0
  2  3  2  0
  3  4  1  0
  4  5  1  0
  4  6  2  0
  6  7  1  0
  7  8  2  0
  8  9  1  0
  9 10  1  0
 10 11  1  0
 10 12  2  0
 12 13  1  0
 12 14  1  0
 14 15  1  0
 15 16  2  0
 16 17  1  0
 16 18  1  0
 18 19  1  0
 18 20  2  0
 20 21  1  0
 20 22  1  0
 22 23  1  0
 22 24  2  0
 24 25  1  0
 14 26  1  0
 26 27  2  0
 27 28  1  0
  6 29  1  0
 29 30  1  0
 29 31  2  0
 31 32  1  0
 31  2  1  0
 27  7  1  0
 26  9  1  0
 24 15  1  0
M  END
>  <cnnaffinity>  (1) 
-6.05044

>  <filename>  (1) 
Clc1cccc(-n2ccn3nc(-c4cccnc4)cc23)c1Cl

$$$$
