
     RDKit          3D

 40 44  0  0  0  0  0  0  0  0999 V2000
   13.6287    1.2692   24.0489 Cl  0  0  0  0  0  0  0  0  0  0  0  0
   12.3574    0.9570   22.9177 C   0  0  0  0  0  0  0  0  0  0  0  0
   12.3951   -0.2402   22.1993 C   0  0  0  0  0  0  0  0  0  0  0  0
   11.3446   -0.4883   21.3248 C   0  0  0  0  0  0  0  0  0  0  0  0
   10.3139    0.4532   21.1868 C   0  0  0  0  0  0  0  0  0  0  0  0
    9.1134    0.1415   20.3154 C   0  0  0  0  0  0  0  0  0  0  0  0
    8.0677   -0.6876   21.0140 C   0  0  0  0  0  0  0  0  0  0  0  0
    8.2745   -1.4564   22.0537 N   0  0  0  0  0  0  0  0  0  0  0  0
    7.0782   -2.0587   22.2595 C   0  0  0  0  0  0  0  0  0  0  0  0
    7.0356   -3.0319   23.3658 C   0  0  0  0  0  0  0  0  0  0  0  0
    5.8128   -3.7735   23.8696 C   0  0  0  0  0  0  0  0  0  0  0  0
    6.8785   -4.4976   23.0838 C   0  0  0  0  0  0  0  0  0  0  0  0
    7.0450   -5.2831   21.8402 C   0  0  0  0  0  0  0  0  0  0  0  0
    7.8954   -5.5758   23.0833 C   0  0  0  0  0  0  0  0  0  0  0  0
    7.7091   -6.4858   23.6434 H   0  0  0  0  0  0  0  0  0  0  0  0
    8.9393   -5.2521   23.0803 H   0  0  0  0  0  0  0  0  0  0  0  0
    6.2681   -6.0005   21.5822 H   0  0  0  0  0  0  0  0  0  0  0  0
    7.4744   -4.7189   21.0117 H   0  0  0  0  0  0  0  0  0  0  0  0
    5.7915   -3.9811   24.9380 H   0  0  0  0  0  0  0  0  0  0  0  0
    4.8510   -3.5800   23.3940 H   0  0  0  0  0  0  0  0  0  0  0  0
    7.8166   -2.8126   24.0972 H   0  0  0  0  0  0  0  0  0  0  0  0
    6.1269   -1.7016   21.4123 N   0  0  0  0  0  0  0  0  0  0  0  0
    6.7694   -0.8178   20.5956 N   0  0  0  0  0  0  0  0  0  0  0  0
    6.1018   -0.1081   19.5525 C   0  0  0  0  0  0  0  0  0  0  0  0
    5.0050    0.7242   19.8069 C   0  0  0  0  0  0  0  0  0  0  0  0
    4.5197    1.5127   18.7570 C   0  0  0  0  0  0  0  0  0  0  0  0
    5.1364    1.4315   17.5025 C   0  0  0  0  0  0  0  0  0  0  0  0
    6.1443    0.5908   17.2336 N   0  0  0  0  0  0  0  0  0  0  0  0
    6.5982   -0.1652   18.2372 C   0  0  0  0  0  0  0  0  0  0  0  0
    7.4262   -0.8317   18.0122 H   0  0  0  0  0  0  0  0  0  0  0  0
    4.8163    2.0601   16.6779 H   0  0  0  0  0  0  0  0  0  0  0  0
    3.6849    2.1927   18.8910 H   0  0  0  0  0  0  0  0  0  0  0  0
    4.5538    0.7556   20.7984 H   0  0  0  0  0  0  0  0  0  0  0  0
    9.4487   -0.4321   19.4391 H   0  0  0  0  0  0  0  0  0  0  0  0
    8.6401    1.0559   19.9455 H   0  0  0  0  0  0  0  0  0  0  0  0
   10.3997    1.6084   21.9718 C   0  0  0  0  0  0  0  0  0  0  0  0
   11.4032    1.8658   22.8229 N   0  0  0  0  0  0  0  0  0  0  0  0
    9.6140    2.3629   21.9405 H   0  0  0  0  0  0  0  0  0  0  0  0
   11.2836   -1.4342   20.7898 H   0  0  0  0  0  0  0  0  0  0  0  0
   13.2087   -0.9346   22.3586 H   0  0  0  0  0  0  0  0  0  0  0  0
  1  2  1  0
  2  3  2  0
  3  4  1  0
  4  5  2  0
  5  6  1  0
  6  7  1  0
  7  8  2  0
  8  9  1  0
  9 10  1  0
 10 11  1  0
 11 12  1  0
 12 13  1  0
 13 14  1  0
 14 15  1  0
 14 16  1  0
 13 17  1  0
 13 18  1  0
 11 19  1  0
 11 20  1  0
 10 21  1  0
  9 22  2  0
 22 23  1  0
 23 24  1  0
 24 25  2  0
 25 26  1  0
 26 27  2  0
 27 28  1  0
 28 29  2  0
 29 30  1  0
 27 31  1  0
 26 32  1  0
 25 33  1  0
  6 34  1  0
  6 35  1  0
  5 36  1  0
 36 37  2  0
 36 38  1  0
  4 39  1  0
  3 40  1  0
 37  2  1  0
 23  7  1  0
 29 24  1  0
 12 10  1  0
 14 12  1  0
M  END
>  <cnnaffinity>  (1) 
-6.44658

>  <filename>  (1) 
Clc1ccc(Cc2nc(C3CC34CC4)nn2-c2cccnc2)cn1

$$$$
