
     RDKit          3D

 38 41  0  0  0  0  0  0  0  0999 V2000
    2.8924    2.8059   25.3232 Cl  0  0  0  0  0  0  0  0  0  0  0  0
    4.3059    1.9966   24.7739 C   0  0  0  0  0  0  0  0  0  0  0  0
    4.8832    0.8826   25.3091 C   0  0  0  0  0  0  0  0  0  0  0  0
    6.0676    0.5090   24.6001 C   0  0  0  0  0  0  0  0  0  0  0  0
    6.3650    1.3473   23.5657 C   0  0  0  0  0  0  0  0  0  0  0  0
    7.5576    1.2481   22.6392 C   0  0  0  0  0  0  0  0  0  0  0  0
    7.7610   -0.1430   22.1416 C   0  0  0  0  0  0  0  0  0  0  0  0
    8.3721   -1.0865   22.8336 N   0  0  0  0  0  0  0  0  0  0  0  0
    8.3604   -2.1476   21.9861 C   0  0  0  0  0  0  0  0  0  0  0  0
    8.8242   -3.5448   22.3122 C   0  0  0  0  0  0  0  0  0  0  0  0
    7.8346   -4.3968   23.1636 C   0  0  0  0  0  0  0  0  0  0  0  0
    8.7704   -5.2774   24.0141 C   0  0  0  0  0  0  0  0  0  0  0  0
   10.0132   -4.3922   24.1648 C   0  0  0  0  0  0  0  0  0  0  0  0
   10.0692   -3.5817   22.9969 O   0  0  0  0  0  0  0  0  0  0  0  0
   10.9620   -4.9385   24.2293 H   0  0  0  0  0  0  0  0  0  0  0  0
    9.9595   -3.7554   25.0589 H   0  0  0  0  0  0  0  0  0  0  0  0
    9.0159   -6.2078   23.4899 H   0  0  0  0  0  0  0  0  0  0  0  0
    8.3489   -5.5676   24.9852 H   0  0  0  0  0  0  0  0  0  0  0  0
    7.1451   -4.9627   22.5244 H   0  0  0  0  0  0  0  0  0  0  0  0
    7.2215   -3.7459   23.8013 H   0  0  0  0  0  0  0  0  0  0  0  0
    8.9333   -3.9788   21.3109 H   0  0  0  0  0  0  0  0  0  0  0  0
    7.7850   -1.9076   20.8192 N   0  0  0  0  0  0  0  0  0  0  0  0
    7.3748   -0.6238   20.9316 N   0  0  0  0  0  0  0  0  0  0  0  0
    6.6434    0.0126   19.8923 C   0  0  0  0  0  0  0  0  0  0  0  0
    5.4319    0.6596   20.1486 C   0  0  0  0  0  0  0  0  0  0  0  0
    4.7940    1.3136   19.0899 C   0  0  0  0  0  0  0  0  0  0  0  0
    5.3987    1.2915   17.8272 C   0  0  0  0  0  0  0  0  0  0  0  0
    6.5532    0.6496   17.5732 N   0  0  0  0  0  0  0  0  0  0  0  0
    7.1548    0.0184   18.5840 C   0  0  0  0  0  0  0  0  0  0  0  0
    8.0977   -0.4800   18.3689 H   0  0  0  0  0  0  0  0  0  0  0  0
    4.9467    1.8096   16.9840 H   0  0  0  0  0  0  0  0  0  0  0  0
    3.8619    1.8532   19.2365 H   0  0  0  0  0  0  0  0  0  0  0  0
    5.0202    0.6652   21.1592 H   0  0  0  0  0  0  0  0  0  0  0  0
    8.4742    1.4689   23.2017 H   0  0  0  0  0  0  0  0  0  0  0  0
    7.4822    1.9503   21.8010 H   0  0  0  0  0  0  0  0  0  0  0  0
    5.1892    2.6033   23.4167 S   0  0  0  0  0  0  0  0  0  0  0  0
    6.6909   -0.3610   24.8026 H   0  0  0  0  0  0  0  0  0  0  0  0
    4.4738    0.3674   26.1693 H   0  0  0  0  0  0  0  0  0  0  0  0
  1  2  1  0
  2  3  2  0
  3  4  1  0
  4  5  2  0
  5  6  1  0
  6  7  1  0
  7  8  2  0
  8  9  1  0
  9 10  1  0
 10 11  1  0
 11 12  1  0
 12 13  1  0
 13 14  1  0
 13 15  1  0
 13 16  1  0
 12 17  1  0
 12 18  1  0
 11 19  1  0
 11 20  1  0
 10 21  1  0
  9 22  2  0
 22 23  1  0
 23 24  1  0
 24 25  2  0
 25 26  1  0
 26 27  2  0
 27 28  1  0
 28 29  2  0
 29 30  1  0
 27 31  1  0
 26 32  1  0
 25 33  1  0
  6 34  1  0
  6 35  1  0
  5 36  1  0
  4 37  1  0
  3 38  1  0
 36  2  1  0
 23  7  1  0
 29 24  1  0
 14 10  1  0
M  END
>  <cnnaffinity>  (1) 
-5.99961

>  <filename>  (1) 
Clc1ccc(Cc2nc(C3CCCO3)nn2-c2cccnc2)s1

$$$$
