
     RDKit          3D

 40 43  0  0  0  0  0  0  0  0999 V2000
   15.9871   -0.4057   19.6579 Cl  0  0  0  0  0  0  0  0  0  0  0  0
   14.5873   -0.8022   20.7714 C   0  0  0  0  0  0  0  0  0  0  0  0
   13.7240   -1.8620   20.5203 C   0  0  0  0  0  0  0  0  0  0  0  0
   12.4210   -1.6800   20.9828 C   0  0  0  0  0  0  0  0  0  0  0  0
   12.0561   -0.5276   21.6984 C   0  0  0  0  0  0  0  0  0  0  0  0
   10.6442   -0.1157   21.7555 C   0  0  0  0  0  0  0  0  0  0  0  0
    9.6831   -0.8885   21.2725 N   0  0  0  0  0  0  0  0  0  0  0  0
    8.5596   -0.1671   21.4738 N   0  0  0  0  0  0  0  0  0  0  0  0
    7.2578   -0.6982   21.0615 C   0  0  0  0  0  0  0  0  0  0  0  0
    6.5646    0.0635   19.9439 C   0  0  0  0  0  0  0  0  0  0  0  0
    5.3314    0.7103   20.1053 C   0  0  0  0  0  0  0  0  0  0  0  0
    4.7566    1.3603   19.0084 C   0  0  0  0  0  0  0  0  0  0  0  0
    5.4359    1.3370   17.7865 C   0  0  0  0  0  0  0  0  0  0  0  0
    6.6100    0.7124   17.6052 N   0  0  0  0  0  0  0  0  0  0  0  0
    7.1492    0.0984   18.6652 C   0  0  0  0  0  0  0  0  0  0  0  0
    8.0891   -0.4219   18.4844 H   0  0  0  0  0  0  0  0  0  0  0  0
    5.0226    1.8428   16.9157 H   0  0  0  0  0  0  0  0  0  0  0  0
    3.8115    1.8871   19.0869 H   0  0  0  0  0  0  0  0  0  0  0  0
    4.8143    0.6972   21.0697 H   0  0  0  0  0  0  0  0  0  0  0  0
    6.6023   -0.7544   21.9373 H   0  0  0  0  0  0  0  0  0  0  0  0
    7.4605   -1.7296   20.7572 H   0  0  0  0  0  0  0  0  0  0  0  0
    8.8833    0.9910   22.0874 C   0  0  0  0  0  0  0  0  0  0  0  0
    7.8315    1.8428   22.7526 C   0  0  0  0  0  0  0  0  0  0  0  0
    7.4445    1.2315   24.0895 C   0  0  0  0  0  0  0  0  0  0  0  0
    8.3595    1.0261   25.0885 C   0  0  0  0  0  0  0  0  0  0  0  0
    7.7623    0.3155   26.0890 N   0  0  0  0  0  0  0  0  0  0  0  0
    6.4611    0.0509   25.7487 C   0  0  0  0  0  0  0  0  0  0  0  0
    6.2327    0.6179   24.5148 C   0  0  0  0  0  0  0  0  0  0  0  0
    5.2951    0.5892   23.9700 H   0  0  0  0  0  0  0  0  0  0  0  0
    5.8204   -0.5349   26.3965 H   0  0  0  0  0  0  0  0  0  0  0  0
    8.2371   -0.0040   26.9192 H   0  0  0  0  0  0  0  0  0  0  0  0
    9.4044    1.3038   25.0943 H   0  0  0  0  0  0  0  0  0  0  0  0
    8.2426    2.8512   22.8792 H   0  0  0  0  0  0  0  0  0  0  0  0
    6.9522    1.9260   22.1045 H   0  0  0  0  0  0  0  0  0  0  0  0
   10.2007    1.0708   22.2454 N   0  0  0  0  0  0  0  0  0  0  0  0
   13.1087    0.2631   22.1770 C   0  0  0  0  0  0  0  0  0  0  0  0
   14.3553    0.1167   21.7074 N   0  0  0  0  0  0  0  0  0  0  0  0
   12.9733    1.0605   22.9055 H   0  0  0  0  0  0  0  0  0  0  0  0
   11.6058   -2.3487   20.7630 H   0  0  0  0  0  0  0  0  0  0  0  0
   14.0419   -2.7114   19.9302 H   0  0  0  0  0  0  0  0  0  0  0  0
  1  2  1  0
  2  3  2  0
  3  4  1  0
  4  5  2  0
  5  6  1  0
  6  7  2  0
  7  8  1  0
  8  9  1  0
  9 10  1  0
 10 11  2  0
 11 12  1  0
 12 13  2  0
 13 14  1  0
 14 15  2  0
 15 16  1  0
 13 17  1  0
 12 18  1  0
 11 19  1  0
  9 20  1  0
  9 21  1  0
  8 22  1  0
 22 23  1  0
 23 24  1  0
 24 25  2  0
 25 26  1  0
 26 27  1  0
 27 28  2  0
 28 29  1  0
 27 30  1  0
 26 31  1  0
 25 32  1  0
 23 33  1  0
 23 34  1  0
 22 35  2  0
  5 36  1  0
 36 37  2  0
 36 38  1  0
  4 39  1  0
  3 40  1  0
 37  2  1  0
 35  6  1  0
 15 10  1  0
 28 24  1  0
M  END
>  <cnnaffinity>  (1) 
-6.41962

>  <filename>  (1) 
Clc1ccc(-c2nc(Cc3cc[nH]c3)n(Cc3cccnc3)n2)cn1

$$$$
