
     RDKit          3D

 41 44  0  0  0  0  0  0  0  0999 V2000
    9.5122    2.2549   21.0066 Cl  0  0  0  0  0  0  0  0  0  0  0  0
    9.6117    2.1372   22.7266 C   0  0  0  0  0  0  0  0  0  0  0  0
   10.8458    2.3856   23.3341 C   0  0  0  0  0  0  0  0  0  0  0  0
   10.9734    2.1938   24.7086 C   0  0  0  0  0  0  0  0  0  0  0  0
    9.8685    1.8053   25.4703 C   0  0  0  0  0  0  0  0  0  0  0  0
    8.6290    1.6136   24.8518 C   0  0  0  0  0  0  0  0  0  0  0  0
    8.4835    1.7385   23.4637 C   0  0  0  0  0  0  0  0  0  0  0  0
    7.2147    1.2279   22.7912 C   0  0  0  0  0  0  0  0  0  0  0  0
    7.4261   -0.1679   22.2509 C   0  0  0  0  0  0  0  0  0  0  0  0
    7.9383   -1.1691   22.9530 N   0  0  0  0  0  0  0  0  0  0  0  0
    8.1547   -2.1365   22.0247 C   0  0  0  0  0  0  0  0  0  0  0  0
    8.7559   -3.5060   22.2910 C   0  0  0  0  0  0  0  0  0  0  0  0
    7.9326   -4.4692   23.1850 C   0  0  0  0  0  0  0  0  0  0  0  0
    8.5476   -4.2372   24.5644 C   0  0  0  0  0  0  0  0  0  0  0  0
   10.0172   -3.9995   24.2274 C   0  0  0  0  0  0  0  0  0  0  0  0
   10.0392   -3.4371   22.9168 O   0  0  0  0  0  0  0  0  0  0  0  0
   10.5197   -3.3114   24.9161 H   0  0  0  0  0  0  0  0  0  0  0  0
   10.5961   -4.9318   24.2472 H   0  0  0  0  0  0  0  0  0  0  0  0
    8.1242   -3.3280   25.0029 H   0  0  0  0  0  0  0  0  0  0  0  0
    8.4003   -5.0785   25.2535 H   0  0  0  0  0  0  0  0  0  0  0  0
    8.1206   -5.5040   22.8588 H   0  0  0  0  0  0  0  0  0  0  0  0
    6.8522   -4.2839   23.1442 H   0  0  0  0  0  0  0  0  0  0  0  0
    8.8558   -3.9119   21.2814 H   0  0  0  0  0  0  0  0  0  0  0  0
    7.7694   -1.8094   20.8028 N   0  0  0  0  0  0  0  0  0  0  0  0
    7.2629   -0.5638   20.9496 N   0  0  0  0  0  0  0  0  0  0  0  0
    6.5852    0.0632   19.8698 C   0  0  0  0  0  0  0  0  0  0  0  0
    5.3630    0.7117   20.0694 C   0  0  0  0  0  0  0  0  0  0  0  0
    4.7761    1.3554   18.9785 C   0  0  0  0  0  0  0  0  0  0  0  0
    5.4234    1.3175   17.7407 C   0  0  0  0  0  0  0  0  0  0  0  0
    6.5708    0.6497   17.5322 N   0  0  0  0  0  0  0  0  0  0  0  0
    7.1277    0.0201   18.5719 C   0  0  0  0  0  0  0  0  0  0  0  0
    8.0416   -0.5354   18.3764 H   0  0  0  0  0  0  0  0  0  0  0  0
    4.9964    1.8307   16.8821 H   0  0  0  0  0  0  0  0  0  0  0  0
    3.8338    1.8801   19.0826 H   0  0  0  0  0  0  0  0  0  0  0  0
    4.8798    0.7018   21.0477 H   0  0  0  0  0  0  0  0  0  0  0  0
    6.9319    1.9115   21.9837 H   0  0  0  0  0  0  0  0  0  0  0  0
    6.3961    1.1970   23.5222 H   0  0  0  0  0  0  0  0  0  0  0  0
    7.7591    1.3305   25.4429 H   0  0  0  0  0  0  0  0  0  0  0  0
    9.9879    1.6004   26.5257 H   0  0  0  0  0  0  0  0  0  0  0  0
   11.9543    2.3244   25.1584 H   0  0  0  0  0  0  0  0  0  0  0  0
   11.6968    2.6934   22.7325 H   0  0  0  0  0  0  0  0  0  0  0  0
  1  2  1  0
  2  3  2  0
  3  4  1  0
  4  5  2  0
  5  6  1  0
  6  7  2  0
  7  8  1  0
  8  9  1  0
  9 10  2  0
 10 11  1  0
 11 12  1  0
 12 13  1  0
 13 14  1  0
 14 15  1  0
 15 16  1  0
 15 17  1  0
 15 18  1  0
 14 19  1  0
 14 20  1  0
 13 21  1  0
 13 22  1  0
 12 23  1  0
 11 24  2  0
 24 25  1  0
 25 26  1  0
 26 27  2  0
 27 28  1  0
 28 29  2  0
 29 30  1  0
 30 31  2  0
 31 32  1  0
 29 33  1  0
 28 34  1  0
 27 35  1  0
  8 36  1  0
  8 37  1  0
  6 38  1  0
  5 39  1  0
  4 40  1  0
  3 41  1  0
  7  2  1  0
 25  9  1  0
 31 26  1  0
 16 12  1  0
M  END
>  <cnnaffinity>  (1) 
-6.44058

>  <filename>  (1) 
Clc1ccccc1Cc1nc(C2CCCO2)nn1-c1cccnc1

$$$$
