
     RDKit          3D

 35 37  0  0  0  0  0  0  0  0999 V2000
    4.9081    1.7890   16.9866 H   0  0  0  0  0  0  0  0  0  0  0  0
    5.3929    1.2991   17.8255 C   0  0  0  0  0  0  0  0  0  0  0  0
    6.5599    0.6860   17.5619 N   0  0  0  0  0  0  0  0  0  0  0  0
    7.1679    0.0625   18.5822 C   0  0  0  0  0  0  0  0  0  0  0  0
    8.1189   -0.4275   18.3685 H   0  0  0  0  0  0  0  0  0  0  0  0
    6.6641    0.0176   19.9050 C   0  0  0  0  0  0  0  0  0  0  0  0
    7.2912   -0.6596   20.9619 N   0  0  0  0  0  0  0  0  0  0  0  0
    7.9094   -1.9533   20.7459 C   0  0  0  0  0  0  0  0  0  0  0  0
    7.3283   -2.3753   19.9326 H   0  0  0  0  0  0  0  0  0  0  0  0
    8.9852   -1.8941   20.4810 H   0  0  0  0  0  0  0  0  0  0  0  0
    7.7293   -2.8584   21.9666 C   0  0  0  0  0  0  0  0  0  0  0  0
    6.6689   -3.1632   22.0169 H   0  0  0  0  0  0  0  0  0  0  0  0
    8.3162   -3.7735   21.8307 H   0  0  0  0  0  0  0  0  0  0  0  0
    8.1757   -2.1503   23.1610 N   0  0  0  0  0  0  0  0  0  0  0  0
    8.6999   -2.8780   24.2380 C   0  0  0  0  0  0  0  0  0  0  0  0
    7.9402   -3.1386   25.3913 C   0  0  0  0  0  0  0  0  0  0  0  0
    6.9207   -2.7626   25.4165 H   0  0  0  0  0  0  0  0  0  0  0  0
    8.4804   -3.8556   26.4591 C   0  0  0  0  0  0  0  0  0  0  0  0
    7.8781   -4.0443   27.3423 H   0  0  0  0  0  0  0  0  0  0  0  0
    9.7951   -4.3252   26.3889 C   0  0  0  0  0  0  0  0  0  0  0  0
   10.2245   -4.8798   27.2176 H   0  0  0  0  0  0  0  0  0  0  0  0
   10.5687   -4.0816   25.2517 C   0  0  0  0  0  0  0  0  0  0  0  0
   11.5894   -4.4401   25.1731 H   0  0  0  0  0  0  0  0  0  0  0  0
   10.0276   -3.3574   24.1905 C   0  0  0  0  0  0  0  0  0  0  0  0
   11.0321   -2.9840   22.8189 Cl  0  0  0  0  0  0  0  0  0  0  0  0
    7.5427   -0.8541   23.3749 C   0  0  0  0  0  0  0  0  0  0  0  0
    6.4587   -0.9357   23.5747 H   0  0  0  0  0  0  0  0  0  0  0  0
    8.0109   -0.3789   24.2391 H   0  0  0  0  0  0  0  0  0  0  0  0
    7.7538    0.0398   22.1461 C   0  0  0  0  0  0  0  0  0  0  0  0
    7.1886    0.9685   22.2526 H   0  0  0  0  0  0  0  0  0  0  0  0
    8.8207    0.3140   22.0632 H   0  0  0  0  0  0  0  0  0  0  0  0
    5.4437    0.6686   20.1521 C   0  0  0  0  0  0  0  0  0  0  0  0
    5.0279    0.6241   21.1597 H   0  0  0  0  0  0  0  0  0  0  0  0
    4.8026    1.3149   19.0949 C   0  0  0  0  0  0  0  0  0  0  0  0
    3.8721    1.8445   19.2580 H   0  0  0  0  0  0  0  0  0  0  0  0
  1  2  1  0
  2  3  2  0
  3  4  1  0
  4  5  1  0
  4  6  2  0
  6  7  1  0
  7  8  1  0
  8  9  1  0
  8 10  1  0
  8 11  1  0
 11 12  1  0
 11 13  1  0
 11 14  1  0
 14 15  1  0
 15 16  2  0
 16 17  1  0
 16 18  1  0
 18 19  1  0
 18 20  2  0
 20 21  1  0
 20 22  1  0
 22 23  1  0
 22 24  2  0
 24 25  1  0
 14 26  1  0
 26 27  1  0
 26 28  1  0
 26 29  1  0
 29 30  1  0
 29 31  1  0
  6 32  1  0
 32 33  1  0
 32 34  2  0
 34 35  1  0
 34  2  1  0
 29  7  1  0
 24 15  1  0
M  END
>  <cnnaffinity>  (1) 
-5.22092

>  <filename>  (1) 
Clc1ccccc1N1CCN(c2cccnc2)CC1

$$$$
