
     RDKit          3D

 29 31  0  0  0  0  0  0  0  0999 V2000
    5.1588    1.7460   16.9279 H   0  0  0  0  0  0  0  0  0  0  0  0
    5.5597    1.2263   17.7946 C   0  0  0  0  0  0  0  0  0  0  0  0
    6.7077    0.5584   17.6025 N   0  0  0  0  0  0  0  0  0  0  0  0
    7.2358   -0.0801   18.6503 C   0  0  0  0  0  0  0  0  0  0  0  0
    8.1649   -0.6253   18.4843 H   0  0  0  0  0  0  0  0  0  0  0  0
    6.6536   -0.0719   19.9269 C   0  0  0  0  0  0  0  0  0  0  0  0
    7.3287   -0.7195   21.0421 C   0  0  0  0  0  0  0  0  0  0  0  0
    8.4012   -1.4924   20.8672 N   0  0  0  0  0  0  0  0  0  0  0  0
    8.7331   -1.8525   22.0962 N   0  0  0  0  0  0  0  0  0  0  0  0
    9.8006   -2.6914   22.2293 O   0  0  0  0  0  0  0  0  0  0  0  0
    9.7341   -3.6315   23.2606 C   0  0  0  0  0  0  0  0  0  0  0  0
   10.9220   -3.9102   23.9431 C   0  0  0  0  0  0  0  0  0  0  0  0
   11.8223   -3.3947   23.6432 H   0  0  0  0  0  0  0  0  0  0  0  0
   10.9285   -4.8897   24.9328 C   0  0  0  0  0  0  0  0  0  0  0  0
   11.8635   -5.1524   25.4206 H   0  0  0  0  0  0  0  0  0  0  0  0
    9.7399   -5.5353   25.2915 C   0  0  0  0  0  0  0  0  0  0  0  0
    9.7234   -6.2686   26.0874 H   0  0  0  0  0  0  0  0  0  0  0  0
    8.5593   -5.1965   24.6184 C   0  0  0  0  0  0  0  0  0  0  0  0
    7.0309   -5.8106   25.1627 Cl  0  0  0  0  0  0  0  0  0  0  0  0
    8.5419   -4.2963   23.5569 C   0  0  0  0  0  0  0  0  0  0  0  0
    7.6238   -4.0664   23.0176 H   0  0  0  0  0  0  0  0  0  0  0  0
    7.9743   -1.3015   23.0702 C   0  0  0  0  0  0  0  0  0  0  0  0
    8.1857   -1.4873   24.1135 H   0  0  0  0  0  0  0  0  0  0  0  0
    7.0091   -0.5865   22.4103 C   0  0  0  0  0  0  0  0  0  0  0  0
    6.1872   -0.0544   22.8634 H   0  0  0  0  0  0  0  0  0  0  0  0
    5.4427    0.6104   20.1071 C   0  0  0  0  0  0  0  0  0  0  0  0
    4.9604    0.6235   21.0851 H   0  0  0  0  0  0  0  0  0  0  0  0
    4.8866    1.2700   19.0202 C   0  0  0  0  0  0  0  0  0  0  0  0
    3.9618    1.8245   19.1159 H   0  0  0  0  0  0  0  0  0  0  0  0
  1  2  1  0
  2  3  2  0
  3  4  1  0
  4  5  1  0
  4  6  2  0
  6  7  1  0
  7  8  2  0
  8  9  1  0
  9 10  1  0
 10 11  1  0
 11 12  2  0
 12 13  1  0
 12 14  1  0
 14 15  1  0
 14 16  2  0
 16 17  1  0
 16 18  1  0
 18 19  1  0
 18 20  2  0
 20 21  1  0
  9 22  1  0
 22 23  1  0
 22 24  2  0
 24 25  1  0
  6 26  1  0
 26 27  1  0
 26 28  2  0
 28 29  1  0
 28  2  1  0
 24  7  1  0
 20 11  1  0
M  END
>  <cnnaffinity>  (1) 
-5.29576

>  <filename>  (1) 
Clc1cccc(On2ccc(-c3cccnc3)n2)c1

$$$$
