
     RDKit          3D

 39 41  0  0  0  0  0  0  0  0999 V2000
    6.5648   -2.0590   26.6132 Cl  0  0  0  0  0  0  0  0  0  0  0  0
    7.6368   -3.3709   26.1854 C   0  0  0  0  0  0  0  0  0  0  0  0
    7.3686   -4.6225   26.7443 C   0  0  0  0  0  0  0  0  0  0  0  0
    8.1902   -5.7037   26.4208 C   0  0  0  0  0  0  0  0  0  0  0  0
    9.2638   -5.5336   25.5399 C   0  0  0  0  0  0  0  0  0  0  0  0
    9.5125   -4.2782   24.9853 C   0  0  0  0  0  0  0  0  0  0  0  0
    8.7178   -3.1662   25.3091 C   0  0  0  0  0  0  0  0  0  0  0  0
    9.0556   -1.8294   24.6962 C   0  0  0  0  0  0  0  0  0  0  0  0
    8.6402   -1.7906   23.2588 N   0  0  0  0  0  4  0  0  0  0  0  0
    7.0886   -1.8131   23.0978 C   0  0  0  0  0  0  0  0  0  0  0  0
    6.7078   -1.7630   21.6215 C   0  0  0  0  0  0  0  0  0  0  0  0
    7.3191   -0.5932   20.9814 N   0  0  0  0  0  0  0  0  0  0  0  0
    6.6598    0.0162   19.8988 C   0  0  0  0  0  0  0  0  0  0  0  0
    5.4250    0.6435   20.1391 C   0  0  0  0  0  0  0  0  0  0  0  0
    4.7998    1.3152   19.0876 C   0  0  0  0  0  0  0  0  0  0  0  0
    5.3893    1.3047   17.8181 C   0  0  0  0  0  0  0  0  0  0  0  0
    6.5526    0.6842   17.5536 N   0  0  0  0  0  0  0  0  0  0  0  0
    7.1688    0.0745   18.5781 C   0  0  0  0  0  0  0  0  0  0  0  0
    8.1181   -0.4157   18.3628 H   0  0  0  0  0  0  0  0  0  0  0  0
    4.9104    1.7991   16.9789 H   0  0  0  0  0  0  0  0  0  0  0  0
    3.8722    1.8434   19.2519 H   0  0  0  0  0  0  0  0  0  0  0  0
    5.0305    0.6187   21.1562 H   0  0  0  0  0  0  0  0  0  0  0  0
    8.7750   -0.5318   21.0852 C   0  0  0  0  0  0  0  0  0  0  0  0
    9.1933   -0.5665   22.5518 C   0  0  0  0  0  0  0  0  0  0  0  0
    8.7840    0.3241   23.0413 H   0  0  0  0  0  0  0  0  0  0  0  0
   10.2835   -0.5308   22.6408 H   0  0  0  0  0  0  0  0  0  0  0  0
    9.3027   -1.3464   20.5528 H   0  0  0  0  0  0  0  0  0  0  0  0
    9.0995    0.4159   20.6495 H   0  0  0  0  0  0  0  0  0  0  0  0
    6.9969   -2.7201   21.1433 H   0  0  0  0  0  0  0  0  0  0  0  0
    5.6204   -1.6893   21.5306 H   0  0  0  0  0  0  0  0  0  0  0  0
    6.6887   -2.7021   23.5843 H   0  0  0  0  0  0  0  0  0  0  0  0
    6.6798   -0.9300   23.5960 H   0  0  0  0  0  0  0  0  0  0  0  0
    9.0145   -2.6727   22.8227 H   0  0  0  0  0  0  0  0  0  0  0  0
   10.1374   -1.6602   24.7504 H   0  0  0  0  0  0  0  0  0  0  0  0
    8.5602   -1.0173   25.2313 H   0  0  0  0  0  0  0  0  0  0  0  0
   10.3409   -4.1299   24.2932 H   0  0  0  0  0  0  0  0  0  0  0  0
    9.9108   -6.3706   25.2905 H   0  0  0  0  0  0  0  0  0  0  0  0
    7.9908   -6.6746   26.8635 H   0  0  0  0  0  0  0  0  0  0  0  0
    6.5265   -4.7224   27.4248 H   0  0  0  0  0  0  0  0  0  0  0  0
  1  2  1  0
  2  3  2  0
  3  4  1  0
  4  5  2  0
  5  6  1  0
  6  7  2  0
  7  8  1  0
  8  9  1  0
  9 10  1  0
 10 11  1  0
 11 12  1  0
 12 13  1  0
 13 14  2  0
 14 15  1  0
 15 16  2  0
 16 17  1  0
 17 18  2  0
 18 19  1  0
 16 20  1  0
 15 21  1  0
 14 22  1  0
 12 23  1  0
 23 24  1  0
 24 25  1  0
 24 26  1  0
 23 27  1  0
 23 28  1  0
 11 29  1  0
 11 30  1  0
 10 31  1  0
 10 32  1  0
  9 33  1  0
  8 34  1  0
  8 35  1  0
  6 36  1  0
  5 37  1  0
  4 38  1  0
  3 39  1  0
  7  2  1  0
 24  9  1  0
 18 13  1  0
M  CHG  1   9   1
M  END
>  <cnnaffinity>  (1) 
-5.11162

>  <filename>  (1) 
Clc1ccccc1C[NH+]1CCN(c2cccnc2)CC1

$$$$
