
     RDKit          3D

 37 40  0  0  0  0  0  0  0  0999 V2000
    9.4269    2.3139   21.0055 Cl  0  0  0  0  0  0  0  0  0  0  0  0
    9.6335    2.2180   22.7175 C   0  0  0  0  0  0  0  0  0  0  0  0
   10.8622    2.6274   23.2408 C   0  0  0  0  0  0  0  0  0  0  0  0
   11.0760    2.4761   24.6070 C   0  0  0  0  0  0  0  0  0  0  0  0
   10.0655    1.9567   25.4230 C   0  0  0  0  0  0  0  0  0  0  0  0
    8.8278    1.5843   24.8882 C   0  0  0  0  0  0  0  0  0  0  0  0
    8.5961    1.7003   23.5111 C   0  0  0  0  0  0  0  0  0  0  0  0
    7.3350    1.1536   22.8572 C   0  0  0  0  0  0  0  0  0  0  0  0
    7.5973   -0.1875   22.2358 C   0  0  0  0  0  0  0  0  0  0  0  0
    8.1831   -1.1579   22.9035 N   0  0  0  0  0  0  0  0  0  0  0  0
    8.2292   -2.1733   22.0124 C   0  0  0  0  0  0  0  0  0  0  0  0
    8.8430   -3.4691   22.3693 C   0  0  0  0  0  0  0  0  0  0  0  0
    8.1716   -4.7838   22.0667 C   0  0  0  0  0  0  0  0  0  0  0  0
    8.3400   -4.3454   23.4931 C   0  0  0  0  0  0  0  0  0  0  0  0
    9.1178   -4.8316   24.0836 H   0  0  0  0  0  0  0  0  0  0  0  0
    7.4545   -4.0436   24.0525 H   0  0  0  0  0  0  0  0  0  0  0  0
    8.7664   -5.6170   21.7011 H   0  0  0  0  0  0  0  0  0  0  0  0
    7.1665   -4.7250   21.6490 H   0  0  0  0  0  0  0  0  0  0  0  0
    9.9265   -3.3785   22.3203 H   0  0  0  0  0  0  0  0  0  0  0  0
    7.7365   -1.8926   20.8187 N   0  0  0  0  0  0  0  0  0  0  0  0
    7.2894   -0.6181   20.9716 N   0  0  0  0  0  0  0  0  0  0  0  0
    6.6117    0.0351   19.8990 C   0  0  0  0  0  0  0  0  0  0  0  0
    5.4014    0.7021   20.1124 C   0  0  0  0  0  0  0  0  0  0  0  0
    4.8016    1.3409   19.0230 C   0  0  0  0  0  0  0  0  0  0  0  0
    5.4299    1.3055   17.7752 C   0  0  0  0  0  0  0  0  0  0  0  0
    6.5733    0.6333   17.5548 N   0  0  0  0  0  0  0  0  0  0  0  0
    7.1352   -0.0012   18.5908 C   0  0  0  0  0  0  0  0  0  0  0  0
    8.0472   -0.5529   18.3782 H   0  0  0  0  0  0  0  0  0  0  0  0
    4.9957    1.8299   16.9240 H   0  0  0  0  0  0  0  0  0  0  0  0
    3.8618    1.8655   19.1368 H   0  0  0  0  0  0  0  0  0  0  0  0
    4.9315    0.6978   21.0980 H   0  0  0  0  0  0  0  0  0  0  0  0
    6.9743    1.8640   22.1099 H   0  0  0  0  0  0  0  0  0  0  0  0
    6.5449    1.0171   23.6032 H   0  0  0  0  0  0  0  0  0  0  0  0
    8.0504    1.1802   25.5430 H   0  0  0  0  0  0  0  0  0  0  0  0
   10.2528    1.8175   26.4737 H   0  0  0  0  0  0  0  0  0  0  0  0
   12.0335    2.7616   25.0266 H   0  0  0  0  0  0  0  0  0  0  0  0
   11.6275    3.0357   22.5838 H   0  0  0  0  0  0  0  0  0  0  0  0
  1  2  1  0
  2  3  2  0
  3  4  1  0
  4  5  2  0
  5  6  1  0
  6  7  2  0
  7  8  1  0
  8  9  1  0
  9 10  2  0
 10 11  1  0
 11 12  1  0
 12 13  1  0
 13 14  1  0
 14 15  1  0
 14 16  1  0
 13 17  1  0
 13 18  1  0
 12 19  1  0
 11 20  2  0
 20 21  1  0
 21 22  1  0
 22 23  2  0
 23 24  1  0
 24 25  2  0
 25 26  1  0
 26 27  2  0
 27 28  1  0
 25 29  1  0
 24 30  1  0
 23 31  1  0
  8 32  1  0
  8 33  1  0
  6 34  1  0
  5 35  1  0
  4 36  1  0
  3 37  1  0
  7  2  1  0
 21  9  1  0
 27 22  1  0
 14 12  1  0
M  END
>  <cnnaffinity>  (1) 
-5.60035

>  <filename>  (1) 
Clc1ccccc1Cc1nc(C2CC2)nn1-c1cccnc1

$$$$
