
     RDKit          3D

 40 43  0  0  0  0  0  0  0  0999 V2000
   14.3471   -2.0747   21.0394 Cl  0  0  0  0  0  0  0  0  0  0  0  0
   13.4227   -0.8265   21.8122 C   0  0  0  0  0  0  0  0  0  0  0  0
   14.0876    0.1824   22.5111 C   0  0  0  0  0  0  0  0  0  0  0  0
   13.3553    1.2319   23.0737 C   0  0  0  0  0  0  0  0  0  0  0  0
   11.9762    1.2873   22.9123 C   0  0  0  0  0  0  0  0  0  0  0  0
   11.3177    0.2833   22.1754 C   0  0  0  0  0  0  0  0  0  0  0  0
    9.8607    0.3812   22.0148 C   0  0  0  0  0  0  0  0  0  0  0  0
    9.0821   -0.5798   21.5452 N   0  0  0  0  0  0  0  0  0  0  0  0
    7.8415   -0.0958   21.7707 N   0  0  0  0  0  0  0  0  0  0  0  0
    6.6511   -0.7560   21.2530 C   0  0  0  0  0  0  0  0  0  0  0  0
    6.1239   -0.0452   20.0237 C   0  0  0  0  0  0  0  0  0  0  0  0
    4.9375    0.6984   19.9931 C   0  0  0  0  0  0  0  0  0  0  0  0
    4.6342    1.4262   18.8361 C   0  0  0  0  0  0  0  0  0  0  0  0
    5.5100    1.3638   17.7496 C   0  0  0  0  0  0  0  0  0  0  0  0
    6.6447    0.6495   17.7556 N   0  0  0  0  0  0  0  0  0  0  0  0
    6.9377   -0.0171   18.8772 C   0  0  0  0  0  0  0  0  0  0  0  0
    7.8869   -0.5531   18.8867 H   0  0  0  0  0  0  0  0  0  0  0  0
    5.2972    1.9108   16.8321 H   0  0  0  0  0  0  0  0  0  0  0  0
    3.7562    2.0589   18.7761 H   0  0  0  0  0  0  0  0  0  0  0  0
    4.2617    0.7331   20.8527 H   0  0  0  0  0  0  0  0  0  0  0  0
    6.9577   -1.7853   21.0530 H   0  0  0  0  0  0  0  0  0  0  0  0
    5.9137   -0.7839   22.0580 H   0  0  0  0  0  0  0  0  0  0  0  0
    7.9356    1.1357   22.3055 C   0  0  0  0  0  0  0  0  0  0  0  0
    6.8173    1.8071   23.0276 C   0  0  0  0  0  0  0  0  0  0  0  0
    6.7102    1.2036   24.3559 N   0  0  0  0  0  0  0  0  0  0  0  0
    7.5328    1.4385   25.4128 C   0  0  0  0  0  0  0  0  0  0  0  0
    7.4017    0.3711   26.2689 C   0  0  0  0  0  0  0  0  0  0  0  0
    6.4791   -0.4847   25.6206 C   0  0  0  0  0  0  0  0  0  0  0  0
    6.1007    0.0177   24.4514 N   0  0  0  0  0  0  0  0  0  0  0  0
    6.0776   -1.4374   25.9422 H   0  0  0  0  0  0  0  0  0  0  0  0
    7.9260    0.1943   27.2000 H   0  0  0  0  0  0  0  0  0  0  0  0
    8.1657    2.3220   25.4231 H   0  0  0  0  0  0  0  0  0  0  0  0
    5.8787    1.6726   22.4951 H   0  0  0  0  0  0  0  0  0  0  0  0
    7.0443    2.8640   23.1559 H   0  0  0  0  0  0  0  0  0  0  0  0
    9.1896    1.4843   22.4445 N   0  0  0  0  0  0  0  0  0  0  0  0
   12.0423   -0.7939   21.6292 C   0  0  0  0  0  0  0  0  0  0  0  0
   11.5496   -1.5791   21.0571 H   0  0  0  0  0  0  0  0  0  0  0  0
   11.3953    2.1024   23.3465 H   0  0  0  0  0  0  0  0  0  0  0  0
   13.8596    2.0264   23.6127 H   0  0  0  0  0  0  0  0  0  0  0  0
   15.1628    0.1488   22.5869 H   0  0  0  0  0  0  0  0  0  0  0  0
  1  2  1  0
  2  3  2  0
  3  4  1  0
  4  5  2  0
  5  6  1  0
  6  7  1  0
  7  8  2  0
  8  9  1  0
  9 10  1  0
 10 11  1  0
 11 12  2  0
 12 13  1  0
 13 14  2  0
 14 15  1  0
 15 16  2  0
 16 17  1  0
 14 18  1  0
 13 19  1  0
 12 20  1  0
 10 21  1  0
 10 22  1  0
  9 23  1  0
 23 24  1  0
 24 25  1  0
 25 26  1  0
 26 27  2  0
 27 28  1  0
 28 29  2  0
 28 30  1  0
 27 31  1  0
 26 32  1  0
 24 33  1  0
 24 34  1  0
 23 35  2  0
  6 36  2  0
 36 37  1  0
  5 38  1  0
  4 39  1  0
  3 40  1  0
 36  2  1  0
 35  7  1  0
 16 11  1  0
 29 25  1  0
M  END
>  <cnnaffinity>  (1) 
-6.40952

>  <filename>  (1) 
Clc1cccc(-c2nc(Cn3cccn3)n(Cc3cccnc3)n2)c1

$$$$
