
     RDKit          3D

 40 43  0  0  0  0  0  0  0  0999 V2000
    5.1782    0.9875   24.2857 Cl  0  0  0  0  0  0  0  0  0  0  0  0
    6.7702    1.2776   24.9199 C   0  0  0  0  0  0  0  0  0  0  0  0
    6.9390    1.2750   26.3046 C   0  0  0  0  0  0  0  0  0  0  0  0
    8.2079    1.5611   26.8001 C   0  0  0  0  0  0  0  0  0  0  0  0
    9.2629    1.8182   26.0207 N   0  0  0  0  0  0  0  0  0  0  0  0
    9.0774    1.7687   24.7017 C   0  0  0  0  0  0  0  0  0  0  0  0
    7.8562    1.5034   24.0625 C   0  0  0  0  0  0  0  0  0  0  0  0
    7.7759    1.3231   22.5570 C   0  0  0  0  0  0  0  0  0  0  0  0
    7.7900   -0.1239   22.1360 C   0  0  0  0  0  0  0  0  0  0  0  0
    8.3523   -1.0964   22.8288 N   0  0  0  0  0  0  0  0  0  0  0  0
    8.2942   -2.1592   21.9951 C   0  0  0  0  0  0  0  0  0  0  0  0
    8.7363   -3.5583   22.3637 C   0  0  0  0  0  0  0  0  0  0  0  0
    7.7917   -4.3521   23.3145 C   0  0  0  0  0  0  0  0  0  0  0  0
    8.7761   -5.2246   24.1035 C   0  0  0  0  0  0  0  0  0  0  0  0
    9.9683   -4.2805   24.2264 C   0  0  0  0  0  0  0  0  0  0  0  0
   10.0162   -3.5715   22.9948 O   0  0  0  0  0  0  0  0  0  0  0  0
   10.9253   -4.7952   24.3705 H   0  0  0  0  0  0  0  0  0  0  0  0
    9.8251   -3.5588   25.0478 H   0  0  0  0  0  0  0  0  0  0  0  0
    9.0444   -6.1380   23.5511 H   0  0  0  0  0  0  0  0  0  0  0  0
    8.3943   -5.5328   25.0828 H   0  0  0  0  0  0  0  0  0  0  0  0
    7.2811   -3.6455   23.9848 H   0  0  0  0  0  0  0  0  0  0  0  0
    7.0367   -4.9331   22.7698 H   0  0  0  0  0  0  0  0  0  0  0  0
    8.7933   -4.0688   21.3975 H   0  0  0  0  0  0  0  0  0  0  0  0
    7.7494   -1.9064   20.8177 N   0  0  0  0  0  0  0  0  0  0  0  0
    7.3884   -0.6005   20.9136 N   0  0  0  0  0  0  0  0  0  0  0  0
    6.6418    0.0238   19.8759 C   0  0  0  0  0  0  0  0  0  0  0  0
    5.4204    0.6703   20.1213 C   0  0  0  0  0  0  0  0  0  0  0  0
    4.7964    1.3175   19.0464 C   0  0  0  0  0  0  0  0  0  0  0  0
    5.4034    1.2970   17.7890 C   0  0  0  0  0  0  0  0  0  0  0  0
    6.5422    0.6270   17.5384 N   0  0  0  0  0  0  0  0  0  0  0  0
    7.1290   -0.0093   18.5577 C   0  0  0  0  0  0  0  0  0  0  0  0
    8.0387   -0.5584   18.3295 H   0  0  0  0  0  0  0  0  0  0  0  0
    4.9658    1.8404   16.9518 H   0  0  0  0  0  0  0  0  0  0  0  0
    3.8635    1.8514   19.1823 H   0  0  0  0  0  0  0  0  0  0  0  0
    4.9613    0.6602   21.1128 H   0  0  0  0  0  0  0  0  0  0  0  0
    8.6273    1.8181   22.0753 H   0  0  0  0  0  0  0  0  0  0  0  0
    6.8850    1.8083   22.1575 H   0  0  0  0  0  0  0  0  0  0  0  0
    9.9695    1.9336   24.0906 H   0  0  0  0  0  0  0  0  0  0  0  0
    8.3727    1.5934   27.8773 H   0  0  0  0  0  0  0  0  0  0  0  0
    6.1207    1.0428   26.9721 H   0  0  0  0  0  0  0  0  0  0  0  0
  1  2  1  0
  2  3  2  0
  3  4  1  0
  4  5  2  0
  5  6  1  0
  6  7  2  0
  7  8  1  0
  8  9  1  0
  9 10  2  0
 10 11  1  0
 11 12  1  0
 12 13  1  0
 13 14  1  0
 14 15  1  0
 15 16  1  0
 15 17  1  0
 15 18  1  0
 14 19  1  0
 14 20  1  0
 13 21  1  0
 13 22  1  0
 12 23  1  0
 11 24  2  0
 24 25  1  0
 25 26  1  0
 26 27  2  0
 27 28  1  0
 28 29  2  0
 29 30  1  0
 30 31  2  0
 31 32  1  0
 29 33  1  0
 28 34  1  0
 27 35  1  0
  8 36  1  0
  8 37  1  0
  6 38  1  0
  4 39  1  0
  3 40  1  0
  7  2  1  0
 25  9  1  0
 31 26  1  0
 16 12  1  0
M  END
>  <cnnaffinity>  (1) 
-6.08605

>  <filename>  (1) 
Clc1ccncc1Cc1nc(C2CCCO2)nn1-c1cccnc1

$$$$
