
     RDKit          3D

 28 30  0  0  0  0  0  0  0  0999 V2000
    5.0838    1.7587   16.8762 H   0  0  0  0  0  0  0  0  0  0  0  0
    5.4965    1.2660   17.7535 C   0  0  0  0  0  0  0  0  0  0  0  0
    6.6506    0.6054   17.5710 N   0  0  0  0  0  0  0  0  0  0  0  0
    7.1935    0.0019   18.6321 C   0  0  0  0  0  0  0  0  0  0  0  0
    8.1304   -0.5286   18.4705 H   0  0  0  0  0  0  0  0  0  0  0  0
    6.6194    0.0223   19.9164 C   0  0  0  0  0  0  0  0  0  0  0  0
    7.3084   -0.6483   21.0180 C   0  0  0  0  0  0  0  0  0  0  0  0
    8.4583   -1.4177   20.8235 N   0  0  0  0  0  0  0  0  0  0  0  0
    8.7409   -1.8333   22.0080 C   0  0  0  0  0  0  0  0  0  0  0  0
    9.7601   -2.6243   22.3391 O   0  0  0  0  0  0  0  0  0  0  0  0
    9.8136   -3.3400   23.5410 C   0  0  0  0  0  0  0  0  0  0  0  0
   11.0880   -3.7580   23.9295 C   0  0  0  0  0  0  0  0  0  0  0  0
   11.9485   -3.3847   23.3882 H   0  0  0  0  0  0  0  0  0  0  0  0
   11.2253   -4.6405   25.0042 C   0  0  0  0  0  0  0  0  0  0  0  0
   12.2019   -5.0264   25.2817 H   0  0  0  0  0  0  0  0  0  0  0  0
   10.1120   -5.0670   25.7354 C   0  0  0  0  0  0  0  0  0  0  0  0
   10.2127   -5.7646   26.5605 H   0  0  0  0  0  0  0  0  0  0  0  0
    8.8638   -4.5591   25.3773 C   0  0  0  0  0  0  0  0  0  0  0  0
    7.4644   -4.9631   26.3220 Cl  0  0  0  0  0  0  0  0  0  0  0  0
    8.6891   -3.7104   24.2861 C   0  0  0  0  0  0  0  0  0  0  0  0
    7.6987   -3.3691   24.0317 H   0  0  0  0  0  0  0  0  0  0  0  0
    7.9240   -1.4033   22.9859 O   0  0  0  0  0  0  0  0  0  0  0  0
    6.9888   -0.6530   22.3319 C   0  0  0  0  0  0  0  0  0  0  0  0
    6.1802   -0.2526   22.9200 H   0  0  0  0  0  0  0  0  0  0  0  0
    5.3967    0.6981   20.0860 C   0  0  0  0  0  0  0  0  0  0  0  0
    4.8863    0.7307   21.0498 H   0  0  0  0  0  0  0  0  0  0  0  0
    4.8344    1.3312   18.9830 C   0  0  0  0  0  0  0  0  0  0  0  0
    3.9054    1.8836   19.0608 H   0  0  0  0  0  0  0  0  0  0  0  0
  1  2  1  0
  2  3  2  0
  3  4  1  0
  4  5  1  0
  4  6  2  0
  6  7  1  0
  7  8  1  0
  8  9  2  0
  9 10  1  0
 10 11  1  0
 11 12  2  0
 12 13  1  0
 12 14  1  0
 14 15  1  0
 14 16  2  0
 16 17  1  0
 16 18  1  0
 18 19  1  0
 18 20  2  0
 20 21  1  0
  9 22  1  0
 22 23  1  0
 23 24  1  0
  6 25  1  0
 25 26  1  0
 25 27  2  0
 27 28  1  0
 27  2  1  0
 23  7  2  0
 20 11  1  0
M  END
>  <cnnaffinity>  (1) 
-5.32902

>  <filename>  (1) 
Clc1cccc(Oc2nc(-c3cccnc3)co2)c1

$$$$
