
     RDKit          3D

 38 41  0  0  0  0  0  0  0  0999 V2000
    9.9974    1.5850   25.6793 Cl  0  0  0  0  0  0  0  0  0  0  0  0
   10.3964    1.9177   24.0181 C   0  0  0  0  0  0  0  0  0  0  0  0
   11.7192    2.1752   23.6599 C   0  0  0  0  0  0  0  0  0  0  0  0
   12.0481    2.4314   22.3245 C   0  0  0  0  0  0  0  0  0  0  0  0
   11.0557    2.3867   21.3439 C   0  0  0  0  0  0  0  0  0  0  0  0
    9.7237    2.1221   21.6892 C   0  0  0  0  0  0  0  0  0  0  0  0
    9.3813    1.9199   23.0370 C   0  0  0  0  0  0  0  0  0  0  0  0
    8.1036    1.7683   23.4809 O   0  0  0  0  0  0  0  0  0  0  0  0
    7.0911    1.2114   22.6548 C   0  0  0  0  0  0  0  0  0  0  0  0
    7.3571   -0.2084   22.2067 C   0  0  0  0  0  0  0  0  0  0  0  0
    7.8868   -1.1566   22.9485 N   0  0  0  0  0  0  0  0  0  0  0  0
    8.0384   -2.1857   22.0770 C   0  0  0  0  0  0  0  0  0  0  0  0
    8.7184   -3.4423   22.4733 C   0  0  0  0  0  0  0  0  0  0  0  0
    8.0625   -4.7735   22.2091 C   0  0  0  0  0  0  0  0  0  0  0  0
    8.2070   -4.2824   23.6185 C   0  0  0  0  0  0  0  0  0  0  0  0
    8.9360   -4.7651   24.2683 H   0  0  0  0  0  0  0  0  0  0  0  0
    7.3132   -3.9116   24.1145 H   0  0  0  0  0  0  0  0  0  0  0  0
    8.7009   -5.5739   21.8468 H   0  0  0  0  0  0  0  0  0  0  0  0
    7.0663   -4.7269   21.7676 H   0  0  0  0  0  0  0  0  0  0  0  0
    9.8006   -3.3359   22.3797 H   0  0  0  0  0  0  0  0  0  0  0  0
    7.6119   -1.9421   20.8484 N   0  0  0  0  0  0  0  0  0  0  0  0
    7.1278   -0.6770   20.9434 N   0  0  0  0  0  0  0  0  0  0  0  0
    6.4986   -0.0424   19.8329 C   0  0  0  0  0  0  0  0  0  0  0  0
    5.3009    0.6678   19.9750 C   0  0  0  0  0  0  0  0  0  0  0  0
    4.7975    1.3523   18.8647 C   0  0  0  0  0  0  0  0  0  0  0  0
    5.4898    1.2815   17.6530 C   0  0  0  0  0  0  0  0  0  0  0  0
    6.6129    0.5570   17.4982 N   0  0  0  0  0  0  0  0  0  0  0  0
    7.0960   -0.0938   18.5622 C   0  0  0  0  0  0  0  0  0  0  0  0
    8.0035   -0.6729   18.4120 H   0  0  0  0  0  0  0  0  0  0  0  0
    5.1315    1.8211   16.7776 H   0  0  0  0  0  0  0  0  0  0  0  0
    3.8994    1.9547   18.9452 H   0  0  0  0  0  0  0  0  0  0  0  0
    4.7767    0.6751   20.9310 H   0  0  0  0  0  0  0  0  0  0  0  0
    6.2238    1.2125   23.3185 H   0  0  0  0  0  0  0  0  0  0  0  0
    6.8787    1.8769   21.8052 H   0  0  0  0  0  0  0  0  0  0  0  0
    8.9390    2.0854   20.9390 H   0  0  0  0  0  0  0  0  0  0  0  0
   11.3084    2.5717   20.3037 H   0  0  0  0  0  0  0  0  0  0  0  0
   13.0813    2.6545   22.0673 H   0  0  0  0  0  0  0  0  0  0  0  0
   12.4818    2.1812   24.4324 H   0  0  0  0  0  0  0  0  0  0  0  0
  1  2  1  0
  2  3  2  0
  3  4  1  0
  4  5  2  0
  5  6  1  0
  6  7  2  0
  7  8  1  0
  8  9  1  0
  9 10  1  0
 10 11  2  0
 11 12  1  0
 12 13  1  0
 13 14  1  0
 14 15  1  0
 15 16  1  0
 15 17  1  0
 14 18  1  0
 14 19  1  0
 13 20  1  0
 12 21  2  0
 21 22  1  0
 22 23  1  0
 23 24  2  0
 24 25  1  0
 25 26  2  0
 26 27  1  0
 27 28  2  0
 28 29  1  0
 26 30  1  0
 25 31  1  0
 24 32  1  0
  9 33  1  0
  9 34  1  0
  6 35  1  0
  5 36  1  0
  4 37  1  0
  3 38  1  0
  7  2  1  0
 22 10  1  0
 28 23  1  0
 15 13  1  0
M  END
>  <cnnaffinity>  (1) 
-5.70672

>  <filename>  (1) 
Clc1ccccc1OCc1nc(C2CC2)nn1-c1cccnc1

$$$$
