
     RDKit          3D

 27 30  0  0  0  0  0  0  0  0999 V2000
    4.9130    1.8094   16.9724 H   0  0  0  0  0  0  0  0  0  0  0  0
    5.3792    1.3039   17.8188 C   0  0  0  0  0  0  0  0  0  0  0  0
    6.5427    0.6842   17.5646 N   0  0  0  0  0  0  0  0  0  0  0  0
    7.1524    0.0751   18.5855 C   0  0  0  0  0  0  0  0  0  0  0  0
    8.1037   -0.3941   18.3402 H   0  0  0  0  0  0  0  0  0  0  0  0
    6.6576    0.0310   19.9104 C   0  0  0  0  0  0  0  0  0  0  0  0
    7.4033   -0.6633   20.9719 C   0  0  0  0  0  0  0  0  0  0  0  0
    8.3114   -1.6942   20.9149 C   0  0  0  0  0  0  0  0  0  0  0  0
    8.7125   -2.1131   20.0128 H   0  0  0  0  0  0  0  0  0  0  0  0
    8.7658   -2.1038   22.1370 N   0  0  0  0  0  0  0  0  0  0  0  0
    8.1605   -1.2875   22.9563 C   0  0  0  0  0  0  0  0  0  0  0  0
    8.2445   -0.9485   24.6420 S   0  0  0  0  0  0  0  0  0  0  0  0
    7.1337    0.3789   24.3235 C   0  0  0  0  0  0  0  0  0  0  0  0
    6.7106    1.2319   25.4084 C   0  0  0  0  0  0  0  0  0  0  0  0
    5.6177    2.5358   25.1063 S   0  0  0  0  0  0  0  0  0  0  0  0
    5.6575    2.9529   26.7776 C   0  0  0  0  0  0  0  0  0  0  0  0
    4.7462    4.2763   27.3815 Cl  0  0  0  0  0  0  0  0  0  0  0  0
    6.4612    2.1422   27.5202 C   0  0  0  0  0  0  0  0  0  0  0  0
    6.6013    2.2604   28.5860 H   0  0  0  0  0  0  0  0  0  0  0  0
    7.0741    1.1435   26.7238 C   0  0  0  0  0  0  0  0  0  0  0  0
    7.7573    0.3862   27.0920 H   0  0  0  0  0  0  0  0  0  0  0  0
    6.7367    0.5470   23.0989 N   0  0  0  0  0  0  0  0  0  0  0  0
    7.3209   -0.4050   22.3394 N   0  0  0  0  0  0  0  0  0  0  0  0
    5.4268    0.6681   20.1466 C   0  0  0  0  0  0  0  0  0  0  0  0
    5.0155    0.6572   21.1538 H   0  0  0  0  0  0  0  0  0  0  0  0
    4.7888    1.3156   19.0858 C   0  0  0  0  0  0  0  0  0  0  0  0
    3.8586    1.8496   19.2325 H   0  0  0  0  0  0  0  0  0  0  0  0
  1  2  1  0
  2  3  2  0
  3  4  1  0
  4  5  1  0
  4  6  2  0
  6  7  1  0
  7  8  2  0
  8  9  1  0
  8 10  1  0
 10 11  2  0
 11 12  1  0
 12 13  1  0
 13 14  1  0
 14 15  1  0
 15 16  1  0
 16 17  1  0
 16 18  2  0
 18 19  1  0
 18 20  1  0
 20 21  1  0
 13 22  2  0
 22 23  1  0
  6 24  1  0
 24 25  1  0
 24 26  2  0
 26 27  1  0
 26  2  1  0
 23  7  1  0
 23 11  1  0
 20 14  2  0
M  END
>  <cnnaffinity>  (1) 
-5.3641

>  <filename>  (1) 
Clc1ccc(-c2nn3c(-c4cccnc4)cnc3s2)s1

$$$$
