
     RDKit          3D

 41 44  0  0  0  0  0  0  0  0999 V2000
   12.0296    2.6867   22.9012 Cl  0  0  0  0  0  0  0  0  0  0  0  0
   12.1604    1.0453   22.3235 C   0  0  0  0  0  0  0  0  0  0  0  0
   13.2286    0.3876   22.7465 N   0  0  0  0  0  0  0  0  0  0  0  0
   13.3868   -0.8772   22.3374 C   0  0  0  0  0  0  0  0  0  0  0  0
   12.4660   -1.5262   21.5198 C   0  0  0  0  0  0  0  0  0  0  0  0
   11.3043   -0.8473   21.1465 C   0  0  0  0  0  0  0  0  0  0  0  0
   11.1525    0.4975   21.4919 C   0  0  0  0  0  0  0  0  0  0  0  0
    9.8946    1.2343   21.0633 C   0  0  0  0  0  0  0  0  0  0  0  0
    8.8033    1.1322   22.0798 C   0  0  0  0  0  0  0  0  0  0  0  0
    8.7260    1.8617   23.1688 N   0  0  0  0  0  0  0  0  0  0  0  0
    7.6399    1.3512   23.8249 C   0  0  0  0  0  0  0  0  0  0  0  0
    7.1890    1.8880   25.1579 C   0  0  0  0  0  0  0  0  0  0  0  0
    7.9479    2.8892   25.8074 C   0  0  0  0  0  0  0  0  0  0  0  0
    7.5108    3.3753   27.0421 C   0  0  0  0  0  0  0  0  0  0  0  0
    6.3395    2.8440   27.5912 C   0  0  0  0  0  0  0  0  0  0  0  0
    5.6589    1.8535   26.8791 C   0  0  0  0  0  0  0  0  0  0  0  0
    6.0598    1.3848   25.6972 N   0  0  0  0  0  0  0  0  0  0  0  0
    4.7453    1.4032   27.2565 H   0  0  0  0  0  0  0  0  0  0  0  0
    5.9446    3.1727   28.5448 H   0  0  0  0  0  0  0  0  0  0  0  0
    8.0696    4.1533   27.5594 H   0  0  0  0  0  0  0  0  0  0  0  0
    8.8527    3.2520   25.3222 H   0  0  0  0  0  0  0  0  0  0  0  0
    7.0563    0.3539   23.1718 N   0  0  0  0  0  0  0  0  0  0  0  0
    7.8110    0.2171   22.0659 N   0  0  0  0  0  0  0  0  0  0  0  0
    7.3890   -0.7019   21.0149 C   0  0  0  0  0  0  0  0  0  0  0  0
    6.6562   -0.0099   19.8769 C   0  0  0  0  0  0  0  0  0  0  0  0
    5.4457    0.6481   20.1322 C   0  0  0  0  0  0  0  0  0  0  0  0
    4.7994    1.3083   19.0825 C   0  0  0  0  0  0  0  0  0  0  0  0
    5.3933    1.2988   17.8162 C   0  0  0  0  0  0  0  0  0  0  0  0
    6.5513    0.6757   17.5511 N   0  0  0  0  0  0  0  0  0  0  0  0
    7.1585    0.0500   18.5682 C   0  0  0  0  0  0  0  0  0  0  0  0
    8.1058   -0.4293   18.3158 H   0  0  0  0  0  0  0  0  0  0  0  0
    4.9275    1.8154   16.9762 H   0  0  0  0  0  0  0  0  0  0  0  0
    3.8673    1.8468   19.2292 H   0  0  0  0  0  0  0  0  0  0  0  0
    5.0433    0.6471   21.1484 H   0  0  0  0  0  0  0  0  0  0  0  0
    8.2564   -1.2567   20.6393 H   0  0  0  0  0  0  0  0  0  0  0  0
    6.7411   -1.4152   21.5338 H   0  0  0  0  0  0  0  0  0  0  0  0
    9.5254    0.8259   20.1182 H   0  0  0  0  0  0  0  0  0  0  0  0
   10.0940    2.2975   20.9042 H   0  0  0  0  0  0  0  0  0  0  0  0
   10.4935   -1.3471   20.6099 H   0  0  0  0  0  0  0  0  0  0  0  0
   12.6924   -2.5156   21.1750 H   0  0  0  0  0  0  0  0  0  0  0  0
   14.2809   -1.3893   22.6964 H   0  0  0  0  0  0  0  0  0  0  0  0
  1  2  1  0
  2  3  2  0
  3  4  1  0
  4  5  2  0
  5  6  1  0
  6  7  2  0
  7  8  1  0
  8  9  1  0
  9 10  2  0
 10 11  1  0
 11 12  1  0
 12 13  2  0
 13 14  1  0
 14 15  2  0
 15 16  1  0
 16 17  2  0
 16 18  1  0
 15 19  1  0
 14 20  1  0
 13 21  1  0
 11 22  2  0
 22 23  1  0
 23 24  1  0
 24 25  1  0
 25 26  2  0
 26 27  1  0
 27 28  2  0
 28 29  1  0
 29 30  2  0
 30 31  1  0
 28 32  1  0
 27 33  1  0
 26 34  1  0
 24 35  1  0
 24 36  1  0
  8 37  1  0
  8 38  1  0
  6 39  1  0
  5 40  1  0
  4 41  1  0
  7  2  1  0
 23  9  1  0
 30 25  1  0
 17 12  1  0
M  END
>  <cnnaffinity>  (1) 
-6.14949

>  <filename>  (1) 
Clc1ncccc1Cc1nc(-c2ccccn2)nn1Cc1cccnc1

$$$$
