
     RDKit          3D

 34 36  0  0  0  0  0  0  0  0999 V2000
    4.9191    1.7909   16.9822 H   0  0  0  0  0  0  0  0  0  0  0  0
    5.3920    1.2944   17.8261 C   0  0  0  0  0  0  0  0  0  0  0  0
    6.5535    0.6755   17.5606 N   0  0  0  0  0  0  0  0  0  0  0  0
    7.1672    0.0758   18.5902 C   0  0  0  0  0  0  0  0  0  0  0  0
    8.1148   -0.4090   18.3527 H   0  0  0  0  0  0  0  0  0  0  0  0
    6.6783    0.0419   19.9023 C   0  0  0  0  0  0  0  0  0  0  0  0
    7.3822   -0.7308   20.9830 C   0  0  0  0  0  0  0  0  0  0  0  0
    8.4551   -0.8311   20.7569 H   0  0  0  0  0  0  0  0  0  0  0  0
    7.3364   -0.1627   21.9268 H   0  0  0  0  0  0  0  0  0  0  0  0
    6.7758   -2.1002   21.1804 C   0  0  0  0  0  0  0  0  0  0  0  0
    6.2154   -2.9769   20.2229 C   0  0  0  0  0  0  0  0  0  0  0  0
    6.0987   -2.8051   19.1636 H   0  0  0  0  0  0  0  0  0  0  0  0
    5.8114   -4.1223   20.7629 N   0  0  0  0  0  0  0  0  0  0  0  0
    6.1094   -3.9767   22.0652 N   0  0  0  0  0  0  0  0  0  0  0  0
    5.9641   -4.7470   22.7052 H   0  0  0  0  0  0  0  0  0  0  0  0
    6.6847   -2.7885   22.3712 C   0  0  0  0  0  0  0  0  0  0  0  0
    7.1282   -2.4014   23.7578 C   0  0  0  0  0  0  0  0  0  0  0  0
    6.2552   -2.2290   24.4019 H   0  0  0  0  0  0  0  0  0  0  0  0
    7.6492   -1.4400   23.6998 H   0  0  0  0  0  0  0  0  0  0  0  0
    8.0375   -3.4395   24.3899 C   0  0  0  0  0  0  0  0  0  0  0  0
    7.5101   -4.3550   25.3104 C   0  0  0  0  0  0  0  0  0  0  0  0
    6.4605   -4.2564   25.5840 H   0  0  0  0  0  0  0  0  0  0  0  0
    8.2951   -5.3636   25.8730 C   0  0  0  0  0  0  0  0  0  0  0  0
    7.8624   -6.0429   26.6026 H   0  0  0  0  0  0  0  0  0  0  0  0
    9.6407   -5.4737   25.5077 C   0  0  0  0  0  0  0  0  0  0  0  0
   10.2680   -6.2421   25.9497 H   0  0  0  0  0  0  0  0  0  0  0  0
   10.1919   -4.5900   24.5757 C   0  0  0  0  0  0  0  0  0  0  0  0
   11.2347   -4.6514   24.2748 H   0  0  0  0  0  0  0  0  0  0  0  0
    9.3849   -3.5936   24.0222 C   0  0  0  0  0  0  0  0  0  0  0  0
   10.1111   -2.5396   22.8337 Cl  0  0  0  0  0  0  0  0  0  0  0  0
    5.4473    0.6678   20.1479 C   0  0  0  0  0  0  0  0  0  0  0  0
    5.0131    0.6313   21.1525 H   0  0  0  0  0  0  0  0  0  0  0  0
    4.8017    1.3143   19.0936 C   0  0  0  0  0  0  0  0  0  0  0  0
    3.8702    1.8424   19.2446 H   0  0  0  0  0  0  0  0  0  0  0  0
  1  2  1  0
  2  3  2  0
  3  4  1  0
  4  5  1  0
  4  6  2  0
  6  7  1  0
  7  8  1  0
  7  9  1  0
  7 10  1  0
 10 11  1  0
 11 12  1  0
 11 13  2  0
 13 14  1  0
 14 15  1  0
 14 16  1  0
 16 17  1  0
 17 18  1  0
 17 19  1  0
 17 20  1  0
 20 21  2  0
 21 22  1  0
 21 23  1  0
 23 24  1  0
 23 25  2  0
 25 26  1  0
 25 27  1  0
 27 28  1  0
 27 29  2  0
 29 30  1  0
  6 31  1  0
 31 32  1  0
 31 33  2  0
 33 34  1  0
 33  2  1  0
 16 10  2  0
 29 20  1  0
M  END
>  <cnnaffinity>  (1) 
-5.13832

>  <filename>  (1) 
Clc1ccccc1Cc1[nH]ncc1Cc1cccnc1

$$$$
