
     RDKit          3D

 48 51  0  0  0  0  0  0  0  0999 V2000
    5.5152   -3.2361   27.8063 Cl  0  0  0  0  0  0  0  0  0  0  0  0
    6.9622   -3.2197   26.8440 C   0  0  0  0  0  0  0  0  0  0  0  0
    7.7032   -4.3962   26.7062 C   0  0  0  0  0  0  0  0  0  0  0  0
    8.8027   -4.4010   25.8418 C   0  0  0  0  0  0  0  0  0  0  0  0
    9.1561   -3.2554   25.1244 C   0  0  0  0  0  0  0  0  0  0  0  0
    8.4232   -2.0762   25.3154 C   0  0  0  0  0  0  0  0  0  0  0  0
    8.7455   -0.8874   24.6084 N   0  0  0  0  0  0  0  0  0  0  0  0
    8.7670    0.3196   25.2421 N   0  0  0  0  0  0  0  0  0  0  0  0
    9.1240    1.1460   24.2879 C   0  0  0  0  0  0  0  0  0  0  0  0
    9.2501    2.6282   24.5220 C   0  0  0  0  0  0  0  0  0  0  0  0
    7.9990    3.3707   23.9476 C   0  0  0  0  0  0  0  0  0  0  0  0
    8.3165    4.8183   23.5664 C   0  0  0  0  0  0  0  0  0  0  0  0
    9.4087    4.9406   22.6592 O   0  0  0  0  0  0  0  0  0  0  0  0
   10.3055    3.8382   22.5566 C   0  0  0  0  0  0  0  0  0  0  0  0
   10.5680    3.1939   23.9145 C   0  0  0  0  0  0  0  0  0  0  0  0
   11.3169    2.4002   23.8186 H   0  0  0  0  0  0  0  0  0  0  0  0
   10.9906    3.9572   24.5809 H   0  0  0  0  0  0  0  0  0  0  0  0
    9.9150    3.0871   21.8477 H   0  0  0  0  0  0  0  0  0  0  0  0
   11.2240    4.2345   22.1150 H   0  0  0  0  0  0  0  0  0  0  0  0
    8.5387    5.4142   24.4643 H   0  0  0  0  0  0  0  0  0  0  0  0
    7.4509    5.2799   23.0767 H   0  0  0  0  0  0  0  0  0  0  0  0
    7.1678    3.3420   24.6621 H   0  0  0  0  0  0  0  0  0  0  0  0
    7.6620    2.8542   23.0371 H   0  0  0  0  0  0  0  0  0  0  0  0
    9.2804    2.7493   25.6073 H   0  0  0  0  0  0  0  0  0  0  0  0
    9.3012    0.5718   23.0704 N   0  0  0  0  0  0  0  0  0  0  0  0
    9.0043   -0.6918   23.2843 C   0  0  0  0  0  0  0  0  0  0  0  0
    8.9413   -1.7395   22.2249 C   0  0  0  0  0  0  0  0  0  0  0  0
    8.5381   -1.1877   20.8709 C   0  0  0  0  0  0  0  0  0  0  0  0
    7.2196   -0.6723   20.9730 O   0  0  0  0  0  0  0  0  0  0  0  0
    6.6759   -0.0391   19.9012 C   0  0  0  0  0  0  0  0  0  0  0  0
    5.4657    0.6185   20.1487 C   0  0  0  0  0  0  0  0  0  0  0  0
    4.8464    1.2834   19.0937 C   0  0  0  0  0  0  0  0  0  0  0  0
    5.4476    1.2784   17.8269 C   0  0  0  0  0  0  0  0  0  0  0  0
    6.6029    0.6486   17.5791 N   0  0  0  0  0  0  0  0  0  0  0  0
    7.2082    0.0087   18.5959 C   0  0  0  0  0  0  0  0  0  0  0  0
    8.1541   -0.4808   18.3628 H   0  0  0  0  0  0  0  0  0  0  0  0
    4.9822    1.8031   16.9933 H   0  0  0  0  0  0  0  0  0  0  0  0
    3.9167    1.8104   19.2494 H   0  0  0  0  0  0  0  0  0  0  0  0
    5.0787    0.5989   21.1650 H   0  0  0  0  0  0  0  0  0  0  0  0
    8.5382   -1.9904   20.1356 H   0  0  0  0  0  0  0  0  0  0  0  0
    9.2284   -0.4068   20.5335 H   0  0  0  0  0  0  0  0  0  0  0  0
    9.9231   -2.2155   22.1219 H   0  0  0  0  0  0  0  0  0  0  0  0
    8.2280   -2.5175   22.5117 H   0  0  0  0  0  0  0  0  0  0  0  0
    7.3406   -2.0403   26.2061 C   0  0  0  0  0  0  0  0  0  0  0  0
    6.8311   -1.1010   26.4002 H   0  0  0  0  0  0  0  0  0  0  0  0
    9.9869   -3.2745   24.4231 H   0  0  0  0  0  0  0  0  0  0  0  0
    9.3863   -5.3076   25.7176 H   0  0  0  0  0  0  0  0  0  0  0  0
    7.4226   -5.2825   27.2678 H   0  0  0  0  0  0  0  0  0  0  0  0
  1  2  1  0
  2  3  2  0
  3  4  1  0
  4  5  2  0
  5  6  1  0
  6  7  1  0
  7  8  1  0
  8  9  2  0
  9 10  1  0
 10 11  1  0
 11 12  1  0
 12 13  1  0
 13 14  1  0
 14 15  1  0
 15 16  1  0
 15 17  1  0
 14 18  1  0
 14 19  1  0
 12 20  1  0
 12 21  1  0
 11 22  1  0
 11 23  1  0
 10 24  1  0
  9 25  1  0
 25 26  2  0
 26 27  1  0
 27 28  1  0
 28 29  1  0
 29 30  1  0
 30 31  2  0
 31 32  1  0
 32 33  2  0
 33 34  1  0
 34 35  2  0
 35 36  1  0
 33 37  1  0
 32 38  1  0
 31 39  1  0
 28 40  1  0
 28 41  1  0
 27 42  1  0
 27 43  1  0
  6 44  2  0
 44 45  1  0
  5 46  1  0
  4 47  1  0
  3 48  1  0
 44  2  1  0
 26  7  1  0
 35 30  1  0
 15 10  1  0
M  END
>  <cnnaffinity>  (1) 
-6.13134

>  <filename>  (1) 
Clc1cccc(-n2nc(C3CCOCC3)nc2CCOc2cccnc2)c1

$$$$
