
     RDKit          3D

 30 32  0  0  0  0  0  0  0  0999 V2000
    5.0280    1.8488   16.7733 H   0  0  0  0  0  0  0  0  0  0  0  0
    5.3882    1.3651   17.6780 C   0  0  0  0  0  0  0  0  0  0  0  0
    6.5310    0.6770   17.5549 N   0  0  0  0  0  0  0  0  0  0  0  0
    7.0032    0.0790   18.6504 C   0  0  0  0  0  0  0  0  0  0  0  0
    7.9336   -0.4715   18.5483 H   0  0  0  0  0  0  0  0  0  0  0  0
    6.3691    0.1288   19.9093 C   0  0  0  0  0  0  0  0  0  0  0  0
    7.0303   -0.5483   21.0248 C   0  0  0  0  0  0  0  0  0  0  0  0
    8.2089   -1.2411   20.7547 N   0  0  0  0  0  0  0  0  0  0  0  0
    8.5865   -1.7174   21.8868 C   0  0  0  0  0  0  0  0  0  0  0  0
    9.8374   -2.4934   22.1099 C   0  0  0  0  0  0  0  0  0  0  0  0
    9.9689   -3.0318   21.1764 H   0  0  0  0  0  0  0  0  0  0  0  0
    9.6706   -3.2086   22.9208 H   0  0  0  0  0  0  0  0  0  0  0  0
   11.0440   -1.6056   22.3489 C   0  0  0  0  0  0  0  0  0  0  0  0
   12.1982   -1.6973   21.5642 C   0  0  0  0  0  0  0  0  0  0  0  0
   12.2818   -2.3830   20.7347 H   0  0  0  0  0  0  0  0  0  0  0  0
   13.2842   -0.8597   21.7878 C   0  0  0  0  0  0  0  0  0  0  0  0
   14.1719   -0.9372   21.1671 H   0  0  0  0  0  0  0  0  0  0  0  0
   13.2181    0.1180   22.7810 C   0  0  0  0  0  0  0  0  0  0  0  0
   14.5247    1.2341   22.9052 Cl  0  0  0  0  0  0  0  0  0  0  0  0
   12.0758    0.2137   23.5908 C   0  0  0  0  0  0  0  0  0  0  0  0
   11.9635    1.3916   24.8506 Cl  0  0  0  0  0  0  0  0  0  0  0  0
   10.9967   -0.6405   23.3595 C   0  0  0  0  0  0  0  0  0  0  0  0
   10.1036   -0.5442   23.9647 H   0  0  0  0  0  0  0  0  0  0  0  0
    7.7716   -1.4047   22.9139 O   0  0  0  0  0  0  0  0  0  0  0  0
    6.7714   -0.6512   22.3513 C   0  0  0  0  0  0  0  0  0  0  0  0
    6.0277   -0.2569   23.0259 H   0  0  0  0  0  0  0  0  0  0  0  0
    5.1633    0.8349   20.0160 C   0  0  0  0  0  0  0  0  0  0  0  0
    4.6202    0.8924   20.9608 H   0  0  0  0  0  0  0  0  0  0  0  0
    4.6695    1.4651   18.8740 C   0  0  0  0  0  0  0  0  0  0  0  0
    3.7477    2.0313   18.8944 H   0  0  0  0  0  0  0  0  0  0  0  0
  1  2  1  0
  2  3  2  0
  3  4  1  0
  4  5  1  0
  4  6  2  0
  6  7  1  0
  7  8  1  0
  8  9  2  0
  9 10  1  0
 10 11  1  0
 10 12  1  0
 10 13  1  0
 13 14  2  0
 14 15  1  0
 14 16  1  0
 16 17  1  0
 16 18  2  0
 18 19  1  0
 18 20  1  0
 20 21  1  0
 20 22  2  0
 22 23  1  0
  9 24  1  0
 24 25  1  0
 25 26  1  0
  6 27  1  0
 27 28  1  0
 27 29  2  0
 29 30  1  0
 29  2  1  0
 25  7  2  0
 22 13  1  0
M  END
>  <cnnaffinity>  (1) 
-5.79463

>  <filename>  (1) 
Clc1ccc(Cc2nc(-c3cccnc3)co2)cc1Cl

$$$$
