
     RDKit          3D

 40 43  0  0  0  0  0  0  0  0999 V2000
   12.1097    2.2038   22.6874 Cl  0  0  0  0  0  0  0  0  0  0  0  0
   10.7149    1.9374   23.6856 C   0  0  0  0  0  0  0  0  0  0  0  0
   10.9140    1.7855   25.0565 C   0  0  0  0  0  0  0  0  0  0  0  0
    9.9196    1.5783   25.9193 N   0  0  0  0  0  0  0  0  0  0  0  0
    8.6818    1.4994   25.4287 C   0  0  0  0  0  0  0  0  0  0  0  0
    8.3922    1.6446   24.0681 C   0  0  0  0  0  0  0  0  0  0  0  0
    6.7341    1.5049   23.5714 Cl  0  0  0  0  0  0  0  0  0  0  0  0
    9.4231    1.8820   23.1371 C   0  0  0  0  0  0  0  0  0  0  0  0
    9.2057    1.9468   21.6476 C   0  0  0  0  0  0  0  0  0  0  0  0
    9.5298    0.5886   20.9622 C   0  0  0  0  0  0  0  0  0  0  0  0
    8.6332   -0.5225   21.4073 C   0  0  0  0  0  0  0  0  0  0  0  0
    8.8636   -1.3768   22.3936 N   0  0  0  0  0  0  0  0  0  0  0  0
    7.6673   -1.9950   22.5473 C   0  0  0  0  0  0  0  0  0  0  0  0
    7.3984   -2.9573   23.6592 C   0  0  0  0  0  0  0  0  0  0  0  0
    6.3726   -2.4355   24.7123 C   0  0  0  0  0  0  0  0  0  0  0  0
    5.2203   -3.8052   24.3604 S   0  0  0  0  0  0  0  0  0  0  0  0
    6.6005   -4.2186   23.2401 C   0  0  0  0  0  0  0  0  0  0  0  0
    6.2964   -4.2235   22.1887 H   0  0  0  0  0  0  0  0  0  0  0  0
    7.0866   -5.1631   23.4981 H   0  0  0  0  0  0  0  0  0  0  0  0
    6.7441   -2.4385   25.7409 H   0  0  0  0  0  0  0  0  0  0  0  0
    5.9507   -1.4512   24.4793 H   0  0  0  0  0  0  0  0  0  0  0  0
    8.3622   -3.1943   24.1094 H   0  0  0  0  0  0  0  0  0  0  0  0
    6.7362   -1.6259   21.6901 N   0  0  0  0  0  0  0  0  0  0  0  0
    7.3607   -0.6872   20.9343 N   0  0  0  0  0  0  0  0  0  0  0  0
    6.6553   -0.0027   19.9013 C   0  0  0  0  0  0  0  0  0  0  0  0
    5.4407    0.6388   20.1688 C   0  0  0  0  0  0  0  0  0  0  0  0
    4.8139    1.3080   19.1125 C   0  0  0  0  0  0  0  0  0  0  0  0
    5.3991    1.2950   17.8402 C   0  0  0  0  0  0  0  0  0  0  0  0
    6.5581    0.6713   17.5777 N   0  0  0  0  0  0  0  0  0  0  0  0
    7.1657    0.0466   18.5912 C   0  0  0  0  0  0  0  0  0  0  0  0
    8.1132   -0.4375   18.3661 H   0  0  0  0  0  0  0  0  0  0  0  0
    4.9183    1.7850   16.9964 H   0  0  0  0  0  0  0  0  0  0  0  0
    3.8823    1.8386   19.2629 H   0  0  0  0  0  0  0  0  0  0  0  0
    5.0189    0.6138   21.1774 H   0  0  0  0  0  0  0  0  0  0  0  0
   10.5541    0.2836   21.1875 H   0  0  0  0  0  0  0  0  0  0  0  0
    9.4681    0.7164   19.8788 H   0  0  0  0  0  0  0  0  0  0  0  0
    9.8494    2.7294   21.2344 H   0  0  0  0  0  0  0  0  0  0  0  0
    8.1673    2.2296   21.4484 H   0  0  0  0  0  0  0  0  0  0  0  0
    7.8766    1.3229   26.1377 H   0  0  0  0  0  0  0  0  0  0  0  0
   11.9203    1.8593   25.4506 H   0  0  0  0  0  0  0  0  0  0  0  0
  1  2  1  0
  2  3  2  0
  3  4  1  0
  4  5  2  0
  5  6  1  0
  6  7  1  0
  6  8  2  0
  8  9  1  0
  9 10  1  0
 10 11  1  0
 11 12  2  0
 12 13  1  0
 13 14  1  0
 14 15  1  0
 15 16  1  0
 16 17  1  0
 17 18  1  0
 17 19  1  0
 15 20  1  0
 15 21  1  0
 14 22  1  0
 13 23  2  0
 23 24  1  0
 24 25  1  0
 25 26  2  0
 26 27  1  0
 27 28  2  0
 28 29  1  0
 29 30  2  0
 30 31  1  0
 28 32  1  0
 27 33  1  0
 26 34  1  0
 10 35  1  0
 10 36  1  0
  9 37  1  0
  9 38  1  0
  5 39  1  0
  3 40  1  0
  8  2  1  0
 24 11  1  0
 30 25  1  0
 17 14  1  0
M  END
>  <cnnaffinity>  (1) 
-6.51778

>  <filename>  (1) 
Clc1cncc(Cl)c1CCc1nc(C2CSC2)nn1-c1cccnc1

$$$$
