
     RDKit          3D

 42 45  0  0  0  0  0  0  0  0999 V2000
    9.4863    0.9998   25.8951 Cl  0  0  0  0  0  0  0  0  0  0  0  0
    8.9165    2.5441   25.3257 C   0  0  0  0  0  0  0  0  0  0  0  0
    8.5632    3.5040   26.2744 C   0  0  0  0  0  0  0  0  0  0  0  0
    8.1075    4.7617   25.8755 C   0  0  0  0  0  0  0  0  0  0  0  0
    7.9975    5.0456   24.5161 C   0  0  0  0  0  0  0  0  0  0  0  0
    8.3424    4.0872   23.5548 C   0  0  0  0  0  0  0  0  0  0  0  0
    8.8093    2.8186   23.9391 C   0  0  0  0  0  0  0  0  0  0  0  0
    9.1683    1.8331   23.0822 O   0  0  0  0  0  0  0  0  0  0  0  0
    9.0758    1.9925   21.6694 C   0  0  0  0  0  0  0  0  0  0  0  0
    9.4873    0.6591   21.0375 C   0  0  0  0  0  0  0  0  0  0  0  0
    8.6018   -0.4612   21.4572 C   0  0  0  0  0  0  0  0  0  0  0  0
    8.8355   -1.2923   22.4473 N   0  0  0  0  0  0  0  0  0  0  0  0
    7.6644   -1.9700   22.5680 C   0  0  0  0  0  0  0  0  0  0  0  0
    7.4278   -2.9242   23.6873 C   0  0  0  0  0  0  0  0  0  0  0  0
    7.2692   -2.2294   25.0769 C   0  0  0  0  0  0  0  0  0  0  0  0
    8.7083   -3.1234   25.7548 S   0  0  0  0  0  0  0  0  0  0  0  0
    8.6419   -3.8133   24.0651 C   0  0  0  0  0  0  0  0  0  0  0  0
    9.5547   -3.6178   23.4926 H   0  0  0  0  0  0  0  0  0  0  0  0
    8.4314   -4.8867   24.0657 H   0  0  0  0  0  0  0  0  0  0  0  0
    6.3356   -2.4650   25.5963 H   0  0  0  0  0  0  0  0  0  0  0  0
    7.4155   -1.1422   25.0695 H   0  0  0  0  0  0  0  0  0  0  0  0
    6.5471   -3.5048   23.4178 H   0  0  0  0  0  0  0  0  0  0  0  0
    6.7387   -1.6433   21.6923 N   0  0  0  0  0  0  0  0  0  0  0  0
    7.3512   -0.6787   20.9456 N   0  0  0  0  0  0  0  0  0  0  0  0
    6.6558    0.0031   19.9034 C   0  0  0  0  0  0  0  0  0  0  0  0
    5.4388    0.6432   20.1657 C   0  0  0  0  0  0  0  0  0  0  0  0
    4.8128    1.3107   19.1088 C   0  0  0  0  0  0  0  0  0  0  0  0
    5.4007    1.2960   17.8375 C   0  0  0  0  0  0  0  0  0  0  0  0
    6.5583    0.6704   17.5772 N   0  0  0  0  0  0  0  0  0  0  0  0
    7.1670    0.0485   18.5928 C   0  0  0  0  0  0  0  0  0  0  0  0
    8.1117   -0.4380   18.3629 H   0  0  0  0  0  0  0  0  0  0  0  0
    4.9220    1.7870   16.9925 H   0  0  0  0  0  0  0  0  0  0  0  0
    3.8802    1.8399   19.2588 H   0  0  0  0  0  0  0  0  0  0  0  0
    5.0141    0.6077   21.1730 H   0  0  0  0  0  0  0  0  0  0  0  0
    9.4727    0.7672   19.9525 H   0  0  0  0  0  0  0  0  0  0  0  0
   10.5130    0.4082   21.3128 H   0  0  0  0  0  0  0  0  0  0  0  0
    8.0475    2.2489   21.3754 H   0  0  0  0  0  0  0  0  0  0  0  0
    9.7417    2.7973   21.3279 H   0  0  0  0  0  0  0  0  0  0  0  0
    8.2545    4.3216   22.4981 H   0  0  0  0  0  0  0  0  0  0  0  0
    7.6359    6.0170   24.1921 H   0  0  0  0  0  0  0  0  0  0  0  0
    7.8352    5.5046   26.6225 H   0  0  0  0  0  0  0  0  0  0  0  0
    8.6287    3.2481   27.3250 H   0  0  0  0  0  0  0  0  0  0  0  0
  1  2  1  0
  2  3  2  0
  3  4  1  0
  4  5  2  0
  5  6  1  0
  6  7  2  0
  7  8  1  0
  8  9  1  0
  9 10  1  0
 10 11  1  0
 11 12  2  0
 12 13  1  0
 13 14  1  0
 14 15  1  0
 15 16  1  0
 16 17  1  0
 17 18  1  0
 17 19  1  0
 15 20  1  0
 15 21  1  0
 14 22  1  0
 13 23  2  0
 23 24  1  0
 24 25  1  0
 25 26  2  0
 26 27  1  0
 27 28  2  0
 28 29  1  0
 29 30  2  0
 30 31  1  0
 28 32  1  0
 27 33  1  0
 26 34  1  0
 10 35  1  0
 10 36  1  0
  9 37  1  0
  9 38  1  0
  6 39  1  0
  5 40  1  0
  4 41  1  0
  3 42  1  0
  7  2  1  0
 24 11  1  0
 30 25  1  0
 17 14  1  0
M  END
>  <cnnaffinity>  (1) 
-6.18472

>  <filename>  (1) 
Clc1ccccc1OCCc1nc(C2CSC2)nn1-c1cccnc1

$$$$
