
     RDKit          3D

 47 50  0  0  0  0  0  0  0  0999 V2000
   11.0739    4.4717   23.1250 Cl  0  0  0  0  0  0  0  0  0  0  0  0
    9.3574    4.6616   23.3842 C   0  0  0  0  0  0  0  0  0  0  0  0
    8.8862    5.9420   23.6865 C   0  0  0  0  0  0  0  0  0  0  0  0
    7.5162    6.1386   23.8744 C   0  0  0  0  0  0  0  0  0  0  0  0
    6.6280    5.0667   23.7501 C   0  0  0  0  0  0  0  0  0  0  0  0
    7.1197    3.7961   23.4494 C   0  0  0  0  0  0  0  0  0  0  0  0
    8.4921    3.5588   23.2756 C   0  0  0  0  0  0  0  0  0  0  0  0
    8.9689    2.1826   22.8877 C   0  0  0  0  0  0  0  0  0  0  0  0
    9.0333    2.0160   21.3633 C   0  0  0  0  0  0  0  0  0  0  0  0
    9.5231    0.6195   20.9460 C   0  0  0  0  0  0  0  0  0  0  0  0
    8.6289   -0.4736   21.4299 C   0  0  0  0  0  0  0  0  0  0  0  0
    8.8513   -1.2867   22.4440 N   0  0  0  0  0  0  0  0  0  0  0  0
    7.6738   -1.9474   22.5745 C   0  0  0  0  0  0  0  0  0  0  0  0
    7.4110   -2.9067   23.6937 C   0  0  0  0  0  0  0  0  0  0  0  0
    7.2485   -2.1814   25.0575 C   0  0  0  0  0  0  0  0  0  0  0  0
    8.6686   -2.1973   25.6486 C   0  0  0  0  0  0  0  0  0  0  0  0
    9.4001   -3.1748   24.9334 O   0  0  0  0  0  0  0  0  0  0  0  0
    8.6063   -3.8322   23.9693 C   0  0  0  0  0  0  0  0  0  0  0  0
    9.2404   -4.0124   23.0934 H   0  0  0  0  0  0  0  0  0  0  0  0
    8.2585   -4.8103   24.3462 H   0  0  0  0  0  0  0  0  0  0  0  0
    8.6623   -2.4306   26.7246 H   0  0  0  0  0  0  0  0  0  0  0  0
    9.1814   -1.2355   25.5168 H   0  0  0  0  0  0  0  0  0  0  0  0
    6.8688   -1.1596   24.9496 H   0  0  0  0  0  0  0  0  0  0  0  0
    6.5449   -2.7250   25.6967 H   0  0  0  0  0  0  0  0  0  0  0  0
    6.5215   -3.4643   23.4085 H   0  0  0  0  0  0  0  0  0  0  0  0
    6.7461   -1.6100   21.7037 N   0  0  0  0  0  0  0  0  0  0  0  0
    7.3657   -0.6670   20.9422 N   0  0  0  0  0  0  0  0  0  0  0  0
    6.6615    0.0092   19.9044 C   0  0  0  0  0  0  0  0  0  0  0  0
    5.4413    0.6442   20.1658 C   0  0  0  0  0  0  0  0  0  0  0  0
    4.8125    1.3102   19.1092 C   0  0  0  0  0  0  0  0  0  0  0  0
    5.4003    1.2962   17.8376 C   0  0  0  0  0  0  0  0  0  0  0  0
    6.5598    0.6735   17.5769 N   0  0  0  0  0  0  0  0  0  0  0  0
    7.1703    0.0550   18.5945 C   0  0  0  0  0  0  0  0  0  0  0  0
    8.1143   -0.4348   18.3688 H   0  0  0  0  0  0  0  0  0  0  0  0
    4.9201    1.7859   16.9931 H   0  0  0  0  0  0  0  0  0  0  0  0
    3.8797    1.8397   19.2596 H   0  0  0  0  0  0  0  0  0  0  0  0
    5.0171    0.6066   21.1727 H   0  0  0  0  0  0  0  0  0  0  0  0
   10.5240    0.4356   21.3490 H   0  0  0  0  0  0  0  0  0  0  0  0
    9.5988    0.5751   19.8569 H   0  0  0  0  0  0  0  0  0  0  0  0
    9.7052    2.7735   20.9510 H   0  0  0  0  0  0  0  0  0  0  0  0
    8.0453    2.2115   20.9237 H   0  0  0  0  0  0  0  0  0  0  0  0
    8.2962    1.4245   23.3103 H   0  0  0  0  0  0  0  0  0  0  0  0
    9.9575    1.9888   23.3203 H   0  0  0  0  0  0  0  0  0  0  0  0
    6.4325    2.9616   23.3319 H   0  0  0  0  0  0  0  0  0  0  0  0
    5.5605    5.2158   23.8833 H   0  0  0  0  0  0  0  0  0  0  0  0
    7.1439    7.1300   24.1125 H   0  0  0  0  0  0  0  0  0  0  0  0
    9.5941    6.7612   23.7678 H   0  0  0  0  0  0  0  0  0  0  0  0
  1  2  1  0
  2  3  2  0
  3  4  1  0
  4  5  2  0
  5  6  1  0
  6  7  2  0
  7  8  1  0
  8  9  1  0
  9 10  1  0
 10 11  1  0
 11 12  2  0
 12 13  1  0
 13 14  1  0
 14 15  1  0
 15 16  1  0
 16 17  1  0
 17 18  1  0
 18 19  1  0
 18 20  1  0
 16 21  1  0
 16 22  1  0
 15 23  1  0
 15 24  1  0
 14 25  1  0
 13 26  2  0
 26 27  1  0
 27 28  1  0
 28 29  2  0
 29 30  1  0
 30 31  2  0
 31 32  1  0
 32 33  2  0
 33 34  1  0
 31 35  1  0
 30 36  1  0
 29 37  1  0
 10 38  1  0
 10 39  1  0
  9 40  1  0
  9 41  1  0
  8 42  1  0
  8 43  1  0
  6 44  1  0
  5 45  1  0
  4 46  1  0
  3 47  1  0
  7  2  1  0
 27 11  1  0
 33 28  1  0
 18 14  1  0
M  END
>  <cnnaffinity>  (1) 
-6.06883

>  <filename>  (1) 
Clc1ccccc1CCCc1nc(C2CCOC2)nn1-c1cccnc1

$$$$
