
     RDKit          3D

 40 43  0  0  0  0  0  0  0  0999 V2000
    7.5487    0.0816   28.0061 Cl  0  0  0  0  0  0  0  0  0  0  0  0
    7.0325    0.4178   26.4044 C   0  0  0  0  0  0  0  0  0  0  0  0
    7.4203    1.4874   25.6347 C   0  0  0  0  0  0  0  0  0  0  0  0
    6.7400    1.3734   24.4659 N   0  0  0  0  0  0  0  0  0  0  0  0
    7.0800    1.9698   23.1729 C   0  0  0  0  0  0  0  0  0  0  0  0
    8.0636    1.0731   22.4930 C   0  0  0  0  0  0  0  0  0  0  0  0
    9.3689    1.2152   22.5610 N   0  0  0  0  0  0  0  0  0  0  0  0
    9.8320    0.0349   22.0683 C   0  0  0  0  0  0  0  0  0  0  0  0
   11.2589   -0.3023   21.9361 C   0  0  0  0  0  0  0  0  0  0  0  0
   11.6201   -1.4985   21.2846 C   0  0  0  0  0  0  0  0  0  0  0  0
   12.9648   -1.8132   21.1184 C   0  0  0  0  0  0  0  0  0  0  0  0
   13.9368   -1.0288   21.7326 C   0  0  0  0  0  0  0  0  0  0  0  0
   13.5919    0.1635   22.3754 C   0  0  0  0  0  0  0  0  0  0  0  0
   12.2555    0.5524   22.4434 C   0  0  0  0  0  0  0  0  0  0  0  0
   11.9835    1.5167   22.8709 H   0  0  0  0  0  0  0  0  0  0  0  0
   14.3809    0.7934   22.7687 H   0  0  0  0  0  0  0  0  0  0  0  0
   14.9576   -1.3689   21.7304 H   0  0  0  0  0  0  0  0  0  0  0  0
   13.2851   -2.6407   20.4951 H   0  0  0  0  0  0  0  0  0  0  0  0
   10.8260   -2.1579   20.9389 H   0  0  0  0  0  0  0  0  0  0  0  0
    8.8750   -0.8051   21.7028 N   0  0  0  0  0  0  0  0  0  0  0  0
    7.7415   -0.1285   21.9681 N   0  0  0  0  0  0  0  0  0  0  0  0
    6.4664   -0.6036   21.4417 C   0  0  0  0  0  0  0  0  0  0  0  0
    6.0719    0.0673   20.1429 C   0  0  0  0  0  0  0  0  0  0  0  0
    4.8931    0.8082   19.9972 C   0  0  0  0  0  0  0  0  0  0  0  0
    4.6950    1.5168   18.8086 C   0  0  0  0  0  0  0  0  0  0  0  0
    5.6597    1.4278   17.8017 C   0  0  0  0  0  0  0  0  0  0  0  0
    6.7574    0.6608   17.8934 N   0  0  0  0  0  0  0  0  0  0  0  0
    6.9466    0.0018   19.0418 C   0  0  0  0  0  0  0  0  0  0  0  0
    7.8521   -0.6062   19.1119 H   0  0  0  0  0  0  0  0  0  0  0  0
    5.5427    1.9933   16.8774 H   0  0  0  0  0  0  0  0  0  0  0  0
    3.8272    2.1508   18.6645 H   0  0  0  0  0  0  0  0  0  0  0  0
    4.1385    0.8395   20.7903 H   0  0  0  0  0  0  0  0  0  0  0  0
    6.5898   -1.6840   21.3301 H   0  0  0  0  0  0  0  0  0  0  0  0
    5.7294   -0.4223   22.2142 H   0  0  0  0  0  0  0  0  0  0  0  0
    7.5417    2.9423   23.3436 H   0  0  0  0  0  0  0  0  0  0  0  0
    6.1595    2.0755   22.5942 H   0  0  0  0  0  0  0  0  0  0  0  0
    5.9735    0.2787   24.4320 N   0  0  0  0  0  0  0  0  0  0  0  0
    6.1244   -0.3122   25.6103 C   0  0  0  0  0  0  0  0  0  0  0  0
    5.6034   -1.2301   25.8507 H   0  0  0  0  0  0  0  0  0  0  0  0
    8.0995    2.3032   25.8402 H   0  0  0  0  0  0  0  0  0  0  0  0
  1  2  1  0
  2  3  2  0
  3  4  1  0
  4  5  1  0
  5  6  1  0
  6  7  2  0
  7  8  1  0
  8  9  1  0
  9 10  2  0
 10 11  1  0
 11 12  2  0
 12 13  1  0
 13 14  2  0
 14 15  1  0
 13 16  1  0
 12 17  1  0
 11 18  1  0
 10 19  1  0
  8 20  2  0
 20 21  1  0
 21 22  1  0
 22 23  1  0
 23 24  2  0
 24 25  1  0
 25 26  2  0
 26 27  1  0
 27 28  2  0
 28 29  1  0
 26 30  1  0
 25 31  1  0
 24 32  1  0
 22 33  1  0
 22 34  1  0
  5 35  1  0
  5 36  1  0
  4 37  1  0
 37 38  2  0
 38 39  1  0
  3 40  1  0
 38  2  1  0
 21  6  1  0
 28 23  1  0
 14  9  1  0
M  END
>  <cnnaffinity>  (1) 
-6.45566

>  <filename>  (1) 
Clc1cnn(Cc2nc(-c3ccccc3)nn2Cc2cccnc2)c1

$$$$
