
     RDKit          3D

 45 48  0  0  0  0  0  0  0  0999 V2000
   12.8923    1.0500   23.3958 Cl  0  0  0  0  0  0  0  0  0  0  0  0
   11.3347    1.8133   23.5243 C   0  0  0  0  0  0  0  0  0  0  0  0
   11.1073    2.6682   24.5880 C   0  0  0  0  0  0  0  0  0  0  0  0
    9.8618    3.2818   24.7595 C   0  0  0  0  0  0  0  0  0  0  0  0
    8.8393    3.0320   23.8488 C   0  0  0  0  0  0  0  0  0  0  0  0
    9.0563    2.1781   22.7634 C   0  0  0  0  0  0  0  0  0  0  0  0
   10.3136    1.5720   22.5867 C   0  0  0  0  0  0  0  0  0  0  0  0
   10.6438    0.7563   21.5570 O   0  0  0  0  0  0  0  0  0  0  0  0
    9.6391    0.2413   20.7094 C   0  0  0  0  0  0  0  0  0  0  0  0
    8.6168   -0.6210   21.3676 C   0  0  0  0  0  0  0  0  0  0  0  0
    8.8342   -1.4786   22.3373 N   0  0  0  0  0  0  0  0  0  0  0  0
    7.5950   -1.9825   22.5786 C   0  0  0  0  0  0  0  0  0  0  0  0
    7.3589   -2.8984   23.7387 C   0  0  0  0  0  0  0  0  0  0  0  0
    7.5775   -2.1588   25.0940 C   0  0  0  0  0  0  0  0  0  0  0  0
    7.4548   -3.1434   26.2568 C   0  0  0  0  0  0  0  0  0  0  0  0
    8.3434   -4.2363   26.1125 O   0  0  0  0  0  0  0  0  0  0  0  0
    8.1088   -4.9915   24.9378 C   0  0  0  0  0  0  0  0  0  0  0  0
    8.2826   -4.1439   23.6781 C   0  0  0  0  0  0  0  0  0  0  0  0
    9.3296   -3.8182   23.5953 H   0  0  0  0  0  0  0  0  0  0  0  0
    8.0610   -4.7464   22.7889 H   0  0  0  0  0  0  0  0  0  0  0  0
    8.8196   -5.8219   24.9736 H   0  0  0  0  0  0  0  0  0  0  0  0
    7.0865   -5.4126   24.9567 H   0  0  0  0  0  0  0  0  0  0  0  0
    6.4127   -3.5088   26.3188 H   0  0  0  0  0  0  0  0  0  0  0  0
    7.7085   -2.6817   27.2155 H   0  0  0  0  0  0  0  0  0  0  0  0
    8.5771   -1.6983   25.1040 H   0  0  0  0  0  0  0  0  0  0  0  0
    6.8486   -1.3474   25.2208 H   0  0  0  0  0  0  0  0  0  0  0  0
    6.3023   -3.1989   23.6533 H   0  0  0  0  0  0  0  0  0  0  0  0
    6.6499   -1.5382   21.7753 N   0  0  0  0  0  0  0  0  0  0  0  0
    7.3175   -0.6799   20.9622 N   0  0  0  0  0  0  0  0  0  0  0  0
    6.6508   -0.0043   19.9006 C   0  0  0  0  0  0  0  0  0  0  0  0
    5.4363    0.6425   20.1545 C   0  0  0  0  0  0  0  0  0  0  0  0
    4.8073    1.3127   19.1026 C   0  0  0  0  0  0  0  0  0  0  0  0
    5.3978    1.2971   17.8325 C   0  0  0  0  0  0  0  0  0  0  0  0
    6.5497    0.6608   17.5735 N   0  0  0  0  0  0  0  0  0  0  0  0
    7.1596    0.0339   18.5874 C   0  0  0  0  0  0  0  0  0  0  0  0
    8.1008   -0.4518   18.3348 H   0  0  0  0  0  0  0  0  0  0  0  0
    4.9334    1.8058   16.9913 H   0  0  0  0  0  0  0  0  0  0  0  0
    3.8734    1.8467   19.2530 H   0  0  0  0  0  0  0  0  0  0  0  0
    5.0170    0.6006   21.1597 H   0  0  0  0  0  0  0  0  0  0  0  0
   10.1829   -0.4212   20.0376 H   0  0  0  0  0  0  0  0  0  0  0  0
    9.1541    1.0660   20.1788 H   0  0  0  0  0  0  0  0  0  0  0  0
    8.2512    1.9779   22.0623 H   0  0  0  0  0  0  0  0  0  0  0  0
    7.8717    3.5090   23.9804 H   0  0  0  0  0  0  0  0  0  0  0  0
    9.6858    3.9455   25.6002 H   0  0  0  0  0  0  0  0  0  0  0  0
   11.9482    2.8145   25.2482 H   0  0  0  0  0  0  0  0  0  0  0  0
  1  2  1  0
  2  3  2  0
  3  4  1  0
  4  5  2  0
  5  6  1  0
  6  7  2  0
  7  8  1  0
  8  9  1  0
  9 10  1  0
 10 11  2  0
 11 12  1  0
 12 13  1  0
 13 14  1  0
 14 15  1  0
 15 16  1  0
 16 17  1  0
 17 18  1  0
 18 19  1  0
 18 20  1  0
 17 21  1  0
 17 22  1  0
 15 23  1  0
 15 24  1  0
 14 25  1  0
 14 26  1  0
 13 27  1  0
 12 28  2  0
 28 29  1  0
 29 30  1  0
 30 31  2  0
 31 32  1  0
 32 33  2  0
 33 34  1  0
 34 35  2  0
 35 36  1  0
 33 37  1  0
 32 38  1  0
 31 39  1  0
  9 40  1  0
  9 41  1  0
  6 42  1  0
  5 43  1  0
  4 44  1  0
  3 45  1  0
  7  2  1  0
 29 10  1  0
 35 30  1  0
 18 13  1  0
M  END
>  <cnnaffinity>  (1) 
-6.26351

>  <filename>  (1) 
Clc1ccccc1OCc1nc(C2CCOCC2)nn1-c1cccnc1

$$$$
