
     RDKit          3D

 46 49  0  0  0  0  0  0  0  0999 V2000
    6.6759    1.6225   23.5009 Cl  0  0  0  0  0  0  0  0  0  0  0  0
    8.3455    1.6786   24.0002 C   0  0  0  0  0  0  0  0  0  0  0  0
    8.5351    1.4213   25.2853 N   0  0  0  0  0  0  0  0  0  0  0  0
    9.7937    1.3816   25.7363 C   0  0  0  0  0  0  0  0  0  0  0  0
   10.9107    1.6666   24.9452 C   0  0  0  0  0  0  0  0  0  0  0  0
   10.6822    1.9129   23.5917 C   0  0  0  0  0  0  0  0  0  0  0  0
    9.3788    1.9289   23.0694 C   0  0  0  0  0  0  0  0  0  0  0  0
    9.1958    1.9827   21.5692 C   0  0  0  0  0  0  0  0  0  0  0  0
    9.5368    0.6007   20.9359 C   0  0  0  0  0  0  0  0  0  0  0  0
    8.6385   -0.5095   21.3857 C   0  0  0  0  0  0  0  0  0  0  0  0
    8.8687   -1.3770   22.3567 N   0  0  0  0  0  0  0  0  0  0  0  0
    7.6609   -1.9825   22.5245 C   0  0  0  0  0  0  0  0  0  0  0  0
    7.3889   -2.9139   23.6773 C   0  0  0  0  0  0  0  0  0  0  0  0
    6.7090   -2.1644   24.8756 C   0  0  0  0  0  0  0  0  0  0  0  0
    6.0072   -3.1458   25.8471 C   0  0  0  0  0  0  0  0  0  0  0  0
    6.5158   -4.4568   25.7324 O   0  0  0  0  0  0  0  0  0  0  0  0
    6.2472   -5.0643   24.4825 C   0  0  0  0  0  0  0  0  0  0  0  0
    6.5477   -4.1481   23.2709 C   0  0  0  0  0  0  0  0  0  0  0  0
    7.0581   -4.7285   22.4937 H   0  0  0  0  0  0  0  0  0  0  0  0
    5.6039   -3.7984   22.8300 H   0  0  0  0  0  0  0  0  0  0  0  0
    6.8804   -5.9565   24.4827 H   0  0  0  0  0  0  0  0  0  0  0  0
    5.1962   -5.4034   24.4447 H   0  0  0  0  0  0  0  0  0  0  0  0
    4.9184   -3.1475   25.6600 H   0  0  0  0  0  0  0  0  0  0  0  0
    6.1582   -2.8695   26.8963 H   0  0  0  0  0  0  0  0  0  0  0  0
    7.4781   -1.5880   25.4035 H   0  0  0  0  0  0  0  0  0  0  0  0
    5.9600   -1.4408   24.5233 H   0  0  0  0  0  0  0  0  0  0  0  0
    8.3831   -3.2385   24.0068 H   0  0  0  0  0  0  0  0  0  0  0  0
    6.7256   -1.5916   21.6780 N   0  0  0  0  0  0  0  0  0  0  0  0
    7.3626   -0.6618   20.9243 N   0  0  0  0  0  0  0  0  0  0  0  0
    6.6674    0.0019   19.8796 C   0  0  0  0  0  0  0  0  0  0  0  0
    5.4518    0.6381   20.1530 C   0  0  0  0  0  0  0  0  0  0  0  0
    4.8099    1.3060   19.1075 C   0  0  0  0  0  0  0  0  0  0  0  0
    5.3968    1.2918   17.8369 C   0  0  0  0  0  0  0  0  0  0  0  0
    6.5417    0.6487   17.5606 N   0  0  0  0  0  0  0  0  0  0  0  0
    7.1623    0.0221   18.5638 C   0  0  0  0  0  0  0  0  0  0  0  0
    8.0971   -0.4847   18.3209 H   0  0  0  0  0  0  0  0  0  0  0  0
    4.9339    1.8200   17.0085 H   0  0  0  0  0  0  0  0  0  0  0  0
    3.8785    1.8416   19.2659 H   0  0  0  0  0  0  0  0  0  0  0  0
    5.0460    0.5971   21.1637 H   0  0  0  0  0  0  0  0  0  0  0  0
   10.5615    0.3147   21.2022 H   0  0  0  0  0  0  0  0  0  0  0  0
    9.4887    0.6629   19.8472 H   0  0  0  0  0  0  0  0  0  0  0  0
    8.1750    2.2874   21.3147 H   0  0  0  0  0  0  0  0  0  0  0  0
    9.8616    2.7415   21.1403 H   0  0  0  0  0  0  0  0  0  0  0  0
   11.5186    2.0370   22.9002 H   0  0  0  0  0  0  0  0  0  0  0  0
   11.9187    1.6646   25.3516 H   0  0  0  0  0  0  0  0  0  0  0  0
    9.8851    1.0570   26.7628 H   0  0  0  0  0  0  0  0  0  0  0  0
  1  2  1  0
  2  3  2  0
  3  4  1  0
  4  5  2  0
  5  6  1  0
  6  7  2  0
  7  8  1  0
  8  9  1  0
  9 10  1  0
 10 11  2  0
 11 12  1  0
 12 13  1  0
 13 14  1  0
 14 15  1  0
 15 16  1  0
 16 17  1  0
 17 18  1  0
 18 19  1  0
 18 20  1  0
 17 21  1  0
 17 22  1  0
 15 23  1  0
 15 24  1  0
 14 25  1  0
 14 26  1  0
 13 27  1  0
 12 28  2  0
 28 29  1  0
 29 30  1  0
 30 31  2  0
 31 32  1  0
 32 33  2  0
 33 34  1  0
 34 35  2  0
 35 36  1  0
 33 37  1  0
 32 38  1  0
 31 39  1  0
  9 40  1  0
  9 41  1  0
  8 42  1  0
  8 43  1  0
  6 44  1  0
  5 45  1  0
  4 46  1  0
  7  2  1  0
 29 10  1  0
 35 30  1  0
 18 13  1  0
M  END
>  <cnnaffinity>  (1) 
-6.11932

>  <filename>  (1) 
Clc1ncccc1CCc1nc(C2CCOCC2)nn1-c1cccnc1

$$$$
