
     RDKit          3D

 29 31  0  0  0  0  0  0  0  0999 V2000
    4.9178    1.7829   16.9915 H   0  0  0  0  0  0  0  0  0  0  0  0
    5.4019    1.2940   17.8357 C   0  0  0  0  0  0  0  0  0  0  0  0
    6.5653    0.6742   17.5783 N   0  0  0  0  0  0  0  0  0  0  0  0
    7.1763    0.0642   18.5974 C   0  0  0  0  0  0  0  0  0  0  0  0
    8.1137   -0.4322   18.3654 H   0  0  0  0  0  0  0  0  0  0  0  0
    6.6652    0.0086   19.9079 C   0  0  0  0  0  0  0  0  0  0  0  0
    7.3771   -0.6726   20.9308 N   0  0  0  0  0  0  0  0  0  0  0  0
    8.7549   -0.7920   21.0485 C   0  0  0  0  0  0  0  0  0  0  0  0
    9.4064   -0.3105   20.3270 H   0  0  0  0  0  0  0  0  0  0  0  0
    9.0198   -1.4982   22.1885 C   0  0  0  0  0  0  0  0  0  0  0  0
    9.9985   -1.7564   22.5726 H   0  0  0  0  0  0  0  0  0  0  0  0
    7.7748   -1.8516   22.7957 C   0  0  0  0  0  0  0  0  0  0  0  0
    7.5906   -2.6009   24.0496 C   0  0  0  0  0  0  0  0  0  0  0  0
    8.4113   -2.2791   25.1450 C   0  0  0  0  0  0  0  0  0  0  0  0
    9.1559   -1.4996   25.0162 H   0  0  0  0  0  0  0  0  0  0  0  0
    8.2698   -2.9190   26.3681 C   0  0  0  0  0  0  0  0  0  0  0  0
    8.9115   -2.6483   27.1982 H   0  0  0  0  0  0  0  0  0  0  0  0
    7.3021   -3.9103   26.5232 C   0  0  0  0  0  0  0  0  0  0  0  0
    7.1720   -4.4218   27.4684 H   0  0  0  0  0  0  0  0  0  0  0  0
    6.4877   -4.2680   25.4466 C   0  0  0  0  0  0  0  0  0  0  0  0
    5.3113   -5.5138   25.6897 Cl  0  0  0  0  0  0  0  0  0  0  0  0
    6.6338   -3.6300   24.2059 C   0  0  0  0  0  0  0  0  0  0  0  0
    5.6616   -4.1486   22.8670 Cl  0  0  0  0  0  0  0  0  0  0  0  0
    6.7988   -1.3244   21.9940 C   0  0  0  0  0  0  0  0  0  0  0  0
    5.7268   -1.3843   22.0925 H   0  0  0  0  0  0  0  0  0  0  0  0
    5.4387    0.6464   20.1649 C   0  0  0  0  0  0  0  0  0  0  0  0
    5.0099    0.6436   21.1708 H   0  0  0  0  0  0  0  0  0  0  0  0
    4.8098    1.3082   19.1055 C   0  0  0  0  0  0  0  0  0  0  0  0
    3.8759    1.8407   19.2611 H   0  0  0  0  0  0  0  0  0  0  0  0
  1  2  1  0
  2  3  2  0
  3  4  1  0
  4  5  1  0
  4  6  2  0
  6  7  1  0
  7  8  1  0
  8  9  1  0
  8 10  2  0
 10 11  1  0
 10 12  1  0
 12 13  1  0
 13 14  2  0
 14 15  1  0
 14 16  1  0
 16 17  1  0
 16 18  2  0
 18 19  1  0
 18 20  1  0
 20 21  1  0
 20 22  2  0
 22 23  1  0
 12 24  2  0
 24 25  1  0
  6 26  1  0
 26 27  1  0
 26 28  2  0
 28 29  1  0
 28  2  1  0
 24  7  1  0
 22 13  1  0
M  END
>  <cnnaffinity>  (1) 
-5.49502

>  <filename>  (1) 
Clc1cccc(-c2ccn(-c3cccnc3)c2)c1Cl

$$$$
