
     RDKit          3D

 29 31  0  0  0  0  0  0  0  0999 V2000
    6.6704    0.8354   22.5404 H   0  0  0  0  0  0  0  0  0  0  0  0
    7.1434   -0.1085   22.2717 C   0  0  0  0  0  0  0  0  0  0  0  0
    7.6774   -0.8153   23.2843 N   0  0  0  0  0  0  0  0  0  0  0  0
    8.3448   -1.9427   22.9490 C   0  0  0  0  0  0  0  0  0  0  0  0
    9.0136   -2.7856   23.9929 C   0  0  0  0  0  0  0  0  0  0  0  0
   10.3275   -3.2292   23.7249 C   0  0  0  0  0  0  0  0  0  0  0  0
   10.8516   -2.8828   22.8396 H   0  0  0  0  0  0  0  0  0  0  0  0
   10.9911   -4.1000   24.5822 C   0  0  0  0  0  0  0  0  0  0  0  0
   11.9960   -4.4018   24.3262 H   0  0  0  0  0  0  0  0  0  0  0  0
   10.3534   -4.5963   25.7153 C   0  0  0  0  0  0  0  0  0  0  0  0
   10.8165   -5.3370   26.3608 H   0  0  0  0  0  0  0  0  0  0  0  0
    9.0675   -4.1541   26.0291 C   0  0  0  0  0  0  0  0  0  0  0  0
    8.3521   -4.7711   27.4875 Cl  0  0  0  0  0  0  0  0  0  0  0  0
    8.4017   -3.2309   25.1908 C   0  0  0  0  0  0  0  0  0  0  0  0
    6.8205   -2.6941   25.6307 Cl  0  0  0  0  0  0  0  0  0  0  0  0
    8.4722   -2.3045   21.5773 C   0  0  0  0  0  0  0  0  0  0  0  0
    9.0253   -3.1963   21.3080 H   0  0  0  0  0  0  0  0  0  0  0  0
    7.9434   -1.6075   20.5655 N   0  0  0  0  0  0  0  0  0  0  0  0
    7.2201   -0.5167   20.9033 C   0  0  0  0  0  0  0  0  0  0  0  0
    6.5343    0.1827   19.7872 C   0  0  0  0  0  0  0  0  0  0  0  0
    7.0714    0.1444   18.4814 C   0  0  0  0  0  0  0  0  0  0  0  0
    7.9895   -0.3995   18.2792 H   0  0  0  0  0  0  0  0  0  0  0  0
    6.5187    0.7409   17.4220 N   0  0  0  0  0  0  0  0  0  0  0  0
    5.3661    1.4006   17.6187 C   0  0  0  0  0  0  0  0  0  0  0  0
    4.9296    1.8741   16.7419 H   0  0  0  0  0  0  0  0  0  0  0  0
    4.7263    1.4791   18.8575 C   0  0  0  0  0  0  0  0  0  0  0  0
    3.7869    2.0162   18.9469 H   0  0  0  0  0  0  0  0  0  0  0  0
    5.3202    0.8713   19.9630 C   0  0  0  0  0  0  0  0  0  0  0  0
    4.8294    0.9110   20.9362 H   0  0  0  0  0  0  0  0  0  0  0  0
  1  2  1  0
  2  3  2  0
  3  4  1  0
  4  5  1  0
  5  6  2  0
  6  7  1  0
  6  8  1  0
  8  9  1  0
  8 10  2  0
 10 11  1  0
 10 12  1  0
 12 13  1  0
 12 14  2  0
 14 15  1  0
  4 16  2  0
 16 17  1  0
 16 18  1  0
 18 19  2  0
 19 20  1  0
 20 21  2  0
 21 22  1  0
 21 23  1  0
 23 24  2  0
 24 25  1  0
 24 26  1  0
 26 27  1  0
 26 28  2  0
 28 29  1  0
 19  2  1  0
 28 20  1  0
 14  5  1  0
M  END
>  <cnnaffinity>  (1) 
-5.47318

>  <filename>  (1) 
Clc1cccc(-c2cnc(-c3cccnc3)cn2)c1Cl

$$$$
