
     RDKit          3D

 39 42  0  0  0  0  0  0  0  0999 V2000
    6.2866    3.7448   29.2238 Cl  0  0  0  0  0  0  0  0  0  0  0  0
    6.5926    3.0076   27.6738 C   0  0  0  0  0  0  0  0  0  0  0  0
    5.6955    2.0478   27.1817 C   0  0  0  0  0  0  0  0  0  0  0  0
    5.9472    1.4854   25.9329 C   0  0  0  0  0  0  0  0  0  0  0  0
    7.0854    1.9208   25.2262 C   0  0  0  0  0  0  0  0  0  0  0  0
    7.5168    1.4337   23.9167 C   0  0  0  0  0  0  0  0  0  0  0  0
    6.9473    0.4660   23.2260 N   0  0  0  0  0  0  0  0  0  0  0  0
    7.7624    0.3289   22.1482 N   0  0  0  0  0  0  0  0  0  0  0  0
    7.4079   -0.6067   21.0810 C   0  0  0  0  0  0  0  0  0  0  0  0
    6.6929    0.0524   19.9199 C   0  0  0  0  0  0  0  0  0  0  0  0
    5.4766    0.7149   20.1280 C   0  0  0  0  0  0  0  0  0  0  0  0
    4.8589    1.3330   19.0388 C   0  0  0  0  0  0  0  0  0  0  0  0
    5.4727    1.2746   17.7841 C   0  0  0  0  0  0  0  0  0  0  0  0
    6.6254    0.6258   17.5648 N   0  0  0  0  0  0  0  0  0  0  0  0
    7.2081    0.0366   18.6171 C   0  0  0  0  0  0  0  0  0  0  0  0
    8.1376   -0.4914   18.4000 H   0  0  0  0  0  0  0  0  0  0  0  0
    5.0135    1.7553   16.9180 H   0  0  0  0  0  0  0  0  0  0  0  0
    3.9242    1.8683   19.1479 H   0  0  0  0  0  0  0  0  0  0  0  0
    5.0355    0.7507   21.1275 H   0  0  0  0  0  0  0  0  0  0  0  0
    6.7634   -1.3561   21.5477 H   0  0  0  0  0  0  0  0  0  0  0  0
    8.3053   -1.1339   20.7368 H   0  0  0  0  0  0  0  0  0  0  0  0
    8.7628    1.2314   22.2371 C   0  0  0  0  0  0  0  0  0  0  0  0
    9.9311    1.3120   21.3038 C   0  0  0  0  0  0  0  0  0  0  0  0
   11.0385    0.3582   21.6531 C   0  0  0  0  0  0  0  0  0  0  0  0
   11.9792    0.3446   22.6531 C   0  0  0  0  0  0  0  0  0  0  0  0
   12.7917   -0.7569   22.5312 N   0  0  0  0  0  0  0  0  0  0  0  0
   12.3501   -1.4144   21.4932 C   0  0  0  0  0  0  0  0  0  0  0  0
   11.2752   -0.7895   20.9428 N   0  0  0  0  0  0  0  0  0  0  0  0
   10.8220   -1.0911   20.0931 H   0  0  0  0  0  0  0  0  0  0  0  0
   12.7748   -2.3209   21.0746 H   0  0  0  0  0  0  0  0  0  0  0  0
   12.1444    1.0663   23.4471 H   0  0  0  0  0  0  0  0  0  0  0  0
   10.3128    2.3341   21.3593 H   0  0  0  0  0  0  0  0  0  0  0  0
    9.6112    1.1236   20.2742 H   0  0  0  0  0  0  0  0  0  0  0  0
    8.6310    1.9514   23.3287 N   0  0  0  0  0  0  0  0  0  0  0  0
    7.9137    2.8737   25.8331 C   0  0  0  0  0  0  0  0  0  0  0  0
    7.6745    3.4126   27.0322 N   0  0  0  0  0  0  0  0  0  0  0  0
    8.8180    3.2037   25.3276 H   0  0  0  0  0  0  0  0  0  0  0  0
    5.2904    0.7094   25.5315 H   0  0  0  0  0  0  0  0  0  0  0  0
    4.8452    1.7630   27.7871 H   0  0  0  0  0  0  0  0  0  0  0  0
  1  2  1  0
  2  3  2  0
  3  4  1  0
  4  5  2  0
  5  6  1  0
  6  7  2  0
  7  8  1  0
  8  9  1  0
  9 10  1  0
 10 11  2  0
 11 12  1  0
 12 13  2  0
 13 14  1  0
 14 15  2  0
 15 16  1  0
 13 17  1  0
 12 18  1  0
 11 19  1  0
  9 20  1  0
  9 21  1  0
  8 22  1  0
 22 23  1  0
 23 24  1  0
 24 25  2  0
 25 26  1  0
 26 27  2  0
 27 28  1  0
 28 29  1  0
 27 30  1  0
 25 31  1  0
 23 32  1  0
 23 33  1  0
 22 34  2  0
  5 35  1  0
 35 36  2  0
 35 37  1  0
  4 38  1  0
  3 39  1  0
 36  2  1  0
 34  6  1  0
 15 10  1  0
 28 24  1  0
M  END
>  <cnnaffinity>  (1) 
-5.95295

>  <filename>  (1) 
Clc1ccc(-c2nc(Cc3cnc[nH]3)n(Cc3cccnc3)n2)cn1

$$$$
