
     RDKit          3D

 32 34  0  0  0  0  0  0  0  0999 V2000
    9.4092    0.9493   20.3407 H   0  0  0  0  0  0  0  0  0  0  0  0
    9.7002    0.0737   20.9320 C   0  0  0  0  0  0  0  0  0  0  0  0
    8.7559   -0.8024   21.3278 C   0  0  0  0  0  0  0  0  0  0  0  0
    7.2989   -0.8136   21.0073 C   0  0  0  0  0  0  0  0  0  0  0  0
    6.6463   -0.0294   19.9310 C   0  0  0  0  0  0  0  0  0  0  0  0
    7.2170    0.0083   18.6527 C   0  0  0  0  0  0  0  0  0  0  0  0
    8.1583   -0.5070   18.4594 H   0  0  0  0  0  0  0  0  0  0  0  0
    6.6752    0.6501   17.6100 N   0  0  0  0  0  0  0  0  0  0  0  0
    5.5208    1.2996   17.8199 C   0  0  0  0  0  0  0  0  0  0  0  0
    5.0912    1.8050   16.9581 H   0  0  0  0  0  0  0  0  0  0  0  0
    4.8535    1.3120   19.0529 C   0  0  0  0  0  0  0  0  0  0  0  0
    3.9209    1.8587   19.1512 H   0  0  0  0  0  0  0  0  0  0  0  0
    5.4164    0.6226   20.1252 C   0  0  0  0  0  0  0  0  0  0  0  0
    4.9223    0.5865   21.0982 H   0  0  0  0  0  0  0  0  0  0  0  0
    6.6122   -1.5971   21.7547 N   0  0  0  0  0  0  0  0  0  0  0  0
    7.4771   -2.2110   22.7611 C   0  0  0  0  0  0  0  0  0  0  0  0
    7.2761   -3.2834   22.8148 H   0  0  0  0  0  0  0  0  0  0  0  0
    7.2107   -1.7892   23.7350 H   0  0  0  0  0  0  0  0  0  0  0  0
    8.9365   -1.8755   22.3881 C   0  0  0  0  0  0  0  0  0  0  0  0
    9.5239   -1.5252   23.2413 H   0  0  0  0  0  0  0  0  0  0  0  0
    9.4369   -2.7571   21.9772 H   0  0  0  0  0  0  0  0  0  0  0  0
   11.1233    0.0454   21.3824 C   0  0  0  0  0  0  0  0  0  0  0  0
   11.8929   -1.1401   21.4054 C   0  0  0  0  0  0  0  0  0  0  0  0
   11.4325   -2.0494   21.0379 H   0  0  0  0  0  0  0  0  0  0  0  0
   13.2041   -1.1688   21.8937 C   0  0  0  0  0  0  0  0  0  0  0  0
   13.7635   -2.0983   21.8815 H   0  0  0  0  0  0  0  0  0  0  0  0
   13.7849   -0.0089   22.4166 C   0  0  0  0  0  0  0  0  0  0  0  0
   14.7982   -0.0283   22.8145 H   0  0  0  0  0  0  0  0  0  0  0  0
   13.0530    1.1822   22.4183 C   0  0  0  0  0  0  0  0  0  0  0  0
   13.4645    2.0950   22.8423 H   0  0  0  0  0  0  0  0  0  0  0  0
   11.7628    1.2067   21.8711 C   0  0  0  0  0  0  0  0  0  0  0  0
   10.9154    2.7290   21.8825 Cl  0  0  0  0  0  0  0  0  0  0  0  0
  1  2  1  0
  2  3  2  3
  3  4  1  0
  4  5  1  0
  5  6  2  0
  6  7  1  0
  6  8  1  0
  8  9  2  0
  9 10  1  0
  9 11  1  0
 11 12  1  0
 11 13  2  0
 13 14  1  0
  4 15  2  0
 15 16  1  0
 16 17  1  0
 16 18  1  0
 16 19  1  0
 19 20  1  0
 19 21  1  0
  2 22  1  0
 22 23  2  0
 23 24  1  0
 23 25  1  0
 25 26  1  0
 25 27  2  0
 27 28  1  0
 27 29  1  0
 29 30  1  0
 29 31  2  0
 31 32  1  0
 19  3  1  0
 31 22  1  0
 13  5  1  0
M  END
>  <cnnaffinity>  (1) 
-5.94182

>  <filename>  (1) 
Clc1ccccc1C=C1CCN=C1c1cccnc1

$$$$
