
     RDKit          3D

 35 37  0  0  0  0  0  0  0  0999 V2000
    8.3828    1.1074   23.7173 H   0  0  0  0  0  0  0  0  0  0  0  0
    8.0659    0.9771   22.6765 C   0  0  0  0  0  0  0  0  0  0  0  0
    7.8762   -0.2789   22.2463 C   0  0  0  0  0  0  0  0  0  0  0  0
    7.3302   -0.8100   20.9743 C   0  0  0  0  0  0  0  0  0  0  0  0
    6.6244   -0.0197   19.9323 C   0  0  0  0  0  0  0  0  0  0  0  0
    7.1497   -0.0450   18.6376 C   0  0  0  0  0  0  0  0  0  0  0  0
    8.0486   -0.6209   18.4233 H   0  0  0  0  0  0  0  0  0  0  0  0
    6.6162    0.6154   17.6065 N   0  0  0  0  0  0  0  0  0  0  0  0
    5.4866    1.3060   17.8337 C   0  0  0  0  0  0  0  0  0  0  0  0
    5.0697    1.8285   16.9750 H   0  0  0  0  0  0  0  0  0  0  0  0
    4.8432    1.3442   19.0749 C   0  0  0  0  0  0  0  0  0  0  0  0
    3.9166    1.8985   19.1848 H   0  0  0  0  0  0  0  0  0  0  0  0
    5.4218    0.6675   20.1509 C   0  0  0  0  0  0  0  0  0  0  0  0
    4.9444    0.6661   21.1326 H   0  0  0  0  0  0  0  0  0  0  0  0
    7.4923   -2.0723   20.8116 N   0  0  0  0  0  0  0  0  0  0  0  0
    8.0970   -2.6532   22.0146 C   0  0  0  0  0  0  0  0  0  0  0  0
    7.4303   -3.4274   22.4101 H   0  0  0  0  0  0  0  0  0  0  0  0
    9.0397   -3.1298   21.7266 H   0  0  0  0  0  0  0  0  0  0  0  0
    8.3093   -1.5090   23.0294 C   0  0  0  0  0  0  0  0  0  0  0  0
    9.3518   -1.4231   23.3524 H   0  0  0  0  0  0  0  0  0  0  0  0
    7.6921   -1.6363   23.9249 H   0  0  0  0  0  0  0  0  0  0  0  0
    7.9096    2.2490   21.8670 C   0  0  0  0  0  0  0  0  0  0  0  0
    8.2738    2.0683   20.8430 H   0  0  0  0  0  0  0  0  0  0  0  0
    6.8388    2.4574   21.7430 H   0  0  0  0  0  0  0  0  0  0  0  0
    8.5959    3.4612   22.5038 C   0  0  0  0  0  0  0  0  0  0  0  0
    7.8546    4.4772   23.1275 C   0  0  0  0  0  0  0  0  0  0  0  0
    6.7867    4.3375   23.2536 H   0  0  0  0  0  0  0  0  0  0  0  0
    8.4757    5.6161   23.6582 C   0  0  0  0  0  0  0  0  0  0  0  0
    7.8857    6.3684   24.1783 H   0  0  0  0  0  0  0  0  0  0  0  0
    9.8597    5.7804   23.5285 C   0  0  0  0  0  0  0  0  0  0  0  0
   10.3659    6.6674   23.8969 H   0  0  0  0  0  0  0  0  0  0  0  0
   10.6080    4.7529   22.9474 C   0  0  0  0  0  0  0  0  0  0  0  0
   12.3315    4.9416   22.7575 Cl  0  0  0  0  0  0  0  0  0  0  0  0
    9.9958    3.5835   22.4812 C   0  0  0  0  0  0  0  0  0  0  0  0
   10.6020    2.7860   22.0649 H   0  0  0  0  0  0  0  0  0  0  0  0
  1  2  1  0
  2  3  2  3
  3  4  1  0
  4  5  1  0
  5  6  2  0
  6  7  1  0
  6  8  1  0
  8  9  2  0
  9 10  1  0
  9 11  1  0
 11 12  1  0
 11 13  2  0
 13 14  1  0
  4 15  2  0
 15 16  1  0
 16 17  1  0
 16 18  1  0
 16 19  1  0
 19 20  1  0
 19 21  1  0
  2 22  1  0
 22 23  1  0
 22 24  1  0
 22 25  1  0
 25 26  2  0
 26 27  1  0
 26 28  1  0
 28 29  1  0
 28 30  2  0
 30 31  1  0
 30 32  1  0
 32 33  1  0
 32 34  2  0
 34 35  1  0
 19  3  1  0
 34 25  1  0
 13  5  1  0
M  END
>  <cnnaffinity>  (1) 
-5.6028

>  <filename>  (1) 
Clc1cccc(CC=C2CCN=C2c2cccnc2)c1

$$$$
