
     RDKit          3D

 44 48  0  0  0  0  0  0  0  0999 V2000
   15.0551   -1.3047   20.0519 Cl  0  0  0  0  0  0  0  0  0  0  0  0
   13.7600   -1.1687   21.1897 C   0  0  0  0  0  0  0  0  0  0  0  0
   12.6879   -1.9848   20.8666 C   0  0  0  0  0  0  0  0  0  0  0  0
   11.4523   -1.7750   21.4471 C   0  0  0  0  0  0  0  0  0  0  0  0
   11.2602   -0.6840   22.3216 C   0  0  0  0  0  0  0  0  0  0  0  0
    9.8623   -0.2552   22.5612 C   0  0  0  0  0  0  0  0  0  0  0  0
    8.8829   -0.9358   21.9772 N   0  0  0  0  0  0  0  0  0  0  0  0
    7.7972   -0.1745   22.1581 N   0  0  0  0  0  0  0  0  0  0  0  0
    6.5608   -0.5568   21.4867 C   0  0  0  0  0  0  0  0  0  0  0  0
    6.2677    0.1592   20.1845 C   0  0  0  0  0  0  0  0  0  0  0  0
    5.0723    0.8576   19.9789 C   0  0  0  0  0  0  0  0  0  0  0  0
    4.8650    1.4840   18.7469 C   0  0  0  0  0  0  0  0  0  0  0  0
    5.8475    1.3608   17.7589 C   0  0  0  0  0  0  0  0  0  0  0  0
    6.9885    0.6742   17.9302 N   0  0  0  0  0  0  0  0  0  0  0  0
    7.1824    0.0904   19.1195 C   0  0  0  0  0  0  0  0  0  0  0  0
    8.1028   -0.4857   19.2385 H   0  0  0  0  0  0  0  0  0  0  0  0
    5.7038    1.8045   16.7747 H   0  0  0  0  0  0  0  0  0  0  0  0
    3.9629    2.0520   18.5417 H   0  0  0  0  0  0  0  0  0  0  0  0
    4.3120    0.8990   20.7654 H   0  0  0  0  0  0  0  0  0  0  0  0
    5.7421   -0.4027   22.1846 H   0  0  0  0  0  0  0  0  0  0  0  0
    6.6501   -1.6316   21.3078 H   0  0  0  0  0  0  0  0  0  0  0  0
    8.1527    0.9503   22.8271 C   0  0  0  0  0  0  0  0  0  0  0  0
    7.1123    1.9598   23.2696 C   0  0  0  0  0  0  0  0  0  0  0  0
    6.5865    1.6400   24.7074 C   0  0  0  0  0  0  0  0  0  0  0  0
    7.6267    2.3386   25.6169 C   0  0  0  0  0  0  0  0  0  0  0  0
    8.0480    3.4986   24.7759 C   0  0  0  0  0  0  0  0  0  0  0  0
    8.7212    4.6063   24.9490 N   0  0  0  0  0  0  0  0  0  0  0  0
    8.7834    5.1551   23.6820 C   0  0  0  0  0  0  0  0  0  0  0  0
    8.1348    4.3707   22.7601 C   0  0  0  0  0  0  0  0  0  0  0  0
    7.6720    3.2950   23.4870 N   0  0  0  0  0  0  0  0  0  0  0  0
    7.9451    4.5038   21.7044 H   0  0  0  0  0  0  0  0  0  0  0  0
    9.3132    6.0782   23.4885 H   0  0  0  0  0  0  0  0  0  0  0  0
    7.2534    2.6325   26.5985 H   0  0  0  0  0  0  0  0  0  0  0  0
    8.5026    1.6916   25.7555 H   0  0  0  0  0  0  0  0  0  0  0  0
    5.5829    2.0652   24.8389 H   0  0  0  0  0  0  0  0  0  0  0  0
    6.5172    0.5611   24.8901 H   0  0  0  0  0  0  0  0  0  0  0  0
    6.3200    2.0173   22.5189 H   0  0  0  0  0  0  0  0  0  0  0  0
    9.4448    0.9122   23.1202 N   0  0  0  0  0  0  0  0  0  0  0  0
   12.3833    0.0649   22.7293 C   0  0  0  0  0  0  0  0  0  0  0  0
   13.6470   -0.1713   22.1665 C   0  0  0  0  0  0  0  0  0  0  0  0
   14.4900    0.4774   22.3937 H   0  0  0  0  0  0  0  0  0  0  0  0
   12.2684    0.8622   23.4612 H   0  0  0  0  0  0  0  0  0  0  0  0
   10.6034   -2.3878   21.1508 H   0  0  0  0  0  0  0  0  0  0  0  0
   12.8464   -2.6979   20.0662 H   0  0  0  0  0  0  0  0  0  0  0  0
  1  2  1  0
  2  3  2  0
  3  4  1  0
  4  5  2  0
  5  6  1  0
  6  7  2  0
  7  8  1  0
  8  9  1  0
  9 10  1  0
 10 11  2  0
 11 12  1  0
 12 13  2  0
 13 14  1  0
 14 15  2  0
 15 16  1  0
 13 17  1  0
 12 18  1  0
 11 19  1  0
  9 20  1  0
  9 21  1  0
  8 22  1  0
 22 23  1  0
 23 24  1  0
 24 25  1  0
 25 26  1  0
 26 27  2  0
 27 28  1  0
 28 29  2  0
 29 30  1  0
 29 31  1  0
 28 32  1  0
 25 33  1  0
 25 34  1  0
 24 35  1  0
 24 36  1  0
 23 37  1  0
 22 38  2  0
  5 39  1  0
 39 40  2  0
 40 41  1  0
 39 42  1  0
  4 43  1  0
  3 44  1  0
 40  2  1  0
 38  6  1  0
 15 10  1  0
 30 23  1  0
 30 26  1  0
M  END
>  <cnnaffinity>  (1) 
-6.74683

>  <filename>  (1) 
Clc1ccc(-c2nc(C3CCc4nccn43)n(Cc3cccnc3)n2)cc1

$$$$
