
     RDKit          3D

 30 32  0  0  0  0  0  0  0  0999 V2000
    4.9401    1.8163   16.9529 H   0  0  0  0  0  0  0  0  0  0  0  0
    5.4198    1.3124   17.7880 C   0  0  0  0  0  0  0  0  0  0  0  0
    6.5757    0.6889   17.5171 N   0  0  0  0  0  0  0  0  0  0  0  0
    7.1928    0.0531   18.5206 C   0  0  0  0  0  0  0  0  0  0  0  0
    8.1310   -0.4417   18.2714 H   0  0  0  0  0  0  0  0  0  0  0  0
    6.7008    0.0010   19.8405 C   0  0  0  0  0  0  0  0  0  0  0  0
    7.3968   -0.6677   20.8590 N   0  0  0  0  0  0  0  0  0  0  0  0
    6.9329   -0.5834   22.1169 N   0  0  0  0  0  0  0  0  0  0  0  0
    7.7725   -1.1435   22.9344 C   0  0  0  0  0  0  0  0  0  0  0  0
    7.5008   -1.3027   24.3682 C   0  0  0  0  0  0  0  0  0  0  0  0
    8.2519   -2.2407   25.1150 C   0  0  0  0  0  0  0  0  0  0  0  0
    9.0931   -2.7375   24.6403 H   0  0  0  0  0  0  0  0  0  0  0  0
    7.8928   -2.6200   26.4055 C   0  0  0  0  0  0  0  0  0  0  0  0
    8.4795   -3.3498   26.9667 H   0  0  0  0  0  0  0  0  0  0  0  0
    6.7308   -2.0840   26.9581 C   0  0  0  0  0  0  0  0  0  0  0  0
    6.3331   -2.4188   27.9079 H   0  0  0  0  0  0  0  0  0  0  0  0
    6.0185   -1.0910   26.2834 C   0  0  0  0  0  0  0  0  0  0  0  0
    4.5866   -0.4785   27.0438 Cl  0  0  0  0  0  0  0  0  0  0  0  0
    6.4340   -0.6350   25.0210 C   0  0  0  0  0  0  0  0  0  0  0  0
    5.6450    0.7438   24.3324 Cl  0  0  0  0  0  0  0  0  0  0  0  0
    8.9537   -1.7351   22.1997 C   0  0  0  0  0  0  0  0  0  0  0  0
    8.8988   -2.8329   22.2051 H   0  0  0  0  0  0  0  0  0  0  0  0
    9.9185   -1.4564   22.6279 H   0  0  0  0  0  0  0  0  0  0  0  0
    8.7622   -1.1739   20.7865 C   0  0  0  0  0  0  0  0  0  0  0  0
    8.8780   -1.9273   20.0054 H   0  0  0  0  0  0  0  0  0  0  0  0
    9.4602   -0.3581   20.5495 H   0  0  0  0  0  0  0  0  0  0  0  0
    5.4775    0.6534   20.1090 C   0  0  0  0  0  0  0  0  0  0  0  0
    5.0805    0.6435   21.1273 H   0  0  0  0  0  0  0  0  0  0  0  0
    4.8331    1.3127   19.0614 C   0  0  0  0  0  0  0  0  0  0  0  0
    3.8951    1.8346   19.2222 H   0  0  0  0  0  0  0  0  0  0  0  0
  1  2  1  0
  2  3  2  0
  3  4  1  0
  4  5  1  0
  4  6  2  0
  6  7  1  0
  7  8  1  0
  8  9  2  0
  9 10  1  0
 10 11  2  0
 11 12  1  0
 11 13  1  0
 13 14  1  0
 13 15  2  0
 15 16  1  0
 15 17  1  0
 17 18  1  0
 17 19  2  0
 19 20  1  0
  9 21  1  0
 21 22  1  0
 21 23  1  0
 21 24  1  0
 24 25  1  0
 24 26  1  0
  6 27  1  0
 27 28  1  0
 27 29  2  0
 29 30  1  0
 29  2  1  0
 24  7  1  0
 19 10  1  0
M  END
>  <cnnaffinity>  (1) 
-5.35875

>  <filename>  (1) 
Clc1cccc(C2=NN(c3cccnc3)CC2)c1Cl

$$$$
