
     RDKit          3D

 19 20  0  0  0  0  0  0  0  0999 V2000
    4.9181    1.7853   16.9885 H   0  0  0  0  0  0  0  0  0  0  0  0
    5.4004    1.2960   17.8341 C   0  0  0  0  0  0  0  0  0  0  0  0
    6.5619    0.6739   17.5764 N   0  0  0  0  0  0  0  0  0  0  0  0
    7.1766    0.0584   18.5923 C   0  0  0  0  0  0  0  0  0  0  0  0
    8.1171   -0.4298   18.3600 H   0  0  0  0  0  0  0  0  0  0  0  0
    6.6609    0.0092   19.9064 C   0  0  0  0  0  0  0  0  0  0  0  0
    7.3399   -0.6922   20.9509 N   0  0  0  0  0  0  0  0  0  0  0  0
    6.7472   -1.5815   21.8284 C   0  0  0  0  0  0  0  0  0  0  0  0
    5.6852   -1.7883   21.7414 H   0  0  0  0  0  0  0  0  0  0  0  0
    7.7015   -2.0477   22.6916 C   0  0  0  0  0  0  0  0  0  0  0  0
    7.5354   -2.7451   23.5014 H   0  0  0  0  0  0  0  0  0  0  0  0
    8.9400   -1.4300   22.3552 C   0  0  0  0  0  0  0  0  0  0  0  0
    9.9131   -1.5361   22.8253 H   0  0  0  0  0  0  0  0  0  0  0  0
    8.6762   -0.6058   21.3003 C   0  0  0  0  0  0  0  0  0  0  0  0
    9.7273    0.5096   20.5494 Cl  0  0  0  0  0  0  0  0  0  0  0  0
    5.4385    0.6509   20.1609 C   0  0  0  0  0  0  0  0  0  0  0  0
    5.0138    0.6351   21.1679 H   0  0  0  0  0  0  0  0  0  0  0  0
    4.8056    1.3131   19.1035 C   0  0  0  0  0  0  0  0  0  0  0  0
    3.8710    1.8448   19.2591 H   0  0  0  0  0  0  0  0  0  0  0  0
  1  2  1  0
  2  3  2  0
  3  4  1  0
  4  5  1  0
  4  6  2  0
  6  7  1  0
  7  8  1  0
  8  9  1  0
  8 10  2  0
 10 11  1  0
 10 12  1  0
 12 13  1  0
 12 14  2  0
 14 15  1  0
  6 16  1  0
 16 17  1  0
 16 18  2  0
 18 19  1  0
 18  2  1  0
 14  7  1  0
M  END
>  <cnnaffinity>  (1) 
-3.84528

>  <filename>  (1) 
Clc1cccn1-c1cccnc1

$$$$
