
     RDKit          3D

 41 44  0  0  0  0  0  0  0  0999 V2000
   14.8513   -1.5524   19.8587 Cl  0  0  0  0  0  0  0  0  0  0  0  0
   14.5148   -0.9053   22.4821 C   0  0  0  0  0  0  0  0  0  0  0  0
   13.9970   -1.8143   21.4680 C   0  0  0  0  0  0  0  0  0  0  0  0
   12.5447   -1.5511   21.3566 C   0  0  0  0  0  0  0  0  0  0  0  0
   11.9816   -0.4714   22.0257 C   0  0  0  0  0  0  0  0  0  0  0  0
   10.5714   -0.1218   21.8296 C   0  0  0  0  0  0  0  0  0  0  0  0
    9.6745   -0.9089   21.2701 N   0  0  0  0  0  0  0  0  0  0  0  0
    8.5161   -0.2353   21.4732 N   0  0  0  0  0  0  0  0  0  0  0  0
    7.2608   -0.8021   20.9798 C   0  0  0  0  0  0  0  0  0  0  0  0
    6.6060   -0.0008   19.8742 C   0  0  0  0  0  0  0  0  0  0  0  0
    5.3778    0.6483   20.0450 C   0  0  0  0  0  0  0  0  0  0  0  0
    4.8227    1.3438   18.9681 C   0  0  0  0  0  0  0  0  0  0  0  0
    5.5139    1.3583   17.7542 C   0  0  0  0  0  0  0  0  0  0  0  0
    6.6952    0.7475   17.5697 N   0  0  0  0  0  0  0  0  0  0  0  0
    7.2231    0.0990   18.6156 C   0  0  0  0  0  0  0  0  0  0  0  0
    8.1829   -0.3873   18.4396 H   0  0  0  0  0  0  0  0  0  0  0  0
    5.0983    1.8737   16.8889 H   0  0  0  0  0  0  0  0  0  0  0  0
    3.8858    1.8818   19.0599 H   0  0  0  0  0  0  0  0  0  0  0  0
    4.8576    0.6120   21.0048 H   0  0  0  0  0  0  0  0  0  0  0  0
    7.5086   -1.8137   20.6394 H   0  0  0  0  0  0  0  0  0  0  0  0
    6.5687   -0.9184   21.8202 H   0  0  0  0  0  0  0  0  0  0  0  0
    8.7905    0.9247   22.1228 C   0  0  0  0  0  0  0  0  0  0  0  0
    7.8158    1.7812   22.8461 C   0  0  0  0  0  0  0  0  0  0  0  0
    7.5323    1.1037   24.1575 C   0  0  0  0  0  0  0  0  0  0  0  0
    6.3028    0.4859   24.4082 C   0  0  0  0  0  0  0  0  0  0  0  0
    6.1018   -0.1630   25.6276 C   0  0  0  0  0  0  0  0  0  0  0  0
    7.1593   -0.1863   26.5403 C   0  0  0  0  0  0  0  0  0  0  0  0
    8.3647    0.4309   26.1868 C   0  0  0  0  0  0  0  0  0  0  0  0
    8.5501    1.0683   25.0270 N   0  0  0  0  0  0  0  0  0  0  0  0
    9.2229    0.3979   26.8557 H   0  0  0  0  0  0  0  0  0  0  0  0
    7.0696   -0.6625   27.5080 H   0  0  0  0  0  0  0  0  0  0  0  0
    5.1460   -0.6333   25.8547 H   0  0  0  0  0  0  0  0  0  0  0  0
    5.5266    0.5264   23.6521 H   0  0  0  0  0  0  0  0  0  0  0  0
    6.9043    1.9403   22.2658 H   0  0  0  0  0  0  0  0  0  0  0  0
    8.3070    2.7360   23.0322 H   0  0  0  0  0  0  0  0  0  0  0  0
   10.0875    1.0382   22.3146 N   0  0  0  0  0  0  0  0  0  0  0  0
   12.7503    0.2766   22.9266 C   0  0  0  0  0  0  0  0  0  0  0  0
   14.1518    0.0146   23.2075 N   0  0  0  0  0  0  0  0  0  0  0  0
   12.3218    1.0721   23.5274 H   0  0  0  0  0  0  0  0  0  0  0  0
   11.9884   -2.1902   20.6867 H   0  0  0  0  0  0  0  0  0  0  0  0
   14.1995   -2.8509   21.7736 H   0  0  0  0  0  0  0  0  0  0  0  0
  1  2  1  0
  2  3  2  0
  3  4  1  0
  4  5  2  0
  5  6  1  0
  6  7  2  0
  7  8  1  0
  8  9  1  0
  9 10  1  0
 10 11  2  0
 11 12  1  0
 12 13  2  0
 13 14  1  0
 14 15  2  0
 15 16  1  0
 13 17  1  0
 12 18  1  0
 11 19  1  0
  9 20  1  0
  9 21  1  0
  8 22  1  0
 22 23  1  0
 23 24  1  0
 24 25  2  0
 25 26  1  0
 26 27  2  0
 27 28  1  0
 28 29  2  0
 28 30  1  0
 27 31  1  0
 26 32  1  0
 25 33  1  0
 23 34  1  0
 23 35  1  0
 22 36  2  0
  5 37  1  0
 37 38  2  0
 37 39  1  0
  4 40  1  0
  3 41  1  0
 38  2  1  0
 36  6  1  0
 15 10  1  0
 29 24  1  0
M  END
>  <cnnaffinity>  (1) 
-6.76192

>  <filename>  (1) 
Clc1ccc(-c2nc(Cc3ccccn3)n(Cc3cccnc3)n2)cn1

$$$$
