
     RDKit          3D

 28 30  0  0  0  0  0  0  0  0999 V2000
    4.9144    1.7871   16.9901 H   0  0  0  0  0  0  0  0  0  0  0  0
    5.3997    1.2983   17.8275 C   0  0  0  0  0  0  0  0  0  0  0  0
    6.5627    0.6858   17.5486 N   0  0  0  0  0  0  0  0  0  0  0  0
    7.1610    0.0578   18.5660 C   0  0  0  0  0  0  0  0  0  0  0  0
    8.1202   -0.4112   18.3536 H   0  0  0  0  0  0  0  0  0  0  0  0
    6.6464    0.0003   19.8785 C   0  0  0  0  0  0  0  0  0  0  0  0
    7.3619   -0.6734   20.9539 C   0  0  0  0  0  0  0  0  0  0  0  0
    7.5087   -0.3640   22.2964 C   0  0  0  0  0  0  0  0  0  0  0  0
    7.0327    0.8586   22.9724 C   0  0  0  0  0  0  0  0  0  0  0  0
    6.1534    0.7353   24.0603 C   0  0  0  0  0  0  0  0  0  0  0  0
    5.8886   -0.2615   24.3984 H   0  0  0  0  0  0  0  0  0  0  0  0
    5.6327    1.8557   24.6965 C   0  0  0  0  0  0  0  0  0  0  0  0
    4.9690    1.7313   25.5455 H   0  0  0  0  0  0  0  0  0  0  0  0
    5.9739    3.1350   24.2569 C   0  0  0  0  0  0  0  0  0  0  0  0
    5.5798    4.0188   24.7463 H   0  0  0  0  0  0  0  0  0  0  0  0
    6.8464    3.2898   23.1780 C   0  0  0  0  0  0  0  0  0  0  0  0
    7.2438    4.9051   22.6859 Cl  0  0  0  0  0  0  0  0  0  0  0  0
    7.3857    2.1598   22.5374 C   0  0  0  0  0  0  0  0  0  0  0  0
    8.5106    2.3769   21.2411 Cl  0  0  0  0  0  0  0  0  0  0  0  0
    8.1887   -1.3717   22.9344 N   0  0  0  0  0  0  0  0  0  0  0  0
    8.4941   -2.2439   22.0148 C   0  0  0  0  0  0  0  0  0  0  0  0
    9.0386   -3.1695   22.1783 H   0  0  0  0  0  0  0  0  0  0  0  0
    8.0345   -1.8593   20.7960 N   0  0  0  0  0  0  0  0  0  0  0  0
    8.0703   -2.3914   19.9454 H   0  0  0  0  0  0  0  0  0  0  0  0
    5.4332    0.6570   20.1477 C   0  0  0  0  0  0  0  0  0  0  0  0
    5.0175    0.6319   21.1618 H   0  0  0  0  0  0  0  0  0  0  0  0
    4.7992    1.3150   19.0957 C   0  0  0  0  0  0  0  0  0  0  0  0
    3.8686    1.8480   19.2543 H   0  0  0  0  0  0  0  0  0  0  0  0
  1  2  1  0
  2  3  2  0
  3  4  1  0
  4  5  1  0
  4  6  2  0
  6  7  1  0
  7  8  2  0
  8  9  1  0
  9 10  2  0
 10 11  1  0
 10 12  1  0
 12 13  1  0
 12 14  2  0
 14 15  1  0
 14 16  1  0
 16 17  1  0
 16 18  2  0
 18 19  1  0
  8 20  1  0
 20 21  2  0
 21 22  1  0
 21 23  1  0
 23 24  1  0
  6 25  1  0
 25 26  1  0
 25 27  2  0
 27 28  1  0
 27  2  1  0
 23  7  1  0
 18  9  1  0
M  END
>  <cnnaffinity>  (1) 
-4.86178

>  <filename>  (1) 
Clc1cccc(-c2nc[nH]c2-c2cccnc2)c1Cl

$$$$
