
     RDKit          3D

 25 26  0  0  0  0  0  0  0  0999 V2000
    4.9640    1.8033   16.9667 H   0  0  0  0  0  0  0  0  0  0  0  0
    5.4282    1.3030   17.8134 C   0  0  0  0  0  0  0  0  0  0  0  0
    6.5904    0.6779   17.5697 N   0  0  0  0  0  0  0  0  0  0  0  0
    7.1675    0.0169   18.5852 C   0  0  0  0  0  0  0  0  0  0  0  0
    8.1221   -0.4617   18.3734 H   0  0  0  0  0  0  0  0  0  0  0  0
    6.6103   -0.0572   19.8828 C   0  0  0  0  0  0  0  0  0  0  0  0
    7.0796   -0.8075   20.9649 N   0  0  0  0  0  0  0  0  0  0  0  0
    7.0796   -0.2649   21.8264 H   0  0  0  0  0  0  0  0  0  0  0  0
    8.2614   -1.5638   20.8024 N   0  0  0  0  0  0  0  0  0  0  0  0
    8.1711   -2.1915   20.0107 H   0  0  0  0  0  0  0  0  0  0  0  0
    8.7815   -2.2675   21.9203 C   0  0  0  0  0  0  0  0  0  0  0  0
   10.1741   -2.4369   21.8952 C   0  0  0  0  0  0  0  0  0  0  0  0
   10.7201   -2.0349   21.0474 H   0  0  0  0  0  0  0  0  0  0  0  0
   10.8358   -3.0565   22.9476 C   0  0  0  0  0  0  0  0  0  0  0  0
   11.9150   -3.1386   22.9293 H   0  0  0  0  0  0  0  0  0  0  0  0
   10.1218   -3.5678   24.0278 C   0  0  0  0  0  0  0  0  0  0  0  0
   10.6243   -4.0598   24.8543 H   0  0  0  0  0  0  0  0  0  0  0  0
    8.7326   -3.4506   24.0456 C   0  0  0  0  0  0  0  0  0  0  0  0
    7.8890   -4.0945   25.4133 Cl  0  0  0  0  0  0  0  0  0  0  0  0
    8.0421   -2.8175   22.9945 C   0  0  0  0  0  0  0  0  0  0  0  0
    6.3144   -2.7605   23.0279 Cl  0  0  0  0  0  0  0  0  0  0  0  0
    5.4257    0.6572   20.1333 C   0  0  0  0  0  0  0  0  0  0  0  0
    5.0067    0.6409   21.1418 H   0  0  0  0  0  0  0  0  0  0  0  0
    4.8217    1.3276   19.0765 C   0  0  0  0  0  0  0  0  0  0  0  0
    3.8965    1.8689   19.2237 H   0  0  0  0  0  0  0  0  0  0  0  0
  1  2  1  0
  2  3  2  0
  3  4  1  0
  4  5  1  0
  4  6  2  0
  6  7  1  0
  7  8  1  0
  7  9  1  0
  9 10  1  0
  9 11  1  0
 11 12  2  0
 12 13  1  0
 12 14  1  0
 14 15  1  0
 14 16  2  0
 16 17  1  0
 16 18  1  0
 18 19  1  0
 18 20  2  0
 20 21  1  0
  6 22  1  0
 22 23  1  0
 22 24  2  0
 24 25  1  0
 24  2  1  0
 20 11  1  0
M  END
>  <cnnaffinity>  (1) 
-5.11124

>  <filename>  (1) 
Clc1cccc(NNc2cccnc2)c1Cl

$$$$
