
     RDKit          3D

 42 45  0  0  0  0  0  0  0  0999 V2000
    3.2643    2.2126   26.3912 Cl  0  0  0  0  0  0  0  0  0  0  0  0
    4.5591    1.9911   25.2542 C   0  0  0  0  0  0  0  0  0  0  0  0
    4.5354    2.7121   24.0544 C   0  0  0  0  0  0  0  0  0  0  0  0
    5.5908    2.5007   23.1657 C   0  0  0  0  0  0  0  0  0  0  0  0
    6.6133    1.6042   23.4936 C   0  0  0  0  0  0  0  0  0  0  0  0
    7.7848    1.3364   22.5465 C   0  0  0  0  0  0  0  0  0  0  0  0
    7.8844   -0.0888   22.0761 C   0  0  0  0  0  0  0  0  0  0  0  0
    8.4739   -1.0473   22.7625 N   0  0  0  0  0  0  0  0  0  0  0  0
    8.2567   -2.1597   22.0118 C   0  0  0  0  0  0  0  0  0  0  0  0
    8.8109   -3.5006   22.4184 C   0  0  0  0  0  0  0  0  0  0  0  0
    8.8320   -3.7956   23.9358 C   0  0  0  0  0  0  0  0  0  0  0  0
    8.8327   -5.3371   24.0656 C   0  0  0  0  0  0  0  0  0  0  0  0
    8.4531   -5.9274   22.6865 C   0  0  0  0  0  0  0  0  0  0  0  0
    8.0938   -4.7234   21.8017 C   0  0  0  0  0  0  0  0  0  0  0  0
    7.0146   -4.5457   21.8645 H   0  0  0  0  0  0  0  0  0  0  0  0
    8.3442   -4.8713   20.7461 H   0  0  0  0  0  0  0  0  0  0  0  0
    9.2726   -6.5223   22.2717 H   0  0  0  0  0  0  0  0  0  0  0  0
    7.6162   -6.6292   22.7665 H   0  0  0  0  0  0  0  0  0  0  0  0
    8.1231   -5.6539   24.8342 H   0  0  0  0  0  0  0  0  0  0  0  0
    9.8068   -5.7159   24.3851 H   0  0  0  0  0  0  0  0  0  0  0  0
    9.7004   -3.3337   24.4218 H   0  0  0  0  0  0  0  0  0  0  0  0
    7.9458   -3.3682   24.4171 H   0  0  0  0  0  0  0  0  0  0  0  0
    9.8564   -3.4298   22.1066 H   0  0  0  0  0  0  0  0  0  0  0  0
    7.6329   -1.9295   20.8679 N   0  0  0  0  0  0  0  0  0  0  0  0
    7.3596   -0.6002   20.9310 N   0  0  0  0  0  0  0  0  0  0  0  0
    6.6357    0.0326   19.8795 C   0  0  0  0  0  0  0  0  0  0  0  0
    5.4336    0.7012   20.1270 C   0  0  0  0  0  0  0  0  0  0  0  0
    4.7999    1.3418   19.0566 C   0  0  0  0  0  0  0  0  0  0  0  0
    5.4021    1.3035   17.7961 C   0  0  0  0  0  0  0  0  0  0  0  0
    6.5379    0.6259   17.5454 N   0  0  0  0  0  0  0  0  0  0  0  0
    7.1276   -0.0107   18.5636 C   0  0  0  0  0  0  0  0  0  0  0  0
    8.0441   -0.5556   18.3379 H   0  0  0  0  0  0  0  0  0  0  0  0
    4.9686    1.8455   16.9572 H   0  0  0  0  0  0  0  0  0  0  0  0
    3.8623    1.8697   19.1886 H   0  0  0  0  0  0  0  0  0  0  0  0
    5.0106    0.6950   21.1303 H   0  0  0  0  0  0  0  0  0  0  0  0
    8.7394    1.5491   23.0419 H   0  0  0  0  0  0  0  0  0  0  0  0
    7.7426    2.0099   21.6844 H   0  0  0  0  0  0  0  0  0  0  0  0
    6.4929    0.9346   24.7265 C   0  0  0  0  0  0  0  0  0  0  0  0
    5.4928    1.1234   25.5941 N   0  0  0  0  0  0  0  0  0  0  0  0
    7.2268    0.1860   25.0119 H   0  0  0  0  0  0  0  0  0  0  0  0
    5.6223    3.0020   22.1957 H   0  0  0  0  0  0  0  0  0  0  0  0
    3.7194    3.3967   23.8576 H   0  0  0  0  0  0  0  0  0  0  0  0
  1  2  1  0
  2  3  2  0
  3  4  1  0
  4  5  2  0
  5  6  1  0
  6  7  1  0
  7  8  2  0
  8  9  1  0
  9 10  1  0
 10 11  1  0
 11 12  1  0
 12 13  1  0
 13 14  1  0
 14 15  1  0
 14 16  1  0
 13 17  1  0
 13 18  1  0
 12 19  1  0
 12 20  1  0
 11 21  1  0
 11 22  1  0
 10 23  1  0
  9 24  2  0
 24 25  1  0
 25 26  1  0
 26 27  2  0
 27 28  1  0
 28 29  2  0
 29 30  1  0
 30 31  2  0
 31 32  1  0
 29 33  1  0
 28 34  1  0
 27 35  1  0
  6 36  1  0
  6 37  1  0
  5 38  1  0
 38 39  2  0
 38 40  1  0
  4 41  1  0
  3 42  1  0
 39  2  1  0
 25  7  1  0
 31 26  1  0
 14 10  1  0
M  END
>  <cnnaffinity>  (1) 
-6.22207

>  <filename>  (1) 
Clc1ccc(Cc2nc(C3CCCC3)nn2-c2cccnc2)cn1

$$$$
