
     RDKit          3D

 40 43  0  0  0  0  0  0  0  0999 V2000
   12.8674    1.1639   23.1959 Cl  0  0  0  0  0  0  0  0  0  0  0  0
   11.3412    1.9872   23.3088 C   0  0  0  0  0  0  0  0  0  0  0  0
   11.1318    2.9271   24.3149 C   0  0  0  0  0  0  0  0  0  0  0  0
    9.8646    3.4829   24.5170 C   0  0  0  0  0  0  0  0  0  0  0  0
    8.8170    3.1182   23.6744 C   0  0  0  0  0  0  0  0  0  0  0  0
    9.0314    2.2256   22.6205 C   0  0  0  0  0  0  0  0  0  0  0  0
   10.2953    1.6507   22.4241 C   0  0  0  0  0  0  0  0  0  0  0  0
   10.6030    0.7678   21.4378 O   0  0  0  0  0  0  0  0  0  0  0  0
    9.6065    0.1673   20.6309 C   0  0  0  0  0  0  0  0  0  0  0  0
    8.5761   -0.6533   21.3524 C   0  0  0  0  0  0  0  0  0  0  0  0
    8.7728   -1.4601   22.3666 N   0  0  0  0  0  0  0  0  0  0  0  0
    7.5456   -2.0114   22.5765 C   0  0  0  0  0  0  0  0  0  0  0  0
    7.3079   -3.0083   23.6770 C   0  0  0  0  0  0  0  0  0  0  0  0
    6.0355   -3.5486   23.9487 C   0  0  0  0  0  0  0  0  0  0  0  0
    5.8865   -4.4434   25.0122 C   0  0  0  0  0  0  0  0  0  0  0  0
    6.8884   -4.8337   25.8077 N   0  0  0  0  0  0  0  0  0  0  0  0
    8.0987   -4.3235   25.5544 C   0  0  0  0  0  0  0  0  0  0  0  0
    8.3598   -3.4269   24.5169 C   0  0  0  0  0  0  0  0  0  0  0  0
    9.3630   -3.0429   24.3854 H   0  0  0  0  0  0  0  0  0  0  0  0
    8.9046   -4.6322   26.2160 H   0  0  0  0  0  0  0  0  0  0  0  0
    4.9072   -4.8580   25.2371 H   0  0  0  0  0  0  0  0  0  0  0  0
    5.1712   -3.2569   23.3654 H   0  0  0  0  0  0  0  0  0  0  0  0
    6.6140   -1.5928   21.7365 N   0  0  0  0  0  0  0  0  0  0  0  0
    7.2817   -0.7362   20.9247 N   0  0  0  0  0  0  0  0  0  0  0  0
    6.6085   -0.0517   19.8672 C   0  0  0  0  0  0  0  0  0  0  0  0
    5.4062    0.6171   20.1217 C   0  0  0  0  0  0  0  0  0  0  0  0
    4.7986    1.3157   19.0764 C   0  0  0  0  0  0  0  0  0  0  0  0
    5.3952    1.3122   17.8107 C   0  0  0  0  0  0  0  0  0  0  0  0
    6.5231    0.6381   17.5453 N   0  0  0  0  0  0  0  0  0  0  0  0
    7.1097   -0.0263   18.5483 C   0  0  0  0  0  0  0  0  0  0  0  0
    8.0250   -0.5564   18.2899 H   0  0  0  0  0  0  0  0  0  0  0  0
    4.9497    1.8636   16.9852 H   0  0  0  0  0  0  0  0  0  0  0  0
    3.8761    1.8614   19.2316 H   0  0  0  0  0  0  0  0  0  0  0  0
    4.9730    0.5822   21.1223 H   0  0  0  0  0  0  0  0  0  0  0  0
    9.1280    0.9160   19.9911 H   0  0  0  0  0  0  0  0  0  0  0  0
   10.1602   -0.5238   19.9924 H   0  0  0  0  0  0  0  0  0  0  0  0
    8.2083    1.9508   21.9711 H   0  0  0  0  0  0  0  0  0  0  0  0
    7.8222    3.5168   23.8471 H   0  0  0  0  0  0  0  0  0  0  0  0
    9.7039    4.1692   25.3469 H   0  0  0  0  0  0  0  0  0  0  0  0
   11.9764    3.2076   24.9288 H   0  0  0  0  0  0  0  0  0  0  0  0
  1  2  1  0
  2  3  2  0
  3  4  1  0
  4  5  2  0
  5  6  1  0
  6  7  2  0
  7  8  1  0
  8  9  1  0
  9 10  1  0
 10 11  2  0
 11 12  1  0
 12 13  1  0
 13 14  2  0
 14 15  1  0
 15 16  2  0
 16 17  1  0
 17 18  2  0
 18 19  1  0
 17 20  1  0
 15 21  1  0
 14 22  1  0
 12 23  2  0
 23 24  1  0
 24 25  1  0
 25 26  2  0
 26 27  1  0
 27 28  2  0
 28 29  1  0
 29 30  2  0
 30 31  1  0
 28 32  1  0
 27 33  1  0
 26 34  1  0
  9 35  1  0
  9 36  1  0
  6 37  1  0
  5 38  1  0
  4 39  1  0
  3 40  1  0
  7  2  1  0
 24 10  1  0
 30 25  1  0
 18 13  1  0
M  END
>  <cnnaffinity>  (1) 
-6.24383

>  <filename>  (1) 
Clc1ccccc1OCc1nc(-c2ccncc2)nn1-c1cccnc1

$$$$
