
     RDKit          3D

 47 51  0  0  0  0  0  0  0  0999 V2000
   14.9344   -1.3529   20.1790 Cl  0  0  0  0  0  0  0  0  0  0  0  0
   13.6206   -1.1524   21.2870 C   0  0  0  0  0  0  0  0  0  0  0  0
   12.5039   -1.8893   20.9291 C   0  0  0  0  0  0  0  0  0  0  0  0
   11.2826   -1.6436   21.5242 C   0  0  0  0  0  0  0  0  0  0  0  0
   11.1486   -0.5599   22.4164 C   0  0  0  0  0  0  0  0  0  0  0  0
    9.7829   -0.0698   22.6944 C   0  0  0  0  0  0  0  0  0  0  0  0
    8.7405   -0.7413   22.2320 N   0  0  0  0  0  0  0  0  0  0  0  0
    7.7074    0.1022   22.3810 N   0  0  0  0  0  0  0  0  0  0  0  0
    6.4254   -0.3876   21.8688 C   0  0  0  0  0  0  0  0  0  0  0  0
    6.2070   -0.1758   20.3734 C   0  0  0  0  0  0  0  0  0  0  0  0
    4.9949    0.3510   19.9124 C   0  0  0  0  0  0  0  0  0  0  0  0
    4.8401    0.6081   18.5470 C   0  0  0  0  0  0  0  0  0  0  0  0
    5.9054    0.3244   17.6894 C   0  0  0  0  0  0  0  0  0  0  0  0
    7.0603   -0.2149   18.0999 N   0  0  0  0  0  0  0  0  0  0  0  0
    7.1983   -0.4662   19.4094 C   0  0  0  0  0  0  0  0  0  0  0  0
    8.1499   -0.8970   19.7136 H   0  0  0  0  0  0  0  0  0  0  0  0
    5.8293    0.5351   16.6239 H   0  0  0  0  0  0  0  0  0  0  0  0
    3.9257    1.0347   18.1512 H   0  0  0  0  0  0  0  0  0  0  0  0
    4.1841    0.5609   20.6149 H   0  0  0  0  0  0  0  0  0  0  0  0
    5.6269    0.0926   22.4372 H   0  0  0  0  0  0  0  0  0  0  0  0
    6.3975   -1.4577   22.1162 H   0  0  0  0  0  0  0  0  0  0  0  0
    8.1616    1.2745   22.9419 C   0  0  0  0  0  0  0  0  0  0  0  0
    7.2933    2.4781   23.2672 C   0  0  0  0  0  0  0  0  0  0  0  0
    7.0635    3.5042   22.1317 C   0  0  0  0  0  0  0  0  0  0  0  0
    6.9678    3.4035   22.1517 C   0  0  0  0  0  0  0  0  0  0  0  0
    9.2675    4.8197   23.4506 C   0  0  0  0  0  0  0  0  0  0  0  0
   10.2038    5.6834   23.7497 N   0  0  0  0  0  0  0  0  0  0  0  0
   10.4009    5.5542   25.1018 C   0  0  0  0  0  0  0  0  0  0  0  0
    9.5672    4.6071   25.6306 C   0  0  0  0  0  0  0  0  0  0  0  0
    8.8448    4.1091   24.5721 N   0  0  0  0  0  0  0  0  0  0  0  0
    7.7578    3.1043   24.6323 C   0  0  0  0  0  0  0  0  0  0  0  0
    6.9101    3.5508   25.1804 H   0  0  0  0  0  0  0  0  0  0  0  0
    8.1270    2.3019   25.2898 H   0  0  0  0  0  0  0  0  0  0  0  0
    9.4246    4.2309   26.6328 H   0  0  0  0  0  0  0  0  0  0  0  0
   11.1393    6.1592   25.6097 H   0  0  0  0  0  0  0  0  0  0  0  0
    8.6965    4.5992   22.4821 H   0  0  0  0  0  0  0  0  0  0  0  0
    8.0890    3.4770   21.4080 H   0  0  0  0  0  0  0  0  0  0  0  0
    6.0018    4.1892   22.4240 H   0  0  0  0  0  0  0  0  0  0  0  0
    6.2619    2.7331   21.3180 H   0  0  0  0  0  0  0  0  0  0  0  0
    6.3682    1.9317   23.5767 H   0  0  0  0  0  0  0  0  0  0  0  0
    9.4618    1.1485   23.1915 N   0  0  0  0  0  0  0  0  0  0  0  0
   12.3047    0.1255   22.8414 C   0  0  0  0  0  0  0  0  0  0  0  0
   13.5566   -0.1795   22.2887 C   0  0  0  0  0  0  0  0  0  0  0  0
   14.4411    0.3730   22.5849 H   0  0  0  0  0  0  0  0  0  0  0  0
   12.2197    0.9306   23.5679 H   0  0  0  0  0  0  0  0  0  0  0  0
   10.4172   -2.2431   21.2507 H   0  0  0  0  0  0  0  0  0  0  0  0
   12.6351   -2.5644   20.0960 H   0  0  0  0  0  0  0  0  0  0  0  0
  1  2  1  0
  2  3  2  0
  3  4  1  0
  4  5  2  0
  5  6  1  0
  6  7  2  0
  7  8  1  0
  8  9  1  0
  9 10  1  0
 10 11  2  0
 11 12  1  0
 12 13  2  0
 13 14  1  0
 14 15  2  0
 15 16  1  0
 13 17  1  0
 12 18  1  0
 11 19  1  0
  9 20  1  0
  9 21  1  0
  8 22  1  0
 22 23  1  0
 23 24  1  0
 24 25  1  0
 25 26  1  0
 26 27  2  0
 27 28  1  0
 28 29  2  0
 29 30  1  0
 30 31  1  0
 31 32  1  0
 31 33  1  0
 29 34  1  0
 28 35  1  0
 25 36  1  0
 25 37  1  0
 24 38  1  0
 24 39  1  0
 23 40  1  0
 22 41  2  0
  5 42  1  0
 42 43  2  0
 43 44  1  0
 42 45  1  0
  4 46  1  0
  3 47  1  0
 43  2  1  0
 41  6  1  0
 15 10  1  0
 31 23  1  0
 30 26  1  0
M  END
>  <cnnaffinity>  (1) 
-6.73692

>  <filename>  (1) 
Clc1ccc(-c2nc(C3CCc4nccn4C3)n(Cc3cccnc3)n2)cc1

$$$$
