
     RDKit          3D

 30 32  0  0  0  0  0  0  0  0999 V2000
    8.7468   -3.2127   22.0851 H   0  0  0  0  0  0  0  0  0  0  0  0
    8.3239   -2.2345   21.9065 C   0  0  0  0  0  0  0  0  0  0  0  0
    8.2521   -1.2660   22.8584 N   0  0  0  0  0  0  0  0  0  0  0  0
    7.6588   -0.2756   22.2273 C   0  0  0  0  0  0  0  0  0  0  0  0
    7.3830    1.0604   22.8540 C   0  0  0  0  0  0  0  0  0  0  0  0
    6.5891    0.9364   23.5979 H   0  0  0  0  0  0  0  0  0  0  0  0
    7.0276    1.7591   22.0946 H   0  0  0  0  0  0  0  0  0  0  0  0
    8.6260    1.6519   23.4917 C   0  0  0  0  0  0  0  0  0  0  0  0
    8.8872    1.5541   24.8628 C   0  0  0  0  0  0  0  0  0  0  0  0
    8.1439    1.1394   25.5367 H   0  0  0  0  0  0  0  0  0  0  0  0
   10.1073    1.9839   25.3884 C   0  0  0  0  0  0  0  0  0  0  0  0
   10.3082    1.8668   26.4389 H   0  0  0  0  0  0  0  0  0  0  0  0
   11.0747    2.5425   24.5532 C   0  0  0  0  0  0  0  0  0  0  0  0
   12.0202    2.8689   24.9578 H   0  0  0  0  0  0  0  0  0  0  0  0
   10.8420    2.6647   23.1917 C   0  0  0  0  0  0  0  0  0  0  0  0
   11.6014    3.0705   22.5301 H   0  0  0  0  0  0  0  0  0  0  0  0
    9.6217    2.2228   22.6824 C   0  0  0  0  0  0  0  0  0  0  0  0
    9.3505    2.3811   20.9877 Cl  0  0  0  0  0  0  0  0  0  0  0  0
    7.3650   -0.6583   20.9389 N   0  0  0  0  0  0  0  0  0  0  0  0
    6.6549    0.0129   19.9006 C   0  0  0  0  0  0  0  0  0  0  0  0
    7.1633   -0.0015   18.5887 C   0  0  0  0  0  0  0  0  0  0  0  0
    8.0874   -0.5368   18.3741 H   0  0  0  0  0  0  0  0  0  0  0  0
    6.5748    0.6308   17.5688 N   0  0  0  0  0  0  0  0  0  0  0  0
    5.4264    1.2901   17.8123 C   0  0  0  0  0  0  0  0  0  0  0  0
    4.9925    1.8333   16.9741 H   0  0  0  0  0  0  0  0  0  0  0  0
    4.8093    1.3018   19.0653 C   0  0  0  0  0  0  0  0  0  0  0  0
    3.8768    1.8381   19.2039 H   0  0  0  0  0  0  0  0  0  0  0  0
    5.4334    0.6563   20.1384 C   0  0  0  0  0  0  0  0  0  0  0  0
    4.9837    0.6363   21.1317 H   0  0  0  0  0  0  0  0  0  0  0  0
    7.8238   -1.9152   20.7340 N   0  0  0  0  0  0  0  0  0  0  0  0
  1  2  1  0
  2  3  1  0
  3  4  2  0
  4  5  1  0
  5  6  1  0
  5  7  1  0
  5  8  1  0
  8  9  2  0
  9 10  1  0
  9 11  1  0
 11 12  1  0
 11 13  2  0
 13 14  1  0
 13 15  1  0
 15 16  1  0
 15 17  2  0
 17 18  1  0
  4 19  1  0
 19 20  1  0
 20 21  2  0
 21 22  1  0
 21 23  1  0
 23 24  2  0
 24 25  1  0
 24 26  1  0
 26 27  1  0
 26 28  2  0
 28 29  1  0
 19 30  1  0
 30  2  2  0
 17  8  1  0
 28 20  1  0
M  END
>  <cnnaffinity>  (1) 
-4.92452

>  <filename>  (1) 
Clc1ccccc1Cc1ncnn1-c1cccnc1

$$$$
