
     RDKit          3D

 47 50  0  0  0  0  0  0  0  0999 V2000
    6.8771    7.8060   23.9299 Cl  0  0  0  0  0  0  0  0  0  0  0  0
    7.4647    6.2005   23.6180 C   0  0  0  0  0  0  0  0  0  0  0  0
    8.8428    5.9733   23.5792 C   0  0  0  0  0  0  0  0  0  0  0  0
    9.3050    4.6782   23.3361 C   0  0  0  0  0  0  0  0  0  0  0  0
    8.4131    3.6149   23.1416 C   0  0  0  0  0  0  0  0  0  0  0  0
    8.9162    2.2354   22.8118 C   0  0  0  0  0  0  0  0  0  0  0  0
    9.0282    2.0170   21.2988 C   0  0  0  0  0  0  0  0  0  0  0  0
    9.5276    0.6102   20.9350 C   0  0  0  0  0  0  0  0  0  0  0  0
    8.6252   -0.4727   21.4316 C   0  0  0  0  0  0  0  0  0  0  0  0
    8.8400   -1.2767   22.4507 N   0  0  0  0  0  0  0  0  0  0  0  0
    7.6581   -1.9395   22.5721 C   0  0  0  0  0  0  0  0  0  0  0  0
    7.4471   -2.9328   23.6575 C   0  0  0  0  0  0  0  0  0  0  0  0
    8.5208   -4.0350   23.7524 C   0  0  0  0  0  0  0  0  0  0  0  0
    8.5068   -4.4106   25.2353 C   0  0  0  0  0  0  0  0  0  0  0  0
    7.9229   -3.3198   25.9298 O   0  0  0  0  0  0  0  0  0  0  0  0
    7.4931   -2.2970   25.0560 C   0  0  0  0  0  0  0  0  0  0  0  0
    8.1895   -1.4420   25.1011 H   0  0  0  0  0  0  0  0  0  0  0  0
    6.5061   -1.9507   25.3965 H   0  0  0  0  0  0  0  0  0  0  0  0
    7.9047   -5.3119   25.4298 H   0  0  0  0  0  0  0  0  0  0  0  0
    9.5177   -4.5955   25.6305 H   0  0  0  0  0  0  0  0  0  0  0  0
    9.4995   -3.6339   23.4640 H   0  0  0  0  0  0  0  0  0  0  0  0
    8.3019   -4.8920   23.1099 H   0  0  0  0  0  0  0  0  0  0  0  0
    6.4624   -3.3766   23.4976 H   0  0  0  0  0  0  0  0  0  0  0  0
    6.7350   -1.5987   21.7019 N   0  0  0  0  0  0  0  0  0  0  0  0
    7.3634   -0.6628   20.9403 N   0  0  0  0  0  0  0  0  0  0  0  0
    6.6624    0.0116   19.9024 C   0  0  0  0  0  0  0  0  0  0  0  0
    5.4407    0.6444   20.1653 C   0  0  0  0  0  0  0  0  0  0  0  0
    4.8119    1.3100   19.1091 C   0  0  0  0  0  0  0  0  0  0  0  0
    5.4021    1.2959   17.8368 C   0  0  0  0  0  0  0  0  0  0  0  0
    6.5614    0.6748   17.5776 N   0  0  0  0  0  0  0  0  0  0  0  0
    7.1719    0.0574   18.5928 C   0  0  0  0  0  0  0  0  0  0  0  0
    8.1143   -0.4336   18.3709 H   0  0  0  0  0  0  0  0  0  0  0  0
    4.9174    1.7843   16.9931 H   0  0  0  0  0  0  0  0  0  0  0  0
    3.8780    1.8407   19.2606 H   0  0  0  0  0  0  0  0  0  0  0  0
    5.0158    0.6084   21.1727 H   0  0  0  0  0  0  0  0  0  0  0  0
   10.5184    0.4384   21.3672 H   0  0  0  0  0  0  0  0  0  0  0  0
    9.6267    0.5351   19.8492 H   0  0  0  0  0  0  0  0  0  0  0  0
    9.7180    2.7589   20.8868 H   0  0  0  0  0  0  0  0  0  0  0  0
    8.0575    2.2043   20.8224 H   0  0  0  0  0  0  0  0  0  0  0  0
    8.2507    1.4761   23.2426 H   0  0  0  0  0  0  0  0  0  0  0  0
    9.8968    2.0661   23.2745 H   0  0  0  0  0  0  0  0  0  0  0  0
    7.0367    3.8781   23.1690 C   0  0  0  0  0  0  0  0  0  0  0  0
    6.5503    5.1643   23.4106 C   0  0  0  0  0  0  0  0  0  0  0  0
    5.4834    5.3653   23.4344 H   0  0  0  0  0  0  0  0  0  0  0  0
    6.3365    3.0665   22.9843 H   0  0  0  0  0  0  0  0  0  0  0  0
   10.3750    4.4927   23.2853 H   0  0  0  0  0  0  0  0  0  0  0  0
    9.5349    6.7947   23.7369 H   0  0  0  0  0  0  0  0  0  0  0  0
  1  2  1  0
  2  3  2  0
  3  4  1  0
  4  5  2  0
  5  6  1  0
  6  7  1  0
  7  8  1  0
  8  9  1  0
  9 10  2  0
 10 11  1  0
 11 12  1  0
 12 13  1  0
 13 14  1  0
 14 15  1  0
 15 16  1  0
 16 17  1  0
 16 18  1  0
 14 19  1  0
 14 20  1  0
 13 21  1  0
 13 22  1  0
 12 23  1  0
 11 24  2  0
 24 25  1  0
 25 26  1  0
 26 27  2  0
 27 28  1  0
 28 29  2  0
 29 30  1  0
 30 31  2  0
 31 32  1  0
 29 33  1  0
 28 34  1  0
 27 35  1  0
  8 36  1  0
  8 37  1  0
  7 38  1  0
  7 39  1  0
  6 40  1  0
  6 41  1  0
  5 42  1  0
 42 43  2  0
 43 44  1  0
 42 45  1  0
  4 46  1  0
  3 47  1  0
 43  2  1  0
 25  9  1  0
 31 26  1  0
 16 12  1  0
M  END
>  <cnnaffinity>  (1) 
-6.01053

>  <filename>  (1) 
Clc1ccc(CCCc2nc(C3CCOC3)nn2-c2cccnc2)cc1

$$$$
