
     RDKit          3D

 30 32  0  0  0  0  0  0  0  0999 V2000
    5.0231    1.8691   16.8360 H   0  0  0  0  0  0  0  0  0  0  0  0
    5.4103    1.3487   17.7078 C   0  0  0  0  0  0  0  0  0  0  0  0
    6.5536    0.6720   17.5222 N   0  0  0  0  0  0  0  0  0  0  0  0
    7.0661    0.0432   18.5816 C   0  0  0  0  0  0  0  0  0  0  0  0
    8.0061   -0.4840   18.4321 H   0  0  0  0  0  0  0  0  0  0  0  0
    6.4673    0.0374   19.8474 C   0  0  0  0  0  0  0  0  0  0  0  0
    7.1852   -0.6810   20.8916 C   0  0  0  0  0  0  0  0  0  0  0  0
    8.3524   -1.2370   20.7946 N   0  0  0  0  0  0  0  0  0  0  0  0
    8.6239   -1.7248   22.0631 C   0  0  0  0  0  0  0  0  0  0  0  0
    9.9622   -2.3180   22.3790 C   0  0  0  0  0  0  0  0  0  0  0  0
   10.3829   -2.6665   21.4334 H   0  0  0  0  0  0  0  0  0  0  0  0
    9.8437   -3.2146   22.9984 H   0  0  0  0  0  0  0  0  0  0  0  0
   10.9354   -1.3393   23.0332 C   0  0  0  0  0  0  0  0  0  0  0  0
   10.6405   -0.7131   24.2602 C   0  0  0  0  0  0  0  0  0  0  0  0
    9.7038   -0.9433   24.7739 H   0  0  0  0  0  0  0  0  0  0  0  0
   11.5577    0.1859   24.8237 C   0  0  0  0  0  0  0  0  0  0  0  0
   11.3135    0.7195   25.7418 H   0  0  0  0  0  0  0  0  0  0  0  0
   12.7871    0.4390   24.2006 C   0  0  0  0  0  0  0  0  0  0  0  0
   13.5224    1.1066   24.6447 H   0  0  0  0  0  0  0  0  0  0  0  0
   13.0575   -0.1754   22.9743 C   0  0  0  0  0  0  0  0  0  0  0  0
   14.5267    0.1751   22.1280 Cl  0  0  0  0  0  0  0  0  0  0  0  0
   12.1420   -1.0501   22.3827 C   0  0  0  0  0  0  0  0  0  0  0  0
   12.3650   -1.5043   21.4171 H   0  0  0  0  0  0  0  0  0  0  0  0
    7.5633   -1.4524   22.8580 C   0  0  0  0  0  0  0  0  0  0  0  0
    7.3088   -1.6687   23.8821 H   0  0  0  0  0  0  0  0  0  0  0  0
    6.6323   -0.7821   22.1167 O   0  0  0  0  0  0  0  0  0  0  0  0
    5.2613    0.7384   20.0332 C   0  0  0  0  0  0  0  0  0  0  0  0
    4.7581    0.7665   21.0031 H   0  0  0  0  0  0  0  0  0  0  0  0
    4.7318    1.4077   18.9325 C   0  0  0  0  0  0  0  0  0  0  0  0
    3.8143    1.9830   19.0057 H   0  0  0  0  0  0  0  0  0  0  0  0
  1  2  1  0
  2  3  2  0
  3  4  1  0
  4  5  1  0
  4  6  2  0
  6  7  1  0
  7  8  2  0
  8  9  1  0
  9 10  1  0
 10 11  1  0
 10 12  1  0
 10 13  1  0
 13 14  2  0
 14 15  1  0
 14 16  1  0
 16 17  1  0
 16 18  2  0
 18 19  1  0
 18 20  1  0
 20 21  1  0
 20 22  2  0
 22 23  1  0
  9 24  2  0
 24 25  1  0
 24 26  1  0
  6 27  1  0
 27 28  1  0
 27 29  2  0
 29 30  1  0
 29  2  1  0
 26  7  1  0
 22 13  1  0
M  END
>  <cnnaffinity>  (1) 
-5.31069

>  <filename>  (1) 
Clc1cccc(Cc2coc(-c3cccnc3)n2)c1

$$$$
