
     RDKit          3D

 44 47  0  0  0  0  0  0  0  0999 V2000
   16.0494   -0.3297   19.6339 Cl  0  0  0  0  0  0  0  0  0  0  0  0
   14.6171   -0.7719   20.6993 C   0  0  0  0  0  0  0  0  0  0  0  0
   14.4187    0.1448   21.7678 C   0  0  0  0  0  0  0  0  0  0  0  0
   13.1312    0.2968   22.2508 C   0  0  0  0  0  0  0  0  0  0  0  0
   12.1188   -0.4932   21.6776 C   0  0  0  0  0  0  0  0  0  0  0  0
   10.7044   -0.1371   21.6969 C   0  0  0  0  0  0  0  0  0  0  0  0
    9.7683   -0.8961   21.1526 N   0  0  0  0  0  0  0  0  0  0  0  0
    8.6364   -0.1857   21.3598 N   0  0  0  0  0  0  0  0  0  0  0  0
    7.3358   -0.7425   20.9844 C   0  0  0  0  0  0  0  0  0  0  0  0
    6.6107    0.0202   19.8950 C   0  0  0  0  0  0  0  0  0  0  0  0
    5.3885    0.6683   20.1050 C   0  0  0  0  0  0  0  0  0  0  0  0
    4.7821    1.3375   19.0382 C   0  0  0  0  0  0  0  0  0  0  0  0
    5.4217    1.3289   17.7956 C   0  0  0  0  0  0  0  0  0  0  0  0
    6.5905    0.7078   17.5715 N   0  0  0  0  0  0  0  0  0  0  0  0
    7.1632    0.0796   18.6046 C   0  0  0  0  0  0  0  0  0  0  0  0
    8.1105   -0.4156   18.3922 H   0  0  0  0  0  0  0  0  0  0  0  0
    4.9760    1.8348   16.9408 H   0  0  0  0  0  0  0  0  0  0  0  0
    3.8412    1.8635   19.1553 H   0  0  0  0  0  0  0  0  0  0  0  0
    4.9171    0.6504   21.0909 H   0  0  0  0  0  0  0  0  0  0  0  0
    6.6946   -0.8201   21.8735 H   0  0  0  0  0  0  0  0  0  0  0  0
    7.5415   -1.7670   20.6655 H   0  0  0  0  0  0  0  0  0  0  0  0
    8.9413    0.9518   22.0254 C   0  0  0  0  0  0  0  0  0  0  0  0
    7.9284    1.7817   22.7455 C   0  0  0  0  0  0  0  0  0  0  0  0
    7.6917    1.1976   24.1656 C   0  0  0  0  0  0  0  0  0  0  0  0
    6.6001    1.8853   24.9364 C   0  0  0  0  0  0  0  0  0  0  0  0
    5.2606    1.4941   24.8027 C   0  0  0  0  0  0  0  0  0  0  0  0
    4.2720    2.1915   25.4972 C   0  0  0  0  0  0  0  0  0  0  0  0
    4.6576    3.2607   26.3111 C   0  0  0  0  0  0  0  0  0  0  0  0
    5.9290    3.6496   26.4630 N   0  0  0  0  0  0  0  0  0  0  0  0
    6.8670    2.9686   25.7905 C   0  0  0  0  0  0  0  0  0  0  0  0
    7.8945    3.3007   25.9486 H   0  0  0  0  0  0  0  0  0  0  0  0
    3.9147    3.8297   26.8677 H   0  0  0  0  0  0  0  0  0  0  0  0
    3.2261    1.9172   25.4240 H   0  0  0  0  0  0  0  0  0  0  0  0
    5.0025    0.6448   24.1666 H   0  0  0  0  0  0  0  0  0  0  0  0
    8.6383    1.2442   24.7211 H   0  0  0  0  0  0  0  0  0  0  0  0
    7.4478    0.1287   24.0735 H   0  0  0  0  0  0  0  0  0  0  0  0
    8.3135    2.8008   22.8241 H   0  0  0  0  0  0  0  0  0  0  0  0
    6.9860    1.8363   22.1863 H   0  0  0  0  0  0  0  0  0  0  0  0
   10.2461    1.0185   22.2311 N   0  0  0  0  0  0  0  0  0  0  0  0
   12.5171   -1.5575   20.8677 C   0  0  0  0  0  0  0  0  0  0  0  0
   13.7464   -1.6739   20.3282 N   0  0  0  0  0  0  0  0  0  0  0  0
   11.7732   -2.2981   20.6322 H   0  0  0  0  0  0  0  0  0  0  0  0
   12.8949    1.0751   22.9747 H   0  0  0  0  0  0  0  0  0  0  0  0
   15.1970    0.8532   22.0260 H   0  0  0  0  0  0  0  0  0  0  0  0
  1  2  1  0
  2  3  2  0
  3  4  1  0
  4  5  2  0
  5  6  1  0
  6  7  2  0
  7  8  1  0
  8  9  1  0
  9 10  1  0
 10 11  2  0
 11 12  1  0
 12 13  2  0
 13 14  1  0
 14 15  2  0
 15 16  1  0
 13 17  1  0
 12 18  1  0
 11 19  1  0
  9 20  1  0
  9 21  1  0
  8 22  1  0
 22 23  1  0
 23 24  1  0
 24 25  1  0
 25 26  2  0
 26 27  1  0
 27 28  2  0
 28 29  1  0
 29 30  2  0
 30 31  1  0
 28 32  1  0
 27 33  1  0
 26 34  1  0
 24 35  1  0
 24 36  1  0
 23 37  1  0
 23 38  1  0
 22 39  2  0
  5 40  1  0
 40 41  2  0
 40 42  1  0
  4 43  1  0
  3 44  1  0
 41  2  1  0
 39  6  1  0
 15 10  1  0
 30 25  1  0
M  END
>  <cnnaffinity>  (1) 
-6.60209

>  <filename>  (1) 
Clc1ccc(-c2nc(CCc3cccnc3)n(Cc3cccnc3)n2)cn1

$$$$
