
     RDKit          3D

 30 32  0  0  0  0  0  0  0  0999 V2000
    4.9800    1.8131   16.9229 H   0  0  0  0  0  0  0  0  0  0  0  0
    5.4139    1.3142   17.7852 C   0  0  0  0  0  0  0  0  0  0  0  0
    6.5747    0.6721   17.5719 N   0  0  0  0  0  0  0  0  0  0  0  0
    7.1338    0.0535   18.6134 C   0  0  0  0  0  0  0  0  0  0  0  0
    8.0772   -0.4595   18.4252 H   0  0  0  0  0  0  0  0  0  0  0  0
    6.5618    0.0391   19.8920 C   0  0  0  0  0  0  0  0  0  0  0  0
    7.2424   -0.6990   20.9347 C   0  0  0  0  0  0  0  0  0  0  0  0
    8.3268   -1.3910   20.8149 N   0  0  0  0  0  0  0  0  0  0  0  0
    8.5634   -1.8887   22.0845 C   0  0  0  0  0  0  0  0  0  0  0  0
    9.8696   -2.5506   22.3432 C   0  0  0  0  0  0  0  0  0  0  0  0
   10.1380   -3.0125   21.4011 H   0  0  0  0  0  0  0  0  0  0  0  0
    9.7918   -3.3127   23.1228 H   0  0  0  0  0  0  0  0  0  0  0  0
   10.9262   -1.5305   22.7017 C   0  0  0  0  0  0  0  0  0  0  0  0
   12.0194   -1.2978   21.8653 C   0  0  0  0  0  0  0  0  0  0  0  0
   12.1309   -1.8759   20.9453 H   0  0  0  0  0  0  0  0  0  0  0  0
   12.9431   -0.3044   22.1848 C   0  0  0  0  0  0  0  0  0  0  0  0
   13.8325   -0.1280   21.5906 H   0  0  0  0  0  0  0  0  0  0  0  0
   12.7362    0.5144   23.2933 C   0  0  0  0  0  0  0  0  0  0  0  0
   13.7741    1.8702   23.5219 Cl  0  0  0  0  0  0  0  0  0  0  0  0
   11.6396    0.2858   24.1348 C   0  0  0  0  0  0  0  0  0  0  0  0
   11.2507    1.3397   25.4408 Cl  0  0  0  0  0  0  0  0  0  0  0  0
   10.7577   -0.7550   23.8508 C   0  0  0  0  0  0  0  0  0  0  0  0
    9.9404   -0.9515   24.5405 H   0  0  0  0  0  0  0  0  0  0  0  0
    7.5871   -1.4612   22.9123 C   0  0  0  0  0  0  0  0  0  0  0  0
    7.3856   -1.5714   23.9662 H   0  0  0  0  0  0  0  0  0  0  0  0
    6.7262   -0.6918   22.1833 O   0  0  0  0  0  0  0  0  0  0  0  0
    5.3506    0.7132   20.1113 C   0  0  0  0  0  0  0  0  0  0  0  0
    4.8943    0.7215   21.1031 H   0  0  0  0  0  0  0  0  0  0  0  0
    4.7697    1.3578   19.0282 C   0  0  0  0  0  0  0  0  0  0  0  0
    3.8381    1.9029   19.1361 H   0  0  0  0  0  0  0  0  0  0  0  0
  1  2  1  0
  2  3  2  0
  3  4  1  0
  4  5  1  0
  4  6  2  0
  6  7  1  0
  7  8  2  0
  8  9  1  0
  9 10  1  0
 10 11  1  0
 10 12  1  0
 10 13  1  0
 13 14  2  0
 14 15  1  0
 14 16  1  0
 16 17  1  0
 16 18  2  0
 18 19  1  0
 18 20  1  0
 20 21  1  0
 20 22  2  0
 22 23  1  0
  9 24  2  0
 24 25  1  0
 24 26  1  0
  6 27  1  0
 27 28  1  0
 27 29  2  0
 29 30  1  0
 29  2  1  0
 26  7  1  0
 22 13  1  0
M  END
>  <cnnaffinity>  (1) 
-5.55528

>  <filename>  (1) 
Clc1ccc(Cc2coc(-c3cccnc3)n2)cc1Cl

$$$$
