
     RDKit          3D

 48 51  0  0  0  0  0  0  0  0999 V2000
    9.4568    4.8629   24.9100 Cl  0  0  0  0  0  0  0  0  0  0  0  0
    8.9215    3.2119   25.0432 C   0  0  0  0  0  0  0  0  0  0  0  0
    7.6151    2.9408   25.4616 C   0  0  0  0  0  0  0  0  0  0  0  0
    7.1909    1.6137   25.5689 C   0  0  0  0  0  0  0  0  0  0  0  0
    8.0637    0.5623   25.2528 C   0  0  0  0  0  0  0  0  0  0  0  0
    7.6039   -0.7906   25.3483 N   0  0  0  0  0  0  0  0  0  0  0  0
    6.9969   -1.2652   26.4736 N   0  0  0  0  0  0  0  0  0  0  0  0
    6.7091   -2.5065   26.1552 C   0  0  0  0  0  0  0  0  0  0  0  0
    5.9723   -3.4426   27.0735 C   0  0  0  0  0  0  0  0  0  0  0  0
    4.4863   -3.6166   26.6540 C   0  0  0  0  0  0  0  0  0  0  0  0
    3.8577   -4.8778   27.2849 C   0  0  0  0  0  0  0  0  0  0  0  0
    4.5553   -5.2887   28.4419 O   0  0  0  0  0  0  0  0  0  0  0  0
    5.8532   -5.7685   28.1334 C   0  0  0  0  0  0  0  0  0  0  0  0
    6.6518   -4.8231   27.2000 C   0  0  0  0  0  0  0  0  0  0  0  0
    7.6742   -4.7148   27.5760 H   0  0  0  0  0  0  0  0  0  0  0  0
    6.7348   -5.2714   26.2021 H   0  0  0  0  0  0  0  0  0  0  0  0
    6.3530   -5.8894   29.0998 H   0  0  0  0  0  0  0  0  0  0  0  0
    5.7661   -6.7698   27.6772 H   0  0  0  0  0  0  0  0  0  0  0  0
    2.8213   -4.6962   27.5857 H   0  0  0  0  0  0  0  0  0  0  0  0
    3.8438   -5.7042   26.5547 H   0  0  0  0  0  0  0  0  0  0  0  0
    3.9242   -2.7272   26.9604 H   0  0  0  0  0  0  0  0  0  0  0  0
    4.4070   -3.6889   25.5635 H   0  0  0  0  0  0  0  0  0  0  0  0
    5.9735   -2.9644   28.0540 H   0  0  0  0  0  0  0  0  0  0  0  0
    7.0592   -2.8654   24.8874 N   0  0  0  0  0  0  0  0  0  0  0  0
    7.6096   -1.7722   24.4051 C   0  0  0  0  0  0  0  0  0  0  0  0
    8.0105   -1.5866   22.9783 C   0  0  0  0  0  0  0  0  0  0  0  0
    6.9707   -0.7766   22.2050 C   0  0  0  0  0  0  0  0  0  0  0  0
    7.4184   -0.6837   20.8553 O   0  0  0  0  0  0  0  0  0  0  0  0
    6.6686   -0.0025   19.9380 C   0  0  0  0  0  0  0  0  0  0  0  0
    5.4463    0.6413   20.1836 C   0  0  0  0  0  0  0  0  0  0  0  0
    4.8161    1.3019   19.1125 C   0  0  0  0  0  0  0  0  0  0  0  0
    5.4030    1.2899   17.8443 C   0  0  0  0  0  0  0  0  0  0  0  0
    6.5697    0.6677   17.5970 N   0  0  0  0  0  0  0  0  0  0  0  0
    7.1782    0.0547   18.6160 C   0  0  0  0  0  0  0  0  0  0  0  0
    8.1229   -0.4346   18.3987 H   0  0  0  0  0  0  0  0  0  0  0  0
    4.9192    1.7808   16.9963 H   0  0  0  0  0  0  0  0  0  0  0  0
    3.8823    1.8365   19.2622 H   0  0  0  0  0  0  0  0  0  0  0  0
    5.0000    0.6312   21.1802 H   0  0  0  0  0  0  0  0  0  0  0  0
    6.8488    0.2230   22.6493 H   0  0  0  0  0  0  0  0  0  0  0  0
    6.0032   -1.2917   22.2439 H   0  0  0  0  0  0  0  0  0  0  0  0
    8.1248   -2.5704   22.5190 H   0  0  0  0  0  0  0  0  0  0  0  0
    8.9776   -1.0851   22.9054 H   0  0  0  0  0  0  0  0  0  0  0  0
    9.3731    0.8509   24.8391 C   0  0  0  0  0  0  0  0  0  0  0  0
    9.8046    2.1765   24.7353 C   0  0  0  0  0  0  0  0  0  0  0  0
   10.8161    2.4047   24.4137 H   0  0  0  0  0  0  0  0  0  0  0  0
   10.0643    0.0431   24.6272 H   0  0  0  0  0  0  0  0  0  0  0  0
    6.1876    1.3834   25.9106 H   0  0  0  0  0  0  0  0  0  0  0  0
    6.9492    3.7631   25.7088 H   0  0  0  0  0  0  0  0  0  0  0  0
  1  2  1  0
  2  3  2  0
  3  4  1  0
  4  5  2  0
  5  6  1  0
  6  7  1  0
  7  8  2  0
  8  9  1  0
  9 10  1  0
 10 11  1  0
 11 12  1  0
 12 13  1  0
 13 14  1  0
 14 15  1  0
 14 16  1  0
 13 17  1  0
 13 18  1  0
 11 19  1  0
 11 20  1  0
 10 21  1  0
 10 22  1  0
  9 23  1  0
  8 24  1  0
 24 25  2  0
 25 26  1  0
 26 27  1  0
 27 28  1  0
 28 29  1  0
 29 30  2  0
 30 31  1  0
 31 32  2  0
 32 33  1  0
 33 34  2  0
 34 35  1  0
 32 36  1  0
 31 37  1  0
 30 38  1  0
 27 39  1  0
 27 40  1  0
 26 41  1  0
 26 42  1  0
  5 43  1  0
 43 44  2  0
 44 45  1  0
 43 46  1  0
  4 47  1  0
  3 48  1  0
 44  2  1  0
 25  6  1  0
 34 29  1  0
 14  9  1  0
M  END
>  <cnnaffinity>  (1) 
-5.68575

>  <filename>  (1) 
Clc1ccc(-n2nc(C3CCOCC3)nc2CCOc2cccnc2)cc1

$$$$
