
     RDKit          3D

 32 34  0  0  0  0  0  0  0  0999 V2000
    4.9191    1.7894   16.9884 H   0  0  0  0  0  0  0  0  0  0  0  0
    5.3974    1.2973   17.8321 C   0  0  0  0  0  0  0  0  0  0  0  0
    6.5560    0.6700   17.5732 N   0  0  0  0  0  0  0  0  0  0  0  0
    7.1668    0.0541   18.5947 C   0  0  0  0  0  0  0  0  0  0  0  0
    8.1133   -0.4287   18.3598 H   0  0  0  0  0  0  0  0  0  0  0  0
    6.6491    0.0009   19.9059 C   0  0  0  0  0  0  0  0  0  0  0  0
    7.3123   -0.7103   20.9496 N   0  0  0  0  0  0  0  0  0  0  0  0
    6.7459   -1.7114   21.7136 C   0  0  0  0  0  0  0  0  0  0  0  0
    5.7114   -1.9710   21.5392 H   0  0  0  0  0  0  0  0  0  0  0  0
    7.6918   -2.1997   22.5822 C   0  0  0  0  0  0  0  0  0  0  0  0
    7.5537   -2.9815   23.3180 H   0  0  0  0  0  0  0  0  0  0  0  0
    8.8837   -1.4631   22.3549 C   0  0  0  0  0  0  0  0  0  0  0  0
    9.8440   -1.5510   22.8602 H   0  0  0  0  0  0  0  0  0  0  0  0
    8.6191   -0.5427   21.3727 C   0  0  0  0  0  0  0  0  0  0  0  0
    9.5725    0.4702   20.8356 C   0  0  0  0  0  0  0  0  0  0  0  0
    9.1092    1.1178   20.0860 H   0  0  0  0  0  0  0  0  0  0  0  0
   10.3551   -0.1392   20.3835 H   0  0  0  0  0  0  0  0  0  0  0  0
   10.1917    1.3120   21.9316 C   0  0  0  0  0  0  0  0  0  0  0  0
   11.4585    0.9870   22.4312 C   0  0  0  0  0  0  0  0  0  0  0  0
   12.0088    0.1676   21.9781 H   0  0  0  0  0  0  0  0  0  0  0  0
   12.0139    1.6902   23.4969 C   0  0  0  0  0  0  0  0  0  0  0  0
   13.0009    1.4392   23.8697 H   0  0  0  0  0  0  0  0  0  0  0  0
   11.2986    2.7338   24.0752 C   0  0  0  0  0  0  0  0  0  0  0  0
   11.7353    3.3197   24.8657 H   0  0  0  0  0  0  0  0  0  0  0  0
   10.0220    3.0636   23.6165 C   0  0  0  0  0  0  0  0  0  0  0  0
    9.1764    4.3619   24.3908 Cl  0  0  0  0  0  0  0  0  0  0  0  0
    9.4662    2.3494   22.5418 C   0  0  0  0  0  0  0  0  0  0  0  0
    7.8771    2.7308   21.9697 Cl  0  0  0  0  0  0  0  0  0  0  0  0
    5.4312    0.6454   20.1590 C   0  0  0  0  0  0  0  0  0  0  0  0
    5.0085    0.6309   21.1679 H   0  0  0  0  0  0  0  0  0  0  0  0
    4.8079    1.3133   19.1021 C   0  0  0  0  0  0  0  0  0  0  0  0
    3.8767    1.8429   19.2549 H   0  0  0  0  0  0  0  0  0  0  0  0
  1  2  1  0
  2  3  2  0
  3  4  1  0
  4  5  1  0
  4  6  2  0
  6  7  1  0
  7  8  1  0
  8  9  1  0
  8 10  2  0
 10 11  1  0
 10 12  1  0
 12 13  1  0
 12 14  2  0
 14 15  1  0
 15 16  1  0
 15 17  1  0
 15 18  1  0
 18 19  2  0
 19 20  1  0
 19 21  1  0
 21 22  1  0
 21 23  2  0
 23 24  1  0
 23 25  1  0
 25 26  1  0
 25 27  2  0
 27 28  1  0
  6 29  1  0
 29 30  1  0
 29 31  2  0
 31 32  1  0
 31  2  1  0
 14  7  1  0
 27 18  1  0
M  END
>  <cnnaffinity>  (1) 
-5.53753

>  <filename>  (1) 
Clc1cccc(Cc2cccn2-c2cccnc2)c1Cl

$$$$
