
     RDKit          3D

 44 47  0  0  0  0  0  0  0  0999 V2000
   16.0163   -0.3716   19.6475 Cl  0  0  0  0  0  0  0  0  0  0  0  0
   14.5993   -0.8224   20.7263 C   0  0  0  0  0  0  0  0  0  0  0  0
   13.7273   -1.8733   20.4338 C   0  0  0  0  0  0  0  0  0  0  0  0
   12.4373   -1.7242   20.9360 C   0  0  0  0  0  0  0  0  0  0  0  0
   12.0811   -0.6003   21.6885 C   0  0  0  0  0  0  0  0  0  0  0  0
   10.6727   -0.2061   21.7651 C   0  0  0  0  0  0  0  0  0  0  0  0
    9.7159   -0.9491   21.2313 N   0  0  0  0  0  0  0  0  0  0  0  0
    8.5986   -0.2226   21.4413 N   0  0  0  0  0  0  0  0  0  0  0  0
    7.2881   -0.7316   21.0311 C   0  0  0  0  0  0  0  0  0  0  0  0
    6.5904    0.0402   19.9238 C   0  0  0  0  0  0  0  0  0  0  0  0
    5.3606    0.6882   20.0984 C   0  0  0  0  0  0  0  0  0  0  0  0
    4.7792    1.3519   19.0133 C   0  0  0  0  0  0  0  0  0  0  0  0
    5.4503    1.3443   17.7876 C   0  0  0  0  0  0  0  0  0  0  0  0
    6.6218    0.7178   17.5938 N   0  0  0  0  0  0  0  0  0  0  0  0
    7.1668    0.0917   18.6434 C   0  0  0  0  0  0  0  0  0  0  0  0
    8.1157   -0.4097   18.4588 H   0  0  0  0  0  0  0  0  0  0  0  0
    5.0282    1.8517   16.9209 H   0  0  0  0  0  0  0  0  0  0  0  0
    3.8355    1.8795   19.1026 H   0  0  0  0  0  0  0  0  0  0  0  0
    4.8615    0.6831   21.0700 H   0  0  0  0  0  0  0  0  0  0  0  0
    7.4691   -1.7628   20.7160 H   0  0  0  0  0  0  0  0  0  0  0  0
    6.6360   -0.7741   21.9125 H   0  0  0  0  0  0  0  0  0  0  0  0
    8.9283    0.9088   22.1074 C   0  0  0  0  0  0  0  0  0  0  0  0
    7.9086    1.7770   22.7828 C   0  0  0  0  0  0  0  0  0  0  0  0
    7.5908    1.2456   24.2155 C   0  0  0  0  0  0  0  0  0  0  0  0
    6.4977    1.9594   24.9703 C   0  0  0  0  0  0  0  0  0  0  0  0
    5.1517    1.5869   24.8242 C   0  0  0  0  0  0  0  0  0  0  0  0
    4.1702    2.2574   25.5552 C   0  0  0  0  0  0  0  0  0  0  0  0
    4.5765    3.2792   26.4173 C   0  0  0  0  0  0  0  0  0  0  0  0
    5.9396    3.5737   26.5047 C   0  0  0  0  0  0  0  0  0  0  0  0
    6.8840    2.9401   25.8017 N   0  0  0  0  0  0  0  0  0  0  0  0
    6.2938    4.3534   27.1783 H   0  0  0  0  0  0  0  0  0  0  0  0
    3.8684    3.8367   27.0184 H   0  0  0  0  0  0  0  0  0  0  0  0
    3.1175    1.9875   25.4635 H   0  0  0  0  0  0  0  0  0  0  0  0
    4.8964    0.7665   24.1602 H   0  0  0  0  0  0  0  0  0  0  0  0
    8.5034    1.2990   24.8194 H   0  0  0  0  0  0  0  0  0  0  0  0
    7.3247    0.1821   24.1376 H   0  0  0  0  0  0  0  0  0  0  0  0
    8.3016    2.7956   22.8354 H   0  0  0  0  0  0  0  0  0  0  0  0
    6.9985    1.8204   22.1718 H   0  0  0  0  0  0  0  0  0  0  0  0
   10.2404    0.9597   22.2966 N   0  0  0  0  0  0  0  0  0  0  0  0
   13.1243    0.2013   22.1647 C   0  0  0  0  0  0  0  0  0  0  0  0
   14.3665    0.0755   21.6847 N   0  0  0  0  0  0  0  0  0  0  0  0
   12.9613    0.9869   22.9001 H   0  0  0  0  0  0  0  0  0  0  0  0
   11.6190   -2.3901   20.7256 H   0  0  0  0  0  0  0  0  0  0  0  0
   14.0140   -2.7372   19.8535 H   0  0  0  0  0  0  0  0  0  0  0  0
  1  2  1  0
  2  3  2  0
  3  4  1  0
  4  5  2  0
  5  6  1  0
  6  7  2  0
  7  8  1  0
  8  9  1  0
  9 10  1  0
 10 11  2  0
 11 12  1  0
 12 13  2  0
 13 14  1  0
 14 15  2  0
 15 16  1  0
 13 17  1  0
 12 18  1  0
 11 19  1  0
  9 20  1  0
  9 21  1  0
  8 22  1  0
 22 23  1  0
 23 24  1  0
 24 25  1  0
 25 26  2  0
 26 27  1  0
 27 28  2  0
 28 29  1  0
 29 30  2  0
 29 31  1  0
 28 32  1  0
 27 33  1  0
 26 34  1  0
 24 35  1  0
 24 36  1  0
 23 37  1  0
 23 38  1  0
 22 39  2  0
  5 40  1  0
 40 41  2  0
 40 42  1  0
  4 43  1  0
  3 44  1  0
 41  2  1  0
 39  6  1  0
 15 10  1  0
 30 25  1  0
M  END
>  <cnnaffinity>  (1) 
-6.5415

>  <filename>  (1) 
Clc1ccc(-c2nc(CCc3ccccn3)n(Cc3cccnc3)n2)cn1

$$$$
