
     RDKit          3D

 39 42  0  0  0  0  0  0  0  0999 V2000
   16.0396   -0.3144   19.6443 Cl  0  0  0  0  0  0  0  0  0  0  0  0
   14.5992   -0.7797   20.7383 C   0  0  0  0  0  0  0  0  0  0  0  0
   13.7186   -1.8121   20.4189 C   0  0  0  0  0  0  0  0  0  0  0  0
   12.4255   -1.6819   20.9253 C   0  0  0  0  0  0  0  0  0  0  0  0
   12.0583   -0.5668   21.6886 C   0  0  0  0  0  0  0  0  0  0  0  0
   10.6412   -0.1841   21.7841 C   0  0  0  0  0  0  0  0  0  0  0  0
    9.6762   -0.9582   21.3083 N   0  0  0  0  0  0  0  0  0  0  0  0
    8.5570   -0.2282   21.5032 N   0  0  0  0  0  0  0  0  0  0  0  0
    7.2545   -0.7300   21.0678 C   0  0  0  0  0  0  0  0  0  0  0  0
    6.5793    0.0522   19.9520 C   0  0  0  0  0  0  0  0  0  0  0  0
    5.3454    0.7007   20.1012 C   0  0  0  0  0  0  0  0  0  0  0  0
    4.7829    1.3561   19.0013 C   0  0  0  0  0  0  0  0  0  0  0  0
    5.4779    1.3419   17.7888 C   0  0  0  0  0  0  0  0  0  0  0  0
    6.6564    0.7236   17.6204 N   0  0  0  0  0  0  0  0  0  0  0  0
    7.1854    0.1086   18.6846 C   0  0  0  0  0  0  0  0  0  0  0  0
    8.1435   -0.3832   18.5261 H   0  0  0  0  0  0  0  0  0  0  0  0
    5.0715    1.8396   16.9101 H   0  0  0  0  0  0  0  0  0  0  0  0
    3.8376    1.8835   19.0681 H   0  0  0  0  0  0  0  0  0  0  0  0
    4.8240    0.7015   21.0614 H   0  0  0  0  0  0  0  0  0  0  0  0
    6.5969   -0.7698   21.9416 H   0  0  0  0  0  0  0  0  0  0  0  0
    7.4431   -1.7611   20.7528 H   0  0  0  0  0  0  0  0  0  0  0  0
    8.8866    0.9315   22.1126 C   0  0  0  0  0  0  0  0  0  0  0  0
    7.8299    1.7860   22.7701 C   0  0  0  0  0  0  0  0  0  0  0  0
    7.3971    1.1649   24.0881 C   0  0  0  0  0  0  0  0  0  0  0  0
    6.2168    0.6436   24.5241 C   0  0  0  0  0  0  0  0  0  0  0  0
    6.3676    0.0798   25.7515 O   0  0  0  0  0  0  0  0  0  0  0  0
    7.6634    0.2454   26.1121 C   0  0  0  0  0  0  0  0  0  0  0  0
    8.3349    0.9087   25.1465 C   0  0  0  0  0  0  0  0  0  0  0  0
    9.3828    1.1844   25.1338 H   0  0  0  0  0  0  0  0  0  0  0  0
    7.9575   -0.1895   27.0559 H   0  0  0  0  0  0  0  0  0  0  0  0
    5.2156    0.5797   24.1258 H   0  0  0  0  0  0  0  0  0  0  0  0
    6.9789    1.9219   22.0937 H   0  0  0  0  0  0  0  0  0  0  0  0
    8.2650    2.7763   22.9400 H   0  0  0  0  0  0  0  0  0  0  0  0
   10.2014    1.0051   22.2719 N   0  0  0  0  0  0  0  0  0  0  0  0
   13.1079    0.2193   22.1789 C   0  0  0  0  0  0  0  0  0  0  0  0
   14.3611    0.1019   21.7065 N   0  0  0  0  0  0  0  0  0  0  0  0
   12.9460    0.9676   22.9495 H   0  0  0  0  0  0  0  0  0  0  0  0
   11.6327   -2.3812   20.7308 H   0  0  0  0  0  0  0  0  0  0  0  0
   14.0145   -2.6522   19.8128 H   0  0  0  0  0  0  0  0  0  0  0  0
  1  2  1  0
  2  3  2  0
  3  4  1  0
  4  5  2  0
  5  6  1  0
  6  7  2  0
  7  8  1  0
  8  9  1  0
  9 10  1  0
 10 11  2  0
 11 12  1  0
 12 13  2  0
 13 14  1  0
 14 15  2  0
 15 16  1  0
 13 17  1  0
 12 18  1  0
 11 19  1  0
  9 20  1  0
  9 21  1  0
  8 22  1  0
 22 23  1  0
 23 24  1  0
 24 25  2  0
 25 26  1  0
 26 27  1  0
 27 28  2  0
 28 29  1  0
 27 30  1  0
 25 31  1  0
 23 32  1  0
 23 33  1  0
 22 34  2  0
  5 35  1  0
 35 36  2  0
 35 37  1  0
  4 38  1  0
  3 39  1  0
 36  2  1  0
 34  6  1  0
 15 10  1  0
 28 24  1  0
M  END
>  <cnnaffinity>  (1) 
-6.41876

>  <filename>  (1) 
Clc1ccc(-c2nc(Cc3ccoc3)n(Cc3cccnc3)n2)cn1

$$$$
