
     RDKit          3D

 39 41  0  0  0  0  0  0  0  0999 V2000
    4.9079    1.7862   16.9895 H   0  0  0  0  0  0  0  0  0  0  0  0
    5.3952    1.2992   17.8297 C   0  0  0  0  0  0  0  0  0  0  0  0
    6.5603    0.6851   17.5605 N   0  0  0  0  0  0  0  0  0  0  0  0
    7.1736    0.0793   18.5829 C   0  0  0  0  0  0  0  0  0  0  0  0
    8.1155   -0.4238   18.3701 H   0  0  0  0  0  0  0  0  0  0  0  0
    6.6689    0.0060   19.9062 C   0  0  0  0  0  0  0  0  0  0  0  0
    7.3688   -0.7169   20.8921 N   0  0  0  0  0  0  0  0  0  0  0  0
    6.6500   -1.5509   21.8460 C   0  0  0  0  0  0  0  0  0  0  0  0
    5.7097   -1.8684   21.3805 H   0  0  0  0  0  0  0  0  0  0  0  0
    6.3695   -1.0095   22.7682 H   0  0  0  0  0  0  0  0  0  0  0  0
    7.4881   -2.7912   22.1767 C   0  0  0  0  0  0  0  0  0  0  0  0
    6.9749   -3.3845   22.9388 H   0  0  0  0  0  0  0  0  0  0  0  0
    7.5384   -3.4146   21.2768 H   0  0  0  0  0  0  0  0  0  0  0  0
    8.9195   -2.4352   22.6229 C   0  0  0  0  0  0  0  0  0  0  0  0
    9.5036   -3.3645   22.6410 H   0  0  0  0  0  0  0  0  0  0  0  0
    8.9687   -1.8351   24.0489 C   0  0  0  0  0  0  0  0  0  0  0  0
    8.2950   -0.9777   24.1348 H   0  0  0  0  0  0  0  0  0  0  0  0
    9.9789   -1.4440   24.2271 H   0  0  0  0  0  0  0  0  0  0  0  0
    8.6645   -2.8572   25.1234 C   0  0  0  0  0  0  0  0  0  0  0  0
    9.6337   -3.8373   25.4146 C   0  0  0  0  0  0  0  0  0  0  0  0
   10.5791   -3.8092   24.8767 H   0  0  0  0  0  0  0  0  0  0  0  0
    9.4122   -4.8314   26.3653 C   0  0  0  0  0  0  0  0  0  0  0  0
   10.1816   -5.5720   26.5722 H   0  0  0  0  0  0  0  0  0  0  0  0
    8.1928   -4.8746   27.0478 C   0  0  0  0  0  0  0  0  0  0  0  0
    8.0099   -5.6457   27.7887 H   0  0  0  0  0  0  0  0  0  0  0  0
    7.2052   -3.9255   26.7795 C   0  0  0  0  0  0  0  0  0  0  0  0
    6.2516   -3.9401   27.2996 H   0  0  0  0  0  0  0  0  0  0  0  0
    7.4486   -2.9309   25.8277 C   0  0  0  0  0  0  0  0  0  0  0  0
    6.1668   -1.7742   25.5434 Cl  0  0  0  0  0  0  0  0  0  0  0  0
    9.5697   -1.5025   21.5890 C   0  0  0  0  0  0  0  0  0  0  0  0
   10.5605   -1.1831   21.9309 H   0  0  0  0  0  0  0  0  0  0  0  0
    9.7194   -2.0511   20.6517 H   0  0  0  0  0  0  0  0  0  0  0  0
    8.7008   -0.2809   21.3006 C   0  0  0  0  0  0  0  0  0  0  0  0
    9.1439    0.3043   20.4890 H   0  0  0  0  0  0  0  0  0  0  0  0
    8.6755    0.3980   22.1746 H   0  0  0  0  0  0  0  0  0  0  0  0
    5.4400    0.6449   20.1577 C   0  0  0  0  0  0  0  0  0  0  0  0
    5.0206    0.6188   21.1675 H   0  0  0  0  0  0  0  0  0  0  0  0
    4.8082    1.3119   19.1026 C   0  0  0  0  0  0  0  0  0  0  0  0
    3.8730    1.8422   19.2597 H   0  0  0  0  0  0  0  0  0  0  0  0
  1  2  1  0
  2  3  2  0
  3  4  1  0
  4  5  1  0
  4  6  2  0
  6  7  1  0
  7  8  1  0
  8  9  1  0
  8 10  1  0
  8 11  1  0
 11 12  1  0
 11 13  1  0
 11 14  1  0
 14 15  1  0
 14 16  1  0
 16 17  1  0
 16 18  1  0
 16 19  1  0
 19 20  2  0
 20 21  1  0
 20 22  1  0
 22 23  1  0
 22 24  2  0
 24 25  1  0
 24 26  1  0
 26 27  1  0
 26 28  2  0
 28 29  1  0
 14 30  1  0
 30 31  1  0
 30 32  1  0
 30 33  1  0
 33 34  1  0
 33 35  1  0
  6 36  1  0
 36 37  1  0
 36 38  2  0
 38 39  1  0
 38  2  1  0
 33  7  1  0
 28 19  1  0
M  END
>  <cnnaffinity>  (1) 
-5.53204

>  <filename>  (1) 
Clc1ccccc1CC1CCN(c2cccnc2)CC1

$$$$
