
     RDKit          3D

 41 44  0  0  0  0  0  0  0  0999 V2000
    6.2263    3.8164   29.2137 Cl  0  0  0  0  0  0  0  0  0  0  0  0
    6.5670    3.0756   27.6770 C   0  0  0  0  0  0  0  0  0  0  0  0
    5.6740    2.1166   27.1759 C   0  0  0  0  0  0  0  0  0  0  0  0
    5.9500    1.5544   25.9342 C   0  0  0  0  0  0  0  0  0  0  0  0
    7.0962    1.9901   25.2424 C   0  0  0  0  0  0  0  0  0  0  0  0
    7.5183    1.4950   23.9337 C   0  0  0  0  0  0  0  0  0  0  0  0
    6.9193    0.5302   23.2644 N   0  0  0  0  0  0  0  0  0  0  0  0
    7.7133    0.3617   22.1792 N   0  0  0  0  0  0  0  0  0  0  0  0
    7.3190   -0.5706   21.1211 C   0  0  0  0  0  0  0  0  0  0  0  0
    6.6524    0.0960   19.9313 C   0  0  0  0  0  0  0  0  0  0  0  0
    5.4388    0.7680   20.1177 C   0  0  0  0  0  0  0  0  0  0  0  0
    4.8291    1.3740   19.0183 C   0  0  0  0  0  0  0  0  0  0  0  0
    5.4549    1.2932   17.7712 C   0  0  0  0  0  0  0  0  0  0  0  0
    6.6136    0.6478   17.5689 N   0  0  0  0  0  0  0  0  0  0  0  0
    7.1877    0.0703   18.6337 C   0  0  0  0  0  0  0  0  0  0  0  0
    8.1251   -0.4501   18.4271 H   0  0  0  0  0  0  0  0  0  0  0  0
    5.0034    1.7620   16.8974 H   0  0  0  0  0  0  0  0  0  0  0  0
    3.8912    1.9093   19.1156 H   0  0  0  0  0  0  0  0  0  0  0  0
    4.9947    0.8122   21.1135 H   0  0  0  0  0  0  0  0  0  0  0  0
    8.1941   -1.1432   20.7991 H   0  0  0  0  0  0  0  0  0  0  0  0
    6.6297   -1.2747   21.5997 H   0  0  0  0  0  0  0  0  0  0  0  0
    8.7403    1.2400   22.2450 C   0  0  0  0  0  0  0  0  0  0  0  0
    9.9076    1.2690   21.3018 C   0  0  0  0  0  0  0  0  0  0  0  0
   11.0319    0.3012   21.6598 C   0  0  0  0  0  0  0  0  0  0  0  0
   12.0825    0.7254   22.4849 C   0  0  0  0  0  0  0  0  0  0  0  0
   13.1100   -0.1682   22.8011 C   0  0  0  0  0  0  0  0  0  0  0  0
   13.0832   -1.4432   22.2298 C   0  0  0  0  0  0  0  0  0  0  0  0
   12.0666   -1.8810   21.4793 N   0  0  0  0  0  0  0  0  0  0  0  0
   11.0685   -1.0306   21.2158 C   0  0  0  0  0  0  0  0  0  0  0  0
   10.2701   -1.4289   20.5874 H   0  0  0  0  0  0  0  0  0  0  0  0
   13.9134   -2.1350   22.3839 H   0  0  0  0  0  0  0  0  0  0  0  0
   13.9105    0.1152   23.4751 H   0  0  0  0  0  0  0  0  0  0  0  0
   12.1062    1.7596   22.8282 H   0  0  0  0  0  0  0  0  0  0  0  0
    9.5497    1.0729   20.2880 H   0  0  0  0  0  0  0  0  0  0  0  0
   10.2850    2.2978   21.3142 H   0  0  0  0  0  0  0  0  0  0  0  0
    8.6324    1.9832   23.3261 N   0  0  0  0  0  0  0  0  0  0  0  0
    7.9246    2.9317   25.8619 C   0  0  0  0  0  0  0  0  0  0  0  0
    7.6653    3.4722   27.0567 N   0  0  0  0  0  0  0  0  0  0  0  0
    8.8419    3.2554   25.3765 H   0  0  0  0  0  0  0  0  0  0  0  0
    5.3074    0.7808   25.5096 H   0  0  0  0  0  0  0  0  0  0  0  0
    4.8050    1.8398   27.7591 H   0  0  0  0  0  0  0  0  0  0  0  0
  1  2  1  0
  2  3  2  0
  3  4  1  0
  4  5  2  0
  5  6  1  0
  6  7  2  0
  7  8  1  0
  8  9  1  0
  9 10  1  0
 10 11  2  0
 11 12  1  0
 12 13  2  0
 13 14  1  0
 14 15  2  0
 15 16  1  0
 13 17  1  0
 12 18  1  0
 11 19  1  0
  9 20  1  0
  9 21  1  0
  8 22  1  0
 22 23  1  0
 23 24  1  0
 24 25  2  0
 25 26  1  0
 26 27  2  0
 27 28  1  0
 28 29  2  0
 29 30  1  0
 27 31  1  0
 26 32  1  0
 25 33  1  0
 23 34  1  0
 23 35  1  0
 22 36  2  0
  5 37  1  0
 37 38  2  0
 37 39  1  0
  4 40  1  0
  3 41  1  0
 38  2  1  0
 36  6  1  0
 15 10  1  0
 29 24  1  0
M  END
>  <cnnaffinity>  (1) 
-6.33642

>  <filename>  (1) 
Clc1ccc(-c2nc(Cc3cccnc3)n(Cc3cccnc3)n2)cn1

$$$$
