
     RDKit          3D

 28 29  0  0  0  0  0  0  0  0999 V2000
    4.9158    1.7851   16.9921 H   0  0  0  0  0  0  0  0  0  0  0  0
    5.3987    1.2963   17.8352 C   0  0  0  0  0  0  0  0  0  0  0  0
    6.5632    0.6805   17.5718 N   0  0  0  0  0  0  0  0  0  0  0  0
    7.1638    0.0527   18.5895 C   0  0  0  0  0  0  0  0  0  0  0  0
    8.1176   -0.4266   18.3701 H   0  0  0  0  0  0  0  0  0  0  0  0
    6.6447   -0.0189   19.8947 C   0  0  0  0  0  0  0  0  0  0  0  0
    7.5651   -0.8539   21.1664 S   0  0  0  0  0  0  0  0  0  0  0  0
    8.6270    0.5455   21.6497 C   0  0  0  0  0  0  0  0  0  0  0  0
    9.5313    0.1059   22.0769 H   0  0  0  0  0  0  0  0  0  0  0  0
    8.9152    1.0685   20.7333 H   0  0  0  0  0  0  0  0  0  0  0  0
    7.9629    1.5101   22.6373 C   0  0  0  0  0  0  0  0  0  0  0  0
    8.6015    2.3931   22.7521 H   0  0  0  0  0  0  0  0  0  0  0  0
    7.0141    1.8569   22.2085 H   0  0  0  0  0  0  0  0  0  0  0  0
    7.7154    0.8660   23.9810 C   0  0  0  0  0  0  0  0  0  0  0  0
    6.4632    0.3104   24.2861 C   0  0  0  0  0  0  0  0  0  0  0  0
    5.6680    0.3838   23.5489 H   0  0  0  0  0  0  0  0  0  0  0  0
    6.2196   -0.3307   25.5000 C   0  0  0  0  0  0  0  0  0  0  0  0
    5.2332   -0.7356   25.7129 H   0  0  0  0  0  0  0  0  0  0  0  0
    7.2464   -0.4390   26.4420 C   0  0  0  0  0  0  0  0  0  0  0  0
    7.0676   -0.9273   27.3939 H   0  0  0  0  0  0  0  0  0  0  0  0
    8.5119    0.0819   26.1636 C   0  0  0  0  0  0  0  0  0  0  0  0
    9.3245    0.0078   26.8820 H   0  0  0  0  0  0  0  0  0  0  0  0
    8.7335    0.7190   24.9413 C   0  0  0  0  0  0  0  0  0  0  0  0
   10.3317    1.3414   24.6311 Cl  0  0  0  0  0  0  0  0  0  0  0  0
    5.4338    0.6385   20.1559 C   0  0  0  0  0  0  0  0  0  0  0  0
    5.0080    0.6273   21.1607 H   0  0  0  0  0  0  0  0  0  0  0  0
    4.8024    1.3101   19.1014 C   0  0  0  0  0  0  0  0  0  0  0  0
    3.8724    1.8444   19.2607 H   0  0  0  0  0  0  0  0  0  0  0  0
  1  2  1  0
  2  3  2  0
  3  4  1  0
  4  5  1  0
  4  6  2  0
  6  7  1  0
  7  8  1  0
  8  9  1  0
  8 10  1  0
  8 11  1  0
 11 12  1  0
 11 13  1  0
 11 14  1  0
 14 15  2  0
 15 16  1  0
 15 17  1  0
 17 18  1  0
 17 19  2  0
 19 20  1  0
 19 21  1  0
 21 22  1  0
 21 23  2  0
 23 24  1  0
  6 25  1  0
 25 26  1  0
 25 27  2  0
 27 28  1  0
 27  2  1  0
 23 14  1  0
M  END
>  <cnnaffinity>  (1) 
-4.88456

>  <filename>  (1) 
Clc1ccccc1CCSc1cccnc1

$$$$
