
     RDKit          3D

 40 43  0  0  0  0  0  0  0  0999 V2000
    9.6668    2.1639   21.0197 Cl  0  0  0  0  0  0  0  0  0  0  0  0
    9.7148    2.1857   22.7443 C   0  0  0  0  0  0  0  0  0  0  0  0
   10.8726    2.5527   23.2714 N   0  0  0  0  0  0  0  0  0  0  0  0
   10.9995    2.4438   24.5962 C   0  0  0  0  0  0  0  0  0  0  0  0
    9.9801    1.9680   25.4200 C   0  0  0  0  0  0  0  0  0  0  0  0
    8.7538    1.6217   24.8458 C   0  0  0  0  0  0  0  0  0  0  0  0
    8.5812    1.7426   23.4629 C   0  0  0  0  0  0  0  0  0  0  0  0
    7.3053    1.2451   22.7850 C   0  0  0  0  0  0  0  0  0  0  0  0
    7.4783   -0.1402   22.2265 C   0  0  0  0  0  0  0  0  0  0  0  0
    7.9951   -1.1066   22.9532 N   0  0  0  0  0  0  0  0  0  0  0  0
    8.2083   -2.1024   22.0610 C   0  0  0  0  0  0  0  0  0  0  0  0
    8.8555   -3.3490   22.5455 C   0  0  0  0  0  0  0  0  0  0  0  0
    8.1083   -4.0788   23.6817 C   0  0  0  0  0  0  0  0  0  0  0  0
    9.2314   -4.8359   24.3990 C   0  0  0  0  0  0  0  0  0  0  0  0
   10.4192   -4.0976   24.1560 O   0  0  0  0  0  0  0  0  0  0  0  0
   10.2043   -3.0521   23.2276 C   0  0  0  0  0  0  0  0  0  0  0  0
   10.1767   -2.0808   23.7533 H   0  0  0  0  0  0  0  0  0  0  0  0
   11.0444   -3.0125   22.5262 H   0  0  0  0  0  0  0  0  0  0  0  0
    9.0530   -4.8931   25.4809 H   0  0  0  0  0  0  0  0  0  0  0  0
    9.3725   -5.8634   24.0243 H   0  0  0  0  0  0  0  0  0  0  0  0
    7.3236   -4.7444   23.3197 H   0  0  0  0  0  0  0  0  0  0  0  0
    7.6560   -3.3254   24.3430 H   0  0  0  0  0  0  0  0  0  0  0  0
    8.9485   -4.0149   21.6915 H   0  0  0  0  0  0  0  0  0  0  0  0
    7.8371   -1.8386   20.8277 N   0  0  0  0  0  0  0  0  0  0  0  0
    7.3074   -0.5835   20.9418 N   0  0  0  0  0  0  0  0  0  0  0  0
    6.6144    0.0321   19.8700 C   0  0  0  0  0  0  0  0  0  0  0  0
    5.3922    0.6837   20.0920 C   0  0  0  0  0  0  0  0  0  0  0  0
    4.7914    1.3315   19.0105 C   0  0  0  0  0  0  0  0  0  0  0  0
    5.4201    1.3034   17.7628 C   0  0  0  0  0  0  0  0  0  0  0  0
    6.5662    0.6376   17.5345 N   0  0  0  0  0  0  0  0  0  0  0  0
    7.1392    0.0068   18.5639 C   0  0  0  0  0  0  0  0  0  0  0  0
    8.0564   -0.5389   18.3572 H   0  0  0  0  0  0  0  0  0  0  0  0
    4.9883    1.8306   16.9143 H   0  0  0  0  0  0  0  0  0  0  0  0
    3.8578    1.8676   19.1329 H   0  0  0  0  0  0  0  0  0  0  0  0
    4.9231    0.6695   21.0761 H   0  0  0  0  0  0  0  0  0  0  0  0
    6.4984    1.2030   23.5253 H   0  0  0  0  0  0  0  0  0  0  0  0
    6.9906    1.9436   22.0071 H   0  0  0  0  0  0  0  0  0  0  0  0
    7.9439    1.2264   25.4649 H   0  0  0  0  0  0  0  0  0  0  0  0
   10.1495    1.8462   26.4757 H   0  0  0  0  0  0  0  0  0  0  0  0
   11.9578    2.7581   25.0086 H   0  0  0  0  0  0  0  0  0  0  0  0
  1  2  1  0
  2  3  2  0
  3  4  1  0
  4  5  2  0
  5  6  1  0
  6  7  2  0
  7  8  1  0
  8  9  1  0
  9 10  2  0
 10 11  1  0
 11 12  1  0
 12 13  1  0
 13 14  1  0
 14 15  1  0
 15 16  1  0
 16 17  1  0
 16 18  1  0
 14 19  1  0
 14 20  1  0
 13 21  1  0
 13 22  1  0
 12 23  1  0
 11 24  2  0
 24 25  1  0
 25 26  1  0
 26 27  2  0
 27 28  1  0
 28 29  2  0
 29 30  1  0
 30 31  2  0
 31 32  1  0
 29 33  1  0
 28 34  1  0
 27 35  1  0
  8 36  1  0
  8 37  1  0
  6 38  1  0
  5 39  1  0
  4 40  1  0
  7  2  1  0
 25  9  1  0
 31 26  1  0
 16 12  1  0
M  END
>  <cnnaffinity>  (1) 
-6.36685

>  <filename>  (1) 
Clc1ncccc1Cc1nc(C2CCOC2)nn1-c1cccnc1

$$$$
