
     RDKit          3D

 25 26  0  0  0  0  0  0  0  0999 V2000
    4.9652    1.8124   16.9565 H   0  0  0  0  0  0  0  0  0  0  0  0
    5.4268    1.3109   17.8029 C   0  0  0  0  0  0  0  0  0  0  0  0
    6.5883    0.6799   17.5607 N   0  0  0  0  0  0  0  0  0  0  0  0
    7.1572    0.0195   18.5819 C   0  0  0  0  0  0  0  0  0  0  0  0
    8.1136   -0.4496   18.3644 H   0  0  0  0  0  0  0  0  0  0  0  0
    6.5970   -0.0581   19.8793 C   0  0  0  0  0  0  0  0  0  0  0  0
    7.0629   -0.8190   20.9590 N   0  0  0  0  0  0  0  0  0  0  0  0
    7.0532   -0.2805   21.8234 H   0  0  0  0  0  0  0  0  0  0  0  0
    8.2655   -1.5395   20.7952 N   0  0  0  0  0  0  0  0  0  0  0  0
    8.1499   -2.2027   20.0367 H   0  0  0  0  0  0  0  0  0  0  0  0
    8.7860   -2.2329   21.9333 C   0  0  0  0  0  0  0  0  0  0  0  0
   10.1794   -2.3973   21.9378 C   0  0  0  0  0  0  0  0  0  0  0  0
   10.7223   -2.0005   21.0840 H   0  0  0  0  0  0  0  0  0  0  0  0
   10.8319   -3.0353   22.9916 C   0  0  0  0  0  0  0  0  0  0  0  0
   11.9141   -3.1228   22.9760 H   0  0  0  0  0  0  0  0  0  0  0  0
   10.0930   -3.5660   24.0547 C   0  0  0  0  0  0  0  0  0  0  0  0
   10.5905   -4.0658   24.8818 H   0  0  0  0  0  0  0  0  0  0  0  0
    8.7003   -3.4705   24.0453 C   0  0  0  0  0  0  0  0  0  0  0  0
    8.1050   -3.8775   24.8620 H   0  0  0  0  0  0  0  0  0  0  0  0
    8.0483   -2.8105   22.9933 C   0  0  0  0  0  0  0  0  0  0  0  0
    6.3105   -2.7309   23.0896 Cl  0  0  0  0  0  0  0  0  0  0  0  0
    5.4162    0.6610   20.1269 C   0  0  0  0  0  0  0  0  0  0  0  0
    4.9988    0.6476   21.1381 H   0  0  0  0  0  0  0  0  0  0  0  0
    4.8210    1.3346   19.0670 C   0  0  0  0  0  0  0  0  0  0  0  0
    3.8934    1.8742   19.2117 H   0  0  0  0  0  0  0  0  0  0  0  0
  1  2  1  0
  2  3  2  0
  3  4  1  0
  4  5  1  0
  4  6  2  0
  6  7  1  0
  7  8  1  0
  7  9  1  0
  9 10  1  0
  9 11  1  0
 11 12  2  0
 12 13  1  0
 12 14  1  0
 14 15  1  0
 14 16  2  0
 16 17  1  0
 16 18  1  0
 18 19  1  0
 18 20  2  0
 20 21  1  0
  6 22  1  0
 22 23  1  0
 22 24  2  0
 24 25  1  0
 24  2  1  0
 20 11  1  0
M  END
>  <cnnaffinity>  (1) 
-4.79309

>  <filename>  (1) 
Clc1ccccc1NNc1cccnc1

$$$$
