
     RDKit          3D

 42 45  0  0  0  0  0  0  0  0999 V2000
    7.0869    6.4087   26.3241 Cl  0  0  0  0  0  0  0  0  0  0  0  0
    7.6384    5.1185   25.2938 C   0  0  0  0  0  0  0  0  0  0  0  0
    7.6895    5.3085   23.9155 C   0  0  0  0  0  0  0  0  0  0  0  0
    8.1319    4.2729   23.0804 C   0  0  0  0  0  0  0  0  0  0  0  0
    8.5233    3.0431   23.6282 C   0  0  0  0  0  0  0  0  0  0  0  0
    8.9743    1.9785   22.9101 O   0  0  0  0  0  0  0  0  0  0  0  0
    9.0374    2.0158   21.4863 C   0  0  0  0  0  0  0  0  0  0  0  0
    9.5104    0.6395   21.0062 C   0  0  0  0  0  0  0  0  0  0  0  0
    8.6261   -0.4668   21.4556 C   0  0  0  0  0  0  0  0  0  0  0  0
    8.8617   -1.3150   22.4386 N   0  0  0  0  0  0  0  0  0  0  0  0
    7.6816   -1.9689   22.5611 C   0  0  0  0  0  0  0  0  0  0  0  0
    7.4242   -2.9674   23.6416 C   0  0  0  0  0  0  0  0  0  0  0  0
    6.8093   -4.3050   23.1486 C   0  0  0  0  0  0  0  0  0  0  0  0
    5.3081   -4.0577   24.1561 S   0  0  0  0  0  0  0  0  0  0  0  0
    6.2727   -2.5778   24.6178 C   0  0  0  0  0  0  0  0  0  0  0  0
    5.7676   -1.6394   24.3692 H   0  0  0  0  0  0  0  0  0  0  0  0
    6.5526   -2.5561   25.6759 H   0  0  0  0  0  0  0  0  0  0  0  0
    7.3737   -5.1982   23.4337 H   0  0  0  0  0  0  0  0  0  0  0  0
    6.5969   -4.3325   22.0748 H   0  0  0  0  0  0  0  0  0  0  0  0
    8.3738   -3.1002   24.1563 H   0  0  0  0  0  0  0  0  0  0  0  0
    6.7556   -1.6193   21.6920 N   0  0  0  0  0  0  0  0  0  0  0  0
    7.3710   -0.6620   20.9521 N   0  0  0  0  0  0  0  0  0  0  0  0
    6.6619    0.0072   19.9078 C   0  0  0  0  0  0  0  0  0  0  0  0
    5.4408    0.6390   20.1703 C   0  0  0  0  0  0  0  0  0  0  0  0
    4.8146    1.3073   19.1118 C   0  0  0  0  0  0  0  0  0  0  0  0
    5.4014    1.2957   17.8392 C   0  0  0  0  0  0  0  0  0  0  0  0
    6.5602    0.6717   17.5780 N   0  0  0  0  0  0  0  0  0  0  0  0
    7.1682    0.0511   18.5956 C   0  0  0  0  0  0  0  0  0  0  0  0
    8.1111   -0.4371   18.3653 H   0  0  0  0  0  0  0  0  0  0  0  0
    4.9219    1.7869   16.9943 H   0  0  0  0  0  0  0  0  0  0  0  0
    3.8820    1.8376   19.2602 H   0  0  0  0  0  0  0  0  0  0  0  0
    5.0129    0.6071   21.1770 H   0  0  0  0  0  0  0  0  0  0  0  0
   10.5123    0.4225   21.3755 H   0  0  0  0  0  0  0  0  0  0  0  0
    9.5629    0.6495   19.9156 H   0  0  0  0  0  0  0  0  0  0  0  0
    8.0517    2.2458   21.0551 H   0  0  0  0  0  0  0  0  0  0  0  0
    9.7484    2.7845   21.1553 H   0  0  0  0  0  0  0  0  0  0  0  0
    8.4668    2.8645   25.0257 C   0  0  0  0  0  0  0  0  0  0  0  0
    8.0269    3.8972   25.8552 C   0  0  0  0  0  0  0  0  0  0  0  0
    7.9770    3.7715   26.9330 H   0  0  0  0  0  0  0  0  0  0  0  0
    8.7702    1.9139   25.4509 H   0  0  0  0  0  0  0  0  0  0  0  0
    8.1749    4.4277   22.0071 H   0  0  0  0  0  0  0  0  0  0  0  0
    7.3826    6.2614   23.4944 H   0  0  0  0  0  0  0  0  0  0  0  0
  1  2  1  0
  2  3  2  0
  3  4  1  0
  4  5  2  0
  5  6  1  0
  6  7  1  0
  7  8  1  0
  8  9  1  0
  9 10  2  0
 10 11  1  0
 11 12  1  0
 12 13  1  0
 13 14  1  0
 14 15  1  0
 15 16  1  0
 15 17  1  0
 13 18  1  0
 13 19  1  0
 12 20  1  0
 11 21  2  0
 21 22  1  0
 22 23  1  0
 23 24  2  0
 24 25  1  0
 25 26  2  0
 26 27  1  0
 27 28  2  0
 28 29  1  0
 26 30  1  0
 25 31  1  0
 24 32  1  0
  8 33  1  0
  8 34  1  0
  7 35  1  0
  7 36  1  0
  5 37  1  0
 37 38  2  0
 38 39  1  0
 37 40  1  0
  4 41  1  0
  3 42  1  0
 38  2  1  0
 22  9  1  0
 28 23  1  0
 15 12  1  0
M  END
>  <cnnaffinity>  (1) 
-5.97743

>  <filename>  (1) 
Clc1ccc(OCCc2nc(C3CSC3)nn2-c2cccnc2)cc1

$$$$
