
     RDKit          3D

 40 43  0  0  0  0  0  0  0  0999 V2000
    2.8804   -6.1370   22.0918 Cl  0  0  0  0  0  0  0  0  0  0  0  0
    4.0274   -5.0998   22.8897 C   0  0  0  0  0  0  0  0  0  0  0  0
    5.3996   -5.3199   22.7128 C   0  0  0  0  0  0  0  0  0  0  0  0
    6.2877   -4.4660   23.3730 C   0  0  0  0  0  0  0  0  0  0  0  0
    5.7554   -3.4292   24.1562 C   0  0  0  0  0  0  0  0  0  0  0  0
    6.5842   -2.4998   24.8274 N   0  0  0  0  0  0  0  0  0  0  0  0
    6.3854   -2.2057   26.1395 N   0  0  0  0  0  0  0  0  0  0  0  0
    7.3704   -1.3630   26.3909 C   0  0  0  0  0  0  0  0  0  0  0  0
    7.6148   -0.7384   27.7013 C   0  0  0  0  0  0  0  0  0  0  0  0
    6.4632   -0.1311   28.4712 C   0  0  0  0  0  0  0  0  0  0  0  0
    7.5352    0.7574   27.9055 C   0  0  0  0  0  0  0  0  0  0  0  0
    7.3358    1.3912   27.0416 H   0  0  0  0  0  0  0  0  0  0  0  0
    8.2551    1.1849   28.6027 H   0  0  0  0  0  0  0  0  0  0  0  0
    5.5016   -0.1803   27.9540 H   0  0  0  0  0  0  0  0  0  0  0  0
    6.3961   -0.2923   29.5473 H   0  0  0  0  0  0  0  0  0  0  0  0
    8.4695   -1.2253   28.1708 H   0  0  0  0  0  0  0  0  0  0  0  0
    8.1727   -1.0731   25.3330 N   0  0  0  0  0  0  0  0  0  0  0  0
    7.6444   -1.7766   24.3594 C   0  0  0  0  0  0  0  0  0  0  0  0
    8.0013   -1.6279   22.9254 C   0  0  0  0  0  0  0  0  0  0  0  0
    6.9537   -0.8030   22.1763 C   0  0  0  0  0  0  0  0  0  0  0  0
    7.4092   -0.6896   20.8371 O   0  0  0  0  0  0  0  0  0  0  0  0
    6.6638   -0.0094   19.9308 C   0  0  0  0  0  0  0  0  0  0  0  0
    5.4460    0.6385   20.1837 C   0  0  0  0  0  0  0  0  0  0  0  0
    4.8175    1.2966   19.1156 C   0  0  0  0  0  0  0  0  0  0  0  0
    5.4103    1.2819   17.8532 C   0  0  0  0  0  0  0  0  0  0  0  0
    6.5768    0.6593   17.5980 N   0  0  0  0  0  0  0  0  0  0  0  0
    7.1831    0.0417   18.6147 C   0  0  0  0  0  0  0  0  0  0  0  0
    8.1338   -0.4474   18.4121 H   0  0  0  0  0  0  0  0  0  0  0  0
    4.9433    1.7842   17.0102 H   0  0  0  0  0  0  0  0  0  0  0  0
    3.8840    1.8297   19.2624 H   0  0  0  0  0  0  0  0  0  0  0  0
    5.0087    0.6361   21.1811 H   0  0  0  0  0  0  0  0  0  0  0  0
    5.9804   -1.3093   22.1991 H   0  0  0  0  0  0  0  0  0  0  0  0
    6.8426    0.1975   22.6236 H   0  0  0  0  0  0  0  0  0  0  0  0
    8.9665   -1.1188   22.8867 H   0  0  0  0  0  0  0  0  0  0  0  0
    8.1043   -2.6005   22.4352 H   0  0  0  0  0  0  0  0  0  0  0  0
    4.3629   -3.3192   24.2784 C   0  0  0  0  0  0  0  0  0  0  0  0
    3.5193   -4.1418   23.6480 N   0  0  0  0  0  0  0  0  0  0  0  0
    3.9156   -2.5349   24.8860 H   0  0  0  0  0  0  0  0  0  0  0  0
    7.3688   -4.6164   23.3197 H   0  0  0  0  0  0  0  0  0  0  0  0
    5.7345   -6.1372   22.0865 H   0  0  0  0  0  0  0  0  0  0  0  0
  1  2  1  0
  2  3  2  0
  3  4  1  0
  4  5  2  0
  5  6  1  0
  6  7  1  0
  7  8  2  0
  8  9  1  0
  9 10  1  0
 10 11  1  0
 11 12  1  0
 11 13  1  0
 10 14  1  0
 10 15  1  0
  9 16  1  0
  8 17  1  0
 17 18  2  0
 18 19  1  0
 19 20  1  0
 20 21  1  0
 21 22  1  0
 22 23  2  0
 23 24  1  0
 24 25  2  0
 25 26  1  0
 26 27  2  0
 27 28  1  0
 25 29  1  0
 24 30  1  0
 23 31  1  0
 20 32  1  0
 20 33  1  0
 19 34  1  0
 19 35  1  0
  5 36  1  0
 36 37  2  0
 36 38  1  0
  4 39  1  0
  3 40  1  0
 37  2  1  0
 18  6  1  0
 27 22  1  0
 11  9  1  0
M  END
>  <cnnaffinity>  (1) 
-5.57336

>  <filename>  (1) 
Clc1ccc(-n2nc(C3CC3)nc2CCOc2cccnc2)cn1

$$$$
