
     RDKit          3D

 48 51  0  0  0  0  0  0  0  0999 V2000
    7.0617    6.3128   26.4197 Cl  0  0  0  0  0  0  0  0  0  0  0  0
    7.6215    5.0442   25.3678 C   0  0  0  0  0  0  0  0  0  0  0  0
    7.6759    5.2609   23.9932 C   0  0  0  0  0  0  0  0  0  0  0  0
    8.1250    4.2423   23.1408 C   0  0  0  0  0  0  0  0  0  0  0  0
    8.5183    3.0050   23.6682 C   0  0  0  0  0  0  0  0  0  0  0  0
    8.9759    1.9538   22.9352 O   0  0  0  0  0  0  0  0  0  0  0  0
    9.0352    2.0168   21.5137 C   0  0  0  0  0  0  0  0  0  0  0  0
    9.5081    0.6532   21.0100 C   0  0  0  0  0  0  0  0  0  0  0  0
    8.6250   -0.4521   21.4481 C   0  0  0  0  0  0  0  0  0  0  0  0
    8.8684   -1.2952   22.4298 N   0  0  0  0  0  0  0  0  0  0  0  0
    7.6904   -1.9541   22.5589 C   0  0  0  0  0  0  0  0  0  0  0  0
    7.4345   -2.9336   23.6717 C   0  0  0  0  0  0  0  0  0  0  0  0
    6.8495   -4.2670   23.1524 C   0  0  0  0  0  0  0  0  0  0  0  0
    6.4591   -5.1773   24.3155 C   0  0  0  0  0  0  0  0  0  0  0  0
    5.5671   -4.5353   25.2098 O   0  0  0  0  0  0  0  0  0  0  0  0
    6.1404   -3.3853   25.8084 C   0  0  0  0  0  0  0  0  0  0  0  0
    6.5119   -2.3317   24.7670 C   0  0  0  0  0  0  0  0  0  0  0  0
    5.5938   -1.9675   24.2995 H   0  0  0  0  0  0  0  0  0  0  0  0
    6.9901   -1.4719   25.2535 H   0  0  0  0  0  0  0  0  0  0  0  0
    5.3963   -3.0032   26.5123 H   0  0  0  0  0  0  0  0  0  0  0  0
    7.0384   -3.6732   26.3821 H   0  0  0  0  0  0  0  0  0  0  0  0
    7.3658   -5.4945   24.8610 H   0  0  0  0  0  0  0  0  0  0  0  0
    5.9450   -6.0742   23.9618 H   0  0  0  0  0  0  0  0  0  0  0  0
    7.5694   -4.7782   22.5015 H   0  0  0  0  0  0  0  0  0  0  0  0
    5.9598   -4.0491   22.5501 H   0  0  0  0  0  0  0  0  0  0  0  0
    8.4199   -3.1139   24.1143 H   0  0  0  0  0  0  0  0  0  0  0  0
    6.7575   -1.6059   21.6902 N   0  0  0  0  0  0  0  0  0  0  0  0
    7.3717   -0.6511   20.9481 N   0  0  0  0  0  0  0  0  0  0  0  0
    6.6612    0.0118   19.9045 C   0  0  0  0  0  0  0  0  0  0  0  0
    5.4390    0.6398   20.1686 C   0  0  0  0  0  0  0  0  0  0  0  0
    4.8135    1.3080   19.1097 C   0  0  0  0  0  0  0  0  0  0  0  0
    5.4009    1.2968   17.8371 C   0  0  0  0  0  0  0  0  0  0  0  0
    6.5579    0.6710   17.5739 N   0  0  0  0  0  0  0  0  0  0  0  0
    7.1666    0.0519   18.5921 C   0  0  0  0  0  0  0  0  0  0  0  0
    8.1093   -0.4360   18.3618 H   0  0  0  0  0  0  0  0  0  0  0  0
    4.9242    1.7892   16.9918 H   0  0  0  0  0  0  0  0  0  0  0  0
    3.8815    1.8380   19.2581 H   0  0  0  0  0  0  0  0  0  0  0  0
    5.0136    0.6064   21.1772 H   0  0  0  0  0  0  0  0  0  0  0  0
    9.5513    0.6731   19.9210 H   0  0  0  0  0  0  0  0  0  0  0  0
   10.5099    0.4267   21.3722 H   0  0  0  0  0  0  0  0  0  0  0  0
    9.7426    2.7914   21.1924 H   0  0  0  0  0  0  0  0  0  0  0  0
    8.0480    2.2508   21.0896 H   0  0  0  0  0  0  0  0  0  0  0  0
    8.4584    2.7995   25.0614 C   0  0  0  0  0  0  0  0  0  0  0  0
    8.0124    3.8150   25.9080 C   0  0  0  0  0  0  0  0  0  0  0  0
    7.9590    3.6708   26.9836 H   0  0  0  0  0  0  0  0  0  0  0  0
    8.7643    1.8413   25.4666 H   0  0  0  0  0  0  0  0  0  0  0  0
    8.1718    4.4156   22.0700 H   0  0  0  0  0  0  0  0  0  0  0  0
    7.3660    6.2209   23.5914 H   0  0  0  0  0  0  0  0  0  0  0  0
  1  2  1  0
  2  3  2  0
  3  4  1  0
  4  5  2  0
  5  6  1  0
  6  7  1  0
  7  8  1  0
  8  9  1  0
  9 10  2  0
 10 11  1  0
 11 12  1  0
 12 13  1  0
 13 14  1  0
 14 15  1  0
 15 16  1  0
 16 17  1  0
 17 18  1  0
 17 19  1  0
 16 20  1  0
 16 21  1  0
 14 22  1  0
 14 23  1  0
 13 24  1  0
 13 25  1  0
 12 26  1  0
 11 27  2  0
 27 28  1  0
 28 29  1  0
 29 30  2  0
 30 31  1  0
 31 32  2  0
 32 33  1  0
 33 34  2  0
 34 35  1  0
 32 36  1  0
 31 37  1  0
 30 38  1  0
  8 39  1  0
  8 40  1  0
  7 41  1  0
  7 42  1  0
  5 43  1  0
 43 44  2  0
 44 45  1  0
 43 46  1  0
  4 47  1  0
  3 48  1  0
 44  2  1  0
 28  9  1  0
 34 29  1  0
 17 12  1  0
M  END
>  <cnnaffinity>  (1) 
-6.00009

>  <filename>  (1) 
Clc1ccc(OCCc2nc(C3CCOCC3)nn2-c2cccnc2)cc1

$$$$
