
     RDKit          3D

 49 52  0  0  0  0  0  0  0  0999 V2000
    6.8046    5.7011   25.0458 Cl  0  0  0  0  0  0  0  0  0  0  0  0
    6.9324    3.9729   24.9526 C   0  0  0  0  0  0  0  0  0  0  0  0
    5.7767    3.2179   24.7175 C   0  0  0  0  0  0  0  0  0  0  0  0
    5.8939    1.8308   24.6505 C   0  0  0  0  0  0  0  0  0  0  0  0
    7.1668    1.2598   24.8092 C   0  0  0  0  0  0  0  0  0  0  0  0
    7.3457   -0.1508   24.7059 N   0  0  0  0  0  0  0  0  0  0  0  0
    6.5364   -0.9905   25.4018 N   0  0  0  0  0  0  0  0  0  0  0  0
    6.9455   -2.1892   25.0262 C   0  0  0  0  0  0  0  0  0  0  0  0
    6.2863   -3.4600   25.4971 C   0  0  0  0  0  0  0  0  0  0  0  0
    4.9048   -3.6763   24.8130 C   0  0  0  0  0  0  0  0  0  0  0  0
    4.0217   -4.6651   25.6058 C   0  0  0  0  0  0  0  0  0  0  0  0
    4.7937   -5.5152   26.4288 O   0  0  0  0  0  0  0  0  0  0  0  0
    5.4116   -4.8077   27.4917 C   0  0  0  0  0  0  0  0  0  0  0  0
    6.1386   -3.5176   27.0333 C   0  0  0  0  0  0  0  0  0  0  0  0
    5.5784   -2.6335   27.3618 H   0  0  0  0  0  0  0  0  0  0  0  0
    7.1231   -3.4600   27.5090 H   0  0  0  0  0  0  0  0  0  0  0  0
    4.6504   -4.5565   28.2510 H   0  0  0  0  0  0  0  0  0  0  0  0
    6.1089   -5.5196   27.9412 H   0  0  0  0  0  0  0  0  0  0  0  0
    3.4483   -5.3113   24.9367 H   0  0  0  0  0  0  0  0  0  0  0  0
    3.2981   -4.1094   26.2270 H   0  0  0  0  0  0  0  0  0  0  0  0
    5.0656   -4.0470   23.7945 H   0  0  0  0  0  0  0  0  0  0  0  0
    4.3739   -2.7213   24.7258 H   0  0  0  0  0  0  0  0  0  0  0  0
    6.9456   -4.2737   25.1838 H   0  0  0  0  0  0  0  0  0  0  0  0
    7.9504   -2.1886   24.1157 N   0  0  0  0  0  0  0  0  0  0  0  0
    8.1729   -0.9021   23.9195 C   0  0  0  0  0  0  0  0  0  0  0  0
    9.0797   -0.3213   22.8909 C   0  0  0  0  0  0  0  0  0  0  0  0
    8.3057    0.3298   21.7339 C   0  0  0  0  0  0  0  0  0  0  0  0
    7.4052   -0.6746   20.9964 C   0  0  0  0  0  0  0  0  0  0  0  0
    6.6428   -0.0102   19.8876 C   0  0  0  0  0  0  0  0  0  0  0  0
    5.4328    0.6462   20.1432 C   0  0  0  0  0  0  0  0  0  0  0  0
    4.7987    1.3143   19.0952 C   0  0  0  0  0  0  0  0  0  0  0  0
    5.3957    1.2998   17.8292 C   0  0  0  0  0  0  0  0  0  0  0  0
    6.5592    0.6885   17.5634 N   0  0  0  0  0  0  0  0  0  0  0  0
    7.1596    0.0616   18.5844 C   0  0  0  0  0  0  0  0  0  0  0  0
    8.1103   -0.4186   18.3557 H   0  0  0  0  0  0  0  0  0  0  0  0
    4.9148    1.7905   16.9871 H   0  0  0  0  0  0  0  0  0  0  0  0
    3.8702    1.8475   19.2504 H   0  0  0  0  0  0  0  0  0  0  0  0
    5.0125    0.6357   21.1549 H   0  0  0  0  0  0  0  0  0  0  0  0
    8.0208   -1.4957   20.6028 H   0  0  0  0  0  0  0  0  0  0  0  0
    6.7026   -1.1356   21.7060 H   0  0  0  0  0  0  0  0  0  0  0  0
    9.0155    0.7683   21.0236 H   0  0  0  0  0  0  0  0  0  0  0  0
    7.6969    1.1623   22.1123 H   0  0  0  0  0  0  0  0  0  0  0  0
    9.6968   -1.1432   22.5168 H   0  0  0  0  0  0  0  0  0  0  0  0
    9.7557    0.4046   23.3520 H   0  0  0  0  0  0  0  0  0  0  0  0
    8.2404    2.1259   25.0618 C   0  0  0  0  0  0  0  0  0  0  0  0
    8.1357    3.4577   25.1269 N   0  0  0  0  0  0  0  0  0  0  0  0
    9.2387    1.7291   25.2146 H   0  0  0  0  0  0  0  0  0  0  0  0
    5.0262    1.1943   24.4819 H   0  0  0  0  0  0  0  0  0  0  0  0
    4.8281    3.7253   24.6043 H   0  0  0  0  0  0  0  0  0  0  0  0
  1  2  1  0
  2  3  2  0
  3  4  1  0
  4  5  2  0
  5  6  1  0
  6  7  1  0
  7  8  2  0
  8  9  1  0
  9 10  1  0
 10 11  1  0
 11 12  1  0
 12 13  1  0
 13 14  1  0
 14 15  1  0
 14 16  1  0
 13 17  1  0
 13 18  1  0
 11 19  1  0
 11 20  1  0
 10 21  1  0
 10 22  1  0
  9 23  1  0
  8 24  1  0
 24 25  2  0
 25 26  1  0
 26 27  1  0
 27 28  1  0
 28 29  1  0
 29 30  2  0
 30 31  1  0
 31 32  2  0
 32 33  1  0
 33 34  2  0
 34 35  1  0
 32 36  1  0
 31 37  1  0
 30 38  1  0
 28 39  1  0
 28 40  1  0
 27 41  1  0
 27 42  1  0
 26 43  1  0
 26 44  1  0
  5 45  1  0
 45 46  2  0
 45 47  1  0
  4 48  1  0
  3 49  1  0
 46  2  1  0
 25  6  1  0
 34 29  1  0
 14  9  1  0
M  END
>  <cnnaffinity>  (1) 
-6.71438

>  <filename>  (1) 
Clc1ccc(-n2nc(C3CCOCC3)nc2CCCc2cccnc2)cn1

$$$$
