
     RDKit          3D

 42 45  0  0  0  0  0  0  0  0999 V2000
    4.6036    3.3256   25.4551 Cl  0  0  0  0  0  0  0  0  0  0  0  0
    4.0800    1.6803   25.6952 C   0  0  0  0  0  0  0  0  0  0  0  0
    2.8107    1.4767   26.2421 C   0  0  0  0  0  0  0  0  0  0  0  0
    2.3650    0.1746   26.4828 C   0  0  0  0  0  0  0  0  0  0  0  0
    3.1867   -0.9147   26.1809 C   0  0  0  0  0  0  0  0  0  0  0  0
    4.4544   -0.6942   25.6330 C   0  0  0  0  0  0  0  0  0  0  0  0
    4.9226    0.6059   25.3663 C   0  0  0  0  0  0  0  0  0  0  0  0
    6.2896    0.8485   24.7731 C   0  0  0  0  0  0  0  0  0  0  0  0
    6.1484    1.4304   23.4687 O   0  0  0  0  0  0  0  0  0  0  0  0
    7.3332    1.3719   22.6889 C   0  0  0  0  0  0  0  0  0  0  0  0
    7.6262   -0.0232   22.2010 C   0  0  0  0  0  0  0  0  0  0  0  0
    8.2452   -0.9409   22.9234 N   0  0  0  0  0  0  0  0  0  0  0  0
    8.2898   -2.0127   22.0971 C   0  0  0  0  0  0  0  0  0  0  0  0
    8.9899   -3.2653   22.4714 C   0  0  0  0  0  0  0  0  0  0  0  0
   10.3814   -3.0031   23.1043 C   0  0  0  0  0  0  0  0  0  0  0  0
   10.0605   -4.1852   24.4538 S   0  0  0  0  0  0  0  0  0  0  0  0
    8.4326   -4.1492   23.6208 C   0  0  0  0  0  0  0  0  0  0  0  0
    8.0936   -5.1347   23.2818 H   0  0  0  0  0  0  0  0  0  0  0  0
    7.6560   -3.6777   24.2325 H   0  0  0  0  0  0  0  0  0  0  0  0
   11.2451   -3.2496   22.4870 H   0  0  0  0  0  0  0  0  0  0  0  0
   10.4903   -1.9799   23.4833 H   0  0  0  0  0  0  0  0  0  0  0  0
    9.0053   -3.8478   21.5534 H   0  0  0  0  0  0  0  0  0  0  0  0
    7.7822   -1.8137   20.9026 N   0  0  0  0  0  0  0  0  0  0  0  0
    7.3144   -0.5398   20.9794 N   0  0  0  0  0  0  0  0  0  0  0  0
    6.6160    0.0459   19.8968 C   0  0  0  0  0  0  0  0  0  0  0  0
    5.4253    0.7364   20.1326 C   0  0  0  0  0  0  0  0  0  0  0  0
    4.8062    1.3569   19.0455 C   0  0  0  0  0  0  0  0  0  0  0  0
    5.4123    1.2819   17.7881 C   0  0  0  0  0  0  0  0  0  0  0  0
    6.5345    0.5773   17.5538 N   0  0  0  0  0  0  0  0  0  0  0  0
    7.1095   -0.0488   18.5841 C   0  0  0  0  0  0  0  0  0  0  0  0
    8.0038   -0.6316   18.3675 H   0  0  0  0  0  0  0  0  0  0  0  0
    4.9840    1.8064   16.9371 H   0  0  0  0  0  0  0  0  0  0  0  0
    3.8822    1.9054   19.1733 H   0  0  0  0  0  0  0  0  0  0  0  0
    5.0193    0.7876   21.1436 H   0  0  0  0  0  0  0  0  0  0  0  0
    8.2067    1.7141   23.2667 H   0  0  0  0  0  0  0  0  0  0  0  0
    7.2044    2.0745   21.8613 H   0  0  0  0  0  0  0  0  0  0  0  0
    6.8453   -0.0979   24.7092 H   0  0  0  0  0  0  0  0  0  0  0  0
    6.8655    1.5300   25.4194 H   0  0  0  0  0  0  0  0  0  0  0  0
    5.0880   -1.5478   25.3933 H   0  0  0  0  0  0  0  0  0  0  0  0
    2.8449   -1.9284   26.3742 H   0  0  0  0  0  0  0  0  0  0  0  0
    1.3797    0.0166   26.9133 H   0  0  0  0  0  0  0  0  0  0  0  0
    2.1956    2.3394   26.4771 H   0  0  0  0  0  0  0  0  0  0  0  0
  1  2  1  0
  2  3  2  0
  3  4  1  0
  4  5  2  0
  5  6  1  0
  6  7  2  0
  7  8  1  0
  8  9  1  0
  9 10  1  0
 10 11  1  0
 11 12  2  0
 12 13  1  0
 13 14  1  0
 14 15  1  0
 15 16  1  0
 16 17  1  0
 17 18  1  0
 17 19  1  0
 15 20  1  0
 15 21  1  0
 14 22  1  0
 13 23  2  0
 23 24  1  0
 24 25  1  0
 25 26  2  0
 26 27  1  0
 27 28  2  0
 28 29  1  0
 29 30  2  0
 30 31  1  0
 28 32  1  0
 27 33  1  0
 26 34  1  0
 10 35  1  0
 10 36  1  0
  8 37  1  0
  8 38  1  0
  6 39  1  0
  5 40  1  0
  4 41  1  0
  3 42  1  0
  7  2  1  0
 24 11  1  0
 30 25  1  0
 17 14  1  0
M  END
>  <cnnaffinity>  (1) 
-5.6685

>  <filename>  (1) 
Clc1ccccc1COCc1nc(C2CSC2)nn1-c1cccnc1

$$$$
