
     RDKit          3D

 41 44  0  0  0  0  0  0  0  0999 V2000
   15.9982   -0.4006   19.6527 Cl  0  0  0  0  0  0  0  0  0  0  0  0
   14.5928   -0.8160   20.7500 C   0  0  0  0  0  0  0  0  0  0  0  0
   13.6584   -1.8101   20.4806 C   0  0  0  0  0  0  0  0  0  0  0  0
   12.3798   -1.6360   21.0211 C   0  0  0  0  0  0  0  0  0  0  0  0
   12.0210   -0.4973   21.7595 C   0  0  0  0  0  0  0  0  0  0  0  0
   10.5833   -0.1311   21.8304 C   0  0  0  0  0  0  0  0  0  0  0  0
    9.6300   -0.9228   21.3565 N   0  0  0  0  0  0  0  0  0  0  0  0
    8.5055   -0.1943   21.5137 N   0  0  0  0  0  0  0  0  0  0  0  0
    7.2238   -0.7291   21.0548 C   0  0  0  0  0  0  0  0  0  0  0  0
    6.5491    0.0415   19.9342 C   0  0  0  0  0  0  0  0  0  0  0  0
    5.3206    0.6947   20.0986 C   0  0  0  0  0  0  0  0  0  0  0  0
    4.7528    1.3567   19.0073 C   0  0  0  0  0  0  0  0  0  0  0  0
    5.4344    1.3386   17.7866 C   0  0  0  0  0  0  0  0  0  0  0  0
    6.6105    0.7164   17.6037 N   0  0  0  0  0  0  0  0  0  0  0  0
    7.1456    0.0957   18.6618 C   0  0  0  0  0  0  0  0  0  0  0  0
    8.0998   -0.4022   18.4898 H   0  0  0  0  0  0  0  0  0  0  0  0
    5.0223    1.8452   16.9167 H   0  0  0  0  0  0  0  0  0  0  0  0
    3.8125    1.8919   19.0909 H   0  0  0  0  0  0  0  0  0  0  0  0
    4.8159    0.6933   21.0688 H   0  0  0  0  0  0  0  0  0  0  0  0
    7.4468   -1.7502   20.7342 H   0  0  0  0  0  0  0  0  0  0  0  0
    6.5560   -0.8021   21.9186 H   0  0  0  0  0  0  0  0  0  0  0  0
    8.8139    0.9765   22.1075 C   0  0  0  0  0  0  0  0  0  0  0  0
    7.7826    1.8369   22.7873 C   0  0  0  0  0  0  0  0  0  0  0  0
    7.4213    1.2072   24.1206 C   0  0  0  0  0  0  0  0  0  0  0  0
    8.3399    0.9902   25.1137 C   0  0  0  0  0  0  0  0  0  0  0  0
    7.7438    0.2588   26.1018 N   0  0  0  0  0  0  0  0  0  0  0  0
    6.4450   -0.0072   25.7533 C   0  0  0  0  0  0  0  0  0  0  0  0
    6.2160    0.5768   24.5300 C   0  0  0  0  0  0  0  0  0  0  0  0
    5.2838    0.5502   23.9773 H   0  0  0  0  0  0  0  0  0  0  0  0
    5.8027   -0.6044   26.3860 H   0  0  0  0  0  0  0  0  0  0  0  0
    8.2114   -0.0639   26.9321 H   0  0  0  0  0  0  0  0  0  0  0  0
    9.3881    1.2618   25.1292 H   0  0  0  0  0  0  0  0  0  0  0  0
    6.8958    1.9531   22.1562 H   0  0  0  0  0  0  0  0  0  0  0  0
    8.2168    2.8328   22.9225 H   0  0  0  0  0  0  0  0  0  0  0  0
   10.1221    1.0617   22.2884 N   0  0  0  0  0  0  0  0  0  0  0  0
   13.0634    0.3047   22.2681 C   0  0  0  0  0  0  0  0  0  0  0  0
   14.3563    0.1236   21.7826 C   0  0  0  0  0  0  0  0  0  0  0  0
   15.1460    0.8064   22.0859 H   0  0  0  0  0  0  0  0  0  0  0  0
   12.8766    1.1177   22.9644 H   0  0  0  0  0  0  0  0  0  0  0  0
   11.5805   -2.3294   20.8215 H   0  0  0  0  0  0  0  0  0  0  0  0
   13.9010   -2.6780   19.8790 H   0  0  0  0  0  0  0  0  0  0  0  0
  1  2  1  0
  2  3  2  0
  3  4  1  0
  4  5  2  0
  5  6  1  0
  6  7  2  0
  7  8  1  0
  8  9  1  0
  9 10  1  0
 10 11  2  0
 11 12  1  0
 12 13  2  0
 13 14  1  0
 14 15  2  0
 15 16  1  0
 13 17  1  0
 12 18  1  0
 11 19  1  0
  9 20  1  0
  9 21  1  0
  8 22  1  0
 22 23  1  0
 23 24  1  0
 24 25  2  0
 25 26  1  0
 26 27  1  0
 27 28  2  0
 28 29  1  0
 27 30  1  0
 26 31  1  0
 25 32  1  0
 23 33  1  0
 23 34  1  0
 22 35  2  0
  5 36  1  0
 36 37  2  0
 37 38  1  0
 36 39  1  0
  4 40  1  0
  3 41  1  0
 37  2  1  0
 35  6  1  0
 15 10  1  0
 28 24  1  0
M  END
>  <cnnaffinity>  (1) 
-6.48197

>  <filename>  (1) 
Clc1ccc(-c2nc(Cc3cc[nH]c3)n(Cc3cccnc3)n2)cc1

$$$$
