
     RDKit          3D

 40 43  0  0  0  0  0  0  0  0999 V2000
   12.2260   -1.4700   21.2499 Cl  0  0  0  0  0  0  0  0  0  0  0  0
   11.8755    0.0428   22.0150 C   0  0  0  0  0  0  0  0  0  0  0  0
   12.7407    0.4212   22.9422 N   0  0  0  0  0  0  0  0  0  0  0  0
   12.4724    1.5636   23.5798 C   0  0  0  0  0  0  0  0  0  0  0  0
   11.3416    2.3427   23.3387 C   0  0  0  0  0  0  0  0  0  0  0  0
   10.4443    1.9185   22.3579 C   0  0  0  0  0  0  0  0  0  0  0  0
   10.7102    0.7483   21.6407 C   0  0  0  0  0  0  0  0  0  0  0  0
    9.6675    0.2359   20.6693 C   0  0  0  0  0  0  0  0  0  0  0  0
    8.6394   -0.6176   21.3259 C   0  0  0  0  0  0  0  0  0  0  0  0
    8.8679   -1.4761   22.2971 N   0  0  0  0  0  0  0  0  0  0  0  0
    7.6452   -2.0128   22.5182 C   0  0  0  0  0  0  0  0  0  0  0  0
    7.4015   -2.9278   23.6848 C   0  0  0  0  0  0  0  0  0  0  0  0
    6.9283   -2.1716   24.9549 C   0  0  0  0  0  0  0  0  0  0  0  0
    6.0029   -3.1905   25.6223 C   0  0  0  0  0  0  0  0  0  0  0  0
    5.4704   -4.0199   24.4467 C   0  0  0  0  0  0  0  0  0  0  0  0
    6.4076   -3.8934   23.3900 O   0  0  0  0  0  0  0  0  0  0  0  0
    4.4923   -3.6630   24.0946 H   0  0  0  0  0  0  0  0  0  0  0  0
    5.3911   -5.0866   24.6837 H   0  0  0  0  0  0  0  0  0  0  0  0
    5.1881   -2.7149   26.1739 H   0  0  0  0  0  0  0  0  0  0  0  0
    6.5600   -3.8244   26.3205 H   0  0  0  0  0  0  0  0  0  0  0  0
    7.7705   -1.8680   25.5859 H   0  0  0  0  0  0  0  0  0  0  0  0
    6.3777   -1.2643   24.6752 H   0  0  0  0  0  0  0  0  0  0  0  0
    8.3526   -3.4406   23.8778 H   0  0  0  0  0  0  0  0  0  0  0  0
    6.6808   -1.5482   21.7439 N   0  0  0  0  0  0  0  0  0  0  0  0
    7.3330   -0.6813   20.9353 N   0  0  0  0  0  0  0  0  0  0  0  0
    6.6490    0.0067   19.8988 C   0  0  0  0  0  0  0  0  0  0  0  0
    5.4352    0.6462   20.1653 C   0  0  0  0  0  0  0  0  0  0  0  0
    4.8112    1.3120   19.1091 C   0  0  0  0  0  0  0  0  0  0  0  0
    5.4002    1.2955   17.8375 C   0  0  0  0  0  0  0  0  0  0  0  0
    6.5596    0.6734   17.5762 N   0  0  0  0  0  0  0  0  0  0  0  0
    7.1660    0.0519   18.5918 C   0  0  0  0  0  0  0  0  0  0  0  0
    8.1139   -0.4303   18.3653 H   0  0  0  0  0  0  0  0  0  0  0  0
    4.9188    1.7839   16.9945 H   0  0  0  0  0  0  0  0  0  0  0  0
    3.8796    1.8405   19.2613 H   0  0  0  0  0  0  0  0  0  0  0  0
    5.0154    0.6099   21.1728 H   0  0  0  0  0  0  0  0  0  0  0  0
    9.1762    1.0886   20.1931 H   0  0  0  0  0  0  0  0  0  0  0  0
   10.0883   -0.4079   19.8915 H   0  0  0  0  0  0  0  0  0  0  0  0
    9.5315    2.4808   22.1530 H   0  0  0  0  0  0  0  0  0  0  0  0
   11.1737    3.2558   23.8910 H   0  0  0  0  0  0  0  0  0  0  0  0
   13.2062    1.8595   24.3215 H   0  0  0  0  0  0  0  0  0  0  0  0
  1  2  1  0
  2  3  2  0
  3  4  1  0
  4  5  2  0
  5  6  1  0
  6  7  2  0
  7  8  1  0
  8  9  1  0
  9 10  2  0
 10 11  1  0
 11 12  1  0
 12 13  1  0
 13 14  1  0
 14 15  1  0
 15 16  1  0
 15 17  1  0
 15 18  1  0
 14 19  1  0
 14 20  1  0
 13 21  1  0
 13 22  1  0
 12 23  1  0
 11 24  2  0
 24 25  1  0
 25 26  1  0
 26 27  2  0
 27 28  1  0
 28 29  2  0
 29 30  1  0
 30 31  2  0
 31 32  1  0
 29 33  1  0
 28 34  1  0
 27 35  1  0
  8 36  1  0
  8 37  1  0
  6 38  1  0
  5 39  1  0
  4 40  1  0
  7  2  1  0
 25  9  1  0
 31 26  1  0
 16 12  1  0
M  END
>  <cnnaffinity>  (1) 
-6.37171

>  <filename>  (1) 
Clc1ncccc1Cc1nc(C2CCCO2)nn1-c1cccnc1

$$$$
