
     RDKit          3D

 39 42  0  0  0  0  0  0  0  0999 V2000
    6.6830    1.6582   23.3373 Cl  0  0  0  0  0  0  0  0  0  0  0  0
    8.3425    1.7882   23.8491 C   0  0  0  0  0  0  0  0  0  0  0  0
    8.5393    1.5643   25.1397 N   0  0  0  0  0  0  0  0  0  0  0  0
    9.7990    1.5889   25.5854 C   0  0  0  0  0  0  0  0  0  0  0  0
   10.8876    1.8871   24.7661 C   0  0  0  0  0  0  0  0  0  0  0  0
   10.6588    2.1127   23.4094 C   0  0  0  0  0  0  0  0  0  0  0  0
    9.3521    2.0607   22.8985 C   0  0  0  0  0  0  0  0  0  0  0  0
    9.1530    2.0257   21.4007 C   0  0  0  0  0  0  0  0  0  0  0  0
    9.5036    0.6034   20.8917 C   0  0  0  0  0  0  0  0  0  0  0  0
    8.6118   -0.4824   21.3910 C   0  0  0  0  0  0  0  0  0  0  0  0
    8.8640   -1.3448   22.3560 N   0  0  0  0  0  0  0  0  0  0  0  0
    7.6808   -2.0091   22.4896 C   0  0  0  0  0  0  0  0  0  0  0  0
    7.4552   -3.0446   23.5248 C   0  0  0  0  0  0  0  0  0  0  0  0
    7.0191   -4.4391   23.1533 C   0  0  0  0  0  0  0  0  0  0  0  0
    8.4085   -4.1995   23.6755 C   0  0  0  0  0  0  0  0  0  0  0  0
    8.6403   -4.5194   24.6895 H   0  0  0  0  0  0  0  0  0  0  0  0
    9.2399   -4.2524   22.9737 H   0  0  0  0  0  0  0  0  0  0  0  0
    6.8924   -4.6632   22.0949 H   0  0  0  0  0  0  0  0  0  0  0  0
    6.3010   -4.9227   23.8133 H   0  0  0  0  0  0  0  0  0  0  0  0
    7.0417   -2.6275   24.4433 H   0  0  0  0  0  0  0  0  0  0  0  0
    6.7282   -1.6203   21.6652 N   0  0  0  0  0  0  0  0  0  0  0  0
    7.3429   -0.6664   20.9230 N   0  0  0  0  0  0  0  0  0  0  0  0
    6.6459   -0.0129   19.8741 C   0  0  0  0  0  0  0  0  0  0  0  0
    5.4385    0.6332   20.1490 C   0  0  0  0  0  0  0  0  0  0  0  0
    4.8172    1.3129   19.0972 C   0  0  0  0  0  0  0  0  0  0  0  0
    5.4016    1.3028   17.8269 C   0  0  0  0  0  0  0  0  0  0  0  0
    6.5329    0.6360   17.5478 N   0  0  0  0  0  0  0  0  0  0  0  0
    7.1306   -0.0102   18.5548 C   0  0  0  0  0  0  0  0  0  0  0  0
    8.0441   -0.5505   18.3090 H   0  0  0  0  0  0  0  0  0  0  0  0
    4.9481    1.8430   16.9972 H   0  0  0  0  0  0  0  0  0  0  0  0
    3.8909    1.8498   19.2566 H   0  0  0  0  0  0  0  0  0  0  0  0
    5.0276    0.5969   21.1589 H   0  0  0  0  0  0  0  0  0  0  0  0
   10.5148    0.3498   21.2183 H   0  0  0  0  0  0  0  0  0  0  0  0
    9.5097    0.5748   19.8027 H   0  0  0  0  0  0  0  0  0  0  0  0
    9.8308    2.7396   20.9240 H   0  0  0  0  0  0  0  0  0  0  0  0
    8.1352    2.3191   21.1148 H   0  0  0  0  0  0  0  0  0  0  0  0
   11.4926    2.2695   22.7207 H   0  0  0  0  0  0  0  0  0  0  0  0
   11.8890    1.9034   25.1661 H   0  0  0  0  0  0  0  0  0  0  0  0
    9.9339    1.3320   26.6304 H   0  0  0  0  0  0  0  0  0  0  0  0
  1  2  1  0
  2  3  2  0
  3  4  1  0
  4  5  2  0
  5  6  1  0
  6  7  2  0
  7  8  1  0
  8  9  1  0
  9 10  1  0
 10 11  2  0
 11 12  1  0
 12 13  1  0
 13 14  1  0
 14 15  1  0
 15 16  1  0
 15 17  1  0
 14 18  1  0
 14 19  1  0
 13 20  1  0
 12 21  2  0
 21 22  1  0
 22 23  1  0
 23 24  2  0
 24 25  1  0
 25 26  2  0
 26 27  1  0
 27 28  2  0
 28 29  1  0
 26 30  1  0
 25 31  1  0
 24 32  1  0
  9 33  1  0
  9 34  1  0
  8 35  1  0
  8 36  1  0
  6 37  1  0
  5 38  1  0
  4 39  1  0
  7  2  1  0
 22 10  1  0
 28 23  1  0
 15 13  1  0
M  END
>  <cnnaffinity>  (1) 
-6.02275

>  <filename>  (1) 
Clc1ncccc1CCc1nc(C2CC2)nn1-c1cccnc1

$$$$
