
     RDKit          3D

 30 32  0  0  0  0  0  0  0  0999 V2000
    4.9254    1.7752   17.0026 H   0  0  0  0  0  0  0  0  0  0  0  0
    5.4070    1.2854   17.8466 C   0  0  0  0  0  0  0  0  0  0  0  0
    6.5670    0.6652   17.5882 N   0  0  0  0  0  0  0  0  0  0  0  0
    7.1881    0.0661   18.6077 C   0  0  0  0  0  0  0  0  0  0  0  0
    8.1287   -0.4211   18.3726 H   0  0  0  0  0  0  0  0  0  0  0  0
    6.6786    0.0176   19.9115 C   0  0  0  0  0  0  0  0  0  0  0  0
    7.4346   -0.7038   20.9562 C   0  0  0  0  0  0  0  0  0  0  0  0
    8.7750   -0.6835   20.8843 N   0  0  0  0  0  0  0  0  0  0  0  0
    9.4459   -1.2944   21.8691 C   0  0  0  0  0  0  0  0  0  0  0  0
   10.5263   -1.2564   21.8034 H   0  0  0  0  0  0  0  0  0  0  0  0
    8.8524   -1.9861   22.9209 C   0  0  0  0  0  0  0  0  0  0  0  0
    9.4481   -2.4869   23.6725 H   0  0  0  0  0  0  0  0  0  0  0  0
    7.4586   -2.0532   22.9715 C   0  0  0  0  0  0  0  0  0  0  0  0
    6.7485   -2.7764   24.0569 C   0  0  0  0  0  0  0  0  0  0  0  0
    5.8236   -2.0816   24.8595 C   0  0  0  0  0  0  0  0  0  0  0  0
    5.6486   -1.0292   24.6430 H   0  0  0  0  0  0  0  0  0  0  0  0
    5.1521   -2.7092   25.9034 C   0  0  0  0  0  0  0  0  0  0  0  0
    4.4418   -2.1490   26.5046 H   0  0  0  0  0  0  0  0  0  0  0  0
    5.3914   -4.0628   26.1608 C   0  0  0  0  0  0  0  0  0  0  0  0
    4.8749   -4.5628   26.9719 H   0  0  0  0  0  0  0  0  0  0  0  0
    6.2922   -4.7839   25.3751 C   0  0  0  0  0  0  0  0  0  0  0  0
    6.4923   -5.8345   25.5595 H   0  0  0  0  0  0  0  0  0  0  0  0
    6.9577   -4.1434   24.3291 C   0  0  0  0  0  0  0  0  0  0  0  0
    8.0278   -5.1124   23.3512 Cl  0  0  0  0  0  0  0  0  0  0  0  0
    6.7558   -1.3902   21.9673 C   0  0  0  0  0  0  0  0  0  0  0  0
    5.6806   -1.4379   21.9304 H   0  0  0  0  0  0  0  0  0  0  0  0
    5.4475    0.6472   20.1638 C   0  0  0  0  0  0  0  0  0  0  0  0
    5.0045    0.6437   21.1644 H   0  0  0  0  0  0  0  0  0  0  0  0
    4.8135    1.3062   19.1131 C   0  0  0  0  0  0  0  0  0  0  0  0
    3.8801    1.8377   19.2603 H   0  0  0  0  0  0  0  0  0  0  0  0
  1  2  1  0
  2  3  2  0
  3  4  1  0
  4  5  1  0
  4  6  2  0
  6  7  1  0
  7  8  2  0
  8  9  1  0
  9 10  1  0
  9 11  2  0
 11 12  1  0
 11 13  1  0
 13 14  1  0
 14 15  2  0
 15 16  1  0
 15 17  1  0
 17 18  1  0
 17 19  2  0
 19 20  1  0
 19 21  1  0
 21 22  1  0
 21 23  2  0
 23 24  1  0
 13 25  2  0
 25 26  1  0
  6 27  1  0
 27 28  1  0
 27 29  2  0
 29 30  1  0
 29  2  1  0
 25  7  1  0
 23 14  1  0
M  END
>  <cnnaffinity>  (1) 
-5.33211

>  <filename>  (1) 
Clc1ccccc1-c1ccnc(-c2cccnc2)c1

$$$$
