
     RDKit          3D

 26 28  0  0  0  0  0  0  0  0999 V2000
    8.9796   -3.1833   21.9813 H   0  0  0  0  0  0  0  0  0  0  0  0
    8.4491   -2.2398   21.9459 C   0  0  0  0  0  0  0  0  0  0  0  0
    8.1868   -1.4277   22.9149 N   0  0  0  0  0  0  0  0  0  0  0  0
    7.5097   -0.3841   22.2995 C   0  0  0  0  0  0  0  0  0  0  0  0
    7.1388    0.8446   22.9900 C   0  0  0  0  0  0  0  0  0  0  0  0
    6.6635    0.8099   24.3081 C   0  0  0  0  0  0  0  0  0  0  0  0
    6.5690   -0.1357   24.8317 H   0  0  0  0  0  0  0  0  0  0  0  0
    6.2859    1.8969   24.9875 N   0  0  0  0  0  0  0  0  0  0  0  0
    6.3919    3.0615   24.3687 C   0  0  0  0  0  0  0  0  0  0  0  0
    5.9222    4.4678   25.2621 Cl  0  0  0  0  0  0  0  0  0  0  0  0
    6.8586    3.2345   23.0602 C   0  0  0  0  0  0  0  0  0  0  0  0
    6.9152    4.2231   22.6239 H   0  0  0  0  0  0  0  0  0  0  0  0
    7.2411    2.1012   22.3613 C   0  0  0  0  0  0  0  0  0  0  0  0
    7.6059    2.1832   21.3379 H   0  0  0  0  0  0  0  0  0  0  0  0
    7.3556   -0.6766   20.9639 C   0  0  0  0  0  0  0  0  0  0  0  0
    6.6470   -0.0138   19.8826 C   0  0  0  0  0  0  0  0  0  0  0  0
    7.1687    0.0414   18.5779 C   0  0  0  0  0  0  0  0  0  0  0  0
    8.1228   -0.4316   18.3590 H   0  0  0  0  0  0  0  0  0  0  0  0
    6.5674    0.6773   17.5705 N   0  0  0  0  0  0  0  0  0  0  0  0
    5.4037    1.2925   17.8365 C   0  0  0  0  0  0  0  0  0  0  0  0
    4.9203    1.7840   16.9967 H   0  0  0  0  0  0  0  0  0  0  0  0
    4.8033    1.3075   19.0995 C   0  0  0  0  0  0  0  0  0  0  0  0
    3.8756    1.8428   19.2562 H   0  0  0  0  0  0  0  0  0  0  0  0
    5.4309    0.6398   20.1456 C   0  0  0  0  0  0  0  0  0  0  0  0
    5.0120    0.6350   21.1559 H   0  0  0  0  0  0  0  0  0  0  0  0
    7.9924   -1.8597   20.7353 O   0  0  0  0  0  0  0  0  0  0  0  0
  1  2  1  0
  2  3  2  0
  3  4  1  0
  4  5  1  0
  5  6  2  0
  6  7  1  0
  6  8  1  0
  8  9  2  0
  9 10  1  0
  9 11  1  0
 11 12  1  0
 11 13  2  0
 13 14  1  0
  4 15  2  0
 15 16  1  0
 16 17  2  0
 17 18  1  0
 17 19  1  0
 19 20  2  0
 20 21  1  0
 20 22  1  0
 22 23  1  0
 22 24  2  0
 24 25  1  0
 15 26  1  0
 26  2  1  0
 13  5  1  0
 24 16  1  0
M  END
>  <cnnaffinity>  (1) 
-5.00816

>  <filename>  (1) 
Clc1ccc(-c2ncoc2-c2cccnc2)cn1

$$$$
