
     RDKit          3D

 46 50  0  0  0  0  0  0  0  0999 V2000
   16.0035   -0.3678   19.6541 Cl  0  0  0  0  0  0  0  0  0  0  0  0
   14.5874   -0.7558   20.7661 C   0  0  0  0  0  0  0  0  0  0  0  0
   13.7116   -1.7754   20.4202 C   0  0  0  0  0  0  0  0  0  0  0  0
   12.4136   -1.6467   20.9026 C   0  0  0  0  0  0  0  0  0  0  0  0
   12.0536   -0.5413   21.6948 C   0  0  0  0  0  0  0  0  0  0  0  0
   10.6314   -0.1872   21.8267 C   0  0  0  0  0  0  0  0  0  0  0  0
    9.6724   -0.9583   21.3330 N   0  0  0  0  0  0  0  0  0  0  0  0
    8.5460   -0.2431   21.5413 N   0  0  0  0  0  0  0  0  0  0  0  0
    7.2362   -0.7375   21.1178 C   0  0  0  0  0  0  0  0  0  0  0  0
    6.6098    0.0433   19.9763 C   0  0  0  0  0  0  0  0  0  0  0  0
    5.3659    0.6754   20.0836 C   0  0  0  0  0  0  0  0  0  0  0  0
    4.8448    1.3459   18.9730 C   0  0  0  0  0  0  0  0  0  0  0  0
    5.5879    1.3532   17.7901 C   0  0  0  0  0  0  0  0  0  0  0  0
    6.7828    0.7550   17.6661 N   0  0  0  0  0  0  0  0  0  0  0  0
    7.2756    0.1307   18.7421 C   0  0  0  0  0  0  0  0  0  0  0  0
    8.2526   -0.3363   18.6173 H   0  0  0  0  0  0  0  0  0  0  0  0
    5.2021    1.8418   16.8964 H   0  0  0  0  0  0  0  0  0  0  0  0
    3.8907    1.8596   19.0113 H   0  0  0  0  0  0  0  0  0  0  0  0
    4.8114    0.6525   21.0238 H   0  0  0  0  0  0  0  0  0  0  0  0
    6.5555   -0.7391   21.9759 H   0  0  0  0  0  0  0  0  0  0  0  0
    7.3923   -1.7823   20.8322 H   0  0  0  0  0  0  0  0  0  0  0  0
    8.8721    0.9320   22.1155 C   0  0  0  0  0  0  0  0  0  0  0  0
    7.8101    1.8776   22.6261 C   0  0  0  0  0  0  0  0  0  0  0  0
    7.2024    1.3364   23.8927 C   0  0  0  0  0  0  0  0  0  0  0  0
    5.9581    1.0979   24.4305 C   0  0  0  0  0  0  0  0  0  0  0  0
    6.0747    0.4465   25.6335 N   0  0  0  0  0  0  0  0  0  0  0  0
    7.3655    0.2661   25.8285 C   0  0  0  0  0  0  0  0  0  0  0  0
    8.0146   -0.4842   26.9249 C   0  0  0  0  0  0  0  0  0  0  0  0
    9.4501   -0.9317   26.7857 C   0  0  0  0  0  0  0  0  0  0  0  0
    8.3613   -1.9584   26.8015 C   0  0  0  0  0  0  0  0  0  0  0  0
    8.2263   -2.5739   27.6872 H   0  0  0  0  0  0  0  0  0  0  0  0
    8.1283   -2.4676   25.8689 H   0  0  0  0  0  0  0  0  0  0  0  0
    9.9491   -0.7566   25.8300 H   0  0  0  0  0  0  0  0  0  0  0  0
   10.1157   -0.8180   27.6347 H   0  0  0  0  0  0  0  0  0  0  0  0
    7.6558   -0.1590   27.8988 H   0  0  0  0  0  0  0  0  0  0  0  0
    8.0742    0.8340   24.8180 N   0  0  0  0  0  0  0  0  0  0  0  0
    9.0789    0.8704   24.7169 H   0  0  0  0  0  0  0  0  0  0  0  0
    4.9736    1.3453   24.0457 H   0  0  0  0  0  0  0  0  0  0  0  0
    8.2904    2.8398   22.8193 H   0  0  0  0  0  0  0  0  0  0  0  0
    7.0300    2.0391   21.8796 H   0  0  0  0  0  0  0  0  0  0  0  0
   10.1782    0.9896   22.3371 N   0  0  0  0  0  0  0  0  0  0  0  0
   13.0964    0.2597   22.1851 C   0  0  0  0  0  0  0  0  0  0  0  0
   14.3535    0.1341   21.7267 N   0  0  0  0  0  0  0  0  0  0  0  0
   12.9412    1.0520   22.9179 H   0  0  0  0  0  0  0  0  0  0  0  0
   11.6142   -2.3260   20.6564 H   0  0  0  0  0  0  0  0  0  0  0  0
   14.0523   -2.5749   19.7851 H   0  0  0  0  0  0  0  0  0  0  0  0
  1  2  1  0
  2  3  2  0
  3  4  1  0
  4  5  2  0
  5  6  1  0
  6  7  2  0
  7  8  1  0
  8  9  1  0
  9 10  1  0
 10 11  2  0
 11 12  1  0
 12 13  2  0
 13 14  1  0
 14 15  2  0
 15 16  1  0
 13 17  1  0
 12 18  1  0
 11 19  1  0
  9 20  1  0
  9 21  1  0
  8 22  1  0
 22 23  1  0
 23 24  1  0
 24 25  2  0
 25 26  1  0
 26 27  2  0
 27 28  1  0
 28 29  1  0
 29 30  1  0
 30 31  1  0
 30 32  1  0
 29 33  1  0
 29 34  1  0
 28 35  1  0
 27 36  1  0
 36 37  1  0
 25 38  1  0
 23 39  1  0
 23 40  1  0
 22 41  2  0
  5 42  1  0
 42 43  2  0
 42 44  1  0
  4 45  1  0
  3 46  1  0
 43  2  1  0
 41  6  1  0
 15 10  1  0
 36 24  1  0
 30 28  1  0
M  END
>  <cnnaffinity>  (1) 
-6.95841

>  <filename>  (1) 
Clc1ccc(-c2nc(Cc3cnc(C4CC4)[nH]3)n(Cc3cccnc3)n2)cn1

$$$$
