
     RDKit          3D

 41 44  0  0  0  0  0  0  0  0999 V2000
    5.8436    4.3008   22.5169 Cl  0  0  0  0  0  0  0  0  0  0  0  0
    7.5278    4.6820   22.7985 C   0  0  0  0  0  0  0  0  0  0  0  0
    8.0339    5.8411   22.2053 C   0  0  0  0  0  0  0  0  0  0  0  0
    9.3835    6.1562   22.3570 C   0  0  0  0  0  0  0  0  0  0  0  0
   10.2397    5.2819   23.0280 C   0  0  0  0  0  0  0  0  0  0  0  0
    9.7226    4.1240   23.6072 C   0  0  0  0  0  0  0  0  0  0  0  0
    8.3394    3.8632   23.6024 C   0  0  0  0  0  0  0  0  0  0  0  0
    7.8183    2.7265   24.4572 C   0  0  0  0  0  0  0  0  0  0  0  0
    8.0765    1.4658   23.8776 O   0  0  0  0  0  0  0  0  0  0  0  0
    7.2350    1.1436   22.7940 C   0  0  0  0  0  0  0  0  0  0  0  0
    7.6368   -0.1861   22.2420 C   0  0  0  0  0  0  0  0  0  0  0  0
    8.2646   -1.1403   22.8935 N   0  0  0  0  0  0  0  0  0  0  0  0
    8.2887   -2.1560   22.0078 C   0  0  0  0  0  0  0  0  0  0  0  0
    8.9020   -3.4574   22.3577 C   0  0  0  0  0  0  0  0  0  0  0  0
    8.4091   -4.3001   23.5095 C   0  0  0  0  0  0  0  0  0  0  0  0
    8.1870   -4.7600   22.1010 C   0  0  0  0  0  0  0  0  0  0  0  0
    7.1702   -4.7038   21.7213 H   0  0  0  0  0  0  0  0  0  0  0  0
    8.7345   -5.6210   21.7282 H   0  0  0  0  0  0  0  0  0  0  0  0
    9.1605   -4.8182   24.1024 H   0  0  0  0  0  0  0  0  0  0  0  0
    7.5589   -3.9447   24.0861 H   0  0  0  0  0  0  0  0  0  0  0  0
    9.9808   -3.3790   22.2684 H   0  0  0  0  0  0  0  0  0  0  0  0
    7.7681   -1.8857   20.8257 N   0  0  0  0  0  0  0  0  0  0  0  0
    7.3144   -0.6156   20.9807 N   0  0  0  0  0  0  0  0  0  0  0  0
    6.6244    0.0360   19.9185 C   0  0  0  0  0  0  0  0  0  0  0  0
    5.4151    0.7162   20.1279 C   0  0  0  0  0  0  0  0  0  0  0  0
    4.8241    1.3602   19.0364 C   0  0  0  0  0  0  0  0  0  0  0  0
    5.4564    1.3061   17.7910 C   0  0  0  0  0  0  0  0  0  0  0  0
    6.5944    0.6199   17.5744 N   0  0  0  0  0  0  0  0  0  0  0  0
    7.1483   -0.0155   18.6120 C   0  0  0  0  0  0  0  0  0  0  0  0
    8.0488   -0.5910   18.4047 H   0  0  0  0  0  0  0  0  0  0  0  0
    5.0275    1.8106   16.9292 H   0  0  0  0  0  0  0  0  0  0  0  0
    3.8922    1.9052   19.1454 H   0  0  0  0  0  0  0  0  0  0  0  0
    4.9378    0.7260   21.1084 H   0  0  0  0  0  0  0  0  0  0  0  0
    7.2930    1.9025   21.9974 H   0  0  0  0  0  0  0  0  0  0  0  0
    6.1824    1.0919   23.1300 H   0  0  0  0  0  0  0  0  0  0  0  0
    8.3577    2.7165   25.4139 H   0  0  0  0  0  0  0  0  0  0  0  0
    6.7544    2.8506   24.6887 H   0  0  0  0  0  0  0  0  0  0  0  0
   10.3888    3.4146   24.0929 H   0  0  0  0  0  0  0  0  0  0  0  0
   11.3007    5.4983   23.1027 H   0  0  0  0  0  0  0  0  0  0  0  0
    9.7517    7.0932   21.9630 H   0  0  0  0  0  0  0  0  0  0  0  0
    7.3694    6.4971   21.6565 H   0  0  0  0  0  0  0  0  0  0  0  0
  1  2  1  0
  2  3  2  0
  3  4  1  0
  4  5  2  0
  5  6  1  0
  6  7  2  0
  7  8  1  0
  8  9  1  0
  9 10  1  0
 10 11  1  0
 11 12  2  0
 12 13  1  0
 13 14  1  0
 14 15  1  0
 15 16  1  0
 16 17  1  0
 16 18  1  0
 15 19  1  0
 15 20  1  0
 14 21  1  0
 13 22  2  0
 22 23  1  0
 23 24  1  0
 24 25  2  0
 25 26  1  0
 26 27  2  0
 27 28  1  0
 28 29  2  0
 29 30  1  0
 27 31  1  0
 26 32  1  0
 25 33  1  0
 10 34  1  0
 10 35  1  0
  8 36  1  0
  8 37  1  0
  6 38  1  0
  5 39  1  0
  4 40  1  0
  3 41  1  0
  7  2  1  0
 23 11  1  0
 29 24  1  0
 16 14  1  0
M  END
>  <cnnaffinity>  (1) 
-5.8119

>  <filename>  (1) 
Clc1ccccc1COCc1nc(C2CC2)nn1-c1cccnc1

$$$$
