
     RDKit          3D

 31 33  0  0  0  0  0  0  0  0999 V2000
    5.0060    1.8432   16.9587 H   0  0  0  0  0  0  0  0  0  0  0  0
    5.4349    1.2960   17.7960 C   0  0  0  0  0  0  0  0  0  0  0  0
    6.5844    0.6447   17.5603 N   0  0  0  0  0  0  0  0  0  0  0  0
    7.1527   -0.0076   18.5802 C   0  0  0  0  0  0  0  0  0  0  0  0
    8.0936   -0.5144   18.3654 H   0  0  0  0  0  0  0  0  0  0  0  0
    6.6206   -0.0272   19.8811 C   0  0  0  0  0  0  0  0  0  0  0  0
    7.3513   -0.7022   20.9533 C   0  0  0  0  0  0  0  0  0  0  0  0
    7.9672   -1.9144   20.7620 N   0  0  0  0  0  0  0  0  0  0  0  0
    8.4662   -2.2525   21.9166 C   0  0  0  0  0  0  0  0  0  0  0  0
    8.9701   -3.1906   22.1410 H   0  0  0  0  0  0  0  0  0  0  0  0
    8.2306   -1.3042   22.8609 N   0  0  0  0  0  0  0  0  0  0  0  0
    8.6799   -1.2573   23.7637 H   0  0  0  0  0  0  0  0  0  0  0  0
    7.5421   -0.2748   22.2581 C   0  0  0  0  0  0  0  0  0  0  0  0
    7.2858    1.0185   22.9730 C   0  0  0  0  0  0  0  0  0  0  0  0
    6.5828    0.8637   23.8017 H   0  0  0  0  0  0  0  0  0  0  0  0
    6.8243    1.7169   22.2705 H   0  0  0  0  0  0  0  0  0  0  0  0
    8.5631    1.6540   23.4939 C   0  0  0  0  0  0  0  0  0  0  0  0
    8.9536    1.5462   24.8365 C   0  0  0  0  0  0  0  0  0  0  0  0
    8.2815    1.1058   25.5656 H   0  0  0  0  0  0  0  0  0  0  0  0
   10.1816    2.0378   25.2770 C   0  0  0  0  0  0  0  0  0  0  0  0
   10.4785    1.8963   26.3085 H   0  0  0  0  0  0  0  0  0  0  0  0
   11.0209    2.6923   24.3784 C   0  0  0  0  0  0  0  0  0  0  0  0
   11.9646    3.0992   24.7107 H   0  0  0  0  0  0  0  0  0  0  0  0
   10.6552    2.8378   23.0429 C   0  0  0  0  0  0  0  0  0  0  0  0
   11.3121    3.3264   22.3332 H   0  0  0  0  0  0  0  0  0  0  0  0
    9.4304    2.3228   22.6161 C   0  0  0  0  0  0  0  0  0  0  0  0
    8.9812    2.5547   20.9538 Cl  0  0  0  0  0  0  0  0  0  0  0  0
    5.4010    0.6356   20.1007 C   0  0  0  0  0  0  0  0  0  0  0  0
    4.9511    0.6415   21.0947 H   0  0  0  0  0  0  0  0  0  0  0  0
    4.7948    1.3014   19.0389 C   0  0  0  0  0  0  0  0  0  0  0  0
    3.8695    1.8447   19.1760 H   0  0  0  0  0  0  0  0  0  0  0  0
  1  2  1  0
  2  3  2  0
  3  4  1  0
  4  5  1  0
  4  6  2  0
  6  7  1  0
  7  8  1  0
  8  9  2  0
  9 10  1  0
  9 11  1  0
 11 12  1  0
 11 13  1  0
 13 14  1  0
 14 15  1  0
 14 16  1  0
 14 17  1  0
 17 18  2  0
 18 19  1  0
 18 20  1  0
 20 21  1  0
 20 22  2  0
 22 23  1  0
 22 24  1  0
 24 25  1  0
 24 26  2  0
 26 27  1  0
  6 28  1  0
 28 29  1  0
 28 30  2  0
 30 31  1  0
 30  2  1  0
 13  7  2  0
 26 17  1  0
M  END
>  <cnnaffinity>  (1) 
-5.6967

>  <filename>  (1) 
Clc1ccccc1Cc1[nH]cnc1-c1cccnc1

$$$$
