
     RDKit          3D

 31 33  0  0  0  0  0  0  0  0999 V2000
    4.9686    1.7965   17.0104 H   0  0  0  0  0  0  0  0  0  0  0  0
    5.4148    1.2827   17.8556 C   0  0  0  0  0  0  0  0  0  0  0  0
    6.5676    0.6501   17.5957 N   0  0  0  0  0  0  0  0  0  0  0  0
    7.1736    0.0271   18.6057 C   0  0  0  0  0  0  0  0  0  0  0  0
    8.1092   -0.4723   18.3558 H   0  0  0  0  0  0  0  0  0  0  0  0
    6.6660   -0.0060   19.9153 C   0  0  0  0  0  0  0  0  0  0  0  0
    7.3860   -0.6789   20.9308 N   0  0  0  0  0  0  0  0  0  0  0  0
    6.7687   -1.0964   22.0502 N   0  0  0  0  0  0  0  0  0  0  0  0
    7.7066   -1.6638   22.7887 C   0  0  0  0  0  0  0  0  0  0  0  0
    7.3539   -2.3058   24.1030 C   0  0  0  0  0  0  0  0  0  0  0  0
    8.2072   -2.2361   24.7903 H   0  0  0  0  0  0  0  0  0  0  0  0
    6.5176   -1.7582   24.5534 H   0  0  0  0  0  0  0  0  0  0  0  0
    6.9555   -3.7570   23.9098 C   0  0  0  0  0  0  0  0  0  0  0  0
    7.9252   -4.7714   23.8735 C   0  0  0  0  0  0  0  0  0  0  0  0
    8.9635   -4.5562   24.1146 H   0  0  0  0  0  0  0  0  0  0  0  0
    7.5723   -6.0696   23.5195 C   0  0  0  0  0  0  0  0  0  0  0  0
    8.3116   -6.8678   23.4810 H   0  0  0  0  0  0  0  0  0  0  0  0
    6.2383   -6.3749   23.2230 C   0  0  0  0  0  0  0  0  0  0  0  0
    5.8866   -8.0051   22.7932 Cl  0  0  0  0  0  0  0  0  0  0  0  0
    5.2465   -5.3841   23.3084 C   0  0  0  0  0  0  0  0  0  0  0  0
    3.5671   -5.7209   23.0335 Cl  0  0  0  0  0  0  0  0  0  0  0  0
    5.6186   -4.0767   23.6357 C   0  0  0  0  0  0  0  0  0  0  0  0
    4.8503   -3.3053   23.6415 H   0  0  0  0  0  0  0  0  0  0  0  0
    8.9610   -1.6254   22.1398 C   0  0  0  0  0  0  0  0  0  0  0  0
    9.8946   -2.0021   22.5453 H   0  0  0  0  0  0  0  0  0  0  0  0
    8.7147   -0.9820   20.9479 C   0  0  0  0  0  0  0  0  0  0  0  0
    9.3388   -0.6846   20.1204 H   0  0  0  0  0  0  0  0  0  0  0  0
    5.4464    0.6411   20.1771 C   0  0  0  0  0  0  0  0  0  0  0  0
    5.0163    0.6198   21.1794 H   0  0  0  0  0  0  0  0  0  0  0  0
    4.8139    1.3000   19.1205 C   0  0  0  0  0  0  0  0  0  0  0  0
    3.8789    1.8343   19.2565 H   0  0  0  0  0  0  0  0  0  0  0  0
  1  2  1  0
  2  3  2  0
  3  4  1  0
  4  5  1  0
  4  6  2  0
  6  7  1  0
  7  8  1  0
  8  9  2  0
  9 10  1  0
 10 11  1  0
 10 12  1  0
 10 13  1  0
 13 14  2  0
 14 15  1  0
 14 16  1  0
 16 17  1  0
 16 18  2  0
 18 19  1  0
 18 20  1  0
 20 21  1  0
 20 22  2  0
 22 23  1  0
  9 24  1  0
 24 25  1  0
 24 26  2  0
 26 27  1  0
  6 28  1  0
 28 29  1  0
 28 30  2  0
 30 31  1  0
 30  2  1  0
 26  7  1  0
 22 13  1  0
M  END
>  <cnnaffinity>  (1) 
-5.58973

>  <filename>  (1) 
Clc1ccc(Cc2ccn(-c3cccnc3)n2)cc1Cl

$$$$
