
     RDKit          3D

 32 34  0  0  0  0  0  0  0  0999 V2000
    4.9394    1.7946   16.9816 H   0  0  0  0  0  0  0  0  0  0  0  0
    5.4025    1.2923   17.8305 C   0  0  0  0  0  0  0  0  0  0  0  0
    6.5630    0.6682   17.5839 N   0  0  0  0  0  0  0  0  0  0  0  0
    7.1729    0.0538   18.6010 C   0  0  0  0  0  0  0  0  0  0  0  0
    8.1100   -0.4403   18.3562 H   0  0  0  0  0  0  0  0  0  0  0  0
    6.6574    0.0089   19.9130 C   0  0  0  0  0  0  0  0  0  0  0  0
    7.3476   -0.6813   20.9415 N   0  0  0  0  0  0  0  0  0  0  0  0
    6.7701   -1.3386   22.0024 C   0  0  0  0  0  0  0  0  0  0  0  0
    5.6976   -1.3993   22.0356 H   0  0  0  0  0  0  0  0  0  0  0  0
    7.7538   -1.8811   22.7822 C   0  0  0  0  0  0  0  0  0  0  0  0
    7.6268   -2.4176   23.7187 H   0  0  0  0  0  0  0  0  0  0  0  0
    9.0009   -1.5709   22.1656 C   0  0  0  0  0  0  0  0  0  0  0  0
   10.3781   -1.8826   22.7054 C   0  0  0  0  0  0  0  0  0  0  0  0
   10.3214   -2.6964   23.4374 H   0  0  0  0  0  0  0  0  0  0  0  0
   11.0475   -2.2263   21.9067 H   0  0  0  0  0  0  0  0  0  0  0  0
   10.9940   -0.6571   23.3496 C   0  0  0  0  0  0  0  0  0  0  0  0
   11.7844    0.2112   22.5768 C   0  0  0  0  0  0  0  0  0  0  0  0
   11.9481   -0.0359   21.5265 H   0  0  0  0  0  0  0  0  0  0  0  0
   12.2942    1.3941   23.1142 C   0  0  0  0  0  0  0  0  0  0  0  0
   12.9022    2.0594   22.5060 H   0  0  0  0  0  0  0  0  0  0  0  0
   11.9911    1.7290   24.4365 C   0  0  0  0  0  0  0  0  0  0  0  0
   12.2783    2.6918   24.8252 H   0  0  0  0  0  0  0  0  0  0  0  0
   11.2184    0.8808   25.2301 C   0  0  0  0  0  0  0  0  0  0  0  0
   10.9621    1.1181   26.2572 H   0  0  0  0  0  0  0  0  0  0  0  0
   10.7027   -0.2884   24.6720 C   0  0  0  0  0  0  0  0  0  0  0  0
    9.5851   -1.2150   25.6477 Cl  0  0  0  0  0  0  0  0  0  0  0  0
    8.7129   -0.8302   21.0520 C   0  0  0  0  0  0  0  0  0  0  0  0
    9.3491   -0.3370   20.3308 H   0  0  0  0  0  0  0  0  0  0  0  0
    5.4350    0.6581   20.1576 C   0  0  0  0  0  0  0  0  0  0  0  0
    5.0045    0.6670   21.1575 H   0  0  0  0  0  0  0  0  0  0  0  0
    4.8073    1.3107   19.0957 C   0  0  0  0  0  0  0  0  0  0  0  0
    3.8750    1.8400   19.2435 H   0  0  0  0  0  0  0  0  0  0  0  0
  1  2  1  0
  2  3  2  0
  3  4  1  0
  4  5  1  0
  4  6  2  0
  6  7  1  0
  7  8  1  0
  8  9  1  0
  8 10  2  0
 10 11  1  0
 10 12  1  0
 12 13  1  0
 13 14  1  0
 13 15  1  0
 13 16  1  0
 16 17  2  0
 17 18  1  0
 17 19  1  0
 19 20  1  0
 19 21  2  0
 21 22  1  0
 21 23  1  0
 23 24  1  0
 23 25  2  0
 25 26  1  0
 12 27  2  0
 27 28  1  0
  6 29  1  0
 29 30  1  0
 29 31  2  0
 31 32  1  0
 31  2  1  0
 27  7  1  0
 25 16  1  0
M  END
>  <cnnaffinity>  (1) 
-5.36282

>  <filename>  (1) 
Clc1ccccc1Cc1ccn(-c2cccnc2)c1

$$$$
