
     RDKit          3D

 39 42  0  0  0  0  0  0  0  0999 V2000
    9.6610    2.2108   21.0270 Cl  0  0  0  0  0  0  0  0  0  0  0  0
    9.7222    2.2353   22.7452 C   0  0  0  0  0  0  0  0  0  0  0  0
   10.8720    2.6445   23.2540 N   0  0  0  0  0  0  0  0  0  0  0  0
   11.0174    2.5280   24.5751 C   0  0  0  0  0  0  0  0  0  0  0  0
   10.0297    2.0170   25.4110 C   0  0  0  0  0  0  0  0  0  0  0  0
    8.8107    1.6327   24.8516 C   0  0  0  0  0  0  0  0  0  0  0  0
    8.6181    1.7433   23.4738 C   0  0  0  0  0  0  0  0  0  0  0  0
    7.3663    1.1913   22.8062 C   0  0  0  0  0  0  0  0  0  0  0  0
    7.5831   -0.1805   22.2274 C   0  0  0  0  0  0  0  0  0  0  0  0
    8.1180   -1.1882   22.8965 N   0  0  0  0  0  0  0  0  0  0  0  0
    8.1617   -2.1841   21.9771 C   0  0  0  0  0  0  0  0  0  0  0  0
    8.7184   -3.5392   22.2137 C   0  0  0  0  0  0  0  0  0  0  0  0
    7.7484   -4.5382   22.8193 C   0  0  0  0  0  0  0  0  0  0  0  0
    8.0151   -5.9990   22.6323 C   0  0  0  0  0  0  0  0  0  0  0  0
    6.9192   -5.3260   21.8496 C   0  0  0  0  0  0  0  0  0  0  0  0
    5.8807   -5.5479   22.0777 H   0  0  0  0  0  0  0  0  0  0  0  0
    7.1106   -5.1151   20.7984 H   0  0  0  0  0  0  0  0  0  0  0  0
    7.7259   -6.6565   23.4433 H   0  0  0  0  0  0  0  0  0  0  0  0
    8.9276   -6.2974   22.1254 H   0  0  0  0  0  0  0  0  0  0  0  0
    7.2923   -4.2617   23.7689 H   0  0  0  0  0  0  0  0  0  0  0  0
    9.6243   -3.4366   22.8128 H   0  0  0  0  0  0  0  0  0  0  0  0
    8.9804   -3.8782   21.2099 H   0  0  0  0  0  0  0  0  0  0  0  0
    7.7080   -1.8580   20.7884 N   0  0  0  0  0  0  0  0  0  0  0  0
    7.3071   -0.5785   20.9509 N   0  0  0  0  0  0  0  0  0  0  0  0
    6.6237    0.0712   19.8978 C   0  0  0  0  0  0  0  0  0  0  0  0
    5.3956    0.6976   20.1243 C   0  0  0  0  0  0  0  0  0  0  0  0
    4.7806    1.3247   19.0399 C   0  0  0  0  0  0  0  0  0  0  0  0
    5.4109    1.2938   17.7921 C   0  0  0  0  0  0  0  0  0  0  0  0
    6.5623    0.6341   17.5607 N   0  0  0  0  0  0  0  0  0  0  0  0
    7.1478    0.0247   18.5947 C   0  0  0  0  0  0  0  0  0  0  0  0
    8.0717   -0.5230   18.4021 H   0  0  0  0  0  0  0  0  0  0  0  0
    4.9880    1.8273   16.9454 H   0  0  0  0  0  0  0  0  0  0  0  0
    3.8473    1.8598   19.1684 H   0  0  0  0  0  0  0  0  0  0  0  0
    4.9373    0.6656   21.1143 H   0  0  0  0  0  0  0  0  0  0  0  0
    6.5499    1.1145   23.5338 H   0  0  0  0  0  0  0  0  0  0  0  0
    7.0314    1.8778   22.0239 H   0  0  0  0  0  0  0  0  0  0  0  0
    8.0293    1.2130   25.4834 H   0  0  0  0  0  0  0  0  0  0  0  0
   10.2218    1.8899   26.4611 H   0  0  0  0  0  0  0  0  0  0  0  0
   11.9767    2.8462   24.9674 H   0  0  0  0  0  0  0  0  0  0  0  0
  1  2  1  0
  2  3  2  0
  3  4  1  0
  4  5  2  0
  5  6  1  0
  6  7  2  0
  7  8  1  0
  8  9  1  0
  9 10  2  0
 10 11  1  0
 11 12  1  0
 12 13  1  0
 13 14  1  0
 14 15  1  0
 15 16  1  0
 15 17  1  0
 14 18  1  0
 14 19  1  0
 13 20  1  0
 12 21  1  0
 12 22  1  0
 11 23  2  0
 23 24  1  0
 24 25  1  0
 25 26  2  0
 26 27  1  0
 27 28  2  0
 28 29  1  0
 29 30  2  0
 30 31  1  0
 28 32  1  0
 27 33  1  0
 26 34  1  0
  8 35  1  0
  8 36  1  0
  6 37  1  0
  5 38  1  0
  4 39  1  0
  7  2  1  0
 24  9  1  0
 30 25  1  0
 15 13  1  0
M  END
>  <cnnaffinity>  (1) 
-6.24584

>  <filename>  (1) 
Clc1ncccc1Cc1nc(CC2CC2)nn1-c1cccnc1

$$$$
