
     RDKit          3D

 43 46  0  0  0  0  0  0  0  0999 V2000
    7.9312   -7.2538   19.3162 Cl  0  0  0  0  0  0  0  0  0  0  0  0
    8.4213   -5.5060   21.1270 C   0  0  0  0  0  0  0  0  0  0  0  0
    8.1729   -7.7775   22.6810 C   0  0  0  0  0  0  0  0  0  0  0  0
    8.5182   -7.5086   22.9012 C   0  0  0  0  0  0  0  0  0  0  0  0
    8.1876   -6.3445   23.4728 C   0  0  0  0  0  0  0  0  0  0  0  0
    8.1574   -5.2642   22.6762 C   0  0  0  0  0  0  0  0  0  0  0  0
    8.4216   -5.5057   21.1268 C   0  0  0  0  0  0  0  0  0  0  0  0
    8.6604   -4.0021   20.6722 C   0  0  0  0  0  0  0  0  0  0  0  0
    7.0252   -3.8011   20.2567 C   0  0  0  0  0  0  0  0  0  0  0  0
    6.2598   -2.9747   20.9404 C   0  0  0  0  0  0  0  0  0  0  0  0
    5.2020   -3.5978   21.4818 N   0  0  0  0  0  0  0  0  0  0  0  0
    5.2147   -3.0495   22.6763 C   0  0  0  0  0  0  0  0  0  0  0  0
    4.1853   -3.5348   23.5941 C   0  0  0  0  0  0  0  0  0  0  0  0
    3.6527   -4.7608   23.4994 N   0  0  0  0  0  0  0  0  0  0  0  0
    2.7090   -4.7757   24.4421 N   0  0  0  0  0  0  0  0  0  0  0  0
    2.5995   -3.6080   25.1186 C   0  0  0  0  0  0  0  0  0  0  0  0
    3.5395   -2.7730   24.5921 C   0  0  0  0  0  0  0  0  0  0  0  0
    3.7615   -1.7448   24.8373 H   0  0  0  0  0  0  0  0  0  0  0  0
    1.8998   -3.4409   25.9155 H   0  0  0  0  0  0  0  0  0  0  0  0
    2.2347   -5.6499   24.6067 H   0  0  0  0  0  0  0  0  0  0  0  0
    6.0698   -2.0281   22.8551 N   0  0  0  0  0  0  0  0  0  0  0  0
    6.6578   -1.8901   21.6509 N   0  0  0  0  0  0  0  0  0  0  0  0
    7.3594   -0.7119   21.1167 C   0  0  0  0  0  0  0  0  0  0  0  0
    6.6369   -0.0636   19.9152 C   0  0  0  0  0  0  0  0  0  0  0  0
    5.4420    0.6251   20.1618 C   0  0  0  0  0  0  0  0  0  0  0  0
    4.8130    1.2948   19.1064 C   0  0  0  0  0  0  0  0  0  0  0  0
    5.4113    1.2826   17.8474 C   0  0  0  0  0  0  0  0  0  0  0  0
    6.5780    0.6653   17.5918 N   0  0  0  0  0  0  0  0  0  0  0  0
    7.1772    0.0366   18.6008 C   0  0  0  0  0  0  0  0  0  0  0  0
    8.1371   -0.4200   18.3457 H   0  0  0  0  0  0  0  0  0  0  0  0
    4.9387    1.7853   17.0031 H   0  0  0  0  0  0  0  0  0  0  0  0
    3.8858    1.8382   19.2534 H   0  0  0  0  0  0  0  0  0  0  0  0
    5.0105    0.6123   21.1650 H   0  0  0  0  0  0  0  0  0  0  0  0
    8.3624   -0.9936   20.7803 H   0  0  0  0  0  0  0  0  0  0  0  0
    7.4805   -0.0110   21.9401 H   0  0  0  0  0  0  0  0  0  0  0  0
    6.5569   -4.3348   19.4239 H   0  0  0  0  0  0  0  0  0  0  0  0
    6.4242   -1.7295   19.1234 H   0  0  0  0  0  0  0  0  0  0  0  0
    9.3628   -4.4050   19.8831 H   0  0  0  0  0  0  0  0  0  0  0  0
    9.1613   -2.8642   21.1067 H   0  0  0  0  0  0  0  0  0  0  0  0
    8.5207   -4.2898   23.1803 H   0  0  0  0  0  0  0  0  0  0  0  0
    8.4376   -6.2548   24.4706 H   0  0  0  0  0  0  0  0  0  0  0  0
    9.1352   -8.5032   22.8917 H   0  0  0  0  0  0  0  0  0  0  0  0
    7.3794   -8.0587   21.9250 H   0  0  0  0  0  0  0  0  0  0  0  0
  1  2  1  0
  2  3  2  0
  3  4  1  0
  4  5  2  0
  5  6  1  0
  6  7  2  0
  7  8  1  0
  8  9  1  0
  9 10  1  0
 10 11  2  0
 11 12  1  0
 12 13  1  0
 13 14  2  0
 14 15  1  0
 15 16  1  0
 16 17  2  0
 17 18  1  0
 16 19  1  0
 15 20  1  0
 12 21  2  0
 21 22  1  0
 22 23  1  0
 23 24  1  0
 24 25  2  0
 25 26  1  0
 26 27  2  0
 27 28  1  0
 28 29  2  0
 29 30  1  0
 27 31  1  0
 26 32  1  0
 25 33  1  0
 23 34  1  0
 23 35  1  0
  9 36  1  0
  9 37  1  0
  8 38  1  0
  8 39  1  0
  6 40  1  0
  5 41  1  0
  4 42  1  0
  3 43  1  0
  7  2  1  0
 22 10  1  0
 29 24  1  0
 17 13  1  0
M  END
>  <cnnaffinity>  (1) 
-5.70773

>  <filename>  (1) 
Clc1ccccc1CCc1nc(-c2cc[nH]n2)nn1Cc1cccnc1

$$$$
