
     RDKit          3D

 40 43  0  0  0  0  0  0  0  0999 V2000
   12.6557    1.4692   23.5628 Cl  0  0  0  0  0  0  0  0  0  0  0  0
   12.7897    0.1593   22.4314 C   0  0  0  0  0  0  0  0  0  0  0  0
   14.0830   -0.1933   22.0227 C   0  0  0  0  0  0  0  0  0  0  0  0
   14.2669   -1.2670   21.1507 C   0  0  0  0  0  0  0  0  0  0  0  0
   13.1838   -2.0165   20.7205 C   0  0  0  0  0  0  0  0  0  0  0  0
   11.9128   -1.6858   21.1527 C   0  0  0  0  0  0  0  0  0  0  0  0
   11.6697   -0.5331   21.9188 C   0  0  0  0  0  0  0  0  0  0  0  0
   10.2671   -0.0799   21.9937 C   0  0  0  0  0  0  0  0  0  0  0  0
    9.2980   -0.8086   21.4484 N   0  0  0  0  0  0  0  0  0  0  0  0
    8.1858   -0.0866   21.6698 N   0  0  0  0  0  0  0  0  0  0  0  0
    6.8932   -0.5836   21.2147 C   0  0  0  0  0  0  0  0  0  0  0  0
    6.3443    0.1593   20.0168 C   0  0  0  0  0  0  0  0  0  0  0  0
    5.1188    0.8306   20.0350 C   0  0  0  0  0  0  0  0  0  0  0  0
    4.6875    1.4740   18.8712 C   0  0  0  0  0  0  0  0  0  0  0  0
    5.5007    1.4205   17.7351 C   0  0  0  0  0  0  0  0  0  0  0  0
    6.6824    0.7854   17.6993 N   0  0  0  0  0  0  0  0  0  0  0  0
    7.0881    0.1857   18.8242 C   0  0  0  0  0  0  0  0  0  0  0  0
    8.0593   -0.3068   18.7841 H   0  0  0  0  0  0  0  0  0  0  0  0
    5.1910    1.9068   16.8113 H   0  0  0  0  0  0  0  0  0  0  0  0
    3.7508    2.0192   18.8359 H   0  0  0  0  0  0  0  0  0  0  0  0
    4.5154    0.8588   20.9465 H   0  0  0  0  0  0  0  0  0  0  0  0
    7.0659   -1.6371   20.9738 H   0  0  0  0  0  0  0  0  0  0  0  0
    6.1867   -0.5588   22.0499 H   0  0  0  0  0  0  0  0  0  0  0  0
    8.5208    1.0529   22.3062 C   0  0  0  0  0  0  0  0  0  0  0  0
    7.5187    1.9293   23.0022 C   0  0  0  0  0  0  0  0  0  0  0  0
    7.1558    1.3112   24.3381 C   0  0  0  0  0  0  0  0  0  0  0  0
    6.0498    0.7243   24.9052 C   0  0  0  0  0  0  0  0  0  0  0  0
    6.3738    0.1306   26.1033 N   0  0  0  0  0  0  0  0  0  0  0  0
    7.6538    0.3469   26.2661 C   0  0  0  0  0  0  0  0  0  0  0  0
    8.1705    1.0713   25.2383 N   0  0  0  0  0  0  0  0  0  0  0  0
    9.1493    1.1964   25.0268 H   0  0  0  0  0  0  0  0  0  0  0  0
    8.2633   -0.0071   27.0894 H   0  0  0  0  0  0  0  0  0  0  0  0
    5.0380    0.6637   24.5197 H   0  0  0  0  0  0  0  0  0  0  0  0
    6.6313    2.0952   22.3853 H   0  0  0  0  0  0  0  0  0  0  0  0
    8.0015    2.9010   23.1411 H   0  0  0  0  0  0  0  0  0  0  0  0
    9.8262    1.0877   22.5234 N   0  0  0  0  0  0  0  0  0  0  0  0
   11.0560   -2.2832   20.8691 H   0  0  0  0  0  0  0  0  0  0  0  0
   13.3517   -2.8255   20.0172 H   0  0  0  0  0  0  0  0  0  0  0  0
   15.2112   -1.5361   20.7183 H   0  0  0  0  0  0  0  0  0  0  0  0
   14.9197    0.4062   22.3643 H   0  0  0  0  0  0  0  0  0  0  0  0
  1  2  1  0
  2  3  2  0
  3  4  1  0
  4  5  2  0
  5  6  1  0
  6  7  2  0
  7  8  1  0
  8  9  2  0
  9 10  1  0
 10 11  1  0
 11 12  1  0
 12 13  2  0
 13 14  1  0
 14 15  2  0
 15 16  1  0
 16 17  2  0
 17 18  1  0
 15 19  1  0
 14 20  1  0
 13 21  1  0
 11 22  1  0
 11 23  1  0
 10 24  1  0
 24 25  1  0
 25 26  1  0
 26 27  2  0
 27 28  1  0
 28 29  2  0
 29 30  1  0
 30 31  1  0
 29 32  1  0
 27 33  1  0
 25 34  1  0
 25 35  1  0
 24 36  2  0
  6 37  1  0
  5 38  1  0
  4 39  1  0
  3 40  1  0
  7  2  1  0
 36  8  1  0
 17 12  1  0
 30 26  1  0
M  END
>  <cnnaffinity>  (1) 
-6.60267

>  <filename>  (1) 
Clc1ccccc1-c1nc(Cc2cnc[nH]2)n(Cc2cccnc2)n1

$$$$
