
     RDKit          3D

 39 42  0  0  0  0  0  0  0  0999 V2000
    6.3768    3.9575   29.0536 Cl  0  0  0  0  0  0  0  0  0  0  0  0
    6.6890    3.1645   27.5385 C   0  0  0  0  0  0  0  0  0  0  0  0
    5.7645    2.2230   27.0627 C   0  0  0  0  0  0  0  0  0  0  0  0
    6.0271    1.6085   25.8408 C   0  0  0  0  0  0  0  0  0  0  0  0
    7.1943    1.9797   25.1434 C   0  0  0  0  0  0  0  0  0  0  0  0
    7.6156    1.4350   23.8535 C   0  0  0  0  0  0  0  0  0  0  0  0
    7.0090    0.4667   23.1952 N   0  0  0  0  0  0  0  0  0  0  0  0
    7.8004    0.2860   22.1058 N   0  0  0  0  0  0  0  0  0  0  0  0
    7.4002   -0.6464   21.0535 C   0  0  0  0  0  0  0  0  0  0  0  0
    6.6909    0.0292   19.8986 C   0  0  0  0  0  0  0  0  0  0  0  0
    5.4796    0.6980   20.1182 C   0  0  0  0  0  0  0  0  0  0  0  0
    4.8606    1.3322   19.0403 C   0  0  0  0  0  0  0  0  0  0  0  0
    5.4735    1.2780   17.7836 C   0  0  0  0  0  0  0  0  0  0  0  0
    6.6242    0.6276   17.5522 N   0  0  0  0  0  0  0  0  0  0  0  0
    7.2075    0.0230   18.5950 C   0  0  0  0  0  0  0  0  0  0  0  0
    8.1366   -0.5094   18.3773 H   0  0  0  0  0  0  0  0  0  0  0  0
    5.0158    1.7639   16.9224 H   0  0  0  0  0  0  0  0  0  0  0  0
    3.9275    1.8729   19.1583 H   0  0  0  0  0  0  0  0  0  0  0  0
    5.0467    0.7231   21.1220 H   0  0  0  0  0  0  0  0  0  0  0  0
    8.2803   -1.1970   20.7028 H   0  0  0  0  0  0  0  0  0  0  0  0
    6.7347   -1.3678   21.5379 H   0  0  0  0  0  0  0  0  0  0  0  0
    8.8324    1.1589   22.1590 C   0  0  0  0  0  0  0  0  0  0  0  0
    9.9704    1.2602   21.2035 C   0  0  0  0  0  0  0  0  0  0  0  0
   11.1058    0.3508   21.5566 C   0  0  0  0  0  0  0  0  0  0  0  0
   12.0443    0.3406   22.5321 C   0  0  0  0  0  0  0  0  0  0  0  0
   12.8749   -0.8055   22.2836 C   0  0  0  0  0  0  0  0  0  0  0  0
   12.3397   -1.4271   21.2082 C   0  0  0  0  0  0  0  0  0  0  0  0
   11.2555   -0.7345   20.7669 O   0  0  0  0  0  0  0  0  0  0  0  0
   12.6048   -2.2957   20.6251 H   0  0  0  0  0  0  0  0  0  0  0  0
   13.7585   -1.1190   22.8198 H   0  0  0  0  0  0  0  0  0  0  0  0
   12.1389    1.0465   23.3430 H   0  0  0  0  0  0  0  0  0  0  0  0
   10.3155    2.2964   21.2561 H   0  0  0  0  0  0  0  0  0  0  0  0
    9.6478    1.0287   20.1890 H   0  0  0  0  0  0  0  0  0  0  0  0
    8.7353    1.9039   23.2374 N   0  0  0  0  0  0  0  0  0  0  0  0
    8.0423    2.9268   25.7335 C   0  0  0  0  0  0  0  0  0  0  0  0
    7.7981    3.5115   26.9104 N   0  0  0  0  0  0  0  0  0  0  0  0
    8.9641    3.2230   25.2414 H   0  0  0  0  0  0  0  0  0  0  0  0
    5.3528    0.8458   25.4479 H   0  0  0  0  0  0  0  0  0  0  0  0
    4.8856    2.0010   27.6529 H   0  0  0  0  0  0  0  0  0  0  0  0
  1  2  1  0
  2  3  2  0
  3  4  1  0
  4  5  2  0
  5  6  1  0
  6  7  2  0
  7  8  1  0
  8  9  1  0
  9 10  1  0
 10 11  2  0
 11 12  1  0
 12 13  2  0
 13 14  1  0
 14 15  2  0
 15 16  1  0
 13 17  1  0
 12 18  1  0
 11 19  1  0
  9 20  1  0
  9 21  1  0
  8 22  1  0
 22 23  1  0
 23 24  1  0
 24 25  2  0
 25 26  1  0
 26 27  2  0
 27 28  1  0
 27 29  1  0
 26 30  1  0
 25 31  1  0
 23 32  1  0
 23 33  1  0
 22 34  2  0
  5 35  1  0
 35 36  2  0
 35 37  1  0
  4 38  1  0
  3 39  1  0
 36  2  1  0
 34  6  1  0
 15 10  1  0
 28 24  1  0
M  END
>  <cnnaffinity>  (1) 
-6.1072

>  <filename>  (1) 
Clc1ccc(-c2nc(Cc3ccco3)n(Cc3cccnc3)n2)cn1

$$$$
