
     RDKit          3D

 39 41  0  0  0  0  0  0  0  0999 V2000
    5.1798    1.6632   16.7426 H   0  0  0  0  0  0  0  0  0  0  0  0
    5.5770    1.2233   17.6561 C   0  0  0  0  0  0  0  0  0  0  0  0
    6.6976    0.5018   17.5254 N   0  0  0  0  0  0  0  0  0  0  0  0
    7.2261   -0.0219   18.6418 C   0  0  0  0  0  0  0  0  0  0  0  0
    8.1546   -0.5763   18.4982 H   0  0  0  0  0  0  0  0  0  0  0  0
    6.6851    0.1250   19.9355 C   0  0  0  0  0  0  0  0  0  0  0  0
    7.3024   -0.5842   21.1531 C   0  0  2  0  0  0  0  0  0  0  0  0
    6.5067   -1.9073   21.3567 C   0  0  0  0  0  0  0  0  0  0  0  0
    6.5582   -2.4753   20.4224 H   0  0  0  0  0  0  0  0  0  0  0  0
    5.4528   -1.6194   21.4560 H   0  0  0  0  0  0  0  0  0  0  0  0
    6.8476   -2.8342   22.5397 C   0  0  0  0  0  0  0  0  0  0  0  0
    6.7858   -2.2749   23.4763 H   0  0  0  0  0  0  0  0  0  0  0  0
    7.8821   -3.1885   22.4825 H   0  0  0  0  0  0  0  0  0  0  0  0
    5.8922   -4.0154   22.6054 C   0  0  0  0  0  0  0  0  0  0  0  0
    4.8032   -3.9854   23.4981 C   0  0  0  0  0  0  0  0  0  0  0  0
    4.7492   -3.1692   24.2159 H   0  0  0  0  0  0  0  0  0  0  0  0
    3.8248   -4.9839   23.5122 C   0  0  0  0  0  0  0  0  0  0  0  0
    3.0051   -4.9226   24.2246 H   0  0  0  0  0  0  0  0  0  0  0  0
    3.9300   -6.0653   22.6325 C   0  0  0  0  0  0  0  0  0  0  0  0
    3.1811   -6.8521   22.6559 H   0  0  0  0  0  0  0  0  0  0  0  0
    5.0244   -6.1542   21.7653 C   0  0  0  0  0  0  0  0  0  0  0  0
    5.1571   -7.0053   21.1031 H   0  0  0  0  0  0  0  0  0  0  0  0
    5.9942   -5.1460   21.7687 C   0  0  0  0  0  0  0  0  0  0  0  0
    7.3566   -5.3544   20.6910 Cl  0  0  0  0  0  0  0  0  0  0  0  0
    7.2859    0.2857   22.4346 C   0  0  0  0  0  0  0  0  0  0  0  0
    6.3172    0.2174   22.9473 H   0  0  0  0  0  0  0  0  0  0  0  0
    7.4538    1.3437   22.1539 H   0  0  0  0  0  0  0  0  0  0  0  0
    8.3450   -0.2682   23.2769 N   0  0  0  0  0  0  0  0  0  0  0  0
    8.6672    0.3930   23.9726 H   0  0  0  0  0  0  0  0  0  0  0  0
    9.4292   -0.7539   22.4228 C   0  0  0  0  0  0  0  0  0  0  0  0
   10.3100   -0.0911   22.4397 H   0  0  0  0  0  0  0  0  0  0  0  0
    9.7739   -1.7399   22.7662 H   0  0  0  0  0  0  0  0  0  0  0  0
    8.8290   -0.8063   21.0061 C   0  0  0  0  0  0  0  0  0  0  0  0
    9.0673   -1.7284   20.4662 H   0  0  0  0  0  0  0  0  0  0  0  0
    9.2537    0.0198   20.4238 H   0  0  0  0  0  0  0  0  0  0  0  0
    5.5009    0.8778   20.0364 C   0  0  0  0  0  0  0  0  0  0  0  0
    5.0235    1.0464   21.0042 H   0  0  0  0  0  0  0  0  0  0  0  0
    4.9435    1.4364   18.8828 C   0  0  0  0  0  0  0  0  0  0  0  0
    4.0421    2.0373   18.9227 H   0  0  0  0  0  0  0  0  0  0  0  0
  1  2  1  0
  2  3  2  0
  3  4  1  0
  4  5  1  0
  4  6  2  0
  6  7  1  0
  7  8  1  1
  8  9  1  0
  8 10  1  0
  8 11  1  0
 11 12  1  0
 11 13  1  0
 11 14  1  0
 14 15  2  0
 15 16  1  0
 15 17  1  0
 17 18  1  0
 17 19  2  0
 19 20  1  0
 19 21  1  0
 21 22  1  0
 21 23  2  0
 23 24  1  0
  7 25  1  0
 25 26  1  0
 25 27  1  0
 25 28  1  0
 28 29  1  0
 28 30  1  0
 30 31  1  0
 30 32  1  0
 30 33  1  0
 33 34  1  0
 33 35  1  0
  6 36  1  0
 36 37  1  0
 36 38  2  0
 38 39  1  0
 38  2  1  0
 33  7  1  0
 23 14  1  0
M  END
>  <cnnaffinity>  (1) 
-5.51688

>  <filename>  (1) 
Clc1ccccc1CC[C@]1(c2cccnc2)CCNC1

$$$$
