
     RDKit          3D

 29 31  0  0  0  0  0  0  0  0999 V2000
    8.6187   -3.6970   21.4348 H   0  0  0  0  0  0  0  0  0  0  0  0
    8.3380   -2.6730   21.6553 C   0  0  0  0  0  0  0  0  0  0  0  0
    8.6199   -2.2296   22.8808 N   0  0  0  0  0  0  0  0  0  0  0  0
    8.2710   -0.9705   23.1310 C   0  0  0  0  0  0  0  0  0  0  0  0
    8.5155   -0.5862   24.1202 H   0  0  0  0  0  0  0  0  0  0  0  0
    7.6586   -0.1344   22.2037 C   0  0  0  0  0  0  0  0  0  0  0  0
    7.3826    1.2938   22.5333 C   0  0  0  0  0  0  0  0  0  0  0  0
    7.8529    2.3230   21.7021 C   0  0  0  0  0  0  0  0  0  0  0  0
    8.4158    2.0600   20.8106 H   0  0  0  0  0  0  0  0  0  0  0  0
    7.5864    3.6536   22.0078 C   0  0  0  0  0  0  0  0  0  0  0  0
    7.9468    4.4570   21.3734 H   0  0  0  0  0  0  0  0  0  0  0  0
    6.8412    3.9811   23.1454 C   0  0  0  0  0  0  0  0  0  0  0  0
    6.5314    5.6509   23.4778 Cl  0  0  0  0  0  0  0  0  0  0  0  0
    6.3731    2.9586   23.9877 C   0  0  0  0  0  0  0  0  0  0  0  0
    5.4629    3.3139   25.4170 Cl  0  0  0  0  0  0  0  0  0  0  0  0
    6.6534    1.6242   23.6804 C   0  0  0  0  0  0  0  0  0  0  0  0
    6.2784    0.8421   24.3348 H   0  0  0  0  0  0  0  0  0  0  0  0
    7.3899   -0.7345   20.9548 C   0  0  0  0  0  0  0  0  0  0  0  0
    6.6513   -0.0129   19.9040 C   0  0  0  0  0  0  0  0  0  0  0  0
    7.1737    0.0421   18.6103 C   0  0  0  0  0  0  0  0  0  0  0  0
    8.1234   -0.4387   18.3753 H   0  0  0  0  0  0  0  0  0  0  0  0
    6.5774    0.6744   17.5957 N   0  0  0  0  0  0  0  0  0  0  0  0
    5.4087    1.2874   17.8490 C   0  0  0  0  0  0  0  0  0  0  0  0
    4.9212    1.7748   17.0048 H   0  0  0  0  0  0  0  0  0  0  0  0
    4.8077    1.3018   19.1119 C   0  0  0  0  0  0  0  0  0  0  0  0
    3.8769    1.8412   19.2607 H   0  0  0  0  0  0  0  0  0  0  0  0
    5.4377    0.6421   20.1640 C   0  0  0  0  0  0  0  0  0  0  0  0
    5.0072    0.6391   21.1696 H   0  0  0  0  0  0  0  0  0  0  0  0
    7.7600   -1.9871   20.6774 N   0  0  0  0  0  0  0  0  0  0  0  0
  1  2  1  0
  2  3  2  0
  3  4  1  0
  4  5  1  0
  4  6  2  0
  6  7  1  0
  7  8  2  0
  8  9  1  0
  8 10  1  0
 10 11  1  0
 10 12  2  0
 12 13  1  0
 12 14  1  0
 14 15  1  0
 14 16  2  0
 16 17  1  0
  6 18  1  0
 18 19  1  0
 19 20  2  0
 20 21  1  0
 20 22  1  0
 22 23  2  0
 23 24  1  0
 23 25  1  0
 25 26  1  0
 25 27  2  0
 27 28  1  0
 18 29  2  0
 29  2  1  0
 16  7  1  0
 27 19  1  0
M  END
>  <cnnaffinity>  (1) 
-5.14813

>  <filename>  (1) 
Clc1ccc(-c2cncnc2-c2cccnc2)cc1Cl

$$$$
