
     RDKit          3D

 27 29  0  0  0  0  0  0  0  0999 V2000
    9.0845   -3.0681   22.1711 H   0  0  0  0  0  0  0  0  0  0  0  0
    8.4999   -2.2023   21.8908 C   0  0  0  0  0  0  0  0  0  0  0  0
    8.0933   -1.8611   20.7185 N   0  0  0  0  0  0  0  0  0  0  0  0
    7.3790   -0.6934   20.9442 C   0  0  0  0  0  0  0  0  0  0  0  0
    6.6499   -0.0014   19.8950 C   0  0  0  0  0  0  0  0  0  0  0  0
    7.1717    0.0491   18.5934 C   0  0  0  0  0  0  0  0  0  0  0  0
    8.1230   -0.4328   18.3746 H   0  0  0  0  0  0  0  0  0  0  0  0
    6.5740    0.6760   17.5760 N   0  0  0  0  0  0  0  0  0  0  0  0
    5.4086    1.2909   17.8411 C   0  0  0  0  0  0  0  0  0  0  0  0
    4.9207    1.7773   16.9994 H   0  0  0  0  0  0  0  0  0  0  0  0
    4.8034    1.3087   19.1061 C   0  0  0  0  0  0  0  0  0  0  0  0
    3.8704    1.8460   19.2586 H   0  0  0  0  0  0  0  0  0  0  0  0
    5.4342    0.6510   20.1573 C   0  0  0  0  0  0  0  0  0  0  0  0
    5.0025    0.6320   21.1656 H   0  0  0  0  0  0  0  0  0  0  0  0
    7.4597   -0.3672   22.2738 C   0  0  0  0  0  0  0  0  0  0  0  0
    6.9648    0.7858   23.0328 C   0  0  0  0  0  0  0  0  0  0  0  0
    6.1004    0.5736   24.1184 C   0  0  0  0  0  0  0  0  0  0  0  0
    5.8743   -0.4470   24.4120 H   0  0  0  0  0  0  0  0  0  0  0  0
    5.5389    1.6476   24.7992 C   0  0  0  0  0  0  0  0  0  0  0  0
    4.8873    1.4627   25.6464 H   0  0  0  0  0  0  0  0  0  0  0  0
    5.8253    2.9555   24.4031 C   0  0  0  0  0  0  0  0  0  0  0  0
    5.3991    3.7989   24.9312 H   0  0  0  0  0  0  0  0  0  0  0  0
    6.6816    3.1905   23.3241 C   0  0  0  0  0  0  0  0  0  0  0  0
    7.0112    4.8338   22.8916 Cl  0  0  0  0  0  0  0  0  0  0  0  0
    7.2614    2.1104   22.6408 C   0  0  0  0  0  0  0  0  0  0  0  0
    8.3658    2.4061   21.3432 Cl  0  0  0  0  0  0  0  0  0  0  0  0
    8.1577   -1.3627   22.8889 O   0  0  0  0  0  0  0  0  0  0  0  0
  1  2  1  0
  2  3  2  0
  3  4  1  0
  4  5  1  0
  5  6  2  0
  6  7  1  0
  6  8  1  0
  8  9  2  0
  9 10  1  0
  9 11  1  0
 11 12  1  0
 11 13  2  0
 13 14  1  0
  4 15  2  0
 15 16  1  0
 16 17  2  0
 17 18  1  0
 17 19  1  0
 19 20  1  0
 19 21  2  0
 21 22  1  0
 21 23  1  0
 23 24  1  0
 23 25  2  0
 25 26  1  0
 15 27  1  0
 27  2  1  0
 13  5  1  0
 25 16  1  0
M  END
>  <cnnaffinity>  (1) 
-5.21543

>  <filename>  (1) 
Clc1cccc(-c2ocnc2-c2cccnc2)c1Cl

$$$$
