
     RDKit          3D

 43 46  0  0  0  0  0  0  0  0999 V2000
    4.9573    1.8206   17.0145 H   0  0  0  0  0  0  0  0  0  0  0  0
    5.4378    1.3010   17.8409 C   0  0  0  0  0  0  0  0  0  0  0  0
    6.6013    0.6868   17.5722 N   0  0  0  0  0  0  0  0  0  0  0  0
    7.2153    0.0436   18.5761 C   0  0  0  0  0  0  0  0  0  0  0  0
    8.1542   -0.4471   18.3210 H   0  0  0  0  0  0  0  0  0  0  0  0
    6.7191   -0.0492   19.9066 C   0  0  0  0  0  0  0  0  0  0  0  0
    7.3804   -0.8046   20.8883 N   0  0  0  0  0  0  0  0  0  0  0  0
    6.9472   -0.8435   22.2846 C   0  0  1  0  0  0  0  0  0  0  0  0
    5.8772   -1.0024   22.3201 H   0  0  0  0  0  0  0  0  0  0  0  0
    7.7038   -2.0735   22.8137 C   0  0  0  0  0  0  0  0  0  0  0  0
    7.0996   -2.9729   22.6623 H   0  0  0  0  0  0  0  0  0  0  0  0
    7.8989   -1.9990   23.8865 H   0  0  0  0  0  0  0  0  0  0  0  0
    8.9866   -2.1160   21.9514 C   0  0  0  0  0  0  0  0  0  0  0  0
    9.9056   -2.0553   22.5373 H   0  0  0  0  0  0  0  0  0  0  0  0
    9.0366   -3.0457   21.3811 H   0  0  0  0  0  0  0  0  0  0  0  0
    8.8398   -0.9144   20.9953 C   0  0  2  0  0  0  0  0  0  0  0  0
    9.2891   -1.1267   20.0218 H   0  0  0  0  0  0  0  0  0  0  0  0
    9.4266    0.4049   21.5477 C   0  0  0  0  0  0  0  0  0  0  0  0
    9.2596    1.1676   20.7758 H   0  0  0  0  0  0  0  0  0  0  0  0
   10.5133    0.2944   21.6625 H   0  0  0  0  0  0  0  0  0  0  0  0
    8.7946    0.8891   22.8849 C   0  0  2  0  0  0  0  0  0  0  0  0
    8.8144    1.9879   22.8560 H   0  0  0  0  0  0  0  0  0  0  0  0
    9.6382    0.5052   24.1305 C   0  0  0  0  0  0  0  0  0  0  0  0
    9.6303   -0.5823   24.2750 H   0  0  0  0  0  0  0  0  0  0  0  0
   10.6838    0.7815   23.9363 H   0  0  0  0  0  0  0  0  0  0  0  0
    9.1656    1.2125   25.3889 C   0  0  0  0  0  0  0  0  0  0  0  0
    9.3304    2.6046   25.5221 C   0  0  0  0  0  0  0  0  0  0  0  0
    9.9358    3.1471   24.7991 H   0  0  0  0  0  0  0  0  0  0  0  0
    8.7167    3.3065   26.5595 C   0  0  0  0  0  0  0  0  0  0  0  0
    8.7945    4.3827   26.6591 H   0  0  0  0  0  0  0  0  0  0  0  0
    7.9729    2.6067   27.5121 C   0  0  0  0  0  0  0  0  0  0  0  0
    7.1559    3.5345   28.7400 Cl  0  0  0  0  0  0  0  0  0  0  0  0
    7.8891    1.2124   27.4802 C   0  0  0  0  0  0  0  0  0  0  0  0
    7.3757    0.6817   28.2766 H   0  0  0  0  0  0  0  0  0  0  0  0
    8.4858    0.5318   26.4114 C   0  0  0  0  0  0  0  0  0  0  0  0
    8.4315   -0.5561   26.3774 H   0  0  0  0  0  0  0  0  0  0  0  0
    7.3016    0.4692   23.0140 C   0  0  0  0  0  0  0  0  0  0  0  0
    6.6689    1.2602   22.5936 H   0  0  0  0  0  0  0  0  0  0  0  0
    7.0200    0.3709   24.0713 H   0  0  0  0  0  0  0  0  0  0  0  0
    5.4882    0.6003   20.1492 C   0  0  0  0  0  0  0  0  0  0  0  0
    5.0602    0.5937   21.1478 H   0  0  0  0  0  0  0  0  0  0  0  0
    4.8507    1.2780   19.1082 C   0  0  0  0  0  0  0  0  0  0  0  0
    3.9130    1.7988   19.2776 H   0  0  0  0  0  0  0  0  0  0  0  0
  1  2  1  0
  2  3  2  0
  3  4  1  0
  4  5  1  0
  4  6  2  0
  6  7  1  0
  7  8  1  0
  8  9  1  6
  8 10  1  0
 10 11  1  0
 10 12  1  0
 10 13  1  0
 13 14  1  0
 13 15  1  0
 13 16  1  0
 16 17  1  6
 16 18  1  0
 18 19  1  0
 18 20  1  0
 18 21  1  0
 21 22  1  6
 21 23  1  0
 23 24  1  0
 23 25  1  0
 23 26  1  0
 26 27  2  0
 27 28  1  0
 27 29  1  0
 29 30  1  0
 29 31  2  0
 31 32  1  0
 31 33  1  0
 33 34  1  0
 33 35  2  0
 35 36  1  0
 21 37  1  0
 37 38  1  0
 37 39  1  0
  6 40  1  0
 40 41  1  0
 40 42  2  0
 42 43  1  0
 42  2  1  0
 16  7  1  0
 35 26  1  0
 37  8  1  0
M  END
>  <cnnaffinity>  (1) 
-5.65689

>  <filename>  (1) 
Clc1ccc(C[C@H]2C[C@H]3CC[C@@H](C2)N3c2cccnc2)cc1

$$$$
