
     RDKit          3D

 44 48  0  0  0  0  0  0  0  0999 V2000
   14.2903   -2.0457   21.0316 Cl  0  0  0  0  0  0  0  0  0  0  0  0
   13.3667   -0.8518   21.8901 C   0  0  0  0  0  0  0  0  0  0  0  0
   14.0190    0.1775   22.5733 C   0  0  0  0  0  0  0  0  0  0  0  0
   13.2690    1.1613   23.2197 C   0  0  0  0  0  0  0  0  0  0  0  0
   11.8809    1.1183   23.1786 C   0  0  0  0  0  0  0  0  0  0  0  0
   11.2191    0.0889   22.4762 C   0  0  0  0  0  0  0  0  0  0  0  0
    9.7426    0.1174   22.3936 C   0  0  0  0  0  0  0  0  0  0  0  0
    8.9845   -0.5905   21.5726 N   0  0  0  0  0  0  0  0  0  0  0  0
    7.7350   -0.1417   21.8435 N   0  0  0  0  0  0  0  0  0  0  0  0
    6.5864   -0.7177   21.1541 C   0  0  0  0  0  0  0  0  0  0  0  0
    6.1360    0.0578   19.9296 C   0  0  0  0  0  0  0  0  0  0  0  0
    4.9161    0.7422   19.8546 C   0  0  0  0  0  0  0  0  0  0  0  0
    4.6161    1.4561   18.6906 C   0  0  0  0  0  0  0  0  0  0  0  0
    5.5393    1.4513   17.6406 C   0  0  0  0  0  0  0  0  0  0  0  0
    6.7139    0.8050   17.6953 N   0  0  0  0  0  0  0  0  0  0  0  0
    6.9995    0.1467   18.8255 C   0  0  0  0  0  0  0  0  0  0  0  0
    7.9792   -0.3294   18.8797 H   0  0  0  0  0  0  0  0  0  0  0  0
    5.3327    1.9929   16.7172 H   0  0  0  0  0  0  0  0  0  0  0  0
    3.7053    2.0359   18.5975 H   0  0  0  0  0  0  0  0  0  0  0  0
    4.2127    0.7397   20.6924 H   0  0  0  0  0  0  0  0  0  0  0  0
    5.7623   -0.7967   21.8653 H   0  0  0  0  0  0  0  0  0  0  0  0
    6.8917   -1.7385   20.9019 H   0  0  0  0  0  0  0  0  0  0  0  0
    7.8063    0.8494   22.7615 C   0  0  0  0  0  0  0  0  0  0  0  0
    6.6658    1.6933   23.2654 C   0  0  0  0  0  0  0  0  0  0  0  0
    6.2410    1.3831   24.7348 C   0  0  0  0  0  0  0  0  0  0  0  0
    7.1336    2.2918   25.6197 C   0  0  0  0  0  0  0  0  0  0  0  0
    7.5095    3.3882   24.6766 C   0  0  0  0  0  0  0  0  0  0  0  0
    8.2002    4.4950   24.7492 N   0  0  0  0  0  0  0  0  0  0  0  0
    8.2718    4.9294   23.4388 C   0  0  0  0  0  0  0  0  0  0  0  0
    7.6189    4.0737   22.5901 C   0  0  0  0  0  0  0  0  0  0  0  0
    7.1004    3.0917   23.4141 N   0  0  0  0  0  0  0  0  0  0  0  0
    7.4724    4.0910   21.5211 H   0  0  0  0  0  0  0  0  0  0  0  0
    8.8039    5.8407   23.1849 H   0  0  0  0  0  0  0  0  0  0  0  0
    8.0490    1.7752   25.9331 H   0  0  0  0  0  0  0  0  0  0  0  0
    6.6227    2.6653   26.5105 H   0  0  0  0  0  0  0  0  0  0  0  0
    5.1878    1.6670   24.8307 H   0  0  0  0  0  0  0  0  0  0  0  0
    6.3275    0.3216   24.9932 H   0  0  0  0  0  0  0  0  0  0  0  0
    5.8363    1.6270   22.5586 H   0  0  0  0  0  0  0  0  0  0  0  0
    9.0484    0.9963   23.1585 N   0  0  0  0  0  0  0  0  0  0  0  0
   11.9745   -0.9018   21.8253 C   0  0  0  0  0  0  0  0  0  0  0  0
   11.4954   -1.6962   21.2661 H   0  0  0  0  0  0  0  0  0  0  0  0
   11.2853    1.8809   23.6722 H   0  0  0  0  0  0  0  0  0  0  0  0
   13.7723    1.9863   23.7221 H   0  0  0  0  0  0  0  0  0  0  0  0
   15.0951    0.2347   22.5677 H   0  0  0  0  0  0  0  0  0  0  0  0
  1  2  1  0
  2  3  2  0
  3  4  1  0
  4  5  2  0
  5  6  1  0
  6  7  1  0
  7  8  2  0
  8  9  1  0
  9 10  1  0
 10 11  1  0
 11 12  2  0
 12 13  1  0
 13 14  2  0
 14 15  1  0
 15 16  2  0
 16 17  1  0
 14 18  1  0
 13 19  1  0
 12 20  1  0
 10 21  1  0
 10 22  1  0
  9 23  1  0
 23 24  1  0
 24 25  1  0
 25 26  1  0
 26 27  1  0
 27 28  2  0
 28 29  1  0
 29 30  2  0
 30 31  1  0
 30 32  1  0
 29 33  1  0
 26 34  1  0
 26 35  1  0
 25 36  1  0
 25 37  1  0
 24 38  1  0
 23 39  2  0
  6 40  2  0
 40 41  1  0
  5 42  1  0
  4 43  1  0
  3 44  1  0
 40  2  1  0
 39  7  1  0
 16 11  1  0
 31 24  1  0
 31 27  1  0
M  END
>  <cnnaffinity>  (1) 
-6.64649

>  <filename>  (1) 
Clc1cccc(-c2nc(C3CCc4nccn43)n(Cc3cccnc3)n2)c1

$$$$
