
     RDKit          3D

 42 45  0  0  0  0  0  0  0  0999 V2000
    6.6890    1.6320   23.3980 Cl  0  0  0  0  0  0  0  0  0  0  0  0
    8.3495    1.7326   23.9137 C   0  0  0  0  0  0  0  0  0  0  0  0
    8.5408    1.4954   25.2025 N   0  0  0  0  0  0  0  0  0  0  0  0
    9.8016    1.5039   25.6501 C   0  0  0  0  0  0  0  0  0  0  0  0
   10.9002    1.8021   24.8469 C   0  0  0  0  0  0  0  0  0  0  0  0
   10.6693    2.0324   23.4914 C   0  0  0  0  0  0  0  0  0  0  0  0
    9.3663    1.9984   22.9706 C   0  0  0  0  0  0  0  0  0  0  0  0
    9.1777    1.9978   21.4682 C   0  0  0  0  0  0  0  0  0  0  0  0
    9.5333    0.5947   20.9024 C   0  0  0  0  0  0  0  0  0  0  0  0
    8.6382   -0.5069   21.3787 C   0  0  0  0  0  0  0  0  0  0  0  0
    8.8648   -1.3744   22.3496 N   0  0  0  0  0  0  0  0  0  0  0  0
    7.6547   -1.9806   22.5122 C   0  0  0  0  0  0  0  0  0  0  0  0
    7.3994   -2.9370   23.6303 C   0  0  0  0  0  0  0  0  0  0  0  0
    6.5254   -4.1896   23.3191 C   0  0  0  0  0  0  0  0  0  0  0  0
    5.4468   -3.6937   24.3057 C   0  0  0  0  0  0  0  0  0  0  0  0
    6.3363   -2.4947   24.6927 C   0  0  0  0  0  0  0  0  0  0  0  0
    5.8936   -1.5130   24.5015 H   0  0  0  0  0  0  0  0  0  0  0  0
    6.7041   -2.5173   25.7219 H   0  0  0  0  0  0  0  0  0  0  0  0
    5.1943   -4.3770   25.1213 H   0  0  0  0  0  0  0  0  0  0  0  0
    4.5141   -3.3984   23.8168 H   0  0  0  0  0  0  0  0  0  0  0  0
    6.1900   -4.2466   22.2811 H   0  0  0  0  0  0  0  0  0  0  0  0
    6.9934   -5.1394   23.5953 H   0  0  0  0  0  0  0  0  0  0  0  0
    8.3809   -3.1531   24.0570 H   0  0  0  0  0  0  0  0  0  0  0  0
    6.7226   -1.5916   21.6644 N   0  0  0  0  0  0  0  0  0  0  0  0
    7.3650   -0.6642   20.9102 N   0  0  0  0  0  0  0  0  0  0  0  0
    6.6714   -0.0029   19.8663 C   0  0  0  0  0  0  0  0  0  0  0  0
    5.4607    0.6340   20.1496 C   0  0  0  0  0  0  0  0  0  0  0  0
    4.8208    1.3060   19.1071 C   0  0  0  0  0  0  0  0  0  0  0  0
    5.4010    1.2963   17.8319 C   0  0  0  0  0  0  0  0  0  0  0  0
    6.5388    0.6438   17.5438 N   0  0  0  0  0  0  0  0  0  0  0  0
    7.1564    0.0081   18.5450 C   0  0  0  0  0  0  0  0  0  0  0  0
    8.0785   -0.5211   18.2990 H   0  0  0  0  0  0  0  0  0  0  0  0
    4.9333    1.8333   17.0115 H   0  0  0  0  0  0  0  0  0  0  0  0
    3.8897    1.8346   19.2756 H   0  0  0  0  0  0  0  0  0  0  0  0
    5.0590    0.5882   21.1638 H   0  0  0  0  0  0  0  0  0  0  0  0
   10.5543    0.3469   21.2032 H   0  0  0  0  0  0  0  0  0  0  0  0
    9.5275    0.6094   19.8116 H   0  0  0  0  0  0  0  0  0  0  0  0
    8.1596    2.2901   21.1911 H   0  0  0  0  0  0  0  0  0  0  0  0
    9.8407    2.7374   21.0090 H   0  0  0  0  0  0  0  0  0  0  0  0
   11.5019    2.1829   22.8041 H   0  0  0  0  0  0  0  0  0  0  0  0
   11.9066    1.8166   25.2493 H   0  0  0  0  0  0  0  0  0  0  0  0
    9.9179    1.2090   26.6819 H   0  0  0  0  0  0  0  0  0  0  0  0
  1  2  1  0
  2  3  2  0
  3  4  1  0
  4  5  2  0
  5  6  1  0
  6  7  2  0
  7  8  1  0
  8  9  1  0
  9 10  1  0
 10 11  2  0
 11 12  1  0
 12 13  1  0
 13 14  1  0
 14 15  1  0
 15 16  1  0
 16 17  1  0
 16 18  1  0
 15 19  1  0
 15 20  1  0
 14 21  1  0
 14 22  1  0
 13 23  1  0
 12 24  2  0
 24 25  1  0
 25 26  1  0
 26 27  2  0
 27 28  1  0
 28 29  2  0
 29 30  1  0
 30 31  2  0
 31 32  1  0
 29 33  1  0
 28 34  1  0
 27 35  1  0
  9 36  1  0
  9 37  1  0
  8 38  1  0
  8 39  1  0
  6 40  1  0
  5 41  1  0
  4 42  1  0
  7  2  1  0
 25 10  1  0
 31 26  1  0
 16 13  1  0
M  END
>  <cnnaffinity>  (1) 
-6.14948

>  <filename>  (1) 
Clc1ncccc1CCc1nc(C2CCC2)nn1-c1cccnc1

$$$$
