
     RDKit          3D

 41 44  0  0  0  0  0  0  0  0999 V2000
    5.9953    3.7343   29.3511 Cl  0  0  0  0  0  0  0  0  0  0  0  0
    6.4055    3.0660   27.7993 C   0  0  0  0  0  0  0  0  0  0  0  0
    7.5443    3.5313   27.1413 C   0  0  0  0  0  0  0  0  0  0  0  0
    7.8715    3.0048   25.8962 C   0  0  0  0  0  0  0  0  0  0  0  0
    7.0782    2.0106   25.2867 C   0  0  0  0  0  0  0  0  0  0  0  0
    7.5136    1.4818   23.9677 C   0  0  0  0  0  0  0  0  0  0  0  0
    6.9050    0.5338   23.2721 N   0  0  0  0  0  0  0  0  0  0  0  0
    7.7168    0.3579   22.2005 N   0  0  0  0  0  0  0  0  0  0  0  0
    7.3740   -0.5814   21.1360 C   0  0  0  0  0  0  0  0  0  0  0  0
    6.6880    0.0669   19.9423 C   0  0  0  0  0  0  0  0  0  0  0  0
    5.4759    0.7464   20.1199 C   0  0  0  0  0  0  0  0  0  0  0  0
    4.8789    1.3490   19.0113 C   0  0  0  0  0  0  0  0  0  0  0  0
    5.5095    1.2522   17.7683 C   0  0  0  0  0  0  0  0  0  0  0  0
    6.6629    0.5976   17.5723 N   0  0  0  0  0  0  0  0  0  0  0  0
    7.2256    0.0252   18.6453 C   0  0  0  0  0  0  0  0  0  0  0  0
    8.1609   -0.5040   18.4545 H   0  0  0  0  0  0  0  0  0  0  0  0
    5.0730    1.7271   16.8924 H   0  0  0  0  0  0  0  0  0  0  0  0
    3.9518    1.9034   19.0982 H   0  0  0  0  0  0  0  0  0  0  0  0
    5.0247    0.8081   21.1126 H   0  0  0  0  0  0  0  0  0  0  0  0
    6.7277   -1.3301   21.6074 H   0  0  0  0  0  0  0  0  0  0  0  0
    8.2925   -1.0901   20.8179 H   0  0  0  0  0  0  0  0  0  0  0  0
    8.7650    1.2014   22.2928 C   0  0  0  0  0  0  0  0  0  0  0  0
    9.9160    1.2725   21.3365 C   0  0  0  0  0  0  0  0  0  0  0  0
   11.0844    0.3728   21.6461 C   0  0  0  0  0  0  0  0  0  0  0  0
   12.0679    0.5323   22.5915 C   0  0  0  0  0  0  0  0  0  0  0  0
   12.9756   -0.5602   22.4682 C   0  0  0  0  0  0  0  0  0  0  0  0
   12.5132   -1.3533   21.4522 C   0  0  0  0  0  0  0  0  0  0  0  0
   11.3544   -0.7883   20.9733 N   0  0  0  0  0  0  0  0  0  0  0  0
   10.8457   -1.1225   20.1676 H   0  0  0  0  0  0  0  0  0  0  0  0
   12.9282   -2.2470   21.0034 H   0  0  0  0  0  0  0  0  0  0  0  0
   13.9060   -0.6944   23.0094 H   0  0  0  0  0  0  0  0  0  0  0  0
   12.1554    1.3682   23.2737 H   0  0  0  0  0  0  0  0  0  0  0  0
    9.5500    1.1053   20.3219 H   0  0  0  0  0  0  0  0  0  0  0  0
   10.2578    2.3094   21.3829 H   0  0  0  0  0  0  0  0  0  0  0  0
    8.6572    1.9354   23.3747 N   0  0  0  0  0  0  0  0  0  0  0  0
    5.9403    1.5408   25.9781 C   0  0  0  0  0  0  0  0  0  0  0  0
    5.6075    2.0689   27.2310 C   0  0  0  0  0  0  0  0  0  0  0  0
    4.7472    1.7069   27.7837 H   0  0  0  0  0  0  0  0  0  0  0  0
    5.3239    0.7559   25.5417 H   0  0  0  0  0  0  0  0  0  0  0  0
    8.7601    3.3513   25.3740 H   0  0  0  0  0  0  0  0  0  0  0  0
    8.1705    4.2840   27.6048 H   0  0  0  0  0  0  0  0  0  0  0  0
  1  2  1  0
  2  3  2  0
  3  4  1  0
  4  5  2  0
  5  6  1  0
  6  7  2  0
  7  8  1  0
  8  9  1  0
  9 10  1  0
 10 11  2  0
 11 12  1  0
 12 13  2  0
 13 14  1  0
 14 15  2  0
 15 16  1  0
 13 17  1  0
 12 18  1  0
 11 19  1  0
  9 20  1  0
  9 21  1  0
  8 22  1  0
 22 23  1  0
 23 24  1  0
 24 25  2  0
 25 26  1  0
 26 27  2  0
 27 28  1  0
 28 29  1  0
 27 30  1  0
 26 31  1  0
 25 32  1  0
 23 33  1  0
 23 34  1  0
 22 35  2  0
  5 36  1  0
 36 37  2  0
 37 38  1  0
 36 39  1  0
  4 40  1  0
  3 41  1  0
 37  2  1  0
 35  6  1  0
 15 10  1  0
 28 24  1  0
M  END
>  <cnnaffinity>  (1) 
-5.90649

>  <filename>  (1) 
Clc1ccc(-c2nc(Cc3ccc[nH]3)n(Cc3cccnc3)n2)cc1

$$$$
