
     RDKit          3D

 43 46  0  0  0  0  0  0  0  0999 V2000
    6.9238    5.7522   25.0998 Cl  0  0  0  0  0  0  0  0  0  0  0  0
    7.0948    4.0266   25.0037 C   0  0  0  0  0  0  0  0  0  0  0  0
    8.3710    3.4736   25.1454 C   0  0  0  0  0  0  0  0  0  0  0  0
    8.4980    2.0885   25.0671 C   0  0  0  0  0  0  0  0  0  0  0  0
    7.3450    1.3158   24.8535 C   0  0  0  0  0  0  0  0  0  0  0  0
    7.4068   -0.1024   24.7396 N   0  0  0  0  0  0  0  0  0  0  0  0
    6.5713   -0.9153   25.4515 N   0  0  0  0  0  0  0  0  0  0  0  0
    6.9325   -2.1208   25.0642 C   0  0  0  0  0  0  0  0  0  0  0  0
    6.2838   -3.3818   25.5398 C   0  0  0  0  0  0  0  0  0  0  0  0
    7.2611   -4.5213   25.9528 C   0  0  0  0  0  0  0  0  0  0  0  0
    6.5968   -5.6484   24.6804 S   0  0  0  0  0  0  0  0  0  0  0  0
    5.5480   -4.1813   24.4219 C   0  0  0  0  0  0  0  0  0  0  0  0
    4.4917   -4.3812   24.6249 H   0  0  0  0  0  0  0  0  0  0  0  0
    5.6551   -3.7617   23.4162 H   0  0  0  0  0  0  0  0  0  0  0  0
    7.1097   -4.9039   26.9675 H   0  0  0  0  0  0  0  0  0  0  0  0
    8.3216   -4.2963   25.8013 H   0  0  0  0  0  0  0  0  0  0  0  0
    5.6130   -3.1038   26.3511 H   0  0  0  0  0  0  0  0  0  0  0  0
    7.9204   -2.1519   24.1326 N   0  0  0  0  0  0  0  0  0  0  0  0
    8.1982   -0.8790   23.9390 C   0  0  0  0  0  0  0  0  0  0  0  0
    9.1012   -0.3328   22.8781 C   0  0  0  0  0  0  0  0  0  0  0  0
    8.3208    0.3232   21.7249 C   0  0  0  0  0  0  0  0  0  0  0  0
    7.4050   -0.6750   21.0001 C   0  0  0  0  0  0  0  0  0  0  0  0
    6.6428   -0.0097   19.8901 C   0  0  0  0  0  0  0  0  0  0  0  0
    5.4330    0.6479   20.1452 C   0  0  0  0  0  0  0  0  0  0  0  0
    4.7993    1.3147   19.0961 C   0  0  0  0  0  0  0  0  0  0  0  0
    5.3959    1.2995   17.8301 C   0  0  0  0  0  0  0  0  0  0  0  0
    6.5595    0.6878   17.5652 N   0  0  0  0  0  0  0  0  0  0  0  0
    7.1596    0.0610   18.5862 C   0  0  0  0  0  0  0  0  0  0  0  0
    8.1107   -0.4190   18.3568 H   0  0  0  0  0  0  0  0  0  0  0  0
    4.9149    1.7900   16.9877 H   0  0  0  0  0  0  0  0  0  0  0  0
    3.8703    1.8476   19.2512 H   0  0  0  0  0  0  0  0  0  0  0  0
    5.0110    0.6371   21.1555 H   0  0  0  0  0  0  0  0  0  0  0  0
    8.0105   -1.5030   20.6051 H   0  0  0  0  0  0  0  0  0  0  0  0
    6.7056   -1.1266   21.7193 H   0  0  0  0  0  0  0  0  0  0  0  0
    9.0237    0.7555   21.0019 H   0  0  0  0  0  0  0  0  0  0  0  0
    7.7241    1.1640   22.1051 H   0  0  0  0  0  0  0  0  0  0  0  0
    9.6993   -1.1648   22.4903 H   0  0  0  0  0  0  0  0  0  0  0  0
    9.8046    0.3875   23.3058 H   0  0  0  0  0  0  0  0  0  0  0  0
    6.1174    1.9883   24.7454 C   0  0  0  0  0  0  0  0  0  0  0  0
    5.9936    3.3182   24.8100 N   0  0  0  0  0  0  0  0  0  0  0  0
    5.1947    1.4385   24.5910 H   0  0  0  0  0  0  0  0  0  0  0  0
    9.4679    1.6121   25.1947 H   0  0  0  0  0  0  0  0  0  0  0  0
    9.2232    4.1177   25.3069 H   0  0  0  0  0  0  0  0  0  0  0  0
  1  2  1  0
  2  3  2  0
  3  4  1  0
  4  5  2  0
  5  6  1  0
  6  7  1  0
  7  8  2  0
  8  9  1  0
  9 10  1  0
 10 11  1  0
 11 12  1  0
 12 13  1  0
 12 14  1  0
 10 15  1  0
 10 16  1  0
  9 17  1  0
  8 18  1  0
 18 19  2  0
 19 20  1  0
 20 21  1  0
 21 22  1  0
 22 23  1  0
 23 24  2  0
 24 25  1  0
 25 26  2  0
 26 27  1  0
 27 28  2  0
 28 29  1  0
 26 30  1  0
 25 31  1  0
 24 32  1  0
 22 33  1  0
 22 34  1  0
 21 35  1  0
 21 36  1  0
 20 37  1  0
 20 38  1  0
  5 39  1  0
 39 40  2  0
 39 41  1  0
  4 42  1  0
  3 43  1  0
 40  2  1  0
 19  6  1  0
 28 23  1  0
 12  9  1  0
M  END
>  <cnnaffinity>  (1) 
-6.07364

>  <filename>  (1) 
Clc1ccc(-n2nc(C3CSC3)nc2CCCc2cccnc2)cn1

$$$$
