
     RDKit          3D

 27 29  0  0  0  0  0  0  0  0999 V2000
    4.9698    1.8266   16.9671 H   0  0  0  0  0  0  0  0  0  0  0  0
    5.4222    1.3024   17.8052 C   0  0  0  0  0  0  0  0  0  0  0  0
    6.5801    0.6673   17.5622 N   0  0  0  0  0  0  0  0  0  0  0  0
    7.1716    0.0469   18.5838 C   0  0  0  0  0  0  0  0  0  0  0  0
    8.1167   -0.4456   18.3611 H   0  0  0  0  0  0  0  0  0  0  0  0
    6.6460    0.0110   19.8769 C   0  0  0  0  0  0  0  0  0  0  0  0
    7.3640   -0.7262   20.9132 C   0  0  0  0  0  0  0  0  0  0  0  0
    6.9068   -0.8414   22.1180 N   0  0  0  0  0  0  0  0  0  0  0  0
    7.7494   -1.5768   22.9031 C   0  0  0  0  0  0  0  0  0  0  0  0
    7.4092   -1.7442   24.3299 C   0  0  0  0  0  0  0  0  0  0  0  0
    6.1514   -2.2556   24.6984 C   0  0  0  0  0  0  0  0  0  0  0  0
    5.4625   -2.5701   23.9187 H   0  0  0  0  0  0  0  0  0  0  0  0
    5.7814   -2.3528   26.0368 C   0  0  0  0  0  0  0  0  0  0  0  0
    4.8103   -2.7635   26.3048 H   0  0  0  0  0  0  0  0  0  0  0  0
    6.6559   -1.9036   27.0307 C   0  0  0  0  0  0  0  0  0  0  0  0
    6.3831   -1.9619   28.0777 H   0  0  0  0  0  0  0  0  0  0  0  0
    7.9038   -1.3777   26.6895 C   0  0  0  0  0  0  0  0  0  0  0  0
    8.9542   -0.8158   27.9546 Cl  0  0  0  0  0  0  0  0  0  0  0  0
    8.3031   -1.3388   25.3444 C   0  0  0  0  0  0  0  0  0  0  0  0
    9.9013   -0.7824   24.9756 Cl  0  0  0  0  0  0  0  0  0  0  0  0
    8.8509   -2.0765   22.2803 C   0  0  0  0  0  0  0  0  0  0  0  0
    9.6392   -2.6541   22.7360 H   0  0  0  0  0  0  0  0  0  0  0  0
    8.8756   -1.5652   20.6479 S   0  0  0  0  0  0  0  0  0  0  0  0
    5.4298    0.6694   20.1266 C   0  0  0  0  0  0  0  0  0  0  0  0
    5.0057    0.6735   21.1313 H   0  0  0  0  0  0  0  0  0  0  0  0
    4.8060    1.3177   19.0631 C   0  0  0  0  0  0  0  0  0  0  0  0
    3.8661    1.8408   19.1987 H   0  0  0  0  0  0  0  0  0  0  0  0
  1  2  1  0
  2  3  2  0
  3  4  1  0
  4  5  1  0
  4  6  2  0
  6  7  1  0
  7  8  2  0
  8  9  1  0
  9 10  1  0
 10 11  2  0
 11 12  1  0
 11 13  1  0
 13 14  1  0
 13 15  2  0
 15 16  1  0
 15 17  1  0
 17 18  1  0
 17 19  2  0
 19 20  1  0
  9 21  2  0
 21 22  1  0
 21 23  1  0
  6 24  1  0
 24 25  1  0
 24 26  2  0
 26 27  1  0
 26  2  1  0
 23  7  1  0
 19 10  1  0
M  END
>  <cnnaffinity>  (1) 
-5.65065

>  <filename>  (1) 
Clc1cccc(-c2csc(-c3cccnc3)n2)c1Cl

$$$$
