
     RDKit          3D

 40 44  0  0  0  0  0  0  0  0999 V2000
    6.7923   -3.9263   26.9727 Cl  0  0  0  0  0  0  0  0  0  0  0  0
    7.2827   -2.6814   25.8624 C   0  0  0  0  0  0  0  0  0  0  0  0
    7.1469   -1.3385   26.2421 C   0  0  0  0  0  0  0  0  0  0  0  0
    7.5488   -0.3575   25.3399 C   0  0  0  0  0  0  0  0  0  0  0  0
    8.0374   -0.7596   24.0880 C   0  0  0  0  0  0  0  0  0  0  0  0
    8.4440    0.2108   23.1416 N   0  0  0  0  0  0  0  0  0  0  0  0
    9.2128    1.2672   23.5300 N   0  0  0  0  0  0  0  0  0  0  0  0
    9.4470    1.8833   22.3942 C   0  0  0  0  0  0  0  0  0  0  0  0
   10.2078    3.1380   22.1654 C   0  0  0  0  0  0  0  0  0  0  0  0
   11.4670    2.9637   21.3672 C   0  0  0  0  0  0  0  0  0  0  0  0
   11.5462    3.6502   22.7601 C   0  0  0  0  0  0  0  0  0  0  0  0
   12.7605    4.4851   23.1588 C   0  0  0  0  0  0  0  0  0  0  0  0
   11.4973    4.5886   23.9490 C   0  0  0  0  0  0  0  0  0  0  0  0
   11.5648    4.1262   24.9225 H   0  0  0  0  0  0  0  0  0  0  0  0
   10.8659    5.4792   23.8824 H   0  0  0  0  0  0  0  0  0  0  0  0
   13.5673    3.9361   23.6396 H   0  0  0  0  0  0  0  0  0  0  0  0
   13.0717    5.2872   22.4911 H   0  0  0  0  0  0  0  0  0  0  0  0
   11.7170    3.5668   20.4905 H   0  0  0  0  0  0  0  0  0  0  0  0
   11.8223    1.9335   21.2753 H   0  0  0  0  0  0  0  0  0  0  0  0
    9.4860    3.9363   21.9691 H   0  0  0  0  0  0  0  0  0  0  0  0
    8.8829    1.3105   21.2953 N   0  0  0  0  0  0  0  0  0  0  0  0
    8.2206    0.2912   21.7905 C   0  0  0  0  0  0  0  0  0  0  0  0
    7.3982   -0.6817   20.9829 C   0  0  0  0  0  0  0  0  0  0  0  0
    6.6301   -0.0372   19.8397 C   0  0  0  0  0  0  0  0  0  0  0  0
    5.4245    0.6281   20.0948 C   0  0  0  0  0  0  0  0  0  0  0  0
    4.7879    1.3079   19.0529 C   0  0  0  0  0  0  0  0  0  0  0  0
    5.3844    1.3033   17.7875 C   0  0  0  0  0  0  0  0  0  0  0  0
    6.5295    0.6618   17.5119 N   0  0  0  0  0  0  0  0  0  0  0  0
    7.1289    0.0206   18.5257 C   0  0  0  0  0  0  0  0  0  0  0  0
    8.0708   -0.4708   18.2805 H   0  0  0  0  0  0  0  0  0  0  0  0
    4.9249    1.8426   16.9609 H   0  0  0  0  0  0  0  0  0  0  0  0
    3.8643    1.8544   19.2104 H   0  0  0  0  0  0  0  0  0  0  0  0
    5.0021    0.6284   21.1020 H   0  0  0  0  0  0  0  0  0  0  0  0
    8.0887   -1.4447   20.6004 H   0  0  0  0  0  0  0  0  0  0  0  0
    6.6914   -1.1889   21.6486 H   0  0  0  0  0  0  0  0  0  0  0  0
    8.1449   -2.1325   23.8290 C   0  0  0  0  0  0  0  0  0  0  0  0
    7.7712   -3.0788   24.6984 N   0  0  0  0  0  0  0  0  0  0  0  0
    8.5507   -2.4787   22.8804 H   0  0  0  0  0  0  0  0  0  0  0  0
    7.5083    0.7038   25.5797 H   0  0  0  0  0  0  0  0  0  0  0  0
    6.7440   -1.0868   27.2149 H   0  0  0  0  0  0  0  0  0  0  0  0
  1  2  1  0
  2  3  2  0
  3  4  1  0
  4  5  2  0
  5  6  1  0
  6  7  1  0
  7  8  2  0
  8  9  1  0
  9 10  1  0
 10 11  1  0
 11 12  1  0
 12 13  1  0
 13 14  1  0
 13 15  1  0
 12 16  1  0
 12 17  1  0
 10 18  1  0
 10 19  1  0
  9 20  1  0
  8 21  1  0
 21 22  2  0
 22 23  1  0
 23 24  1  0
 24 25  2  0
 25 26  1  0
 26 27  2  0
 27 28  1  0
 28 29  2  0
 29 30  1  0
 27 31  1  0
 26 32  1  0
 25 33  1  0
 23 34  1  0
 23 35  1  0
  5 36  1  0
 36 37  2  0
 36 38  1  0
  4 39  1  0
  3 40  1  0
 37  2  1  0
 22  6  1  0
 29 24  1  0
 11  9  1  0
 13 11  1  0
M  END
>  <cnnaffinity>  (1) 
-6.20164

>  <filename>  (1) 
Clc1ccc(-n2nc(C3CC34CC4)nc2Cc2cccnc2)cn1

$$$$
