
     RDKit          3D

 47 50  0  0  0  0  0  0  0  0999 V2000
    6.6234    1.8721   23.3297 Cl  0  0  0  0  0  0  0  0  0  0  0  0
    8.2818    1.7814   23.8748 C   0  0  0  0  0  0  0  0  0  0  0  0
    8.4929    1.4745   25.2261 C   0  0  0  0  0  0  0  0  0  0  0  0
    9.7957    1.3080   25.7027 C   0  0  0  0  0  0  0  0  0  0  0  0
   10.8779    1.5693   24.8605 C   0  0  0  0  0  0  0  0  0  0  0  0
   10.6578    1.8918   23.5213 C   0  0  0  0  0  0  0  0  0  0  0  0
    9.3562    1.9493   22.9805 C   0  0  0  0  0  0  0  0  0  0  0  0
    9.2099    1.9610   21.4699 C   0  0  0  0  0  0  0  0  0  0  0  0
    9.5320    0.5529   20.8913 C   0  0  0  0  0  0  0  0  0  0  0  0
    8.6153   -0.5283   21.3682 C   0  0  0  0  0  0  0  0  0  0  0  0
    8.8475   -1.3765   22.3552 N   0  0  0  0  0  0  0  0  0  0  0  0
    7.6504   -1.9990   22.5317 C   0  0  0  0  0  0  0  0  0  0  0  0
    7.4688   -2.9888   23.6683 C   0  0  0  0  0  0  0  0  0  0  0  0
    7.1522   -2.2903   25.0215 C   0  0  0  0  0  0  0  0  0  0  0  0
    5.7165   -1.7683   25.0558 C   0  0  0  0  0  0  0  0  0  0  0  0
    4.7858   -2.8074   24.7708 O   0  0  0  0  0  0  0  0  0  0  0  0
    4.9736   -3.5241   23.5531 C   0  0  0  0  0  0  0  0  0  0  0  0
    6.3972   -4.0809   23.4275 C   0  0  0  0  0  0  0  0  0  0  0  0
    6.5244   -4.8517   24.2022 H   0  0  0  0  0  0  0  0  0  0  0  0
    6.5312   -4.5606   22.4485 H   0  0  0  0  0  0  0  0  0  0  0  0
    4.7429   -2.9076   22.6723 H   0  0  0  0  0  0  0  0  0  0  0  0
    4.2488   -4.3474   23.5930 H   0  0  0  0  0  0  0  0  0  0  0  0
    5.6088   -0.8952   24.3861 H   0  0  0  0  0  0  0  0  0  0  0  0
    5.4646   -1.4306   26.0696 H   0  0  0  0  0  0  0  0  0  0  0  0
    7.2587   -3.0313   25.8252 H   0  0  0  0  0  0  0  0  0  0  0  0
    7.8593   -1.4716   25.2078 H   0  0  0  0  0  0  0  0  0  0  0  0
    8.4521   -3.4615   23.7533 H   0  0  0  0  0  0  0  0  0  0  0  0
    6.7078   -1.6112   21.6884 N   0  0  0  0  0  0  0  0  0  0  0  0
    7.3405   -0.6916   20.9137 N   0  0  0  0  0  0  0  0  0  0  0  0
    6.6456   -0.0313   19.8642 C   0  0  0  0  0  0  0  0  0  0  0  0
    5.4440    0.6234   20.1384 C   0  0  0  0  0  0  0  0  0  0  0  0
    4.8197    1.3095   19.0942 C   0  0  0  0  0  0  0  0  0  0  0  0
    5.4014    1.3056   17.8226 C   0  0  0  0  0  0  0  0  0  0  0  0
    6.5404    0.6494   17.5461 N   0  0  0  0  0  0  0  0  0  0  0  0
    7.1389   -0.0032   18.5481 C   0  0  0  0  0  0  0  0  0  0  0  0
    8.0591   -0.5288   18.2963 H   0  0  0  0  0  0  0  0  0  0  0  0
    4.9360    1.8346   16.9936 H   0  0  0  0  0  0  0  0  0  0  0  0
    3.8930    1.8470   19.2572 H   0  0  0  0  0  0  0  0  0  0  0  0
    5.0317    0.5907   21.1463 H   0  0  0  0  0  0  0  0  0  0  0  0
   10.5453    0.2594   21.1881 H   0  0  0  0  0  0  0  0  0  0  0  0
    9.5111    0.5770   19.8003 H   0  0  0  0  0  0  0  0  0  0  0  0
    8.2058    2.2767   21.1632 H   0  0  0  0  0  0  0  0  0  0  0  0
    9.9202    2.6716   21.0352 H   0  0  0  0  0  0  0  0  0  0  0  0
   11.5103    2.0572   22.8641 H   0  0  0  0  0  0  0  0  0  0  0  0
   11.8911    1.4977   25.2388 H   0  0  0  0  0  0  0  0  0  0  0  0
    9.9691    0.9322   26.7038 H   0  0  0  0  0  0  0  0  0  0  0  0
    7.6360    1.3452   25.8799 H   0  0  0  0  0  0  0  0  0  0  0  0
  1  2  1  0
  2  3  2  0
  3  4  1  0
  4  5  2  0
  5  6  1  0
  6  7  2  0
  7  8  1  0
  8  9  1  0
  9 10  1  0
 10 11  2  0
 11 12  1  0
 12 13  1  0
 13 14  1  0
 14 15  1  0
 15 16  1  0
 16 17  1  0
 17 18  1  0
 18 19  1  0
 18 20  1  0
 17 21  1  0
 17 22  1  0
 15 23  1  0
 15 24  1  0
 14 25  1  0
 14 26  1  0
 13 27  1  0
 12 28  2  0
 28 29  1  0
 29 30  1  0
 30 31  2  0
 31 32  1  0
 32 33  2  0
 33 34  1  0
 34 35  2  0
 35 36  1  0
 33 37  1  0
 32 38  1  0
 31 39  1  0
  9 40  1  0
  9 41  1  0
  8 42  1  0
  8 43  1  0
  6 44  1  0
  5 45  1  0
  4 46  1  0
  3 47  1  0
  7  2  1  0
 29 10  1  0
 35 30  1  0
 18 13  1  0
M  END
>  <cnnaffinity>  (1) 
-5.95984

>  <filename>  (1) 
Clc1ccccc1CCc1nc(C2CCOCC2)nn1-c1cccnc1

$$$$
