
     RDKit          3D

 40 43  0  0  0  0  0  0  0  0999 V2000
   13.6003    1.4553   24.1044 Cl  0  0  0  0  0  0  0  0  0  0  0  0
   12.3711    1.1426   22.9293 C   0  0  0  0  0  0  0  0  0  0  0  0
   11.2485    1.9735   22.8869 C   0  0  0  0  0  0  0  0  0  0  0  0
   10.2429    1.6374   21.9855 C   0  0  0  0  0  0  0  0  0  0  0  0
   10.3939    0.5066   21.1738 C   0  0  0  0  0  0  0  0  0  0  0  0
    9.2307    0.0409   20.3390 C   0  0  0  0  0  0  0  0  0  0  0  0
    8.2520   -0.7927   21.1101 C   0  0  0  0  0  0  0  0  0  0  0  0
    8.5243   -1.5523   22.1465 N   0  0  0  0  0  0  0  0  0  0  0  0
    7.3259   -2.1038   22.4593 C   0  0  0  0  0  0  0  0  0  0  0  0
    7.2896   -3.1119   23.5939 C   0  0  0  0  0  0  0  0  0  0  0  0
    7.2829   -4.5683   23.0694 C   0  0  0  0  0  0  0  0  0  0  0  0
    5.7759   -4.7699   22.8754 C   0  0  0  0  0  0  0  0  0  0  0  0
    5.2139   -4.0633   24.1116 C   0  0  0  0  0  0  0  0  0  0  0  0
    6.1445   -3.0299   24.4283 O   0  0  0  0  0  0  0  0  0  0  0  0
    5.1423   -4.7402   24.9747 H   0  0  0  0  0  0  0  0  0  0  0  0
    4.2358   -3.5940   23.9587 H   0  0  0  0  0  0  0  0  0  0  0  0
    5.4531   -4.2320   21.9759 H   0  0  0  0  0  0  0  0  0  0  0  0
    5.4703   -5.8167   22.7975 H   0  0  0  0  0  0  0  0  0  0  0  0
    7.8964   -4.6950   22.1718 H   0  0  0  0  0  0  0  0  0  0  0  0
    7.6831   -5.2499   23.8325 H   0  0  0  0  0  0  0  0  0  0  0  0
    8.1647   -2.8745   24.2033 H   0  0  0  0  0  0  0  0  0  0  0  0
    6.3364   -1.7739   21.6376 N   0  0  0  0  0  0  0  0  0  0  0  0
    6.9387   -0.9336   20.7596 N   0  0  0  0  0  0  0  0  0  0  0  0
    6.2304   -0.2567   19.7265 C   0  0  0  0  0  0  0  0  0  0  0  0
    5.0934    0.5089   19.9953 C   0  0  0  0  0  0  0  0  0  0  0  0
    4.6207    1.3504   18.9759 C   0  0  0  0  0  0  0  0  0  0  0  0
    5.2630    1.3602   17.7311 C   0  0  0  0  0  0  0  0  0  0  0  0
    6.2955    0.5570   17.4431 N   0  0  0  0  0  0  0  0  0  0  0  0
    6.7496   -0.2381   18.4177 C   0  0  0  0  0  0  0  0  0  0  0  0
    7.5970   -0.8653   18.1596 H   0  0  0  0  0  0  0  0  0  0  0  0
    4.9411    2.0338   16.9368 H   0  0  0  0  0  0  0  0  0  0  0  0
    3.7899    2.0246   19.1389 H   0  0  0  0  0  0  0  0  0  0  0  0
    4.6158    0.4642   20.9755 H   0  0  0  0  0  0  0  0  0  0  0  0
    8.7019    0.9076   19.9318 H   0  0  0  0  0  0  0  0  0  0  0  0
    9.5733   -0.5560   19.4875 H   0  0  0  0  0  0  0  0  0  0  0  0
   11.5869   -0.2166   21.2877 C   0  0  0  0  0  0  0  0  0  0  0  0
   12.5651    0.0928   22.1507 N   0  0  0  0  0  0  0  0  0  0  0  0
   11.7872   -1.0676   20.6360 H   0  0  0  0  0  0  0  0  0  0  0  0
    9.3275    2.2247   21.9135 H   0  0  0  0  0  0  0  0  0  0  0  0
   11.1833    2.8296   23.5464 H   0  0  0  0  0  0  0  0  0  0  0  0
  1  2  1  0
  2  3  2  0
  3  4  1  0
  4  5  2  0
  5  6  1  0
  6  7  1  0
  7  8  2  0
  8  9  1  0
  9 10  1  0
 10 11  1  0
 11 12  1  0
 12 13  1  0
 13 14  1  0
 13 15  1  0
 13 16  1  0
 12 17  1  0
 12 18  1  0
 11 19  1  0
 11 20  1  0
 10 21  1  0
  9 22  2  0
 22 23  1  0
 23 24  1  0
 24 25  2  0
 25 26  1  0
 26 27  2  0
 27 28  1  0
 28 29  2  0
 29 30  1  0
 27 31  1  0
 26 32  1  0
 25 33  1  0
  6 34  1  0
  6 35  1  0
  5 36  1  0
 36 37  2  0
 36 38  1  0
  4 39  1  0
  3 40  1  0
 37  2  1  0
 23  7  1  0
 29 24  1  0
 14 10  1  0
M  END
>  <cnnaffinity>  (1) 
-6.22652

>  <filename>  (1) 
Clc1ccc(Cc2nc(C3CCCO3)nn2-c2cccnc2)cn1

$$$$
