
     RDKit          3D

 30 32  0  0  0  0  0  0  0  0999 V2000
    4.9206    1.7804   16.9934 H   0  0  0  0  0  0  0  0  0  0  0  0
    5.4053    1.2957   17.8340 C   0  0  0  0  0  0  0  0  0  0  0  0
    6.5659    0.6710   17.5683 N   0  0  0  0  0  0  0  0  0  0  0  0
    7.1679    0.0658   18.5959 C   0  0  0  0  0  0  0  0  0  0  0  0
    8.1126   -0.4335   18.3772 H   0  0  0  0  0  0  0  0  0  0  0  0
    6.6453    0.0297   19.8956 C   0  0  0  0  0  0  0  0  0  0  0  0
    7.3073   -0.7175   20.9616 C   0  0  0  0  0  0  0  0  0  0  0  0
    6.7242   -1.5828   21.7514 N   0  0  0  0  0  0  0  0  0  0  0  0
    7.6749   -2.0856   22.6006 N   0  0  0  0  0  0  0  0  0  0  0  0
    8.7978   -1.4946   22.3119 C   0  0  0  0  0  0  0  0  0  0  0  0
    9.7421   -1.6588   22.8144 H   0  0  0  0  0  0  0  0  0  0  0  0
    8.6349   -0.6210   21.2727 N   0  0  0  0  0  0  0  0  0  0  0  0
    9.6670    0.2619   20.7475 C   0  0  0  0  0  0  0  0  0  0  0  0
    9.2265    0.9444   20.0203 H   0  0  0  0  0  0  0  0  0  0  0  0
   10.3883   -0.3854   20.2473 H   0  0  0  0  0  0  0  0  0  0  0  0
   10.3546    1.0727   21.8256 C   0  0  0  0  0  0  0  0  0  0  0  0
   11.6234    0.6898   22.2803 C   0  0  0  0  0  0  0  0  0  0  0  0
   12.1112   -0.1672   21.8234 H   0  0  0  0  0  0  0  0  0  0  0  0
   12.2553    1.3715   23.3187 C   0  0  0  0  0  0  0  0  0  0  0  0
   13.2377    1.0599   23.6582 H   0  0  0  0  0  0  0  0  0  0  0  0
   11.6193    2.4573   23.9153 C   0  0  0  0  0  0  0  0  0  0  0  0
   12.0810    3.0087   24.7195 H   0  0  0  0  0  0  0  0  0  0  0  0
   10.3543    2.8597   23.4843 C   0  0  0  0  0  0  0  0  0  0  0  0
    9.6192    4.2166   24.2741 Cl  0  0  0  0  0  0  0  0  0  0  0  0
    9.7183    2.1689   22.4395 C   0  0  0  0  0  0  0  0  0  0  0  0
    8.1406    2.6609   21.9186 Cl  0  0  0  0  0  0  0  0  0  0  0  0
    5.4227    0.6643   20.1559 C   0  0  0  0  0  0  0  0  0  0  0  0
    4.9983    0.6219   21.1665 H   0  0  0  0  0  0  0  0  0  0  0  0
    4.8039    1.3217   19.0985 C   0  0  0  0  0  0  0  0  0  0  0  0
    3.8690    1.8486   19.2541 H   0  0  0  0  0  0  0  0  0  0  0  0
  1  2  1  0
  2  3  2  0
  3  4  1  0
  4  5  1  0
  4  6  2  0
  6  7  1  0
  7  8  2  0
  8  9  1  0
  9 10  2  0
 10 11  1  0
 10 12  1  0
 12 13  1  0
 13 14  1  0
 13 15  1  0
 13 16  1  0
 16 17  2  0
 17 18  1  0
 17 19  1  0
 19 20  1  0
 19 21  2  0
 21 22  1  0
 21 23  1  0
 23 24  1  0
 23 25  2  0
 25 26  1  0
  6 27  1  0
 27 28  1  0
 27 29  2  0
 29 30  1  0
 29  2  1  0
 12  7  1  0
 25 16  1  0
M  END
>  <cnnaffinity>  (1) 
-5.6497

>  <filename>  (1) 
Clc1cccc(Cn2cnnc2-c2cccnc2)c1Cl

$$$$
