
     RDKit          3D

 32 34  0  0  0  0  0  0  0  0999 V2000
    4.9127    1.8333   16.9572 H   0  0  0  0  0  0  0  0  0  0  0  0
    5.3785    1.3194   17.7979 C   0  0  0  0  0  0  0  0  0  0  0  0
    6.5359    0.6919   17.5340 N   0  0  0  0  0  0  0  0  0  0  0  0
    7.1489    0.0722   18.5506 C   0  0  0  0  0  0  0  0  0  0  0  0
    8.0896   -0.4175   18.3007 H   0  0  0  0  0  0  0  0  0  0  0  0
    6.6575    0.0148   19.8687 C   0  0  0  0  0  0  0  0  0  0  0  0
    7.3803   -0.7126   20.9584 C   0  0  0  0  0  0  0  0  0  0  0  0
    8.7771   -0.6179   21.1844 C   0  0  0  0  0  0  0  0  0  0  0  0
    9.4247   -0.0006   20.5718 H   0  0  0  0  0  0  0  0  0  0  0  0
    9.3979   -1.2500   22.1824 N   0  0  0  0  0  0  0  0  0  0  0  0
    8.7037   -2.0253   23.0245 N   0  0  0  0  0  0  0  0  0  0  0  0
    7.3806   -2.1715   22.8731 C   0  0  0  0  0  0  0  0  0  0  0  0
    6.6885   -3.0818   23.8526 C   0  0  0  0  0  0  0  0  0  0  0  0
    7.1096   -2.8861   24.8447 H   0  0  0  0  0  0  0  0  0  0  0  0
    5.6212   -2.8415   23.8788 H   0  0  0  0  0  0  0  0  0  0  0  0
    6.9198   -4.5282   23.4664 C   0  0  0  0  0  0  0  0  0  0  0  0
    8.0833   -5.1663   23.9226 C   0  0  0  0  0  0  0  0  0  0  0  0
    8.7111   -4.6235   24.6264 H   0  0  0  0  0  0  0  0  0  0  0  0
    8.4384   -6.4429   23.4877 C   0  0  0  0  0  0  0  0  0  0  0  0
    9.3511   -6.8919   23.8763 H   0  0  0  0  0  0  0  0  0  0  0  0
    7.6009   -7.1226   22.5899 C   0  0  0  0  0  0  0  0  0  0  0  0
    7.8445   -8.1323   22.2629 H   0  0  0  0  0  0  0  0  0  0  0  0
    6.4178   -6.5216   22.1461 C   0  0  0  0  0  0  0  0  0  0  0  0
    5.7250   -7.0470   21.4963 H   0  0  0  0  0  0  0  0  0  0  0  0
    6.1059   -5.2213   22.5595 C   0  0  0  0  0  0  0  0  0  0  0  0
    4.6765   -4.4620   21.9061 Cl  0  0  0  0  0  0  0  0  0  0  0  0
    6.6845   -1.5299   21.8365 C   0  0  0  0  0  0  0  0  0  0  0  0
    5.6176   -1.6786   21.7321 H   0  0  0  0  0  0  0  0  0  0  0  0
    5.4356    0.6673   20.1103 C   0  0  0  0  0  0  0  0  0  0  0  0
    5.0145    0.6640   21.1169 H   0  0  0  0  0  0  0  0  0  0  0  0
    4.7871    1.3327   19.0652 C   0  0  0  0  0  0  0  0  0  0  0  0
    3.8494    1.8656   19.2152 H   0  0  0  0  0  0  0  0  0  0  0  0
  1  2  1  0
  2  3  2  0
  3  4  1  0
  4  5  1  0
  4  6  2  0
  6  7  1  0
  7  8  2  0
  8  9  1  0
  8 10  1  0
 10 11  2  0
 11 12  1  0
 12 13  1  0
 13 14  1  0
 13 15  1  0
 13 16  1  0
 16 17  2  0
 17 18  1  0
 17 19  1  0
 19 20  1  0
 19 21  2  0
 21 22  1  0
 21 23  1  0
 23 24  1  0
 23 25  2  0
 25 26  1  0
 12 27  2  0
 27 28  1  0
  6 29  1  0
 29 30  1  0
 29 31  2  0
 31 32  1  0
 31  2  1  0
 27  7  1  0
 25 16  1  0
M  END
>  <cnnaffinity>  (1) 
-5.5713

>  <filename>  (1) 
Clc1ccccc1Cc1cc(-c2cccnc2)cnn1

$$$$
