
     RDKit          3D

 45 48  0  0  0  0  0  0  0  0999 V2000
    7.2230    6.1721   26.6528 Cl  0  0  0  0  0  0  0  0  0  0  0  0
    7.7501    4.9315   25.5507 C   0  0  0  0  0  0  0  0  0  0  0  0
    7.7662    5.1851   24.1815 C   0  0  0  0  0  0  0  0  0  0  0  0
    8.1881    4.1892   23.2890 C   0  0  0  0  0  0  0  0  0  0  0  0
    8.5930    2.9356   23.7693 C   0  0  0  0  0  0  0  0  0  0  0  0
    9.0246    1.9029   22.9930 O   0  0  0  0  0  0  0  0  0  0  0  0
    9.0454    2.0031   21.5719 C   0  0  0  0  0  0  0  0  0  0  0  0
    9.4974    0.6471   21.0216 C   0  0  0  0  0  0  0  0  0  0  0  0
    8.6078   -0.4636   21.4540 C   0  0  0  0  0  0  0  0  0  0  0  0
    8.8288   -1.2934   22.4482 N   0  0  0  0  0  0  0  0  0  0  0  0
    7.6465   -1.9564   22.5616 C   0  0  0  0  0  0  0  0  0  0  0  0
    7.4236   -2.9362   23.6562 C   0  0  0  0  0  0  0  0  0  0  0  0
    8.5175   -4.0172   23.7980 C   0  0  0  0  0  0  0  0  0  0  0  0
    8.4663   -4.3712   25.2887 C   0  0  0  0  0  0  0  0  0  0  0  0
    7.8463   -3.2766   25.9475 O   0  0  0  0  0  0  0  0  0  0  0  0
    7.4237   -2.2725   25.0473 C   0  0  0  0  0  0  0  0  0  0  0  0
    6.4252   -1.9389   25.3606 H   0  0  0  0  0  0  0  0  0  0  0  0
    8.1001   -1.3986   25.0949 H   0  0  0  0  0  0  0  0  0  0  0  0
    7.8774   -5.2804   25.4843 H   0  0  0  0  0  0  0  0  0  0  0  0
    9.4641   -4.5351   25.7203 H   0  0  0  0  0  0  0  0  0  0  0  0
    8.3389   -4.8881   23.1614 H   0  0  0  0  0  0  0  0  0  0  0  0
    9.4951   -3.5992   23.5310 H   0  0  0  0  0  0  0  0  0  0  0  0
    6.4489   -3.3936   23.4763 H   0  0  0  0  0  0  0  0  0  0  0  0
    6.7250   -1.6114   21.6920 N   0  0  0  0  0  0  0  0  0  0  0  0
    7.3545   -0.6614   20.9451 N   0  0  0  0  0  0  0  0  0  0  0  0
    6.6598    0.0130   19.9018 C   0  0  0  0  0  0  0  0  0  0  0  0
    5.4393    0.6457   20.1650 C   0  0  0  0  0  0  0  0  0  0  0  0
    4.8127    1.3112   19.1081 C   0  0  0  0  0  0  0  0  0  0  0  0
    5.4006    1.2968   17.8366 C   0  0  0  0  0  0  0  0  0  0  0  0
    6.5582    0.6714   17.5749 N   0  0  0  0  0  0  0  0  0  0  0  0
    7.1683    0.0519   18.5912 C   0  0  0  0  0  0  0  0  0  0  0  0
    8.1118   -0.4370   18.3627 H   0  0  0  0  0  0  0  0  0  0  0  0
    4.9226    1.7878   16.9918 H   0  0  0  0  0  0  0  0  0  0  0  0
    3.8802    1.8395   19.2580 H   0  0  0  0  0  0  0  0  0  0  0  0
    5.0156    0.6059   21.1732 H   0  0  0  0  0  0  0  0  0  0  0  0
    9.5251    0.7032   19.9321 H   0  0  0  0  0  0  0  0  0  0  0  0
   10.5119    0.4197   21.3504 H   0  0  0  0  0  0  0  0  0  0  0  0
    8.0472    2.2535   21.1834 H   0  0  0  0  0  0  0  0  0  0  0  0
    9.7433    2.7885   21.2505 H   0  0  0  0  0  0  0  0  0  0  0  0
    8.5719    2.6936   25.1580 C   0  0  0  0  0  0  0  0  0  0  0  0
    8.1533    3.6868   26.0452 C   0  0  0  0  0  0  0  0  0  0  0  0
    8.1294    3.5124   27.1172 H   0  0  0  0  0  0  0  0  0  0  0  0
    8.8830    1.7222   25.5281 H   0  0  0  0  0  0  0  0  0  0  0  0
    8.2035    4.3947   22.2232 H   0  0  0  0  0  0  0  0  0  0  0  0
    7.4476    6.1564   23.8138 H   0  0  0  0  0  0  0  0  0  0  0  0
  1  2  1  0
  2  3  2  0
  3  4  1  0
  4  5  2  0
  5  6  1  0
  6  7  1  0
  7  8  1  0
  8  9  1  0
  9 10  2  0
 10 11  1  0
 11 12  1  0
 12 13  1  0
 13 14  1  0
 14 15  1  0
 15 16  1  0
 16 17  1  0
 16 18  1  0
 14 19  1  0
 14 20  1  0
 13 21  1  0
 13 22  1  0
 12 23  1  0
 11 24  2  0
 24 25  1  0
 25 26  1  0
 26 27  2  0
 27 28  1  0
 28 29  2  0
 29 30  1  0
 30 31  2  0
 31 32  1  0
 29 33  1  0
 28 34  1  0
 27 35  1  0
  8 36  1  0
  8 37  1  0
  7 38  1  0
  7 39  1  0
  5 40  1  0
 40 41  2  0
 41 42  1  0
 40 43  1  0
  4 44  1  0
  3 45  1  0
 41  2  1  0
 25  9  1  0
 31 26  1  0
 16 12  1  0
M  END
>  <cnnaffinity>  (1) 
-5.99797

>  <filename>  (1) 
Clc1ccc(OCCc2nc(C3CCOC3)nn2-c2cccnc2)cc1

$$$$
