
     RDKit          3D

 38 41  0  0  0  0  0  0  0  0999 V2000
   11.8844    3.2516   24.1692 Cl  0  0  0  0  0  0  0  0  0  0  0  0
   11.5672    1.9909   23.0439 C   0  0  0  0  0  0  0  0  0  0  0  0
   12.2932    0.8616   22.8213 C   0  0  0  0  0  0  0  0  0  0  0  0
   11.6816    0.0562   21.8059 C   0  0  0  0  0  0  0  0  0  0  0  0
   10.5152    0.5795   21.3360 C   0  0  0  0  0  0  0  0  0  0  0  0
    9.5407   -0.1081   20.4302 C   0  0  0  0  0  0  0  0  0  0  0  0
    8.4900   -0.8815   21.1538 C   0  0  0  0  0  0  0  0  0  0  0  0
    8.7063   -1.7000   22.1655 N   0  0  0  0  0  0  0  0  0  0  0  0
    7.4614   -2.1220   22.4889 C   0  0  0  0  0  0  0  0  0  0  0  0
    7.2395   -3.0494   23.6328 C   0  0  0  0  0  0  0  0  0  0  0  0
    6.2993   -2.6054   24.7850 C   0  0  0  0  0  0  0  0  0  0  0  0
    5.7694   -3.9481   25.3328 C   0  0  0  0  0  0  0  0  0  0  0  0
    6.1552   -4.9542   24.4078 O   0  0  0  0  0  0  0  0  0  0  0  0
    6.5774   -4.3594   23.2025 C   0  0  0  0  0  0  0  0  0  0  0  0
    5.7292   -4.1524   22.5263 H   0  0  0  0  0  0  0  0  0  0  0  0
    7.2688   -5.0558   22.7177 H   0  0  0  0  0  0  0  0  0  0  0  0
    4.6746   -3.9420   25.4482 H   0  0  0  0  0  0  0  0  0  0  0  0
    6.2047   -4.2114   26.3049 H   0  0  0  0  0  0  0  0  0  0  0  0
    6.8057   -2.0227   25.5598 H   0  0  0  0  0  0  0  0  0  0  0  0
    5.4723   -1.9930   24.4137 H   0  0  0  0  0  0  0  0  0  0  0  0
    8.2299   -3.2682   24.0435 H   0  0  0  0  0  0  0  0  0  0  0  0
    6.4977   -1.6653   21.7071 N   0  0  0  0  0  0  0  0  0  0  0  0
    7.1705   -0.8873   20.8178 N   0  0  0  0  0  0  0  0  0  0  0  0
    6.4967   -0.1873   19.7765 C   0  0  0  0  0  0  0  0  0  0  0  0
    5.3377    0.5322   20.0683 C   0  0  0  0  0  0  0  0  0  0  0  0
    4.7796    1.3122   19.0518 C   0  0  0  0  0  0  0  0  0  0  0  0
    5.3675    1.3123   17.7813 C   0  0  0  0  0  0  0  0  0  0  0  0
    6.4332    0.5617   17.4708 N   0  0  0  0  0  0  0  0  0  0  0  0
    6.9728   -0.1776   18.4474 C   0  0  0  0  0  0  0  0  0  0  0  0
    7.8361   -0.7742   18.1608 H   0  0  0  0  0  0  0  0  0  0  0  0
    4.9663    1.9332   16.9837 H   0  0  0  0  0  0  0  0  0  0  0  0
    3.9091    1.9271   19.2364 H   0  0  0  0  0  0  0  0  0  0  0  0
    4.9060    0.4758   21.0696 H   0  0  0  0  0  0  0  0  0  0  0  0
    9.1078    0.5901   19.7113 H   0  0  0  0  0  0  0  0  0  0  0  0
   10.0892   -0.8462   19.8603 H   0  0  0  0  0  0  0  0  0  0  0  0
   10.1539    2.1066   22.0506 S   0  0  0  0  0  0  0  0  0  0  0  0
   12.0831   -0.8845   21.4307 H   0  0  0  0  0  0  0  0  0  0  0  0
   13.2054    0.6079   23.3607 H   0  0  0  0  0  0  0  0  0  0  0  0
  1  2  1  0
  2  3  2  0
  3  4  1  0
  4  5  2  0
  5  6  1  0
  6  7  1  0
  7  8  2  0
  8  9  1  0
  9 10  1  0
 10 11  1  0
 11 12  1  0
 12 13  1  0
 13 14  1  0
 14 15  1  0
 14 16  1  0
 12 17  1  0
 12 18  1  0
 11 19  1  0
 11 20  1  0
 10 21  1  0
  9 22  2  0
 22 23  1  0
 23 24  1  0
 24 25  2  0
 25 26  1  0
 26 27  2  0
 27 28  1  0
 28 29  2  0
 29 30  1  0
 27 31  1  0
 26 32  1  0
 25 33  1  0
  6 34  1  0
  6 35  1  0
  5 36  1  0
  4 37  1  0
  3 38  1  0
 36  2  1  0
 23  7  1  0
 29 24  1  0
 14 10  1  0
M  END
>  <cnnaffinity>  (1) 
-6.34174

>  <filename>  (1) 
Clc1ccc(Cc2nc(C3CCOC3)nn2-c2cccnc2)s1

$$$$
