
     RDKit          3D

 43 46  0  0  0  0  0  0  0  0999 V2000
   11.6036    2.4581   23.2215 Cl  0  0  0  0  0  0  0  0  0  0  0  0
   10.0152    2.1736   23.8649 C   0  0  0  0  0  0  0  0  0  0  0  0
    9.9529    2.1284   25.1875 N   0  0  0  0  0  0  0  0  0  0  0  0
    8.7499    1.9045   25.7298 C   0  0  0  0  0  0  0  0  0  0  0  0
    7.5883    1.7240   24.9773 C   0  0  0  0  0  0  0  0  0  0  0  0
    7.6869    1.7816   23.5898 C   0  0  0  0  0  0  0  0  0  0  0  0
    8.9242    2.0330   22.9813 C   0  0  0  0  0  0  0  0  0  0  0  0
    9.0514    2.0084   21.4752 C   0  0  0  0  0  0  0  0  0  0  0  0
    9.5183    0.6234   20.9551 C   0  0  0  0  0  0  0  0  0  0  0  0
    8.6265   -0.4910   21.4103 C   0  0  0  0  0  0  0  0  0  0  0  0
    8.8371   -1.2882   22.4405 N   0  0  0  0  0  0  0  0  0  0  0  0
    7.6383   -1.9155   22.5933 C   0  0  0  0  0  0  0  0  0  0  0  0
    7.4015   -2.8522   23.7275 C   0  0  0  0  0  0  0  0  0  0  0  0
    8.4722   -3.9408   23.9144 C   0  0  0  0  0  0  0  0  0  0  0  0
    8.4237   -4.2259   25.4169 C   0  0  0  0  0  0  0  0  0  0  0  0
    7.8029   -3.1081   26.0327 O   0  0  0  0  0  0  0  0  0  0  0  0
    7.4127   -2.1357   25.0865 C   0  0  0  0  0  0  0  0  0  0  0  0
    8.1232   -1.2900   25.0988 H   0  0  0  0  0  0  0  0  0  0  0  0
    6.4192   -1.7568   25.3722 H   0  0  0  0  0  0  0  0  0  0  0  0
    7.8281   -5.1224   25.6451 H   0  0  0  0  0  0  0  0  0  0  0  0
    9.4288   -4.3694   25.8419 H   0  0  0  0  0  0  0  0  0  0  0  0
    9.4574   -3.5553   23.6264 H   0  0  0  0  0  0  0  0  0  0  0  0
    8.2645   -4.8360   23.3220 H   0  0  0  0  0  0  0  0  0  0  0  0
    6.4217   -3.3105   23.5729 H   0  0  0  0  0  0  0  0  0  0  0  0
    6.7177   -1.5796   21.7229 N   0  0  0  0  0  0  0  0  0  0  0  0
    7.3580   -0.6723   20.9369 N   0  0  0  0  0  0  0  0  0  0  0  0
    6.6594    0.0056   19.8997 C   0  0  0  0  0  0  0  0  0  0  0  0
    5.4429    0.6467   20.1650 C   0  0  0  0  0  0  0  0  0  0  0  0
    4.8119    1.3119   19.1095 C   0  0  0  0  0  0  0  0  0  0  0  0
    5.4020    1.2950   17.8391 C   0  0  0  0  0  0  0  0  0  0  0  0
    6.5624    0.6751   17.5782 N   0  0  0  0  0  0  0  0  0  0  0  0
    7.1711    0.0544   18.5930 C   0  0  0  0  0  0  0  0  0  0  0  0
    8.1173   -0.4350   18.3729 H   0  0  0  0  0  0  0  0  0  0  0  0
    4.9141    1.7817   16.9957 H   0  0  0  0  0  0  0  0  0  0  0  0
    3.8771    1.8413   19.2644 H   0  0  0  0  0  0  0  0  0  0  0  0
    5.0127    0.6124   21.1687 H   0  0  0  0  0  0  0  0  0  0  0  0
   10.5246    0.4077   21.3188 H   0  0  0  0  0  0  0  0  0  0  0  0
    9.5694    0.6461   19.8628 H   0  0  0  0  0  0  0  0  0  0  0  0
    8.0792    2.2515   21.0256 H   0  0  0  0  0  0  0  0  0  0  0  0
    9.7556    2.7747   21.1358 H   0  0  0  0  0  0  0  0  0  0  0  0
    6.8107    1.6097   22.9659 H   0  0  0  0  0  0  0  0  0  0  0  0
    6.6411    1.5241   25.4655 H   0  0  0  0  0  0  0  0  0  0  0  0
    8.7131    1.8732   26.8109 H   0  0  0  0  0  0  0  0  0  0  0  0
  1  2  1  0
  2  3  2  0
  3  4  1  0
  4  5  2  0
  5  6  1  0
  6  7  2  0
  7  8  1  0
  8  9  1  0
  9 10  1  0
 10 11  2  0
 11 12  1  0
 12 13  1  0
 13 14  1  0
 14 15  1  0
 15 16  1  0
 16 17  1  0
 17 18  1  0
 17 19  1  0
 15 20  1  0
 15 21  1  0
 14 22  1  0
 14 23  1  0
 13 24  1  0
 12 25  2  0
 25 26  1  0
 26 27  1  0
 27 28  2  0
 28 29  1  0
 29 30  2  0
 30 31  1  0
 31 32  2  0
 32 33  1  0
 30 34  1  0
 29 35  1  0
 28 36  1  0
  9 37  1  0
  9 38  1  0
  8 39  1  0
  8 40  1  0
  6 41  1  0
  5 42  1  0
  4 43  1  0
  7  2  1  0
 26 10  1  0
 32 27  1  0
 17 13  1  0
M  END
>  <cnnaffinity>  (1) 
-6.02763

>  <filename>  (1) 
Clc1ncccc1CCc1nc(C2CCOC2)nn1-c1cccnc1

$$$$
