
     RDKit          3D

 44 47  0  0  0  0  0  0  0  0999 V2000
   16.0232   -0.3678   19.6421 Cl  0  0  0  0  0  0  0  0  0  0  0  0
   14.6225   -0.8186   20.7203 C   0  0  0  0  0  0  0  0  0  0  0  0
   13.7322   -1.8461   20.4550 C   0  0  0  0  0  0  0  0  0  0  0  0
   12.4564   -1.7139   21.0175 C   0  0  0  0  0  0  0  0  0  0  0  0
   12.0938   -0.6339   21.8409 C   0  0  0  0  0  0  0  0  0  0  0  0
   10.6489   -0.2794   21.9429 C   0  0  0  0  0  0  0  0  0  0  0  0
    9.7085   -0.9625   21.2988 N   0  0  0  0  0  0  0  0  0  0  0  0
    8.5862   -0.2411   21.5019 N   0  0  0  0  0  0  0  0  0  0  0  0
    7.3049   -0.7646   21.0231 C   0  0  0  0  0  0  0  0  0  0  0  0
    6.6211    0.0182   19.9191 C   0  0  0  0  0  0  0  0  0  0  0  0
    5.4249    0.7064   20.1398 C   0  0  0  0  0  0  0  0  0  0  0  0
    4.8321    1.3963   19.0789 C   0  0  0  0  0  0  0  0  0  0  0  0
    5.4404    1.3398   17.8201 C   0  0  0  0  0  0  0  0  0  0  0  0
    6.5854    0.6786   17.5857 N   0  0  0  0  0  0  0  0  0  0  0  0
    7.1573    0.0503   18.6213 C   0  0  0  0  0  0  0  0  0  0  0  0
    8.0911   -0.4699   18.4093 H   0  0  0  0  0  0  0  0  0  0  0  0
    4.9867    1.8352   16.9628 H   0  0  0  0  0  0  0  0  0  0  0  0
    3.9405    1.9971   19.2311 H   0  0  0  0  0  0  0  0  0  0  0  0
    4.9936    0.7640   21.1425 H   0  0  0  0  0  0  0  0  0  0  0  0
    7.5276   -1.7761   20.6753 H   0  0  0  0  0  0  0  0  0  0  0  0
    6.6230   -0.8574   21.8758 H   0  0  0  0  0  0  0  0  0  0  0  0
    8.8907    0.8402   22.2627 C   0  0  0  0  0  0  0  0  0  0  0  0
    7.9230    1.9034   22.6845 C   0  0  0  0  0  0  0  0  0  0  0  0
    7.6229    2.9555   21.5780 C   0  0  0  0  0  0  0  0  0  0  0  0
    6.5590    3.9581   21.9246 C   0  0  0  0  0  0  0  0  0  0  0  0
    5.3000    3.6798   21.5661 N   0  0  0  0  0  0  0  0  0  0  0  0
    4.3961    4.6334   21.8011 C   0  0  0  0  0  0  0  0  0  0  0  0
    4.6996    5.8203   22.4483 C   0  0  0  0  0  0  0  0  0  0  0  0
    6.0252    5.9705   22.8301 C   0  0  0  0  0  0  0  0  0  0  0  0
    6.9535    5.0526   22.5844 N   0  0  0  0  0  0  0  0  0  0  0  0
    6.3681    6.8647   23.3503 H   0  0  0  0  0  0  0  0  0  0  0  0
    3.9578    6.5856   22.6287 H   0  0  0  0  0  0  0  0  0  0  0  0
    3.3834    4.4267   21.4556 H   0  0  0  0  0  0  0  0  0  0  0  0
    8.5397    3.5140   21.3545 H   0  0  0  0  0  0  0  0  0  0  0  0
    7.3000    2.4559   20.6612 H   0  0  0  0  0  0  0  0  0  0  0  0
    6.9963    1.4188   23.0214 H   0  0  0  0  0  0  0  0  0  0  0  0
    8.3563    2.4059   23.5571 H   0  0  0  0  0  0  0  0  0  0  0  0
   10.1773    0.8370   22.5534 N   0  0  0  0  0  0  0  0  0  0  0  0
   13.1236    0.1887   22.3459 C   0  0  0  0  0  0  0  0  0  0  0  0
   14.3898    0.0884   21.7814 C   0  0  0  0  0  0  0  0  0  0  0  0
   15.1630    0.8066   22.0395 H   0  0  0  0  0  0  0  0  0  0  0  0
   12.9350    0.9223   23.1332 H   0  0  0  0  0  0  0  0  0  0  0  0
   11.6470   -2.3654   20.7470 H   0  0  0  0  0  0  0  0  0  0  0  0
   13.9923   -2.6766   19.8087 H   0  0  0  0  0  0  0  0  0  0  0  0
  1  2  1  0
  2  3  2  0
  3  4  1  0
  4  5  2  0
  5  6  1  0
  6  7  2  0
  7  8  1  0
  8  9  1  0
  9 10  1  0
 10 11  2  0
 11 12  1  0
 12 13  2  0
 13 14  1  0
 14 15  2  0
 15 16  1  0
 13 17  1  0
 12 18  1  0
 11 19  1  0
  9 20  1  0
  9 21  1  0
  8 22  1  0
 22 23  1  0
 23 24  1  0
 24 25  1  0
 25 26  2  0
 26 27  1  0
 27 28  2  0
 28 29  1  0
 29 30  2  0
 29 31  1  0
 28 32  1  0
 27 33  1  0
 24 34  1  0
 24 35  1  0
 23 36  1  0
 23 37  1  0
 22 38  2  0
  5 39  1  0
 39 40  2  0
 40 41  1  0
 39 42  1  0
  4 43  1  0
  3 44  1  0
 40  2  1  0
 38  6  1  0
 15 10  1  0
 30 25  1  0
M  END
>  <cnnaffinity>  (1) 
-6.46196

>  <filename>  (1) 
Clc1ccc(-c2nc(CCc3ncccn3)n(Cc3cccnc3)n2)cc1

$$$$
