
     RDKit          3D

 39 42  0  0  0  0  0  0  0  0999 V2000
    5.8524    3.5350   29.2259 Cl  0  0  0  0  0  0  0  0  0  0  0  0
    6.3900    2.9666   27.6791 C   0  0  0  0  0  0  0  0  0  0  0  0
    7.5526    3.5312   27.1399 C   0  0  0  0  0  0  0  0  0  0  0  0
    7.9662    3.0785   25.8984 C   0  0  0  0  0  0  0  0  0  0  0  0
    7.2114    2.0821   25.2541 C   0  0  0  0  0  0  0  0  0  0  0  0
    7.6114    1.5437   23.9579 C   0  0  0  0  0  0  0  0  0  0  0  0
    6.9423    0.6043   23.3116 N   0  0  0  0  0  0  0  0  0  0  0  0
    7.7049    0.3869   22.2137 N   0  0  0  0  0  0  0  0  0  0  0  0
    7.3082   -0.5739   21.1863 C   0  0  0  0  0  0  0  0  0  0  0  0
    6.6544    0.0708   19.9768 C   0  0  0  0  0  0  0  0  0  0  0  0
    5.4545    0.7761   20.1353 C   0  0  0  0  0  0  0  0  0  0  0  0
    4.8796    1.3756   19.0143 C   0  0  0  0  0  0  0  0  0  0  0  0
    5.5254    1.2511   17.7814 C   0  0  0  0  0  0  0  0  0  0  0  0
    6.6728    0.5803   17.6059 N   0  0  0  0  0  0  0  0  0  0  0  0
    7.2137    0.0089   18.6901 C   0  0  0  0  0  0  0  0  0  0  0  0
    8.1482   -0.5314   18.5229 H   0  0  0  0  0  0  0  0  0  0  0  0
    5.1096    1.7196   16.8940 H   0  0  0  0  0  0  0  0  0  0  0  0
    3.9613    1.9482   19.0833 H   0  0  0  0  0  0  0  0  0  0  0  0
    4.9972    0.8598   21.1242 H   0  0  0  0  0  0  0  0  0  0  0  0
    8.2046   -1.1370   20.8965 H   0  0  0  0  0  0  0  0  0  0  0  0
    6.6263   -1.2636   21.6960 H   0  0  0  0  0  0  0  0  0  0  0  0
    8.7752    1.2056   22.2479 C   0  0  0  0  0  0  0  0  0  0  0  0
    9.8791    1.2043   21.2401 C   0  0  0  0  0  0  0  0  0  0  0  0
   10.9778    0.2227   21.5535 C   0  0  0  0  0  0  0  0  0  0  0  0
   12.0614    0.4000   22.3828 C   0  0  0  0  0  0  0  0  0  0  0  0
   12.7523   -0.8279   22.3528 C   0  0  0  0  0  0  0  0  0  0  0  0
   12.1506   -1.7104   21.5751 N   0  0  0  0  0  0  0  0  0  0  0  0
   11.0590   -1.0651   21.1198 N   0  0  0  0  0  0  0  0  0  0  0  0
   10.5609   -1.5029   20.3531 H   0  0  0  0  0  0  0  0  0  0  0  0
   13.6842   -1.0756   22.8477 H   0  0  0  0  0  0  0  0  0  0  0  0
   12.3184    1.2831   22.9535 H   0  0  0  0  0  0  0  0  0  0  0  0
   10.3001    2.2117   21.2558 H   0  0  0  0  0  0  0  0  0  0  0  0
    9.4650    1.0504   20.2424 H   0  0  0  0  0  0  0  0  0  0  0  0
    8.7399    1.9578   23.3266 N   0  0  0  0  0  0  0  0  0  0  0  0
    6.0758    1.5856   25.9000 C   0  0  0  0  0  0  0  0  0  0  0  0
    5.6640    2.0275   27.0943 N   0  0  0  0  0  0  0  0  0  0  0  0
    5.4702    0.7991   25.4546 H   0  0  0  0  0  0  0  0  0  0  0  0
    8.8599    3.4679   25.4129 H   0  0  0  0  0  0  0  0  0  0  0  0
    8.0972    4.2909   27.6850 H   0  0  0  0  0  0  0  0  0  0  0  0
  1  2  1  0
  2  3  2  0
  3  4  1  0
  4  5  2  0
  5  6  1  0
  6  7  2  0
  7  8  1  0
  8  9  1  0
  9 10  1  0
 10 11  2  0
 11 12  1  0
 12 13  2  0
 13 14  1  0
 14 15  2  0
 15 16  1  0
 13 17  1  0
 12 18  1  0
 11 19  1  0
  9 20  1  0
  9 21  1  0
  8 22  1  0
 22 23  1  0
 23 24  1  0
 24 25  2  0
 25 26  1  0
 26 27  2  0
 27 28  1  0
 28 29  1  0
 26 30  1  0
 25 31  1  0
 23 32  1  0
 23 33  1  0
 22 34  2  0
  5 35  1  0
 35 36  2  0
 35 37  1  0
  4 38  1  0
  3 39  1  0
 36  2  1  0
 34  6  1  0
 15 10  1  0
 28 24  1  0
M  END
>  <cnnaffinity>  (1) 
-6.15166

>  <filename>  (1) 
Clc1ccc(-c2nc(Cc3ccn[nH]3)n(Cc3cccnc3)n2)cn1

$$$$
