
     RDKit          3D

 35 38  0  0  0  0  0  0  0  0999 V2000
    5.0299    1.8651   17.0143 H   0  0  0  0  0  0  0  0  0  0  0  0
    5.5372    1.3214   17.8104 C   0  0  0  0  0  0  0  0  0  0  0  0
    6.6831    0.7095   17.4735 N   0  0  0  0  0  0  0  0  0  0  0  0
    7.3452    0.0404   18.4275 C   0  0  0  0  0  0  0  0  0  0  0  0
    8.2880   -0.4136   18.1222 H   0  0  0  0  0  0  0  0  0  0  0  0
    6.8660   -0.0961   19.7463 C   0  0  0  0  0  0  0  0  0  0  0  0
    7.5245   -0.9112   20.6967 N   0  0  0  0  0  0  0  0  0  0  0  0
    8.8664   -0.8554   21.0725 C   0  0  0  0  0  0  0  0  0  0  0  0
    9.5126   -0.1308   20.5980 H   0  0  0  0  0  0  0  0  0  0  0  0
    9.0803   -1.7355   22.0908 C   0  0  0  0  0  0  0  0  0  0  0  0
    9.9329   -2.0227   22.6778 H   0  0  0  0  0  0  0  0  0  0  0  0
    7.8538   -2.3243   22.3558 N   0  0  0  0  0  0  0  0  0  0  0  0
    7.3797   -3.2143   23.2698 N   0  0  0  0  0  0  0  0  0  0  0  0
    6.0677   -3.2360   23.0034 C   0  0  0  0  0  0  0  0  0  0  0  0
    5.0613   -4.1163   23.7210 C   0  0  0  0  0  0  0  0  0  0  0  0
    5.3689   -5.1623   23.5918 H   0  0  0  0  0  0  0  0  0  0  0  0
    4.1155   -4.0216   23.1758 H   0  0  0  0  0  0  0  0  0  0  0  0
    4.8080   -3.8486   25.2012 C   0  0  0  0  0  0  0  0  0  0  0  0
    5.6474   -4.4486   26.1556 C   0  0  0  0  0  0  0  0  0  0  0  0
    6.4066   -5.1485   25.8069 H   0  0  0  0  0  0  0  0  0  0  0  0
    5.5052   -4.2046   27.5253 C   0  0  0  0  0  0  0  0  0  0  0  0
    6.1542   -4.7074   28.2356 H   0  0  0  0  0  0  0  0  0  0  0  0
    4.4943   -3.3507   27.9804 C   0  0  0  0  0  0  0  0  0  0  0  0
    4.3811   -3.1326   29.0411 H   0  0  0  0  0  0  0  0  0  0  0  0
    3.6060   -2.7857   27.0664 C   0  0  0  0  0  0  0  0  0  0  0  0
    2.7774   -2.1607   27.3940 H   0  0  0  0  0  0  0  0  0  0  0  0
    3.7551   -3.0505   25.7005 C   0  0  0  0  0  0  0  0  0  0  0  0
    2.5200   -2.3764   24.6691 Cl  0  0  0  0  0  0  0  0  0  0  0  0
    5.7200   -2.4168   21.9108 C   0  0  0  0  0  0  0  0  0  0  0  0
    4.7288   -2.2226   21.5852 H   0  0  0  0  0  0  0  0  0  0  0  0
    6.9145   -1.8367   21.5253 C   0  0  0  0  0  0  0  0  0  0  0  0
    5.6802    0.5667   20.0962 C   0  0  0  0  0  0  0  0  0  0  0  0
    5.3193    0.5116   21.1262 H   0  0  0  0  0  0  0  0  0  0  0  0
    5.0090    1.2892   19.1071 C   0  0  0  0  0  0  0  0  0  0  0  0
    4.0929    1.8226   19.3299 H   0  0  0  0  0  0  0  0  0  0  0  0
  1  2  1  0
  2  3  2  0
  3  4  1  0
  4  5  1  0
  4  6  2  0
  6  7  1  0
  7  8  1  0
  8  9  1  0
  8 10  2  0
 10 11  1  0
 10 12  1  0
 12 13  1  0
 13 14  2  0
 14 15  1  0
 15 16  1  0
 15 17  1  0
 15 18  1  0
 18 19  2  0
 19 20  1  0
 19 21  1  0
 21 22  1  0
 21 23  2  0
 23 24  1  0
 23 25  1  0
 25 26  1  0
 25 27  2  0
 27 28  1  0
 14 29  1  0
 29 30  1  0
 29 31  2  0
  6 32  1  0
 32 33  1  0
 32 34  2  0
 34 35  1  0
 34  2  1  0
 31  7  1  0
 31 12  1  0
 27 18  1  0
M  END
>  <cnnaffinity>  (1) 
-5.77416

>  <filename>  (1) 
Clc1ccccc1Cc1cc2n(-c3cccnc3)ccn2n1

$$$$
