
     RDKit          3D

 37 41  0  0  0  0  0  0  0  0999 V2000
    8.2856    2.1983   21.2661 Cl  0  0  0  0  0  0  0  0  0  0  0  0
    7.1229    2.3049   22.5476 C   0  0  0  0  0  0  0  0  0  0  0  0
    6.9539    3.5200   23.0345 N   0  0  0  0  0  0  0  0  0  0  0  0
    6.1268    3.6666   24.0750 C   0  0  0  0  0  0  0  0  0  0  0  0
    5.4721    2.5994   24.6954 C   0  0  0  0  0  0  0  0  0  0  0  0
    5.6508    1.3231   24.1632 C   0  0  0  0  0  0  0  0  0  0  0  0
    6.4468    1.1599   23.0235 C   0  0  0  0  0  0  0  0  0  0  0  0
    6.6763   -0.1946   22.5072 C   0  0  0  0  0  0  0  0  0  0  0  0
    7.1796   -1.1467   23.2715 N   0  0  0  0  0  0  0  0  0  0  0  0
    7.4263   -2.1557   22.3974 C   0  0  0  0  0  0  0  0  0  0  0  0
    8.3074   -3.3212   22.6808 C   0  0  0  0  0  0  0  0  0  0  0  0
    7.9021   -4.7942   22.5072 C   0  0  0  0  0  0  0  0  0  0  0  0
    8.2547   -4.2349   23.8573 C   0  0  0  0  0  0  0  0  0  0  0  0
    7.6817   -4.2636   25.2319 C   0  0  0  0  0  0  0  0  0  0  0  0
    9.1715   -4.5124   25.0009 C   0  0  0  0  0  0  0  0  0  0  0  0
    9.5584   -5.5266   25.0940 H   0  0  0  0  0  0  0  0  0  0  0  0
    9.8426   -3.7053   25.3072 H   0  0  0  0  0  0  0  0  0  0  0  0
    7.3947   -3.2988   25.6382 H   0  0  0  0  0  0  0  0  0  0  0  0
    7.0515   -5.1013   25.5233 H   0  0  0  0  0  0  0  0  0  0  0  0
    8.6126   -5.4538   22.0062 H   0  0  0  0  0  0  0  0  0  0  0  0
    6.8576   -5.0627   22.3409 H   0  0  0  0  0  0  0  0  0  0  0  0
    9.3262   -3.0686   22.3729 H   0  0  0  0  0  0  0  0  0  0  0  0
    7.0743   -1.8989   21.1489 N   0  0  0  0  0  0  0  0  0  0  0  0
    6.5471   -0.6451   21.2195 N   0  0  0  0  0  0  0  0  0  0  0  0
    6.1996    0.0440   20.0274 C   0  0  0  0  0  0  0  0  0  0  0  0
    5.2651    1.0881   20.0128 C   0  0  0  0  0  0  0  0  0  0  0  0
    5.0581    1.7551   18.8017 C   0  0  0  0  0  0  0  0  0  0  0  0
    5.7751    1.3562   17.6701 C   0  0  0  0  0  0  0  0  0  0  0  0
    6.6675    0.3514   17.6798 N   0  0  0  0  0  0  0  0  0  0  0  0
    6.8632   -0.2917   18.8318 C   0  0  0  0  0  0  0  0  0  0  0  0
    7.5961   -1.1001   18.8437 H   0  0  0  0  0  0  0  0  0  0  0  0
    5.6295    1.8534   16.7151 H   0  0  0  0  0  0  0  0  0  0  0  0
    4.3730    2.5962   18.7330 H   0  0  0  0  0  0  0  0  0  0  0  0
    4.7332    1.3928   20.9145 H   0  0  0  0  0  0  0  0  0  0  0  0
    5.2124    0.4283   24.6074 H   0  0  0  0  0  0  0  0  0  0  0  0
    4.8550    2.7621   25.5727 H   0  0  0  0  0  0  0  0  0  0  0  0
    5.9944    4.6873   24.4243 H   0  0  0  0  0  0  0  0  0  0  0  0
  1  2  1  0
  2  3  2  0
  3  4  1  0
  4  5  2  0
  5  6  1  0
  6  7  2  0
  7  8  1  0
  8  9  2  0
  9 10  1  0
 10 11  1  0
 11 12  1  0
 12 13  1  0
 13 14  1  0
 14 15  1  0
 15 16  1  0
 15 17  1  0
 14 18  1  0
 14 19  1  0
 12 20  1  0
 12 21  1  0
 11 22  1  0
 10 23  2  0
 23 24  1  0
 24 25  1  0
 25 26  2  0
 26 27  1  0
 27 28  2  0
 28 29  1  0
 29 30  2  0
 30 31  1  0
 28 32  1  0
 27 33  1  0
 26 34  1  0
  6 35  1  0
  5 36  1  0
  4 37  1  0
  7  2  1  0
 24  8  1  0
 30 25  1  0
 13 11  1  0
 15 13  1  0
M  END
>  <cnnaffinity>  (1) 
-5.43117

>  <filename>  (1) 
Clc1ncccc1-c1nc(C2CC23CC3)nn1-c1cccnc1

$$$$
