
     RDKit          3D

 29 31  0  0  0  0  0  0  0  0999 V2000
    4.9190    1.7822   16.9963 H   0  0  0  0  0  0  0  0  0  0  0  0
    5.4033    1.2932   17.8406 C   0  0  0  0  0  0  0  0  0  0  0  0
    6.5705    0.6780   17.5828 N   0  0  0  0  0  0  0  0  0  0  0  0
    7.1779    0.0499   18.5913 C   0  0  0  0  0  0  0  0  0  0  0  0
    8.1270   -0.4414   18.3854 H   0  0  0  0  0  0  0  0  0  0  0  0
    6.6540    0.0031   19.8940 C   0  0  0  0  0  0  0  0  0  0  0  0
    7.3565   -0.6904   20.9207 N   0  0  0  0  0  0  0  0  0  0  0  0
    7.8293   -1.9460   20.7573 N   0  0  0  0  0  0  0  0  0  0  0  0
    8.3623   -2.2854   21.8732 N   0  0  0  0  0  0  0  0  0  0  0  0
    8.2735   -1.2887   22.7811 N   0  0  0  0  0  0  0  0  0  0  0  0
    7.6602   -0.2966   22.1827 C   0  0  0  0  0  0  0  0  0  0  0  0
    7.3851    1.0479   22.7886 C   0  0  0  0  0  0  0  0  0  0  0  0
    6.6069    0.9285   23.5469 H   0  0  0  0  0  0  0  0  0  0  0  0
    7.0049    1.7379   22.0299 H   0  0  0  0  0  0  0  0  0  0  0  0
    8.6364    1.6247   23.4175 C   0  0  0  0  0  0  0  0  0  0  0  0
    8.8558    1.4991   24.7841 C   0  0  0  0  0  0  0  0  0  0  0  0
    8.0903    1.0207   25.3852 H   0  0  0  0  0  0  0  0  0  0  0  0
   10.0329    1.9683   25.3588 C   0  0  0  0  0  0  0  0  0  0  0  0
   10.1681    1.8718   26.4210 H   0  0  0  0  0  0  0  0  0  0  0  0
   11.0205    2.5536   24.5701 C   0  0  0  0  0  0  0  0  0  0  0  0
   11.9423    2.9293   24.9863 H   0  0  0  0  0  0  0  0  0  0  0  0
   10.8401    2.6716   23.1975 C   0  0  0  0  0  0  0  0  0  0  0  0
   12.0940    3.4064   22.2523 Cl  0  0  0  0  0  0  0  0  0  0  0  0
    9.6491    2.1953   22.6338 C   0  0  0  0  0  0  0  0  0  0  0  0
    9.3910    2.3008   20.9496 Cl  0  0  0  0  0  0  0  0  0  0  0  0
    5.4409    0.6461   20.1648 C   0  0  0  0  0  0  0  0  0  0  0  0
    5.0045    0.6245   21.1668 H   0  0  0  0  0  0  0  0  0  0  0  0
    4.8071    1.3049   19.1055 C   0  0  0  0  0  0  0  0  0  0  0  0
    3.8782    1.8396   19.2626 H   0  0  0  0  0  0  0  0  0  0  0  0
  1  2  1  0
  2  3  2  0
  3  4  1  0
  4  5  1  0
  4  6  2  0
  6  7  1  0
  7  8  1  0
  8  9  2  0
  9 10  1  0
 10 11  2  0
 11 12  1  0
 12 13  1  0
 12 14  1  0
 12 15  1  0
 15 16  2  0
 16 17  1  0
 16 18  1  0
 18 19  1  0
 18 20  2  0
 20 21  1  0
 20 22  1  0
 22 23  1  0
 22 24  2  0
 24 25  1  0
  6 26  1  0
 26 27  1  0
 26 28  2  0
 28 29  1  0
 28  2  1  0
 11  7  1  0
 24 15  1  0
M  END
>  <cnnaffinity>  (1) 
-5.62293

>  <filename>  (1) 
Clc1cccc(Cc2nnnn2-c2cccnc2)c1Cl

$$$$
