
     RDKit          3D

 31 33  0  0  0  0  0  0  0  0999 V2000
    4.9557    1.8144   16.9726 H   0  0  0  0  0  0  0  0  0  0  0  0
    5.4010    1.2980   17.8182 C   0  0  0  0  0  0  0  0  0  0  0  0
    6.5597    0.6675   17.5684 N   0  0  0  0  0  0  0  0  0  0  0  0
    7.1646    0.0489   18.5876 C   0  0  0  0  0  0  0  0  0  0  0  0
    8.1014   -0.4473   18.3336 H   0  0  0  0  0  0  0  0  0  0  0  0
    6.6535    0.0085   19.9010 C   0  0  0  0  0  0  0  0  0  0  0  0
    7.3554   -0.6748   20.9252 N   0  0  0  0  0  0  0  0  0  0  0  0
    6.8509   -1.3451   22.0127 C   0  0  0  0  0  0  0  0  0  0  0  0
    5.7899   -1.4508   22.1653 H   0  0  0  0  0  0  0  0  0  0  0  0
    7.7834   -1.8906   22.7408 N   0  0  0  0  0  0  0  0  0  0  0  0
    8.9674   -1.5844   22.1235 C   0  0  0  0  0  0  0  0  0  0  0  0
   10.2770   -1.9661   22.7455 C   0  0  0  0  0  0  0  0  0  0  0  0
   10.0956   -2.7941   23.4412 H   0  0  0  0  0  0  0  0  0  0  0  0
   10.9724   -2.3148   21.9735 H   0  0  0  0  0  0  0  0  0  0  0  0
   10.8947   -0.7806   23.4639 C   0  0  0  0  0  0  0  0  0  0  0  0
   11.7456    0.0921   22.7638 C   0  0  0  0  0  0  0  0  0  0  0  0
   11.9702   -0.1406   21.7206 H   0  0  0  0  0  0  0  0  0  0  0  0
   12.2537    1.2505   23.3600 C   0  0  0  0  0  0  0  0  0  0  0  0
   12.9079    1.9147   22.7982 H   0  0  0  0  0  0  0  0  0  0  0  0
   11.8969    1.5576   24.6778 C   0  0  0  0  0  0  0  0  0  0  0  0
   12.2008    2.4894   25.1401 H   0  0  0  0  0  0  0  0  0  0  0  0
   11.0726    0.6932   25.4007 C   0  0  0  0  0  0  0  0  0  0  0  0
   10.7936    0.8909   26.4300 H   0  0  0  0  0  0  0  0  0  0  0  0
   10.5541   -0.4475   24.7852 C   0  0  0  0  0  0  0  0  0  0  0  0
    9.3986   -1.3942   25.6901 Cl  0  0  0  0  0  0  0  0  0  0  0  0
    8.7269   -0.8458   21.0009 C   0  0  0  0  0  0  0  0  0  0  0  0
    9.3675   -0.4019   20.2574 H   0  0  0  0  0  0  0  0  0  0  0  0
    5.4393    0.6660   20.1479 C   0  0  0  0  0  0  0  0  0  0  0  0
    5.0124    0.7002   21.1504 H   0  0  0  0  0  0  0  0  0  0  0  0
    4.8039    1.3118   19.0822 C   0  0  0  0  0  0  0  0  0  0  0  0
    3.8679    1.8428   19.2244 H   0  0  0  0  0  0  0  0  0  0  0  0
  1  2  1  0
  2  3  2  0
  3  4  1  0
  4  5  1  0
  4  6  2  0
  6  7  1  0
  7  8  1  0
  8  9  1  0
  8 10  2  0
 10 11  1  0
 11 12  1  0
 12 13  1  0
 12 14  1  0
 12 15  1  0
 15 16  2  0
 16 17  1  0
 16 18  1  0
 18 19  1  0
 18 20  2  0
 20 21  1  0
 20 22  1  0
 22 23  1  0
 22 24  2  0
 24 25  1  0
 11 26  2  0
 26 27  1  0
  6 28  1  0
 28 29  1  0
 28 30  2  0
 30 31  1  0
 30  2  1  0
 26  7  1  0
 24 15  1  0
M  END
>  <cnnaffinity>  (1) 
-5.56528

>  <filename>  (1) 
Clc1ccccc1Cc1cn(-c2cccnc2)cn1

$$$$
