
     RDKit          3D

 44 47  0  0  0  0  0  0  0  0999 V2000
   12.1832   -1.5510   21.1803 Cl  0  0  0  0  0  0  0  0  0  0  0  0
   11.8683   -0.0270   21.9566 C   0  0  0  0  0  0  0  0  0  0  0  0
   12.7696    0.3997   22.9365 C   0  0  0  0  0  0  0  0  0  0  0  0
   12.5204    1.5915   23.6168 C   0  0  0  0  0  0  0  0  0  0  0  0
   11.3751    2.3422   23.3346 C   0  0  0  0  0  0  0  0  0  0  0  0
   10.4870    1.8979   22.3522 C   0  0  0  0  0  0  0  0  0  0  0  0
   10.7229    0.7182   21.6314 C   0  0  0  0  0  0  0  0  0  0  0  0
    9.6638    0.2255   20.6691 C   0  0  0  0  0  0  0  0  0  0  0  0
    8.6413   -0.6211   21.3343 C   0  0  0  0  0  0  0  0  0  0  0  0
    8.8662   -1.4714   22.3159 N   0  0  0  0  0  0  0  0  0  0  0  0
    7.6428   -1.9895   22.5509 C   0  0  0  0  0  0  0  0  0  0  0  0
    7.3815   -2.9514   23.6686 C   0  0  0  0  0  0  0  0  0  0  0  0
    6.6677   -4.2284   23.1749 C   0  0  0  0  0  0  0  0  0  0  0  0
    6.3541   -5.1892   24.3463 C   0  0  0  0  0  0  0  0  0  0  0  0
    6.5247   -4.5994   25.6236 O   0  0  0  0  0  0  0  0  0  0  0  0
    5.8905   -3.3406   25.7160 C   0  0  0  0  0  0  0  0  0  0  0  0
    6.5768   -2.2868   24.8222 C   0  0  0  0  0  0  0  0  0  0  0  0
    7.2536   -1.6657   25.4199 H   0  0  0  0  0  0  0  0  0  0  0  0
    5.8120   -1.6172   24.4132 H   0  0  0  0  0  0  0  0  0  0  0  0
    4.8292   -3.4415   25.4316 H   0  0  0  0  0  0  0  0  0  0  0  0
    5.9224   -3.0504   26.7685 H   0  0  0  0  0  0  0  0  0  0  0  0
    5.3205   -5.5641   24.2541 H   0  0  0  0  0  0  0  0  0  0  0  0
    7.0280   -6.0474   24.3420 H   0  0  0  0  0  0  0  0  0  0  0  0
    5.7399   -3.9337   22.6683 H   0  0  0  0  0  0  0  0  0  0  0  0
    7.2824   -4.7423   22.4273 H   0  0  0  0  0  0  0  0  0  0  0  0
    8.3671   -3.2243   24.0557 H   0  0  0  0  0  0  0  0  0  0  0  0
    6.6833   -1.5473   21.7541 N   0  0  0  0  0  0  0  0  0  0  0  0
    7.3377   -0.6874   20.9373 N   0  0  0  0  0  0  0  0  0  0  0  0
    6.6478   -0.0019   19.9024 C   0  0  0  0  0  0  0  0  0  0  0  0
    5.4346    0.6408   20.1673 C   0  0  0  0  0  0  0  0  0  0  0  0
    4.8121    1.3098   19.1103 C   0  0  0  0  0  0  0  0  0  0  0  0
    5.3995    1.2955   17.8382 C   0  0  0  0  0  0  0  0  0  0  0  0
    6.5577    0.6708   17.5776 N   0  0  0  0  0  0  0  0  0  0  0  0
    7.1634    0.0482   18.5939 C   0  0  0  0  0  0  0  0  0  0  0  0
    8.1122   -0.4289   18.3626 H   0  0  0  0  0  0  0  0  0  0  0  0
    4.9229    1.7863   16.9935 H   0  0  0  0  0  0  0  0  0  0  0  0
    3.8811    1.8400   19.2598 H   0  0  0  0  0  0  0  0  0  0  0  0
    5.0154    0.6104   21.1765 H   0  0  0  0  0  0  0  0  0  0  0  0
    9.1751    1.0815   20.1974 H   0  0  0  0  0  0  0  0  0  0  0  0
   10.0744   -0.4225   19.8894 H   0  0  0  0  0  0  0  0  0  0  0  0
    9.5787    2.4595   22.1422 H   0  0  0  0  0  0  0  0  0  0  0  0
   11.1756    3.2686   23.8652 H   0  0  0  0  0  0  0  0  0  0  0  0
   13.2287    1.9273   24.3646 H   0  0  0  0  0  0  0  0  0  0  0  0
   13.6442   -0.2089   23.1460 H   0  0  0  0  0  0  0  0  0  0  0  0
  1  2  1  0
  2  3  2  0
  3  4  1  0
  4  5  2  0
  5  6  1  0
  6  7  2  0
  7  8  1  0
  8  9  1  0
  9 10  2  0
 10 11  1  0
 11 12  1  0
 12 13  1  0
 13 14  1  0
 14 15  1  0
 15 16  1  0
 16 17  1  0
 17 18  1  0
 17 19  1  0
 16 20  1  0
 16 21  1  0
 14 22  1  0
 14 23  1  0
 13 24  1  0
 13 25  1  0
 12 26  1  0
 11 27  2  0
 27 28  1  0
 28 29  1  0
 29 30  2  0
 30 31  1  0
 31 32  2  0
 32 33  1  0
 33 34  2  0
 34 35  1  0
 32 36  1  0
 31 37  1  0
 30 38  1  0
  8 39  1  0
  8 40  1  0
  6 41  1  0
  5 42  1  0
  4 43  1  0
  3 44  1  0
  7  2  1  0
 28  9  1  0
 34 29  1  0
 17 12  1  0
M  END
>  <cnnaffinity>  (1) 
-6.58468

>  <filename>  (1) 
Clc1ccccc1Cc1nc(C2CCOCC2)nn1-c1cccnc1

$$$$
