
     RDKit          3D

 43 46  0  0  0  0  0  0  0  0999 V2000
    9.5970    4.7512   24.8819 Cl  0  0  0  0  0  0  0  0  0  0  0  0
    8.9978    3.1282   25.0301 C   0  0  0  0  0  0  0  0  0  0  0  0
    7.6797    2.9342   25.4629 C   0  0  0  0  0  0  0  0  0  0  0  0
    7.2127    1.6287   25.5815 C   0  0  0  0  0  0  0  0  0  0  0  0
    8.0771    0.5733   25.2539 C   0  0  0  0  0  0  0  0  0  0  0  0
    7.6288   -0.7750   25.3416 N   0  0  0  0  0  0  0  0  0  0  0  0
    7.0279   -1.2330   26.4760 N   0  0  0  0  0  0  0  0  0  0  0  0
    6.7140   -2.4738   26.1713 C   0  0  0  0  0  0  0  0  0  0  0  0
    5.9982   -3.4045   27.0967 C   0  0  0  0  0  0  0  0  0  0  0  0
    6.5772   -4.8493   27.2067 C   0  0  0  0  0  0  0  0  0  0  0  0
    5.2590   -5.4240   26.6434 C   0  0  0  0  0  0  0  0  0  0  0  0
    4.6586   -4.0042   26.5596 C   0  0  0  0  0  0  0  0  0  0  0  0
    4.4015   -3.6710   25.5494 H   0  0  0  0  0  0  0  0  0  0  0  0
    3.7948   -3.8348   27.2091 H   0  0  0  0  0  0  0  0  0  0  0  0
    5.3676   -5.9190   25.6733 H   0  0  0  0  0  0  0  0  0  0  0  0
    4.7302   -6.1087   27.3138 H   0  0  0  0  0  0  0  0  0  0  0  0
    6.8117   -5.1668   28.2269 H   0  0  0  0  0  0  0  0  0  0  0  0
    7.4575   -5.0219   26.5798 H   0  0  0  0  0  0  0  0  0  0  0  0
    5.8836   -2.9023   28.0586 H   0  0  0  0  0  0  0  0  0  0  0  0
    7.0496   -2.8487   24.9035 N   0  0  0  0  0  0  0  0  0  0  0  0
    7.6089   -1.7714   24.4036 C   0  0  0  0  0  0  0  0  0  0  0  0
    8.0109   -1.5888   22.9794 C   0  0  0  0  0  0  0  0  0  0  0  0
    6.9705   -0.7742   22.2071 C   0  0  0  0  0  0  0  0  0  0  0  0
    7.4148   -0.6806   20.8557 O   0  0  0  0  0  0  0  0  0  0  0  0
    6.6687   -0.0020   19.9379 C   0  0  0  0  0  0  0  0  0  0  0  0
    5.4468    0.6429   20.1802 C   0  0  0  0  0  0  0  0  0  0  0  0
    4.8143    1.3036   19.1124 C   0  0  0  0  0  0  0  0  0  0  0  0
    5.4006    1.2902   17.8459 C   0  0  0  0  0  0  0  0  0  0  0  0
    6.5686    0.6688   17.5989 N   0  0  0  0  0  0  0  0  0  0  0  0
    7.1802    0.0530   18.6164 C   0  0  0  0  0  0  0  0  0  0  0  0
    8.1257   -0.4360   18.3973 H   0  0  0  0  0  0  0  0  0  0  0  0
    4.9200    1.7795   16.9978 H   0  0  0  0  0  0  0  0  0  0  0  0
    3.8813    1.8371   19.2624 H   0  0  0  0  0  0  0  0  0  0  0  0
    5.0032    0.6305   21.1763 H   0  0  0  0  0  0  0  0  0  0  0  0
    6.8542    0.2269   22.6497 H   0  0  0  0  0  0  0  0  0  0  0  0
    6.0023   -1.2880   22.2471 H   0  0  0  0  0  0  0  0  0  0  0  0
    8.9795   -1.0887   22.9039 H   0  0  0  0  0  0  0  0  0  0  0  0
    8.1222   -2.5725   22.5191 H   0  0  0  0  0  0  0  0  0  0  0  0
    9.3811    0.8975   24.8530 C   0  0  0  0  0  0  0  0  0  0  0  0
    9.8363    2.1510   24.7352 N   0  0  0  0  0  0  0  0  0  0  0  0
   10.0909    0.1115   24.6151 H   0  0  0  0  0  0  0  0  0  0  0  0
    6.2037    1.4167   25.9297 H   0  0  0  0  0  0  0  0  0  0  0  0
    7.0600    3.7869   25.7043 H   0  0  0  0  0  0  0  0  0  0  0  0
  1  2  1  0
  2  3  2  0
  3  4  1  0
  4  5  2  0
  5  6  1  0
  6  7  1  0
  7  8  2  0
  8  9  1  0
  9 10  1  0
 10 11  1  0
 11 12  1  0
 12 13  1  0
 12 14  1  0
 11 15  1  0
 11 16  1  0
 10 17  1  0
 10 18  1  0
  9 19  1  0
  8 20  1  0
 20 21  2  0
 21 22  1  0
 22 23  1  0
 23 24  1  0
 24 25  1  0
 25 26  2  0
 26 27  1  0
 27 28  2  0
 28 29  1  0
 29 30  2  0
 30 31  1  0
 28 32  1  0
 27 33  1  0
 26 34  1  0
 23 35  1  0
 23 36  1  0
 22 37  1  0
 22 38  1  0
  5 39  1  0
 39 40  2  0
 39 41  1  0
  4 42  1  0
  3 43  1  0
 40  2  1  0
 21  6  1  0
 30 25  1  0
 12  9  1  0
M  END
>  <cnnaffinity>  (1) 
-5.73744

>  <filename>  (1) 
Clc1ccc(-n2nc(C3CCC3)nc2CCOc2cccnc2)cn1

$$$$
