
     RDKit          3D

 41 44  0  0  0  0  0  0  0  0999 V2000
    5.8616    3.5576   29.3948 Cl  0  0  0  0  0  0  0  0  0  0  0  0
    6.3217    2.9598   27.8291 C   0  0  0  0  0  0  0  0  0  0  0  0
    5.5510    1.9685   27.2134 C   0  0  0  0  0  0  0  0  0  0  0  0
    5.9187    1.4965   25.9531 C   0  0  0  0  0  0  0  0  0  0  0  0
    7.0669    2.0012   25.3087 C   0  0  0  0  0  0  0  0  0  0  0  0
    7.5151    1.4754   23.9983 C   0  0  0  0  0  0  0  0  0  0  0  0
    6.8573    0.5777   23.2842 N   0  0  0  0  0  0  0  0  0  0  0  0
    7.6600    0.3824   22.2158 N   0  0  0  0  0  0  0  0  0  0  0  0
    7.3018   -0.5481   21.1529 C   0  0  0  0  0  0  0  0  0  0  0  0
    6.6503    0.1120   19.9505 C   0  0  0  0  0  0  0  0  0  0  0  0
    5.4378    0.7960   20.1081 C   0  0  0  0  0  0  0  0  0  0  0  0
    4.8521    1.3888   18.9886 C   0  0  0  0  0  0  0  0  0  0  0  0
    5.4959    1.2771   17.7530 C   0  0  0  0  0  0  0  0  0  0  0  0
    6.6542    0.6232   17.5783 N   0  0  0  0  0  0  0  0  0  0  0  0
    7.2113    0.0679   18.6635 C   0  0  0  0  0  0  0  0  0  0  0  0
    8.1591   -0.4461   18.4885 H   0  0  0  0  0  0  0  0  0  0  0  0
    5.0642    1.7344   16.8645 H   0  0  0  0  0  0  0  0  0  0  0  0
    3.9268    1.9509   19.0629 H   0  0  0  0  0  0  0  0  0  0  0  0
    4.9753    0.8703   21.0942 H   0  0  0  0  0  0  0  0  0  0  0  0
    6.6344   -1.2807   21.6164 H   0  0  0  0  0  0  0  0  0  0  0  0
    8.2082   -1.0843   20.8538 H   0  0  0  0  0  0  0  0  0  0  0  0
    8.7490    1.1704   22.3254 C   0  0  0  0  0  0  0  0  0  0  0  0
    9.8877    1.2171   21.3465 C   0  0  0  0  0  0  0  0  0  0  0  0
   11.0700    0.2918   21.6434 C   0  0  0  0  0  0  0  0  0  0  0  0
   11.1406   -1.0382   21.2275 C   0  0  0  0  0  0  0  0  0  0  0  0
   12.1800   -1.8326   21.4758 N   0  0  0  0  0  0  0  0  0  0  0  0
   13.1772   -1.3075   22.1789 C   0  0  0  0  0  0  0  0  0  0  0  0
   13.2209   -0.0711   22.6727 N   0  0  0  0  0  0  0  0  0  0  0  0
   12.1749    0.7086   22.4014 C   0  0  0  0  0  0  0  0  0  0  0  0
   12.2103    1.7174   22.8218 H   0  0  0  0  0  0  0  0  0  0  0  0
   14.0341   -1.9542   22.3629 H   0  0  0  0  0  0  0  0  0  0  0  0
   10.3300   -1.4864   20.6452 H   0  0  0  0  0  0  0  0  0  0  0  0
    9.4756    1.0280   20.3498 H   0  0  0  0  0  0  0  0  0  0  0  0
   10.2310    2.2568   21.3413 H   0  0  0  0  0  0  0  0  0  0  0  0
    8.6879    1.8731   23.4328 N   0  0  0  0  0  0  0  0  0  0  0  0
    7.8236    3.0032   25.9501 C   0  0  0  0  0  0  0  0  0  0  0  0
    7.4591    3.4805   27.2060 C   0  0  0  0  0  0  0  0  0  0  0  0
    8.0531    4.2374   27.7080 H   0  0  0  0  0  0  0  0  0  0  0  0
    8.7093    3.3927   25.4507 H   0  0  0  0  0  0  0  0  0  0  0  0
    5.3247    0.7258   25.4648 H   0  0  0  0  0  0  0  0  0  0  0  0
    4.6860    1.5638   27.7287 H   0  0  0  0  0  0  0  0  0  0  0  0
  1  2  1  0
  2  3  2  0
  3  4  1  0
  4  5  2  0
  5  6  1  0
  6  7  2  0
  7  8  1  0
  8  9  1  0
  9 10  1  0
 10 11  2  0
 11 12  1  0
 12 13  2  0
 13 14  1  0
 14 15  2  0
 15 16  1  0
 13 17  1  0
 12 18  1  0
 11 19  1  0
  9 20  1  0
  9 21  1  0
  8 22  1  0
 22 23  1  0
 23 24  1  0
 24 25  2  0
 25 26  1  0
 26 27  2  0
 27 28  1  0
 28 29  2  0
 29 30  1  0
 27 31  1  0
 25 32  1  0
 23 33  1  0
 23 34  1  0
 22 35  2  0
  5 36  1  0
 36 37  2  0
 37 38  1  0
 36 39  1  0
  4 40  1  0
  3 41  1  0
 37  2  1  0
 35  6  1  0
 15 10  1  0
 29 24  1  0
M  END
>  <cnnaffinity>  (1) 
-6.25886

>  <filename>  (1) 
Clc1ccc(-c2nc(Cc3cncnc3)n(Cc3cccnc3)n2)cc1

$$$$
