
     RDKit          3D

 37 40  0  0  0  0  0  0  0  0999 V2000
    8.1410    2.7275   22.0477 Cl  0  0  0  0  0  0  0  0  0  0  0  0
    9.7329    2.1959   22.5150 C   0  0  0  0  0  0  0  0  0  0  0  0
   10.3582    2.8536   23.5749 C   0  0  0  0  0  0  0  0  0  0  0  0
   11.6189    2.4207   23.9874 C   0  0  0  0  0  0  0  0  0  0  0  0
   12.2490    1.3417   23.3649 C   0  0  0  0  0  0  0  0  0  0  0  0
   11.6052    0.6979   22.3071 C   0  0  0  0  0  0  0  0  0  0  0  0
   10.3515    1.1219   21.8540 C   0  0  0  0  0  0  0  0  0  0  0  0
    9.6301    0.3385   20.7825 C   0  0  0  0  0  0  0  0  0  0  0  0
    8.6178   -0.5869   21.3570 C   0  0  0  0  0  0  0  0  0  0  0  0
    8.8409   -1.4528   22.3173 N   0  0  0  0  0  0  0  0  0  0  0  0
    7.6156   -2.0315   22.5096 C   0  0  0  0  0  0  0  0  0  0  0  0
    7.3959   -3.0473   23.5628 C   0  0  0  0  0  0  0  0  0  0  0  0
    6.2148   -3.6361   23.7789 N   0  0  0  0  0  0  0  0  0  0  0  0
    6.4328   -4.4669   24.7921 N   0  0  0  0  0  0  0  0  0  0  0  0
    7.7078   -4.4549   25.2512 C   0  0  0  0  0  0  0  0  0  0  0  0
    8.3701   -3.5417   24.4760 C   0  0  0  0  0  0  0  0  0  0  0  0
    9.4064   -3.2533   24.5408 H   0  0  0  0  0  0  0  0  0  0  0  0
    8.0216   -5.0880   26.0749 H   0  0  0  0  0  0  0  0  0  0  0  0
    5.6479   -5.0093   25.1172 H   0  0  0  0  0  0  0  0  0  0  0  0
    6.6757   -1.5838   21.6899 N   0  0  0  0  0  0  0  0  0  0  0  0
    7.3283   -0.6857   20.9232 N   0  0  0  0  0  0  0  0  0  0  0  0
    6.6509    0.0107   19.8931 C   0  0  0  0  0  0  0  0  0  0  0  0
    5.4358    0.6467   20.1635 C   0  0  0  0  0  0  0  0  0  0  0  0
    4.8111    1.3136   19.1085 C   0  0  0  0  0  0  0  0  0  0  0  0
    5.3990    1.2963   17.8371 C   0  0  0  0  0  0  0  0  0  0  0  0
    6.5566    0.6718   17.5711 N   0  0  0  0  0  0  0  0  0  0  0  0
    7.1652    0.0523   18.5863 C   0  0  0  0  0  0  0  0  0  0  0  0
    8.1134   -0.4332   18.3650 H   0  0  0  0  0  0  0  0  0  0  0  0
    4.9178    1.7845   16.9943 H   0  0  0  0  0  0  0  0  0  0  0  0
    3.8794    1.8412   19.2616 H   0  0  0  0  0  0  0  0  0  0  0  0
    5.0173    0.6021   21.1722 H   0  0  0  0  0  0  0  0  0  0  0  0
    9.1653    1.0323   20.0786 H   0  0  0  0  0  0  0  0  0  0  0  0
   10.3176   -0.3211   20.2511 H   0  0  0  0  0  0  0  0  0  0  0  0
   12.0648   -0.1627   21.8257 H   0  0  0  0  0  0  0  0  0  0  0  0
   13.2284    1.0049   23.6923 H   0  0  0  0  0  0  0  0  0  0  0  0
   12.0948    2.9374   24.8054 H   0  0  0  0  0  0  0  0  0  0  0  0
    9.8597    3.6892   24.0572 H   0  0  0  0  0  0  0  0  0  0  0  0
  1  2  1  0
  2  3  2  0
  3  4  1  0
  4  5  2  0
  5  6  1  0
  6  7  2  0
  7  8  1  0
  8  9  1  0
  9 10  2  0
 10 11  1  0
 11 12  1  0
 12 13  2  0
 13 14  1  0
 14 15  1  0
 15 16  2  0
 16 17  1  0
 15 18  1  0
 14 19  1  0
 11 20  2  0
 20 21  1  0
 21 22  1  0
 22 23  2  0
 23 24  1  0
 24 25  2  0
 25 26  1  0
 26 27  2  0
 27 28  1  0
 25 29  1  0
 24 30  1  0
 23 31  1  0
  8 32  1  0
  8 33  1  0
  6 34  1  0
  5 35  1  0
  4 36  1  0
  3 37  1  0
  7  2  1  0
 21  9  1  0
 27 22  1  0
 16 12  1  0
M  END
>  <cnnaffinity>  (1) 
-5.9825

>  <filename>  (1) 
Clc1ccccc1Cc1nc(-c2cc[nH]n2)nn1-c1cccnc1

$$$$
