
     RDKit          3D

 45 48  0  0  0  0  0  0  0  0999 V2000
   11.6220    2.5591   23.1366 Cl  0  0  0  0  0  0  0  0  0  0  0  0
   10.0326    2.2745   23.8097 C   0  0  0  0  0  0  0  0  0  0  0  0
    9.9934    2.2369   25.1310 N   0  0  0  0  0  0  0  0  0  0  0  0
    8.8073    2.0219   25.7152 C   0  0  0  0  0  0  0  0  0  0  0  0
    7.6229    1.8594   24.9922 C   0  0  0  0  0  0  0  0  0  0  0  0
    7.6866    1.9145   23.5962 C   0  0  0  0  0  0  0  0  0  0  0  0
    8.9190    2.1148   22.9519 C   0  0  0  0  0  0  0  0  0  0  0  0
    9.0412    2.0191   21.4461 C   0  0  0  0  0  0  0  0  0  0  0  0
    9.5169    0.6158   20.9796 C   0  0  0  0  0  0  0  0  0  0  0  0
    8.6430   -0.4983   21.4571 C   0  0  0  0  0  0  0  0  0  0  0  0
    8.9249   -1.3128   22.4554 N   0  0  0  0  0  0  0  0  0  0  0  0
    7.7457   -1.9490   22.6883 C   0  0  0  0  0  0  0  0  0  0  0  0
    7.6310   -2.9342   23.8186 C   0  0  0  0  0  0  0  0  0  0  0  0
    7.0539   -2.2943   25.0999 C   0  0  0  0  0  0  0  0  0  0  0  0
    6.7308   -3.1612   26.3534 C   0  0  0  0  0  0  0  0  0  0  0  0
    5.2999   -2.5540   26.3807 C   0  0  0  0  0  0  0  0  0  0  0  0
    5.5606   -1.9377   24.9935 C   0  0  0  0  0  0  0  0  0  0  0  0
    5.0894   -2.5030   24.1834 H   0  0  0  0  0  0  0  0  0  0  0  0
    5.3576   -0.8709   24.8663 H   0  0  0  0  0  0  0  0  0  0  0  0
    5.1631   -1.7849   27.1489 H   0  0  0  0  0  0  0  0  0  0  0  0
    4.4758   -3.2713   26.4588 H   0  0  0  0  0  0  0  0  0  0  0  0
    6.7547   -4.2476   26.1850 H   0  0  0  0  0  0  0  0  0  0  0  0
    7.3463   -2.9557   27.2374 H   0  0  0  0  0  0  0  0  0  0  0  0
    7.6520   -1.4183   25.4052 H   0  0  0  0  0  0  0  0  0  0  0  0
    8.6345   -3.3376   23.9926 H   0  0  0  0  0  0  0  0  0  0  0  0
    6.9777   -3.7565   23.4958 H   0  0  0  0  0  0  0  0  0  0  0  0
    6.7641   -1.5996   21.8748 N   0  0  0  0  0  0  0  0  0  0  0  0
    7.3548   -0.6949   21.0434 N   0  0  0  0  0  0  0  0  0  0  0  0
    6.6445   -0.0790   19.9628 C   0  0  0  0  0  0  0  0  0  0  0  0
    5.4355    0.5870   20.1919 C   0  0  0  0  0  0  0  0  0  0  0  0
    4.8414    1.2822   19.1320 C   0  0  0  0  0  0  0  0  0  0  0  0
    5.4563    1.2700   17.8748 C   0  0  0  0  0  0  0  0  0  0  0  0
    6.5850    0.5890   17.6273 N   0  0  0  0  0  0  0  0  0  0  0  0
    7.1527   -0.0715   18.6449 C   0  0  0  0  0  0  0  0  0  0  0  0
    8.0570   -0.6236   18.3954 H   0  0  0  0  0  0  0  0  0  0  0  0
    5.0262    1.8157   17.0361 H   0  0  0  0  0  0  0  0  0  0  0  0
    3.9182    1.8342   19.2696 H   0  0  0  0  0  0  0  0  0  0  0  0
    4.9796    0.5510   21.1812 H   0  0  0  0  0  0  0  0  0  0  0  0
   10.5236    0.4118   21.3559 H   0  0  0  0  0  0  0  0  0  0  0  0
    9.5661    0.5922   19.8887 H   0  0  0  0  0  0  0  0  0  0  0  0
    8.0709    2.2496   20.9874 H   0  0  0  0  0  0  0  0  0  0  0  0
    9.7515    2.7651   21.0764 H   0  0  0  0  0  0  0  0  0  0  0  0
    6.7858    1.7928   22.9889 H   0  0  0  0  0  0  0  0  0  0  0  0
    6.6850    1.6929   25.5137 H   0  0  0  0  0  0  0  0  0  0  0  0
    8.8159    1.9945   26.8037 H   0  0  0  0  0  0  0  0  0  0  0  0
  1  2  1  0
  2  3  2  0
  3  4  1  0
  4  5  2  0
  5  6  1  0
  6  7  2  0
  7  8  1  0
  8  9  1  0
  9 10  1  0
 10 11  2  0
 11 12  1  0
 12 13  1  0
 13 14  1  0
 14 15  1  0
 15 16  1  0
 16 17  1  0
 17 18  1  0
 17 19  1  0
 16 20  1  0
 16 21  1  0
 15 22  1  0
 15 23  1  0
 14 24  1  0
 13 25  1  0
 13 26  1  0
 12 27  2  0
 27 28  1  0
 28 29  1  0
 29 30  2  0
 30 31  1  0
 31 32  2  0
 32 33  1  0
 33 34  2  0
 34 35  1  0
 32 36  1  0
 31 37  1  0
 30 38  1  0
  9 39  1  0
  9 40  1  0
  8 41  1  0
  8 42  1  0
  6 43  1  0
  5 44  1  0
  4 45  1  0
  7  2  1  0
 28 10  1  0
 34 29  1  0
 17 14  1  0
M  END
>  <cnnaffinity>  (1) 
-6.37823

>  <filename>  (1) 
Clc1ncccc1CCc1nc(CC2CCC2)nn1-c1cccnc1

$$$$
