
     RDKit          3D

 40 43  0  0  0  0  0  0  0  0999 V2000
   11.5917    2.4998   23.2077 Cl  0  0  0  0  0  0  0  0  0  0  0  0
   10.0006    2.2102   23.8452 C   0  0  0  0  0  0  0  0  0  0  0  0
    9.9330    2.1735   25.1668 N   0  0  0  0  0  0  0  0  0  0  0  0
    8.7325    1.9390   25.7063 C   0  0  0  0  0  0  0  0  0  0  0  0
    7.5787    1.7324   24.9520 C   0  0  0  0  0  0  0  0  0  0  0  0
    7.6783    1.7874   23.5623 C   0  0  0  0  0  0  0  0  0  0  0  0
    8.9148    2.0515   22.9576 C   0  0  0  0  0  0  0  0  0  0  0  0
    9.0516    2.0079   21.4520 C   0  0  0  0  0  0  0  0  0  0  0  0
    9.5258    0.6151   20.9500 C   0  0  0  0  0  0  0  0  0  0  0  0
    8.6419   -0.5010   21.4103 C   0  0  0  0  0  0  0  0  0  0  0  0
    8.8631   -1.3137   22.4310 N   0  0  0  0  0  0  0  0  0  0  0  0
    7.6639   -1.9223   22.6009 C   0  0  0  0  0  0  0  0  0  0  0  0
    7.3814   -2.8212   23.7624 C   0  0  0  0  0  0  0  0  0  0  0  0
    6.4826   -4.0399   23.4408 C   0  0  0  0  0  0  0  0  0  0  0  0
    5.1866   -3.4794   24.5964 S   0  0  0  0  0  0  0  0  0  0  0  0
    6.4446   -2.1797   24.8302 C   0  0  0  0  0  0  0  0  0  0  0  0
    6.8590   -2.1633   25.8426 H   0  0  0  0  0  0  0  0  0  0  0  0
    6.0771   -1.1837   24.5647 H   0  0  0  0  0  0  0  0  0  0  0  0
    6.1308   -4.0719   22.4053 H   0  0  0  0  0  0  0  0  0  0  0  0
    6.9138   -5.0021   23.7302 H   0  0  0  0  0  0  0  0  0  0  0  0
    8.3439   -3.1071   24.1853 H   0  0  0  0  0  0  0  0  0  0  0  0
    6.7363   -1.5783   21.7301 N   0  0  0  0  0  0  0  0  0  0  0  0
    7.3698   -0.6730   20.9407 N   0  0  0  0  0  0  0  0  0  0  0  0
    6.6609    0.0014   19.9041 C   0  0  0  0  0  0  0  0  0  0  0  0
    5.4442    0.6421   20.1677 C   0  0  0  0  0  0  0  0  0  0  0  0
    4.8135    1.3097   19.1119 C   0  0  0  0  0  0  0  0  0  0  0  0
    5.4006    1.2951   17.8402 C   0  0  0  0  0  0  0  0  0  0  0  0
    6.5612    0.6739   17.5795 N   0  0  0  0  0  0  0  0  0  0  0  0
    7.1701    0.0519   18.5950 C   0  0  0  0  0  0  0  0  0  0  0  0
    8.1158   -0.4354   18.3707 H   0  0  0  0  0  0  0  0  0  0  0  0
    4.9165    1.7833   16.9963 H   0  0  0  0  0  0  0  0  0  0  0  0
    3.8799    1.8392   19.2644 H   0  0  0  0  0  0  0  0  0  0  0  0
    5.0129    0.6111   21.1716 H   0  0  0  0  0  0  0  0  0  0  0  0
    9.5792    0.6238   19.8580 H   0  0  0  0  0  0  0  0  0  0  0  0
   10.5285    0.4007   21.3233 H   0  0  0  0  0  0  0  0  0  0  0  0
    9.7569    2.7704   21.1065 H   0  0  0  0  0  0  0  0  0  0  0  0
    8.0811    2.2430   20.9947 H   0  0  0  0  0  0  0  0  0  0  0  0
    6.8070    1.5987   22.9341 H   0  0  0  0  0  0  0  0  0  0  0  0
    6.6312    1.5372   25.4381 H   0  0  0  0  0  0  0  0  0  0  0  0
    8.6963    1.9231   26.7914 H   0  0  0  0  0  0  0  0  0  0  0  0
  1  2  1  0
  2  3  2  0
  3  4  1  0
  4  5  2  0
  5  6  1  0
  6  7  2  0
  7  8  1  0
  8  9  1  0
  9 10  1  0
 10 11  2  0
 11 12  1  0
 12 13  1  0
 13 14  1  0
 14 15  1  0
 15 16  1  0
 16 17  1  0
 16 18  1  0
 14 19  1  0
 14 20  1  0
 13 21  1  0
 12 22  2  0
 22 23  1  0
 23 24  1  0
 24 25  2  0
 25 26  1  0
 26 27  2  0
 27 28  1  0
 28 29  2  0
 29 30  1  0
 27 31  1  0
 26 32  1  0
 25 33  1  0
  9 34  1  0
  9 35  1  0
  8 36  1  0
  8 37  1  0
  6 38  1  0
  5 39  1  0
  4 40  1  0
  7  2  1  0
 23 10  1  0
 29 24  1  0
 16 13  1  0
M  END
>  <cnnaffinity>  (1) 
-6.07643

>  <filename>  (1) 
Clc1ncccc1CCc1nc(C2CSC2)nn1-c1cccnc1

$$$$
