
     RDKit          3D

 27 29  0  0  0  0  0  0  0  0999 V2000
    4.9652    1.7894   16.9802 H   0  0  0  0  0  0  0  0  0  0  0  0
    5.4151    1.2841   17.8316 C   0  0  0  0  0  0  0  0  0  0  0  0
    6.5774    0.6571   17.5872 N   0  0  0  0  0  0  0  0  0  0  0  0
    7.1775    0.0435   18.6097 C   0  0  0  0  0  0  0  0  0  0  0  0
    8.1282   -0.4357   18.3783 H   0  0  0  0  0  0  0  0  0  0  0  0
    6.6406    0.0119   19.8990 C   0  0  0  0  0  0  0  0  0  0  0  0
    7.3347   -0.6820   20.9628 C   0  0  0  0  0  0  0  0  0  0  0  0
    6.9442   -0.7867   22.1864 N   0  0  0  0  0  0  0  0  0  0  0  0
    7.9321   -1.5229   22.8158 C   0  0  0  0  0  0  0  0  0  0  0  0
    7.8083   -1.8754   24.2412 C   0  0  0  0  0  0  0  0  0  0  0  0
    6.5502   -2.2340   24.7738 C   0  0  0  0  0  0  0  0  0  0  0  0
    5.6808   -2.1783   24.1170 H   0  0  0  0  0  0  0  0  0  0  0  0
    6.4375   -2.6879   26.0860 C   0  0  0  0  0  0  0  0  0  0  0  0
    5.4684   -2.9631   26.4930 H   0  0  0  0  0  0  0  0  0  0  0  0
    7.5838   -2.8018   26.8827 C   0  0  0  0  0  0  0  0  0  0  0  0
    7.5454   -3.2869   27.8469 H   0  0  0  0  0  0  0  0  0  0  0  0
    8.8144   -2.3527   26.4071 C   0  0  0  0  0  0  0  0  0  0  0  0
    9.6882   -2.3807   27.0431 H   0  0  0  0  0  0  0  0  0  0  0  0
    8.9254   -1.8879   25.0989 C   0  0  0  0  0  0  0  0  0  0  0  0
   10.4775   -1.3269   24.5417 Cl  0  0  0  0  0  0  0  0  0  0  0  0
    8.8768   -1.8434   21.8961 C   0  0  0  0  0  0  0  0  0  0  0  0
    9.7925   -2.4144   21.9180 H   0  0  0  0  0  0  0  0  0  0  0  0
    8.5000   -1.3151   20.6977 O   0  0  0  0  0  0  0  0  0  0  0  0
    5.4247    0.6643   20.1495 C   0  0  0  0  0  0  0  0  0  0  0  0
    4.9975    0.6551   21.1554 H   0  0  0  0  0  0  0  0  0  0  0  0
    4.8010    1.3117   19.0909 C   0  0  0  0  0  0  0  0  0  0  0  0
    3.8669    1.8491   19.2181 H   0  0  0  0  0  0  0  0  0  0  0  0
  1  2  1  0
  2  3  2  0
  3  4  1  0
  4  5  1  0
  4  6  2  0
  6  7  1  0
  7  8  2  0
  8  9  1  0
  9 10  1  0
 10 11  2  0
 11 12  1  0
 11 13  1  0
 13 14  1  0
 13 15  2  0
 15 16  1  0
 15 17  1  0
 17 18  1  0
 17 19  2  0
 19 20  1  0
  9 21  2  0
 21 22  1  0
 21 23  1  0
  6 24  1  0
 24 25  1  0
 24 26  2  0
 26 27  1  0
 26  2  1  0
 23  7  1  0
 19 10  1  0
M  END
>  <cnnaffinity>  (1) 
-5.15295

>  <filename>  (1) 
Clc1ccccc1-c1coc(-c2cccnc2)n1

$$$$
