
     RDKit          3D

 39 42  0  0  0  0  0  0  0  0999 V2000
    9.4020    2.2806   21.0654 Cl  0  0  0  0  0  0  0  0  0  0  0  0
    9.6663    2.1107   22.7661 C   0  0  0  0  0  0  0  0  0  0  0  0
   10.9151    2.4291   23.3027 C   0  0  0  0  0  0  0  0  0  0  0  0
   11.0749    2.2860   24.6761 C   0  0  0  0  0  0  0  0  0  0  0  0
   10.0852    1.9288   25.5031 N   0  0  0  0  0  0  0  0  0  0  0  0
    8.8959    1.6432   24.9609 C   0  0  0  0  0  0  0  0  0  0  0  0
    8.6209    1.6677   23.5868 C   0  0  0  0  0  0  0  0  0  0  0  0
    7.3074    1.1485   23.0006 C   0  0  0  0  0  0  0  0  0  0  0  0
    7.4558   -0.1812   22.3150 C   0  0  0  0  0  0  0  0  0  0  0  0
    7.9565   -1.2399   22.9294 N   0  0  0  0  0  0  0  0  0  0  0  0
    8.0338   -2.1712   21.9467 C   0  0  0  0  0  0  0  0  0  0  0  0
    8.5609   -3.5531   22.1305 C   0  0  0  0  0  0  0  0  0  0  0  0
    7.6336   -4.4920   22.8970 C   0  0  0  0  0  0  0  0  0  0  0  0
    7.5296   -4.3899   24.3926 C   0  0  0  0  0  0  0  0  0  0  0  0
    8.2487   -5.5495   23.7649 C   0  0  0  0  0  0  0  0  0  0  0  0
    9.3333   -5.5678   23.8216 H   0  0  0  0  0  0  0  0  0  0  0  0
    7.7988   -6.5348   23.7830 H   0  0  0  0  0  0  0  0  0  0  0  0
    8.1211   -3.6151   24.8754 H   0  0  0  0  0  0  0  0  0  0  0  0
    6.5635   -4.5682   24.8604 H   0  0  0  0  0  0  0  0  0  0  0  0
    6.7120   -4.7491   22.3726 H   0  0  0  0  0  0  0  0  0  0  0  0
    8.7475   -3.9445   21.1265 H   0  0  0  0  0  0  0  0  0  0  0  0
    9.5267   -3.4689   22.6433 H   0  0  0  0  0  0  0  0  0  0  0  0
    7.6143   -1.7587   20.7696 N   0  0  0  0  0  0  0  0  0  0  0  0
    7.1914   -0.4907   21.0054 N   0  0  0  0  0  0  0  0  0  0  0  0
    6.5540    0.2063   19.9405 C   0  0  0  0  0  0  0  0  0  0  0  0
    5.3475    0.9028   20.0912 C   0  0  0  0  0  0  0  0  0  0  0  0
    4.7690    1.4603   18.9426 C   0  0  0  0  0  0  0  0  0  0  0  0
    5.4247    1.3350   17.7131 C   0  0  0  0  0  0  0  0  0  0  0  0
    6.5852    0.6715   17.5662 N   0  0  0  0  0  0  0  0  0  0  0  0
    7.1134    0.1043   18.6514 C   0  0  0  0  0  0  0  0  0  0  0  0
    8.0171   -0.4866   18.5150 H   0  0  0  0  0  0  0  0  0  0  0  0
    5.0229    1.7865   16.8085 H   0  0  0  0  0  0  0  0  0  0  0  0
    3.8303    2.0016   18.9875 H   0  0  0  0  0  0  0  0  0  0  0  0
    4.8480    0.9697   21.0598 H   0  0  0  0  0  0  0  0  0  0  0  0
    6.9021    1.8758   22.2952 H   0  0  0  0  0  0  0  0  0  0  0  0
    6.5798    1.0234   23.8086 H   0  0  0  0  0  0  0  0  0  0  0  0
    8.0984    1.3864   25.6625 H   0  0  0  0  0  0  0  0  0  0  0  0
   12.0305    2.5059   25.1500 H   0  0  0  0  0  0  0  0  0  0  0  0
   11.7254    2.7879   22.6791 H   0  0  0  0  0  0  0  0  0  0  0  0
  1  2  1  0
  2  3  2  0
  3  4  1  0
  4  5  2  0
  5  6  1  0
  6  7  2  0
  7  8  1  0
  8  9  1  0
  9 10  2  0
 10 11  1  0
 11 12  1  0
 12 13  1  0
 13 14  1  0
 14 15  1  0
 15 16  1  0
 15 17  1  0
 14 18  1  0
 14 19  1  0
 13 20  1  0
 12 21  1  0
 12 22  1  0
 11 23  2  0
 23 24  1  0
 24 25  1  0
 25 26  2  0
 26 27  1  0
 27 28  2  0
 28 29  1  0
 29 30  2  0
 30 31  1  0
 28 32  1  0
 27 33  1  0
 26 34  1  0
  8 35  1  0
  8 36  1  0
  6 37  1  0
  4 38  1  0
  3 39  1  0
  7  2  1  0
 24  9  1  0
 30 25  1  0
 15 13  1  0
M  END
>  <cnnaffinity>  (1) 
-5.85879

>  <filename>  (1) 
Clc1ccncc1Cc1nc(CC2CC2)nn1-c1cccnc1

$$$$
