
     RDKit          3D

 28 30  0  0  0  0  0  0  0  0999 V2000
    4.9267    1.8003   16.9839 H   0  0  0  0  0  0  0  0  0  0  0  0
    5.3939    1.2959   17.8270 C   0  0  0  0  0  0  0  0  0  0  0  0
    6.5537    0.6795   17.5567 N   0  0  0  0  0  0  0  0  0  0  0  0
    7.1738    0.0650   18.5699 C   0  0  0  0  0  0  0  0  0  0  0  0
    8.1183   -0.4171   18.3260 H   0  0  0  0  0  0  0  0  0  0  0  0
    6.6823    0.0126   19.8882 C   0  0  0  0  0  0  0  0  0  0  0  0
    7.4263   -0.6913   20.9503 C   0  0  0  0  0  0  0  0  0  0  0  0
    9.1288   -1.0363   20.8943 S   0  0  0  0  0  0  0  0  0  0  0  0
    9.0819   -1.8009   22.4360 C   0  0  0  0  0  0  0  0  0  0  0  0
    9.9736   -2.2302   22.8743 H   0  0  0  0  0  0  0  0  0  0  0  0
    7.8336   -1.8138   22.9801 C   0  0  0  0  0  0  0  0  0  0  0  0
    7.4616   -2.3902   24.3086 C   0  0  0  0  0  0  0  0  0  0  0  0
    6.7109   -1.6116   25.2149 C   0  0  0  0  0  0  0  0  0  0  0  0
    6.4102   -0.6189   24.8861 H   0  0  0  0  0  0  0  0  0  0  0  0
    6.3641   -2.0770   26.4852 C   0  0  0  0  0  0  0  0  0  0  0  0
    5.7938   -1.4442   27.1635 H   0  0  0  0  0  0  0  0  0  0  0  0
    6.7506   -3.3647   26.8787 C   0  0  0  0  0  0  0  0  0  0  0  0
    6.4876   -3.7520   27.8613 H   0  0  0  0  0  0  0  0  0  0  0  0
    7.4688   -4.1744   25.9959 C   0  0  0  0  0  0  0  0  0  0  0  0
    7.7859   -5.1792   26.2663 H   0  0  0  0  0  0  0  0  0  0  0  0
    7.8060   -3.6950   24.7252 C   0  0  0  0  0  0  0  0  0  0  0  0
    8.6324   -4.8178   23.6744 Cl  0  0  0  0  0  0  0  0  0  0  0  0
    6.9028   -1.1681   22.1103 C   0  0  0  0  0  0  0  0  0  0  0  0
    5.8579   -1.0844   22.3314 H   0  0  0  0  0  0  0  0  0  0  0  0
    5.4543    0.6494   20.1444 C   0  0  0  0  0  0  0  0  0  0  0  0
    5.0226    0.6542   21.1469 H   0  0  0  0  0  0  0  0  0  0  0  0
    4.8076    1.3073   19.0966 C   0  0  0  0  0  0  0  0  0  0  0  0
    3.8777    1.8370   19.2457 H   0  0  0  0  0  0  0  0  0  0  0  0
  1  2  1  0
  2  3  2  0
  3  4  1  0
  4  5  1  0
  4  6  2  0
  6  7  1  0
  7  8  1  0
  8  9  1  0
  9 10  1  0
  9 11  2  0
 11 12  1  0
 12 13  2  0
 13 14  1  0
 13 15  1  0
 15 16  1  0
 15 17  2  0
 17 18  1  0
 17 19  1  0
 19 20  1  0
 19 21  2  0
 21 22  1  0
 11 23  1  0
 23 24  1  0
  6 25  1  0
 25 26  1  0
 25 27  2  0
 27 28  1  0
 27  2  1  0
 23  7  2  0
 21 12  1  0
M  END
>  <cnnaffinity>  (1) 
-5.29464

>  <filename>  (1) 
Clc1ccccc1-c1csc(-c2cccnc2)c1

$$$$
