
     RDKit          3D

 40 44  0  0  0  0  0  0  0  0999 V2000
   12.2508   -1.5096   21.2327 Cl  0  0  0  0  0  0  0  0  0  0  0  0
   11.8975    0.0156   21.9929 C   0  0  0  0  0  0  0  0  0  0  0  0
   12.7860    0.4024   22.8962 N   0  0  0  0  0  0  0  0  0  0  0  0
   12.5466    1.5442   23.5530 C   0  0  0  0  0  0  0  0  0  0  0  0
   11.4229    2.3356   23.3154 C   0  0  0  0  0  0  0  0  0  0  0  0
   10.5062    1.9182   22.3443 C   0  0  0  0  0  0  0  0  0  0  0  0
   10.7193    0.7214   21.6488 C   0  0  0  0  0  0  0  0  0  0  0  0
    9.6540    0.2125   20.6937 C   0  0  0  0  0  0  0  0  0  0  0  0
    8.5896   -0.6101   21.3480 C   0  0  0  0  0  0  0  0  0  0  0  0
    8.7989   -1.4472   22.3340 N   0  0  0  0  0  0  0  0  0  0  0  0
    7.5756   -1.9945   22.5482 C   0  0  0  0  0  0  0  0  0  0  0  0
    7.4836   -2.9236   23.7050 C   0  0  0  0  0  0  0  0  0  0  0  0
    8.2819   -4.1867   23.6147 C   0  0  0  0  0  0  0  0  0  0  0  0
    6.7374   -4.2686   23.7651 C   0  0  0  0  0  0  0  0  0  0  0  0
    5.3003   -4.2887   24.2719 C   0  0  0  0  0  0  0  0  0  0  0  0
    6.0428   -5.5802   24.1305 C   0  0  0  0  0  0  0  0  0  0  0  0
    6.4011   -6.0801   25.0311 H   0  0  0  0  0  0  0  0  0  0  0  0
    5.7464   -6.2314   23.3115 H   0  0  0  0  0  0  0  0  0  0  0  0
    5.1220   -3.8733   25.2666 H   0  0  0  0  0  0  0  0  0  0  0  0
    4.5210   -4.0889   23.5378 H   0  0  0  0  0  0  0  0  0  0  0  0
    8.8916   -4.5150   24.4637 H   0  0  0  0  0  0  0  0  0  0  0  0
    8.7232   -4.4070   22.6389 H   0  0  0  0  0  0  0  0  0  0  0  0
    7.5216   -2.3715   24.6476 H   0  0  0  0  0  0  0  0  0  0  0  0
    6.6246   -1.5686   21.7413 N   0  0  0  0  0  0  0  0  0  0  0  0
    7.2881   -0.6928   20.9332 N   0  0  0  0  0  0  0  0  0  0  0  0
    6.6174   -0.0102   19.8805 C   0  0  0  0  0  0  0  0  0  0  0  0
    5.4062    0.6432   20.1310 C   0  0  0  0  0  0  0  0  0  0  0  0
    4.7913    1.3246   19.0783 C   0  0  0  0  0  0  0  0  0  0  0  0
    5.3919    1.3119   17.8130 C   0  0  0  0  0  0  0  0  0  0  0  0
    6.5411    0.6688   17.5588 N   0  0  0  0  0  0  0  0  0  0  0  0
    7.1358    0.0313   18.5725 C   0  0  0  0  0  0  0  0  0  0  0  0
    8.0761   -0.4650   18.3354 H   0  0  0  0  0  0  0  0  0  0  0  0
    4.9354    1.8336   16.9738 H   0  0  0  0  0  0  0  0  0  0  0  0
    3.8625    1.8642   19.2264 H   0  0  0  0  0  0  0  0  0  0  0  0
    4.9773    0.6042   21.1323 H   0  0  0  0  0  0  0  0  0  0  0  0
    9.1843    1.0555   20.1830 H   0  0  0  0  0  0  0  0  0  0  0  0
   10.0914   -0.4446   19.9365 H   0  0  0  0  0  0  0  0  0  0  0  0
    9.6166    2.5140   22.1342 H   0  0  0  0  0  0  0  0  0  0  0  0
   11.2683    3.2437   23.8840 H   0  0  0  0  0  0  0  0  0  0  0  0
   13.2846    1.8216   24.3039 H   0  0  0  0  0  0  0  0  0  0  0  0
  1  2  1  0
  2  3  2  0
  3  4  1  0
  4  5  2  0
  5  6  1  0
  6  7  2  0
  7  8  1  0
  8  9  1  0
  9 10  2  0
 10 11  1  0
 11 12  1  0
 12 13  1  0
 13 14  1  0
 14 15  1  0
 15 16  1  0
 16 17  1  0
 16 18  1  0
 15 19  1  0
 15 20  1  0
 13 21  1  0
 13 22  1  0
 12 23  1  0
 11 24  2  0
 24 25  1  0
 25 26  1  0
 26 27  2  0
 27 28  1  0
 28 29  2  0
 29 30  1  0
 30 31  2  0
 31 32  1  0
 29 33  1  0
 28 34  1  0
 27 35  1  0
  8 36  1  0
  8 37  1  0
  6 38  1  0
  5 39  1  0
  4 40  1  0
  7  2  1  0
 25  9  1  0
 31 26  1  0
 14 12  1  0
 16 14  1  0
M  END
>  <cnnaffinity>  (1) 
-6.72016

>  <filename>  (1) 
Clc1ncccc1Cc1nc(C2CC23CC3)nn1-c1cccnc1

$$$$
