
     RDKit          3D

 40 43  0  0  0  0  0  0  0  0999 V2000
    6.2361    3.7284   29.2801 Cl  0  0  0  0  0  0  0  0  0  0  0  0
    6.5319    3.0054   27.7254 C   0  0  0  0  0  0  0  0  0  0  0  0
    5.6397    2.0355   27.2430 C   0  0  0  0  0  0  0  0  0  0  0  0
    5.8885    1.4729   25.9932 C   0  0  0  0  0  0  0  0  0  0  0  0
    7.0216    1.9146   25.2825 C   0  0  0  0  0  0  0  0  0  0  0  0
    7.4675    1.4200   23.9779 C   0  0  0  0  0  0  0  0  0  0  0  0
    6.8818    0.4775   23.2654 N   0  0  0  0  0  0  0  0  0  0  0  0
    7.7149    0.3263   22.2024 N   0  0  0  0  0  0  0  0  0  0  0  0
    7.3971   -0.5937   21.1127 C   0  0  0  0  0  0  0  0  0  0  0  0
    6.7012    0.0701   19.9334 C   0  0  0  0  0  0  0  0  0  0  0  0
    5.4880    0.7436   20.1250 C   0  0  0  0  0  0  0  0  0  0  0  0
    4.8786    1.3471   19.0240 C   0  0  0  0  0  0  0  0  0  0  0  0
    5.4965    1.2597   17.7739 C   0  0  0  0  0  0  0  0  0  0  0  0
    6.6524    0.6136   17.5655 N   0  0  0  0  0  0  0  0  0  0  0  0
    7.2278    0.0414   18.6317 C   0  0  0  0  0  0  0  0  0  0  0  0
    8.1653   -0.4779   18.4294 H   0  0  0  0  0  0  0  0  0  0  0  0
    5.0467    1.7317   16.9031 H   0  0  0  0  0  0  0  0  0  0  0  0
    3.9501    1.8952   19.1229 H   0  0  0  0  0  0  0  0  0  0  0  0
    5.0491    0.8001   21.1238 H   0  0  0  0  0  0  0  0  0  0  0  0
    8.3247   -1.0778   20.7826 H   0  0  0  0  0  0  0  0  0  0  0  0
    6.7673   -1.3714   21.5570 H   0  0  0  0  0  0  0  0  0  0  0  0
    8.7441    1.1903   22.3200 C   0  0  0  0  0  0  0  0  0  0  0  0
    9.9050    1.2904   21.3776 C   0  0  0  0  0  0  0  0  0  0  0  0
   11.0535    0.3628   21.6585 C   0  0  0  0  0  0  0  0  0  0  0  0
   12.0316    0.4804   22.6159 C   0  0  0  0  0  0  0  0  0  0  0  0
   12.9254   -0.6194   22.4644 C   0  0  0  0  0  0  0  0  0  0  0  0
   12.4567   -1.3812   21.4274 C   0  0  0  0  0  0  0  0  0  0  0  0
   11.3063   -0.7869   20.9626 N   0  0  0  0  0  0  0  0  0  0  0  0
   10.8070   -1.0777   20.1351 H   0  0  0  0  0  0  0  0  0  0  0  0
   12.8571   -2.2701   20.9585 H   0  0  0  0  0  0  0  0  0  0  0  0
   13.8540   -0.7982   22.9999 H   0  0  0  0  0  0  0  0  0  0  0  0
   12.1096    1.2891   23.3331 H   0  0  0  0  0  0  0  0  0  0  0  0
   10.2575    2.3198   21.4775 H   0  0  0  0  0  0  0  0  0  0  0  0
    9.5475    1.1698   20.3535 H   0  0  0  0  0  0  0  0  0  0  0  0
    8.6113    1.9016   23.4156 N   0  0  0  0  0  0  0  0  0  0  0  0
    7.8427    2.8783   25.8809 C   0  0  0  0  0  0  0  0  0  0  0  0
    7.6041    3.4231   27.0770 N   0  0  0  0  0  0  0  0  0  0  0  0
    8.7353    3.2189   25.3649 H   0  0  0  0  0  0  0  0  0  0  0  0
    5.2322    0.7012   25.5823 H   0  0  0  0  0  0  0  0  0  0  0  0
    4.7980    1.7412   27.8544 H   0  0  0  0  0  0  0  0  0  0  0  0
  1  2  1  0
  2  3  2  0
  3  4  1  0
  4  5  2  0
  5  6  1  0
  6  7  2  0
  7  8  1  0
  8  9  1  0
  9 10  1  0
 10 11  2  0
 11 12  1  0
 12 13  2  0
 13 14  1  0
 14 15  2  0
 15 16  1  0
 13 17  1  0
 12 18  1  0
 11 19  1  0
  9 20  1  0
  9 21  1  0
  8 22  1  0
 22 23  1  0
 23 24  1  0
 24 25  2  0
 25 26  1  0
 26 27  2  0
 27 28  1  0
 28 29  1  0
 27 30  1  0
 26 31  1  0
 25 32  1  0
 23 33  1  0
 23 34  1  0
 22 35  2  0
  5 36  1  0
 36 37  2  0
 36 38  1  0
  4 39  1  0
  3 40  1  0
 37  2  1  0
 35  6  1  0
 15 10  1  0
 28 24  1  0
M  END
>  <cnnaffinity>  (1) 
-5.99541

>  <filename>  (1) 
Clc1ccc(-c2nc(Cc3ccc[nH]3)n(Cc3cccnc3)n2)cn1

$$$$
