
     RDKit          3D

 32 34  0  0  0  0  0  0  0  0999 V2000
    9.3950    0.9109   20.1929 H   0  0  0  0  0  0  0  0  0  0  0  0
    9.6726    0.0929   20.8520 C   0  0  0  0  0  0  0  0  0  0  0  0
    8.7430   -0.7835   21.2636 C   0  0  0  0  0  0  0  0  0  0  0  0
    7.2869   -0.8002   20.9857 C   0  0  0  0  0  0  0  0  0  0  0  0
    6.6168   -0.0234   19.9162 C   0  0  0  0  0  0  0  0  0  0  0  0
    7.1801    0.0305   18.6368 C   0  0  0  0  0  0  0  0  0  0  0  0
    8.1315   -0.4633   18.4406 H   0  0  0  0  0  0  0  0  0  0  0  0
    6.6218    0.6648   17.5977 N   0  0  0  0  0  0  0  0  0  0  0  0
    5.4604    1.2991   17.8159 C   0  0  0  0  0  0  0  0  0  0  0  0
    5.0172    1.8110   16.9623 H   0  0  0  0  0  0  0  0  0  0  0  0
    4.8179    1.3214   19.0590 C   0  0  0  0  0  0  0  0  0  0  0  0
    3.8893    1.8717   19.1720 H   0  0  0  0  0  0  0  0  0  0  0  0
    5.3975    0.6408   20.1289 C   0  0  0  0  0  0  0  0  0  0  0  0
    4.9263    0.6302   21.1123 H   0  0  0  0  0  0  0  0  0  0  0  0
    6.6258   -1.5619   21.7795 N   0  0  0  0  0  0  0  0  0  0  0  0
    7.5351   -2.1613   22.7615 C   0  0  0  0  0  0  0  0  0  0  0  0
    7.3676   -3.2385   22.8207 H   0  0  0  0  0  0  0  0  0  0  0  0
    7.3126   -1.7362   23.7461 H   0  0  0  0  0  0  0  0  0  0  0  0
    8.9753   -1.8198   22.3337 C   0  0  0  0  0  0  0  0  0  0  0  0
    9.4854   -2.7026   21.9342 H   0  0  0  0  0  0  0  0  0  0  0  0
    9.5812   -1.4068   23.1445 H   0  0  0  0  0  0  0  0  0  0  0  0
   11.0784    0.1232   21.3138 C   0  0  0  0  0  0  0  0  0  0  0  0
   11.6338    1.3390   21.7564 C   0  0  0  0  0  0  0  0  0  0  0  0
   11.0444    2.2481   21.6986 H   0  0  0  0  0  0  0  0  0  0  0  0
   12.9128    1.3505   22.3212 C   0  0  0  0  0  0  0  0  0  0  0  0
   13.5336    2.8044   23.0495 Cl  0  0  0  0  0  0  0  0  0  0  0  0
   13.7160    0.2049   22.3385 C   0  0  0  0  0  0  0  0  0  0  0  0
   14.7100    0.2240   22.7729 H   0  0  0  0  0  0  0  0  0  0  0  0
   13.1929   -0.9605   21.7774 C   0  0  0  0  0  0  0  0  0  0  0  0
   14.2168   -2.3300   21.5280 Cl  0  0  0  0  0  0  0  0  0  0  0  0
   11.8736   -1.0320   21.3377 C   0  0  0  0  0  0  0  0  0  0  0  0
   11.4753   -1.9859   21.0208 H   0  0  0  0  0  0  0  0  0  0  0  0
  1  2  1  0
  2  3  2  3
  3  4  1  0
  4  5  1  0
  5  6  2  0
  6  7  1  0
  6  8  1  0
  8  9  2  0
  9 10  1  0
  9 11  1  0
 11 12  1  0
 11 13  2  0
 13 14  1  0
  4 15  2  0
 15 16  1  0
 16 17  1  0
 16 18  1  0
 16 19  1  0
 19 20  1  0
 19 21  1  0
  2 22  1  0
 22 23  2  0
 23 24  1  0
 23 25  1  0
 25 26  1  0
 25 27  2  0
 27 28  1  0
 27 29  1  0
 29 30  1  0
 29 31  2  0
 31 32  1  0
 19  3  1  0
 31 22  1  0
 13  5  1  0
M  END
>  <cnnaffinity>  (1) 
-6.24178

>  <filename>  (1) 
Clc1cc(Cl)cc(C=C2CCN=C2c2cccnc2)c1

$$$$
