
     RDKit          3D

 49 51  0  0  0  0  0  0  0  0999 V2000
    5.8773   -2.7102   21.0727 C   0  0  0  0  0  0  0  0  0  0  0  0
    6.2698   -2.0779   22.3008 N   0  0  0  0  0  0  0  0  0  0  0  0
    6.3174   -2.8499   24.7482 C   0  0  0  0  0  0  0  0  0  0  0  0
    6.1089   -2.9189   24.9375 C   0  0  0  0  0  0  0  0  0  0  0  0
    6.4722   -4.3022   24.5220 N   0  0  0  0  0  0  0  0  0  0  0  0
    7.8347   -4.6009   24.0322 C   0  0  0  0  0  0  0  0  0  0  0  0
    8.5904   -4.0383   24.6005 H   0  0  0  0  0  0  0  0  0  0  0  0
    8.0335   -5.6743   24.1419 H   0  0  0  0  0  0  0  0  0  0  0  0
    7.9642   -4.3193   22.9660 H   0  0  0  0  0  0  0  0  0  0  0  0
    5.4454   -5.1005   23.9479 C   0  0  0  0  0  0  0  0  0  0  0  0
    5.5455   -5.6342   22.6428 C   0  0  0  0  0  0  0  0  0  0  0  0
    4.5789   -6.5068   22.1245 C   0  0  0  0  0  0  0  0  0  0  0  0
    3.4818   -6.8861   22.9002 C   0  0  0  0  0  0  0  0  0  0  0  0
    3.3541   -6.3860   24.2008 C   0  0  0  0  0  0  0  0  0  0  0  0
    4.3201   -5.5150   24.7087 C   0  0  0  0  0  0  0  0  0  0  0  0
    4.2416   -5.1205   25.7177 H   0  0  0  0  0  0  0  0  0  0  0  0
    2.5096   -6.6677   24.8225 H   0  0  0  0  0  0  0  0  0  0  0  0
    2.7367   -7.5703   22.5039 H   0  0  0  0  0  0  0  0  0  0  0  0
    4.6979   -6.9073   21.1186 H   0  0  0  0  0  0  0  0  0  0  0  0
    6.3911   -5.3428   22.0328 H   0  0  0  0  0  0  0  0  0  0  0  0
    5.0663   -3.0285   26.1955 H   0  0  0  0  0  0  0  0  0  0  0  0
    7.0234   -2.9141   25.7520 H   0  0  0  0  0  0  0  0  0  0  0  0
    5.3089   -2.6453   24.0564 H   0  0  0  0  0  0  0  0  0  0  0  0
    6.0310   -1.6218   25.0306 H   0  0  0  0  0  0  0  0  0  0  0  0
    6.7671   -0.8356   22.2600 C   0  0  0  0  0  0  0  0  0  0  0  0
    6.5708   -0.0112   23.1632 O   0  0  0  0  0  0  0  0  0  0  0  0
    7.6842   -0.3574   21.0245 C   0  0  0  0  0  0  0  0  0  0  0  0
    6.8346    0.2238   19.8864 C   0  0  0  0  0  0  0  0  0  0  0  0
    5.5712    0.7831   20.1436 C   0  0  0  0  0  0  0  0  0  0  0  0
    4.8690    1.3949   19.1014 C   0  0  0  0  0  0  0  0  0  0  0  0
    5.4488    1.4383   17.8301 C   0  0  0  0  0  0  0  0  0  0  0  0
    6.6505    0.9114   17.5527 N   0  0  0  0  0  0  0  0  0  0  0  0
    7.3187    0.3385   18.5621 C   0  0  0  0  0  0  0  0  0  0  0  0
    8.2960   -0.0604   18.2947 H   0  0  0  0  0  0  0  0  0  0  0  0
    4.9315    1.9204   17.0026 H   0  0  0  0  0  0  0  0  0  0  0  0
    3.8975    1.8471   19.2659 H   0  0  0  0  0  0  0  0  0  0  0  0
    5.1534    0.7465   21.1525 H   0  0  0  0  0  0  0  0  0  0  0  0
    8.8118   -1.3841   20.6656 C   0  0  0  0  0  0  0  0  0  0  0  0
    9.8338   -0.5481   21.4651 C   0  0  0  0  0  0  0  0  0  0  0  0
    8.8151    0.6074   21.5367 C   0  0  0  0  0  0  0  0  0  0  0  0
    8.6377    1.0589   22.5170 H   0  0  0  0  0  0  0  0  0  0  0  0
    9.0180    1.4077   20.8193 H   0  0  0  0  0  0  0  0  0  0  0  0
   10.0614   -0.9748   22.4465 H   0  0  0  0  0  0  0  0  0  0  0  0
   10.7819   -0.3415   20.9603 H   0  0  0  0  0  0  0  0  0  0  0  0
    9.0301   -1.4155   19.5986 H   0  0  0  0  0  0  0  0  0  0  0  0
    8.6772   -2.4178   21.0039 H   0  0  0  0  0  0  0  0  0  0  0  0
    5.0076   -3.3488   21.2721 H   0  0  0  0  0  0  0  0  0  0  0  0
    6.6541   -3.3806   20.6713 H   0  0  0  0  0  0  0  0  0  0  0  0
    5.5734   -2.0392   20.2450 H   0  0  0  0  0  0  0  0  0  0  0  0
  1  2  1  0
  2  3  1  0
  3  4  1  0
  4  5  1  0
  5  6  1  0
  6  7  1  0
  6  8  1  0
  6  9  1  0
  5 10  1  0
 10 11  2  0
 11 12  1  0
 12 13  2  0
 13 14  1  0
 14 15  2  0
 15 16  1  0
 14 17  1  0
 13 18  1  0
 12 19  1  0
 11 20  1  0
  4 21  1  0
  4 22  1  0
  3 23  1  0
  3 24  1  0
  2 25  1  0
 25 26  2  0
 25 27  1  0
 27 28  1  0
 28 29  2  0
 29 30  1  0
 30 31  2  0
 31 32  1  0
 32 33  2  0
 33 34  1  0
 31 35  1  0
 30 36  1  0
 29 37  1  0
 27 38  1  0
 38 39  1  0
 39 40  1  0
 40 41  1  0
 40 42  1  0
 39 43  1  0
 39 44  1  0
 38 45  1  0
 38 46  1  0
  1 47  1  0
  1 48  1  0
  1 49  1  0
 15 10  1  0
 40 27  1  0
 33 28  1  0
M  END
>  <cnnaffinity>  (1) 
-5.36552

>  <filename>  (1) 
CN(CCN(C)c1ccccc1)C(=O)C1(c2cccnc2)CCC1

$$$$
