
     RDKit          3D

 33 34  0  0  0  0  0  0  0  0999 V2000
    7.6945   -1.7530   20.6815 H   0  0  0  0  0  0  0  0  0  0  0  0
    7.3960   -0.7317   20.9360 C   0  0  0  0  0  0  0  0  0  0  0  0
    7.7526   -0.1802   22.1057 C   0  0  0  0  0  0  0  0  0  0  0  0
    8.5264   -0.8194   23.1790 C   0  0  0  0  0  0  0  0  0  0  0  0
    8.8723   -2.3023   23.1376 C   0  0  0  0  0  0  0  0  0  0  0  0
    9.4653   -2.5061   22.2339 H   0  0  0  0  0  0  0  0  0  0  0  0
    9.5477   -2.5027   23.9839 H   0  0  0  0  0  0  0  0  0  0  0  0
    7.6899   -3.1795   23.1715 N   0  0  0  0  0  0  0  0  0  0  0  0
    8.0297   -4.5413   22.7958 C   0  0  0  0  0  0  0  0  0  0  0  0
    7.1330   -5.1677   22.8158 H   0  0  0  0  0  0  0  0  0  0  0  0
    8.7860   -4.9912   23.4659 H   0  0  0  0  0  0  0  0  0  0  0  0
    8.4165   -4.5622   21.7731 H   0  0  0  0  0  0  0  0  0  0  0  0
    7.0664   -3.1510   24.4935 C   0  0  0  0  0  0  0  0  0  0  0  0
    7.7398   -3.5318   25.2844 H   0  0  0  0  0  0  0  0  0  0  0  0
    6.1577   -3.7587   24.4969 H   0  0  0  0  0  0  0  0  0  0  0  0
    6.7808   -2.1316   24.7675 H   0  0  0  0  0  0  0  0  0  0  0  0
    8.8686   -0.0469   24.1348 N   0  0  0  0  0  0  0  0  0  0  0  0
    8.3488    1.3003   23.8547 C   0  0  0  0  0  0  0  0  0  0  0  0
    7.7238    1.6120   24.6904 H   0  0  0  0  0  0  0  0  0  0  0  0
    9.1943    1.9829   23.7902 H   0  0  0  0  0  0  0  0  0  0  0  0
    7.5541    1.2520   22.5335 C   0  0  0  0  0  0  0  0  0  0  0  0
    7.9411    1.9403   21.7762 H   0  0  0  0  0  0  0  0  0  0  0  0
    6.4966    1.4875   22.6867 H   0  0  0  0  0  0  0  0  0  0  0  0
    6.6461   -0.0073   19.8904 C   0  0  0  0  0  0  0  0  0  0  0  0
    7.1603    0.0534   18.5833 C   0  0  0  0  0  0  0  0  0  0  0  0
    8.1133   -0.4283   18.3737 H   0  0  0  0  0  0  0  0  0  0  0  0
    6.5668    0.6835   17.5648 N   0  0  0  0  0  0  0  0  0  0  0  0
    5.4008    1.2966   17.8340 C   0  0  0  0  0  0  0  0  0  0  0  0
    4.9117    1.7823   16.9952 H   0  0  0  0  0  0  0  0  0  0  0  0
    4.8010    1.3142   19.0992 C   0  0  0  0  0  0  0  0  0  0  0  0
    3.8686    1.8468   19.2595 H   0  0  0  0  0  0  0  0  0  0  0  0
    5.4376    0.6555   20.1488 C   0  0  0  0  0  0  0  0  0  0  0  0
    5.0110    0.6235   21.1561 H   0  0  0  0  0  0  0  0  0  0  0  0
  1  2  1  0
  2  3  2  3
  3  4  1  0
  4  5  1  0
  5  6  1  0
  5  7  1  0
  5  8  1  0
  8  9  1  0
  9 10  1  0
  9 11  1  0
  9 12  1  0
  8 13  1  0
 13 14  1  0
 13 15  1  0
 13 16  1  0
  4 17  2  0
 17 18  1  0
 18 19  1  0
 18 20  1  0
 18 21  1  0
 21 22  1  0
 21 23  1  0
  2 24  1  0
 24 25  2  0
 25 26  1  0
 25 27  1  0
 27 28  2  0
 28 29  1  0
 28 30  1  0
 30 31  1  0
 30 32  2  0
 32 33  1  0
 21  3  1  0
 32 24  1  0
M  END
>  <cnnaffinity>  (1) 
-4.66222

>  <filename>  (1) 
CN(C)CC1=NCCC1=Cc1cccnc1

$$$$
