
     RDKit          3D

 35 37  0  0  0  0  0  0  0  0999 V2000
    4.9499    1.8223   16.9919 H   0  0  0  0  0  0  0  0  0  0  0  0
    5.3932    1.2880   17.8287 C   0  0  0  0  0  0  0  0  0  0  0  0
    6.5463    0.6493   17.5842 N   0  0  0  0  0  0  0  0  0  0  0  0
    7.1313    0.0356   18.6173 C   0  0  0  0  0  0  0  0  0  0  0  0
    8.0889   -0.4427   18.4149 H   0  0  0  0  0  0  0  0  0  0  0  0
    6.5920   -0.0161   19.9178 C   0  0  0  0  0  0  0  0  0  0  0  0
    7.3132   -0.7605   21.0092 C   0  0  0  0  0  0  0  0  0  0  0  0
    6.5812   -1.5620   21.7443 N   0  0  0  0  0  0  0  0  0  0  0  0
    7.1891   -2.2581   22.7513 N   0  0  0  0  0  0  0  0  0  0  0  0
    6.3772   -2.9935   23.5506 N   0  0  0  0  0  0  0  0  0  0  0  0
    5.4280   -3.8796   22.9757 C   0  0  0  0  0  0  0  0  0  0  0  0
    4.2287   -4.2008   23.6439 C   0  0  0  0  0  0  0  0  0  0  0  0
    3.9745   -3.6771   24.5594 H   0  0  0  0  0  0  0  0  0  0  0  0
    3.3715   -5.1697   23.1222 C   0  0  0  0  0  0  0  0  0  0  0  0
    2.4363   -5.3852   23.6384 H   0  0  0  0  0  0  0  0  0  0  0  0
    3.7411   -5.8615   21.9693 C   0  0  0  0  0  0  0  0  0  0  0  0
    3.1258   -6.6781   21.6069 H   0  0  0  0  0  0  0  0  0  0  0  0
    4.9263   -5.5346   21.2920 C   0  0  0  0  0  0  0  0  0  0  0  0
    5.1895   -6.0517   20.3732 H   0  0  0  0  0  0  0  0  0  0  0  0
    5.7607   -4.5261   21.7711 C   0  0  0  0  0  0  0  0  0  0  0  0
    6.6835   -4.2179   21.2827 H   0  0  0  0  0  0  0  0  0  0  0  0
    6.3248   -2.6854   24.9811 C   0  0  0  0  0  0  0  0  0  0  0  0
    6.2657   -3.6271   25.5306 H   0  0  0  0  0  0  0  0  0  0  0  0
    7.2192   -2.1389   25.2948 H   0  0  0  0  0  0  0  0  0  0  0  0
    5.4508   -2.0616   25.1967 H   0  0  0  0  0  0  0  0  0  0  0  0
    8.5273   -2.1672   23.0282 C   0  0  0  0  0  0  0  0  0  0  0  0
    8.8199   -2.8087   23.8552 H   0  0  0  0  0  0  0  0  0  0  0  0
    9.3470   -1.4146   22.2919 C   0  0  0  0  0  0  0  0  0  0  0  0
   10.4052   -1.3168   22.4875 H   0  0  0  0  0  0  0  0  0  0  0  0
    8.7931   -0.6200   21.2215 C   0  0  0  0  0  0  0  0  0  0  0  0
    9.5258    0.1098   20.5522 O   0  0  0  0  0  0  0  0  0  0  0  0
    5.3711    0.6389   20.1465 C   0  0  0  0  0  0  0  0  0  0  0  0
    4.9157    0.6119   21.1368 H   0  0  0  0  0  0  0  0  0  0  0  0
    4.7729    1.3150   19.0822 C   0  0  0  0  0  0  0  0  0  0  0  0
    3.8548    1.8768   19.2174 H   0  0  0  0  0  0  0  0  0  0  0  0
  1  2  1  0
  2  3  2  0
  3  4  1  0
  4  5  1  0
  4  6  2  0
  6  7  1  0
  7  8  2  0
  8  9  1  0
  9 10  1  0
 10 11  1  0
 11 12  2  0
 12 13  1  0
 12 14  1  0
 14 15  1  0
 14 16  2  0
 16 17  1  0
 16 18  1  0
 18 19  1  0
 18 20  2  0
 20 21  1  0
 10 22  1  0
 22 23  1  0
 22 24  1  0
 22 25  1  0
  9 26  1  0
 26 27  1  0
 26 28  2  0
 28 29  1  0
 28 30  1  0
 30 31  2  0
  6 32  1  0
 32 33  1  0
 32 34  2  0
 34 35  1  0
 34  2  1  0
 30  7  1  0
 20 11  1  0
M  END
>  <cnnaffinity>  (1) 
-4.97221

>  <filename>  (1) 
CN(c1ccccc1)n1ccc(=O)c(-c2cccnc2)n1

$$$$
