
     RDKit          3D

 37 38  0  0  0  0  0  0  0  0999 V2000
    5.3046    2.2696   17.0552 H   0  0  0  0  0  0  0  0  0  0  0  0
    5.6034    1.5206   17.7954 C   0  0  0  0  0  0  0  0  0  0  0  0
    6.7398    0.8509   17.5509 N   0  0  0  0  0  0  0  0  0  0  0  0
    7.1402   -0.0502   18.4596 C   0  0  0  0  0  0  0  0  0  0  0  0
    8.0846   -0.5470   18.2374 H   0  0  0  0  0  0  0  0  0  0  0  0
    6.4262   -0.3854   19.6379 C   0  0  0  0  0  0  0  0  0  0  0  0
    6.9953   -1.3522   20.6822 C   0  0  0  0  0  0  0  0  0  0  0  0
    7.0797   -0.8385   21.6469 H   0  0  0  0  0  0  0  0  0  0  0  0
    7.9885   -1.7067   20.3997 H   0  0  0  0  0  0  0  0  0  0  0  0
    6.1789   -2.9102   21.1076 S   0  0  0  0  0  0  0  0  0  0  0  0
    4.9191   -2.6797   21.7851 O   0  0  0  0  0  0  0  0  0  0  0  0
    6.2148   -3.8140   19.9738 O   0  0  0  0  0  0  0  0  0  0  0  0
    7.2833   -3.4934   22.2346 N   0  0  0  0  0  0  0  0  0  0  0  0
    7.3599   -4.9597   22.3636 C   0  0  0  0  0  0  0  0  0  0  0  0
    6.4651   -5.4547   21.9600 H   0  0  0  0  0  0  0  0  0  0  0  0
    8.2163   -5.3237   21.7825 H   0  0  0  0  0  0  0  0  0  0  0  0
    7.5475   -5.2551   23.8644 C   0  0  0  0  0  0  0  0  0  0  0  0
    8.4176   -5.9024   24.0071 H   0  0  0  0  0  0  0  0  0  0  0  0
    6.6915   -5.7860   24.2852 H   0  0  0  0  0  0  0  0  0  0  0  0
    7.7233   -3.9111   24.6221 C   0  0  1  0  0  0  0  0  0  0  0  0
    6.9595   -3.8210   25.4071 H   0  0  0  0  0  0  0  0  0  0  0  0
    9.0127   -3.7338   25.3193 N   0  0  0  0  0  0  0  0  0  0  0  0
   10.1930   -3.7540   24.4617 C   0  0  0  0  0  0  0  0  0  0  0  0
    9.9914   -3.2525   23.5087 H   0  0  0  0  0  0  0  0  0  0  0  0
   11.0152   -3.2092   24.9416 H   0  0  0  0  0  0  0  0  0  0  0  0
   10.5458   -4.7766   24.2345 H   0  0  0  0  0  0  0  0  0  0  0  0
    9.1606   -4.6260   26.4651 C   0  0  0  0  0  0  0  0  0  0  0  0
    8.3622   -4.4481   27.1957 H   0  0  0  0  0  0  0  0  0  0  0  0
   10.1144   -4.4354   26.9700 H   0  0  0  0  0  0  0  0  0  0  0  0
    9.1387   -5.6992   26.1986 H   0  0  0  0  0  0  0  0  0  0  0  0
    7.3807   -2.8271   23.5521 C   0  0  0  0  0  0  0  0  0  0  0  0
    6.4322   -2.3401   23.8133 H   0  0  0  0  0  0  0  0  0  0  0  0
    8.1585   -2.0514   23.5310 H   0  0  0  0  0  0  0  0  0  0  0  0
    5.2288    0.3136   19.8534 C   0  0  0  0  0  0  0  0  0  0  0  0
    4.6241    0.1167   20.7394 H   0  0  0  0  0  0  0  0  0  0  0  0
    4.8193    1.2822   18.9256 C   0  0  0  0  0  0  0  0  0  0  0  0
    3.9338    1.8841   19.0843 H   0  0  0  0  0  0  0  0  0  0  0  0
  1  2  1  0
  2  3  2  0
  3  4  1  0
  4  5  1  0
  4  6  2  0
  6  7  1  0
  7  8  1  0
  7  9  1  0
  7 10  1  0
 10 11  2  0
 10 12  2  0
 10 13  1  0
 13 14  1  0
 14 15  1  0
 14 16  1  0
 14 17  1  0
 17 18  1  0
 17 19  1  0
 17 20  1  0
 20 21  1  1
 20 22  1  0
 22 23  1  0
 23 24  1  0
 23 25  1  0
 23 26  1  0
 22 27  1  0
 27 28  1  0
 27 29  1  0
 27 30  1  0
 20 31  1  0
 31 32  1  0
 31 33  1  0
  6 34  1  0
 34 35  1  0
 34 36  2  0
 36 37  1  0
 36  2  1  0
 31 13  1  0
M  END
>  <cnnaffinity>  (1) 
-4.5188

>  <filename>  (1) 
CN(C)[C@@H]1CCN(S(=O)(=O)Cc2cccnc2)C1

$$$$
