
     RDKit          3D

 32 33  0  0  0  0  0  0  0  0999 V2000
    8.5890    1.4790   21.9827 C   0  0  0  0  0  0  0  0  0  0  0  0
    8.9085    0.0905   21.6297 N   0  0  0  0  0  0  0  0  0  0  0  0
    9.8306   -0.6199   22.5454 C   0  0  0  0  0  0  0  0  0  0  0  0
    9.2755   -0.7673   23.9456 C   0  0  0  0  0  0  0  0  0  0  0  0
    8.6262   -1.9506   24.3341 C   0  0  0  0  0  0  0  0  0  0  0  0
    8.5209   -3.4156   23.1018 Br  0  0  0  0  0  0  0  0  0  0  0  0
    8.0724   -2.0563   25.6193 C   0  0  0  0  0  0  0  0  0  0  0  0
    8.1828   -0.9928   26.5263 C   0  0  0  0  0  0  0  0  0  0  0  0
    8.8911    0.1581   26.1595 C   0  0  0  0  0  0  0  0  0  0  0  0
    9.4407    0.2710   24.8760 C   0  0  0  0  0  0  0  0  0  0  0  0
   10.3471    1.6993   24.4307 Cl  0  0  0  0  0  0  0  0  0  0  0  0
    9.0129    0.9755   26.8649 H   0  0  0  0  0  0  0  0  0  0  0  0
    7.7263   -1.0582   27.5114 H   0  0  0  0  0  0  0  0  0  0  0  0
    7.5504   -2.9658   25.9044 H   0  0  0  0  0  0  0  0  0  0  0  0
   10.0853   -1.6139   22.1591 H   0  0  0  0  0  0  0  0  0  0  0  0
   10.7697   -0.0618   22.6017 H   0  0  0  0  0  0  0  0  0  0  0  0
    7.5216   -0.8666   21.2346 S   0  0  0  0  0  0  0  0  0  0  0  0
    7.9994   -2.1494   20.7140 O   0  0  0  0  0  0  0  0  0  0  0  0
    6.6997   -1.0360   22.4367 O   0  0  0  0  0  0  0  0  0  0  0  0
    6.6561    0.0491   19.9752 C   0  0  0  0  0  0  0  0  0  0  0  0
    5.4438    0.6984   20.1993 C   0  0  0  0  0  0  0  0  0  0  0  0
    4.8491    1.3071   19.1137 C   0  0  0  0  0  0  0  0  0  0  0  0
    5.4722    1.2681   17.8713 C   0  0  0  0  0  0  0  0  0  0  0  0
    6.6443    0.6352   17.6830 N   0  0  0  0  0  0  0  0  0  0  0  0
    7.2314    0.0323   18.7207 C   0  0  0  0  0  0  0  0  0  0  0  0
    8.1702   -0.4819   18.5357 H   0  0  0  0  0  0  0  0  0  0  0  0
    4.9825    1.7656   17.0386 H   0  0  0  0  0  0  0  0  0  0  0  0
    3.8977    1.8139   19.2040 H   0  0  0  0  0  0  0  0  0  0  0  0
    4.9301    0.7369   21.1595 H   0  0  0  0  0  0  0  0  0  0  0  0
    9.5164    2.0428   22.1311 H   0  0  0  0  0  0  0  0  0  0  0  0
    8.0374    1.9609   21.1719 H   0  0  0  0  0  0  0  0  0  0  0  0
    7.9830    1.5282   22.8975 H   0  0  0  0  0  0  0  0  0  0  0  0
  1  2  1  0
  2  3  1  0
  3  4  1  0
  4  5  2  0
  5  6  1  0
  5  7  1  0
  7  8  2  0
  8  9  1  0
  9 10  2  0
 10 11  1  0
  9 12  1  0
  8 13  1  0
  7 14  1  0
  3 15  1  0
  3 16  1  0
  2 17  1  0
 17 18  2  0
 17 19  2  0
 17 20  1  0
 20 21  2  0
 21 22  1  0
 22 23  2  0
 23 24  1  0
 24 25  2  0
 25 26  1  0
 23 27  1  0
 22 28  1  0
 21 29  1  0
  1 30  1  0
  1 31  1  0
  1 32  1  0
 10  4  1  0
 25 20  1  0
M  END
>  <cnnaffinity>  (1) 
-5.2625

>  <filename>  (1) 
CN(Cc1c(Cl)cccc1Br)S(=O)(=O)c1cccnc1

$$$$
