
     RDKit          3D

 39 40  0  0  0  0  0  0  0  0999 V2000
    4.9898    1.8827   17.0078 H   0  0  0  0  0  0  0  0  0  0  0  0
    5.4397    1.3202   17.8216 C   0  0  0  0  0  0  0  0  0  0  0  0
    6.5973    0.6948   17.5504 N   0  0  0  0  0  0  0  0  0  0  0  0
    7.1838    0.0151   18.5466 C   0  0  0  0  0  0  0  0  0  0  0  0
    8.1269   -0.4709   18.2972 H   0  0  0  0  0  0  0  0  0  0  0  0
    6.6593   -0.1120   19.8631 C   0  0  0  0  0  0  0  0  0  0  0  0
    7.3321   -0.8356   20.8797 N   0  0  0  0  0  0  0  0  0  0  0  0
    6.5777   -1.4761   21.9403 C   0  0  0  0  0  0  0  0  0  0  0  0
    5.6312   -1.8441   21.5359 H   0  0  0  0  0  0  0  0  0  0  0  0
    7.1504   -2.3337   22.3093 H   0  0  0  0  0  0  0  0  0  0  0  0
    6.3634   -0.8240   22.8032 H   0  0  0  0  0  0  0  0  0  0  0  0
    8.7123   -0.4521   21.1798 C   0  0  0  0  0  0  0  0  0  0  0  0
    9.0786   -1.0190   22.0472 H   0  0  0  0  0  0  0  0  0  0  0  0
    9.3675   -0.7566   20.3541 H   0  0  0  0  0  0  0  0  0  0  0  0
    9.0820    1.0429   21.4610 C   0  0  0  0  0  0  0  0  0  0  0  0
   10.1624    1.4477   21.0643 O   0  0  0  0  0  0  0  0  0  0  0  0
    8.2002    1.8120   22.1582 N   0  0  0  0  0  0  0  0  0  0  0  0
    7.3633    1.3709   22.4981 H   0  0  0  0  0  0  0  0  0  0  0  0
    8.3319    3.2633   22.3756 C   0  0  0  0  0  0  0  0  0  0  0  0
    8.2917    3.7796   21.4090 H   0  0  0  0  0  0  0  0  0  0  0  0
    9.6942    3.5987   23.0093 C   0  0  0  0  0  0  0  0  0  0  0  0
    9.8084    4.6906   23.0022 H   0  0  0  0  0  0  0  0  0  0  0  0
   10.4810    3.1828   22.3772 H   0  0  0  0  0  0  0  0  0  0  0  0
    9.8576    3.0878   24.4579 C   0  0  0  0  0  0  0  0  0  0  0  0
   10.3735    2.1212   24.4535 H   0  0  0  0  0  0  0  0  0  0  0  0
   10.5085    3.8161   24.9502 H   0  0  0  0  0  0  0  0  0  0  0  0
    8.5327    2.9564   25.2442 C   0  0  0  0  0  0  0  0  0  0  0  0
    8.7201    3.1129   26.3122 H   0  0  0  0  0  0  0  0  0  0  0  0
    8.1375    1.9351   25.1505 H   0  0  0  0  0  0  0  0  0  0  0  0
    7.4965    3.9680   24.7478 C   0  0  0  0  0  0  0  0  0  0  0  0
    6.5834    3.9238   25.3509 H   0  0  0  0  0  0  0  0  0  0  0  0
    7.9047    4.9776   24.8929 H   0  0  0  0  0  0  0  0  0  0  0  0
    7.1522    3.7825   23.2471 C   0  0  0  0  0  0  0  0  0  0  0  0
    6.2858    3.1111   23.1434 H   0  0  0  0  0  0  0  0  0  0  0  0
    6.8185    4.7559   22.8584 H   0  0  0  0  0  0  0  0  0  0  0  0
    5.4325    0.5378   20.1049 C   0  0  0  0  0  0  0  0  0  0  0  0
    4.9847    0.4702   21.0950 H   0  0  0  0  0  0  0  0  0  0  0  0
    4.8263    1.2653   19.0767 C   0  0  0  0  0  0  0  0  0  0  0  0
    3.8963    1.7949   19.2432 H   0  0  0  0  0  0  0  0  0  0  0  0
  1  2  1  0
  2  3  2  0
  3  4  1  0
  4  5  1  0
  4  6  2  0
  6  7  1  0
  7  8  1  0
  8  9  1  0
  8 10  1  0
  8 11  1  0
  7 12  1  0
 12 13  1  0
 12 14  1  0
 12 15  1  0
 15 16  2  0
 15 17  1  0
 17 18  1  0
 17 19  1  0
 19 20  1  0
 19 21  1  0
 21 22  1  0
 21 23  1  0
 21 24  1  0
 24 25  1  0
 24 26  1  0
 24 27  1  0
 27 28  1  0
 27 29  1  0
 27 30  1  0
 30 31  1  0
 30 32  1  0
 30 33  1  0
 33 34  1  0
 33 35  1  0
  6 36  1  0
 36 37  1  0
 36 38  2  0
 38 39  1  0
 38  2  1  0
 33 19  1  0
M  END
>  <cnnaffinity>  (1) 
-4.34251

>  <filename>  (1) 
CN(CC(=O)NC1CCCCC1)c1cccnc1

$$$$
