
     RDKit          3D

 47 50  0  0  0  0  0  0  0  0999 V2000
   10.9110    1.5490   23.6782 C   0  0  0  0  0  0  0  0  0  0  0  0
    9.5262    1.6939   23.2465 N   0  0  0  0  0  0  0  0  0  0  0  0
    9.3195    1.8709   21.8136 C   0  0  0  0  0  0  0  0  0  0  0  0
    9.5349    0.5835   20.9910 C   0  0  0  0  0  0  0  0  0  0  0  0
    8.6258   -0.5082   21.4137 C   0  0  0  0  0  0  0  0  0  0  0  0
    8.8642   -1.3615   22.3889 N   0  0  0  0  0  0  0  0  0  0  0  0
    7.6771   -1.9981   22.5377 C   0  0  0  0  0  0  0  0  0  0  0  0
    7.4198   -2.9835   23.6288 C   0  0  0  0  0  0  0  0  0  0  0  0
    6.6653   -4.2758   23.1954 C   0  0  0  0  0  0  0  0  0  0  0  0
    5.4841   -3.8883   24.1163 C   0  0  0  0  0  0  0  0  0  0  0  0
    6.2401   -2.6256   24.5881 C   0  0  0  0  0  0  0  0  0  0  0  0
    6.4978   -2.6013   25.6503 H   0  0  0  0  0  0  0  0  0  0  0  0
    5.7495   -1.6796   24.3430 H   0  0  0  0  0  0  0  0  0  0  0  0
    5.2590   -4.6100   24.9066 H   0  0  0  0  0  0  0  0  0  0  0  0
    4.5516   -3.6790   23.5825 H   0  0  0  0  0  0  0  0  0  0  0  0
    6.4282   -4.3092   22.1266 H   0  0  0  0  0  0  0  0  0  0  0  0
    7.1739   -5.2058   23.4612 H   0  0  0  0  0  0  0  0  0  0  0  0
    8.3682   -3.1581   24.1401 H   0  0  0  0  0  0  0  0  0  0  0  0
    6.7406   -1.6323   21.6758 N   0  0  0  0  0  0  0  0  0  0  0  0
    7.3571   -0.6783   20.9332 N   0  0  0  0  0  0  0  0  0  0  0  0
    6.6527    0.0007   19.8997 C   0  0  0  0  0  0  0  0  0  0  0  0
    5.4386    0.6409   20.1646 C   0  0  0  0  0  0  0  0  0  0  0  0
    4.8115    1.3103   19.1094 C   0  0  0  0  0  0  0  0  0  0  0  0
    5.3987    1.2961   17.8383 C   0  0  0  0  0  0  0  0  0  0  0  0
    6.5570    0.6712   17.5770 N   0  0  0  0  0  0  0  0  0  0  0  0
    7.1647    0.0465   18.5915 C   0  0  0  0  0  0  0  0  0  0  0  0
    8.1122   -0.4375   18.3663 H   0  0  0  0  0  0  0  0  0  0  0  0
    4.9190    1.7864   16.9944 H   0  0  0  0  0  0  0  0  0  0  0  0
    3.8805    1.8395   19.2634 H   0  0  0  0  0  0  0  0  0  0  0  0
    5.0119    0.6100   21.1707 H   0  0  0  0  0  0  0  0  0  0  0  0
   10.5553    0.2220   21.1264 H   0  0  0  0  0  0  0  0  0  0  0  0
    9.4067    0.7992   19.9300 H   0  0  0  0  0  0  0  0  0  0  0  0
   10.0310    2.6276   21.4520 H   0  0  0  0  0  0  0  0  0  0  0  0
    8.3231    2.2849   21.6262 H   0  0  0  0  0  0  0  0  0  0  0  0
    8.5057    1.5295   24.1568 C   0  0  0  0  0  0  0  0  0  0  0  0
    8.7506    1.5402   25.5438 C   0  0  0  0  0  0  0  0  0  0  0  0
    7.6904    1.3878   26.4233 C   0  0  0  0  0  0  0  0  0  0  0  0
    6.4209    1.2218   26.0564 N   0  0  0  0  0  0  0  0  0  0  0  0
    6.1931    1.2044   24.7420 C   0  0  0  0  0  0  0  0  0  0  0  0
    7.1662    1.3468   23.7647 C   0  0  0  0  0  0  0  0  0  0  0  0
    6.8792    1.2739   22.7280 H   0  0  0  0  0  0  0  0  0  0  0  0
    5.1485    1.0623   24.4718 H   0  0  0  0  0  0  0  0  0  0  0  0
    7.8659    1.4046   27.4961 H   0  0  0  0  0  0  0  0  0  0  0  0
    9.7434    1.6691   25.9373 H   0  0  0  0  0  0  0  0  0  0  0  0
   11.5773    1.5710   22.8117 H   0  0  0  0  0  0  0  0  0  0  0  0
   11.0915    0.6013   24.2051 H   0  0  0  0  0  0  0  0  0  0  0  0
   11.2136    2.3685   24.3420 H   0  0  0  0  0  0  0  0  0  0  0  0
  1  2  1  0
  2  3  1  0
  3  4  1  0
  4  5  1  0
  5  6  2  0
  6  7  1  0
  7  8  1  0
  8  9  1  0
  9 10  1  0
 10 11  1  0
 11 12  1  0
 11 13  1  0
 10 14  1  0
 10 15  1  0
  9 16  1  0
  9 17  1  0
  8 18  1  0
  7 19  2  0
 19 20  1  0
 20 21  1  0
 21 22  2  0
 22 23  1  0
 23 24  2  0
 24 25  1  0
 25 26  2  0
 26 27  1  0
 24 28  1  0
 23 29  1  0
 22 30  1  0
  4 31  1  0
  4 32  1  0
  3 33  1  0
  3 34  1  0
  2 35  1  0
 35 36  2  0
 36 37  1  0
 37 38  2  0
 38 39  1  0
 39 40  2  0
 40 41  1  0
 39 42  1  0
 37 43  1  0
 36 44  1  0
  1 45  1  0
  1 46  1  0
  1 47  1  0
 20  5  1  0
 26 21  1  0
 40 35  1  0
 11  8  1  0
M  END
>  <cnnaffinity>  (1) 
-6.16193

>  <filename>  (1) 
CN(CCc1nc(C2CCC2)nn1-c1cccnc1)c1ccncc1

$$$$
