
     RDKit          3D

 33 34  0  0  0  0  0  0  0  0999 V2000
    6.5140   -1.0788   21.9309 H   0  0  0  0  0  0  0  0  0  0  0  0
    7.1578   -0.5668   21.2073 C   0  0  0  0  0  0  0  0  0  0  0  0
    8.4591   -0.3340   21.4836 C   0  0  0  0  0  0  0  0  0  0  0  0
    9.2598   -0.9326   22.5413 C   0  0  0  0  0  0  0  0  0  0  0  0
    8.3839   -2.1365   23.7038 S   0  0  0  0  0  0  0  0  0  0  0  0
    7.4748   -1.3732   24.5455 O   0  0  0  0  0  0  0  0  0  0  0  0
    7.8400   -3.2277   22.9030 O   0  0  0  0  0  0  0  0  0  0  0  0
    9.5288   -2.8356   24.7451 N   0  0  0  0  0  0  0  0  0  0  0  0
    8.9229   -3.6621   25.8019 C   0  0  0  0  0  0  0  0  0  0  0  0
    8.1730   -3.0788   26.3471 H   0  0  0  0  0  0  0  0  0  0  0  0
    8.4785   -4.6062   25.4414 H   0  0  0  0  0  0  0  0  0  0  0  0
    9.7208   -3.9169   26.5090 H   0  0  0  0  0  0  0  0  0  0  0  0
   10.6170   -3.4665   23.9922 C   0  0  0  0  0  0  0  0  0  0  0  0
   11.1796   -2.6893   23.4608 H   0  0  0  0  0  0  0  0  0  0  0  0
   10.2451   -4.2095   23.2822 H   0  0  0  0  0  0  0  0  0  0  0  0
   11.2941   -3.9670   24.6927 H   0  0  0  0  0  0  0  0  0  0  0  0
   10.4871   -0.5407   22.5878 N   0  0  0  0  0  0  0  0  0  0  0  0
   10.6629    0.5661   21.6572 C   0  0  0  0  0  0  0  0  0  0  0  0
   11.5542    0.3861   21.0544 H   0  0  0  0  0  0  0  0  0  0  0  0
   10.8358    1.4814   22.2297 H   0  0  0  0  0  0  0  0  0  0  0  0
    9.3713    0.6794   20.8161 C   0  0  0  0  0  0  0  0  0  0  0  0
    8.9251    1.6774   20.8428 H   0  0  0  0  0  0  0  0  0  0  0  0
    9.5522    0.4369   19.7683 H   0  0  0  0  0  0  0  0  0  0  0  0
    6.4845   -0.0674   19.9984 C   0  0  0  0  0  0  0  0  0  0  0  0
    7.0824   -0.0681   18.7206 C   0  0  0  0  0  0  0  0  0  0  0  0
    7.9987   -0.6309   18.5496 H   0  0  0  0  0  0  0  0  0  0  0  0
    6.6056    0.5944   17.6599 N   0  0  0  0  0  0  0  0  0  0  0  0
    5.4589    1.2704   17.8224 C   0  0  0  0  0  0  0  0  0  0  0  0
    5.1046    1.8297   16.9575 H   0  0  0  0  0  0  0  0  0  0  0  0
    4.7237    1.2504   19.0136 C   0  0  0  0  0  0  0  0  0  0  0  0
    3.7974    1.8070   19.0729 H   0  0  0  0  0  0  0  0  0  0  0  0
    5.2299    0.5512   20.1099 C   0  0  0  0  0  0  0  0  0  0  0  0
    4.6976    0.5233   21.0615 H   0  0  0  0  0  0  0  0  0  0  0  0
  1  2  1  0
  2  3  2  3
  3  4  1  0
  4  5  1  0
  5  6  2  0
  5  7  2  0
  5  8  1  0
  8  9  1  0
  9 10  1  0
  9 11  1  0
  9 12  1  0
  8 13  1  0
 13 14  1  0
 13 15  1  0
 13 16  1  0
  4 17  2  0
 17 18  1  0
 18 19  1  0
 18 20  1  0
 18 21  1  0
 21 22  1  0
 21 23  1  0
  2 24  1  0
 24 25  2  0
 25 26  1  0
 25 27  1  0
 27 28  2  0
 28 29  1  0
 28 30  1  0
 30 31  1  0
 30 32  2  0
 32 33  1  0
 21  3  1  0
 32 24  1  0
M  END
>  <cnnaffinity>  (1) 
-4.49795

>  <filename>  (1) 
CN(C)S(=O)(=O)C1=NCCC1=Cc1cccnc1

$$$$
