
     RDKit          3D

 36 37  0  0  0  0  0  0  0  0999 V2000
    4.9059    1.7734   17.0042 H   0  0  0  0  0  0  0  0  0  0  0  0
    5.3995    1.2923   17.8447 C   0  0  0  0  0  0  0  0  0  0  0  0
    6.5706    0.6817   17.5889 N   0  0  0  0  0  0  0  0  0  0  0  0
    7.1828    0.0534   18.5974 C   0  0  0  0  0  0  0  0  0  0  0  0
    8.1320   -0.4401   18.3851 H   0  0  0  0  0  0  0  0  0  0  0  0
    6.6585    0.0078   19.9012 C   0  0  0  0  0  0  0  0  0  0  0  0
    7.3698   -0.6689   20.9361 N   0  0  0  0  0  0  0  0  0  0  0  0
    7.8220   -1.9328   20.7969 N   0  0  0  0  0  0  0  0  0  0  0  0
    8.4402   -2.2277   21.8768 N   0  0  0  0  0  0  0  0  0  0  0  0
    8.4313   -1.1899   22.7424 N   0  0  0  0  0  0  0  0  0  0  0  0
    7.7658   -0.2251   22.1585 C   0  0  0  0  0  0  0  0  0  0  0  0
    7.6183    1.1784   22.6545 C   0  0  0  0  0  0  0  0  0  0  0  0
    7.9072    1.1779   23.7100 H   0  0  0  0  0  0  0  0  0  0  0  0
    6.5648    1.4757   22.6207 H   0  0  0  0  0  0  0  0  0  0  0  0
    8.4656    2.1842   21.8509 C   0  0  0  0  0  0  0  0  0  0  0  0
    8.0643    2.2532   20.8311 H   0  0  0  0  0  0  0  0  0  0  0  0
    8.3446    3.1753   22.3078 H   0  0  0  0  0  0  0  0  0  0  0  0
    9.9624    1.8434   21.7747 C   0  0  0  0  0  0  0  0  0  0  0  0
   10.4444    2.5650   21.1054 H   0  0  0  0  0  0  0  0  0  0  0  0
   10.1074    0.8518   21.3205 H   0  0  0  0  0  0  0  0  0  0  0  0
   10.6698    1.8680   23.1316 C   0  0  0  0  0  0  0  0  0  0  0  0
   10.2322    1.0736   23.7578 H   0  0  0  0  0  0  0  0  0  0  0  0
   10.4479    2.8225   23.6587 H   0  0  0  0  0  0  0  0  0  0  0  0
   12.1182    1.6650   23.0005 N   0  0  0  0  0  0  0  0  0  0  0  0
   12.6775    1.0114   24.1767 C   0  0  0  0  0  0  0  0  0  0  0  0
   13.7590    0.8693   24.0650 H   0  0  0  0  0  0  0  0  0  0  0  0
   12.2360    0.0166   24.3091 H   0  0  0  0  0  0  0  0  0  0  0  0
   12.4968    1.5989   25.0956 H   0  0  0  0  0  0  0  0  0  0  0  0
   12.8161    2.9236   22.7472 C   0  0  0  0  0  0  0  0  0  0  0  0
   12.7243    3.6219   23.6029 H   0  0  0  0  0  0  0  0  0  0  0  0
   12.4241    3.4300   21.8568 H   0  0  0  0  0  0  0  0  0  0  0  0
   13.8832    2.7440   22.5709 H   0  0  0  0  0  0  0  0  0  0  0  0
    5.4463    0.6530   20.1647 C   0  0  0  0  0  0  0  0  0  0  0  0
    5.0084    0.6248   21.1604 H   0  0  0  0  0  0  0  0  0  0  0  0
    4.8062    1.3107   19.1101 C   0  0  0  0  0  0  0  0  0  0  0  0
    3.8723    1.8443   19.2686 H   0  0  0  0  0  0  0  0  0  0  0  0
  1  2  1  0
  2  3  2  0
  3  4  1  0
  4  5  1  0
  4  6  2  0
  6  7  1  0
  7  8  1  0
  8  9  2  0
  9 10  1  0
 10 11  2  0
 11 12  1  0
 12 13  1  0
 12 14  1  0
 12 15  1  0
 15 16  1  0
 15 17  1  0
 15 18  1  0
 18 19  1  0
 18 20  1  0
 18 21  1  0
 21 22  1  0
 21 23  1  0
 21 24  1  0
 24 25  1  0
 25 26  1  0
 25 27  1  0
 25 28  1  0
 24 29  1  0
 29 30  1  0
 29 31  1  0
 29 32  1  0
  6 33  1  0
 33 34  1  0
 33 35  2  0
 35 36  1  0
 35  2  1  0
 11  7  1  0
M  END
>  <cnnaffinity>  (1) 
-4.95442

>  <filename>  (1) 
CN(C)CCCCc1nnnn1-c1cccnc1

$$$$
