
     RDKit          3D

 41 43  0  0  0  0  0  0  0  0999 V2000
    4.9324    1.7990   16.9789 H   0  0  0  0  0  0  0  0  0  0  0  0
    5.3959    1.2906   17.8228 C   0  0  0  0  0  0  0  0  0  0  0  0
    6.5545    0.6586   17.5674 N   0  0  0  0  0  0  0  0  0  0  0  0
    7.1558    0.0329   18.5840 C   0  0  0  0  0  0  0  0  0  0  0  0
    8.1158   -0.4345   18.3543 H   0  0  0  0  0  0  0  0  0  0  0  0
    6.6501    0.0099   19.8953 C   0  0  0  0  0  0  0  0  0  0  0  0
    7.3962   -0.6371   20.9844 C   0  0  0  0  0  0  0  0  0  0  0  0
    7.7200   -0.0183   22.1791 C   0  0  0  0  0  0  0  0  0  0  0  0
    7.5006    1.3456   22.4239 N   0  0  0  0  0  0  0  0  0  0  0  0
    8.1381    2.3885   21.6360 C   0  0  0  0  0  0  0  0  0  0  0  0
    9.2348    2.3720   21.7752 H   0  0  0  0  0  0  0  0  0  0  0  0
    7.9655    2.2392   20.5610 H   0  0  0  0  0  0  0  0  0  0  0  0
    7.5105    3.6845   22.1670 C   0  0  0  0  0  0  0  0  0  0  0  0
    6.6635    3.9913   21.5408 H   0  0  0  0  0  0  0  0  0  0  0  0
    8.2321    4.5115   22.1913 H   0  0  0  0  0  0  0  0  0  0  0  0
    6.9864    3.3517   23.5791 C   0  0  1  0  0  0  0  0  0  0  0  0
    7.8216    3.4719   24.3001 H   0  0  0  0  0  0  0  0  0  0  0  0
    5.8421    4.1814   23.9941 N   0  0  0  0  0  0  0  0  0  0  0  0
    5.3464    3.8030   25.3155 C   0  0  0  0  0  0  0  0  0  0  0  0
    6.1146    3.9068   26.1086 H   0  0  0  0  0  0  0  0  0  0  0  0
    4.9940    2.7652   25.3149 H   0  0  0  0  0  0  0  0  0  0  0  0
    4.4918    4.4361   25.5808 H   0  0  0  0  0  0  0  0  0  0  0  0
    6.1567    5.6077   23.9551 C   0  0  0  0  0  0  0  0  0  0  0  0
    7.0168    5.8797   24.6006 H   0  0  0  0  0  0  0  0  0  0  0  0
    5.2857    6.1805   24.2925 H   0  0  0  0  0  0  0  0  0  0  0  0
    6.3808    5.9286   22.9316 H   0  0  0  0  0  0  0  0  0  0  0  0
    6.6673    1.8418   23.4972 C   0  0  0  0  0  0  0  0  0  0  0  0
    5.5853    1.7025   23.3139 H   0  0  0  0  0  0  0  0  0  0  0  0
    6.8967    1.3335   24.4442 H   0  0  0  0  0  0  0  0  0  0  0  0
    8.3676   -0.8134   23.1880 C   0  0  0  0  0  0  0  0  0  0  0  0
    8.6118   -0.2847   24.1118 H   0  0  0  0  0  0  0  0  0  0  0  0
    8.6796   -2.1286   22.9831 C   0  0  0  0  0  0  0  0  0  0  0  0
    9.1786   -2.7502   23.7167 H   0  0  0  0  0  0  0  0  0  0  0  0
    8.3344   -2.7818   21.7251 C   0  0  0  0  0  0  0  0  0  0  0  0
    8.4785   -3.9540   21.4194 O   0  0  0  0  0  0  0  0  0  0  0  0
    7.7713   -1.9415   20.7816 N   0  0  0  0  0  0  0  0  0  0  0  0
    7.5064   -2.4738   19.9708 H   0  0  0  0  0  0  0  0  0  0  0  0
    5.4344    0.6642   20.1426 C   0  0  0  0  0  0  0  0  0  0  0  0
    5.0077    0.6562   21.1476 H   0  0  0  0  0  0  0  0  0  0  0  0
    4.7991    1.3120   19.0867 C   0  0  0  0  0  0  0  0  0  0  0  0
    3.8675    1.8426   19.2322 H   0  0  0  0  0  0  0  0  0  0  0  0
  1  2  1  0
  2  3  2  0
  3  4  1  0
  4  5  1  0
  4  6  2  0
  6  7  1  0
  7  8  2  0
  8  9  1  0
  9 10  1  0
 10 11  1  0
 10 12  1  0
 10 13  1  0
 13 14  1  0
 13 15  1  0
 13 16  1  0
 16 17  1  1
 16 18  1  0
 18 19  1  0
 19 20  1  0
 19 21  1  0
 19 22  1  0
 18 23  1  0
 23 24  1  0
 23 25  1  0
 23 26  1  0
 16 27  1  0
 27 28  1  0
 27 29  1  0
  8 30  1  0
 30 31  1  0
 30 32  2  0
 32 33  1  0
 32 34  1  0
 34 35  2  0
 34 36  1  0
 36 37  1  0
  6 38  1  0
 38 39  1  0
 38 40  2  0
 40 41  1  0
 40  2  1  0
 36  7  1  0
 27  9  1  0
M  END
>  <cnnaffinity>  (1) 
-5.23068

>  <filename>  (1) 
CN(C)[C@@H]1CCN(c2ccc(=O)[nH]c2-c2cccnc2)C1

$$$$
