
     RDKit          3D

 42 43  0  0  0  0  0  0  0  0999 V2000
    4.9569    1.9331   16.9218 H   0  0  0  0  0  0  0  0  0  0  0  0
    5.4287    1.3987   17.7434 C   0  0  0  0  0  0  0  0  0  0  0  0
    6.5953    0.7945   17.4680 N   0  0  0  0  0  0  0  0  0  0  0  0
    7.1992    0.1221   18.4568 C   0  0  0  0  0  0  0  0  0  0  0  0
    8.1383   -0.3706   18.2017 H   0  0  0  0  0  0  0  0  0  0  0  0
    6.6679    0.0029   19.7576 C   0  0  0  0  0  0  0  0  0  0  0  0
    7.3645   -0.6901   20.8047 N   0  0  0  0  0  0  0  0  0  0  0  0
    6.7653   -1.8252   21.3770 C   0  0  0  0  0  0  0  0  0  0  0  0
    5.6374   -2.1801   21.1110 O   0  0  0  0  0  0  0  0  0  0  0  0
    7.6294   -2.5025   22.2691 N   0  0  0  0  0  0  0  0  0  0  0  0
    6.9918   -3.3475   23.1700 O   0  0  0  0  0  0  0  0  0  0  0  0
    7.2229   -2.8487   24.5035 C   0  0  0  0  0  0  0  0  0  0  0  0
    6.7399   -1.8668   24.5975 H   0  0  0  0  0  0  0  0  0  0  0  0
    8.3050   -2.7519   24.6799 H   0  0  0  0  0  0  0  0  0  0  0  0
    6.6779   -3.8593   25.4976 C   0  0  0  0  0  0  0  0  0  0  0  0
    6.4838   -3.3357   26.4447 H   0  0  0  0  0  0  0  0  0  0  0  0
    5.6979   -4.2147   25.1286 H   0  0  0  0  0  0  0  0  0  0  0  0
    7.6290   -4.9355   25.7802 N   0  0  0  0  0  0  0  0  0  0  0  0
    7.2443   -5.7385   26.9246 C   0  0  0  0  0  0  0  0  0  0  0  0
    6.2874   -6.2865   26.8105 H   0  0  0  0  0  0  0  0  0  0  0  0
    8.0331   -6.4704   27.1350 H   0  0  0  0  0  0  0  0  0  0  0  0
    7.1555   -5.0824   27.7990 H   0  0  0  0  0  0  0  0  0  0  0  0
    8.0151   -5.7226   24.6126 C   0  0  0  0  0  0  0  0  0  0  0  0
    8.6128   -5.1159   23.9293 H   0  0  0  0  0  0  0  0  0  0  0  0
    8.6491   -6.5601   24.9178 H   0  0  0  0  0  0  0  0  0  0  0  0
    7.1679   -6.1128   24.0249 H   0  0  0  0  0  0  0  0  0  0  0  0
    8.9596   -2.9919   21.8770 C   0  0  0  0  0  0  0  0  0  0  0  0
    8.9560   -3.3727   20.8474 H   0  0  0  0  0  0  0  0  0  0  0  0
    9.2113   -3.8470   22.5111 H   0  0  0  0  0  0  0  0  0  0  0  0
   10.0366   -1.9261   22.0633 C   0  0  0  0  0  0  0  0  0  0  0  0
   10.0813   -1.6998   23.1384 H   0  0  0  0  0  0  0  0  0  0  0  0
   11.0095   -2.3562   21.7958 H   0  0  0  0  0  0  0  0  0  0  0  0
    9.8204   -0.6387   21.2649 C   0  0  0  0  0  0  0  0  0  0  0  0
    9.9095   -0.8335   20.1892 H   0  0  0  0  0  0  0  0  0  0  0  0
   10.6209    0.0642   21.5288 H   0  0  0  0  0  0  0  0  0  0  0  0
    8.4579    0.0245   21.4927 C   0  0  0  0  0  0  0  0  0  0  0  0
    8.2398    0.0812   22.5710 H   0  0  0  0  0  0  0  0  0  0  0  0
    8.4755    1.0477   21.1076 H   0  0  0  0  0  0  0  0  0  0  0  0
    5.4446    0.6282   20.0253 C   0  0  0  0  0  0  0  0  0  0  0  0
    5.0056    0.5299   21.0163 H   0  0  0  0  0  0  0  0  0  0  0  0
    4.8202    1.3495   19.0033 C   0  0  0  0  0  0  0  0  0  0  0  0
    3.8808    1.8623   19.1678 H   0  0  0  0  0  0  0  0  0  0  0  0
  1  2  1  0
  2  3  2  0
  3  4  1  0
  4  5  1  0
  4  6  2  0
  6  7  1  0
  7  8  1  0
  8  9  2  0
  8 10  1  0
 10 11  1  0
 11 12  1  0
 12 13  1  0
 12 14  1  0
 12 15  1  0
 15 16  1  0
 15 17  1  0
 15 18  1  0
 18 19  1  0
 19 20  1  0
 19 21  1  0
 19 22  1  0
 18 23  1  0
 23 24  1  0
 23 25  1  0
 23 26  1  0
 10 27  1  0
 27 28  1  0
 27 29  1  0
 27 30  1  0
 30 31  1  0
 30 32  1  0
 30 33  1  0
 33 34  1  0
 33 35  1  0
 33 36  1  0
 36 37  1  0
 36 38  1  0
  6 39  1  0
 39 40  1  0
 39 41  2  0
 41 42  1  0
 41  2  1  0
 36  7  1  0
M  END
>  <cnnaffinity>  (1) 
-5.02782

>  <filename>  (1) 
CN(C)CCON1CCCCN(c2cccnc2)C1=O

$$$$
