
     RDKit          3D

 37 38  0  0  0  0  0  0  0  0999 V2000
    4.9173    1.7869   16.9891 H   0  0  0  0  0  0  0  0  0  0  0  0
    5.3976    1.2971   17.8326 C   0  0  0  0  0  0  0  0  0  0  0  0
    6.5600    0.6812   17.5734 N   0  0  0  0  0  0  0  0  0  0  0  0
    7.1611    0.0706   18.5985 C   0  0  0  0  0  0  0  0  0  0  0  0
    8.1073   -0.4147   18.3701 H   0  0  0  0  0  0  0  0  0  0  0  0
    6.6428    0.0077   19.9012 C   0  0  0  0  0  0  0  0  0  0  0  0
    7.4055   -0.7069   20.9887 C   0  0  0  0  0  0  0  0  0  0  0  0
    6.8229   -0.7583   21.9187 H   0  0  0  0  0  0  0  0  0  0  0  0
    7.6177   -1.7422   20.6900 H   0  0  0  0  0  0  0  0  0  0  0  0
    8.6766   -0.0598   21.2770 N   0  0  0  0  0  0  0  0  0  0  0  0
    9.9096   -0.4018   20.8118 C   0  0  0  0  0  0  0  0  0  0  0  0
   10.0623   -1.2802   20.2018 H   0  0  0  0  0  0  0  0  0  0  0  0
   10.8148    0.4478   21.2020 N   0  0  0  0  0  0  0  0  0  0  0  0
   10.1714    1.4060   21.9345 N   0  0  0  0  0  0  0  0  0  0  0  0
    8.8965    1.1072   21.9597 C   0  0  0  0  0  0  0  0  0  0  0  0
    7.8883    1.9238   22.6981 C   0  0  0  0  0  0  0  0  0  0  0  0
    7.9321    2.9462   22.3055 H   0  0  0  0  0  0  0  0  0  0  0  0
    6.8860    1.5491   22.4877 H   0  0  0  0  0  0  0  0  0  0  0  0
    8.1311    1.9321   24.2191 C   0  0  0  0  0  0  0  0  0  0  0  0
    7.4302    2.6269   24.6974 H   0  0  0  0  0  0  0  0  0  0  0  0
    9.1378    2.3233   24.4081 H   0  0  0  0  0  0  0  0  0  0  0  0
    8.0293    0.5489   24.8654 C   0  0  0  0  0  0  0  0  0  0  0  0
    8.2267    0.6271   25.9542 H   0  0  0  0  0  0  0  0  0  0  0  0
    8.8381   -0.0696   24.4578 H   0  0  0  0  0  0  0  0  0  0  0  0
    6.7539   -0.1183   24.6026 N   0  0  0  0  0  0  0  0  0  0  0  0
    6.8543   -1.5561   24.7940 C   0  0  0  0  0  0  0  0  0  0  0  0
    5.8941   -2.0339   24.5746 H   0  0  0  0  0  0  0  0  0  0  0  0
    7.5997   -1.9811   24.1126 H   0  0  0  0  0  0  0  0  0  0  0  0
    7.1381   -1.8382   25.8257 H   0  0  0  0  0  0  0  0  0  0  0  0
    5.6839    0.4266   25.4254 C   0  0  0  0  0  0  0  0  0  0  0  0
    5.5354    1.4899   25.2260 H   0  0  0  0  0  0  0  0  0  0  0  0
    4.7417   -0.0801   25.2030 H   0  0  0  0  0  0  0  0  0  0  0  0
    5.8811    0.3138   26.5084 H   0  0  0  0  0  0  0  0  0  0  0  0
    5.4254    0.6507   20.1518 C   0  0  0  0  0  0  0  0  0  0  0  0
    4.9894    0.6375   21.1594 H   0  0  0  0  0  0  0  0  0  0  0  0
    4.7966    1.3144   19.0953 C   0  0  0  0  0  0  0  0  0  0  0  0
    3.8662    1.8498   19.2504 H   0  0  0  0  0  0  0  0  0  0  0  0
  1  2  1  0
  2  3  2  0
  3  4  1  0
  4  5  1  0
  4  6  2  0
  6  7  1  0
  7  8  1  0
  7  9  1  0
  7 10  1  0
 10 11  1  0
 11 12  1  0
 11 13  2  0
 13 14  1  0
 14 15  2  0
 15 16  1  0
 16 17  1  0
 16 18  1  0
 16 19  1  0
 19 20  1  0
 19 21  1  0
 19 22  1  0
 22 23  1  0
 22 24  1  0
 22 25  1  0
 25 26  1  0
 26 27  1  0
 26 28  1  0
 26 29  1  0
 25 30  1  0
 30 31  1  0
 30 32  1  0
 30 33  1  0
  6 34  1  0
 34 35  1  0
 34 36  2  0
 36 37  1  0
 36  2  1  0
 15 10  1  0
M  END
>  <cnnaffinity>  (1) 
-4.88076

>  <filename>  (1) 
CN(C)CCCc1nncn1Cc1cccnc1

$$$$
