
     RDKit          3D

 38 39  0  0  0  0  0  0  0  0999 V2000
    5.2116    2.0823   16.7475 H   0  0  0  0  0  0  0  0  0  0  0  0
    5.6610    1.5241   17.5644 C   0  0  0  0  0  0  0  0  0  0  0  0
    6.8460    0.9467   17.3096 N   0  0  0  0  0  0  0  0  0  0  0  0
    7.4361    0.2651   18.3029 C   0  0  0  0  0  0  0  0  0  0  0  0
    8.3946   -0.1940   18.0620 H   0  0  0  0  0  0  0  0  0  0  0  0
    6.8701    0.0907   19.5948 C   0  0  0  0  0  0  0  0  0  0  0  0
    7.4830   -0.6119   20.6414 N   0  0  0  0  0  0  0  0  0  0  0  0
    6.7822   -1.5724   21.4686 C   0  0  0  0  0  0  0  0  0  0  0  0
    5.6079   -1.8226   21.1940 O   0  0  0  0  0  0  0  0  0  0  0  0
    5.2535   -3.7780   23.3852 C   0  0  0  0  0  0  0  0  0  0  0  0
    4.1327   -3.1511   23.3239 H   0  0  0  0  0  0  0  0  0  0  0  0
    6.0531   -2.6393   24.0902 H   0  0  0  0  0  0  0  0  0  0  0  0
    5.1607   -4.0215   23.3121 C   0  0  0  0  0  0  0  0  0  0  0  0
    6.2607   -4.3798   22.8080 H   0  0  0  0  0  0  0  0  0  0  0  0
    4.7266   -4.5131   22.2669 H   0  0  0  0  0  0  0  0  0  0  0  0
    4.9505   -4.9078   24.4325 C   0  0  0  0  0  0  0  0  0  0  0  0
    5.1094   -5.9684   24.1120 H   0  0  0  0  0  0  0  0  0  0  0  0
    5.5502   -4.9027   25.3819 H   0  0  0  0  0  0  0  0  0  0  0  0
    3.5524   -4.9925   24.9237 N   0  0  0  0  0  0  0  0  0  0  0  0
    2.5784   -5.3070   23.9074 C   0  0  0  0  0  0  0  0  0  0  0  0
    3.0243   -5.9210   23.1182 H   0  0  0  0  0  0  0  0  0  0  0  0
    1.7579   -5.9031   24.3410 H   0  0  0  0  0  0  0  0  0  0  0  0
    2.0794   -4.4371   23.4349 H   0  0  0  0  0  0  0  0  0  0  0  0
    3.0944   -3.9904   25.8566 C   0  0  0  0  0  0  0  0  0  0  0  0
    2.2547   -4.3966   26.4424 H   0  0  0  0  0  0  0  0  0  0  0  0
    3.8839   -3.7378   26.5767 H   0  0  0  0  0  0  0  0  0  0  0  0
    2.7177   -3.0404   25.4219 H   0  0  0  0  0  0  0  0  0  0  0  0
    7.5875   -2.0592   22.3964 N   0  0  0  0  0  0  0  0  0  0  0  0
    8.8626   -1.3947   22.3002 C   0  0  0  0  0  0  0  0  0  0  0  0
    8.9788   -0.6889   23.1385 H   0  0  0  0  0  0  0  0  0  0  0  0
    9.6812   -2.1183   22.3806 H   0  0  0  0  0  0  0  0  0  0  0  0
    8.8852   -0.6438   20.9523 C   0  0  0  0  0  0  0  0  0  0  0  0
    9.3225    0.3600   21.0370 H   0  0  0  0  0  0  0  0  0  0  0  0
    9.4508   -1.1889   20.1813 H   0  0  0  0  0  0  0  0  0  0  0  0
    5.6164    0.6788   19.8239 C   0  0  0  0  0  0  0  0  0  0  0  0
    5.1489    0.5284   20.7928 H   0  0  0  0  0  0  0  0  0  0  0  0
    5.0175    1.4221   18.8015 C   0  0  0  0  0  0  0  0  0  0  0  0
    4.0669    1.9209   18.9546 H   0  0  0  0  0  0  0  0  0  0  0  0
  1  2  1  0
  2  3  2  0
  3  4  1  0
  4  5  1  0
  4  6  2  0
  6  7  1  0
  7  8  1  0
  8  9  1  0
  9 10  1  0
 10 11  1  0
 10 12  1  0
 10 13  1  0
 13 14  1  0
 13 15  1  0
 13 16  1  0
 16 17  1  0
 16 18  1  0
 16 19  1  0
 19 20  1  0
 20 21  1  0
 20 22  1  0
 20 23  1  0
 19 24  1  0
 24 25  1  0
 24 26  1  0
 24 27  1  0
  8 28  2  0
 28 29  1  0
 29 30  1  0
 29 31  1  0
 29 32  1  0
 32 33  1  0
 32 34  1  0
  6 35  1  0
 35 36  1  0
 35 37  2  0
 37 38  1  0
 37  2  1  0
 32  7  1  0
M  END
>  <cnnaffinity>  (1) 
-4.3975

>  <filename>  (1) 
CN(C)CCCOC1=NCCN1c1cccnc1

$$$$
