
     RDKit          3D

 38 39  0  0  0  0  0  0  0  0999 V2000
    4.9926    2.0756   16.9563 H   0  0  0  0  0  0  0  0  0  0  0  0
    5.4688    1.4889   17.7393 C   0  0  0  0  0  0  0  0  0  0  0  0
    6.6012    0.8514   17.3980 N   0  0  0  0  0  0  0  0  0  0  0  0
    7.2055    0.1066   18.3229 C   0  0  0  0  0  0  0  0  0  0  0  0
    8.1421   -0.3694   18.0293 H   0  0  0  0  0  0  0  0  0  0  0  0
    6.6694   -0.0372   19.5899 C   0  0  0  0  0  0  0  0  0  0  0  0
    7.5417   -1.0761   20.6504 S   0  0  0  0  0  0  0  0  0  0  0  0
    8.8157   -1.4159   20.0386 O   0  0  0  0  0  0  0  0  0  0  0  0
    6.6409   -2.1158   21.1185 O   0  0  0  0  0  0  0  0  0  0  0  0
    7.8682    0.0003   21.9154 N   0  0  0  0  0  0  0  0  0  0  0  0
    8.6567    1.1614   21.4674 C   0  0  0  0  0  0  0  0  0  0  0  0
    8.8319    1.8318   22.3159 H   0  0  0  0  0  0  0  0  0  0  0  0
    9.6250    0.8767   21.0304 H   0  0  0  0  0  0  0  0  0  0  0  0
    8.0852    1.7448   20.7420 H   0  0  0  0  0  0  0  0  0  0  0  0
    8.4819   -0.7228   23.0456 C   0  0  0  0  0  0  0  0  0  0  0  0
    7.9381   -1.6573   23.2210 H   0  0  0  0  0  0  0  0  0  0  0  0
    9.5161   -1.0160   22.7957 H   0  0  0  0  0  0  0  0  0  0  0  0
    8.4828    0.0608   24.3656 C   0  0  0  0  0  0  0  0  0  0  0  0
    9.0679    0.9831   24.2275 H   0  0  0  0  0  0  0  0  0  0  0  0
    7.0768    0.4554   24.8538 C   0  0  0  0  0  0  0  0  0  0  0  0
    6.5680    1.0536   24.0898 H   0  0  0  0  0  0  0  0  0  0  0  0
    6.4860   -0.4643   24.9771 H   0  0  0  0  0  0  0  0  0  0  0  0
    7.1067    1.1943   26.2031 C   0  0  0  0  0  0  0  0  0  0  0  0
    6.0791    1.3349   26.5616 H   0  0  0  0  0  0  0  0  0  0  0  0
    7.5303    2.1986   26.0662 H   0  0  0  0  0  0  0  0  0  0  0  0
    7.9134    0.4250   27.2633 C   0  0  0  0  0  0  0  0  0  0  0  0
    7.3576   -0.4897   27.5127 H   0  0  0  0  0  0  0  0  0  0  0  0
    7.9829    0.9915   28.2002 H   0  0  0  0  0  0  0  0  0  0  0  0
    9.3075    0.0231   26.7569 C   0  0  0  0  0  0  0  0  0  0  0  0
    9.8421   -0.5490   27.5253 H   0  0  0  0  0  0  0  0  0  0  0  0
    9.9095    0.9221   26.5588 H   0  0  0  0  0  0  0  0  0  0  0  0
    9.1906   -0.7710   25.4534 C   0  0  0  0  0  0  0  0  0  0  0  0
    8.6032   -1.6842   25.6444 H   0  0  0  0  0  0  0  0  0  0  0  0
   10.1739   -1.1037   25.0980 H   0  0  0  0  0  0  0  0  0  0  0  0
    5.5079    0.6288   19.9872 C   0  0  0  0  0  0  0  0  0  0  0  0
    5.1124    0.5644   21.0078 H   0  0  0  0  0  0  0  0  0  0  0  0
    4.8961    1.4133   19.0151 C   0  0  0  0  0  0  0  0  0  0  0  0
    3.9968    1.9820   19.2282 H   0  0  0  0  0  0  0  0  0  0  0  0
  1  2  1  0
  2  3  2  0
  3  4  1  0
  4  5  1  0
  4  6  2  0
  6  7  1  0
  7  8  2  0
  7  9  2  0
  7 10  1  0
 10 11  1  0
 11 12  1  0
 11 13  1  0
 11 14  1  0
 10 15  1  0
 15 16  1  0
 15 17  1  0
 15 18  1  0
 18 19  1  0
 18 20  1  0
 20 21  1  0
 20 22  1  0
 20 23  1  0
 23 24  1  0
 23 25  1  0
 23 26  1  0
 26 27  1  0
 26 28  1  0
 26 29  1  0
 29 30  1  0
 29 31  1  0
 29 32  1  0
 32 33  1  0
 32 34  1  0
  6 35  1  0
 35 36  1  0
 35 37  2  0
 37 38  1  0
 37  2  1  0
 32 18  1  0
M  END
>  <cnnaffinity>  (1) 
-4.80676

>  <filename>  (1) 
CN(CC1CCCCC1)S(=O)(=O)c1cccnc1

$$$$
