
     RDKit          3D

 33 34  0  0  0  0  0  0  0  0999 V2000
    4.9619    1.7892   16.9919 H   0  0  0  0  0  0  0  0  0  0  0  0
    5.3993    1.2804   17.8488 C   0  0  0  0  0  0  0  0  0  0  0  0
    6.5584    0.6518   17.6098 N   0  0  0  0  0  0  0  0  0  0  0  0
    7.1432    0.0322   18.6348 C   0  0  0  0  0  0  0  0  0  0  0  0
    8.1107   -0.4277   18.4406 H   0  0  0  0  0  0  0  0  0  0  0  0
    6.5988   -0.0280   19.9210 C   0  0  0  0  0  0  0  0  0  0  0  0
    7.4612   -0.7142   20.9216 C   0  0  0  0  0  0  0  0  0  0  0  0
    8.6758   -0.7844   20.7807 O   0  0  0  0  0  0  0  0  0  0  0  0
    6.7733   -1.2662   21.9645 N   0  0  0  0  0  0  0  0  0  0  0  0
    5.7674   -1.2581   21.8902 H   0  0  0  0  0  0  0  0  0  0  0  0
    7.2894   -1.7832   23.1668 N   0  0  0  0  0  0  0  0  0  0  0  0
    7.9518   -0.7248   23.9538 C   0  0  0  0  0  0  0  0  0  0  0  0
    8.8463   -0.3281   23.4400 H   0  0  0  0  0  0  0  0  0  0  0  0
    7.2442    0.0943   24.1154 H   0  0  0  0  0  0  0  0  0  0  0  0
    8.2365   -1.1388   24.9269 H   0  0  0  0  0  0  0  0  0  0  0  0
    8.1934   -2.9262   22.9042 C   0  0  0  0  0  0  0  0  0  0  0  0
    7.7583   -3.4919   22.0706 H   0  0  0  0  0  0  0  0  0  0  0  0
    9.1717   -2.5608   22.5486 H   0  0  0  0  0  0  0  0  0  0  0  0
    8.3352   -3.8331   24.1095 C   0  0  0  0  0  0  0  0  0  0  0  0
    9.4865   -3.8132   24.9117 C   0  0  0  0  0  0  0  0  0  0  0  0
   10.3029   -3.1420   24.6529 H   0  0  0  0  0  0  0  0  0  0  0  0
    9.5868   -4.6444   26.0333 C   0  0  0  0  0  0  0  0  0  0  0  0
   10.4841   -4.6198   26.6475 H   0  0  0  0  0  0  0  0  0  0  0  0
    8.5342   -5.5037   26.3681 C   0  0  0  0  0  0  0  0  0  0  0  0
    8.5836   -6.1593   27.2312 H   0  0  0  0  0  0  0  0  0  0  0  0
    7.3847   -5.5105   25.5728 C   0  0  0  0  0  0  0  0  0  0  0  0
    6.0508   -6.5447   26.0063 Cl  0  0  0  0  0  0  0  0  0  0  0  0
    7.2758   -4.6888   24.4516 C   0  0  0  0  0  0  0  0  0  0  0  0
    6.3658   -4.7049   23.8577 H   0  0  0  0  0  0  0  0  0  0  0  0
    5.3836    0.6343   20.1678 C   0  0  0  0  0  0  0  0  0  0  0  0
    4.9342    0.6946   21.1637 H   0  0  0  0  0  0  0  0  0  0  0  0
    4.7785    1.3031   19.1039 C   0  0  0  0  0  0  0  0  0  0  0  0
    3.8568    1.8629   19.2249 H   0  0  0  0  0  0  0  0  0  0  0  0
  1  2  1  0
  2  3  2  0
  3  4  1  0
  4  5  1  0
  4  6  2  0
  6  7  1  0
  7  8  2  0
  7  9  1  0
  9 10  1  0
  9 11  1  0
 11 12  1  0
 12 13  1  0
 12 14  1  0
 12 15  1  0
 11 16  1  0
 16 17  1  0
 16 18  1  0
 16 19  1  0
 19 20  2  0
 20 21  1  0
 20 22  1  0
 22 23  1  0
 22 24  2  0
 24 25  1  0
 24 26  1  0
 26 27  1  0
 26 28  2  0
 28 29  1  0
  6 30  1  0
 30 31  1  0
 30 32  2  0
 32 33  1  0
 32  2  1  0
 28 19  1  0
M  END
>  <cnnaffinity>  (1) 
-4.61462

>  <filename>  (1) 
CN(Cc1cccc(Cl)c1)NC(=O)c1cccnc1

$$$$
