
     RDKit          3D

 39 40  0  0  0  0  0  0  0  0999 V2000
    5.1936    1.7226   16.9954 H   0  0  0  0  0  0  0  0  0  0  0  0
    5.5335    1.2186   17.8962 C   0  0  0  0  0  0  0  0  0  0  0  0
    6.5627    0.3682   17.7644 N   0  0  0  0  0  0  0  0  0  0  0  0
    7.0095   -0.2415   18.8722 C   0  0  0  0  0  0  0  0  0  0  0  0
    7.8545   -0.9145   18.7409 H   0  0  0  0  0  0  0  0  0  0  0  0
    6.4629   -0.0331   20.1691 C   0  0  0  0  0  0  0  0  0  0  0  0
    6.9205   -0.6510   21.3771 N   0  0  0  0  0  0  0  0  0  0  0  0
    7.7521   -1.8502   21.2366 C   0  0  0  0  0  0  0  0  0  0  0  0
    7.8231   -2.3864   22.1836 H   0  0  0  0  0  0  0  0  0  0  0  0
    8.7598   -1.6348   20.8577 H   0  0  0  0  0  0  0  0  0  0  0  0
    7.2549   -2.5184   20.5281 H   0  0  0  0  0  0  0  0  0  0  0  0
    7.3160    0.3648   22.6979 S   0  0  0  0  0  0  0  0  0  0  0  0
    8.7418    0.4043   22.9015 O   0  0  0  0  0  0  0  0  0  0  0  0
    6.5020    1.5583   22.6805 O   0  0  0  0  0  0  0  0  0  0  0  0
    6.6333   -0.7025   23.7757 N   0  0  0  0  0  0  0  0  0  0  0  0
    5.8073   -0.9956   23.2687 H   0  0  0  0  0  0  0  0  0  0  0  0
    6.3804   -0.0636   24.9866 C   0  0  0  0  0  0  0  0  0  0  0  0
    7.1147    0.7901   25.4295 O   0  0  0  0  0  0  0  0  0  0  0  0
    5.1266   -0.5552   25.6820 C   0  0  0  0  0  0  0  0  0  0  0  0
    4.7547   -1.4588   25.1735 H   0  0  0  0  0  0  0  0  0  0  0  0
    5.4484   -0.9672   27.1332 C   0  0  0  0  0  0  0  0  0  0  0  0
    5.8298   -0.0790   27.6565 H   0  0  0  0  0  0  0  0  0  0  0  0
    6.2590   -1.7071   27.1524 H   0  0  0  0  0  0  0  0  0  0  0  0
    4.2079   -1.5419   27.8553 C   0  0  0  0  0  0  0  0  0  0  0  0
    4.1943   -2.6383   27.7698 H   0  0  0  0  0  0  0  0  0  0  0  0
    4.3088   -1.3152   28.9240 H   0  0  0  0  0  0  0  0  0  0  0  0
    2.8599   -0.9910   27.3256 C   0  0  0  0  0  0  0  0  0  0  0  0
    2.1025   -1.0382   28.1179 H   0  0  0  0  0  0  0  0  0  0  0  0
    2.4979   -1.6363   26.5126 H   0  0  0  0  0  0  0  0  0  0  0  0
    2.9848    0.4417   26.7892 C   0  0  0  0  0  0  0  0  0  0  0  0
    3.2960    1.1024   27.6107 H   0  0  0  0  0  0  0  0  0  0  0  0
    2.0060    0.8125   26.4544 H   0  0  0  0  0  0  0  0  0  0  0  0
    4.0032    0.5313   25.6263 C   0  0  0  0  0  0  0  0  0  0  0  0
    4.4453    1.5367   25.6120 H   0  0  0  0  0  0  0  0  0  0  0  0
    3.4688    0.4154   24.6797 H   0  0  0  0  0  0  0  0  0  0  0  0
    5.3544    0.8139   20.2668 C   0  0  0  0  0  0  0  0  0  0  0  0
    4.9038    0.9767   21.2398 H   0  0  0  0  0  0  0  0  0  0  0  0
    4.9000    1.4635   19.1205 C   0  0  0  0  0  0  0  0  0  0  0  0
    4.0893    2.1806   19.2015 H   0  0  0  0  0  0  0  0  0  0  0  0
  1  2  1  0
  2  3  2  0
  3  4  1  0
  4  5  1  0
  4  6  2  0
  6  7  1  0
  7  8  1  0
  8  9  1  0
  8 10  1  0
  8 11  1  0
  7 12  1  0
 12 13  2  0
 12 14  2  0
 12 15  1  0
 15 16  1  0
 15 17  1  0
 17 18  2  0
 17 19  1  0
 19 20  1  0
 19 21  1  0
 21 22  1  0
 21 23  1  0
 21 24  1  0
 24 25  1  0
 24 26  1  0
 24 27  1  0
 27 28  1  0
 27 29  1  0
 27 30  1  0
 30 31  1  0
 30 32  1  0
 30 33  1  0
 33 34  1  0
 33 35  1  0
  6 36  1  0
 36 37  1  0
 36 38  2  0
 38 39  1  0
 38  2  1  0
 33 19  1  0
M  END
>  <cnnaffinity>  (1) 
-4.77004

>  <filename>  (1) 
CN(c1cccnc1)S(=O)(=O)NC(=O)C1CCCCC1

$$$$
