
     RDKit          3D

 29 30  0  0  0  0  0  0  0  0999 V2000
    5.0023    1.6799   17.0668 H   0  0  0  0  0  0  0  0  0  0  0  0
    5.4775    1.2381   17.9412 C   0  0  0  0  0  0  0  0  0  0  0  0
    6.6498    0.6245   17.7272 N   0  0  0  0  0  0  0  0  0  0  0  0
    7.2533    0.0634   18.7686 C   0  0  0  0  0  0  0  0  0  0  0  0
    8.2041   -0.4192   18.5546 H   0  0  0  0  0  0  0  0  0  0  0  0
    6.7155    0.1062   20.0490 C   0  0  0  0  0  0  0  0  0  0  0  0
    7.7566   -0.7790   21.1319 S   0  0  0  0  0  0  0  0  0  0  0  0
    7.4031   -2.1852   21.0102 O   0  0  0  0  0  0  0  0  0  0  0  0
    9.1191   -0.3461   20.8925 O   0  0  0  0  0  0  0  0  0  0  0  0
    7.2463   -0.2732   22.6243 N   0  0  0  0  0  0  0  0  0  0  0  0
    7.8017    0.8992   23.1999 C   0  0  0  0  0  0  0  0  0  0  0  0
    8.2087    2.0145   22.4422 C   0  0  0  0  0  0  0  0  0  0  0  0
    8.1576    2.0076   21.3602 H   0  0  0  0  0  0  0  0  0  0  0  0
    8.7060    3.1585   23.0840 C   0  0  0  0  0  0  0  0  0  0  0  0
    9.0131    4.0227   22.4970 H   0  0  0  0  0  0  0  0  0  0  0  0
    8.7938    3.2216   24.4788 C   0  0  0  0  0  0  0  0  0  0  0  0
    9.1600    4.1016   24.9993 H   0  0  0  0  0  0  0  0  0  0  0  0
    8.3715    2.1194   25.2153 C   0  0  0  0  0  0  0  0  0  0  0  0
    8.3114    2.2057   26.9502 Cl  0  0  0  0  0  0  0  0  0  0  0  0
    7.9129    0.9602   24.5977 C   0  0  0  0  0  0  0  0  0  0  0  0
    7.6485    0.1114   25.2104 H   0  0  0  0  0  0  0  0  0  0  0  0
    6.6284   -1.2976   23.4793 C   0  0  0  0  0  0  0  0  0  0  0  0
    7.3708   -1.8219   24.0985 H   0  0  0  0  0  0  0  0  0  0  0  0
    5.9076   -0.7834   24.1266 H   0  0  0  0  0  0  0  0  0  0  0  0
    6.1135   -2.0337   22.8594 H   0  0  0  0  0  0  0  0  0  0  0  0
    5.4917    0.7350   20.3027 C   0  0  0  0  0  0  0  0  0  0  0  0
    5.0398    0.8097   21.2976 H   0  0  0  0  0  0  0  0  0  0  0  0
    4.8630    1.3070   19.1959 C   0  0  0  0  0  0  0  0  0  0  0  0
    3.9132    1.8198   19.2827 H   0  0  0  0  0  0  0  0  0  0  0  0
  1  2  1  0
  2  3  2  0
  3  4  1  0
  4  5  1  0
  4  6  2  0
  6  7  1  0
  7  8  2  0
  7  9  2  0
  7 10  1  0
 10 11  1  0
 11 12  2  0
 12 13  1  0
 12 14  1  0
 14 15  1  0
 14 16  2  0
 16 17  1  0
 16 18  1  0
 18 19  1  0
 18 20  2  0
 20 21  1  0
 10 22  1  0
 22 23  1  0
 22 24  1  0
 22 25  1  0
  6 26  1  0
 26 27  1  0
 26 28  2  0
 28 29  1  0
 28  2  1  0
 20 11  1  0
M  END
>  <cnnaffinity>  (1) 
-4.58722

>  <filename>  (1) 
CN(c1cccc(Cl)c1)S(=O)(=O)c1cccnc1

$$$$
