
     RDKit          3D

 37 38  0  0  0  0  0  0  0  0999 V2000
    8.7512   -0.3811   21.2063 C   0  0  0  0  0  0  0  0  0  0  0  0
    7.3404   -0.6954   20.9683 N   0  0  0  0  0  0  0  0  0  0  0  0
    6.6676   -1.7329   21.6188 C   0  0  0  0  0  0  0  0  0  0  0  0
    5.5537   -2.0872   21.2722 O   0  0  0  0  0  0  0  0  0  0  0  0
    7.3894   -2.4252   22.7761 C   0  0  0  0  0  0  0  0  0  0  0  0
    6.6359   -3.6612   23.3157 C   0  0  0  0  0  0  0  0  0  0  0  0
    7.3780   -4.3448   24.4521 C   0  0  0  0  0  0  0  0  0  0  0  0
    7.2852   -3.7782   25.7337 C   0  0  0  0  0  0  0  0  0  0  0  0
    7.9649   -4.3215   26.8275 C   0  0  0  0  0  0  0  0  0  0  0  0
    8.7646   -5.4529   26.6464 C   0  0  0  0  0  0  0  0  0  0  0  0
    8.8789   -6.0308   25.3781 C   0  0  0  0  0  0  0  0  0  0  0  0
    8.1792   -5.4957   24.2802 C   0  0  0  0  0  0  0  0  0  0  0  0
    8.2622   -6.1619   22.9181 C   0  0  0  0  0  0  0  0  0  0  0  0
    8.5870   -5.2650   21.9582 F   0  0  0  0  0  0  0  0  0  0  0  0
    7.0873   -6.7016   22.5225 F   0  0  0  0  0  0  0  0  0  0  0  0
    9.1646   -7.1573   22.8717 F   0  0  0  0  0  0  0  0  0  0  0  0
    9.5141   -6.9028   25.2375 H   0  0  0  0  0  0  0  0  0  0  0  0
    9.2938   -5.8902   27.4894 H   0  0  0  0  0  0  0  0  0  0  0  0
    7.8726   -3.8646   27.8093 H   0  0  0  0  0  0  0  0  0  0  0  0
    6.6635   -2.8919   25.8541 H   0  0  0  0  0  0  0  0  0  0  0  0
    5.6524   -3.3367   23.6788 H   0  0  0  0  0  0  0  0  0  0  0  0
    6.4196   -4.3619   22.5037 H   0  0  0  0  0  0  0  0  0  0  0  0
    8.3979   -2.7080   22.4553 H   0  0  0  0  0  0  0  0  0  0  0  0
    7.5269   -1.6869   23.5790 H   0  0  0  0  0  0  0  0  0  0  0  0
    6.6617    0.0076   19.9075 C   0  0  0  0  0  0  0  0  0  0  0  0
    5.4415    0.6457   20.1557 C   0  0  0  0  0  0  0  0  0  0  0  0
    4.8158    1.3142   19.1012 C   0  0  0  0  0  0  0  0  0  0  0  0
    5.4015    1.2989   17.8316 C   0  0  0  0  0  0  0  0  0  0  0  0
    6.5650    0.6810   17.5720 N   0  0  0  0  0  0  0  0  0  0  0  0
    7.1768    0.0708   18.5959 C   0  0  0  0  0  0  0  0  0  0  0  0
    8.1226   -0.4180   18.3674 H   0  0  0  0  0  0  0  0  0  0  0  0
    4.9246    1.7927   16.9859 H   0  0  0  0  0  0  0  0  0  0  0  0
    3.8822    1.8389   19.2522 H   0  0  0  0  0  0  0  0  0  0  0  0
    5.0138    0.6018   21.1592 H   0  0  0  0  0  0  0  0  0  0  0  0
    8.9683    0.5529   20.6881 H   0  0  0  0  0  0  0  0  0  0  0  0
    8.9634   -0.2222   22.2728 H   0  0  0  0  0  0  0  0  0  0  0  0
    9.4469   -1.1484   20.8284 H   0  0  0  0  0  0  0  0  0  0  0  0
  1  2  1  0
  2  3  1  0
  3  4  2  0
  3  5  1  0
  5  6  1  0
  6  7  1  0
  7  8  2  0
  8  9  1  0
  9 10  2  0
 10 11  1  0
 11 12  2  0
 12 13  1  0
 13 14  1  0
 13 15  1  0
 13 16  1  0
 11 17  1  0
 10 18  1  0
  9 19  1  0
  8 20  1  0
  6 21  1  0
  6 22  1  0
  5 23  1  0
  5 24  1  0
  2 25  1  0
 25 26  2  0
 26 27  1  0
 27 28  2  0
 28 29  1  0
 29 30  2  0
 30 31  1  0
 28 32  1  0
 27 33  1  0
 26 34  1  0
  1 35  1  0
  1 36  1  0
  1 37  1  0
 12  7  1  0
 30 25  1  0
M  END
>  <cnnaffinity>  (1) 
-5.25171

>  <filename>  (1) 
CN(C(=O)CCc1ccccc1C(F)(F)F)c1cccnc1

$$$$
