
     RDKit          3D

 52 54  0  0  0  0  0  0  0  0999 V2000
   11.1002    0.7287   25.4792 C   0  0  0  0  0  0  0  0  0  0  0  0
    9.9085    1.3607   24.9054 N   0  0  0  0  0  0  0  0  0  0  0  0
    8.6602    1.4321   25.6544 C   0  0  0  0  0  0  0  0  0  0  0  0
    8.2514    2.4533   25.6590 H   0  0  0  0  0  0  0  0  0  0  0  0
    7.9034    0.7529   25.2383 H   0  0  0  0  0  0  0  0  0  0  0  0
    8.8354    1.1448   26.6954 H   0  0  0  0  0  0  0  0  0  0  0  0
   10.0326    1.8723   23.6363 C   0  0  0  0  0  0  0  0  0  0  0  0
   11.1366    2.0660   23.1421 O   0  0  0  0  0  0  0  0  0  0  0  0
    8.7593    2.1950   22.8386 C   0  0  0  0  0  0  0  0  0  0  0  0
    8.9786    2.0505   21.3234 C   0  0  0  0  0  0  0  0  0  0  0  0
    9.4995    0.6450   20.9536 C   0  0  0  0  0  0  0  0  0  0  0  0
    8.6147   -0.4644   21.4248 C   0  0  0  0  0  0  0  0  0  0  0  0
    8.8331   -1.3045   22.4232 N   0  0  0  0  0  0  0  0  0  0  0  0
    7.6490   -1.9729   22.5356 C   0  0  0  0  0  0  0  0  0  0  0  0
    7.3503   -2.9803   23.6148 C   0  0  0  0  0  0  0  0  0  0  0  0
    8.4168   -4.1178   23.6474 C   0  0  0  0  0  0  0  0  0  0  0  0
    8.4475   -4.8174   25.0144 C   0  0  0  0  0  0  0  0  0  0  0  0
    8.8574   -3.8307   26.1170 C   0  0  0  0  0  0  0  0  0  0  0  0
   10.2070   -3.9296   26.3250 F   0  0  0  0  0  0  0  0  0  0  0  0
    8.2737   -4.2158   27.2980 F   0  0  0  0  0  0  0  0  0  0  0  0
    8.4973   -2.3679   25.8205 C   0  0  0  0  0  0  0  0  0  0  0  0
    7.1910   -2.2849   25.0126 C   0  0  0  0  0  0  0  0  0  0  0  0
    6.3836   -2.7732   25.5760 H   0  0  0  0  0  0  0  0  0  0  0  0
    6.8798   -1.2396   24.8905 H   0  0  0  0  0  0  0  0  0  0  0  0
    9.3105   -1.9373   25.2183 H   0  0  0  0  0  0  0  0  0  0  0  0
    8.4389   -1.8169   26.7650 H   0  0  0  0  0  0  0  0  0  0  0  0
    7.4560   -5.2089   25.2733 H   0  0  0  0  0  0  0  0  0  0  0  0
    9.1402   -5.6648   25.0300 H   0  0  0  0  0  0  0  0  0  0  0  0
    9.4096   -3.6938   23.4451 H   0  0  0  0  0  0  0  0  0  0  0  0
    8.2274   -4.8376   22.8468 H   0  0  0  0  0  0  0  0  0  0  0  0
    6.3764   -3.4052   23.3461 H   0  0  0  0  0  0  0  0  0  0  0  0
    6.7303   -1.6072   21.6690 N   0  0  0  0  0  0  0  0  0  0  0  0
    7.3600   -0.6590   20.9290 N   0  0  0  0  0  0  0  0  0  0  0  0
    6.6686   -0.0034   19.8736 C   0  0  0  0  0  0  0  0  0  0  0  0
    5.4532    0.6318   20.1355 C   0  0  0  0  0  0  0  0  0  0  0  0
    4.8303    1.3118   19.0866 C   0  0  0  0  0  0  0  0  0  0  0  0
    5.4294    1.3116   17.8214 C   0  0  0  0  0  0  0  0  0  0  0  0
    6.5714    0.6620   17.5524 N   0  0  0  0  0  0  0  0  0  0  0  0
    7.1684    0.0153   18.5607 C   0  0  0  0  0  0  0  0  0  0  0  0
    8.0782   -0.5318   18.3160 H   0  0  0  0  0  0  0  0  0  0  0  0
    4.9670    1.8431   16.9915 H   0  0  0  0  0  0  0  0  0  0  0  0
    3.8949    1.8352   19.2427 H   0  0  0  0  0  0  0  0  0  0  0  0
    5.0219    0.5726   21.1359 H   0  0  0  0  0  0  0  0  0  0  0  0
    9.6054    0.5696   19.8692 H   0  0  0  0  0  0  0  0  0  0  0  0
   10.4913    0.5050   21.3937 H   0  0  0  0  0  0  0  0  0  0  0  0
    9.7331    2.7770   21.0081 H   0  0  0  0  0  0  0  0  0  0  0  0
    8.0576    2.2827   20.7696 H   0  0  0  0  0  0  0  0  0  0  0  0
    7.9382    1.5427   23.1552 H   0  0  0  0  0  0  0  0  0  0  0  0
    8.4591    3.2223   23.0821 H   0  0  0  0  0  0  0  0  0  0  0  0
   11.9803    1.3511   25.2744 H   0  0  0  0  0  0  0  0  0  0  0  0
   10.9683    0.6030   26.5566 H   0  0  0  0  0  0  0  0  0  0  0  0
   11.2907   -0.2625   25.0400 H   0  0  0  0  0  0  0  0  0  0  0  0
  1  2  1  0
  2  3  1  0
  3  4  1  0
  3  5  1  0
  3  6  1  0
  2  7  1  0
  7  8  2  0
  7  9  1  0
  9 10  1  0
 10 11  1  0
 11 12  1  0
 12 13  2  0
 13 14  1  0
 14 15  1  0
 15 16  1  0
 16 17  1  0
 17 18  1  0
 18 19  1  0
 18 20  1  0
 18 21  1  0
 21 22  1  0
 22 23  1  0
 22 24  1  0
 21 25  1  0
 21 26  1  0
 17 27  1  0
 17 28  1  0
 16 29  1  0
 16 30  1  0
 15 31  1  0
 14 32  2  0
 32 33  1  0
 33 34  1  0
 34 35  2  0
 35 36  1  0
 36 37  2  0
 37 38  1  0
 38 39  2  0
 39 40  1  0
 37 41  1  0
 36 42  1  0
 35 43  1  0
 11 44  1  0
 11 45  1  0
 10 46  1  0
 10 47  1  0
  9 48  1  0
  9 49  1  0
  1 50  1  0
  1 51  1  0
  1 52  1  0
 33 12  1  0
 39 34  1  0
 22 15  1  0
M  END
>  <cnnaffinity>  (1) 
-6.31977

>  <filename>  (1) 
CN(C)C(=O)CCCc1nc(C2CCC(F)(F)CC2)nn1-c1cccnc1

$$$$
