
     RDKit          3D

 34 36  0  0  0  0  0  0  0  0999 V2000
    9.8192   -3.0191   24.4122 C   0  0  0  0  0  0  0  0  0  0  0  0
    8.5683   -2.2615   24.2154 N   0  0  0  0  0  0  0  0  0  0  0  0
    7.6469   -2.0929   25.3592 C   0  0  0  0  0  0  0  0  0  0  0  0
    6.4727   -3.0326   25.2398 C   0  0  0  0  0  0  0  0  0  0  0  0
    6.6570   -4.4221   25.3244 C   0  0  0  0  0  0  0  0  0  0  0  0
    5.5713   -5.2945   25.1951 C   0  0  0  0  0  0  0  0  0  0  0  0
    4.2855   -4.7829   24.9929 C   0  0  0  0  0  0  0  0  0  0  0  0
    4.0811   -3.4011   24.9324 C   0  0  0  0  0  0  0  0  0  0  0  0
    2.3128   -2.7034   24.7211 Br  0  0  0  0  0  0  0  0  0  0  0  0
    5.1733   -2.5340   25.0555 C   0  0  0  0  0  0  0  0  0  0  0  0
    4.9998   -1.4639   25.0046 H   0  0  0  0  0  0  0  0  0  0  0  0
    3.4400   -5.4564   24.8935 H   0  0  0  0  0  0  0  0  0  0  0  0
    5.7268   -6.3680   25.2521 H   0  0  0  0  0  0  0  0  0  0  0  0
    7.6507   -4.8302   25.4787 H   0  0  0  0  0  0  0  0  0  0  0  0
    8.1630   -2.3044   26.3039 H   0  0  0  0  0  0  0  0  0  0  0  0
    7.3016   -1.0553   25.4250 H   0  0  0  0  0  0  0  0  0  0  0  0
    8.2564   -1.7509   22.9423 C   0  0  0  0  0  0  0  0  0  0  0  0
    9.0205   -1.9390   21.8913 N   0  0  0  0  0  0  0  0  0  0  0  0
    8.5370   -1.3459   20.7524 N   0  0  0  0  0  0  0  0  0  0  0  0
    7.4052   -0.7166   20.9647 C   0  0  0  0  0  0  0  0  0  0  0  0
    6.6724   -0.0006   19.9095 C   0  0  0  0  0  0  0  0  0  0  0  0
    5.4540    0.6418   20.1684 C   0  0  0  0  0  0  0  0  0  0  0  0
    4.8252    1.3010   19.1089 C   0  0  0  0  0  0  0  0  0  0  0  0
    5.4055    1.2918   17.8333 C   0  0  0  0  0  0  0  0  0  0  0  0
    6.5724    0.6699   17.5821 N   0  0  0  0  0  0  0  0  0  0  0  0
    7.1891    0.0499   18.6033 C   0  0  0  0  0  0  0  0  0  0  0  0
    8.1334   -0.4404   18.3976 H   0  0  0  0  0  0  0  0  0  0  0  0
    4.8909    1.7940   17.0176 H   0  0  0  0  0  0  0  0  0  0  0  0
    3.8877    1.8284   19.2607 H   0  0  0  0  0  0  0  0  0  0  0  0
    5.0023    0.6386   21.1650 H   0  0  0  0  0  0  0  0  0  0  0  0
    6.8343   -0.8062   22.6166 S   0  0  0  0  0  0  0  0  0  0  0  0
   10.6788   -2.3792   24.2032 H   0  0  0  0  0  0  0  0  0  0  0  0
    9.9120   -3.3782   25.4432 H   0  0  0  0  0  0  0  0  0  0  0  0
    9.8570   -3.8881   23.7493 H   0  0  0  0  0  0  0  0  0  0  0  0
  1  2  1  0
  2  3  1  0
  3  4  1  0
  4  5  2  0
  5  6  1  0
  6  7  2  0
  7  8  1  0
  8  9  1  0
  8 10  2  0
 10 11  1  0
  7 12  1  0
  6 13  1  0
  5 14  1  0
  3 15  1  0
  3 16  1  0
  2 17  1  0
 17 18  2  0
 18 19  1  0
 19 20  2  0
 20 21  1  0
 21 22  2  0
 22 23  1  0
 23 24  2  0
 24 25  1  0
 25 26  2  0
 26 27  1  0
 24 28  1  0
 23 29  1  0
 22 30  1  0
 20 31  1  0
  1 32  1  0
  1 33  1  0
  1 34  1  0
 10  4  1  0
 31 17  1  0
 26 21  1  0
M  END
>  <cnnaffinity>  (1) 
-5.49546

>  <filename>  (1) 
CN(Cc1cccc(Br)c1)c1nnc(-c2cccnc2)s1

$$$$
