
     RDKit          3D

 31 32  0  0  0  0  0  0  0  0999 V2000
    4.9147    1.7865   16.9930 H   0  0  0  0  0  0  0  0  0  0  0  0
    5.3963    1.2947   17.8358 C   0  0  0  0  0  0  0  0  0  0  0  0
    6.5545    0.6702   17.5667 N   0  0  0  0  0  0  0  0  0  0  0  0
    7.1781    0.0658   18.5846 C   0  0  0  0  0  0  0  0  0  0  0  0
    8.1255   -0.4166   18.3589 H   0  0  0  0  0  0  0  0  0  0  0  0
    6.6811    0.0136   19.9053 C   0  0  0  0  0  0  0  0  0  0  0  0
    7.3985   -0.6752   20.9492 N   0  0  0  0  0  0  0  0  0  0  0  0
    8.7011   -0.2630   21.2432 C   0  0  0  0  0  0  0  0  0  0  0  0
    9.2025    0.7030   20.6946 O   0  0  0  0  0  0  0  0  0  0  0  0
    9.5017   -1.0588   22.2698 C   0  0  0  0  0  0  0  0  0  0  0  0
    9.4198   -2.1347   22.0866 H   0  0  0  0  0  0  0  0  0  0  0  0
   10.5426   -0.7902   22.0803 H   0  0  0  0  0  0  0  0  0  0  0  0
    9.1274   -0.7056   23.6910 C   0  0  0  0  0  0  0  0  0  0  0  0
    9.3102    0.6060   24.1569 C   0  0  0  0  0  0  0  0  0  0  0  0
    9.7378    1.3513   23.4884 H   0  0  0  0  0  0  0  0  0  0  0  0
    8.9470    0.9436   25.4637 C   0  0  0  0  0  0  0  0  0  0  0  0
    9.0933    1.9569   25.8261 H   0  0  0  0  0  0  0  0  0  0  0  0
    8.3913   -0.0163   26.3177 C   0  0  0  0  0  0  0  0  0  0  0  0
    8.1020    0.2285   27.3358 H   0  0  0  0  0  0  0  0  0  0  0  0
    8.2140   -1.3169   25.8420 C   0  0  0  0  0  0  0  0  0  0  0  0
    7.5289   -2.5253   26.8875 Cl  0  0  0  0  0  0  0  0  0  0  0  0
    8.5799   -1.6697   24.5410 C   0  0  0  0  0  0  0  0  0  0  0  0
    8.4227   -2.6864   24.1906 H   0  0  0  0  0  0  0  0  0  0  0  0
    6.6576   -1.6543   21.7451 C   0  0  0  0  0  0  0  0  0  0  0  0
    7.2124   -2.5903   21.8643 H   0  0  0  0  0  0  0  0  0  0  0  0
    6.3800   -1.2760   22.7384 H   0  0  0  0  0  0  0  0  0  0  0  0
    5.7336   -1.9069   21.2182 H   0  0  0  0  0  0  0  0  0  0  0  0
    5.4537    0.6393   20.1604 C   0  0  0  0  0  0  0  0  0  0  0  0
    5.0310    0.6145   21.1675 H   0  0  0  0  0  0  0  0  0  0  0  0
    4.8126    1.3079   19.1092 C   0  0  0  0  0  0  0  0  0  0  0  0
    3.8775    1.8386   19.2620 H   0  0  0  0  0  0  0  0  0  0  0  0
  1  2  1  0
  2  3  2  0
  3  4  1  0
  4  5  1  0
  4  6  2  0
  6  7  1  0
  7  8  1  0
  8  9  2  0
  8 10  1  0
 10 11  1  0
 10 12  1  0
 10 13  1  0
 13 14  2  0
 14 15  1  0
 14 16  1  0
 16 17  1  0
 16 18  2  0
 18 19  1  0
 18 20  1  0
 20 21  1  0
 20 22  2  0
 22 23  1  0
  7 24  1  0
 24 25  1  0
 24 26  1  0
 24 27  1  0
  6 28  1  0
 28 29  1  0
 28 30  2  0
 30 31  1  0
 30  2  1  0
 22 13  1  0
M  END
>  <cnnaffinity>  (1) 
-5.07484

>  <filename>  (1) 
CN(C(=O)Cc1cccc(Cl)c1)c1cccnc1

$$$$
