
     RDKit          3D

 46 47  0  0  0  0  0  0  0  0999 V2000
    4.8909    1.8551   17.0363 H   0  0  0  0  0  0  0  0  0  0  0  0
    5.4023    1.3247   17.8369 C   0  0  0  0  0  0  0  0  0  0  0  0
    6.5597    0.7230   17.5118 N   0  0  0  0  0  0  0  0  0  0  0  0
    7.2116    0.0655   18.4836 C   0  0  0  0  0  0  0  0  0  0  0  0
    8.1572   -0.3970   18.1938 H   0  0  0  0  0  0  0  0  0  0  0  0
    6.7462   -0.0730   19.8178 C   0  0  0  0  0  0  0  0  0  0  0  0
    7.4685   -0.8411   20.7887 N   0  0  0  0  0  0  0  0  0  0  0  0
    6.7258   -1.7191   21.7104 C   0  0  0  0  0  0  0  0  0  0  0  0
    7.0806   -2.7557   21.5988 H   0  0  0  0  0  0  0  0  0  0  0  0
    5.6797   -1.7350   21.3926 H   0  0  0  0  0  0  0  0  0  0  0  0
    6.7621   -1.3986   23.2203 C   0  0  0  0  0  0  0  0  0  0  0  0
    7.6928   -1.7859   23.6656 H   0  0  0  0  0  0  0  0  0  0  0  0
    5.9462   -1.9491   23.6963 H   0  0  0  0  0  0  0  0  0  0  0  0
    6.6072    0.0341   23.5082 N   0  0  0  0  0  0  0  0  0  0  0  0
    5.9239    0.1874   24.7412 O   0  0  0  0  0  0  0  0  0  0  0  0
    4.8732    1.1325   24.5101 C   0  0  0  0  0  0  0  0  0  0  0  0
    5.2798    2.0350   24.0331 H   0  0  0  0  0  0  0  0  0  0  0  0
    4.1813    0.7088   23.7940 H   0  0  0  0  0  0  0  0  0  0  0  0
    4.1499    1.5175   25.7964 C   0  0  0  0  0  0  0  0  0  0  0  0
    3.1508    1.9028   25.5556 H   0  0  0  0  0  0  0  0  0  0  0  0
    4.0002    0.6207   26.4050 H   0  0  0  0  0  0  0  0  0  0  0  0
    4.9014    2.6085   26.5622 C   0  0  0  0  0  0  0  0  0  0  0  0
    4.3091    2.9893   27.4172 H   0  0  0  0  0  0  0  0  0  0  0  0
    5.0000    3.4705   25.8839 H   0  0  0  0  0  0  0  0  0  0  0  0
    6.2283    2.1636   26.9517 N   0  0  0  0  0  0  0  0  0  0  0  0
    7.2102    3.2216   27.0289 C   0  0  0  0  0  0  0  0  0  0  0  0
    8.1916    2.7909   27.2478 H   0  0  0  0  0  0  0  0  0  0  0  0
    6.9950    4.0003   27.7848 H   0  0  0  0  0  0  0  0  0  0  0  0
    7.2865    3.7121   26.0510 H   0  0  0  0  0  0  0  0  0  0  0  0
    6.2256    1.2589   28.0848 C   0  0  0  0  0  0  0  0  0  0  0  0
    5.8576    1.7016   29.0312 H   0  0  0  0  0  0  0  0  0  0  0  0
    5.6031    0.3867   27.8589 H   0  0  0  0  0  0  0  0  0  0  0  0
    7.2374    0.8807   28.2571 H   0  0  0  0  0  0  0  0  0  0  0  0
    7.9165    0.6948   23.6199 C   0  0  0  0  0  0  0  0  0  0  0  0
    7.7714    1.6312   24.1725 H   0  0  0  0  0  0  0  0  0  0  0  0
    8.5986    0.0960   24.2471 H   0  0  0  0  0  0  0  0  0  0  0  0
    8.5348    0.9740   22.2436 C   0  0  0  0  0  0  0  0  0  0  0  0
    7.9077    1.7095   21.7238 H   0  0  0  0  0  0  0  0  0  0  0  0
    9.5276    1.4274   22.3874 H   0  0  0  0  0  0  0  0  0  0  0  0
    8.7044   -0.2411   21.3048 C   0  0  0  0  0  0  0  0  0  0  0  0
    9.2958   -1.0315   21.7847 H   0  0  0  0  0  0  0  0  0  0  0  0
    9.2961    0.0803   20.4396 H   0  0  0  0  0  0  0  0  0  0  0  0
    5.5451    0.5913   20.1310 C   0  0  0  0  0  0  0  0  0  0  0  0
    5.2136    0.5842   21.1713 H   0  0  0  0  0  0  0  0  0  0  0  0
    4.8554    1.2894   19.1251 C   0  0  0  0  0  0  0  0  0  0  0  0
    3.9170    1.7973   19.3147 H   0  0  0  0  0  0  0  0  0  0  0  0
  1  2  1  0
  2  3  2  0
  3  4  1  0
  4  5  1  0
  4  6  2  0
  6  7  1  0
  7  8  1  0
  8  9  1  0
  8 10  1  0
  8 11  1  0
 11 12  1  0
 11 13  1  0
 11 14  1  0
 14 15  1  0
 15 16  1  0
 16 17  1  0
 16 18  1  0
 16 19  1  0
 19 20  1  0
 19 21  1  0
 19 22  1  0
 22 23  1  0
 22 24  1  0
 22 25  1  0
 25 26  1  0
 26 27  1  0
 26 28  1  0
 26 29  1  0
 25 30  1  0
 30 31  1  0
 30 32  1  0
 30 33  1  0
 14 34  1  0
 34 35  1  0
 34 36  1  0
 34 37  1  0
 37 38  1  0
 37 39  1  0
 37 40  1  0
 40 41  1  0
 40 42  1  0
  6 43  1  0
 43 44  1  0
 43 45  2  0
 45 46  1  0
 45  2  1  0
 40  7  1  0
M  END
>  <cnnaffinity>  (1) 
-5.01838

>  <filename>  (1) 
CN(C)CCCON1CCCN(c2cccnc2)CC1

$$$$
