
     RDKit          3D

 32 34  0  0  0  0  0  0  0  0999 V2000
    5.0996    1.7457   17.0320 H   0  0  0  0  0  0  0  0  0  0  0  0
    5.5266    1.2878   17.9230 C   0  0  0  0  0  0  0  0  0  0  0  0
    6.7052    0.6726   17.7646 N   0  0  0  0  0  0  0  0  0  0  0  0
    7.2412    0.0633   18.8181 C   0  0  0  0  0  0  0  0  0  0  0  0
    8.1824   -0.4487   18.6321 H   0  0  0  0  0  0  0  0  0  0  0  0
    6.6253    0.0580   20.0639 C   0  0  0  0  0  0  0  0  0  0  0  0
    7.5448   -0.7853   21.2931 S   0  0  0  0  0  0  0  0  0  0  0  0
    6.6305   -1.3065   22.2848 O   0  0  0  0  0  0  0  0  0  0  0  0
    8.4952   -1.6542   20.6208 O   0  0  0  0  0  0  0  0  0  0  0  0
    8.4593    0.4505   21.9468 N   0  0  0  0  0  0  0  0  0  0  0  0
    7.9481    1.1796   23.0518 C   0  0  0  0  0  0  0  0  0  0  0  0
    7.9498    0.7491   24.3318 C   0  0  0  0  0  0  0  0  0  0  0  0
    8.2747   -0.2229   24.6721 H   0  0  0  0  0  0  0  0  0  0  0  0
    7.3650    1.9343   25.4552 S   0  0  0  0  0  0  0  0  0  0  0  0
    7.0673    3.0738   24.1651 C   0  0  0  0  0  0  0  0  0  0  0  0
    6.5310    4.3743   24.2514 C   0  0  0  0  0  0  0  0  0  0  0  0
    6.2456    4.8014   25.2129 H   0  0  0  0  0  0  0  0  0  0  0  0
    6.3597    5.0930   23.0695 C   0  0  0  0  0  0  0  0  0  0  0  0
    5.9414    6.0967   23.1167 H   0  0  0  0  0  0  0  0  0  0  0  0
    6.6966    4.5452   21.8078 C   0  0  0  0  0  0  0  0  0  0  0  0
    6.5532    5.1390   20.9026 H   0  0  0  0  0  0  0  0  0  0  0  0
    7.2063    3.2520   21.7314 C   0  0  0  0  0  0  0  0  0  0  0  0
    7.4305    2.7328   20.8004 H   0  0  0  0  0  0  0  0  0  0  0  0
    7.4197    2.5197   22.9122 C   0  0  0  0  0  0  0  0  0  0  0  0
    9.8743    0.6046   21.6029 C   0  0  0  0  0  0  0  0  0  0  0  0
   10.0670    1.6243   21.2430 H   0  0  0  0  0  0  0  0  0  0  0  0
   10.4946    0.4439   22.4951 H   0  0  0  0  0  0  0  0  0  0  0  0
   10.1352   -0.1189   20.8224 H   0  0  0  0  0  0  0  0  0  0  0  0
    5.3993    0.7057   20.2615 C   0  0  0  0  0  0  0  0  0  0  0  0
    4.8957    0.7623   21.2320 H   0  0  0  0  0  0  0  0  0  0  0  0
    4.8412    1.3246   19.1421 C   0  0  0  0  0  0  0  0  0  0  0  0
    3.8929    1.8469   19.1900 H   0  0  0  0  0  0  0  0  0  0  0  0
  1  2  1  0
  2  3  2  0
  3  4  1  0
  4  5  1  0
  4  6  2  0
  6  7  1  0
  7  8  2  0
  7  9  2  0
  7 10  1  0
 10 11  1  0
 11 12  2  0
 12 13  1  0
 12 14  1  0
 14 15  1  0
 15 16  2  0
 16 17  1  0
 16 18  1  0
 18 19  1  0
 18 20  2  0
 20 21  1  0
 20 22  1  0
 22 23  1  0
 22 24  2  0
 10 25  1  0
 25 26  1  0
 25 27  1  0
 25 28  1  0
  6 29  1  0
 29 30  1  0
 29 31  2  0
 31 32  1  0
 31  2  1  0
 24 11  1  0
 24 15  1  0
M  END
>  <cnnaffinity>  (1) 
-4.79339

>  <filename>  (1) 
CN(c1csc2ccccc12)S(=O)(=O)c1cccnc1

$$$$
