
     RDKit          3D

 34 37  0  0  0  0  0  0  0  0999 V2000
    5.0113    1.7124   16.8980 H   0  0  0  0  0  0  0  0  0  0  0  0
    5.4732    1.2393   17.7628 C   0  0  0  0  0  0  0  0  0  0  0  0
    6.6082    0.5625   17.5300 N   0  0  0  0  0  0  0  0  0  0  0  0
    7.1975   -0.0254   18.5731 C   0  0  0  0  0  0  0  0  0  0  0  0
    8.1191   -0.5663   18.3665 H   0  0  0  0  0  0  0  0  0  0  0  0
    6.6920    0.0364   19.8829 C   0  0  0  0  0  0  0  0  0  0  0  0
    7.4211   -0.6493   20.9487 C   0  0  0  0  0  0  0  0  0  0  0  0
    8.3066   -1.6024   20.7814 N   0  0  0  0  0  0  0  0  0  0  0  0
    8.7612   -2.0175   22.0123 N   0  0  0  0  0  0  0  0  0  0  0  0
    8.1369   -1.2820   22.8905 C   0  0  0  0  0  0  0  0  0  0  0  0
    8.1328   -1.0208   24.6082 S   0  0  0  0  0  0  0  0  0  0  0  0
    6.9583    0.2861   24.3241 C   0  0  0  0  0  0  0  0  0  0  0  0
    6.4604    1.1032   25.3259 N   0  0  0  0  0  0  0  0  0  0  0  0
    6.8286    0.9364   26.6836 C   0  0  0  0  0  0  0  0  0  0  0  0
    6.4492   -0.2592   28.0128 C   0  0  0  0  0  0  0  0  0  0  0  0
    7.2635   -1.4135   27.5181 H   0  0  0  0  0  0  0  0  0  0  0  0
    6.5540   -0.5786   27.9286 C   0  0  0  0  0  0  0  0  0  0  0  0
    5.3661   -0.9165   27.9883 H   0  0  0  0  0  0  0  0  0  0  0  0
    7.2278    0.4572   29.2034 C   0  0  0  0  0  0  0  0  0  0  0  0
    6.8441    0.2715   30.2200 H   0  0  0  0  0  0  0  0  0  0  0  0
    7.7302    1.7025   28.7977 C   0  0  0  0  0  0  0  0  0  0  0  0
    8.2472    2.4056   29.4330 H   0  0  0  0  0  0  0  0  0  0  0  0
    7.4629    1.9321   27.3762 C   0  0  0  0  0  0  0  0  0  0  0  0
    7.7755    2.8539   26.8642 H   0  0  0  0  0  0  0  0  0  0  0  0
    5.8296    2.3690   24.8793 C   0  0  0  0  0  0  0  0  0  0  0  0
    5.4614    2.9306   25.7469 H   0  0  0  0  0  0  0  0  0  0  0  0
    4.9796    2.1735   24.2081 H   0  0  0  0  0  0  0  0  0  0  0  0
    6.5383    3.0012   24.3170 H   0  0  0  0  0  0  0  0  0  0  0  0
    6.6175    0.4896   23.0813 N   0  0  0  0  0  0  0  0  0  0  0  0
    7.2743   -0.4142   22.2987 N   0  0  0  0  0  0  0  0  0  0  0  0
    5.5056    0.7424   20.1187 C   0  0  0  0  0  0  0  0  0  0  0  0
    5.1037    0.8126   21.1307 H   0  0  0  0  0  0  0  0  0  0  0  0
    4.8878    1.3485   19.0295 C   0  0  0  0  0  0  0  0  0  0  0  0
    3.9734    1.9146   19.1517 H   0  0  0  0  0  0  0  0  0  0  0  0
  1  2  1  0
  2  3  2  0
  3  4  1  0
  4  5  1  0
  4  6  2  0
  6  7  1  0
  7  8  2  0
  8  9  1  0
  9 10  2  0
 10 11  1  0
 11 12  1  0
 12 13  1  0
 13 14  1  0
 14 15  2  0
 15 16  1  0
 15 17  1  0
 17 18  1  0
 17 19  2  0
 19 20  1  0
 19 21  1  0
 21 22  1  0
 21 23  2  0
 23 24  1  0
 13 25  1  0
 25 26  1  0
 25 27  1  0
 25 28  1  0
 12 29  2  0
 29 30  1  0
  6 31  1  0
 31 32  1  0
 31 33  2  0
 33 34  1  0
 33  2  1  0
 30  7  1  0
 30 10  1  0
 23 14  1  0
M  END
>  <cnnaffinity>  (1) 
-5.08007

>  <filename>  (1) 
CN(c1ccccc1)c1nn2c(-c3cccnc3)nnc2s1

$$$$
