
     RDKit          3D

 44 46  0  0  0  0  0  0  0  0999 V2000
    4.9250    1.8155   16.9610 H   0  0  0  0  0  0  0  0  0  0  0  0
    5.3846    1.3115   17.8090 C   0  0  0  0  0  0  0  0  0  0  0  0
    6.5467    0.6866   17.5615 N   0  0  0  0  0  0  0  0  0  0  0  0
    7.1524    0.0737   18.5901 C   0  0  0  0  0  0  0  0  0  0  0  0
    8.0945   -0.4176   18.3599 H   0  0  0  0  0  0  0  0  0  0  0  0
    6.6348    0.0199   19.8956 C   0  0  0  0  0  0  0  0  0  0  0  0
    7.3765   -0.6760   20.9689 C   0  0  0  0  0  0  0  0  0  0  0  0
    8.6942   -0.5598   21.3707 C   0  0  0  0  0  0  0  0  0  0  0  0
    9.7123    0.4571   20.9286 C   0  0  0  0  0  0  0  0  0  0  0  0
    9.5388    0.7077   19.8744 H   0  0  0  0  0  0  0  0  0  0  0  0
   10.7145    0.0107   20.9842 H   0  0  0  0  0  0  0  0  0  0  0  0
    9.7229    1.7010   21.6807 N   0  0  0  0  0  0  0  0  0  0  0  0
    8.4930    2.4754   21.4861 C   0  0  0  0  0  0  0  0  0  0  0  0
    7.5965    1.9109   21.8037 H   0  0  0  0  0  0  0  0  0  0  0  0
    8.3945    2.6050   20.4017 H   0  0  0  0  0  0  0  0  0  0  0  0
    8.5552    3.8243   22.2511 C   0  0  0  0  0  0  0  0  0  0  0  0
    8.2873    4.6631   21.6003 H   0  0  0  0  0  0  0  0  0  0  0  0
    7.8099    3.8152   23.0571 H   0  0  0  0  0  0  0  0  0  0  0  0
    9.9427    4.0839   22.8726 C   0  0  0  0  0  0  0  0  0  0  0  0
   10.6884    4.1274   22.0739 H   0  0  0  0  0  0  0  0  0  0  0  0
   10.0063    5.3849   23.5444 N   0  0  0  0  0  0  0  0  0  0  0  0
    9.3447    5.4868   24.8362 C   0  0  0  0  0  0  0  0  0  0  0  0
    8.3572    5.0084   24.8145 H   0  0  0  0  0  0  0  0  0  0  0  0
    9.1938    6.5475   25.0739 H   0  0  0  0  0  0  0  0  0  0  0  0
    9.9243    5.0336   25.6654 H   0  0  0  0  0  0  0  0  0  0  0  0
   11.3521    5.9361   23.5910 C   0  0  0  0  0  0  0  0  0  0  0  0
   11.7591    5.9903   22.5749 H   0  0  0  0  0  0  0  0  0  0  0  0
   11.3120    6.9524   23.9941 H   0  0  0  0  0  0  0  0  0  0  0  0
   12.0596    5.3531   24.2127 H   0  0  0  0  0  0  0  0  0  0  0  0
   10.3850    2.8962   23.7507 C   0  0  0  0  0  0  0  0  0  0  0  0
   11.4659    3.0040   23.8985 H   0  0  0  0  0  0  0  0  0  0  0  0
    9.9036    2.9496   24.7348 H   0  0  0  0  0  0  0  0  0  0  0  0
   10.0462    1.5406   23.0980 C   0  0  0  0  0  0  0  0  0  0  0  0
    9.2056    1.0765   23.6454 H   0  0  0  0  0  0  0  0  0  0  0  0
   10.9090    0.8651   23.1751 H   0  0  0  0  0  0  0  0  0  0  0  0
    8.8156   -1.4615   22.4533 C   0  0  0  0  0  0  0  0  0  0  0  0
    9.6769   -1.6629   23.0851 H   0  0  0  0  0  0  0  0  0  0  0  0
    7.6759   -2.1005   22.7000 N   0  0  0  0  0  0  0  0  0  0  0  0
    6.8180   -1.5930   21.7963 N   0  0  0  0  0  0  0  0  0  0  0  0
    5.8608   -1.9209   21.7744 H   0  0  0  0  0  0  0  0  0  0  0  0
    5.4104    0.6653   20.1290 C   0  0  0  0  0  0  0  0  0  0  0  0
    4.9782    0.6664   21.1300 H   0  0  0  0  0  0  0  0  0  0  0  0
    4.7802    1.3244   19.0727 C   0  0  0  0  0  0  0  0  0  0  0  0
    3.8502    1.8632   19.2143 H   0  0  0  0  0  0  0  0  0  0  0  0
  1  2  1  0
  2  3  2  0
  3  4  1  0
  4  5  1  0
  4  6  2  0
  6  7  1  0
  7  8  2  0
  8  9  1  0
  9 10  1  0
  9 11  1  0
  9 12  1  0
 12 13  1  0
 13 14  1  0
 13 15  1  0
 13 16  1  0
 16 17  1  0
 16 18  1  0
 16 19  1  0
 19 20  1  0
 19 21  1  0
 21 22  1  0
 22 23  1  0
 22 24  1  0
 22 25  1  0
 21 26  1  0
 26 27  1  0
 26 28  1  0
 26 29  1  0
 19 30  1  0
 30 31  1  0
 30 32  1  0
 30 33  1  0
 33 34  1  0
 33 35  1  0
  8 36  1  0
 36 37  1  0
 36 38  2  0
 38 39  1  0
 39 40  1  0
  6 41  1  0
 41 42  1  0
 41 43  2  0
 43 44  1  0
 43  2  1  0
 39  7  1  0
 33 12  1  0
M  END
>  <cnnaffinity>  (1) 
-5.1039

>  <filename>  (1) 
CN(C)C1CCN(Cc2cn[nH]c2-c2cccnc2)CC1

$$$$
