
     RDKit          3D

 43 44  0  0  0  0  0  0  0  0999 V2000
    4.9344    1.8331   16.9503 H   0  0  0  0  0  0  0  0  0  0  0  0
    5.3926    1.3091   17.7850 C   0  0  0  0  0  0  0  0  0  0  0  0
    6.5559    0.6887   17.5254 N   0  0  0  0  0  0  0  0  0  0  0  0
    7.1748    0.0747   18.5463 C   0  0  0  0  0  0  0  0  0  0  0  0
    8.1293   -0.4034   18.3124 H   0  0  0  0  0  0  0  0  0  0  0  0
    6.6630    0.0172   19.8712 C   0  0  0  0  0  0  0  0  0  0  0  0
    7.3144   -0.5700   20.9816 N   0  0  0  0  0  0  0  0  0  0  0  0
    8.7660   -0.5022   21.1126 C   0  0  0  0  0  0  0  0  0  0  0  0
    9.1208    0.4146   20.6289 H   0  0  0  0  0  0  0  0  0  0  0  0
    9.2585   -1.3499   20.5976 H   0  0  0  0  0  0  0  0  0  0  0  0
    9.1609   -0.4800   22.5981 C   0  0  0  0  0  0  0  0  0  0  0  0
   10.2533   -0.4516   22.6949 H   0  0  0  0  0  0  0  0  0  0  0  0
    8.7715    0.4438   23.0427 H   0  0  0  0  0  0  0  0  0  0  0  0
    8.5896   -1.6833   23.3679 C   0  0  0  0  0  0  0  0  0  0  0  0
    8.7641   -1.5191   24.4419 H   0  0  0  0  0  0  0  0  0  0  0  0
    9.3222   -2.9807   22.9848 C   0  0  0  0  0  0  0  0  0  0  0  0
   10.4000   -2.8507   23.1674 H   0  0  0  0  0  0  0  0  0  0  0  0
    9.2232   -3.1563   21.9075 H   0  0  0  0  0  0  0  0  0  0  0  0
    8.8420   -4.2171   23.7354 C   0  0  0  0  0  0  0  0  0  0  0  0
    7.7970   -4.4241   23.4775 H   0  0  0  0  0  0  0  0  0  0  0  0
    9.3982   -5.0931   23.4012 H   0  0  0  0  0  0  0  0  0  0  0  0
    8.9590   -4.1264   25.2636 C   0  0  0  0  0  0  0  0  0  0  0  0
    8.2478   -3.3917   25.6622 H   0  0  0  0  0  0  0  0  0  0  0  0
    9.9551   -3.7585   25.5538 H   0  0  0  0  0  0  0  0  0  0  0  0
    8.7181   -5.3846   25.9513 N   0  0  0  0  0  0  0  0  0  0  0  0
    7.3604   -5.8731   25.7807 C   0  0  0  0  0  0  0  0  0  0  0  0
    7.0979   -6.1619   24.7439 H   0  0  0  0  0  0  0  0  0  0  0  0
    7.2027   -6.7460   26.4186 H   0  0  0  0  0  0  0  0  0  0  0  0
    6.6554   -5.0970   26.0989 H   0  0  0  0  0  0  0  0  0  0  0  0
    9.7278   -6.3961   25.6962 C   0  0  0  0  0  0  0  0  0  0  0  0
    9.5256   -7.2787   26.3043 H   0  0  0  0  0  0  0  0  0  0  0  0
    9.7936   -6.7320   24.6435 H   0  0  0  0  0  0  0  0  0  0  0  0
   10.7144   -6.0174   25.9866 H   0  0  0  0  0  0  0  0  0  0  0  0
    7.0648   -1.7367   23.1306 C   0  0  0  0  0  0  0  0  0  0  0  0
    6.6051   -0.8544   23.5925 H   0  0  0  0  0  0  0  0  0  0  0  0
    6.6198   -2.6079   23.6283 H   0  0  0  0  0  0  0  0  0  0  0  0
    6.7170   -1.7380   21.6354 C   0  0  0  0  0  0  0  0  0  0  0  0
    7.0723   -2.6739   21.1609 H   0  0  0  0  0  0  0  0  0  0  0  0
    5.6304   -1.7220   21.5030 H   0  0  0  0  0  0  0  0  0  0  0  0
    5.4229    0.6445   20.0939 C   0  0  0  0  0  0  0  0  0  0  0  0
    5.0189    0.6245   21.1079 H   0  0  0  0  0  0  0  0  0  0  0  0
    4.7851    1.3119   19.0464 C   0  0  0  0  0  0  0  0  0  0  0  0
    3.8460    1.8340   19.1964 H   0  0  0  0  0  0  0  0  0  0  0  0
  1  2  1  0
  2  3  2  0
  3  4  1  0
  4  5  1  0
  4  6  2  0
  6  7  1  0
  7  8  1  0
  8  9  1  0
  8 10  1  0
  8 11  1  0
 11 12  1  0
 11 13  1  0
 11 14  1  0
 14 15  1  0
 14 16  1  0
 16 17  1  0
 16 18  1  0
 16 19  1  0
 19 20  1  0
 19 21  1  0
 19 22  1  0
 22 23  1  0
 22 24  1  0
 22 25  1  0
 25 26  1  0
 26 27  1  0
 26 28  1  0
 26 29  1  0
 25 30  1  0
 30 31  1  0
 30 32  1  0
 30 33  1  0
 14 34  1  0
 34 35  1  0
 34 36  1  0
 34 37  1  0
 37 38  1  0
 37 39  1  0
  6 40  1  0
 40 41  1  0
 40 42  2  0
 42 43  1  0
 42  2  1  0
 37  7  1  0
M  END
>  <cnnaffinity>  (1) 
-4.37442

>  <filename>  (1) 
CN(C)CCCC1CCN(c2cccnc2)CC1

$$$$
