
     RDKit          3D

 38 39  0  0  0  0  0  0  0  0999 V2000
    4.9791    1.8035   16.9662 H   0  0  0  0  0  0  0  0  0  0  0  0
    5.4297    1.3008   17.8174 C   0  0  0  0  0  0  0  0  0  0  0  0
    6.5972    0.6787   17.5902 N   0  0  0  0  0  0  0  0  0  0  0  0
    7.1729    0.0659   18.6357 C   0  0  0  0  0  0  0  0  0  0  0  0
    8.1196   -0.4314   18.4267 H   0  0  0  0  0  0  0  0  0  0  0  0
    6.6190    0.0209   19.9255 C   0  0  0  0  0  0  0  0  0  0  0  0
    7.3469   -0.6695   21.0271 C   0  0  0  0  0  0  0  0  0  0  0  0
    8.4654    0.0644   21.6168 N   0  0  0  0  0  0  0  0  0  0  0  0
    8.9995    0.4315   20.8296 H   0  0  0  0  0  0  0  0  0  0  0  0
    8.0006    1.2578   22.2460 O   0  0  0  0  0  0  0  0  0  0  0  0
    8.2092    1.2356   23.6649 C   0  0  0  0  0  0  0  0  0  0  0  0
    7.8694    0.2727   24.0737 H   0  0  0  0  0  0  0  0  0  0  0  0
    9.2789    1.3436   23.8924 H   0  0  0  0  0  0  0  0  0  0  0  0
    7.4149    2.3912   24.2561 C   0  0  0  0  0  0  0  0  0  0  0  0
    7.6542    2.4922   25.3218 H   0  0  0  0  0  0  0  0  0  0  0  0
    7.7336    3.3212   23.7726 H   0  0  0  0  0  0  0  0  0  0  0  0
    5.8996    2.2148   24.1277 C   0  0  0  0  0  0  0  0  0  0  0  0
    5.6430    1.2378   24.5620 H   0  0  0  0  0  0  0  0  0  0  0  0
    5.6119    2.1513   23.0585 H   0  0  0  0  0  0  0  0  0  0  0  0
    5.1611    3.2467   24.8572 N   0  0  0  0  0  0  0  0  0  0  0  0
    3.8284    2.8224   25.2653 C   0  0  0  0  0  0  0  0  0  0  0  0
    3.8946    1.9278   25.8958 H   0  0  0  0  0  0  0  0  0  0  0  0
    3.3586    3.6022   25.8760 H   0  0  0  0  0  0  0  0  0  0  0  0
    3.1458    2.5974   24.4210 H   0  0  0  0  0  0  0  0  0  0  0  0
    5.1261    4.5339   24.1731 C   0  0  0  0  0  0  0  0  0  0  0  0
    4.5750    4.5201   23.2109 H   0  0  0  0  0  0  0  0  0  0  0  0
    6.1395    4.8942   23.9723 H   0  0  0  0  0  0  0  0  0  0  0  0
    4.6498    5.2826   24.8162 H   0  0  0  0  0  0  0  0  0  0  0  0
    6.6525   -1.6037   21.9654 C   0  0  0  0  0  0  0  0  0  0  0  0
    5.5929   -1.7947   21.8212 H   0  0  0  0  0  0  0  0  0  0  0  0
    6.9928   -1.5855   22.9951 H   0  0  0  0  0  0  0  0  0  0  0  0
    7.5746   -2.1402   20.9085 C   0  0  0  0  0  0  0  0  0  0  0  0
    7.0501   -2.6420   20.1032 H   0  0  0  0  0  0  0  0  0  0  0  0
    8.5615   -2.5186   21.1688 H   0  0  0  0  0  0  0  0  0  0  0  0
    5.3977    0.6686   20.1346 C   0  0  0  0  0  0  0  0  0  0  0  0
    4.9558    0.6629   21.1354 H   0  0  0  0  0  0  0  0  0  0  0  0
    4.7938    1.3225   19.0650 C   0  0  0  0  0  0  0  0  0  0  0  0
    3.8568    1.8511   19.1844 H   0  0  0  0  0  0  0  0  0  0  0  0
  1  2  1  0
  2  3  2  0
  3  4  1  0
  4  5  1  0
  4  6  2  0
  6  7  1  0
  7  8  1  0
  8  9  1  0
  8 10  1  0
 10 11  1  0
 11 12  1  0
 11 13  1  0
 11 14  1  0
 14 15  1  0
 14 16  1  0
 14 17  1  0
 17 18  1  0
 17 19  1  0
 17 20  1  0
 20 21  1  0
 21 22  1  0
 21 23  1  0
 21 24  1  0
 20 25  1  0
 25 26  1  0
 25 27  1  0
 25 28  1  0
  7 29  1  0
 29 30  1  0
 29 31  1  0
 29 32  1  0
 32 33  1  0
 32 34  1  0
  6 35  1  0
 35 36  1  0
 35 37  2  0
 37 38  1  0
 37  2  1  0
 32  7  1  0
M  END
>  <cnnaffinity>  (1) 
-4.01464

>  <filename>  (1) 
CN(C)CCCONC1(c2cccnc2)CC1

$$$$
