
     RDKit          3D

 29 30  0  0  0  0  0  0  0  0999 V2000
    4.9089    1.7837   16.9941 H   0  0  0  0  0  0  0  0  0  0  0  0
    5.3997    1.2961   17.8351 C   0  0  0  0  0  0  0  0  0  0  0  0
    6.5638    0.6849   17.5697 N   0  0  0  0  0  0  0  0  0  0  0  0
    7.1798    0.0766   18.5922 C   0  0  0  0  0  0  0  0  0  0  0  0
    8.1177   -0.4257   18.3658 H   0  0  0  0  0  0  0  0  0  0  0  0
    6.6801   -0.0069   19.9153 C   0  0  0  0  0  0  0  0  0  0  0  0
    7.3725   -0.7319   20.9074 N   0  0  0  0  0  0  0  0  0  0  0  0
    6.6241   -1.4765   21.9023 C   0  0  0  0  0  0  0  0  0  0  0  0
    6.3693   -0.9032   22.8076 H   0  0  0  0  0  0  0  0  0  0  0  0
    5.6944   -1.8426   21.4531 H   0  0  0  0  0  0  0  0  0  0  0  0
    7.2059   -2.3568   22.2010 H   0  0  0  0  0  0  0  0  0  0  0  0
    8.7800   -0.4388   21.1545 C   0  0  0  0  0  0  0  0  0  0  0  0
    9.1263   -1.0578   21.9889 H   0  0  0  0  0  0  0  0  0  0  0  0
    9.3694   -0.7499   20.2805 H   0  0  0  0  0  0  0  0  0  0  0  0
    9.0957    1.0443   21.4750 C   0  0  0  0  0  0  0  0  0  0  0  0
   10.1790    1.1568   21.6102 H   0  0  0  0  0  0  0  0  0  0  0  0
    8.8213    1.6542   20.6069 H   0  0  0  0  0  0  0  0  0  0  0  0
    8.3498    1.5526   22.6783 C   0  0  0  0  0  0  0  0  0  0  0  0
    8.7574    1.0518   24.2830 S   0  0  0  0  0  0  0  0  0  0  0  0
    7.4432    1.9370   24.9546 C   0  0  0  0  0  0  0  0  0  0  0  0
    7.2821    1.9438   26.0247 H   0  0  0  0  0  0  0  0  0  0  0  0
    6.7156    2.5725   23.9957 C   0  0  0  0  0  0  0  0  0  0  0  0
    5.8411    3.1895   24.1981 H   0  0  0  0  0  0  0  0  0  0  0  0
    7.2399    2.3429   22.6888 C   0  0  0  0  0  0  0  0  0  0  0  0
    6.7973    2.7304   21.7705 H   0  0  0  0  0  0  0  0  0  0  0  0
    5.4510    0.6402   20.1626 C   0  0  0  0  0  0  0  0  0  0  0  0
    5.0231    0.6226   21.1688 H   0  0  0  0  0  0  0  0  0  0  0  0
    4.8143    1.3076   19.1086 C   0  0  0  0  0  0  0  0  0  0  0  0
    3.8780    1.8388   19.2615 H   0  0  0  0  0  0  0  0  0  0  0  0
  1  2  1  0
  2  3  2  0
  3  4  1  0
  4  5  1  0
  4  6  2  0
  6  7  1  0
  7  8  1  0
  8  9  1  0
  8 10  1  0
  8 11  1  0
  7 12  1  0
 12 13  1  0
 12 14  1  0
 12 15  1  0
 15 16  1  0
 15 17  1  0
 15 18  1  0
 18 19  1  0
 19 20  1  0
 20 21  1  0
 20 22  2  0
 22 23  1  0
 22 24  1  0
 24 25  1  0
  6 26  1  0
 26 27  1  0
 26 28  2  0
 28 29  1  0
 28  2  1  0
 24 18  2  0
M  END
>  <cnnaffinity>  (1) 
-4.4347

>  <filename>  (1) 
CN(CCc1cccs1)c1cccnc1

$$$$
