
     RDKit          3D

 43 44  0  0  0  0  0  0  0  0999 V2000
    4.8206    1.9906   16.7363 H   0  0  0  0  0  0  0  0  0  0  0  0
    5.3269    1.5693   17.6005 C   0  0  0  0  0  0  0  0  0  0  0  0
    6.4647    0.8998   17.3469 N   0  0  0  0  0  0  0  0  0  0  0  0
    7.1061    0.3595   18.3914 C   0  0  0  0  0  0  0  0  0  0  0  0
    8.0323   -0.1647   18.1583 H   0  0  0  0  0  0  0  0  0  0  0  0
    6.6725    0.4295   19.7442 C   0  0  0  0  0  0  0  0  0  0  0  0
    7.3363   -0.2376   20.8004 N   0  0  0  0  0  0  0  0  0  0  0  0
    7.7501   -1.6232   20.6330 C   0  0  0  0  0  0  0  0  0  0  0  0
    7.2620   -1.9982   19.7268 H   0  0  0  0  0  0  0  0  0  0  0  0
    8.8401   -1.6916   20.4826 H   0  0  0  0  0  0  0  0  0  0  0  0
    7.4027   -2.5940   21.7707 C   0  0  0  0  0  0  0  0  0  0  0  0
    7.6876   -3.5919   21.4271 H   0  0  0  0  0  0  0  0  0  0  0  0
    6.3200   -2.6104   21.9714 H   0  0  0  0  0  0  0  0  0  0  0  0
    8.1759   -2.3221   22.9895 N   0  0  0  0  0  0  0  0  0  0  0  0
    8.2789   -3.5362   23.7064 O   0  0  0  0  0  0  0  0  0  0  0  0
    9.6447   -3.7268   24.0785 C   0  0  0  0  0  0  0  0  0  0  0  0
   10.2767   -3.6477   23.1853 H   0  0  0  0  0  0  0  0  0  0  0  0
    9.9569   -2.9413   24.7806 H   0  0  0  0  0  0  0  0  0  0  0  0
    9.8314   -5.1102   24.6896 C   0  0  0  0  0  0  0  0  0  0  0  0
    9.3777   -5.8175   23.9806 H   0  0  0  0  0  0  0  0  0  0  0  0
   10.9226   -5.3261   24.7119 H   0  0  0  0  0  0  0  0  0  0  0  0
    9.2067   -5.3169   25.9940 N   0  0  0  0  0  0  0  0  0  0  0  0
    9.8549   -4.6524   27.1088 C   0  0  0  0  0  0  0  0  0  0  0  0
    9.8941   -3.5748   26.9307 H   0  0  0  0  0  0  0  0  0  0  0  0
    9.2411   -4.8033   28.0033 H   0  0  0  0  0  0  0  0  0  0  0  0
   10.8748   -5.0210   27.3312 H   0  0  0  0  0  0  0  0  0  0  0  0
    8.9527   -6.7200   26.2732 C   0  0  0  0  0  0  0  0  0  0  0  0
    8.6453   -6.8370   27.3172 H   0  0  0  0  0  0  0  0  0  0  0  0
    9.8297   -7.3775   26.0987 H   0  0  0  0  0  0  0  0  0  0  0  0
    8.1059   -7.0669   25.6767 H   0  0  0  0  0  0  0  0  0  0  0  0
    7.5486   -1.3572   23.9034 C   0  0  0  0  0  0  0  0  0  0  0  0
    6.6727   -1.8204   24.3880 H   0  0  0  0  0  0  0  0  0  0  0  0
    8.2886   -1.1826   24.6970 H   0  0  0  0  0  0  0  0  0  0  0  0
    7.1005   -0.0216   23.2726 C   0  0  0  0  0  0  0  0  0  0  0  0
    6.0302   -0.0853   23.0407 H   0  0  0  0  0  0  0  0  0  0  0  0
    7.2141    0.7569   24.0356 H   0  0  0  0  0  0  0  0  0  0  0  0
    7.8089    0.4511   21.9949 C   0  0  0  0  0  0  0  0  0  0  0  0
    7.6435    1.5292   21.8585 H   0  0  0  0  0  0  0  0  0  0  0  0
    8.8981    0.3045   22.0964 H   0  0  0  0  0  0  0  0  0  0  0  0
    5.4987    1.1709   19.9771 C   0  0  0  0  0  0  0  0  0  0  0  0
    5.1340    1.2759   20.9971 H   0  0  0  0  0  0  0  0  0  0  0  0
    4.8139    1.7314   18.8923 C   0  0  0  0  0  0  0  0  0  0  0  0
    3.9028    2.3023   19.0363 H   0  0  0  0  0  0  0  0  0  0  0  0
  1  2  1  0
  2  3  2  0
  3  4  1  0
  4  5  1  0
  4  6  2  0
  6  7  1  0
  7  8  1  0
  8  9  1  0
  8 10  1  0
  8 11  1  0
 11 12  1  0
 11 13  1  0
 11 14  1  0
 14 15  1  0
 15 16  1  0
 16 17  1  0
 16 18  1  0
 16 19  1  0
 19 20  1  0
 19 21  1  0
 19 22  1  0
 22 23  1  0
 23 24  1  0
 23 25  1  0
 23 26  1  0
 22 27  1  0
 27 28  1  0
 27 29  1  0
 27 30  1  0
 14 31  1  0
 31 32  1  0
 31 33  1  0
 31 34  1  0
 34 35  1  0
 34 36  1  0
 34 37  1  0
 37 38  1  0
 37 39  1  0
  6 40  1  0
 40 41  1  0
 40 42  2  0
 42 43  1  0
 42  2  1  0
 37  7  1  0
M  END
>  <cnnaffinity>  (1) 
-4.27315

>  <filename>  (1) 
CN(C)CCON1CCCN(c2cccnc2)CC1

$$$$
