
     RDKit          3D

 43 46  0  0  0  0  0  0  0  0999 V2000
    5.4705    1.7198   16.5090 H   0  0  0  0  0  0  0  0  0  0  0  0
    5.8406    1.3017   17.4423 C   0  0  0  0  0  0  0  0  0  0  0  0
    6.9885    0.6190   17.3635 N   0  0  0  0  0  0  0  0  0  0  0  0
    7.4772    0.0827   18.4836 C   0  0  0  0  0  0  0  0  0  0  0  0
    8.4156   -0.4618   18.3923 H   0  0  0  0  0  0  0  0  0  0  0  0
    6.8458    0.1964   19.7356 C   0  0  0  0  0  0  0  0  0  0  0  0
    7.4705   -0.4154   20.9149 C   0  0  0  0  0  0  0  0  0  0  0  0
    8.6507   -1.0411   20.7953 N   0  0  0  0  0  0  0  0  0  0  0  0
    8.9099   -1.4322   22.0568 N   0  0  0  0  0  0  0  0  0  0  0  0
    9.9245   -2.1598   22.6591 C   0  0  0  0  0  0  0  0  0  0  0  0
   10.7536   -2.5084   22.0675 H   0  0  0  0  0  0  0  0  0  0  0  0
    9.5652   -2.2809   23.9608 C   0  0  0  0  0  0  0  0  0  0  0  0
   10.0441   -2.8175   24.7668 H   0  0  0  0  0  0  0  0  0  0  0  0
    8.3468   -1.6190   24.1697 N   0  0  0  0  0  0  0  0  0  0  0  0
    7.4466   -1.8025   25.2943 C   0  0  0  0  0  0  0  0  0  0  0  0
    8.0604   -1.7522   26.2038 H   0  0  0  0  0  0  0  0  0  0  0  0
    6.7482   -0.9458   25.3081 H   0  0  0  0  0  0  0  0  0  0  0  0
    6.7382   -3.0829   25.2837 N   0  0  0  0  0  0  0  0  0  0  0  0
    6.0282   -3.3588   26.5239 C   0  0  0  0  0  0  0  0  0  0  0  0
    6.7055   -3.2799   27.3841 H   0  0  0  0  0  0  0  0  0  0  0  0
    5.6374   -4.3828   26.5100 H   0  0  0  0  0  0  0  0  0  0  0  0
    5.1616   -2.6874   26.6987 H   0  0  0  0  0  0  0  0  0  0  0  0
    5.9204   -3.3533   24.0861 C   0  0  0  0  0  0  0  0  0  0  0  0
    4.8636   -3.0697   24.2688 H   0  0  0  0  0  0  0  0  0  0  0  0
    6.2623   -2.7226   23.2580 H   0  0  0  0  0  0  0  0  0  0  0  0
    5.9489   -4.7705   23.5695 C   0  0  0  0  0  0  0  0  0  0  0  0
    6.6965   -5.1508   22.4368 C   0  0  0  0  0  0  0  0  0  0  0  0
    6.5624   -4.5642   21.5450 H   0  0  0  0  0  0  0  0  0  0  0  0
    6.4939   -6.5925   22.0760 C   0  0  0  0  0  0  0  0  0  0  0  0
    7.6739   -7.4258   22.5656 H   0  0  0  0  0  0  0  0  0  0  0  0
    6.7923   -6.8584   22.1235 C   0  0  0  0  0  0  0  0  0  0  0  0
    6.0594   -7.5310   21.4268 H   0  0  0  0  0  0  0  0  0  0  0  0
    5.0698   -6.9498   23.3119 C   0  0  0  0  0  0  0  0  0  0  0  0
    4.3760   -7.8115   23.3874 H   0  0  0  0  0  0  0  0  0  0  0  0
    5.0259   -5.8191   24.0289 C   0  0  0  0  0  0  0  0  0  0  0  0
    4.3481   -5.6477   24.8676 H   0  0  0  0  0  0  0  0  0  0  0  0
    7.9601   -1.0974   22.9497 C   0  0  0  0  0  0  0  0  0  0  0  0
    6.9724   -0.4234   22.2478 C   0  0  0  0  0  0  0  0  0  0  0  0
    6.0299   -0.0415   22.5983 H   0  0  0  0  0  0  0  0  0  0  0  0
    5.6430    0.9174   19.8045 C   0  0  0  0  0  0  0  0  0  0  0  0
    5.1179    1.0459   20.7526 H   0  0  0  0  0  0  0  0  0  0  0  0
    5.1350    1.4793   18.6356 C   0  0  0  0  0  0  0  0  0  0  0  0
    4.2206    2.0610   18.6350 H   0  0  0  0  0  0  0  0  0  0  0  0
  1  2  1  0
  2  3  2  0
  3  4  1  0
  4  5  1  0
  4  6  2  0
  6  7  1  0
  7  8  2  0
  8  9  1  0
  9 10  1  0
 10 11  1  0
 10 12  2  0
 12 13  1  0
 12 14  1  0
 14 15  1  0
 15 16  1  0
 15 17  1  0
 15 18  1  0
 18 19  1  0
 19 20  1  0
 19 21  1  0
 19 22  1  0
 18 23  1  0
 23 24  1  0
 23 25  1  0
 23 26  1  0
 26 27  2  0
 27 28  1  0
 27 29  1  0
 29 30  1  0
 29 31  2  0
 31 32  1  0
 31 33  1  0
 33 34  1  0
 33 35  2  0
 35 36  1  0
 14 37  1  0
 37 38  2  0
 38 39  1  0
  6 40  1  0
 40 41  1  0
 40 42  2  0
 42 43  1  0
 42  2  1  0
 38  7  1  0
 37  9  1  0
 35 26  1  0
M  END
>  <cnnaffinity>  (1) 
-5.82329

>  <filename>  (1) 
CN(Cc1ccccc1)Cn1ccn2nc(-c3cccnc3)cc12

$$$$
