
     RDKit          3D

 28 29  0  0  0  0  0  0  0  0999 V2000
    5.1510    1.7647   16.9284 H   0  0  0  0  0  0  0  0  0  0  0  0
    5.5626    1.2541   17.7965 C   0  0  0  0  0  0  0  0  0  0  0  0
    6.7315    0.6198   17.6141 N   0  0  0  0  0  0  0  0  0  0  0  0
    7.2635   -0.0184   18.6686 C   0  0  0  0  0  0  0  0  0  0  0  0
    8.2335   -0.4895   18.4976 H   0  0  0  0  0  0  0  0  0  0  0  0
    6.6647   -0.0687   19.9473 C   0  0  0  0  0  0  0  0  0  0  0  0
    7.2040   -0.8348   21.0143 N   0  0  0  0  0  0  0  0  0  0  0  0
    7.5743   -2.1638   20.7880 N   0  0  0  0  0  0  0  0  0  0  0  0
    8.1148   -2.2095   19.9194 H   0  0  0  0  0  0  0  0  0  0  0  0
    6.2552   -3.0160   20.6449 C   0  0  0  0  0  0  0  0  0  0  0  0
    5.7965   -2.7801   21.6154 H   0  0  0  0  0  0  0  0  0  0  0  0
    5.6777   -2.4235   19.8817 H   0  0  0  0  0  0  0  0  0  0  0  0
    6.2460   -4.6278   20.5241 C   0  0  0  0  0  0  0  0  0  0  0  0
    6.6800   -4.6747   23.3774 S   0  0  0  0  0  0  0  0  0  0  0  0
    7.3693   -5.7411   22.2508 C   0  0  0  0  0  0  0  0  0  0  0  0
    8.1057   -6.4300   22.7129 H   0  0  0  0  0  0  0  0  0  0  0  0
    7.0895   -5.8805   20.9493 C   0  0  0  0  0  0  0  0  0  0  0  0
    7.5957   -6.4507   20.1934 H   0  0  0  0  0  0  0  0  0  0  0  0
    6.0443   -4.6373   20.2106 C   0  0  0  0  0  0  0  0  0  0  0  0
    5.1313   -5.0548   19.7176 H   0  0  0  0  0  0  0  0  0  0  0  0
    7.6730   -0.1506   22.2151 C   0  0  0  0  0  0  0  0  0  0  0  0
    8.2421    0.7576   21.9734 H   0  0  0  0  0  0  0  0  0  0  0  0
    6.8299    0.1445   22.8568 H   0  0  0  0  0  0  0  0  0  0  0  0
    8.3289   -0.8094   22.7959 H   0  0  0  0  0  0  0  0  0  0  0  0
    5.4525    0.6201   20.1206 C   0  0  0  0  0  0  0  0  0  0  0  0
    4.9596    0.5841   21.0940 H   0  0  0  0  0  0  0  0  0  0  0  0
    4.8936    1.2838   19.0249 C   0  0  0  0  0  0  0  0  0  0  0  0
    3.9635    1.8323   19.1164 H   0  0  0  0  0  0  0  0  0  0  0  0
  1  2  1  0
  2  3  2  0
  3  4  1  0
  4  5  1  0
  4  6  2  0
  6  7  1  0
  7  8  1  0
  8  9  1  0
  8 10  1  0
 10 11  1  0
 10 12  1  0
 10 13  1  0
 13 14  1  0
 14 15  1  0
 15 16  1  0
 15 17  2  0
 17 18  1  0
 17 19  1  0
 19 20  1  0
  7 21  1  0
 21 22  1  0
 21 23  1  0
 21 24  1  0
  6 25  1  0
 25 26  1  0
 25 27  2  0
 27 28  1  0
 27  2  1  0
 19 13  2  0
M  END
>  <cnnaffinity>  (1) 
-4.12022

>  <filename>  (1) 
CN(NCc1cccs1)c1cccnc1

$$$$
