
     RDKit          3D

 33 34  0  0  0  0  0  0  0  0999 V2000
    4.9535    1.7820   16.9818 H   0  0  0  0  0  0  0  0  0  0  0  0
    5.4248    1.2839   17.8271 C   0  0  0  0  0  0  0  0  0  0  0  0
    6.5839    0.6552   17.5769 N   0  0  0  0  0  0  0  0  0  0  0  0
    7.2082    0.0473   18.5973 C   0  0  0  0  0  0  0  0  0  0  0  0
    8.1497   -0.4456   18.3702 H   0  0  0  0  0  0  0  0  0  0  0  0
    6.7053    0.0282   19.9194 C   0  0  0  0  0  0  0  0  0  0  0  0
    7.3619   -0.5597   21.0268 N   0  0  0  0  0  0  0  0  0  0  0  0
    8.7725   -0.4830   21.0142 N   0  0  0  0  0  0  0  0  0  0  0  0
    9.0817    0.4785   21.0564 H   0  0  0  0  0  0  0  0  0  0  0  0
    9.6345   -1.3101   21.7131 C   0  0  0  0  0  0  0  0  0  0  0  0
    9.4932   -2.5134   21.8299 O   0  0  0  0  0  0  0  0  0  0  0  0
   10.8897   -0.6213   22.2618 C   0  0  0  0  0  0  0  0  0  0  0  0
   12.0983   -1.2617   21.9275 C   0  0  0  0  0  0  0  0  0  0  0  0
   12.0683   -2.1687   21.3339 H   0  0  0  0  0  0  0  0  0  0  0  0
   13.3336   -0.7683   22.3414 C   0  0  0  0  0  0  0  0  0  0  0  0
   14.2455   -1.2930   22.0717 H   0  0  0  0  0  0  0  0  0  0  0  0
   13.3887    0.3661   23.1449 C   0  0  0  0  0  0  0  0  0  0  0  0
   14.3433    0.7514   23.4894 H   0  0  0  0  0  0  0  0  0  0  0  0
   12.2090    0.9915   23.5411 C   0  0  0  0  0  0  0  0  0  0  0  0
   12.2657    1.8452   24.2116 H   0  0  0  0  0  0  0  0  0  0  0  0
   10.9516    0.5056   23.1322 C   0  0  0  0  0  0  0  0  0  0  0  0
    9.7173    1.2178   23.6904 C   0  0  0  0  0  0  0  0  0  0  0  0
    8.7324    0.3574   24.0090 F   0  0  0  0  0  0  0  0  0  0  0  0
    9.9875    1.9204   24.8057 F   0  0  0  0  0  0  0  0  0  0  0  0
    9.1981    2.0993   22.8060 F   0  0  0  0  0  0  0  0  0  0  0  0
    6.7169   -1.6779   21.7198 C   0  0  0  0  0  0  0  0  0  0  0  0
    5.6329   -1.5721   21.6453 H   0  0  0  0  0  0  0  0  0  0  0  0
    6.9848   -1.6604   22.7799 H   0  0  0  0  0  0  0  0  0  0  0  0
    7.0165   -2.6445   21.3030 H   0  0  0  0  0  0  0  0  0  0  0  0
    5.4705    0.6611   20.1459 C   0  0  0  0  0  0  0  0  0  0  0  0
    5.0682    0.6515   21.1606 H   0  0  0  0  0  0  0  0  0  0  0  0
    4.8225    1.3098   19.0923 C   0  0  0  0  0  0  0  0  0  0  0  0
    3.8781    1.8289   19.2342 H   0  0  0  0  0  0  0  0  0  0  0  0
  1  2  1  0
  2  3  2  0
  3  4  1  0
  4  5  1  0
  4  6  2  0
  6  7  1  0
  7  8  1  0
  8  9  1  0
  8 10  1  0
 10 11  2  0
 10 12  1  0
 12 13  2  0
 13 14  1  0
 13 15  1  0
 15 16  1  0
 15 17  2  0
 17 18  1  0
 17 19  1  0
 19 20  1  0
 19 21  2  0
 21 22  1  0
 22 23  1  0
 22 24  1  0
 22 25  1  0
  7 26  1  0
 26 27  1  0
 26 28  1  0
 26 29  1  0
  6 30  1  0
 30 31  1  0
 30 32  2  0
 32 33  1  0
 32  2  1  0
 21 12  1  0
M  END
>  <cnnaffinity>  (1) 
-5.59774

>  <filename>  (1) 
CN(NC(=O)c1ccccc1C(F)(F)F)c1cccnc1

$$$$
