
     RDKit          3D

 40 41  0  0  0  0  0  0  0  0999 V2000
    5.0488    1.7511   17.0064 H   0  0  0  0  0  0  0  0  0  0  0  0
    5.4732    1.2241   17.8650 C   0  0  0  0  0  0  0  0  0  0  0  0
    6.6299    0.5737   17.6610 N   0  0  0  0  0  0  0  0  0  0  0  0
    7.1801   -0.0574   18.7060 C   0  0  0  0  0  0  0  0  0  0  0  0
    8.1393   -0.5308   18.4952 H   0  0  0  0  0  0  0  0  0  0  0  0
    6.6264   -0.0776   19.9955 C   0  0  0  0  0  0  0  0  0  0  0  0
    7.3239   -0.7343   21.1434 C   0  0  0  0  0  0  0  0  0  0  0  0
    7.1745   -0.3716   22.3138 O   0  0  0  0  0  0  0  0  0  0  0  0
    8.1424   -1.7668   20.7882 N   0  0  0  0  0  0  0  0  0  0  0  0
    7.9966   -2.1840   19.8859 H   0  0  0  0  0  0  0  0  0  0  0  0
    9.0162   -2.5054   21.6194 N   0  0  0  0  0  0  0  0  0  0  0  0
    8.2804   -2.8753   22.7914 N   0  0  0  0  0  0  0  0  0  0  0  0
    7.7463   -2.0549   23.0822 H   0  0  0  0  0  0  0  0  0  0  0  0
    7.3888   -3.9559   22.6174 C   0  0  0  0  0  0  0  0  0  0  0  0
    7.3325   -4.6519   21.6278 O   0  0  0  0  0  0  0  0  0  0  0  0
    6.4533   -4.1799   23.8296 C   0  0  0  0  0  0  0  0  0  0  0  0
    5.9042   -5.0861   23.5550 H   0  0  0  0  0  0  0  0  0  0  0  0
    5.4026   -3.0524   23.9727 C   0  0  0  0  0  0  0  0  0  0  0  0
    4.8411   -2.9730   23.0313 H   0  0  0  0  0  0  0  0  0  0  0  0
    5.9024   -2.0851   24.1349 H   0  0  0  0  0  0  0  0  0  0  0  0
    4.4239   -3.3049   25.1315 C   0  0  0  0  0  0  0  0  0  0  0  0
    3.7598   -2.4386   25.2456 H   0  0  0  0  0  0  0  0  0  0  0  0
    3.7857   -4.1659   24.8831 H   0  0  0  0  0  0  0  0  0  0  0  0
    5.1471   -3.5990   26.4534 C   0  0  0  0  0  0  0  0  0  0  0  0
    4.4148   -3.8367   27.2360 H   0  0  0  0  0  0  0  0  0  0  0  0
    5.6859   -2.7004   26.7917 H   0  0  0  0  0  0  0  0  0  0  0  0
    6.1393   -4.7594   26.2897 C   0  0  0  0  0  0  0  0  0  0  0  0
    6.6572   -4.9570   27.2370 H   0  0  0  0  0  0  0  0  0  0  0  0
    5.5744   -5.6725   26.0437 H   0  0  0  0  0  0  0  0  0  0  0  0
    7.1624   -4.4825   25.1750 C   0  0  0  0  0  0  0  0  0  0  0  0
    7.7890   -3.6289   25.4651 H   0  0  0  0  0  0  0  0  0  0  0  0
    7.8327   -5.3459   25.0647 H   0  0  0  0  0  0  0  0  0  0  0  0
   10.1526   -1.6358   22.0417 C   0  0  0  0  0  0  0  0  0  0  0  0
   10.7818   -2.2012   22.7318 H   0  0  0  0  0  0  0  0  0  0  0  0
    9.7968   -0.7158   22.5252 H   0  0  0  0  0  0  0  0  0  0  0  0
   10.7468   -1.3782   21.1641 H   0  0  0  0  0  0  0  0  0  0  0  0
    5.4201    0.6143   20.1960 C   0  0  0  0  0  0  0  0  0  0  0  0
    4.9661    0.6480   21.1879 H   0  0  0  0  0  0  0  0  0  0  0  0
    4.8321    1.2621   19.1098 C   0  0  0  0  0  0  0  0  0  0  0  0
    3.9014    1.8107   19.2163 H   0  0  0  0  0  0  0  0  0  0  0  0
  1  2  1  0
  2  3  2  0
  3  4  1  0
  4  5  1  0
  4  6  2  0
  6  7  1  0
  7  8  2  0
  7  9  1  0
  9 10  1  0
  9 11  1  0
 11 12  1  0
 12 13  1  0
 12 14  1  0
 14 15  2  0
 14 16  1  0
 16 17  1  0
 16 18  1  0
 18 19  1  0
 18 20  1  0
 18 21  1  0
 21 22  1  0
 21 23  1  0
 21 24  1  0
 24 25  1  0
 24 26  1  0
 24 27  1  0
 27 28  1  0
 27 29  1  0
 27 30  1  0
 30 31  1  0
 30 32  1  0
 11 33  1  0
 33 34  1  0
 33 35  1  0
 33 36  1  0
  6 37  1  0
 37 38  1  0
 37 39  2  0
 39 40  1  0
 39  2  1  0
 30 16  1  0
M  END
>  <cnnaffinity>  (1) 
-5.23803

>  <filename>  (1) 
CN(NC(=O)c1cccnc1)NC(=O)C1CCCCC1

$$$$
