
     RDKit          3D

 36 37  0  0  0  0  0  0  0  0999 V2000
    5.0172    1.7848   16.9741 H   0  0  0  0  0  0  0  0  0  0  0  0
    5.4884    1.2801   17.8155 C   0  0  0  0  0  0  0  0  0  0  0  0
    6.6565    0.6604   17.5720 N   0  0  0  0  0  0  0  0  0  0  0  0
    7.2607    0.0374   18.5947 C   0  0  0  0  0  0  0  0  0  0  0  0
    8.1956   -0.4654   18.3537 H   0  0  0  0  0  0  0  0  0  0  0  0
    6.7351   -0.0226   19.9116 C   0  0  0  0  0  0  0  0  0  0  0  0
    7.3532   -0.7283   20.9591 N   0  0  0  0  0  0  0  0  0  0  0  0
    8.7281   -0.6168   21.1262 N   0  0  0  0  0  0  0  0  0  0  0  0
    9.1696    0.2834   20.9890 H   0  0  0  0  0  0  0  0  0  0  0  0
    9.5467   -1.7124   21.2525 C   0  0  0  0  0  0  0  0  0  0  0  0
    9.2008   -2.8672   21.1551 O   0  0  0  0  0  0  0  0  0  0  0  0
   10.8777   -1.4475   21.4782 N   0  0  0  0  0  0  0  0  0  0  0  0
   11.4692   -2.2471   21.3371 H   0  0  0  0  0  0  0  0  0  0  0  0
   11.5345   -0.3901   22.0456 C   0  0  0  0  0  0  0  0  0  0  0  0
   12.7437   -0.3624   22.0212 O   0  0  0  0  0  0  0  0  0  0  0  0
   10.7231    0.5532   22.6120 N   0  0  0  0  0  0  0  0  0  0  0  0
    9.8579    0.2396   23.0114 H   0  0  0  0  0  0  0  0  0  0  0  0
   11.1194    1.8635   22.9149 C   0  0  0  0  0  0  0  0  0  0  0  0
   11.9876    2.5527   22.0650 C   0  0  0  0  0  0  0  0  0  0  0  0
   12.4303    2.0232   21.2300 H   0  0  0  0  0  0  0  0  0  0  0  0
   12.2804    3.8933   22.3178 C   0  0  0  0  0  0  0  0  0  0  0  0
   12.9631    4.4210   21.6607 H   0  0  0  0  0  0  0  0  0  0  0  0
   11.7089    4.5526   23.4117 C   0  0  0  0  0  0  0  0  0  0  0  0
   11.9412    5.5971   23.6029 H   0  0  0  0  0  0  0  0  0  0  0  0
   10.8489    3.8500   24.2608 C   0  0  0  0  0  0  0  0  0  0  0  0
   10.3592    4.3495   25.0906 H   0  0  0  0  0  0  0  0  0  0  0  0
   10.5768    2.4969   24.0349 C   0  0  0  0  0  0  0  0  0  0  0  0
    9.9632    1.9213   24.7213 H   0  0  0  0  0  0  0  0  0  0  0  0
    6.6296   -1.2487   22.1115 C   0  0  0  0  0  0  0  0  0  0  0  0
    7.2218   -2.0655   22.5389 H   0  0  0  0  0  0  0  0  0  0  0  0
    5.6778   -1.6748   21.7853 H   0  0  0  0  0  0  0  0  0  0  0  0
    6.4453   -0.4827   22.8828 H   0  0  0  0  0  0  0  0  0  0  0  0
    5.5121    0.6343   20.1357 C   0  0  0  0  0  0  0  0  0  0  0  0
    5.0894    0.6296   21.1402 H   0  0  0  0  0  0  0  0  0  0  0  0
    4.8829    1.2883   19.0742 C   0  0  0  0  0  0  0  0  0  0  0  0
    3.9382    1.8000   19.2232 H   0  0  0  0  0  0  0  0  0  0  0  0
  1  2  1  0
  2  3  2  0
  3  4  1  0
  4  5  1  0
  4  6  2  0
  6  7  1  0
  7  8  1  0
  8  9  1  0
  8 10  1  0
 10 11  2  0
 10 12  1  0
 12 13  1  0
 12 14  1  0
 14 15  2  0
 14 16  1  0
 16 17  1  0
 16 18  1  0
 18 19  2  0
 19 20  1  0
 19 21  1  0
 21 22  1  0
 21 23  2  0
 23 24  1  0
 23 25  1  0
 25 26  1  0
 25 27  2  0
 27 28  1  0
  7 29  1  0
 29 30  1  0
 29 31  1  0
 29 32  1  0
  6 33  1  0
 33 34  1  0
 33 35  2  0
 35 36  1  0
 35  2  1  0
 27 18  1  0
M  END
>  <cnnaffinity>  (1) 
-5.32703

>  <filename>  (1) 
CN(NC(=O)NC(=O)Nc1ccccc1)c1cccnc1

$$$$
