
     RDKit          3D

 31 32  0  0  0  0  0  0  0  0999 V2000
    4.9201    1.7865   16.9894 H   0  0  0  0  0  0  0  0  0  0  0  0
    5.4051    1.2965   17.8329 C   0  0  0  0  0  0  0  0  0  0  0  0
    6.5691    0.6844   17.5723 N   0  0  0  0  0  0  0  0  0  0  0  0
    7.1841    0.0841   18.5979 C   0  0  0  0  0  0  0  0  0  0  0  0
    8.1150   -0.4237   18.3659 H   0  0  0  0  0  0  0  0  0  0  0  0
    6.6690   -0.0011   19.9099 C   0  0  0  0  0  0  0  0  0  0  0  0
    7.3661   -0.7212   20.8907 N   0  0  0  0  0  0  0  0  0  0  0  0
    8.7121   -0.4507   21.1386 N   0  0  0  0  0  0  0  0  0  0  0  0
    9.2565   -0.6843   20.3135 H   0  0  0  0  0  0  0  0  0  0  0  0
    8.9826    0.9146   21.6076 C   0  0  0  0  0  0  0  0  0  0  0  0
   10.0700    1.0159   21.7032 H   0  0  0  0  0  0  0  0  0  0  0  0
    8.6347    1.6595   20.8748 H   0  0  0  0  0  0  0  0  0  0  0  0
    8.3183    1.1925   22.9391 C   0  0  0  0  0  0  0  0  0  0  0  0
    7.1929    2.0278   23.0116 C   0  0  0  0  0  0  0  0  0  0  0  0
    6.8382    2.4918   22.0923 H   0  0  0  0  0  0  0  0  0  0  0  0
    6.5285    2.2575   24.2206 C   0  0  0  0  0  0  0  0  0  0  0  0
    5.6667    2.9208   24.2514 H   0  0  0  0  0  0  0  0  0  0  0  0
    6.9829    1.6359   25.3872 C   0  0  0  0  0  0  0  0  0  0  0  0
    6.4785    1.8087   26.3334 H   0  0  0  0  0  0  0  0  0  0  0  0
    8.0890    0.7858   25.3485 C   0  0  0  0  0  0  0  0  0  0  0  0
    8.4636    0.2879   26.2403 H   0  0  0  0  0  0  0  0  0  0  0  0
    8.7373    0.5712   24.1276 C   0  0  0  0  0  0  0  0  0  0  0  0
   10.1045   -0.5057   24.1183 Cl  0  0  0  0  0  0  0  0  0  0  0  0
    6.6746   -1.6316   21.7682 C   0  0  0  0  0  0  0  0  0  0  0  0
    5.9724   -1.1060   22.4185 H   0  0  0  0  0  0  0  0  0  0  0  0
    6.1046   -2.3580   21.1778 H   0  0  0  0  0  0  0  0  0  0  0  0
    7.3962   -2.1526   22.3995 H   0  0  0  0  0  0  0  0  0  0  0  0
    5.4396    0.6377   20.1690 C   0  0  0  0  0  0  0  0  0  0  0  0
    5.0273    0.6303   21.1817 H   0  0  0  0  0  0  0  0  0  0  0  0
    4.8136    1.3060   19.1052 C   0  0  0  0  0  0  0  0  0  0  0  0
    3.8790    1.8376   19.2549 H   0  0  0  0  0  0  0  0  0  0  0  0
  1  2  1  0
  2  3  2  0
  3  4  1  0
  4  5  1  0
  4  6  2  0
  6  7  1  0
  7  8  1  0
  8  9  1  0
  8 10  1  0
 10 11  1  0
 10 12  1  0
 10 13  1  0
 13 14  2  0
 14 15  1  0
 14 16  1  0
 16 17  1  0
 16 18  2  0
 18 19  1  0
 18 20  1  0
 20 21  1  0
 20 22  2  0
 22 23  1  0
  7 24  1  0
 24 25  1  0
 24 26  1  0
 24 27  1  0
  6 28  1  0
 28 29  1  0
 28 30  2  0
 30 31  1  0
 30  2  1  0
 22 13  1  0
M  END
>  <cnnaffinity>  (1) 
-4.89562

>  <filename>  (1) 
CN(NCc1ccccc1Cl)c1cccnc1

$$$$
