
     RDKit          3D

 28 29  0  0  0  0  0  0  0  0999 V2000
    5.0547    1.7831   16.8936 H   0  0  0  0  0  0  0  0  0  0  0  0
    5.4603    1.2840   17.7710 C   0  0  0  0  0  0  0  0  0  0  0  0
    6.6061    0.6034   17.5945 N   0  0  0  0  0  0  0  0  0  0  0  0
    7.1198   -0.0373   18.6544 C   0  0  0  0  0  0  0  0  0  0  0  0
    8.0515   -0.5695   18.4783 H   0  0  0  0  0  0  0  0  0  0  0  0
    6.5343   -0.0325   19.9461 C   0  0  0  0  0  0  0  0  0  0  0  0
    7.0608   -0.7010   21.0828 N   0  0  0  0  0  0  0  0  0  0  0  0
    7.9392   -1.7880   20.7942 N   0  0  0  0  0  0  0  0  0  0  0  0
    7.4935   -2.3410   20.0670 H   0  0  0  0  0  0  0  0  0  0  0  0
    8.2085   -2.6810   21.8860 C   0  0  0  0  0  0  0  0  0  0  0  0
    9.5294   -2.8013   22.3230 C   0  0  0  0  0  0  0  0  0  0  0  0
   10.2831   -2.2265   21.7911 H   0  0  0  0  0  0  0  0  0  0  0  0
    9.8434   -3.5901   23.4343 C   0  0  0  0  0  0  0  0  0  0  0  0
   10.8788   -3.7175   23.7476 H   0  0  0  0  0  0  0  0  0  0  0  0
    8.8252   -4.2439   24.1266 C   0  0  0  0  0  0  0  0  0  0  0  0
    9.0340   -4.8212   25.0290 H   0  0  0  0  0  0  0  0  0  0  0  0
    7.5017   -4.1545   23.6679 C   0  0  0  0  0  0  0  0  0  0  0  0
    6.2861   -5.0185   24.5462 Cl  0  0  0  0  0  0  0  0  0  0  0  0
    7.1787   -3.4020   22.5223 C   0  0  0  0  0  0  0  0  0  0  0  0
    5.5532   -3.3032   21.9256 Cl  0  0  0  0  0  0  0  0  0  0  0  0
    7.4193    0.0901   22.2641 C   0  0  0  0  0  0  0  0  0  0  0  0
    8.4560   -0.1194   22.5529 H   0  0  0  0  0  0  0  0  0  0  0  0
    6.7679   -0.1632   23.1111 H   0  0  0  0  0  0  0  0  0  0  0  0
    7.3380    1.1598   22.0531 H   0  0  0  0  0  0  0  0  0  0  0  0
    5.3395    0.6937   20.1035 C   0  0  0  0  0  0  0  0  0  0  0  0
    4.8739    0.7124   21.0914 H   0  0  0  0  0  0  0  0  0  0  0  0
    4.7909    1.3525   19.0012 C   0  0  0  0  0  0  0  0  0  0  0  0
    3.8697    1.9245   19.0822 H   0  0  0  0  0  0  0  0  0  0  0  0
  1  2  1  0
  2  3  2  0
  3  4  1  0
  4  5  1  0
  4  6  2  0
  6  7  1  0
  7  8  1  0
  8  9  1  0
  8 10  1  0
 10 11  2  0
 11 12  1  0
 11 13  1  0
 13 14  1  0
 13 15  2  0
 15 16  1  0
 15 17  1  0
 17 18  1  0
 17 19  2  0
 19 20  1  0
  7 21  1  0
 21 22  1  0
 21 23  1  0
 21 24  1  0
  6 25  1  0
 25 26  1  0
 25 27  2  0
 27 28  1  0
 27  2  1  0
 19 10  1  0
M  END
>  <cnnaffinity>  (1) 
-5.12569

>  <filename>  (1) 
CN(Nc1cccc(Cl)c1Cl)c1cccnc1

$$$$
