
     RDKit          3D

 30 31  0  0  0  0  0  0  0  0999 V2000
    4.9914    1.7140   16.7161 H   0  0  0  0  0  0  0  0  0  0  0  0
    5.3781    1.3050   17.6488 C   0  0  0  0  0  0  0  0  0  0  0  0
    6.5512    0.6661   17.5691 N   0  0  0  0  0  0  0  0  0  0  0  0
    7.0517    0.1559   18.6999 C   0  0  0  0  0  0  0  0  0  0  0  0
    8.0053   -0.3569   18.5920 H   0  0  0  0  0  0  0  0  0  0  0  0
    6.4340    0.2642   19.9491 C   0  0  0  0  0  0  0  0  0  0  0  0
    7.1801   -0.2285   21.1605 C   0  0  0  0  0  0  0  0  0  0  0  0
    7.3233    0.4342   22.1592 O   0  0  0  0  0  0  0  0  0  0  0  0
    7.6957   -1.5053   20.9916 N   0  0  0  0  0  0  0  0  0  0  0  0
    7.3109   -2.0493   20.2372 H   0  0  0  0  0  0  0  0  0  0  0  0
    8.4317   -2.2260   21.9279 N   0  0  0  0  0  0  0  0  0  0  0  0
    7.9422   -2.3979   23.2378 C   0  0  0  0  0  0  0  0  0  0  0  0
    8.7591   -2.1340   24.3634 C   0  0  0  0  0  0  0  0  0  0  0  0
    9.7604   -1.7503   24.2007 H   0  0  0  0  0  0  0  0  0  0  0  0
    8.2884   -2.3168   25.6642 C   0  0  0  0  0  0  0  0  0  0  0  0
    8.9310   -2.0897   26.5124 H   0  0  0  0  0  0  0  0  0  0  0  0
    6.9961   -2.7886   25.8797 C   0  0  0  0  0  0  0  0  0  0  0  0
    6.5960   -2.9102   26.8821 H   0  0  0  0  0  0  0  0  0  0  0  0
    6.1706   -3.0675   24.7851 C   0  0  0  0  0  0  0  0  0  0  0  0
    4.5649   -3.6334   25.1159 Cl  0  0  0  0  0  0  0  0  0  0  0  0
    6.6277   -2.8916   23.4694 C   0  0  0  0  0  0  0  0  0  0  0  0
    5.6016   -3.2931   22.1303 Cl  0  0  0  0  0  0  0  0  0  0  0  0
    9.8515   -2.2631   21.6008 C   0  0  0  0  0  0  0  0  0  0  0  0
    9.9606   -2.6995   20.6025 H   0  0  0  0  0  0  0  0  0  0  0  0
   10.3871   -2.9160   22.2941 H   0  0  0  0  0  0  0  0  0  0  0  0
   10.3078   -1.2622   21.5902 H   0  0  0  0  0  0  0  0  0  0  0  0
    5.2029    0.9403   20.0233 C   0  0  0  0  0  0  0  0  0  0  0  0
    4.6742    1.0715   20.9711 H   0  0  0  0  0  0  0  0  0  0  0  0
    4.6604    1.4472   18.8406 C   0  0  0  0  0  0  0  0  0  0  0  0
    3.7137    1.9719   18.8232 H   0  0  0  0  0  0  0  0  0  0  0  0
  1  2  1  0
  2  3  2  0
  3  4  1  0
  4  5  1  0
  4  6  2  0
  6  7  1  0
  7  8  2  0
  7  9  1  0
  9 10  1  0
  9 11  1  0
 11 12  1  0
 12 13  2  0
 13 14  1  0
 13 15  1  0
 15 16  1  0
 15 17  2  0
 17 18  1  0
 17 19  1  0
 19 20  1  0
 19 21  2  0
 21 22  1  0
 11 23  1  0
 23 24  1  0
 23 25  1  0
 23 26  1  0
  6 27  1  0
 27 28  1  0
 27 29  2  0
 29 30  1  0
 29  2  1  0
 21 12  1  0
M  END
>  <cnnaffinity>  (1) 
-5.27744

>  <filename>  (1) 
CN(NC(=O)c1cccnc1)c1cccc(Cl)c1Cl

$$$$
