
     RDKit          3D

 34 35  0  0  0  0  0  0  0  0999 V2000
    4.9300    1.7826   16.9925 H   0  0  0  0  0  0  0  0  0  0  0  0
    5.4010    1.2902   17.8411 C   0  0  0  0  0  0  0  0  0  0  0  0
    6.5625    0.6681   17.5986 N   0  0  0  0  0  0  0  0  0  0  0  0
    7.1676    0.0532   18.6241 C   0  0  0  0  0  0  0  0  0  0  0  0
    8.1153   -0.4219   18.3812 H   0  0  0  0  0  0  0  0  0  0  0  0
    6.6555   -0.0116   19.9456 C   0  0  0  0  0  0  0  0  0  0  0  0
    7.3481   -0.6439   20.9925 N   0  0  0  0  0  0  0  0  0  0  0  0
    6.6554   -1.3276   21.9756 N   0  0  0  0  0  0  0  0  0  0  0  0
    5.8347   -1.8494   21.6997 H   0  0  0  0  0  0  0  0  0  0  0  0
    6.8148   -1.0715   23.3371 C   0  0  0  0  0  0  0  0  0  0  0  0
    7.5300    0.0434   23.8025 C   0  0  0  0  0  0  0  0  0  0  0  0
    7.9235    0.7366   23.0648 H   0  0  0  0  0  0  0  0  0  0  0  0
    7.7280    0.2239   25.1704 C   0  0  0  0  0  0  0  0  0  0  0  0
    8.2948    1.0844   25.5082 H   0  0  0  0  0  0  0  0  0  0  0  0
    7.2139   -0.6782   26.1035 C   0  0  0  0  0  0  0  0  0  0  0  0
    7.3703   -0.4894   27.1642 H   0  0  0  0  0  0  0  0  0  0  0  0
    6.4779   -1.7853   25.6475 C   0  0  0  0  0  0  0  0  0  0  0  0
    5.7512   -2.9202   26.8473 S   0  0  0  0  0  0  0  0  0  0  0  0
    5.6521   -2.2240   28.1251 O   0  0  0  0  0  0  0  0  0  0  0  0
    4.6031   -3.5700   26.2350 O   0  0  0  0  0  0  0  0  0  0  0  0
    6.9548   -4.1914   27.0816 C   0  0  0  0  0  0  0  0  0  0  0  0
    6.5139   -4.8773   27.8061 H   0  0  0  0  0  0  0  0  0  0  0  0
    7.8646   -3.7497   27.4769 H   0  0  0  0  0  0  0  0  0  0  0  0
    7.1137   -4.6928   26.1315 H   0  0  0  0  0  0  0  0  0  0  0  0
    6.2675   -1.9773   24.2697 C   0  0  0  0  0  0  0  0  0  0  0  0
    5.6820   -2.8087   23.8789 H   0  0  0  0  0  0  0  0  0  0  0  0
    8.7703   -0.9250   20.9004 C   0  0  0  0  0  0  0  0  0  0  0  0
    9.2829   -0.0162   20.5685 H   0  0  0  0  0  0  0  0  0  0  0  0
    9.0028   -1.7421   20.2013 H   0  0  0  0  0  0  0  0  0  0  0  0
    9.1470   -1.1986   21.8923 H   0  0  0  0  0  0  0  0  0  0  0  0
    5.4273    0.6470   20.1701 C   0  0  0  0  0  0  0  0  0  0  0  0
    5.0097    0.6349   21.1757 H   0  0  0  0  0  0  0  0  0  0  0  0
    4.8077    1.3081   19.1088 C   0  0  0  0  0  0  0  0  0  0  0  0
    3.8771    1.8409   19.2553 H   0  0  0  0  0  0  0  0  0  0  0  0
  1  2  1  0
  2  3  2  0
  3  4  1  0
  4  5  1  0
  4  6  2  0
  6  7  1  0
  7  8  1  0
  8  9  1  0
  8 10  1  0
 10 11  2  0
 11 12  1  0
 11 13  1  0
 13 14  1  0
 13 15  2  0
 15 16  1  0
 15 17  1  0
 17 18  1  0
 18 19  2  0
 18 20  2  0
 18 21  1  0
 21 22  1  0
 21 23  1  0
 21 24  1  0
 17 25  2  0
 25 26  1  0
  7 27  1  0
 27 28  1  0
 27 29  1  0
 27 30  1  0
  6 31  1  0
 31 32  1  0
 31 33  2  0
 33 34  1  0
 33  2  1  0
 25 10  1  0
M  END
>  <cnnaffinity>  (1) 
-4.8236

>  <filename>  (1) 
CN(Nc1cccc(S(C)(=O)=O)c1)c1cccnc1

$$$$
