
     RDKit          3D

 26 27  0  0  0  0  0  0  0  0999 V2000
    6.9860   -2.6297   27.3706 H   0  0  0  0  0  0  0  0  0  0  0  0
    6.7048   -2.1542   26.4396 C   0  0  0  0  0  0  0  0  0  0  0  0
    5.8467   -1.2188   26.2430 N   0  0  0  0  0  0  0  0  0  0  0  0
    5.9235   -0.9737   24.8775 C   0  0  0  0  0  0  0  0  0  0  0  0
    5.3431   -0.1967   24.4127 H   0  0  0  0  0  0  0  0  0  0  0  0
    6.8405   -1.8148   24.3194 C   0  0  0  0  0  0  0  0  0  0  0  0
    7.2882   -2.0906   23.0420 N   0  0  0  0  0  0  0  0  0  0  0  0
    6.7809   -1.3031   22.0066 N   0  0  0  0  0  0  0  0  0  0  0  0
    5.7900   -1.3769   21.8243 H   0  0  0  0  0  0  0  0  0  0  0  0
    7.4803   -0.7033   20.9854 C   0  0  0  0  0  0  0  0  0  0  0  0
    8.6884   -0.7640   20.8442 O   0  0  0  0  0  0  0  0  0  0  0  0
    6.6132   -0.0120   19.9812 C   0  0  0  0  0  0  0  0  0  0  0  0
    7.1659    0.0266   18.6948 C   0  0  0  0  0  0  0  0  0  0  0  0
    8.1247   -0.4554   18.5069 H   0  0  0  0  0  0  0  0  0  0  0  0
    6.5833    0.6202   17.6519 N   0  0  0  0  0  0  0  0  0  0  0  0
    5.4225    1.2514   17.8798 C   0  0  0  0  0  0  0  0  0  0  0  0
    4.9829    1.7680   17.0318 H   0  0  0  0  0  0  0  0  0  0  0  0
    4.7895    1.2875   19.1270 C   0  0  0  0  0  0  0  0  0  0  0  0
    3.8638    1.8398   19.2458 H   0  0  0  0  0  0  0  0  0  0  0  0
    5.3848    0.6350   20.2057 C   0  0  0  0  0  0  0  0  0  0  0  0
    4.9133    0.6782   21.1916 H   0  0  0  0  0  0  0  0  0  0  0  0
    8.4720   -2.9064   22.7847 C   0  0  0  0  0  0  0  0  0  0  0  0
    8.4535   -3.8105   23.3964 H   0  0  0  0  0  0  0  0  0  0  0  0
    9.3934   -2.3523   22.9876 H   0  0  0  0  0  0  0  0  0  0  0  0
    8.4746   -3.2014   21.7333 H   0  0  0  0  0  0  0  0  0  0  0  0
    7.3525   -2.5792   25.3283 O   0  0  0  0  0  0  0  0  0  0  0  0
  1  2  1  0
  2  3  2  0
  3  4  1  0
  4  5  1  0
  4  6  2  0
  6  7  1  0
  7  8  1  0
  8  9  1  0
  8 10  1  0
 10 11  2  0
 10 12  1  0
 12 13  2  0
 13 14  1  0
 13 15  1  0
 15 16  2  0
 16 17  1  0
 16 18  1  0
 18 19  1  0
 18 20  2  0
 20 21  1  0
  7 22  1  0
 22 23  1  0
 22 24  1  0
 22 25  1  0
  6 26  1  0
 26  2  1  0
 20 12  1  0
M  END
>  <cnnaffinity>  (1) 
-4.29569

>  <filename>  (1) 
CN(NC(=O)c1cccnc1)c1cnco1

$$$$
