
     RDKit          3D

 49 52  0  0  0  0  0  0  0  0999 V2000
    2.7708    2.7942   25.9431 C   0  0  0  0  0  0  0  0  0  0  0  0
    4.2106    2.7354   25.8203 N   0  0  0  0  0  0  0  0  0  0  0  0
    5.1103    3.6066   26.3747 C   0  0  0  0  0  0  0  0  0  0  0  0
    6.3724    3.2411   25.9764 C   0  0  0  0  0  0  0  0  0  0  0  0
    6.2368    2.1106   25.1274 C   0  0  0  0  0  0  0  0  0  0  0  0
    7.3069    1.3623   24.4123 C   0  0  0  0  0  0  0  0  0  0  0  0
    7.6052    1.8534   22.9725 C   0  0  0  0  0  0  0  0  0  0  0  0
    8.5853    0.9311   22.3514 C   0  0  0  0  0  0  0  0  0  0  0  0
    9.8883    0.9635   22.5728 N   0  0  0  0  0  0  0  0  0  0  0  0
   10.3113   -0.2221   22.0815 C   0  0  0  0  0  0  0  0  0  0  0  0
   11.7121   -0.6381   21.9443 C   0  0  0  0  0  0  0  0  0  0  0  0
   11.9039   -1.7795   21.1506 C   0  0  0  0  0  0  0  0  0  0  0  0
   13.1229   -2.0358   20.5655 C   0  0  0  0  0  0  0  0  0  0  0  0
   14.2068   -1.2024   20.8329 C   0  0  0  0  0  0  0  0  0  0  0  0
   15.2435   -1.2780   19.9202 N   0  0  0  0  0  0  0  0  0  0  0  0
   16.1614   -1.0794   20.2847 H   0  0  0  0  0  0  0  0  0  0  0  0
   15.2725   -2.1923   19.4867 H   0  0  0  0  0  0  0  0  0  0  0  0
   14.0986   -0.2081   21.8289 C   0  0  0  0  0  0  0  0  0  0  0  0
   12.8394    0.1038   22.3549 C   0  0  0  0  0  0  0  0  0  0  0  0
   12.7453    0.9503   23.0359 H   0  0  0  0  0  0  0  0  0  0  0  0
   14.9585    0.4123   22.0667 H   0  0  0  0  0  0  0  0  0  0  0  0
   13.2296   -2.8010   19.8009 H   0  0  0  0  0  0  0  0  0  0  0  0
   11.0256   -2.3781   20.9376 H   0  0  0  0  0  0  0  0  0  0  0  0
    9.3346   -0.9771   21.5825 N   0  0  0  0  0  0  0  0  0  0  0  0
    8.2341   -0.2312   21.7557 N   0  0  0  0  0  0  0  0  0  0  0  0
    6.9426   -0.6870   21.2471 C   0  0  0  0  0  0  0  0  0  0  0  0
    6.4397    0.0892   20.0440 C   0  0  0  0  0  0  0  0  0  0  0  0
    5.2258    0.7845   20.0320 C   0  0  0  0  0  0  0  0  0  0  0  0
    4.8454    1.4610   18.8686 C   0  0  0  0  0  0  0  0  0  0  0  0
    5.6960    1.4203   17.7617 C   0  0  0  0  0  0  0  0  0  0  0  0
    6.8559    0.7480   17.7460 N   0  0  0  0  0  0  0  0  0  0  0  0
    7.2097    0.1073   18.8669 C   0  0  0  0  0  0  0  0  0  0  0  0
    8.1504   -0.4411   18.8256 H   0  0  0  0  0  0  0  0  0  0  0  0
    5.4331    1.9413   16.8423 H   0  0  0  0  0  0  0  0  0  0  0  0
    3.9206    2.0223   18.8124 H   0  0  0  0  0  0  0  0  0  0  0  0
    4.5840    0.7997   20.9163 H   0  0  0  0  0  0  0  0  0  0  0  0
    6.2144   -0.6579   22.0654 H   0  0  0  0  0  0  0  0  0  0  0  0
    7.0887   -1.7419   20.9952 H   0  0  0  0  0  0  0  0  0  0  0  0
    8.0491    2.8513   22.9822 H   0  0  0  0  0  0  0  0  0  0  0  0
    6.6918    1.9038   22.3712 H   0  0  0  0  0  0  0  0  0  0  0  0
    7.0281    0.2970   24.3654 H   0  0  0  0  0  0  0  0  0  0  0  0
    8.2488    1.4000   24.9746 H   0  0  0  0  0  0  0  0  0  0  0  0
    4.8992    1.8211   25.0667 C   0  0  0  0  0  0  0  0  0  0  0  0
    4.3916    1.0014   24.5737 H   0  0  0  0  0  0  0  0  0  0  0  0
    7.3043    3.7075   26.2772 H   0  0  0  0  0  0  0  0  0  0  0  0
    4.7762    4.4159   27.0120 H   0  0  0  0  0  0  0  0  0  0  0  0
    2.4988    3.1621   26.9356 H   0  0  0  0  0  0  0  0  0  0  0  0
    2.3300    3.4488   25.1827 H   0  0  0  0  0  0  0  0  0  0  0  0
    2.3554    1.7897   25.8260 H   0  0  0  0  0  0  0  0  0  0  0  0
  1  2  1  0
  2  3  1  0
  3  4  2  0
  4  5  1  0
  5  6  1  0
  6  7  1  0
  7  8  1  0
  8  9  2  0
  9 10  1  0
 10 11  1  0
 11 12  2  0
 12 13  1  0
 13 14  2  0
 14 15  1  0
 15 16  1  0
 15 17  1  0
 14 18  1  0
 18 19  2  0
 19 20  1  0
 18 21  1  0
 13 22  1  0
 12 23  1  0
 10 24  2  0
 24 25  1  0
 25 26  1  0
 26 27  1  0
 27 28  2  0
 28 29  1  0
 29 30  2  0
 30 31  1  0
 31 32  2  0
 32 33  1  0
 30 34  1  0
 29 35  1  0
 28 36  1  0
 26 37  1  0
 26 38  1  0
  7 39  1  0
  7 40  1  0
  6 41  1  0
  6 42  1  0
  5 43  2  0
 43 44  1  0
  4 45  1  0
  3 46  1  0
  1 47  1  0
  1 48  1  0
  1 49  1  0
 43  2  1  0
 25  8  1  0
 32 27  1  0
 19 11  1  0
M  END
>  <cnnaffinity>  (1) 
-6.50792

>  <filename>  (1) 
Cn1ccc(CCc2nc(-c3ccc(N)cc3)nn2Cc2cccnc2)c1

$$$$
