
     RDKit          3D

 43 46  0  0  0  0  0  0  0  0999 V2000
   11.1943   -1.2813   21.7602 C   0  0  0  0  0  0  0  0  0  0  0  0
   11.7725    0.0479   21.8569 N   0  0  0  0  0  0  0  0  0  0  0  0
   13.0155    0.3605   22.3738 C   0  0  0  0  0  0  0  0  0  0  0  0
   13.0942    1.7206   22.3522 C   0  0  0  0  0  0  0  0  0  0  0  0
   11.9467    2.2562   21.8214 N   0  0  0  0  0  0  0  0  0  0  0  0
   11.1779    1.2397   21.5394 C   0  0  0  0  0  0  0  0  0  0  0  0
    9.7847    1.4113   21.0185 C   0  0  0  0  0  0  0  0  0  0  0  0
    8.7981    1.1229   22.0895 C   0  0  0  0  0  0  0  0  0  0  0  0
    8.7811    1.7947   23.2158 N   0  0  0  0  0  0  0  0  0  0  0  0
    7.7163    1.2755   23.8778 C   0  0  0  0  0  0  0  0  0  0  0  0
    7.2600    1.8182   25.1823 C   0  0  0  0  0  0  0  0  0  0  0  0
    7.9457    2.9078   25.7575 C   0  0  0  0  0  0  0  0  0  0  0  0
    7.4955    3.4163   26.9705 C   0  0  0  0  0  0  0  0  0  0  0  0
    8.0985    4.4992   27.4773 F   0  0  0  0  0  0  0  0  0  0  0  0
    6.4365    2.8494   27.6754 C   0  0  0  0  0  0  0  0  0  0  0  0
    5.7715    1.7848   27.0724 C   0  0  0  0  0  0  0  0  0  0  0  0
    4.7263    1.2407   27.7095 F   0  0  0  0  0  0  0  0  0  0  0  0
    6.1372    1.2679   25.8342 C   0  0  0  0  0  0  0  0  0  0  0  0
    5.5551    0.4643   25.3896 H   0  0  0  0  0  0  0  0  0  0  0  0
    6.1510    3.2094   28.6566 H   0  0  0  0  0  0  0  0  0  0  0  0
    8.8239    3.3370   25.2804 H   0  0  0  0  0  0  0  0  0  0  0  0
    7.1022    0.3000   23.2254 N   0  0  0  0  0  0  0  0  0  0  0  0
    7.8113    0.1968   22.0777 N   0  0  0  0  0  0  0  0  0  0  0  0
    7.3705   -0.7140   21.0169 C   0  0  0  0  0  0  0  0  0  0  0  0
    6.6538   -0.0116   19.8737 C   0  0  0  0  0  0  0  0  0  0  0  0
    5.4445    0.6546   20.1238 C   0  0  0  0  0  0  0  0  0  0  0  0
    4.8083    1.3133   19.0706 C   0  0  0  0  0  0  0  0  0  0  0  0
    5.4077    1.2992   17.8096 C   0  0  0  0  0  0  0  0  0  0  0  0
    6.5564    0.6604   17.5445 N   0  0  0  0  0  0  0  0  0  0  0  0
    7.1544    0.0256   18.5616 C   0  0  0  0  0  0  0  0  0  0  0  0
    8.0915   -0.4766   18.3061 H   0  0  0  0  0  0  0  0  0  0  0  0
    4.9466    1.8249   16.9764 H   0  0  0  0  0  0  0  0  0  0  0  0
    3.8730    1.8440   19.2115 H   0  0  0  0  0  0  0  0  0  0  0  0
    5.0216    0.6735   21.1310 H   0  0  0  0  0  0  0  0  0  0  0  0
    8.2279   -1.3010   20.6607 H   0  0  0  0  0  0  0  0  0  0  0  0
    6.7016   -1.4227   21.5143 H   0  0  0  0  0  0  0  0  0  0  0  0
    9.5834    0.8191   20.1217 H   0  0  0  0  0  0  0  0  0  0  0  0
    9.6981    2.4749   20.7812 H   0  0  0  0  0  0  0  0  0  0  0  0
   13.9145    2.3549   22.6635 H   0  0  0  0  0  0  0  0  0  0  0  0
   13.7173   -0.4074   22.6695 H   0  0  0  0  0  0  0  0  0  0  0  0
   10.4029   -1.4317   22.5008 H   0  0  0  0  0  0  0  0  0  0  0  0
   10.7812   -1.4284   20.7625 H   0  0  0  0  0  0  0  0  0  0  0  0
   11.9640   -2.0412   21.9169 H   0  0  0  0  0  0  0  0  0  0  0  0
  1  2  1  0
  2  3  1  0
  3  4  2  0
  4  5  1  0
  5  6  2  0
  6  7  1  0
  7  8  1  0
  8  9  2  0
  9 10  1  0
 10 11  1  0
 11 12  2  0
 12 13  1  0
 13 14  1  0
 13 15  2  0
 15 16  1  0
 16 17  1  0
 16 18  2  0
 18 19  1  0
 15 20  1  0
 12 21  1  0
 10 22  2  0
 22 23  1  0
 23 24  1  0
 24 25  1  0
 25 26  2  0
 26 27  1  0
 27 28  2  0
 28 29  1  0
 29 30  2  0
 30 31  1  0
 28 32  1  0
 27 33  1  0
 26 34  1  0
 24 35  1  0
 24 36  1  0
  7 37  1  0
  7 38  1  0
  4 39  1  0
  3 40  1  0
  1 41  1  0
  1 42  1  0
  1 43  1  0
  6  2  1  0
 23  8  1  0
 30 25  1  0
 18 11  1  0
M  END
>  <cnnaffinity>  (1) 
-6.16672

>  <filename>  (1) 
Cn1ccnc1Cc1nc(-c2cc(F)cc(F)c2)nn1Cc1cccnc1

$$$$
