
     RDKit          3D

 43 46  0  0  0  0  0  0  0  0999 V2000
    7.8167    0.0521   27.6726 C   0  0  0  0  0  0  0  0  0  0  0  0
    7.0282    0.4460   26.5293 N   0  0  0  0  0  0  0  0  0  0  0  0
    7.5014    1.0494   25.4206 C   0  0  0  0  0  0  0  0  0  0  0  0
    6.4596    1.1403   24.5223 C   0  0  0  0  0  0  0  0  0  0  0  0
    6.6122    1.6161   23.0856 C   0  0  0  0  0  0  0  0  0  0  0  0
    7.6863    0.8526   22.3517 C   0  0  0  0  0  0  0  0  0  0  0  0
    8.9738    1.0890   22.5112 N   0  0  0  0  0  0  0  0  0  0  0  0
    9.5725   -0.0022   21.9699 C   0  0  0  0  0  0  0  0  0  0  0  0
   11.0398   -0.1972   22.0131 C   0  0  0  0  0  0  0  0  0  0  0  0
   11.6428   -1.2395   21.2876 C   0  0  0  0  0  0  0  0  0  0  0  0
   13.0234   -1.3829   21.3089 C   0  0  0  0  0  0  0  0  0  0  0  0
   13.6259   -2.2800   20.5140 F   0  0  0  0  0  0  0  0  0  0  0  0
   13.8159   -0.5771   22.1191 C   0  0  0  0  0  0  0  0  0  0  0  0
   13.2106    0.4308   22.8733 C   0  0  0  0  0  0  0  0  0  0  0  0
   11.8344    0.6500   22.8063 C   0  0  0  0  0  0  0  0  0  0  0  0
   11.3607    1.4766   23.3302 H   0  0  0  0  0  0  0  0  0  0  0  0
   13.8301    1.0354   23.5233 H   0  0  0  0  0  0  0  0  0  0  0  0
   14.8762   -0.7500   22.1451 H   0  0  0  0  0  0  0  0  0  0  0  0
   11.0188   -1.9483   20.7660 H   0  0  0  0  0  0  0  0  0  0  0  0
    8.7251   -0.8709   21.4435 N   0  0  0  0  0  0  0  0  0  0  0  0
    7.5145   -0.3110   21.6820 N   0  0  0  0  0  0  0  0  0  0  0  0
    6.3323   -0.8355   21.0028 C   0  0  0  0  0  0  0  0  0  0  0  0
    5.9585   -0.0208   19.7820 C   0  0  0  0  0  0  0  0  0  0  0  0
    4.7791    0.7243   19.6697 C   0  0  0  0  0  0  0  0  0  0  0  0
    4.5794    1.4940   18.5189 C   0  0  0  0  0  0  0  0  0  0  0  0
    5.5741    1.5041   17.5383 C   0  0  0  0  0  0  0  0  0  0  0  0
    6.6988    0.7764   17.6145 N   0  0  0  0  0  0  0  0  0  0  0  0
    6.8762    0.0444   18.7186 C   0  0  0  0  0  0  0  0  0  0  0  0
    7.8060   -0.5205   18.7815 H   0  0  0  0  0  0  0  0  0  0  0  0
    5.4768    2.1353   16.6571 H   0  0  0  0  0  0  0  0  0  0  0  0
    3.6877    2.0965   18.3775 H   0  0  0  0  0  0  0  0  0  0  0  0
    4.0366    0.7209   20.4712 H   0  0  0  0  0  0  0  0  0  0  0  0
    5.5137   -0.8695   21.7198 H   0  0  0  0  0  0  0  0  0  0  0  0
    6.5723   -1.8713   20.7354 H   0  0  0  0  0  0  0  0  0  0  0  0
    5.6643    1.5794   22.5415 H   0  0  0  0  0  0  0  0  0  0  0  0
    6.9325    2.6637   23.0717 H   0  0  0  0  0  0  0  0  0  0  0  0
    5.3671    0.5816   25.2215 C   0  0  0  0  0  0  0  0  0  0  0  0
    5.7247    0.1635   26.4341 N   0  0  0  0  0  0  0  0  0  0  0  0
    4.3407    0.4576   24.8905 H   0  0  0  0  0  0  0  0  0  0  0  0
    8.5502    1.3151   25.3154 H   0  0  0  0  0  0  0  0  0  0  0  0
    8.8575   -0.0518   27.3581 H   0  0  0  0  0  0  0  0  0  0  0  0
    7.7625    0.7939   28.4740 H   0  0  0  0  0  0  0  0  0  0  0  0
    7.4567   -0.9162   28.0187 H   0  0  0  0  0  0  0  0  0  0  0  0
  1  2  1  0
  2  3  1  0
  3  4  2  0
  4  5  1  0
  5  6  1  0
  6  7  2  0
  7  8  1  0
  8  9  1  0
  9 10  2  0
 10 11  1  0
 11 12  1  0
 11 13  2  0
 13 14  1  0
 14 15  2  0
 15 16  1  0
 14 17  1  0
 13 18  1  0
 10 19  1  0
  8 20  2  0
 20 21  1  0
 21 22  1  0
 22 23  1  0
 23 24  2  0
 24 25  1  0
 25 26  2  0
 26 27  1  0
 27 28  2  0
 28 29  1  0
 26 30  1  0
 25 31  1  0
 24 32  1  0
 22 33  1  0
 22 34  1  0
  5 35  1  0
  5 36  1  0
  4 37  1  0
 37 38  2  0
 37 39  1  0
  3 40  1  0
  1 41  1  0
  1 42  1  0
  1 43  1  0
 38  2  1  0
 21  6  1  0
 28 23  1  0
 15  9  1  0
M  END
>  <cnnaffinity>  (1) 
-6.21898

>  <filename>  (1) 
Cn1cc(Cc2nc(-c3cccc(F)c3)nn2Cc2cccnc2)cn1

$$$$
