
     RDKit          3D

 47 50  0  0  0  0  0  0  0  0999 V2000
    8.2228   -3.5066   24.6123 C   0  0  0  0  0  0  0  0  0  0  0  0
    7.6574   -2.1770   24.7478 N   0  0  0  0  0  0  0  0  0  0  0  0
    6.3245   -1.8609   24.8219 C   0  0  0  0  0  0  0  0  0  0  0  0
    6.1928   -0.4933   24.7841 C   0  0  0  0  0  0  0  0  0  0  0  0
    7.4931    0.0640   24.6567 C   0  0  0  0  0  0  0  0  0  0  0  0
    7.8245    1.5112   24.3947 C   0  0  0  0  0  0  0  0  0  0  0  0
    7.8239    1.8649   22.8805 C   0  0  0  0  0  0  0  0  0  0  0  0
    8.7866    0.9951   22.1484 C   0  0  0  0  0  0  0  0  0  0  0  0
   10.0914    1.0291   22.3762 N   0  0  0  0  0  0  0  0  0  0  0  0
   10.5229   -0.1298   21.8366 C   0  0  0  0  0  0  0  0  0  0  0  0
   11.9151   -0.5808   21.7875 C   0  0  0  0  0  0  0  0  0  0  0  0
   12.1404   -1.7856   21.1044 C   0  0  0  0  0  0  0  0  0  0  0  0
   13.3667   -2.0390   20.5155 C   0  0  0  0  0  0  0  0  0  0  0  0
   14.3919   -1.1412   20.7645 C   0  0  0  0  0  0  0  0  0  0  0  0
   15.4184   -1.1884   19.9079 F   0  0  0  0  0  0  0  0  0  0  0  0
   14.2786   -0.1139   21.7201 C   0  0  0  0  0  0  0  0  0  0  0  0
   13.0072    0.1958   22.2044 C   0  0  0  0  0  0  0  0  0  0  0  0
   12.8531    1.0810   22.8195 H   0  0  0  0  0  0  0  0  0  0  0  0
   15.1220    0.5188   21.9742 H   0  0  0  0  0  0  0  0  0  0  0  0
   13.5303   -2.8445   19.8104 H   0  0  0  0  0  0  0  0  0  0  0  0
   11.2681   -2.4086   20.9709 H   0  0  0  0  0  0  0  0  0  0  0  0
    9.5696   -0.8498   21.2631 N   0  0  0  0  0  0  0  0  0  0  0  0
    8.4646   -0.1136   21.4440 N   0  0  0  0  0  0  0  0  0  0  0  0
    7.1767   -0.6793   21.0624 C   0  0  0  0  0  0  0  0  0  0  0  0
    6.5028    0.0518   19.9287 C   0  0  0  0  0  0  0  0  0  0  0  0
    5.2785    0.7073   20.0784 C   0  0  0  0  0  0  0  0  0  0  0  0
    4.7286    1.3680   18.9777 C   0  0  0  0  0  0  0  0  0  0  0  0
    5.4224    1.3398   17.7651 C   0  0  0  0  0  0  0  0  0  0  0  0
    6.5920    0.7023   17.5950 N   0  0  0  0  0  0  0  0  0  0  0  0
    7.1142    0.0877   18.6623 C   0  0  0  0  0  0  0  0  0  0  0  0
    8.0717   -0.4094   18.5044 H   0  0  0  0  0  0  0  0  0  0  0  0
    5.0213    1.8487   16.8909 H   0  0  0  0  0  0  0  0  0  0  0  0
    3.7935    1.9113   19.0542 H   0  0  0  0  0  0  0  0  0  0  0  0
    4.7684    0.7073   21.0450 H   0  0  0  0  0  0  0  0  0  0  0  0
    7.4141   -1.7042   20.7643 H   0  0  0  0  0  0  0  0  0  0  0  0
    6.5392   -0.7481   21.9521 H   0  0  0  0  0  0  0  0  0  0  0  0
    8.1274    2.9053   22.7351 H   0  0  0  0  0  0  0  0  0  0  0  0
    6.8226    1.7524   22.4568 H   0  0  0  0  0  0  0  0  0  0  0  0
    8.8232    1.7308   24.7922 H   0  0  0  0  0  0  0  0  0  0  0  0
    7.1273    2.1703   24.9223 H   0  0  0  0  0  0  0  0  0  0  0  0
    8.3630   -1.0013   24.6467 C   0  0  0  0  0  0  0  0  0  0  0  0
    9.4427   -1.0290   24.5458 H   0  0  0  0  0  0  0  0  0  0  0  0
    5.2599    0.0609   24.8195 H   0  0  0  0  0  0  0  0  0  0  0  0
    5.5737   -2.6368   24.9018 H   0  0  0  0  0  0  0  0  0  0  0  0
    8.2065   -3.8468   23.5682 H   0  0  0  0  0  0  0  0  0  0  0  0
    9.2584   -3.4994   24.9632 H   0  0  0  0  0  0  0  0  0  0  0  0
    7.6582   -4.2168   25.2238 H   0  0  0  0  0  0  0  0  0  0  0  0
  1  2  1  0
  2  3  1  0
  3  4  2  0
  4  5  1  0
  5  6  1  0
  6  7  1  0
  7  8  1  0
  8  9  2  0
  9 10  1  0
 10 11  1  0
 11 12  2  0
 12 13  1  0
 13 14  2  0
 14 15  1  0
 14 16  1  0
 16 17  2  0
 17 18  1  0
 16 19  1  0
 13 20  1  0
 12 21  1  0
 10 22  2  0
 22 23  1  0
 23 24  1  0
 24 25  1  0
 25 26  2  0
 26 27  1  0
 27 28  2  0
 28 29  1  0
 29 30  2  0
 30 31  1  0
 28 32  1  0
 27 33  1  0
 26 34  1  0
 24 35  1  0
 24 36  1  0
  7 37  1  0
  7 38  1  0
  6 39  1  0
  6 40  1  0
  5 41  2  0
 41 42  1  0
  4 43  1  0
  3 44  1  0
  1 45  1  0
  1 46  1  0
  1 47  1  0
 41  2  1  0
 23  8  1  0
 30 25  1  0
 17 11  1  0
M  END
>  <cnnaffinity>  (1) 
-6.63353

>  <filename>  (1) 
Cn1ccc(CCc2nc(-c3ccc(F)cc3)nn2Cc2cccnc2)c1

$$$$
