
     RDKit          3D

 43 46  0  0  0  0  0  0  0  0999 V2000
    8.1948   -0.1783   27.3831 C   0  0  0  0  0  0  0  0  0  0  0  0
    7.5125    0.3433   26.2196 N   0  0  0  0  0  0  0  0  0  0  0  0
    8.0826    1.0565   25.2276 C   0  0  0  0  0  0  0  0  0  0  0  0
    7.1245    1.2717   24.2614 C   0  0  0  0  0  0  0  0  0  0  0  0
    7.4426    1.8564   22.8917 C   0  0  0  0  0  0  0  0  0  0  0  0
    8.4648    1.0024   22.1848 C   0  0  0  0  0  0  0  0  0  0  0  0
    9.7808    1.1118   22.3095 N   0  0  0  0  0  0  0  0  0  0  0  0
   10.2369   -0.0883   21.8760 C   0  0  0  0  0  0  0  0  0  0  0  0
   11.6537   -0.5077   21.8161 C   0  0  0  0  0  0  0  0  0  0  0  0
   11.9119   -1.7065   21.1378 C   0  0  0  0  0  0  0  0  0  0  0  0
   13.1951   -2.0190   20.7263 C   0  0  0  0  0  0  0  0  0  0  0  0
   14.2629   -1.2384   21.1423 C   0  0  0  0  0  0  0  0  0  0  0  0
   14.0482   -0.1249   21.9704 C   0  0  0  0  0  0  0  0  0  0  0  0
   12.7384    0.2637   22.2815 C   0  0  0  0  0  0  0  0  0  0  0  0
   12.5707    1.1974   22.8109 H   0  0  0  0  0  0  0  0  0  0  0  0
   14.8736    0.5084   22.2819 H   0  0  0  0  0  0  0  0  0  0  0  0
   15.2059   -1.5031   20.6989 H   0  0  0  0  0  0  0  0  0  0  0  0
   13.3694   -2.8280   20.0243 H   0  0  0  0  0  0  0  0  0  0  0  0
   11.0642   -2.3212   20.8606 H   0  0  0  0  0  0  0  0  0  0  0  0
    9.2764   -0.8971   21.4470 N   0  0  0  0  0  0  0  0  0  0  0  0
    8.1495   -0.1934   21.6396 N   0  0  0  0  0  0  0  0  0  0  0  0
    6.8881   -0.7281   21.1325 C   0  0  0  0  0  0  0  0  0  0  0  0
    6.3380    0.0496   19.9586 C   0  0  0  0  0  0  0  0  0  0  0  0
    5.1290    0.7459   20.0208 C   0  0  0  0  0  0  0  0  0  0  0  0
    4.6868    1.4343   18.8885 C   0  0  0  0  0  0  0  0  0  0  0  0
    5.4778    1.4044   17.7370 C   0  0  0  0  0  0  0  0  0  0  0  0
    6.6474    0.7513   17.6608 N   0  0  0  0  0  0  0  0  0  0  0  0
    7.0612    0.1035   18.7556 C   0  0  0  0  0  0  0  0  0  0  0  0
    8.0190   -0.4101   18.6724 H   0  0  0  0  0  0  0  0  0  0  0  0
    5.1580    1.9184   16.8325 H   0  0  0  0  0  0  0  0  0  0  0  0
    3.7576    1.9917   18.8881 H   0  0  0  0  0  0  0  0  0  0  0  0
    4.5453    0.7556   20.9437 H   0  0  0  0  0  0  0  0  0  0  0  0
    6.1631   -0.7634   21.9496 H   0  0  0  0  0  0  0  0  0  0  0  0
    7.1040   -1.7649   20.8488 H   0  0  0  0  0  0  0  0  0  0  0  0
    7.8737    2.8586   22.9813 H   0  0  0  0  0  0  0  0  0  0  0  0
    6.5398    1.9551   22.2813 H   0  0  0  0  0  0  0  0  0  0  0  0
    5.9715    0.6568   24.8014 C   0  0  0  0  0  0  0  0  0  0  0  0
    6.2194    0.1008   25.9862 N   0  0  0  0  0  0  0  0  0  0  0  0
    4.9708    0.5740   24.3902 H   0  0  0  0  0  0  0  0  0  0  0  0
    9.1394    1.3016   25.2254 H   0  0  0  0  0  0  0  0  0  0  0  0
    8.2222    0.5592   28.1902 H   0  0  0  0  0  0  0  0  0  0  0  0
    9.2186   -0.4409   27.1031 H   0  0  0  0  0  0  0  0  0  0  0  0
    7.6755   -1.0763   27.7191 H   0  0  0  0  0  0  0  0  0  0  0  0
  1  2  1  0
  2  3  1  0
  3  4  2  0
  4  5  1  0
  5  6  1  0
  6  7  2  0
  7  8  1  0
  8  9  1  0
  9 10  2  0
 10 11  1  0
 11 12  2  0
 12 13  1  0
 13 14  2  0
 14 15  1  0
 13 16  1  0
 12 17  1  0
 11 18  1  0
 10 19  1  0
  8 20  2  0
 20 21  1  0
 21 22  1  0
 22 23  1  0
 23 24  2  0
 24 25  1  0
 25 26  2  0
 26 27  1  0
 27 28  2  0
 28 29  1  0
 26 30  1  0
 25 31  1  0
 24 32  1  0
 22 33  1  0
 22 34  1  0
  5 35  1  0
  5 36  1  0
  4 37  1  0
 37 38  2  0
 37 39  1  0
  3 40  1  0
  1 41  1  0
  1 42  1  0
  1 43  1  0
 38  2  1  0
 21  6  1  0
 28 23  1  0
 14  9  1  0
M  END
>  <cnnaffinity>  (1) 
-6.35008

>  <filename>  (1) 
Cn1cc(Cc2nc(-c3ccccc3)nn2Cc2cccnc2)cn1

$$$$
