
     RDKit          3D

 50 53  0  0  0  0  0  0  0  0999 V2000
   10.0031    2.8958   24.8666 C   0  0  0  0  0  0  0  0  0  0  0  0
    9.7693    2.4511   23.5186 N   0  0  0  0  0  0  0  0  0  0  0  0
   10.4243    3.0900   22.3944 C   0  0  0  0  0  0  0  0  0  0  0  0
    9.7606    2.4300   21.1837 C   0  0  0  0  0  0  0  0  0  0  0  0
    9.0091    1.2010   21.6982 C   0  0  0  0  0  0  0  0  0  0  0  0
    9.4466   -0.1304   21.0501 C   0  0  0  0  0  0  0  0  0  0  0  0
    8.4686   -1.2194   21.3283 C   0  0  0  0  0  0  0  0  0  0  0  0
    8.6519   -2.1367   22.2429 N   0  0  0  0  0  0  0  0  0  0  0  0
    7.3992   -2.6184   22.4631 C   0  0  0  0  0  0  0  0  0  0  0  0
    7.1914   -3.4801   23.6783 C   0  0  0  0  0  0  0  0  0  0  0  0
    8.3216   -4.5363   23.8095 C   0  0  0  0  0  0  0  0  0  0  0  0
    8.2220   -5.3507   25.1117 C   0  0  0  0  0  0  0  0  0  0  0  0
    8.1392   -4.4598   26.3445 C   0  0  0  0  0  0  0  0  0  0  0  0
    9.3732   -3.8866   26.5599 F   0  0  0  0  0  0  0  0  0  0  0  0
    7.8748   -5.2324   27.4465 F   0  0  0  0  0  0  0  0  0  0  0  0
    7.0995   -3.3517   26.2485 C   0  0  0  0  0  0  0  0  0  0  0  0
    7.2067   -2.5608   24.9355 C   0  0  0  0  0  0  0  0  0  0  0  0
    8.1471   -1.9914   24.9264 H   0  0  0  0  0  0  0  0  0  0  0  0
    6.3956   -1.8240   24.8676 H   0  0  0  0  0  0  0  0  0  0  0  0
    6.1091   -3.8136   26.3406 H   0  0  0  0  0  0  0  0  0  0  0  0
    7.2450   -2.6961   27.1138 H   0  0  0  0  0  0  0  0  0  0  0  0
    7.3289   -5.9875   25.1062 H   0  0  0  0  0  0  0  0  0  0  0  0
    9.0940   -6.0024   25.2420 H   0  0  0  0  0  0  0  0  0  0  0  0
    9.2803   -3.9972   23.7945 H   0  0  0  0  0  0  0  0  0  0  0  0
    8.3205   -5.2089   22.9430 H   0  0  0  0  0  0  0  0  0  0  0  0
    6.2123   -3.9614   23.5714 H   0  0  0  0  0  0  0  0  0  0  0  0
    6.4674   -2.1241   21.6704 N   0  0  0  0  0  0  0  0  0  0  0  0
    7.1662   -1.2332   20.9036 N   0  0  0  0  0  0  0  0  0  0  0  0
    6.5311   -0.4346   19.8994 C   0  0  0  0  0  0  0  0  0  0  0  0
    5.3798    0.3188   20.1716 C   0  0  0  0  0  0  0  0  0  0  0  0
    4.9102    1.1854   19.1763 C   0  0  0  0  0  0  0  0  0  0  0  0
    5.5707    1.2397   17.9426 C   0  0  0  0  0  0  0  0  0  0  0  0
    6.6338    0.4762   17.6524 N   0  0  0  0  0  0  0  0  0  0  0  0
    7.0926   -0.3399   18.6097 C   0  0  0  0  0  0  0  0  0  0  0  0
    7.9606   -0.9423   18.3464 H   0  0  0  0  0  0  0  0  0  0  0  0
    5.2273    1.9124   17.1577 H   0  0  0  0  0  0  0  0  0  0  0  0
    4.0540    1.8304   19.3436 H   0  0  0  0  0  0  0  0  0  0  0  0
    4.8807    0.2352   21.1394 H   0  0  0  0  0  0  0  0  0  0  0  0
    9.5712   -0.0181   19.9688 H   0  0  0  0  0  0  0  0  0  0  0  0
   10.4101   -0.4439   21.4590 H   0  0  0  0  0  0  0  0  0  0  0  0
    9.1798    1.2595   23.2243 C   0  0  0  0  0  0  0  0  0  0  0  0
    8.8400    0.4125   24.0268 O   0  0  0  0  0  0  0  0  0  0  0  0
    7.9308    1.3183   21.5371 H   0  0  0  0  0  0  0  0  0  0  0  0
   10.5476    2.1758   20.4712 H   0  0  0  0  0  0  0  0  0  0  0  0
    9.0377    3.0936   20.7053 H   0  0  0  0  0  0  0  0  0  0  0  0
   11.5133    2.9053   22.4223 H   0  0  0  0  0  0  0  0  0  0  0  0
   10.2704    4.1776   22.4294 H   0  0  0  0  0  0  0  0  0  0  0  0
    9.0988    3.3237   25.3146 H   0  0  0  0  0  0  0  0  0  0  0  0
   10.7643    3.6804   24.8293 H   0  0  0  0  0  0  0  0  0  0  0  0
   10.3640    2.0743   25.4968 H   0  0  0  0  0  0  0  0  0  0  0  0
  1  2  1  0
  2  3  1  0
  3  4  1  0
  4  5  1  0
  5  6  1  0
  6  7  1  0
  7  8  2  0
  8  9  1  0
  9 10  1  0
 10 11  1  0
 11 12  1  0
 12 13  1  0
 13 14  1  0
 13 15  1  0
 13 16  1  0
 16 17  1  0
 17 18  1  0
 17 19  1  0
 16 20  1  0
 16 21  1  0
 12 22  1  0
 12 23  1  0
 11 24  1  0
 11 25  1  0
 10 26  1  0
  9 27  2  0
 27 28  1  0
 28 29  1  0
 29 30  2  0
 30 31  1  0
 31 32  2  0
 32 33  1  0
 33 34  2  0
 34 35  1  0
 32 36  1  0
 31 37  1  0
 30 38  1  0
  6 39  1  0
  6 40  1  0
  5 41  1  0
 41 42  2  0
  5 43  1  0
  4 44  1  0
  4 45  1  0
  3 46  1  0
  3 47  1  0
  1 48  1  0
  1 49  1  0
  1 50  1  0
 41  2  1  0
 28  7  1  0
 34 29  1  0
 17 10  1  0
M  END
>  <cnnaffinity>  (1) 
-6.46903

>  <filename>  (1) 
CN1CCC(Cc2nc(C3CCC(F)(F)CC3)nn2-c2cccnc2)C1=O

$$$$
