
     RDKit          3D

 43 46  0  0  0  0  0  0  0  0999 V2000
   11.2088   -1.2893   21.6902 C   0  0  0  0  0  0  0  0  0  0  0  0
   11.7757    0.0453   21.8069 N   0  0  0  0  0  0  0  0  0  0  0  0
   13.0129    0.3698   22.3254 C   0  0  0  0  0  0  0  0  0  0  0  0
   13.0871    1.7335   22.2931 C   0  0  0  0  0  0  0  0  0  0  0  0
   11.9345    2.2521   21.7571 N   0  0  0  0  0  0  0  0  0  0  0  0
   11.1751    1.2262   21.4883 C   0  0  0  0  0  0  0  0  0  0  0  0
    9.7766    1.3664   20.9969 C   0  0  0  0  0  0  0  0  0  0  0  0
    8.8064    1.1104   22.0874 C   0  0  0  0  0  0  0  0  0  0  0  0
    8.7603    1.8349   23.1790 N   0  0  0  0  0  0  0  0  0  0  0  0
    7.6926    1.3322   23.8489 C   0  0  0  0  0  0  0  0  0  0  0  0
    7.2756    1.8566   25.1638 C   0  0  0  0  0  0  0  0  0  0  0  0
    6.1573    1.3030   25.8131 C   0  0  0  0  0  0  0  0  0  0  0  0
    5.7707    1.7741   27.0650 C   0  0  0  0  0  0  0  0  0  0  0  0
    6.4906    2.8018   27.6821 C   0  0  0  0  0  0  0  0  0  0  0  0
    7.6031    3.3610   27.0430 C   0  0  0  0  0  0  0  0  0  0  0  0
    8.0001    2.8927   25.7901 C   0  0  0  0  0  0  0  0  0  0  0  0
    8.8702    3.3178   25.2913 H   0  0  0  0  0  0  0  0  0  0  0  0
    8.1579    4.1640   27.5194 H   0  0  0  0  0  0  0  0  0  0  0  0
    6.1838    3.1639   28.6575 H   0  0  0  0  0  0  0  0  0  0  0  0
    4.9077    1.3339   27.5542 H   0  0  0  0  0  0  0  0  0  0  0  0
    5.6121    0.4995   25.3230 H   0  0  0  0  0  0  0  0  0  0  0  0
    7.0856    0.3352   23.2166 N   0  0  0  0  0  0  0  0  0  0  0  0
    7.8142    0.1969   22.0877 N   0  0  0  0  0  0  0  0  0  0  0  0
    7.3784   -0.7082   21.0293 C   0  0  0  0  0  0  0  0  0  0  0  0
    6.6566   -0.0069   19.8853 C   0  0  0  0  0  0  0  0  0  0  0  0
    5.4454    0.6515   20.1330 C   0  0  0  0  0  0  0  0  0  0  0  0
    4.7996    1.3104   19.0826 C   0  0  0  0  0  0  0  0  0  0  0  0
    5.3922    1.2990   17.8171 C   0  0  0  0  0  0  0  0  0  0  0  0
    6.5504    0.6737   17.5563 N   0  0  0  0  0  0  0  0  0  0  0  0
    7.1584    0.0488   18.5737 C   0  0  0  0  0  0  0  0  0  0  0  0
    8.1029   -0.4359   18.3157 H   0  0  0  0  0  0  0  0  0  0  0  0
    4.9250    1.8144   16.9767 H   0  0  0  0  0  0  0  0  0  0  0  0
    3.8674    1.8468   19.2308 H   0  0  0  0  0  0  0  0  0  0  0  0
    5.0313    0.6476   21.1427 H   0  0  0  0  0  0  0  0  0  0  0  0
    6.7220   -1.4256   21.5340 H   0  0  0  0  0  0  0  0  0  0  0  0
    8.2482   -1.2581   20.6493 H   0  0  0  0  0  0  0  0  0  0  0  0
    9.5622    0.7597   20.1156 H   0  0  0  0  0  0  0  0  0  0  0  0
    9.6632    2.4173   20.7345 H   0  0  0  0  0  0  0  0  0  0  0  0
   13.8898    2.4000   22.5926 H   0  0  0  0  0  0  0  0  0  0  0  0
   13.7219   -0.3938   22.6116 H   0  0  0  0  0  0  0  0  0  0  0  0
   10.3838   -1.4202   22.3988 H   0  0  0  0  0  0  0  0  0  0  0  0
   11.9947   -2.0234   21.8933 H   0  0  0  0  0  0  0  0  0  0  0  0
   10.8297   -1.4414   20.6792 H   0  0  0  0  0  0  0  0  0  0  0  0
  1  2  1  0
  2  3  1  0
  3  4  2  0
  4  5  1  0
  5  6  2  0
  6  7  1  0
  7  8  1  0
  8  9  2  0
  9 10  1  0
 10 11  1  0
 11 12  2  0
 12 13  1  0
 13 14  2  0
 14 15  1  0
 15 16  2  0
 16 17  1  0
 15 18  1  0
 14 19  1  0
 13 20  1  0
 12 21  1  0
 10 22  2  0
 22 23  1  0
 23 24  1  0
 24 25  1  0
 25 26  2  0
 26 27  1  0
 27 28  2  0
 28 29  1  0
 29 30  2  0
 30 31  1  0
 28 32  1  0
 27 33  1  0
 26 34  1  0
 24 35  1  0
 24 36  1  0
  7 37  1  0
  7 38  1  0
  4 39  1  0
  3 40  1  0
  1 41  1  0
  1 42  1  0
  1 43  1  0
  6  2  1  0
 23  8  1  0
 30 25  1  0
 16 11  1  0
M  END
>  <cnnaffinity>  (1) 
-5.87953

>  <filename>  (1) 
Cn1ccnc1Cc1nc(-c2ccccc2)nn1Cc1cccnc1

$$$$
