
     RDKit          3D

 40 42  0  0  0  0  0  0  0  0999 V2000
    4.9378    1.8506   17.0026 H   0  0  0  0  0  0  0  0  0  0  0  0
    5.4075    1.3067   17.8196 C   0  0  0  0  0  0  0  0  0  0  0  0
    6.5594    0.6782   17.5306 N   0  0  0  0  0  0  0  0  0  0  0  0
    7.1622    0.0148   18.5314 C   0  0  0  0  0  0  0  0  0  0  0  0
    8.0974   -0.4857   18.2881 H   0  0  0  0  0  0  0  0  0  0  0  0
    6.6649   -0.0710   19.8553 C   0  0  0  0  0  0  0  0  0  0  0  0
    7.3160   -0.7974   20.8730 N   0  0  0  0  0  0  0  0  0  0  0  0
    6.7546   -0.8897   21.7157 H   0  0  0  0  0  0  0  0  0  0  0  0
    8.7004   -0.7162   21.1381 C   0  0  0  0  0  0  0  0  0  0  0  0
    9.6608    0.2283   20.7032 C   0  0  0  0  0  0  0  0  0  0  0  0
    9.4762    1.1001   20.0936 H   0  0  0  0  0  0  0  0  0  0  0  0
   10.8772   -0.0468   21.1668 N   0  0  0  0  0  0  0  0  0  0  0  0
   10.6976   -1.1519   21.9068 N   0  0  0  0  0  0  0  0  0  0  0  0
   11.5053   -1.5882   22.3351 H   0  0  0  0  0  0  0  0  0  0  0  0
    9.4067   -1.5826   21.9481 C   0  0  0  0  0  0  0  0  0  0  0  0
    8.9498   -2.6907   22.8519 C   0  0  0  0  0  0  0  0  0  0  0  0
    9.7395   -3.4575   22.9005 H   0  0  0  0  0  0  0  0  0  0  0  0
    8.0783   -3.1750   22.3954 H   0  0  0  0  0  0  0  0  0  0  0  0
    8.6046   -2.3063   24.2214 N   0  0  0  0  0  0  0  0  0  0  0  0
    9.7488   -1.8287   25.0206 C   0  0  0  0  0  0  0  0  0  0  0  0
   10.1855   -0.8926   24.6281 H   0  0  0  0  0  0  0  0  0  0  0  0
   10.5317   -2.5951   24.9745 H   0  0  0  0  0  0  0  0  0  0  0  0
    9.3403   -1.5334   26.4877 C   0  0  0  0  0  0  0  0  0  0  0  0
   10.1925   -1.1309   27.0479 H   0  0  0  0  0  0  0  0  0  0  0  0
    9.0369   -2.4668   26.9841 H   0  0  0  0  0  0  0  0  0  0  0  0
    8.2384   -0.5611   26.6118 N   0  0  0  0  0  0  0  0  0  0  0  0
    8.6328    0.8131   26.2682 C   0  0  0  0  0  0  0  0  0  0  0  0
    9.6583    1.0121   26.6005 H   0  0  0  0  0  0  0  0  0  0  0  0
    7.9735    1.5383   26.7624 H   0  0  0  0  0  0  0  0  0  0  0  0
    8.6207    1.0223   25.1833 H   0  0  0  0  0  0  0  0  0  0  0  0
    7.1180   -1.0874   25.8028 C   0  0  0  0  0  0  0  0  0  0  0  0
    6.2558   -0.4135   25.8576 H   0  0  0  0  0  0  0  0  0  0  0  0
    6.8130   -2.0452   26.2526 H   0  0  0  0  0  0  0  0  0  0  0  0
    7.4787   -1.3567   24.3170 C   0  0  0  0  0  0  0  0  0  0  0  0
    7.6962   -0.3882   23.8184 H   0  0  0  0  0  0  0  0  0  0  0  0
    6.6033   -1.7911   23.8202 H   0  0  0  0  0  0  0  0  0  0  0  0
    5.4502    0.5784   20.1242 C   0  0  0  0  0  0  0  0  0  0  0  0
    5.0227    0.5600   21.1293 H   0  0  0  0  0  0  0  0  0  0  0  0
    4.8181    1.2784   19.0891 C   0  0  0  0  0  0  0  0  0  0  0  0
    3.8861    1.8113   19.2582 H   0  0  0  0  0  0  0  0  0  0  0  0
  1  2  1  0
  2  3  2  0
  3  4  1  0
  4  5  1  0
  4  6  2  0
  6  7  1  0
  7  8  1  0
  7  9  1  0
  9 10  1  0
 10 11  1  0
 10 12  2  0
 12 13  1  0
 13 14  1  0
 13 15  1  0
 15 16  1  0
 16 17  1  0
 16 18  1  0
 16 19  1  0
 19 20  1  0
 20 21  1  0
 20 22  1  0
 20 23  1  0
 23 24  1  0
 23 25  1  0
 23 26  1  0
 26 27  1  0
 27 28  1  0
 27 29  1  0
 27 30  1  0
 26 31  1  0
 31 32  1  0
 31 33  1  0
 31 34  1  0
 34 35  1  0
 34 36  1  0
  6 37  1  0
 37 38  1  0
 37 39  2  0
 39 40  1  0
 39  2  1  0
 15  9  2  0
 34 19  1  0
M  END
>  <cnnaffinity>  (1) 
-5.22621

>  <filename>  (1) 
CN1CCN(Cc2[nH]ncc2Nc2cccnc2)CC1

$$$$
