
     RDKit          3D

 43 46  0  0  0  0  0  0  0  0999 V2000
    8.2780   -0.3398   27.2623 C   0  0  0  0  0  0  0  0  0  0  0  0
    7.6847    0.2274   26.0721 N   0  0  0  0  0  0  0  0  0  0  0  0
    8.3228    0.9523   25.1281 C   0  0  0  0  0  0  0  0  0  0  0  0
    7.4189    1.1903   24.1137 C   0  0  0  0  0  0  0  0  0  0  0  0
    7.7914    1.8209   22.7815 C   0  0  0  0  0  0  0  0  0  0  0  0
    8.8183    0.9657   22.0855 C   0  0  0  0  0  0  0  0  0  0  0  0
   10.1307    1.0495   22.2557 N   0  0  0  0  0  0  0  0  0  0  0  0
   10.5878   -0.1469   21.8024 C   0  0  0  0  0  0  0  0  0  0  0  0
   12.0300   -0.5203   21.7489 C   0  0  0  0  0  0  0  0  0  0  0  0
   12.3995   -1.6573   21.0159 C   0  0  0  0  0  0  0  0  0  0  0  0
   13.6768   -1.8243   20.4690 C   0  0  0  0  0  0  0  0  0  0  0  0
   14.6024   -0.8203   20.7293 C   0  0  0  0  0  0  0  0  0  0  0  0
   16.0073   -0.3926   19.6477 Cl  0  0  0  0  0  0  0  0  0  0  0  0
   14.3613    0.1092   21.7702 C   0  0  0  0  0  0  0  0  0  0  0  0
   13.0702    0.2808   22.2619 C   0  0  0  0  0  0  0  0  0  0  0  0
   12.8752    1.0688   22.9837 H   0  0  0  0  0  0  0  0  0  0  0  0
   15.1410    0.8062   22.0595 H   0  0  0  0  0  0  0  0  0  0  0  0
   13.9211   -2.7047   19.8871 H   0  0  0  0  0  0  0  0  0  0  0  0
   11.6006   -2.3474   20.8117 H   0  0  0  0  0  0  0  0  0  0  0  0
    9.6292   -0.9340   21.3284 N   0  0  0  0  0  0  0  0  0  0  0  0
    8.5057   -0.2048   21.4905 N   0  0  0  0  0  0  0  0  0  0  0  0
    7.2200   -0.7357   21.0371 C   0  0  0  0  0  0  0  0  0  0  0  0
    6.5446    0.0382   19.9186 C   0  0  0  0  0  0  0  0  0  0  0  0
    5.3158    0.6890   20.0863 C   0  0  0  0  0  0  0  0  0  0  0  0
    4.7485    1.3565   18.9977 C   0  0  0  0  0  0  0  0  0  0  0  0
    5.4307    1.3431   17.7777 C   0  0  0  0  0  0  0  0  0  0  0  0
    6.6047    0.7191   17.5900 N   0  0  0  0  0  0  0  0  0  0  0  0
    7.1400    0.0944   18.6462 C   0  0  0  0  0  0  0  0  0  0  0  0
    8.0906   -0.4090   18.4712 H   0  0  0  0  0  0  0  0  0  0  0  0
    5.0191    1.8529   16.9100 H   0  0  0  0  0  0  0  0  0  0  0  0
    3.8082    1.8908   19.0840 H   0  0  0  0  0  0  0  0  0  0  0  0
    4.8059    0.6799   21.0528 H   0  0  0  0  0  0  0  0  0  0  0  0
    7.4378   -1.7595   20.7194 H   0  0  0  0  0  0  0  0  0  0  0  0
    6.5547   -0.8081   21.9024 H   0  0  0  0  0  0  0  0  0  0  0  0
    6.9115    1.9568   22.1442 H   0  0  0  0  0  0  0  0  0  0  0  0
    8.2357    2.8121   22.9229 H   0  0  0  0  0  0  0  0  0  0  0  0
    6.2417    0.5519   24.5592 C   0  0  0  0  0  0  0  0  0  0  0  0
    6.4160   -0.0308   25.7431 N   0  0  0  0  0  0  0  0  0  0  0  0
    5.2748    0.4808   24.0710 H   0  0  0  0  0  0  0  0  0  0  0  0
    9.3788    1.1992   25.1987 H   0  0  0  0  0  0  0  0  0  0  0  0
    8.7695   -1.2959   27.0521 H   0  0  0  0  0  0  0  0  0  0  0  0
    7.4912   -0.4898   28.0005 H   0  0  0  0  0  0  0  0  0  0  0  0
    9.0132    0.3607   27.6553 H   0  0  0  0  0  0  0  0  0  0  0  0
  1  2  1  0
  2  3  1  0
  3  4  2  0
  4  5  1  0
  5  6  1  0
  6  7  2  0
  7  8  1  0
  8  9  1  0
  9 10  2  0
 10 11  1  0
 11 12  2  0
 12 13  1  0
 12 14  1  0
 14 15  2  0
 15 16  1  0
 14 17  1  0
 11 18  1  0
 10 19  1  0
  8 20  2  0
 20 21  1  0
 21 22  1  0
 22 23  1  0
 23 24  2  0
 24 25  1  0
 25 26  2  0
 26 27  1  0
 27 28  2  0
 28 29  1  0
 26 30  1  0
 25 31  1  0
 24 32  1  0
 22 33  1  0
 22 34  1  0
  5 35  1  0
  5 36  1  0
  4 37  1  0
 37 38  2  0
 37 39  1  0
  3 40  1  0
  1 41  1  0
  1 42  1  0
  1 43  1  0
 38  2  1  0
 21  6  1  0
 28 23  1  0
 15  9  1  0
M  END
>  <cnnaffinity>  (1) 
-6.49286

>  <filename>  (1) 
Cn1cc(Cc2nc(-c3ccc(Cl)cc3)nn2Cc2cccnc2)cn1

$$$$
