
     RDKit          3D

 44 47  0  0  0  0  0  0  0  0999 V2000
   12.2820   -1.2353   21.3732 C   0  0  0  0  0  0  0  0  0  0  0  0
   11.8848    0.0625   21.9000 N   0  0  0  0  0  0  0  0  0  0  0  0
   12.4989    0.7198   22.9387 C   0  0  0  0  0  0  0  0  0  0  0  0
   11.7480    1.8212   23.2761 C   0  0  0  0  0  0  0  0  0  0  0  0
   10.6234    1.8177   22.4112 C   0  0  0  0  0  0  0  0  0  0  0  0
   10.7271    0.7253   21.5815 C   0  0  0  0  0  0  0  0  0  0  0  0
    9.6761    0.1892   20.6604 C   0  0  0  0  0  0  0  0  0  0  0  0
    8.6411   -0.6467   21.3408 C   0  0  0  0  0  0  0  0  0  0  0  0
    8.8553   -1.5051   22.3114 N   0  0  0  0  0  0  0  0  0  0  0  0
    7.6246   -2.0153   22.5473 C   0  0  0  0  0  0  0  0  0  0  0  0
    7.3856   -2.9919   23.6528 C   0  0  0  0  0  0  0  0  0  0  0  0
    6.3839   -2.4843   24.7194 C   0  0  0  0  0  0  0  0  0  0  0  0
    5.7674   -3.7507   25.3485 C   0  0  0  0  0  0  0  0  0  0  0  0
    6.0343   -4.9208   24.3606 C   0  0  0  0  0  0  0  0  0  0  0  0
    6.7850   -4.3251   23.1533 C   0  0  0  0  0  0  0  0  0  0  0  0
    7.5660   -4.9865   22.7533 H   0  0  0  0  0  0  0  0  0  0  0  0
    6.0919   -4.1182   22.3254 H   0  0  0  0  0  0  0  0  0  0  0  0
    6.6343   -5.6993   24.8483 H   0  0  0  0  0  0  0  0  0  0  0  0
    5.1061   -5.4068   24.0362 H   0  0  0  0  0  0  0  0  0  0  0  0
    6.2180   -3.9661   26.3257 H   0  0  0  0  0  0  0  0  0  0  0  0
    4.6960   -3.6060   25.5328 H   0  0  0  0  0  0  0  0  0  0  0  0
    6.8687   -1.8242   25.4522 H   0  0  0  0  0  0  0  0  0  0  0  0
    5.6088   -1.8828   24.2319 H   0  0  0  0  0  0  0  0  0  0  0  0
    8.3732   -3.1536   24.1090 H   0  0  0  0  0  0  0  0  0  0  0  0
    6.6730   -1.5643   21.7467 N   0  0  0  0  0  0  0  0  0  0  0  0
    7.3364   -0.6927   20.9472 N   0  0  0  0  0  0  0  0  0  0  0  0
    6.6521   -0.0158   19.9016 C   0  0  0  0  0  0  0  0  0  0  0  0
    5.4366    0.6284   20.1595 C   0  0  0  0  0  0  0  0  0  0  0  0
    4.8051    1.3043   19.1103 C   0  0  0  0  0  0  0  0  0  0  0  0
    5.3979    1.2913   17.8410 C   0  0  0  0  0  0  0  0  0  0  0  0
    6.5490    0.6555   17.5801 N   0  0  0  0  0  0  0  0  0  0  0  0
    7.1580    0.0265   18.5895 C   0  0  0  0  0  0  0  0  0  0  0  0
    8.1058   -0.4512   18.3473 H   0  0  0  0  0  0  0  0  0  0  0  0
    4.9372    1.8090   17.0018 H   0  0  0  0  0  0  0  0  0  0  0  0
    3.8746    1.8463   19.2584 H   0  0  0  0  0  0  0  0  0  0  0  0
    5.0154    0.5984   21.1624 H   0  0  0  0  0  0  0  0  0  0  0  0
    9.1740    1.0318   20.1877 H   0  0  0  0  0  0  0  0  0  0  0  0
   10.0767   -0.4533   19.8672 H   0  0  0  0  0  0  0  0  0  0  0  0
    9.7892    2.5082   22.4180 H   0  0  0  0  0  0  0  0  0  0  0  0
   11.9575    2.5402   24.0615 H   0  0  0  0  0  0  0  0  0  0  0  0
   13.4209    0.3386   23.3508 H   0  0  0  0  0  0  0  0  0  0  0  0
   11.4597   -1.9483   21.5130 H   0  0  0  0  0  0  0  0  0  0  0  0
   13.1595   -1.5835   21.9239 H   0  0  0  0  0  0  0  0  0  0  0  0
   12.5509   -1.1694   20.3110 H   0  0  0  0  0  0  0  0  0  0  0  0
  1  2  1  0
  2  3  1  0
  3  4  2  0
  4  5  1  0
  5  6  2  0
  6  7  1  0
  7  8  1  0
  8  9  2  0
  9 10  1  0
 10 11  1  0
 11 12  1  0
 12 13  1  0
 13 14  1  0
 14 15  1  0
 15 16  1  0
 15 17  1  0
 14 18  1  0
 14 19  1  0
 13 20  1  0
 13 21  1  0
 12 22  1  0
 12 23  1  0
 11 24  1  0
 10 25  2  0
 25 26  1  0
 26 27  1  0
 27 28  2  0
 28 29  1  0
 29 30  2  0
 30 31  1  0
 31 32  2  0
 32 33  1  0
 30 34  1  0
 29 35  1  0
 28 36  1  0
  7 37  1  0
  7 38  1  0
  5 39  1  0
  4 40  1  0
  3 41  1  0
  1 42  1  0
  1 43  1  0
  1 44  1  0
  6  2  1  0
 26  8  1  0
 32 27  1  0
 15 11  1  0
M  END
>  <cnnaffinity>  (1) 
-6.41686

>  <filename>  (1) 
Cn1cccc1Cc1nc(C2CCCC2)nn1-c1cccnc1

$$$$
