
     RDKit          3D

 49 52  0  0  0  0  0  0  0  0999 V2000
    6.8579    1.7545   23.7696 C   0  0  0  0  0  0  0  0  0  0  0  0
    8.2828    1.7840   24.0536 N   0  0  0  0  0  0  0  0  0  0  0  0
    8.9010    1.6418   25.2736 C   0  0  0  0  0  0  0  0  0  0  0  0
   10.2082    1.6724   25.1753 N   0  0  0  0  0  0  0  0  0  0  0  0
   10.4518    1.8244   23.8366 C   0  0  0  0  0  0  0  0  0  0  0  0
    9.2880    1.9153   23.1162 C   0  0  0  0  0  0  0  0  0  0  0  0
    9.1240    1.9724   21.6291 C   0  0  0  0  0  0  0  0  0  0  0  0
    9.5113    0.6261   20.9635 C   0  0  0  0  0  0  0  0  0  0  0  0
    8.6288   -0.4870   21.4193 C   0  0  0  0  0  0  0  0  0  0  0  0
    8.8495   -1.3082   22.4295 N   0  0  0  0  0  0  0  0  0  0  0  0
    7.6575   -1.9378   22.5807 C   0  0  0  0  0  0  0  0  0  0  0  0
    7.3955   -2.8590   23.7427 C   0  0  0  0  0  0  0  0  0  0  0  0
    6.7572   -2.0450   24.9185 C   0  0  0  0  0  0  0  0  0  0  0  0
    5.9661   -2.9555   25.8627 C   0  0  0  0  0  0  0  0  0  0  0  0
    4.8186   -3.6609   25.1227 C   0  0  0  0  0  0  0  0  0  0  0  0
    4.5726   -4.8639   25.7376 F   0  0  0  0  0  0  0  0  0  0  0  0
    3.6647   -2.9349   25.2676 F   0  0  0  0  0  0  0  0  0  0  0  0
    5.0650   -3.9064   23.6288 C   0  0  0  0  0  0  0  0  0  0  0  0
    6.5572   -4.1083   23.3342 C   0  0  0  0  0  0  0  0  0  0  0  0
    6.9157   -4.9879   23.8835 H   0  0  0  0  0  0  0  0  0  0  0  0
    6.7011   -4.3326   22.2727 H   0  0  0  0  0  0  0  0  0  0  0  0
    4.7052   -3.0384   23.0717 H   0  0  0  0  0  0  0  0  0  0  0  0
    4.4626   -4.7611   23.3091 H   0  0  0  0  0  0  0  0  0  0  0  0
    5.5537   -2.4079   26.7151 H   0  0  0  0  0  0  0  0  0  0  0  0
    6.6203   -3.7325   26.2721 H   0  0  0  0  0  0  0  0  0  0  0  0
    6.0731   -1.2792   24.5211 H   0  0  0  0  0  0  0  0  0  0  0  0
    7.5401   -1.5032   25.4594 H   0  0  0  0  0  0  0  0  0  0  0  0
    8.3827   -3.1981   24.0638 H   0  0  0  0  0  0  0  0  0  0  0  0
    6.7276   -1.5836   21.7126 N   0  0  0  0  0  0  0  0  0  0  0  0
    7.3622   -0.6639   20.9402 N   0  0  0  0  0  0  0  0  0  0  0  0
    6.6550    0.0034   19.9006 C   0  0  0  0  0  0  0  0  0  0  0  0
    5.4384    0.6416   20.1646 C   0  0  0  0  0  0  0  0  0  0  0  0
    4.8119    1.3106   19.1084 C   0  0  0  0  0  0  0  0  0  0  0  0
    5.3992    1.2971   17.8368 C   0  0  0  0  0  0  0  0  0  0  0  0
    6.5559    0.6703   17.5746 N   0  0  0  0  0  0  0  0  0  0  0  0
    7.1636    0.0473   18.5895 C   0  0  0  0  0  0  0  0  0  0  0  0
    8.1113   -0.4352   18.3650 H   0  0  0  0  0  0  0  0  0  0  0  0
    4.9203    1.7879   16.9921 H   0  0  0  0  0  0  0  0  0  0  0  0
    3.8798    1.8395   19.2613 H   0  0  0  0  0  0  0  0  0  0  0  0
    5.0071    0.6096   21.1698 H   0  0  0  0  0  0  0  0  0  0  0  0
    9.4793    0.7217   19.8768 H   0  0  0  0  0  0  0  0  0  0  0  0
   10.5346    0.3509   21.2287 H   0  0  0  0  0  0  0  0  0  0  0  0
    8.1016    2.2496   21.3370 H   0  0  0  0  0  0  0  0  0  0  0  0
    9.7770    2.7623   21.2441 H   0  0  0  0  0  0  0  0  0  0  0  0
   11.4607    1.8576   23.4422 H   0  0  0  0  0  0  0  0  0  0  0  0
    8.3315    1.5319   26.1894 H   0  0  0  0  0  0  0  0  0  0  0  0
    6.5789    0.9054   23.1331 H   0  0  0  0  0  0  0  0  0  0  0  0
    6.5413    2.6805   23.2783 H   0  0  0  0  0  0  0  0  0  0  0  0
    6.3188    1.6780   24.7129 H   0  0  0  0  0  0  0  0  0  0  0  0
  1  2  1  0
  2  3  1  0
  3  4  2  0
  4  5  1  0
  5  6  2  0
  6  7  1  0
  7  8  1  0
  8  9  1  0
  9 10  2  0
 10 11  1  0
 11 12  1  0
 12 13  1  0
 13 14  1  0
 14 15  1  0
 15 16  1  0
 15 17  1  0
 15 18  1  0
 18 19  1  0
 19 20  1  0
 19 21  1  0
 18 22  1  0
 18 23  1  0
 14 24  1  0
 14 25  1  0
 13 26  1  0
 13 27  1  0
 12 28  1  0
 11 29  2  0
 29 30  1  0
 30 31  1  0
 31 32  2  0
 32 33  1  0
 33 34  2  0
 34 35  1  0
 35 36  2  0
 36 37  1  0
 34 38  1  0
 33 39  1  0
 32 40  1  0
  8 41  1  0
  8 42  1  0
  7 43  1  0
  7 44  1  0
  5 45  1  0
  3 46  1  0
  1 47  1  0
  1 48  1  0
  1 49  1  0
  6  2  1  0
 30  9  1  0
 36 31  1  0
 19 12  1  0
M  END
>  <cnnaffinity>  (1) 
-6.1107

>  <filename>  (1) 
Cn1cncc1CCc1nc(C2CCC(F)(F)CC2)nn1-c1cccnc1

$$$$
