
     RDKit          3D

 32 35  0  0  0  0  0  0  0  0999 V2000
    4.9365    1.8194   16.9631 H   0  0  0  0  0  0  0  0  0  0  0  0
    5.4022    1.2997   17.8015 C   0  0  0  0  0  0  0  0  0  0  0  0
    6.5608    0.6713   17.5481 N   0  0  0  0  0  0  0  0  0  0  0  0
    7.1644    0.0356   18.5581 C   0  0  0  0  0  0  0  0  0  0  0  0
    8.1146   -0.4311   18.3107 H   0  0  0  0  0  0  0  0  0  0  0  0
    6.6389   -0.0296   19.8619 C   0  0  0  0  0  0  0  0  0  0  0  0
    7.3576   -0.7037   20.9573 C   0  0  0  0  0  0  0  0  0  0  0  0
    8.4641   -1.4290   20.7226 N   0  0  0  0  0  0  0  0  0  0  0  0
    8.8588   -1.7690   21.9637 N   0  0  0  0  0  0  0  0  0  0  0  0
   10.0098   -2.3214   22.4973 C   0  0  0  0  0  0  0  0  0  0  0  0
   10.7648   -2.7179   21.8444 H   0  0  0  0  0  0  0  0  0  0  0  0
    9.8981   -2.1998   23.8458 C   0  0  0  0  0  0  0  0  0  0  0  0
   10.5975   -2.4754   24.6209 H   0  0  0  0  0  0  0  0  0  0  0  0
    8.6734   -1.5827   24.1475 N   0  0  0  0  0  0  0  0  0  0  0  0
    8.1997   -1.1131   25.3746 C   0  0  0  0  0  0  0  0  0  0  0  0
    7.0219   -0.4859   25.4763 N   0  0  0  0  0  0  0  0  0  0  0  0
    6.9474   -0.1111   26.7542 N   0  0  0  0  0  0  0  0  0  0  0  0
    5.8173    0.6228   27.2752 C   0  0  0  0  0  0  0  0  0  0  0  0
    5.6055    0.2524   28.2838 H   0  0  0  0  0  0  0  0  0  0  0  0
    4.9594    0.4470   26.6246 H   0  0  0  0  0  0  0  0  0  0  0  0
    6.0407    1.6947   27.3322 H   0  0  0  0  0  0  0  0  0  0  0  0
    8.0369   -0.4612   27.4621 C   0  0  0  0  0  0  0  0  0  0  0  0
    8.1185   -0.1260   28.4893 H   0  0  0  0  0  0  0  0  0  0  0  0
    8.8719   -1.1468   26.6174 C   0  0  0  0  0  0  0  0  0  0  0  0
    9.8349   -1.5793   26.8221 H   0  0  0  0  0  0  0  0  0  0  0  0
    8.0613   -1.3039   22.9351 C   0  0  0  0  0  0  0  0  0  0  0  0
    7.0466   -0.5926   22.3318 C   0  0  0  0  0  0  0  0  0  0  0  0
    6.2821   -0.0277   22.8335 H   0  0  0  0  0  0  0  0  0  0  0  0
    5.4301    0.6402   20.1076 C   0  0  0  0  0  0  0  0  0  0  0  0
    4.9928    0.6433   21.1059 H   0  0  0  0  0  0  0  0  0  0  0  0
    4.7990    1.3100   19.0642 C   0  0  0  0  0  0  0  0  0  0  0  0
    3.8683    1.8482   19.2224 H   0  0  0  0  0  0  0  0  0  0  0  0
  1  2  1  0
  2  3  2  0
  3  4  1  0
  4  5  1  0
  4  6  2  0
  6  7  1  0
  7  8  2  0
  8  9  1  0
  9 10  1  0
 10 11  1  0
 10 12  2  0
 12 13  1  0
 12 14  1  0
 14 15  1  0
 15 16  2  0
 16 17  1  0
 17 18  1  0
 18 19  1  0
 18 20  1  0
 18 21  1  0
 17 22  1  0
 22 23  1  0
 22 24  2  0
 24 25  1  0
 14 26  1  0
 26 27  2  0
 27 28  1  0
  6 29  1  0
 29 30  1  0
 29 31  2  0
 31 32  1  0
 31  2  1  0
 27  7  1  0
 26  9  1  0
 24 15  1  0
M  END
>  <cnnaffinity>  (1) 
-5.40976

>  <filename>  (1) 
Cn1ccc(-n2ccn3nc(-c4cccnc4)cc23)n1

$$$$
