
     RDKit          3D

 29 31  0  0  0  0  0  0  0  0999 V2000
    9.2803   -3.3269   21.3073 H   0  0  0  0  0  0  0  0  0  0  0  0
    8.7259   -2.4418   21.5847 C   0  0  0  0  0  0  0  0  0  0  0  0
    8.7576   -2.1045   22.8703 N   0  0  0  0  0  0  0  0  0  0  0  0
    8.0774   -0.9945   23.2250 C   0  0  0  0  0  0  0  0  0  0  0  0
    8.0895   -0.5655   24.6635 C   0  0  0  0  0  0  0  0  0  0  0  0
    7.4399    0.5145   25.1319 N   0  0  0  0  0  0  0  0  0  0  0  0
    7.7101    0.5449   26.4389 N   0  0  0  0  0  0  0  0  0  0  0  0
    7.1094    1.5401   27.3066 C   0  0  0  0  0  0  0  0  0  0  0  0
    6.2036    1.1583   27.7880 H   0  0  0  0  0  0  0  0  0  0  0  0
    7.8230    1.8129   28.0857 H   0  0  0  0  0  0  0  0  0  0  0  0
    6.8594    2.4322   26.7330 H   0  0  0  0  0  0  0  0  0  0  0  0
    8.4918   -0.4875   26.8302 C   0  0  0  0  0  0  0  0  0  0  0  0
    8.7881   -0.6154   27.8659 H   0  0  0  0  0  0  0  0  0  0  0  0
    8.7661   -1.2250   25.7118 C   0  0  0  0  0  0  0  0  0  0  0  0
    9.3632   -2.1213   25.6230 H   0  0  0  0  0  0  0  0  0  0  0  0
    7.3764   -0.2729   22.2673 C   0  0  0  0  0  0  0  0  0  0  0  0
    6.8497    0.6263   22.5477 H   0  0  0  0  0  0  0  0  0  0  0  0
    7.4019   -0.7266   20.9536 C   0  0  0  0  0  0  0  0  0  0  0  0
    6.6591   -0.0101   19.9031 C   0  0  0  0  0  0  0  0  0  0  0  0
    7.1767    0.0481   18.6038 C   0  0  0  0  0  0  0  0  0  0  0  0
    8.1229   -0.4313   18.3719 H   0  0  0  0  0  0  0  0  0  0  0  0
    6.5738    0.6764   17.5916 N   0  0  0  0  0  0  0  0  0  0  0  0
    5.4075    1.2874   17.8477 C   0  0  0  0  0  0  0  0  0  0  0  0
    4.9217    1.7748   17.0042 H   0  0  0  0  0  0  0  0  0  0  0  0
    4.8088    1.3032   19.1125 C   0  0  0  0  0  0  0  0  0  0  0  0
    3.8776    1.8405   19.2632 H   0  0  0  0  0  0  0  0  0  0  0  0
    5.4458    0.6469   20.1619 C   0  0  0  0  0  0  0  0  0  0  0  0
    5.0002    0.6304   21.1609 H   0  0  0  0  0  0  0  0  0  0  0  0
    8.1002   -1.8038   20.5961 N   0  0  0  0  0  0  0  0  0  0  0  0
  1  2  1  0
  2  3  2  0
  3  4  1  0
  4  5  1  0
  5  6  2  0
  6  7  1  0
  7  8  1  0
  8  9  1  0
  8 10  1  0
  8 11  1  0
  7 12  1  0
 12 13  1  0
 12 14  2  0
 14 15  1  0
  4 16  2  0
 16 17  1  0
 16 18  1  0
 18 19  1  0
 19 20  2  0
 20 21  1  0
 20 22  1  0
 22 23  2  0
 23 24  1  0
 23 25  1  0
 25 26  1  0
 25 27  2  0
 27 28  1  0
 18 29  2  0
 29  2  1  0
 14  5  1  0
 27 19  1  0
M  END
>  <cnnaffinity>  (1) 
-4.70831

>  <filename>  (1) 
Cn1ccc(-c2cc(-c3cccnc3)ncn2)n1

$$$$
