
     RDKit          3D

 52 55  0  0  0  0  0  0  0  0999 V2000
    5.6756    4.3943   25.4944 C   0  0  0  0  0  0  0  0  0  0  0  0
    6.5557    3.2700   25.2601 N   0  0  0  0  0  0  0  0  0  0  0  0
    6.1972    1.9712   25.1836 C   0  0  0  0  0  0  0  0  0  0  0  0
    7.3458    1.2579   24.9061 C   0  0  0  0  0  0  0  0  0  0  0  0
    7.4457   -0.1403   24.7376 N   0  0  0  0  0  0  0  0  0  0  0  0
    6.6303   -0.9770   25.4442 N   0  0  0  0  0  0  0  0  0  0  0  0
    6.9761   -2.1742   25.0176 C   0  0  0  0  0  0  0  0  0  0  0  0
    6.2408   -3.4105   25.4778 C   0  0  0  0  0  0  0  0  0  0  0  0
    7.1488   -4.6618   25.5939 C   0  0  0  0  0  0  0  0  0  0  0  0
    7.4985   -5.3182   24.2431 C   0  0  0  0  0  0  0  0  0  0  0  0
    6.2625   -5.5476   23.3911 C   0  0  0  0  0  0  0  0  0  0  0  0
    6.6264   -6.0470   22.1686 F   0  0  0  0  0  0  0  0  0  0  0  0
    5.4857   -6.5222   23.9737 F   0  0  0  0  0  0  0  0  0  0  0  0
    5.4114   -4.3001   23.2111 C   0  0  0  0  0  0  0  0  0  0  0  0
    5.0103   -3.6998   24.5693 C   0  0  0  0  0  0  0  0  0  0  0  0
    4.3442   -4.4019   25.0851 H   0  0  0  0  0  0  0  0  0  0  0  0
    4.4379   -2.7777   24.4265 H   0  0  0  0  0  0  0  0  0  0  0  0
    4.5339   -4.5682   22.6143 H   0  0  0  0  0  0  0  0  0  0  0  0
    6.0059   -3.5862   22.6304 H   0  0  0  0  0  0  0  0  0  0  0  0
    8.0030   -6.2796   24.3890 H   0  0  0  0  0  0  0  0  0  0  0  0
    8.1642   -4.6709   23.6679 H   0  0  0  0  0  0  0  0  0  0  0  0
    6.6296   -5.4027   26.2141 H   0  0  0  0  0  0  0  0  0  0  0  0
    8.0711   -4.4099   26.1275 H   0  0  0  0  0  0  0  0  0  0  0  0
    5.8745   -3.1461   26.4729 H   0  0  0  0  0  0  0  0  0  0  0  0
    7.9619   -2.1797   24.0833 N   0  0  0  0  0  0  0  0  0  0  0  0
    8.2289   -0.8986   23.9110 C   0  0  0  0  0  0  0  0  0  0  0  0
    9.1253   -0.3457   22.8532 C   0  0  0  0  0  0  0  0  0  0  0  0
    8.3373    0.3150   21.7091 C   0  0  0  0  0  0  0  0  0  0  0  0
    7.4071   -0.6775   20.9953 C   0  0  0  0  0  0  0  0  0  0  0  0
    6.6403   -0.0125   19.8868 C   0  0  0  0  0  0  0  0  0  0  0  0
    5.4302    0.6454   20.1413 C   0  0  0  0  0  0  0  0  0  0  0  0
    4.7987    1.3144   19.0920 C   0  0  0  0  0  0  0  0  0  0  0  0
    5.3951    1.3017   17.8255 C   0  0  0  0  0  0  0  0  0  0  0  0
    6.5580    0.6887   17.5594 N   0  0  0  0  0  0  0  0  0  0  0  0
    7.1557    0.0614   18.5822 C   0  0  0  0  0  0  0  0  0  0  0  0
    8.1071   -0.4152   18.3522 H   0  0  0  0  0  0  0  0  0  0  0  0
    4.9167    1.7943   16.9830 H   0  0  0  0  0  0  0  0  0  0  0  0
    3.8702    1.8471   19.2482 H   0  0  0  0  0  0  0  0  0  0  0  0
    5.0060    0.6368   21.1510 H   0  0  0  0  0  0  0  0  0  0  0  0
    6.7088   -1.1161   21.7245 H   0  0  0  0  0  0  0  0  0  0  0  0
    8.0027   -1.5143   20.6045 H   0  0  0  0  0  0  0  0  0  0  0  0
    7.7424    1.1544   22.0895 H   0  0  0  0  0  0  0  0  0  0  0  0
    9.0315    0.7517   20.9819 H   0  0  0  0  0  0  0  0  0  0  0  0
    9.8465    0.3581   23.2823 H   0  0  0  0  0  0  0  0  0  0  0  0
    9.7085   -1.1834   22.4556 H   0  0  0  0  0  0  0  0  0  0  0  0
    8.3567    2.2458   24.8376 C   0  0  0  0  0  0  0  0  0  0  0  0
    7.8603    3.4570   25.0441 N   0  0  0  0  0  0  0  0  0  0  0  0
    9.4119    2.1296   24.6387 H   0  0  0  0  0  0  0  0  0  0  0  0
    5.1792    1.6352   25.3488 H   0  0  0  0  0  0  0  0  0  0  0  0
    4.9427    4.1202   26.2523 H   0  0  0  0  0  0  0  0  0  0  0  0
    5.1426    4.6829   24.5855 H   0  0  0  0  0  0  0  0  0  0  0  0
    6.2544    5.2437   25.8541 H   0  0  0  0  0  0  0  0  0  0  0  0
  1  2  1  0
  2  3  1  0
  3  4  2  0
  4  5  1  0
  5  6  1  0
  6  7  2  0
  7  8  1  0
  8  9  1  0
  9 10  1  0
 10 11  1  0
 11 12  1  0
 11 13  1  0
 11 14  1  0
 14 15  1  0
 15 16  1  0
 15 17  1  0
 14 18  1  0
 14 19  1  0
 10 20  1  0
 10 21  1  0
  9 22  1  0
  9 23  1  0
  8 24  1  0
  7 25  1  0
 25 26  2  0
 26 27  1  0
 27 28  1  0
 28 29  1  0
 29 30  1  0
 30 31  2  0
 31 32  1  0
 32 33  2  0
 33 34  1  0
 34 35  2  0
 35 36  1  0
 33 37  1  0
 32 38  1  0
 31 39  1  0
 29 40  1  0
 29 41  1  0
 28 42  1  0
 28 43  1  0
 27 44  1  0
 27 45  1  0
  4 46  1  0
 46 47  2  0
 46 48  1  0
  3 49  1  0
  1 50  1  0
  1 51  1  0
  1 52  1  0
 47  2  1  0
 26  5  1  0
 35 30  1  0
 15  8  1  0
M  END
>  <cnnaffinity>  (1) 
-6.14477

>  <filename>  (1) 
Cn1cc(-n2nc(C3CCC(F)(F)CC3)nc2CCCc2cccnc2)cn1

$$$$
