
     RDKit          3D

 43 46  0  0  0  0  0  0  0  0999 V2000
   11.2277    2.2741   23.5919 C   0  0  0  0  0  0  0  0  0  0  0  0
    9.7972    2.1912   23.8277 N   0  0  0  0  0  0  0  0  0  0  0  0
    9.1916    2.0348   25.0599 C   0  0  0  0  0  0  0  0  0  0  0  0
    7.8621    1.8650   24.8008 C   0  0  0  0  0  0  0  0  0  0  0  0
    7.6222    1.9228   23.4524 N   0  0  0  0  0  0  0  0  0  0  0  0
    8.8000    2.1042   22.8893 C   0  0  0  0  0  0  0  0  0  0  0  0
    9.0428    2.0154   21.4037 C   0  0  0  0  0  0  0  0  0  0  0  0
    9.5309    0.6066   20.9369 C   0  0  0  0  0  0  0  0  0  0  0  0
    8.6537   -0.5187   21.3863 C   0  0  0  0  0  0  0  0  0  0  0  0
    8.8915   -1.3394   22.3936 N   0  0  0  0  0  0  0  0  0  0  0  0
    7.6872   -1.9356   22.5839 C   0  0  0  0  0  0  0  0  0  0  0  0
    7.4194   -2.8479   23.7312 C   0  0  0  0  0  0  0  0  0  0  0  0
    6.4741   -4.0461   23.4359 C   0  0  0  0  0  0  0  0  0  0  0  0
    5.4481   -3.4771   24.4422 C   0  0  0  0  0  0  0  0  0  0  0  0
    6.3963   -2.3054   24.7822 C   0  0  0  0  0  0  0  0  0  0  0  0
    6.0072   -1.3081   24.5455 H   0  0  0  0  0  0  0  0  0  0  0  0
    6.7629   -2.2829   25.8115 H   0  0  0  0  0  0  0  0  0  0  0  0
    4.5014   -3.1701   23.9885 H   0  0  0  0  0  0  0  0  0  0  0  0
    5.2110   -4.1339   25.2828 H   0  0  0  0  0  0  0  0  0  0  0  0
    6.8881   -5.0231   23.6978 H   0  0  0  0  0  0  0  0  0  0  0  0
    6.1305   -4.0883   22.3972 H   0  0  0  0  0  0  0  0  0  0  0  0
    8.3864   -3.1195   24.1558 H   0  0  0  0  0  0  0  0  0  0  0  0
    6.7469   -1.5772   21.7277 N   0  0  0  0  0  0  0  0  0  0  0  0
    7.3738   -0.6702   20.9390 N   0  0  0  0  0  0  0  0  0  0  0  0
    6.6597    0.0030   19.9030 C   0  0  0  0  0  0  0  0  0  0  0  0
    5.4416    0.6402   20.1700 C   0  0  0  0  0  0  0  0  0  0  0  0
    4.8142    1.3082   19.1115 C   0  0  0  0  0  0  0  0  0  0  0  0
    5.4016    1.2953   17.8387 C   0  0  0  0  0  0  0  0  0  0  0  0
    6.5611    0.6734   17.5771 N   0  0  0  0  0  0  0  0  0  0  0  0
    7.1688    0.0531   18.5940 C   0  0  0  0  0  0  0  0  0  0  0  0
    8.1130   -0.4340   18.3677 H   0  0  0  0  0  0  0  0  0  0  0  0
    4.9195    1.7852   16.9943 H   0  0  0  0  0  0  0  0  0  0  0  0
    3.8812    1.8393   19.2613 H   0  0  0  0  0  0  0  0  0  0  0  0
    5.0201    0.6121   21.1797 H   0  0  0  0  0  0  0  0  0  0  0  0
   10.5251    0.3968   21.3372 H   0  0  0  0  0  0  0  0  0  0  0  0
    9.6032    0.5943   19.8478 H   0  0  0  0  0  0  0  0  0  0  0  0
    9.7722    2.7723   21.0957 H   0  0  0  0  0  0  0  0  0  0  0  0
    8.0970    2.2539   20.9081 H   0  0  0  0  0  0  0  0  0  0  0  0
    7.0553    1.7200   25.5101 H   0  0  0  0  0  0  0  0  0  0  0  0
    9.7484    2.0761   25.9878 H   0  0  0  0  0  0  0  0  0  0  0  0
   11.7079    2.6597   24.4908 H   0  0  0  0  0  0  0  0  0  0  0  0
   11.4474    2.9682   22.7774 H   0  0  0  0  0  0  0  0  0  0  0  0
   11.6825    1.3027   23.3600 H   0  0  0  0  0  0  0  0  0  0  0  0
  1  2  1  0
  2  3  1  0
  3  4  2  0
  4  5  1  0
  5  6  2  0
  6  7  1  0
  7  8  1  0
  8  9  1  0
  9 10  2  0
 10 11  1  0
 11 12  1  0
 12 13  1  0
 13 14  1  0
 14 15  1  0
 15 16  1  0
 15 17  1  0
 14 18  1  0
 14 19  1  0
 13 20  1  0
 13 21  1  0
 12 22  1  0
 11 23  2  0
 23 24  1  0
 24 25  1  0
 25 26  2  0
 26 27  1  0
 27 28  2  0
 28 29  1  0
 29 30  2  0
 30 31  1  0
 28 32  1  0
 27 33  1  0
 26 34  1  0
  8 35  1  0
  8 36  1  0
  7 37  1  0
  7 38  1  0
  4 39  1  0
  3 40  1  0
  1 41  1  0
  1 42  1  0
  1 43  1  0
  6  2  1  0
 24  9  1  0
 30 25  1  0
 15 12  1  0
M  END
>  <cnnaffinity>  (1) 
-6.00844

>  <filename>  (1) 
Cn1ccnc1CCc1nc(C2CCC2)nn1-c1cccnc1

$$$$
