
     RDKit          3D

 43 46  0  0  0  0  0  0  0  0999 V2000
   11.2157   -1.2427   21.7300 C   0  0  0  0  0  0  0  0  0  0  0  0
   11.8081    0.0746   21.8260 N   0  0  0  0  0  0  0  0  0  0  0  0
   13.0358    0.3357   22.3874 C   0  0  0  0  0  0  0  0  0  0  0  0
   13.2130    1.6931   22.4294 C   0  0  0  0  0  0  0  0  0  0  0  0
   12.0565    2.2789   21.8443 C   0  0  0  0  0  0  0  0  0  0  0  0
   11.1985    1.2652   21.5021 C   0  0  0  0  0  0  0  0  0  0  0  0
    9.7708    1.4207   21.0478 C   0  0  0  0  0  0  0  0  0  0  0  0
    8.7671    1.1617   22.1263 C   0  0  0  0  0  0  0  0  0  0  0  0
    8.6898    1.8641   23.2370 N   0  0  0  0  0  0  0  0  0  0  0  0
    7.6446    1.2955   23.8851 C   0  0  0  0  0  0  0  0  0  0  0  0
    7.1847    1.7860   25.1740 C   0  0  0  0  0  0  0  0  0  0  0  0
    6.0650    1.2531   25.8352 C   0  0  0  0  0  0  0  0  0  0  0  0
    5.7644    1.7925   27.0744 C   0  0  0  0  0  0  0  0  0  0  0  0
    4.7189    1.3240   27.7667 F   0  0  0  0  0  0  0  0  0  0  0  0
    6.5553    2.8200   27.6096 C   0  0  0  0  0  0  0  0  0  0  0  0
    7.6128    3.3275   26.9631 N   0  0  0  0  0  0  0  0  0  0  0  0
    7.9212    2.8178   25.7650 C   0  0  0  0  0  0  0  0  0  0  0  0
    8.7846    3.2231   25.2418 H   0  0  0  0  0  0  0  0  0  0  0  0
    6.3121    3.2341   28.5849 H   0  0  0  0  0  0  0  0  0  0  0  0
    5.4761    0.4419   25.4065 H   0  0  0  0  0  0  0  0  0  0  0  0
    7.0750    0.2980   23.2397 N   0  0  0  0  0  0  0  0  0  0  0  0
    7.8056    0.2099   22.1039 N   0  0  0  0  0  0  0  0  0  0  0  0
    7.3763   -0.6968   21.0379 C   0  0  0  0  0  0  0  0  0  0  0  0
    6.6574    0.0019   19.8913 C   0  0  0  0  0  0  0  0  0  0  0  0
    5.4445    0.6634   20.1353 C   0  0  0  0  0  0  0  0  0  0  0  0
    4.8097    1.3158   19.0772 C   0  0  0  0  0  0  0  0  0  0  0  0
    5.4107    1.2952   17.8161 C   0  0  0  0  0  0  0  0  0  0  0  0
    6.5581    0.6544   17.5560 N   0  0  0  0  0  0  0  0  0  0  0  0
    7.1568    0.0272   18.5778 C   0  0  0  0  0  0  0  0  0  0  0  0
    8.0915   -0.4794   18.3257 H   0  0  0  0  0  0  0  0  0  0  0  0
    4.9520    1.8166   16.9786 H   0  0  0  0  0  0  0  0  0  0  0  0
    3.8737    1.8435   19.2120 H   0  0  0  0  0  0  0  0  0  0  0  0
    5.0152    0.6816   21.1409 H   0  0  0  0  0  0  0  0  0  0  0  0
    8.2429   -1.2792   20.6967 H   0  0  0  0  0  0  0  0  0  0  0  0
    6.7047   -1.3990   21.5409 H   0  0  0  0  0  0  0  0  0  0  0  0
    9.5280    0.8056   20.1746 H   0  0  0  0  0  0  0  0  0  0  0  0
    9.6406    2.4762   20.7813 H   0  0  0  0  0  0  0  0  0  0  0  0
   11.8526    3.3296   21.6741 H   0  0  0  0  0  0  0  0  0  0  0  0
   14.0786    2.2101   22.8142 H   0  0  0  0  0  0  0  0  0  0  0  0
   13.6882   -0.4777   22.6804 H   0  0  0  0  0  0  0  0  0  0  0  0
   10.4432   -1.3821   22.4936 H   0  0  0  0  0  0  0  0  0  0  0  0
   10.7735   -1.3725   20.7425 H   0  0  0  0  0  0  0  0  0  0  0  0
   11.9882   -2.0055   21.8569 H   0  0  0  0  0  0  0  0  0  0  0  0
  1  2  1  0
  2  3  1  0
  3  4  2  0
  4  5  1  0
  5  6  2  0
  6  7  1  0
  7  8  1  0
  8  9  2  0
  9 10  1  0
 10 11  1  0
 11 12  2  0
 12 13  1  0
 13 14  1  0
 13 15  2  0
 15 16  1  0
 16 17  2  0
 17 18  1  0
 15 19  1  0
 12 20  1  0
 10 21  2  0
 21 22  1  0
 22 23  1  0
 23 24  1  0
 24 25  2  0
 25 26  1  0
 26 27  2  0
 27 28  1  0
 28 29  2  0
 29 30  1  0
 27 31  1  0
 26 32  1  0
 25 33  1  0
 23 34  1  0
 23 35  1  0
  7 36  1  0
  7 37  1  0
  5 38  1  0
  4 39  1  0
  3 40  1  0
  1 41  1  0
  1 42  1  0
  1 43  1  0
  6  2  1  0
 22  8  1  0
 29 24  1  0
 17 11  1  0
M  END
>  <cnnaffinity>  (1) 
-6.13719

>  <filename>  (1) 
Cn1cccc1Cc1nc(-c2cncc(F)c2)nn1Cc1cccnc1

$$$$
