
     RDKit          3D

 40 43  0  0  0  0  0  0  0  0999 V2000
    4.9602    1.7934   16.8941 H   0  0  0  0  0  0  0  0  0  0  0  0
    5.4119    1.2963   17.7523 C   0  0  0  0  0  0  0  0  0  0  0  0
    6.5606    0.6490   17.5079 N   0  0  0  0  0  0  0  0  0  0  0  0
    7.1514    0.0345   18.5430 C   0  0  0  0  0  0  0  0  0  0  0  0
    8.0584   -0.5271   18.3053 H   0  0  0  0  0  0  0  0  0  0  0  0
    6.6601    0.0433   19.8609 C   0  0  0  0  0  0  0  0  0  0  0  0
    7.4069   -0.6214   21.0138 C   0  0  0  0  0  0  0  0  0  0  0  0
    8.0061   -1.4585   20.6277 H   0  0  0  0  0  0  0  0  0  0  0  0
    6.6849   -1.0350   21.7320 H   0  0  0  0  0  0  0  0  0  0  0  0
    8.3332    0.2670   21.8081 C   0  0  0  0  0  0  0  0  0  0  0  0
    8.5749    1.5340   21.5964 N   0  0  0  0  0  0  0  0  0  0  0  0
    9.4809    1.9200   22.5290 N   0  0  0  0  0  0  0  0  0  0  0  0
    9.8017    0.9462   23.2904 N   0  0  0  0  0  0  0  0  0  0  0  0
    9.0909   -0.1267   22.8859 N   0  0  0  0  0  0  0  0  0  0  0  0
    9.3298   -1.3588   23.5040 N   0  0  0  0  0  0  0  0  0  0  0  0
    8.8835   -2.6214   22.9225 C   0  0  0  0  0  0  0  0  0  0  0  0
    7.7846   -2.6488   22.8187 H   0  0  0  0  0  0  0  0  0  0  0  0
    9.3266   -2.7970   21.9267 H   0  0  0  0  0  0  0  0  0  0  0  0
    9.3439   -3.6507   23.9658 C   0  0  0  0  0  0  0  0  0  0  0  0
    8.7686   -4.5802   23.9203 H   0  0  0  0  0  0  0  0  0  0  0  0
   10.3911   -3.9101   23.7861 H   0  0  0  0  0  0  0  0  0  0  0  0
    9.2229   -2.9359   25.3126 C   0  0  2  0  0  0  0  0  0  0  0  0
    9.9856   -3.2932   26.0104 H   0  0  0  0  0  0  0  0  0  0  0  0
    7.8716   -3.0165   26.0505 C   0  0  0  0  0  0  0  0  0  0  0  0
    7.0211   -3.1967   25.3589 H   0  0  0  0  0  0  0  0  0  0  0  0
    7.8536   -3.8367   26.7854 H   0  0  0  0  0  0  0  0  0  0  0  0
    7.7903   -1.7183   26.7248 N   0  0  0  0  0  0  0  0  0  0  0  0
    6.4921   -1.3767   27.2779 C   0  0  0  0  0  0  0  0  0  0  0  0
    6.1543   -2.1369   27.9902 H   0  0  0  0  0  0  0  0  0  0  0  0
    5.6996   -1.2530   26.5125 H   0  0  0  0  0  0  0  0  0  0  0  0
    6.5653   -0.4336   27.8319 H   0  0  0  0  0  0  0  0  0  0  0  0
    8.2968   -0.7176   25.7731 C   0  0  0  0  0  0  0  0  0  0  0  0
    8.6788    0.1674   26.3052 H   0  0  0  0  0  0  0  0  0  0  0  0
    7.5257   -0.3696   25.0664 H   0  0  0  0  0  0  0  0  0  0  0  0
    9.4114   -1.4306   24.9851 C   0  0  2  0  0  0  0  0  0  0  0  0
   10.3921   -1.0570   25.2970 H   0  0  0  0  0  0  0  0  0  0  0  0
    5.4416    0.7016   20.0753 C   0  0  0  0  0  0  0  0  0  0  0  0
    5.0024    0.7016   21.0741 H   0  0  0  0  0  0  0  0  0  0  0  0
    4.8002    1.3438   19.0071 C   0  0  0  0  0  0  0  0  0  0  0  0
    3.8620    1.8774   19.1348 H   0  0  0  0  0  0  0  0  0  0  0  0
  1  2  1  0
  2  3  2  0
  3  4  1  0
  4  5  1  0
  4  6  2  0
  6  7  1  0
  7  8  1  0
  7  9  1  0
  7 10  1  0
 10 11  2  0
 11 12  1  0
 12 13  2  0
 13 14  1  0
 14 15  1  0
 15 16  1  0
 16 17  1  0
 16 18  1  0
 16 19  1  0
 19 20  1  0
 19 21  1  0
 19 22  1  0
 22 23  1  1
 22 24  1  0
 24 25  1  0
 24 26  1  0
 24 27  1  0
 27 28  1  0
 28 29  1  0
 28 30  1  0
 28 31  1  0
 27 32  1  0
 32 33  1  0
 32 34  1  0
 32 35  1  0
 35 36  1  1
  6 37  1  0
 37 38  1  0
 37 39  2  0
 39 40  1  0
 39  2  1  0
 14 10  1  0
 35 15  1  0
 35 22  1  0
M  END
>  <cnnaffinity>  (1) 
-5.16551

>  <filename>  (1) 
CN1C[C@H]2CCN(n3nnnc3Cc3cccnc3)[C@H]2C1

$$$$
