
     RDKit          3D

 39 41  0  0  0  0  0  0  0  0999 V2000
    4.9400    1.8098   16.9602 H   0  0  0  0  0  0  0  0  0  0  0  0
    5.3916    1.3009   17.8088 C   0  0  0  0  0  0  0  0  0  0  0  0
    6.5523    0.6702   17.5585 N   0  0  0  0  0  0  0  0  0  0  0  0
    7.1503    0.0694   18.5982 C   0  0  0  0  0  0  0  0  0  0  0  0
    8.0959   -0.4303   18.3712 H   0  0  0  0  0  0  0  0  0  0  0  0
    6.6410    0.0589   19.9137 C   0  0  0  0  0  0  0  0  0  0  0  0
    7.3173   -0.6992   21.0217 C   0  0  0  0  0  0  0  0  0  0  0  0
    7.7482   -0.1340   22.2487 C   0  0  0  0  0  0  0  0  0  0  0  0
    7.6485    1.3927   22.4585 C   0  0  0  0  0  0  0  0  0  0  0  0
    8.0034    2.1649   21.5780 O   0  0  0  0  0  0  0  0  0  0  0  0
    7.1365    1.8587   23.6580 N   0  0  0  0  0  0  0  0  0  0  0  0
    7.6928    3.1168   24.1948 C   0  0  0  0  0  0  0  0  0  0  0  0
    8.5604    2.8979   24.8409 H   0  0  0  0  0  0  0  0  0  0  0  0
    8.0435    3.7188   23.3534 H   0  0  0  0  0  0  0  0  0  0  0  0
    6.6358    3.8880   25.0057 C   0  0  0  0  0  0  0  0  0  0  0  0
    7.0881    4.7824   25.4558 H   0  0  0  0  0  0  0  0  0  0  0  0
    5.8552    4.2358   24.3174 H   0  0  0  0  0  0  0  0  0  0  0  0
    5.9729    3.0907   26.0482 N   0  0  0  0  0  0  0  0  0  0  0  0
    6.8062    2.8080   27.2092 C   0  0  0  0  0  0  0  0  0  0  0  0
    7.1374    3.7511   27.6549 H   0  0  0  0  0  0  0  0  0  0  0  0
    6.2020    2.2891   27.9600 H   0  0  0  0  0  0  0  0  0  0  0  0
    7.7047    2.1914   27.0196 H   0  0  0  0  0  0  0  0  0  0  0  0
    5.3991    1.8884   25.4288 C   0  0  0  0  0  0  0  0  0  0  0  0
    4.6277    2.2255   24.7253 H   0  0  0  0  0  0  0  0  0  0  0  0
    4.8958    1.2825   26.1943 H   0  0  0  0  0  0  0  0  0  0  0  0
    6.4193    1.0292   24.6490 C   0  0  0  0  0  0  0  0  0  0  0  0
    5.8997    0.2159   24.1330 H   0  0  0  0  0  0  0  0  0  0  0  0
    7.1365    0.5694   25.3469 H   0  0  0  0  0  0  0  0  0  0  0  0
    8.3338   -0.8656   23.2330 N   0  0  0  0  0  0  0  0  0  0  0  0
    8.5631   -2.1599   23.0106 C   0  0  0  0  0  0  0  0  0  0  0  0
    9.0647   -2.7082   23.8015 H   0  0  0  0  0  0  0  0  0  0  0  0
    8.1702   -2.8095   21.8407 C   0  0  0  0  0  0  0  0  0  0  0  0
    8.4209   -3.8493   21.6963 H   0  0  0  0  0  0  0  0  0  0  0  0
    7.4993   -2.0785   20.8636 C   0  0  0  0  0  0  0  0  0  0  0  0
    7.0671   -2.5663   19.9974 H   0  0  0  0  0  0  0  0  0  0  0  0
    5.4151    0.7029   20.1333 C   0  0  0  0  0  0  0  0  0  0  0  0
    4.9655    0.6862   21.1267 H   0  0  0  0  0  0  0  0  0  0  0  0
    4.7765    1.3339   19.0617 C   0  0  0  0  0  0  0  0  0  0  0  0
    3.8328    1.8564   19.1898 H   0  0  0  0  0  0  0  0  0  0  0  0
  1  2  1  0
  2  3  2  0
  3  4  1  0
  4  5  1  0
  4  6  2  0
  6  7  1  0
  7  8  1  0
  8  9  1  0
  9 10  2  0
  9 11  1  0
 11 12  1  0
 12 13  1  0
 12 14  1  0
 12 15  1  0
 15 16  1  0
 15 17  1  0
 15 18  1  0
 18 19  1  0
 19 20  1  0
 19 21  1  0
 19 22  1  0
 18 23  1  0
 23 24  1  0
 23 25  1  0
 23 26  1  0
 26 27  1  0
 26 28  1  0
  8 29  2  0
 29 30  1  0
 30 31  1  0
 30 32  2  0
 32 33  1  0
 32 34  1  0
 34 35  1  0
  6 36  1  0
 36 37  1  0
 36 38  2  0
 38 39  1  0
 38  2  1  0
 34  7  2  0
 26 11  1  0
M  END
>  <cnnaffinity>  (1) 
-4.78445

>  <filename>  (1) 
CN1CCN(C(=O)c2ncccc2-c2cccnc2)CC1

$$$$
