
     RDKit          3D

 36 38  0  0  0  0  0  0  0  0999 V2000
    4.8721    1.7543   17.0078 H   0  0  0  0  0  0  0  0  0  0  0  0
    5.4311    1.2595   17.7950 C   0  0  0  0  0  0  0  0  0  0  0  0
    6.5633    0.6499   17.4042 N   0  0  0  0  0  0  0  0  0  0  0  0
    7.2951    0.0609   18.3390 C   0  0  0  0  0  0  0  0  0  0  0  0
    8.1699   -0.5001   18.0080 H   0  0  0  0  0  0  0  0  0  0  0  0
    6.9598    0.1474   19.6833 C   0  0  0  0  0  0  0  0  0  0  0  0
    8.3986   -0.1124   20.6788 S   0  0  0  0  0  0  0  0  0  0  0  0
    8.9799   -1.3186   20.0435 O   0  0  0  0  0  0  0  0  0  0  0  0
    9.1288    1.1701   20.5587 O   0  0  0  0  0  0  0  0  0  0  0  0
    6.5259   -1.4858   22.4016 O   0  0  0  0  0  0  0  0  0  0  0  0
    6.4787   -1.9736   23.5569 N   0  0  0  0  0  0  0  0  0  0  0  0
    6.5723   -1.1921   24.7735 C   0  0  0  0  0  0  0  0  0  0  0  0
    5.6211   -0.6740   24.9764 H   0  0  0  0  0  0  0  0  0  0  0  0
    7.3458   -0.4221   24.6553 H   0  0  0  0  0  0  0  0  0  0  0  0
    6.9311   -2.2209   25.8760 C   0  0  0  0  0  0  0  0  0  0  0  0
    6.5009   -1.9562   26.8450 H   0  0  0  0  0  0  0  0  0  0  0  0
    8.0204   -2.2509   25.9978 H   0  0  0  0  0  0  0  0  0  0  0  0
    6.4294   -3.5756   25.3452 C   0  0  2  0  0  0  0  0  0  0  0  0
    5.4252   -3.7953   25.7145 H   0  0  0  0  0  0  0  0  0  0  0  0
    7.3826   -4.7643   25.5673 C   0  0  0  0  0  0  0  0  0  0  0  0
    6.9470   -5.5709   26.1735 H   0  0  0  0  0  0  0  0  0  0  0  0
    8.2881   -4.4253   26.1096 H   0  0  0  0  0  0  0  0  0  0  0  0
    7.7109   -5.2724   24.2303 N   0  0  0  0  0  0  0  0  0  0  0  0
    8.9284   -6.0521   24.2008 C   0  0  0  0  0  0  0  0  0  0  0  0
    9.8475   -5.4393   24.2512 H   0  0  0  0  0  0  0  0  0  0  0  0
    8.9471   -6.7181   25.0673 H   0  0  0  0  0  0  0  0  0  0  0  0
    8.9591   -6.6789   23.3051 H   0  0  0  0  0  0  0  0  0  0  0  0
    7.6683   -4.1236   23.3255 C   0  0  0  0  0  0  0  0  0  0  0  0
    7.6141   -4.4098   22.2668 H   0  0  0  0  0  0  0  0  0  0  0  0
    8.5376   -3.4476   23.4483 H   0  0  0  0  0  0  0  0  0  0  0  0
    6.4063   -3.3854   23.8042 C   0  0  2  0  0  0  0  0  0  0  0  0
    5.5190   -3.8423   23.3432 H   0  0  0  0  0  0  0  0  0  0  0  0
    5.7415    0.6783   20.1119 C   0  0  0  0  0  0  0  0  0  0  0  0
    5.4108    0.6525   21.1524 H   0  0  0  0  0  0  0  0  0  0  0  0
    4.9649    1.2600   19.1125 C   0  0  0  0  0  0  0  0  0  0  0  0
    4.0216    1.7383   19.3483 H   0  0  0  0  0  0  0  0  0  0  0  0
  1  2  1  0
  2  3  2  0
  3  4  1  0
  4  5  1  0
  4  6  2  0
  6  7  1  0
  7  8  2  0
  7  9  2  0
  7 10  1  0
 10 11  1  0
 11 12  1  0
 12 13  1  0
 12 14  1  0
 12 15  1  0
 15 16  1  0
 15 17  1  0
 15 18  1  0
 18 19  1  1
 18 20  1  0
 20 21  1  0
 20 22  1  0
 20 23  1  0
 23 24  1  0
 24 25  1  0
 24 26  1  0
 24 27  1  0
 23 28  1  0
 28 29  1  0
 28 30  1  0
 28 31  1  0
 31 32  1  6
  6 33  1  0
 33 34  1  0
 33 35  2  0
 35 36  1  0
 35  2  1  0
 31 11  1  0
 31 18  1  0
M  END
>  <cnnaffinity>  (1) 
-4.98255

>  <filename>  (1) 
CN1C[C@H]2CCN(OS(=O)(=O)c3cccnc3)[C@H]2C1

$$$$
