
     RDKit          3D

 44 48  0  0  0  0  0  0  0  0999 V2000
   12.2529    1.8720   24.3093 C   0  0  0  0  0  0  0  0  0  0  0  0
   11.2159    1.6740   23.3192 N   0  0  0  0  0  0  0  0  0  0  0  0
   11.2648    0.8669   22.2322 C   0  0  0  0  0  0  0  0  0  0  0  0
   10.0386    0.9182   21.6169 C   0  0  0  0  0  0  0  0  0  0  0  0
    9.5138    0.0192   20.5156 C   0  0  0  0  0  0  0  0  0  0  0  0
    8.4127   -0.8801   21.0047 C   0  0  0  0  0  0  0  0  0  0  0  0
    8.6102   -1.6736   22.0313 N   0  0  0  0  0  0  0  0  0  0  0  0
    7.3672   -2.1183   22.3482 C   0  0  0  0  0  0  0  0  0  0  0  0
    7.2447   -2.8675   23.6165 C   0  0  0  0  0  0  0  0  0  0  0  0
    5.9926   -3.5304   24.1680 C   0  0  0  0  0  0  0  0  0  0  0  0
    6.5679   -2.3079   24.8414 C   0  0  0  0  0  0  0  0  0  0  0  0
    6.1731   -0.9404   25.2733 C   0  0  0  0  0  0  0  0  0  0  0  0
    7.1264   -1.7969   26.1178 C   0  0  0  0  0  0  0  0  0  0  0  0
    8.1887   -1.5424   26.1344 H   0  0  0  0  0  0  0  0  0  0  0  0
    6.7595   -2.2062   27.0561 H   0  0  0  0  0  0  0  0  0  0  0  0
    6.5808   -0.1365   24.6541 H   0  0  0  0  0  0  0  0  0  0  0  0
    5.1561   -0.8011   25.6435 H   0  0  0  0  0  0  0  0  0  0  0  0
    5.0533   -3.3991   23.6313 H   0  0  0  0  0  0  0  0  0  0  0  0
    6.1312   -4.4973   24.6587 H   0  0  0  0  0  0  0  0  0  0  0  0
    8.1969   -3.3340   23.8587 H   0  0  0  0  0  0  0  0  0  0  0  0
    6.4199   -1.7351   21.5103 N   0  0  0  0  0  0  0  0  0  0  0  0
    7.0997   -0.9492   20.6195 N   0  0  0  0  0  0  0  0  0  0  0  0
    6.4114   -0.2236   19.6038 C   0  0  0  0  0  0  0  0  0  0  0  0
    5.2503    0.4938   19.9047 C   0  0  0  0  0  0  0  0  0  0  0  0
    4.7131    1.3267   18.9173 C   0  0  0  0  0  0  0  0  0  0  0  0
    5.3242    1.3840   17.6577 C   0  0  0  0  0  0  0  0  0  0  0  0
    6.3889    0.6328   17.3383 N   0  0  0  0  0  0  0  0  0  0  0  0
    6.9108   -0.1538   18.2868 C   0  0  0  0  0  0  0  0  0  0  0  0
    7.7725   -0.7496   17.9836 H   0  0  0  0  0  0  0  0  0  0  0  0
    4.9557    2.0645   16.8908 H   0  0  0  0  0  0  0  0  0  0  0  0
    3.8512    1.9529   19.1203 H   0  0  0  0  0  0  0  0  0  0  0  0
    4.8160    0.4121   20.9044 H   0  0  0  0  0  0  0  0  0  0  0  0
    9.2035    0.6217   19.6605 H   0  0  0  0  0  0  0  0  0  0  0  0
   10.3194   -0.6471   20.1950 H   0  0  0  0  0  0  0  0  0  0  0  0
    9.3053    1.8157   22.4288 C   0  0  0  0  0  0  0  0  0  0  0  0
    7.8604    2.1993   22.2156 C   0  0  0  0  0  0  0  0  0  0  0  0
    6.9901    1.2838   22.6952 F   0  0  0  0  0  0  0  0  0  0  0  0
    7.5936    2.2833   20.8873 F   0  0  0  0  0  0  0  0  0  0  0  0
    7.5528    3.3691   22.7800 F   0  0  0  0  0  0  0  0  0  0  0  0
   10.0239    2.2418   23.4669 N   0  0  0  0  0  0  0  0  0  0  0  0
   12.1497    0.2956   21.9882 H   0  0  0  0  0  0  0  0  0  0  0  0
   13.1873    2.1222   23.8031 H   0  0  0  0  0  0  0  0  0  0  0  0
   11.9449    2.7072   24.9390 H   0  0  0  0  0  0  0  0  0  0  0  0
   12.3831    0.9700   24.9180 H   0  0  0  0  0  0  0  0  0  0  0  0
  1  2  1  0
  2  3  1  0
  3  4  2  0
  4  5  1  0
  5  6  1  0
  6  7  2  0
  7  8  1  0
  8  9  1  0
  9 10  1  0
 10 11  1  0
 11 12  1  0
 12 13  1  0
 13 14  1  0
 13 15  1  0
 12 16  1  0
 12 17  1  0
 10 18  1  0
 10 19  1  0
  9 20  1  0
  8 21  2  0
 21 22  1  0
 22 23  1  0
 23 24  2  0
 24 25  1  0
 25 26  2  0
 26 27  1  0
 27 28  2  0
 28 29  1  0
 26 30  1  0
 25 31  1  0
 24 32  1  0
  5 33  1  0
  5 34  1  0
  4 35  1  0
 35 36  1  0
 36 37  1  0
 36 38  1  0
 36 39  1  0
 35 40  2  0
  3 41  1  0
  1 42  1  0
  1 43  1  0
  1 44  1  0
 40  2  1  0
 22  6  1  0
 28 23  1  0
 11  9  1  0
 13 11  1  0
M  END
>  <cnnaffinity>  (1) 
-6.23799

>  <filename>  (1) 
Cn1cc(Cc2nc(C3CC34CC4)nn2-c2cccnc2)c(C(F)(F)F)n1

$$$$
