
     RDKit          3D

 38 40  0  0  0  0  0  0  0  0999 V2000
    4.9429    1.7837   16.9902 H   0  0  0  0  0  0  0  0  0  0  0  0
    5.4086    1.2854   17.8383 C   0  0  0  0  0  0  0  0  0  0  0  0
    6.5724    0.6621   17.5944 N   0  0  0  0  0  0  0  0  0  0  0  0
    7.1734    0.0504   18.6206 C   0  0  0  0  0  0  0  0  0  0  0  0
    8.1244   -0.4285   18.3753 H   0  0  0  0  0  0  0  0  0  0  0  0
    6.6535    0.0151   19.9268 C   0  0  0  0  0  0  0  0  0  0  0  0
    7.3535   -0.6531   21.0153 C   0  0  0  0  0  0  0  0  0  0  0  0
    6.8471   -0.7208   22.2088 N   0  0  0  0  0  0  0  0  0  0  0  0
    7.7402   -1.4499   23.0021 N   0  0  0  0  0  0  0  0  0  0  0  0
    7.4999   -1.9001   24.3400 C   0  0  0  0  0  0  0  0  0  0  0  0
    8.1214   -2.8350   24.7820 O   0  0  0  0  0  0  0  0  0  0  0  0
    6.5263   -1.2188   25.0533 N   0  0  0  0  0  0  0  0  0  0  0  0
    5.6092   -1.9725   25.9300 C   0  0  0  0  0  0  0  0  0  0  0  0
    6.0919   -2.9199   26.1870 H   0  0  0  0  0  0  0  0  0  0  0  0
    4.6678   -2.1883   25.3993 H   0  0  0  0  0  0  0  0  0  0  0  0
    5.2759   -1.2070   27.2176 C   0  0  0  0  0  0  0  0  0  0  0  0
    4.5064   -1.7632   27.7655 H   0  0  0  0  0  0  0  0  0  0  0  0
    6.1750   -1.1613   27.8656 H   0  0  0  0  0  0  0  0  0  0  0  0
    4.7575    0.1330   26.9244 N   0  0  0  0  0  0  0  0  0  0  0  0
    4.3566    0.8402   28.1363 C   0  0  0  0  0  0  0  0  0  0  0  0
    3.9503    1.8256   27.8777 H   0  0  0  0  0  0  0  0  0  0  0  0
    5.1912    0.9953   28.8510 H   0  0  0  0  0  0  0  0  0  0  0  0
    3.5673    0.2845   28.6574 H   0  0  0  0  0  0  0  0  0  0  0  0
    5.7777    0.8742   26.1767 C   0  0  0  0  0  0  0  0  0  0  0  0
    5.3873    1.8739   25.9525 H   0  0  0  0  0  0  0  0  0  0  0  0
    6.7017    1.0020   26.7794 H   0  0  0  0  0  0  0  0  0  0  0  0
    6.1323    0.1872   24.8466 C   0  0  0  0  0  0  0  0  0  0  0  0
    6.9448    0.7335   24.3620 H   0  0  0  0  0  0  0  0  0  0  0  0
    5.2638    0.2455   24.1805 H   0  0  0  0  0  0  0  0  0  0  0  0
    8.8581   -1.8938   22.3013 C   0  0  0  0  0  0  0  0  0  0  0  0
    9.7581   -2.5773   22.6938 O   0  0  0  0  0  0  0  0  0  0  0  0
    8.6628   -1.3480   20.9022 C   0  0  0  0  0  0  0  0  0  0  0  0
    9.5048   -0.7212   20.5927 H   0  0  0  0  0  0  0  0  0  0  0  0
    8.6511   -2.1958   20.2251 H   0  0  0  0  0  0  0  0  0  0  0  0
    5.4276    0.6590   20.1584 C   0  0  0  0  0  0  0  0  0  0  0  0
    4.9996    0.6412   21.1607 H   0  0  0  0  0  0  0  0  0  0  0  0
    4.8051    1.3091   19.0994 C   0  0  0  0  0  0  0  0  0  0  0  0
    3.8745    1.8419   19.2422 H   0  0  0  0  0  0  0  0  0  0  0  0
  1  2  1  0
  2  3  2  0
  3  4  1  0
  4  5  1  0
  4  6  2  0
  6  7  1  0
  7  8  2  0
  8  9  1  0
  9 10  1  0
 10 11  2  0
 10 12  1  0
 12 13  1  0
 13 14  1  0
 13 15  1  0
 13 16  1  0
 16 17  1  0
 16 18  1  0
 16 19  1  0
 19 20  1  0
 20 21  1  0
 20 22  1  0
 20 23  1  0
 19 24  1  0
 24 25  1  0
 24 26  1  0
 24 27  1  0
 27 28  1  0
 27 29  1  0
  9 30  1  0
 30 31  2  0
 30 32  1  0
 32 33  1  0
 32 34  1  0
  6 35  1  0
 35 36  1  0
 35 37  2  0
 37 38  1  0
 37  2  1  0
 32  7  1  0
 27 12  1  0
M  END
>  <cnnaffinity>  (1) 
-4.7847

>  <filename>  (1) 
CN1CCN(C(=O)N2N=C(c3cccnc3)CC2=O)CC1

$$$$
