
     RDKit          3D

 43 46  0  0  0  0  0  0  0  0999 V2000
    9.5975    1.4231   26.2324 C   0  0  0  0  0  0  0  0  0  0  0  0
    9.0536    1.7545   24.9446 N   0  0  0  0  0  0  0  0  0  0  0  0
    9.7114    1.9509   23.7847 C   0  0  0  0  0  0  0  0  0  0  0  0
    8.7645    2.0790   22.7852 C   0  0  0  0  0  0  0  0  0  0  0  0
    9.0186    2.0171   21.2916 C   0  0  0  0  0  0  0  0  0  0  0  0
    9.5059    0.6039   20.8588 C   0  0  0  0  0  0  0  0  0  0  0  0
    8.6362   -0.5067   21.3490 C   0  0  0  0  0  0  0  0  0  0  0  0
    8.8980   -1.3325   22.3425 N   0  0  0  0  0  0  0  0  0  0  0  0
    7.6889   -1.9155   22.5804 C   0  0  0  0  0  0  0  0  0  0  0  0
    7.4207   -2.8255   23.7342 C   0  0  0  0  0  0  0  0  0  0  0  0
    8.5780   -3.7679   24.1719 C   0  0  0  0  0  0  0  0  0  0  0  0
    8.6459   -3.0605   25.5420 C   0  0  0  0  0  0  0  0  0  0  0  0
    7.4519   -2.1648   25.1538 C   0  0  0  0  0  0  0  0  0  0  0  0
    7.6778   -1.0957   25.1356 H   0  0  0  0  0  0  0  0  0  0  0  0
    6.5478   -2.3182   25.7492 H   0  0  0  0  0  0  0  0  0  0  0  0
    9.5671   -2.4873   25.6847 H   0  0  0  0  0  0  0  0  0  0  0  0
    8.5060   -3.6993   26.4182 H   0  0  0  0  0  0  0  0  0  0  0  0
    9.4805   -3.6566   23.5663 H   0  0  0  0  0  0  0  0  0  0  0  0
    8.3112   -4.8284   24.2149 H   0  0  0  0  0  0  0  0  0  0  0  0
    6.4770   -3.3263   23.5060 H   0  0  0  0  0  0  0  0  0  0  0  0
    6.7270   -1.5489   21.7557 N   0  0  0  0  0  0  0  0  0  0  0  0
    7.3467   -0.6632   20.9310 N   0  0  0  0  0  0  0  0  0  0  0  0
    6.6438   -0.0169   19.8730 C   0  0  0  0  0  0  0  0  0  0  0  0
    5.4241    0.6186   20.1265 C   0  0  0  0  0  0  0  0  0  0  0  0
    4.8069    1.3102   19.0805 C   0  0  0  0  0  0  0  0  0  0  0  0
    5.4079    1.3126   17.8174 C   0  0  0  0  0  0  0  0  0  0  0  0
    6.5532    0.6654   17.5531 N   0  0  0  0  0  0  0  0  0  0  0  0
    7.1515    0.0192   18.5612 C   0  0  0  0  0  0  0  0  0  0  0  0
    8.0870   -0.4871   18.3199 H   0  0  0  0  0  0  0  0  0  0  0  0
    4.9504    1.8426   16.9846 H   0  0  0  0  0  0  0  0  0  0  0  0
    3.8785    1.8476   19.2364 H   0  0  0  0  0  0  0  0  0  0  0  0
    4.9898    0.5637   21.1255 H   0  0  0  0  0  0  0  0  0  0  0  0
    9.5885    0.5446   19.7721 H   0  0  0  0  0  0  0  0  0  0  0  0
   10.4984    0.4196   21.2743 H   0  0  0  0  0  0  0  0  0  0  0  0
    8.1096    2.2793   20.7351 H   0  0  0  0  0  0  0  0  0  0  0  0
    9.7846    2.7442   20.9944 H   0  0  0  0  0  0  0  0  0  0  0  0
    7.5395    1.9741   23.4933 C   0  0  0  0  0  0  0  0  0  0  0  0
    7.7292    1.7502   24.7921 N   0  0  0  0  0  0  0  0  0  0  0  0
    6.5212    2.0656   23.1339 H   0  0  0  0  0  0  0  0  0  0  0  0
   10.7962    1.9806   23.7769 H   0  0  0  0  0  0  0  0  0  0  0  0
    9.5525    0.3417   26.4133 H   0  0  0  0  0  0  0  0  0  0  0  0
    9.0052    1.9430   26.9882 H   0  0  0  0  0  0  0  0  0  0  0  0
   10.6358    1.7494   26.2855 H   0  0  0  0  0  0  0  0  0  0  0  0
  1  2  1  0
  2  3  1  0
  3  4  2  0
  4  5  1  0
  5  6  1  0
  6  7  1  0
  7  8  2  0
  8  9  1  0
  9 10  1  0
 10 11  1  0
 11 12  1  0
 12 13  1  0
 13 14  1  0
 13 15  1  0
 12 16  1  0
 12 17  1  0
 11 18  1  0
 11 19  1  0
 10 20  1  0
  9 21  2  0
 21 22  1  0
 22 23  1  0
 23 24  2  0
 24 25  1  0
 25 26  2  0
 26 27  1  0
 27 28  2  0
 28 29  1  0
 26 30  1  0
 25 31  1  0
 24 32  1  0
  6 33  1  0
  6 34  1  0
  5 35  1  0
  5 36  1  0
  4 37  1  0
 37 38  2  0
 37 39  1  0
  3 40  1  0
  1 41  1  0
  1 42  1  0
  1 43  1  0
 38  2  1  0
 22  7  1  0
 28 23  1  0
 13 10  1  0
M  END
>  <cnnaffinity>  (1) 
-5.94255

>  <filename>  (1) 
Cn1cc(CCc2nc(C3CCC3)nn2-c2cccnc2)cn1

$$$$
