
     RDKit          3D

 30 32  0  0  0  0  0  0  0  0999 V2000
    4.9095    1.8458   16.9082 H   0  0  0  0  0  0  0  0  0  0  0  0
    5.3727    1.3621   17.7651 C   0  0  0  0  0  0  0  0  0  0  0  0
    6.5385    0.7400   17.5347 N   0  0  0  0  0  0  0  0  0  0  0  0
    7.1147    0.1283   18.5722 C   0  0  0  0  0  0  0  0  0  0  0  0
    8.0440   -0.3996   18.3730 H   0  0  0  0  0  0  0  0  0  0  0  0
    6.5878    0.1243   19.8674 C   0  0  0  0  0  0  0  0  0  0  0  0
    7.3365   -0.6029   20.9086 C   0  0  0  0  0  0  0  0  0  0  0  0
    7.9530   -1.6870   20.5337 N   0  0  0  0  0  0  0  0  0  0  0  0
    8.4567   -2.4833   21.5270 C   0  0  0  0  0  0  0  0  0  0  0  0
    8.7017   -3.6621   21.4035 O   0  0  0  0  0  0  0  0  0  0  0  0
    8.6913   -1.8944   22.7820 N   0  0  0  0  0  0  0  0  0  0  0  0
    9.0854   -2.5685   23.4175 H   0  0  0  0  0  0  0  0  0  0  0  0
    8.0412   -0.7568   23.2099 C   0  0  0  0  0  0  0  0  0  0  0  0
    8.0992   -0.3502   24.6376 C   0  0  0  0  0  0  0  0  0  0  0  0
    8.8655   -1.0229   25.5017 N   0  0  0  0  0  0  0  0  0  0  0  0
    8.6930   -0.4120   26.6720 N   0  0  0  0  0  0  0  0  0  0  0  0
    9.2570   -1.0380   27.8418 C   0  0  0  0  0  0  0  0  0  0  0  0
    9.2109   -0.3402   28.6787 H   0  0  0  0  0  0  0  0  0  0  0  0
    8.6743   -1.9410   28.0522 H   0  0  0  0  0  0  0  0  0  0  0  0
   10.2961   -1.2902   27.6332 H   0  0  0  0  0  0  0  0  0  0  0  0
    7.8135    0.6107   26.6091 C   0  0  0  0  0  0  0  0  0  0  0  0
    7.5754    1.2011   27.4878 H   0  0  0  0  0  0  0  0  0  0  0  0
    7.3900    0.6858   25.3050 C   0  0  0  0  0  0  0  0  0  0  0  0
    6.6510    1.3622   24.9014 H   0  0  0  0  0  0  0  0  0  0  0  0
    7.3339   -0.0967   22.2435 C   0  0  0  0  0  0  0  0  0  0  0  0
    6.7615    0.7900   22.4681 H   0  0  0  0  0  0  0  0  0  0  0  0
    5.3630    0.7665   20.0968 C   0  0  0  0  0  0  0  0  0  0  0  0
    4.8971    0.7528   21.0865 H   0  0  0  0  0  0  0  0  0  0  0  0
    4.7426    1.3883   19.0158 C   0  0  0  0  0  0  0  0  0  0  0  0
    3.7905    1.8947   19.1286 H   0  0  0  0  0  0  0  0  0  0  0  0
  1  2  1  0
  2  3  2  0
  3  4  1  0
  4  5  1  0
  4  6  2  0
  6  7  1  0
  7  8  2  0
  8  9  1  0
  9 10  2  0
  9 11  1  0
 11 12  1  0
 11 13  1  0
 13 14  1  0
 14 15  2  0
 15 16  1  0
 16 17  1  0
 17 18  1  0
 17 19  1  0
 17 20  1  0
 16 21  1  0
 21 22  1  0
 21 23  2  0
 23 24  1  0
 13 25  2  0
 25 26  1  0
  6 27  1  0
 27 28  1  0
 27 29  2  0
 29 30  1  0
 29  2  1  0
 25  7  1  0
 23 14  1  0
M  END
>  <cnnaffinity>  (1) 
-5.00819

>  <filename>  (1) 
Cn1ccc(-c2cc(-c3cccnc3)nc(=O)[nH]2)n1

$$$$
