
     RDKit          3D

 46 49  0  0  0  0  0  0  0  0999 V2000
    2.8391    2.6143   26.2167 C   0  0  0  0  0  0  0  0  0  0  0  0
    4.2552    2.5985   25.9218 N   0  0  0  0  0  0  0  0  0  0  0  0
    5.2014    3.4301   26.4564 C   0  0  0  0  0  0  0  0  0  0  0  0
    6.4223    3.0946   25.9278 C   0  0  0  0  0  0  0  0  0  0  0  0
    6.2181    2.0008   25.0473 C   0  0  0  0  0  0  0  0  0  0  0  0
    7.2361    1.2855   24.2322 C   0  0  0  0  0  0  0  0  0  0  0  0
    7.2381    1.6608   22.7302 C   0  0  0  0  0  0  0  0  0  0  0  0
    8.2781    0.8426   22.0525 C   0  0  0  0  0  0  0  0  0  0  0  0
    9.5545    1.0584   22.2860 N   0  0  0  0  0  0  0  0  0  0  0  0
   10.1609   -0.0625   21.8258 C   0  0  0  0  0  0  0  0  0  0  0  0
   11.6073   -0.1807   22.0333 C   0  0  0  0  0  0  0  0  0  0  0  0
   12.4447   -1.1337   21.4238 C   0  0  0  0  0  0  0  0  0  0  0  0
   13.8091   -0.9820   21.6271 C   0  0  0  0  0  0  0  0  0  0  0  0
   14.6505   -1.8146   21.0109 F   0  0  0  0  0  0  0  0  0  0  0  0
   14.2965    0.0552   22.4279 C   0  0  0  0  0  0  0  0  0  0  0  0
   13.4934    0.8789   23.1060 N   0  0  0  0  0  0  0  0  0  0  0  0
   12.1797    0.7686   22.9044 C   0  0  0  0  0  0  0  0  0  0  0  0
   11.5506    1.4550   23.4625 H   0  0  0  0  0  0  0  0  0  0  0  0
   15.3511    0.2575   22.5039 H   0  0  0  0  0  0  0  0  0  0  0  0
   12.1044   -1.9313   20.7718 H   0  0  0  0  0  0  0  0  0  0  0  0
    9.3394   -0.9397   21.2768 N   0  0  0  0  0  0  0  0  0  0  0  0
    8.1203   -0.3500   21.4338 N   0  0  0  0  0  0  0  0  0  0  0  0
    6.8758   -0.9278   20.9186 C   0  0  0  0  0  0  0  0  0  0  0  0
    6.2879   -0.1025   19.7899 C   0  0  0  0  0  0  0  0  0  0  0  0
    5.0945    0.6232   19.8975 C   0  0  0  0  0  0  0  0  0  0  0  0
    4.6735    1.3989   18.8136 C   0  0  0  0  0  0  0  0  0  0  0  0
    5.4658    1.4263   17.6640 C   0  0  0  0  0  0  0  0  0  0  0  0
    6.6109    0.7391   17.5396 N   0  0  0  0  0  0  0  0  0  0  0  0
    7.0071    0.0150   18.5913 C   0  0  0  0  0  0  0  0  0  0  0  0
    7.9600   -0.5009   18.4860 H   0  0  0  0  0  0  0  0  0  0  0  0
    5.1757    2.0294   16.8063 H   0  0  0  0  0  0  0  0  0  0  0  0
    3.7679    1.9948   18.8542 H   0  0  0  0  0  0  0  0  0  0  0  0
    4.5142    0.6115   20.8220 H   0  0  0  0  0  0  0  0  0  0  0  0
    6.1478   -0.9973   21.7373 H   0  0  0  0  0  0  0  0  0  0  0  0
    7.1000   -1.9525   20.6018 H   0  0  0  0  0  0  0  0  0  0  0  0
    6.2522    1.5342   22.2736 H   0  0  0  0  0  0  0  0  0  0  0  0
    7.5211    2.7125   22.6165 H   0  0  0  0  0  0  0  0  0  0  0  0
    7.0928    0.1990   24.3312 H   0  0  0  0  0  0  0  0  0  0  0  0
    8.2462    1.4822   24.6205 H   0  0  0  0  0  0  0  0  0  0  0  0
    4.8766    1.7155   25.0765 C   0  0  0  0  0  0  0  0  0  0  0  0
    4.3192    0.9324   24.5789 H   0  0  0  0  0  0  0  0  0  0  0  0
    7.3713    3.5754   26.1351 H   0  0  0  0  0  0  0  0  0  0  0  0
    4.9254    4.1786   27.1891 H   0  0  0  0  0  0  0  0  0  0  0  0
    2.2809    2.2591   25.3472 H   0  0  0  0  0  0  0  0  0  0  0  0
    2.5170    3.6375   26.4264 H   0  0  0  0  0  0  0  0  0  0  0  0
    2.5939    1.9790   27.0753 H   0  0  0  0  0  0  0  0  0  0  0  0
  1  2  1  0
  2  3  1  0
  3  4  2  0
  4  5  1  0
  5  6  1  0
  6  7  1  0
  7  8  1  0
  8  9  2  0
  9 10  1  0
 10 11  1  0
 11 12  2  0
 12 13  1  0
 13 14  1  0
 13 15  2  0
 15 16  1  0
 16 17  2  0
 17 18  1  0
 15 19  1  0
 12 20  1  0
 10 21  2  0
 21 22  1  0
 22 23  1  0
 23 24  1  0
 24 25  2  0
 25 26  1  0
 26 27  2  0
 27 28  1  0
 28 29  2  0
 29 30  1  0
 27 31  1  0
 26 32  1  0
 25 33  1  0
 23 34  1  0
 23 35  1  0
  7 36  1  0
  7 37  1  0
  6 38  1  0
  6 39  1  0
  5 40  2  0
 40 41  1  0
  4 42  1  0
  3 43  1  0
  1 44  1  0
  1 45  1  0
  1 46  1  0
 40  2  1  0
 22  8  1  0
 29 24  1  0
 17 11  1  0
M  END
>  <cnnaffinity>  (1) 
-6.52848

>  <filename>  (1) 
Cn1ccc(CCc2nc(-c3cncc(F)c3)nn2Cc2cccnc2)c1

$$$$
