
     RDKit          3D

 36 38  0  0  0  0  0  0  0  0999 V2000
    4.9347    1.7959   16.9693 H   0  0  0  0  0  0  0  0  0  0  0  0
    5.3938    1.3070   17.8231 C   0  0  0  0  0  0  0  0  0  0  0  0
    6.5580    0.6872   17.5841 N   0  0  0  0  0  0  0  0  0  0  0  0
    7.1613    0.0980   18.6240 C   0  0  0  0  0  0  0  0  0  0  0  0
    8.1088   -0.3896   18.3999 H   0  0  0  0  0  0  0  0  0  0  0  0
    6.6496    0.0848   19.9442 C   0  0  0  0  0  0  0  0  0  0  0  0
    7.3525   -0.6613   21.0114 C   0  0  0  0  0  0  0  0  0  0  0  0
    7.8313   -1.9462   21.0737 C   0  0  0  0  0  0  0  0  0  0  0  0
    7.8006   -2.7210   20.3441 H   0  0  0  0  0  0  0  0  0  0  0  0
    8.3080   -2.2137   22.3142 N   0  0  0  0  0  0  0  0  0  0  0  0
    8.1494   -1.1817   23.0585 N   0  0  0  0  0  0  0  0  0  0  0  0
    7.5497   -0.2195   22.2984 N   0  0  0  0  0  0  0  0  0  0  0  0
    7.2813    1.0592   22.8678 C   0  0  0  0  0  0  0  0  0  0  0  0
    7.3428    2.0791   22.2169 O   0  0  0  0  0  0  0  0  0  0  0  0
    7.0080    1.0316   24.2214 N   0  0  0  0  0  0  0  0  0  0  0  0
    7.1734    2.2916   24.9490 C   0  0  0  0  0  0  0  0  0  0  0  0
    7.9791    2.8623   24.4774 H   0  0  0  0  0  0  0  0  0  0  0  0
    6.2535    2.8893   24.8821 H   0  0  0  0  0  0  0  0  0  0  0  0
    7.5352    2.0141   26.4077 C   0  0  0  0  0  0  0  0  0  0  0  0
    8.5451    1.5538   26.4407 H   0  0  0  0  0  0  0  0  0  0  0  0
    7.5914    2.9699   26.9481 H   0  0  0  0  0  0  0  0  0  0  0  0
    6.5315    1.1508   27.0422 N   0  0  0  0  0  0  0  0  0  0  0  0
    6.8011    0.9602   28.4570 C   0  0  0  0  0  0  0  0  0  0  0  0
    6.0010    0.3651   28.9123 H   0  0  0  0  0  0  0  0  0  0  0  0
    7.7672    0.4529   28.6542 H   0  0  0  0  0  0  0  0  0  0  0  0
    6.8150    1.9323   28.9619 H   0  0  0  0  0  0  0  0  0  0  0  0
    6.4320   -0.1272   26.3272 C   0  0  0  0  0  0  0  0  0  0  0  0
    7.3809   -0.7016   26.3614 H   0  0  0  0  0  0  0  0  0  0  0  0
    5.6623   -0.7505   26.8050 H   0  0  0  0  0  0  0  0  0  0  0  0
    6.0501    0.0973   24.8613 C   0  0  0  0  0  0  0  0  0  0  0  0
    6.0643   -0.8652   24.3459 H   0  0  0  0  0  0  0  0  0  0  0  0
    5.0308    0.5066   24.7985 H   0  0  0  0  0  0  0  0  0  0  0  0
    5.4112    0.7182   20.1515 C   0  0  0  0  0  0  0  0  0  0  0  0
    4.9371    0.7150   21.1339 H   0  0  0  0  0  0  0  0  0  0  0  0
    4.7762    1.3415   19.0760 C   0  0  0  0  0  0  0  0  0  0  0  0
    3.8265    1.8543   19.1930 H   0  0  0  0  0  0  0  0  0  0  0  0
  1  2  1  0
  2  3  2  0
  3  4  1  0
  4  5  1  0
  4  6  2  0
  6  7  1  0
  7  8  2  0
  8  9  1  0
  8 10  1  0
 10 11  2  0
 11 12  1  0
 12 13  1  0
 13 14  2  0
 13 15  1  0
 15 16  1  0
 16 17  1  0
 16 18  1  0
 16 19  1  0
 19 20  1  0
 19 21  1  0
 19 22  1  0
 22 23  1  0
 23 24  1  0
 23 25  1  0
 23 26  1  0
 22 27  1  0
 27 28  1  0
 27 29  1  0
 27 30  1  0
 30 31  1  0
 30 32  1  0
  6 33  1  0
 33 34  1  0
 33 35  2  0
 35 36  1  0
 35  2  1  0
 12  7  1  0
 30 15  1  0
M  END
>  <cnnaffinity>  (1) 
-4.68878

>  <filename>  (1) 
CN1CCN(C(=O)n2nncc2-c2cccnc2)CC1

$$$$
