
     RDKit          3D

 43 46  0  0  0  0  0  0  0  0999 V2000
    5.1539   -0.7896   26.5571 C   0  0  0  0  0  0  0  0  0  0  0  0
    5.9554    0.2555   25.9629 N   0  0  0  0  0  0  0  0  0  0  0  0
    5.8074    0.7897   24.7226 C   0  0  0  0  0  0  0  0  0  0  0  0
    6.9380    1.5330   24.4643 C   0  0  0  0  0  0  0  0  0  0  0  0
    7.4075    2.0690   23.1217 C   0  0  0  0  0  0  0  0  0  0  0  0
    8.3696    1.1113   22.4678 C   0  0  0  0  0  0  0  0  0  0  0  0
    9.6913    1.1615   22.5183 N   0  0  0  0  0  0  0  0  0  0  0  0
   10.0679   -0.0736   22.0917 C   0  0  0  0  0  0  0  0  0  0  0  0
   11.4578   -0.5491   21.9063 C   0  0  0  0  0  0  0  0  0  0  0  0
   11.6397   -1.6906   21.1045 C   0  0  0  0  0  0  0  0  0  0  0  0
   12.8978   -2.0026   20.6000 C   0  0  0  0  0  0  0  0  0  0  0  0
   13.9783   -1.2299   20.9767 C   0  0  0  0  0  0  0  0  0  0  0  0
   15.0836   -1.3978   20.2442 F   0  0  0  0  0  0  0  0  0  0  0  0
   13.8767   -0.2112   21.9275 C   0  0  0  0  0  0  0  0  0  0  0  0
   12.5948    0.1388   22.3795 C   0  0  0  0  0  0  0  0  0  0  0  0
   12.4781    0.9832   23.0560 H   0  0  0  0  0  0  0  0  0  0  0  0
   14.7579    0.3646   22.1899 H   0  0  0  0  0  0  0  0  0  0  0  0
   13.0953   -2.7818   19.8700 H   0  0  0  0  0  0  0  0  0  0  0  0
   10.7552   -2.2643   20.8290 H   0  0  0  0  0  0  0  0  0  0  0  0
    9.0483   -0.8439   21.7352 N   0  0  0  0  0  0  0  0  0  0  0  0
    7.9632   -0.0890   21.9925 N   0  0  0  0  0  0  0  0  0  0  0  0
    6.6635   -0.5084   21.4690 C   0  0  0  0  0  0  0  0  0  0  0  0
    6.2732    0.1965   20.1853 C   0  0  0  0  0  0  0  0  0  0  0  0
    5.0652    0.8804   20.0149 C   0  0  0  0  0  0  0  0  0  0  0  0
    4.8174    1.5003   18.7843 C   0  0  0  0  0  0  0  0  0  0  0  0
    5.7811    1.4063   17.7782 C   0  0  0  0  0  0  0  0  0  0  0  0
    6.9362    0.7375   17.9136 N   0  0  0  0  0  0  0  0  0  0  0  0
    7.1676    0.1671   19.0998 C   0  0  0  0  0  0  0  0  0  0  0  0
    8.1237   -0.3403   19.2208 H   0  0  0  0  0  0  0  0  0  0  0  0
    5.6337    1.9041   16.8219 H   0  0  0  0  0  0  0  0  0  0  0  0
    3.9088    2.0640   18.5990 H   0  0  0  0  0  0  0  0  0  0  0  0
    4.3356    0.9507   20.8253 H   0  0  0  0  0  0  0  0  0  0  0  0
    6.7519   -1.5880   21.3084 H   0  0  0  0  0  0  0  0  0  0  0  0
    5.9184   -0.3531   22.2486 H   0  0  0  0  0  0  0  0  0  0  0  0
    6.5518    2.2357   22.4594 H   0  0  0  0  0  0  0  0  0  0  0  0
    7.9153    3.0308   23.2196 H   0  0  0  0  0  0  0  0  0  0  0  0
    7.7000    1.4176   25.6607 C   0  0  0  0  0  0  0  0  0  0  0  0
    7.1014    0.6270   26.5406 N   0  0  0  0  0  0  0  0  0  0  0  0
    8.6599    1.8574   25.9201 H   0  0  0  0  0  0  0  0  0  0  0  0
    4.8932    0.6122   24.1605 H   0  0  0  0  0  0  0  0  0  0  0  0
    5.2402   -0.7229   27.6416 H   0  0  0  0  0  0  0  0  0  0  0  0
    5.4988   -1.7798   26.2374 H   0  0  0  0  0  0  0  0  0  0  0  0
    4.1147   -0.6498   26.2541 H   0  0  0  0  0  0  0  0  0  0  0  0
  1  2  1  0
  2  3  1  0
  3  4  2  0
  4  5  1  0
  5  6  1  0
  6  7  2  0
  7  8  1  0
  8  9  1  0
  9 10  2  0
 10 11  1  0
 11 12  2  0
 12 13  1  0
 12 14  1  0
 14 15  2  0
 15 16  1  0
 14 17  1  0
 11 18  1  0
 10 19  1  0
  8 20  2  0
 20 21  1  0
 21 22  1  0
 22 23  1  0
 23 24  2  0
 24 25  1  0
 25 26  2  0
 26 27  1  0
 27 28  2  0
 28 29  1  0
 26 30  1  0
 25 31  1  0
 24 32  1  0
 22 33  1  0
 22 34  1  0
  5 35  1  0
  5 36  1  0
  4 37  1  0
 37 38  2  0
 37 39  1  0
  3 40  1  0
  1 41  1  0
  1 42  1  0
  1 43  1  0
 38  2  1  0
 21  6  1  0
 28 23  1  0
 15  9  1  0
M  END
>  <cnnaffinity>  (1) 
-6.40874

>  <filename>  (1) 
Cn1cc(Cc2nc(-c3ccc(F)cc3)nn2Cc2cccnc2)cn1

$$$$
