
     RDKit          3D

 46 49  0  0  0  0  0  0  0  0999 V2000
   11.2983    2.1652   23.6199 C   0  0  0  0  0  0  0  0  0  0  0  0
    9.8706    2.0952   23.8706 N   0  0  0  0  0  0  0  0  0  0  0  0
    9.2682    1.9171   25.0908 C   0  0  0  0  0  0  0  0  0  0  0  0
    7.9684    1.7726   24.9919 N   0  0  0  0  0  0  0  0  0  0  0  0
    7.7149    1.8444   23.6508 C   0  0  0  0  0  0  0  0  0  0  0  0
    8.8630    2.0488   22.9251 C   0  0  0  0  0  0  0  0  0  0  0  0
    9.0651    2.0107   21.4421 C   0  0  0  0  0  0  0  0  0  0  0  0
    9.5266    0.6157   20.9402 C   0  0  0  0  0  0  0  0  0  0  0  0
    8.6408   -0.4978   21.3965 C   0  0  0  0  0  0  0  0  0  0  0  0
    8.8712   -1.3262   22.3945 N   0  0  0  0  0  0  0  0  0  0  0  0
    7.6717   -1.9476   22.5656 C   0  0  0  0  0  0  0  0  0  0  0  0
    7.4510   -2.9552   23.6631 C   0  0  0  0  0  0  0  0  0  0  0  0
    8.2107   -2.6526   24.9730 C   0  0  0  0  0  0  0  0  0  0  0  0
    7.4321   -3.3766   26.0875 C   0  0  0  0  0  0  0  0  0  0  0  0
    6.0206   -3.6740   25.5257 C   0  0  0  0  0  0  0  0  0  0  0  0
    5.9846   -3.0921   24.1058 C   0  0  0  0  0  0  0  0  0  0  0  0
    5.3964   -3.6951   23.4074 H   0  0  0  0  0  0  0  0  0  0  0  0
    5.5392   -2.0964   24.1266 H   0  0  0  0  0  0  0  0  0  0  0  0
    5.8324   -4.7520   25.5075 H   0  0  0  0  0  0  0  0  0  0  0  0
    5.2306   -3.2379   26.1462 H   0  0  0  0  0  0  0  0  0  0  0  0
    7.3898   -2.7661   26.9953 H   0  0  0  0  0  0  0  0  0  0  0  0
    7.9302   -4.3083   26.3740 H   0  0  0  0  0  0  0  0  0  0  0  0
    8.2167   -1.5727   25.1504 H   0  0  0  0  0  0  0  0  0  0  0  0
    9.2603   -2.9584   24.9241 H   0  0  0  0  0  0  0  0  0  0  0  0
    7.8082   -3.9109   23.2633 H   0  0  0  0  0  0  0  0  0  0  0  0
    6.7390   -1.5881   21.6990 N   0  0  0  0  0  0  0  0  0  0  0  0
    7.3683   -0.6607   20.9338 N   0  0  0  0  0  0  0  0  0  0  0  0
    6.6614    0.0104   19.9006 C   0  0  0  0  0  0  0  0  0  0  0  0
    5.4410    0.6419   20.1649 C   0  0  0  0  0  0  0  0  0  0  0  0
    4.8127    1.3094   19.1089 C   0  0  0  0  0  0  0  0  0  0  0  0
    5.4004    1.2964   17.8370 C   0  0  0  0  0  0  0  0  0  0  0  0
    6.5590    0.6730   17.5747 N   0  0  0  0  0  0  0  0  0  0  0  0
    7.1689    0.0547   18.5912 C   0  0  0  0  0  0  0  0  0  0  0  0
    8.1132   -0.4339   18.3671 H   0  0  0  0  0  0  0  0  0  0  0  0
    4.9205    1.7865   16.9926 H   0  0  0  0  0  0  0  0  0  0  0  0
    3.8804    1.8386   19.2616 H   0  0  0  0  0  0  0  0  0  0  0  0
    5.0135    0.6065   21.1713 H   0  0  0  0  0  0  0  0  0  0  0  0
    9.5839    0.6214   19.8504 H   0  0  0  0  0  0  0  0  0  0  0  0
   10.5248    0.3983   21.3237 H   0  0  0  0  0  0  0  0  0  0  0  0
    8.1103    2.2596   20.9671 H   0  0  0  0  0  0  0  0  0  0  0  0
    9.7806    2.7762   21.1165 H   0  0  0  0  0  0  0  0  0  0  0  0
    6.7233    1.6905   23.2486 H   0  0  0  0  0  0  0  0  0  0  0  0
    9.8358    1.9190   26.0128 H   0  0  0  0  0  0  0  0  0  0  0  0
   11.8019    2.5600   24.5017 H   0  0  0  0  0  0  0  0  0  0  0  0
   11.5084    2.8454   22.7907 H   0  0  0  0  0  0  0  0  0  0  0  0
   11.7395    1.1879   23.3862 H   0  0  0  0  0  0  0  0  0  0  0  0
  1  2  1  0
  2  3  1  0
  3  4  2  0
  4  5  1  0
  5  6  2  0
  6  7  1  0
  7  8  1  0
  8  9  1  0
  9 10  2  0
 10 11  1  0
 11 12  1  0
 12 13  1  0
 13 14  1  0
 14 15  1  0
 15 16  1  0
 16 17  1  0
 16 18  1  0
 15 19  1  0
 15 20  1  0
 14 21  1  0
 14 22  1  0
 13 23  1  0
 13 24  1  0
 12 25  1  0
 11 26  2  0
 26 27  1  0
 27 28  1  0
 28 29  2  0
 29 30  1  0
 30 31  2  0
 31 32  1  0
 32 33  2  0
 33 34  1  0
 31 35  1  0
 30 36  1  0
 29 37  1  0
  8 38  1  0
  8 39  1  0
  7 40  1  0
  7 41  1  0
  5 42  1  0
  3 43  1  0
  1 44  1  0
  1 45  1  0
  1 46  1  0
  6  2  1  0
 27  9  1  0
 33 28  1  0
 16 12  1  0
M  END
>  <cnnaffinity>  (1) 
-6.0023

>  <filename>  (1) 
Cn1cncc1CCc1nc(C2CCCC2)nn1-c1cccnc1

$$$$
