
     RDKit          3D

 39 41  0  0  0  0  0  0  0  0999 V2000
    6.4979   -2.2481   23.2807 H   0  0  0  0  0  0  0  0  0  0  0  0
    6.9321   -1.6772   22.4699 C   0  0  0  0  0  0  0  0  0  0  0  0
    8.2291   -1.5372   22.0849 C   0  0  0  0  0  0  0  0  0  0  0  0
    9.4898   -2.1794   22.4994 C   0  0  0  0  0  0  0  0  0  0  0  0
   10.4341   -2.2849   21.7427 O   0  0  0  0  0  0  0  0  0  0  0  0
    9.5164   -2.7021   23.7840 N   0  0  0  0  0  0  0  0  0  0  0  0
   10.6398   -3.5477   24.2328 C   0  0  0  0  0  0  0  0  0  0  0  0
   11.1859   -3.9117   23.3675 H   0  0  0  0  0  0  0  0  0  0  0  0
   11.3308   -2.9497   24.8298 H   0  0  0  0  0  0  0  0  0  0  0  0
   10.1613   -4.6709   25.1644 C   0  0  0  0  0  0  0  0  0  0  0  0
    9.5200   -5.3835   24.6102 H   0  0  0  0  0  0  0  0  0  0  0  0
   11.0321   -5.2352   25.5369 H   0  0  0  0  0  0  0  0  0  0  0  0
    9.4603   -4.0801   26.3147 N   0  0  0  0  0  0  0  0  0  0  0  0
    9.0370   -5.0696   27.2882 C   0  0  0  0  0  0  0  0  0  0  0  0
    8.5822   -4.5572   28.1428 H   0  0  0  0  0  0  0  0  0  0  0  0
    8.2991   -5.7948   26.8882 H   0  0  0  0  0  0  0  0  0  0  0  0
    9.9050   -5.6227   27.6602 H   0  0  0  0  0  0  0  0  0  0  0  0
    8.3368   -3.2414   25.8757 C   0  0  0  0  0  0  0  0  0  0  0  0
    7.8784   -2.7869   26.7636 H   0  0  0  0  0  0  0  0  0  0  0  0
    7.5575   -3.8369   25.3530 H   0  0  0  0  0  0  0  0  0  0  0  0
    8.8135   -2.1219   24.9397 C   0  0  0  0  0  0  0  0  0  0  0  0
    7.9746   -1.5093   24.6059 H   0  0  0  0  0  0  0  0  0  0  0  0
    9.4958   -1.4494   25.4852 H   0  0  0  0  0  0  0  0  0  0  0  0
    8.3106   -0.6101   20.9517 C   0  0  0  0  0  0  0  0  0  0  0  0
    9.2699   -0.1005   20.4186 O   0  0  0  0  0  0  0  0  0  0  0  0
    6.9699   -0.3507   20.5986 N   0  0  0  0  0  0  0  0  0  0  0  0
    6.5074    0.3280   19.4471 C   0  0  0  0  0  0  0  0  0  0  0  0
    7.1753    0.2919   18.1967 C   0  0  0  0  0  0  0  0  0  0  0  0
    8.1105   -0.2534   18.0952 H   0  0  0  0  0  0  0  0  0  0  0  0
    6.7145    0.8900   17.0910 N   0  0  0  0  0  0  0  0  0  0  0  0
    5.5684    1.5838   17.1784 C   0  0  0  0  0  0  0  0  0  0  0  0
    5.2235    2.0731   16.2712 H   0  0  0  0  0  0  0  0  0  0  0  0
    4.8436    1.7064   18.3648 C   0  0  0  0  0  0  0  0  0  0  0  0
    3.9262    2.2858   18.3926 H   0  0  0  0  0  0  0  0  0  0  0  0
    5.3121    1.0645   19.5107 C   0  0  0  0  0  0  0  0  0  0  0  0
    4.7752    1.1238   20.4533 H   0  0  0  0  0  0  0  0  0  0  0  0
    6.0630   -0.8332   21.6284 C   0  0  0  0  0  0  0  0  0  0  0  0
    5.2134   -1.3797   21.1968 H   0  0  0  0  0  0  0  0  0  0  0  0
    5.6557    0.0062   22.2226 H   0  0  0  0  0  0  0  0  0  0  0  0
  1  2  1  0
  2  3  2  0
  3  4  1  0
  4  5  2  0
  4  6  1  0
  6  7  1  0
  7  8  1  0
  7  9  1  0
  7 10  1  0
 10 11  1  0
 10 12  1  0
 10 13  1  0
 13 14  1  0
 14 15  1  0
 14 16  1  0
 14 17  1  0
 13 18  1  0
 18 19  1  0
 18 20  1  0
 18 21  1  0
 21 22  1  0
 21 23  1  0
  3 24  1  0
 24 25  2  0
 24 26  1  0
 26 27  1  0
 27 28  2  0
 28 29  1  0
 28 30  1  0
 30 31  2  0
 31 32  1  0
 31 33  1  0
 33 34  1  0
 33 35  2  0
 35 36  1  0
 26 37  1  0
 37 38  1  0
 37 39  1  0
 37  2  1  0
 21  6  1  0
 35 27  1  0
M  END
>  <cnnaffinity>  (1) 
-5.07263

>  <filename>  (1) 
CN1CCN(C(=O)C2=CCN(c3cccnc3)C2=O)CC1

$$$$
