
     RDKit          3D

 43 46  0  0  0  0  0  0  0  0999 V2000
   11.6128    2.7655   24.1446 C   0  0  0  0  0  0  0  0  0  0  0  0
   11.5452    1.7182   23.1466 N   0  0  0  0  0  0  0  0  0  0  0  0
   12.4434    0.7327   22.9334 C   0  0  0  0  0  0  0  0  0  0  0  0
   11.9166   -0.0603   21.9315 C   0  0  0  0  0  0  0  0  0  0  0  0
   10.6765    0.5305   21.6227 C   0  0  0  0  0  0  0  0  0  0  0  0
    9.6069    0.1197   20.6700 C   0  0  0  0  0  0  0  0  0  0  0  0
    8.5505   -0.6677   21.3520 C   0  0  0  0  0  0  0  0  0  0  0  0
    8.7438   -1.4765   22.3641 N   0  0  0  0  0  0  0  0  0  0  0  0
    7.5142   -2.0199   22.5692 C   0  0  0  0  0  0  0  0  0  0  0  0
    7.3235   -3.0162   23.6699 C   0  0  0  0  0  0  0  0  0  0  0  0
    7.7212   -2.4456   25.0480 C   0  0  0  0  0  0  0  0  0  0  0  0
    8.0080   -3.6646   25.9366 C   0  0  0  0  0  0  0  0  0  0  0  0
    8.3255   -4.8345   24.9751 C   0  0  0  0  0  0  0  0  0  0  0  0
    8.2372   -4.2581   23.5518 C   0  0  0  0  0  0  0  0  0  0  0  0
    9.2323   -3.9295   23.2277 H   0  0  0  0  0  0  0  0  0  0  0  0
    7.8672   -4.9835   22.8186 H   0  0  0  0  0  0  0  0  0  0  0  0
    9.3135   -5.2683   25.1672 H   0  0  0  0  0  0  0  0  0  0  0  0
    7.5956   -5.6391   25.1135 H   0  0  0  0  0  0  0  0  0  0  0  0
    7.1343   -3.9073   26.5499 H   0  0  0  0  0  0  0  0  0  0  0  0
    8.8347   -3.4612   26.6265 H   0  0  0  0  0  0  0  0  0  0  0  0
    8.6382   -1.8566   24.9237 H   0  0  0  0  0  0  0  0  0  0  0  0
    6.9496   -1.7820   25.4530 H   0  0  0  0  0  0  0  0  0  0  0  0
    6.2698   -3.3156   23.6623 H   0  0  0  0  0  0  0  0  0  0  0  0
    6.5801   -1.6002   21.7420 N   0  0  0  0  0  0  0  0  0  0  0  0
    7.2525   -0.7357   20.9327 N   0  0  0  0  0  0  0  0  0  0  0  0
    6.5922   -0.0410   19.8819 C   0  0  0  0  0  0  0  0  0  0  0  0
    5.3869    0.6275   20.1285 C   0  0  0  0  0  0  0  0  0  0  0  0
    4.7878    1.3207   19.0753 C   0  0  0  0  0  0  0  0  0  0  0  0
    5.4002    1.3111   17.8167 C   0  0  0  0  0  0  0  0  0  0  0  0
    6.5447    0.6574   17.5659 N   0  0  0  0  0  0  0  0  0  0  0  0
    7.1248    0.0041   18.5788 C   0  0  0  0  0  0  0  0  0  0  0  0
    8.0688   -0.4916   18.3512 H   0  0  0  0  0  0  0  0  0  0  0  0
    4.9564    1.8435   16.9796 H   0  0  0  0  0  0  0  0  0  0  0  0
    3.8654    1.8712   19.2212 H   0  0  0  0  0  0  0  0  0  0  0  0
    4.9591    0.6023   21.1307 H   0  0  0  0  0  0  0  0  0  0  0  0
   10.0140   -0.4963   19.8650 H   0  0  0  0  0  0  0  0  0  0  0  0
    9.1707    1.0197   20.2292 H   0  0  0  0  0  0  0  0  0  0  0  0
   10.4654    1.6004   22.3684 N   0  0  0  0  0  0  0  0  0  0  0  0
   12.3597   -0.9218   21.4526 H   0  0  0  0  0  0  0  0  0  0  0  0
   13.3479    0.6927   23.5333 H   0  0  0  0  0  0  0  0  0  0  0  0
   10.8485    3.5033   23.8962 H   0  0  0  0  0  0  0  0  0  0  0  0
   12.5859    3.2500   24.0907 H   0  0  0  0  0  0  0  0  0  0  0  0
   11.4480    2.3461   25.1436 H   0  0  0  0  0  0  0  0  0  0  0  0
  1  2  1  0
  2  3  1  0
  3  4  2  0
  4  5  1  0
  5  6  1  0
  6  7  1  0
  7  8  2  0
  8  9  1  0
  9 10  1  0
 10 11  1  0
 11 12  1  0
 12 13  1  0
 13 14  1  0
 14 15  1  0
 14 16  1  0
 13 17  1  0
 13 18  1  0
 12 19  1  0
 12 20  1  0
 11 21  1  0
 11 22  1  0
 10 23  1  0
  9 24  2  0
 24 25  1  0
 25 26  1  0
 26 27  2  0
 27 28  1  0
 28 29  2  0
 29 30  1  0
 30 31  2  0
 31 32  1  0
 29 33  1  0
 28 34  1  0
 27 35  1  0
  6 36  1  0
  6 37  1  0
  5 38  2  0
  4 39  1  0
  3 40  1  0
  1 41  1  0
  1 42  1  0
  1 43  1  0
 38  2  1  0
 25  7  1  0
 31 26  1  0
 14 10  1  0
M  END
>  <cnnaffinity>  (1) 
-6.23889

>  <filename>  (1) 
Cn1ccc(Cc2nc(C3CCCC3)nn2-c2cccnc2)n1

$$$$
