
     RDKit          3D

 43 46  0  0  0  0  0  0  0  0999 V2000
   11.2075   -1.2942   21.6910 C   0  0  0  0  0  0  0  0  0  0  0  0
   11.7767    0.0395   21.8060 N   0  0  0  0  0  0  0  0  0  0  0  0
   13.0140    0.3626   22.3260 C   0  0  0  0  0  0  0  0  0  0  0  0
   13.0895    1.7259   22.2926 C   0  0  0  0  0  0  0  0  0  0  0  0
   11.9383    2.2459   21.7551 N   0  0  0  0  0  0  0  0  0  0  0  0
   11.1784    1.2208   21.4861 C   0  0  0  0  0  0  0  0  0  0  0  0
    9.7808    1.3623   20.9924 C   0  0  0  0  0  0  0  0  0  0  0  0
    8.8100    1.1082   22.0819 C   0  0  0  0  0  0  0  0  0  0  0  0
    8.7653    1.8355   23.1716 N   0  0  0  0  0  0  0  0  0  0  0  0
    7.6972    1.3357   23.8431 C   0  0  0  0  0  0  0  0  0  0  0  0
    7.2772    1.8606   25.1619 C   0  0  0  0  0  0  0  0  0  0  0  0
    6.1568    1.3055   25.8075 C   0  0  0  0  0  0  0  0  0  0  0  0
    5.7905    1.7919   27.0518 C   0  0  0  0  0  0  0  0  0  0  0  0
    4.7206    1.2565   27.6591 F   0  0  0  0  0  0  0  0  0  0  0  0
    6.4932    2.8127   27.6840 C   0  0  0  0  0  0  0  0  0  0  0  0
    7.6065    3.3675   27.0419 C   0  0  0  0  0  0  0  0  0  0  0  0
    8.0045    2.8981   25.7881 C   0  0  0  0  0  0  0  0  0  0  0  0
    8.8744    3.3216   25.2888 H   0  0  0  0  0  0  0  0  0  0  0  0
    8.1626    4.1717   27.5187 H   0  0  0  0  0  0  0  0  0  0  0  0
    6.1506    3.1431   28.6547 H   0  0  0  0  0  0  0  0  0  0  0  0
    5.5822    0.5022   25.3568 H   0  0  0  0  0  0  0  0  0  0  0  0
    7.0883    0.3386   23.2133 N   0  0  0  0  0  0  0  0  0  0  0  0
    7.8165    0.1963   22.0847 N   0  0  0  0  0  0  0  0  0  0  0  0
    7.3777   -0.7084   21.0283 C   0  0  0  0  0  0  0  0  0  0  0  0
    6.6562   -0.0067   19.8851 C   0  0  0  0  0  0  0  0  0  0  0  0
    5.4448    0.6510   20.1339 C   0  0  0  0  0  0  0  0  0  0  0  0
    4.8000    1.3099   19.0830 C   0  0  0  0  0  0  0  0  0  0  0  0
    5.3922    1.2991   17.8174 C   0  0  0  0  0  0  0  0  0  0  0  0
    6.5508    0.6742   17.5559 N   0  0  0  0  0  0  0  0  0  0  0  0
    7.1581    0.0495   18.5736 C   0  0  0  0  0  0  0  0  0  0  0  0
    8.1029   -0.4354   18.3164 H   0  0  0  0  0  0  0  0  0  0  0  0
    4.9246    1.8141   16.9772 H   0  0  0  0  0  0  0  0  0  0  0  0
    3.8679    1.8461   19.2314 H   0  0  0  0  0  0  0  0  0  0  0  0
    5.0309    0.6467   21.1435 H   0  0  0  0  0  0  0  0  0  0  0  0
    6.7211   -1.4238   21.5358 H   0  0  0  0  0  0  0  0  0  0  0  0
    8.2476   -1.2591   20.6496 H   0  0  0  0  0  0  0  0  0  0  0  0
    9.5650    0.7547   20.1125 H   0  0  0  0  0  0  0  0  0  0  0  0
    9.6684    2.4135   20.7306 H   0  0  0  0  0  0  0  0  0  0  0  0
   13.8933    2.3916   22.5915 H   0  0  0  0  0  0  0  0  0  0  0  0
   13.7217   -0.4021   22.6128 H   0  0  0  0  0  0  0  0  0  0  0  0
   11.9921   -2.0289   21.8959 H   0  0  0  0  0  0  0  0  0  0  0  0
   10.3811   -1.4231   22.3984 H   0  0  0  0  0  0  0  0  0  0  0  0
   10.8291   -1.4478   20.6802 H   0  0  0  0  0  0  0  0  0  0  0  0
  1  2  1  0
  2  3  1  0
  3  4  2  0
  4  5  1  0
  5  6  2  0
  6  7  1  0
  7  8  1  0
  8  9  2  0
  9 10  1  0
 10 11  1  0
 11 12  2  0
 12 13  1  0
 13 14  1  0
 13 15  2  0
 15 16  1  0
 16 17  2  0
 17 18  1  0
 16 19  1  0
 15 20  1  0
 12 21  1  0
 10 22  2  0
 22 23  1  0
 23 24  1  0
 24 25  1  0
 25 26  2  0
 26 27  1  0
 27 28  2  0
 28 29  1  0
 29 30  2  0
 30 31  1  0
 28 32  1  0
 27 33  1  0
 26 34  1  0
 24 35  1  0
 24 36  1  0
  7 37  1  0
  7 38  1  0
  4 39  1  0
  3 40  1  0
  1 41  1  0
  1 42  1  0
  1 43  1  0
  6  2  1  0
 23  8  1  0
 30 25  1  0
 17 11  1  0
M  END
>  <cnnaffinity>  (1) 
-6.05823

>  <filename>  (1) 
Cn1ccnc1Cc1nc(-c2cccc(F)c2)nn1Cc1cccnc1

$$$$
