
     RDKit          3D

 40 43  0  0  0  0  0  0  0  0999 V2000
    6.7919    1.8348   23.6462 C   0  0  0  0  0  0  0  0  0  0  0  0
    8.2062    1.9643   23.9497 N   0  0  0  0  0  0  0  0  0  0  0  0
    8.7854    1.9249   25.2037 C   0  0  0  0  0  0  0  0  0  0  0  0
   10.1301    1.9924   24.9921 C   0  0  0  0  0  0  0  0  0  0  0  0
   10.4042    2.0697   23.6524 N   0  0  0  0  0  0  0  0  0  0  0  0
    9.2353    2.0535   23.0494 C   0  0  0  0  0  0  0  0  0  0  0  0
    9.0918    2.0062   21.5531 C   0  0  0  0  0  0  0  0  0  0  0  0
    9.5075    0.6274   20.9642 C   0  0  0  0  0  0  0  0  0  0  0  0
    8.6209   -0.4851   21.4222 C   0  0  0  0  0  0  0  0  0  0  0  0
    8.8407   -1.2847   22.4451 N   0  0  0  0  0  0  0  0  0  0  0  0
    7.6571   -1.9399   22.5818 C   0  0  0  0  0  0  0  0  0  0  0  0
    7.4526   -2.9860   23.6127 C   0  0  0  0  0  0  0  0  0  0  0  0
    8.4324   -4.1256   23.7125 C   0  0  0  0  0  0  0  0  0  0  0  0
    7.0516   -4.3702   23.1814 C   0  0  0  0  0  0  0  0  0  0  0  0
    6.3417   -4.9172   23.7954 H   0  0  0  0  0  0  0  0  0  0  0  0
    6.9323   -4.5198   22.1116 H   0  0  0  0  0  0  0  0  0  0  0  0
    9.2630   -4.1161   23.0104 H   0  0  0  0  0  0  0  0  0  0  0  0
    8.6883   -4.5083   24.6971 H   0  0  0  0  0  0  0  0  0  0  0  0
    7.0418   -2.6013   24.5422 H   0  0  0  0  0  0  0  0  0  0  0  0
    6.7233   -1.5947   21.7139 N   0  0  0  0  0  0  0  0  0  0  0  0
    7.3565   -0.6736   20.9382 N   0  0  0  0  0  0  0  0  0  0  0  0
    6.6561    0.0028   19.9002 C   0  0  0  0  0  0  0  0  0  0  0  0
    5.4416    0.6455   20.1653 C   0  0  0  0  0  0  0  0  0  0  0  0
    4.8128    1.3120   19.1096 C   0  0  0  0  0  0  0  0  0  0  0  0
    5.3997    1.2967   17.8382 C   0  0  0  0  0  0  0  0  0  0  0  0
    6.5584    0.6721   17.5765 N   0  0  0  0  0  0  0  0  0  0  0  0
    7.1664    0.0488   18.5908 C   0  0  0  0  0  0  0  0  0  0  0  0
    8.1136   -0.4363   18.3679 H   0  0  0  0  0  0  0  0  0  0  0  0
    4.9178    1.7855   16.9941 H   0  0  0  0  0  0  0  0  0  0  0  0
    3.8793    1.8395   19.2616 H   0  0  0  0  0  0  0  0  0  0  0  0
    5.0131    0.6100   21.1712 H   0  0  0  0  0  0  0  0  0  0  0  0
   10.5267    0.3868   21.2793 H   0  0  0  0  0  0  0  0  0  0  0  0
    9.5144    0.6826   19.8728 H   0  0  0  0  0  0  0  0  0  0  0  0
    9.7383    2.7861   21.1429 H   0  0  0  0  0  0  0  0  0  0  0  0
    8.0662    2.2436   21.2483 H   0  0  0  0  0  0  0  0  0  0  0  0
   10.9210    1.9859   25.7308 H   0  0  0  0  0  0  0  0  0  0  0  0
    8.1993    1.8596   26.1102 H   0  0  0  0  0  0  0  0  0  0  0  0
    6.4696    2.6436   22.9845 H   0  0  0  0  0  0  0  0  0  0  0  0
    6.5524    0.8683   23.1844 H   0  0  0  0  0  0  0  0  0  0  0  0
    6.2341    1.9232   24.5783 H   0  0  0  0  0  0  0  0  0  0  0  0
  1  2  1  0
  2  3  1  0
  3  4  2  0
  4  5  1  0
  5  6  2  0
  6  7  1  0
  7  8  1  0
  8  9  1  0
  9 10  2  0
 10 11  1  0
 11 12  1  0
 12 13  1  0
 13 14  1  0
 14 15  1  0
 14 16  1  0
 13 17  1  0
 13 18  1  0
 12 19  1  0
 11 20  2  0
 20 21  1  0
 21 22  1  0
 22 23  2  0
 23 24  1  0
 24 25  2  0
 25 26  1  0
 26 27  2  0
 27 28  1  0
 25 29  1  0
 24 30  1  0
 23 31  1  0
  8 32  1  0
  8 33  1  0
  7 34  1  0
  7 35  1  0
  4 36  1  0
  3 37  1  0
  1 38  1  0
  1 39  1  0
  1 40  1  0
  6  2  1  0
 21  9  1  0
 27 22  1  0
 14 12  1  0
M  END
>  <cnnaffinity>  (1) 
-5.77729

>  <filename>  (1) 
Cn1ccnc1CCc1nc(C2CC2)nn1-c1cccnc1

$$$$
