
     RDKit          3D

 43 46  0  0  0  0  0  0  0  0999 V2000
   11.2082   -1.2919   21.6901 C   0  0  0  0  0  0  0  0  0  0  0  0
   11.7755    0.0427   21.8065 N   0  0  0  0  0  0  0  0  0  0  0  0
   13.0131    0.3663   22.3246 C   0  0  0  0  0  0  0  0  0  0  0  0
   13.0879    1.7298   22.2925 C   0  0  0  0  0  0  0  0  0  0  0  0
   11.9353    2.2493   21.7572 N   0  0  0  0  0  0  0  0  0  0  0  0
   11.1752    1.2239   21.4891 C   0  0  0  0  0  0  0  0  0  0  0  0
    9.7764    1.3645   20.9982 C   0  0  0  0  0  0  0  0  0  0  0  0
    8.8059    1.1107   22.0887 C   0  0  0  0  0  0  0  0  0  0  0  0
    8.7614    1.8354   23.1802 N   0  0  0  0  0  0  0  0  0  0  0  0
    7.6927    1.3345   23.8490 C   0  0  0  0  0  0  0  0  0  0  0  0
    7.2775    1.8577   25.1597 C   0  0  0  0  0  0  0  0  0  0  0  0
    6.1572    1.3021   25.8087 C   0  0  0  0  0  0  0  0  0  0  0  0
    5.7681    1.7711   27.0598 C   0  0  0  0  0  0  0  0  0  0  0  0
    6.5013    2.7942   27.6526 C   0  0  0  0  0  0  0  0  0  0  0  0
    6.1234    3.2465   28.8577 F   0  0  0  0  0  0  0  0  0  0  0  0
    7.6116    3.3661   27.0366 C   0  0  0  0  0  0  0  0  0  0  0  0
    8.0052    2.8953   25.7848 C   0  0  0  0  0  0  0  0  0  0  0  0
    8.8776    3.3228   25.2862 H   0  0  0  0  0  0  0  0  0  0  0  0
    8.1325    4.1645   27.5502 H   0  0  0  0  0  0  0  0  0  0  0  0
    4.9146    1.3638   27.5857 H   0  0  0  0  0  0  0  0  0  0  0  0
    5.6091    0.4968   25.3191 H   0  0  0  0  0  0  0  0  0  0  0  0
    7.0833    0.3391   23.2175 N   0  0  0  0  0  0  0  0  0  0  0  0
    7.8125    0.1986   22.0892 N   0  0  0  0  0  0  0  0  0  0  0  0
    7.3785   -0.7060   21.0304 C   0  0  0  0  0  0  0  0  0  0  0  0
    6.6566   -0.0054   19.8871 C   0  0  0  0  0  0  0  0  0  0  0  0
    5.4449    0.6522   20.1346 C   0  0  0  0  0  0  0  0  0  0  0  0
    4.7998    1.3100   19.0834 C   0  0  0  0  0  0  0  0  0  0  0  0
    5.3926    1.2984   17.8179 C   0  0  0  0  0  0  0  0  0  0  0  0
    6.5511    0.6731   17.5575 N   0  0  0  0  0  0  0  0  0  0  0  0
    7.1585    0.0492   18.5757 C   0  0  0  0  0  0  0  0  0  0  0  0
    8.1029   -0.4363   18.3184 H   0  0  0  0  0  0  0  0  0  0  0  0
    4.9252    1.8131   16.9775 H   0  0  0  0  0  0  0  0  0  0  0  0
    3.8673    1.8463   19.2309 H   0  0  0  0  0  0  0  0  0  0  0  0
    5.0298    0.6481   21.1440 H   0  0  0  0  0  0  0  0  0  0  0  0
    8.2499   -1.2528   20.6499 H   0  0  0  0  0  0  0  0  0  0  0  0
    6.7233   -1.4271   21.5313 H   0  0  0  0  0  0  0  0  0  0  0  0
    9.5622    0.7560   20.1183 H   0  0  0  0  0  0  0  0  0  0  0  0
    9.6635    2.4148   20.7329 H   0  0  0  0  0  0  0  0  0  0  0  0
   13.8919    2.3947   22.5920 H   0  0  0  0  0  0  0  0  0  0  0  0
   13.7217   -0.3971   22.6122 H   0  0  0  0  0  0  0  0  0  0  0  0
   10.8299   -1.4450   20.6791 H   0  0  0  0  0  0  0  0  0  0  0  0
   11.9930   -2.0267   21.8944 H   0  0  0  0  0  0  0  0  0  0  0  0
   10.3825   -1.4220   22.3977 H   0  0  0  0  0  0  0  0  0  0  0  0
  1  2  1  0
  2  3  1  0
  3  4  2  0
  4  5  1  0
  5  6  2  0
  6  7  1  0
  7  8  1  0
  8  9  2  0
  9 10  1  0
 10 11  1  0
 11 12  2  0
 12 13  1  0
 13 14  2  0
 14 15  1  0
 14 16  1  0
 16 17  2  0
 17 18  1  0
 16 19  1  0
 13 20  1  0
 12 21  1  0
 10 22  2  0
 22 23  1  0
 23 24  1  0
 24 25  1  0
 25 26  2  0
 26 27  1  0
 27 28  2  0
 28 29  1  0
 29 30  2  0
 30 31  1  0
 28 32  1  0
 27 33  1  0
 26 34  1  0
 24 35  1  0
 24 36  1  0
  7 37  1  0
  7 38  1  0
  4 39  1  0
  3 40  1  0
  1 41  1  0
  1 42  1  0
  1 43  1  0
  6  2  1  0
 23  8  1  0
 30 25  1  0
 17 11  1  0
M  END
>  <cnnaffinity>  (1) 
-5.96108

>  <filename>  (1) 
Cn1ccnc1Cc1nc(-c2ccc(F)cc2)nn1Cc1cccnc1

$$$$
