
     RDKit          3D

 43 46  0  0  0  0  0  0  0  0999 V2000
    5.5756   -1.3911   26.4901 C   0  0  0  0  0  0  0  0  0  0  0  0
    6.1930   -0.2242   25.8888 N   0  0  0  0  0  0  0  0  0  0  0  0
    7.1847    0.5380   26.3983 C   0  0  0  0  0  0  0  0  0  0  0  0
    7.5379    1.4389   25.4195 C   0  0  0  0  0  0  0  0  0  0  0  0
    6.6923    1.1306   24.3332 C   0  0  0  0  0  0  0  0  0  0  0  0
    6.7493    1.6456   22.9265 C   0  0  0  0  0  0  0  0  0  0  0  0
    7.8393    0.9023   22.2376 C   0  0  0  0  0  0  0  0  0  0  0  0
    9.1048    1.1937   22.3901 N   0  0  0  0  0  0  0  0  0  0  0  0
    9.7463    0.0695   21.9569 C   0  0  0  0  0  0  0  0  0  0  0  0
   11.2216   -0.0312   22.1160 C   0  0  0  0  0  0  0  0  0  0  0  0
   11.8361    1.0091   22.8388 C   0  0  0  0  0  0  0  0  0  0  0  0
   13.1984    0.9589   23.0550 C   0  0  0  0  0  0  0  0  0  0  0  0
   13.7630    1.9537   23.7455 F   0  0  0  0  0  0  0  0  0  0  0  0
   13.9908   -0.0735   22.5713 C   0  0  0  0  0  0  0  0  0  0  0  0
   13.3649   -1.0970   21.8669 C   0  0  0  0  0  0  0  0  0  0  0  0
   14.1155   -2.0940   21.3792 F   0  0  0  0  0  0  0  0  0  0  0  0
   11.9941   -1.1075   21.6286 C   0  0  0  0  0  0  0  0  0  0  0  0
   11.5609   -1.9181   21.0518 H   0  0  0  0  0  0  0  0  0  0  0  0
   15.0556   -0.0560   22.7107 H   0  0  0  0  0  0  0  0  0  0  0  0
   11.2496    1.8460   23.2124 H   0  0  0  0  0  0  0  0  0  0  0  0
    8.9338   -0.8672   21.4997 N   0  0  0  0  0  0  0  0  0  0  0  0
    7.7051   -0.3202   21.6883 N   0  0  0  0  0  0  0  0  0  0  0  0
    6.4976   -0.8989   21.1068 C   0  0  0  0  0  0  0  0  0  0  0  0
    6.0271   -0.1230   19.8907 C   0  0  0  0  0  0  0  0  0  0  0  0
    4.8382    0.6143   19.8398 C   0  0  0  0  0  0  0  0  0  0  0  0
    4.5829    1.4026   18.7125 C   0  0  0  0  0  0  0  0  0  0  0  0
    5.5006    1.3879   17.6596 C   0  0  0  0  0  0  0  0  0  0  0  0
    6.6274    0.6599   17.6711 N   0  0  0  0  0  0  0  0  0  0  0  0
    6.8730   -0.0634   18.7689 C   0  0  0  0  0  0  0  0  0  0  0  0
    7.7922   -0.6481   18.7581 H   0  0  0  0  0  0  0  0  0  0  0  0
    5.3196    1.9729   16.7605 H   0  0  0  0  0  0  0  0  0  0  0  0
    3.6992    2.0272   18.6421 H   0  0  0  0  0  0  0  0  0  0  0  0
    4.1118    0.5729   20.6538 H   0  0  0  0  0  0  0  0  0  0  0  0
    5.7351   -0.9205   21.8908 H   0  0  0  0  0  0  0  0  0  0  0  0
    6.7550   -1.9326   20.8625 H   0  0  0  0  0  0  0  0  0  0  0  0
    5.8007    1.4823   22.4173 H   0  0  0  0  0  0  0  0  0  0  0  0
    6.9952    2.7075   22.8946 H   0  0  0  0  0  0  0  0  0  0  0  0
    5.8967    0.1132   24.6247 N   0  0  0  0  0  0  0  0  0  0  0  0
    8.3479    2.1573   25.4280 H   0  0  0  0  0  0  0  0  0  0  0  0
    7.5560    0.3581   27.4007 H   0  0  0  0  0  0  0  0  0  0  0  0
    5.7064   -1.3332   27.5725 H   0  0  0  0  0  0  0  0  0  0  0  0
    4.5093   -1.3940   26.2608 H   0  0  0  0  0  0  0  0  0  0  0  0
    6.0294   -2.3166   26.1185 H   0  0  0  0  0  0  0  0  0  0  0  0
  1  2  1  0
  2  3  1  0
  3  4  2  0
  4  5  1  0
  5  6  1  0
  6  7  1  0
  7  8  2  0
  8  9  1  0
  9 10  1  0
 10 11  2  0
 11 12  1  0
 12 13  1  0
 12 14  2  0
 14 15  1  0
 15 16  1  0
 15 17  2  0
 17 18  1  0
 14 19  1  0
 11 20  1  0
  9 21  2  0
 21 22  1  0
 22 23  1  0
 23 24  1  0
 24 25  2  0
 25 26  1  0
 26 27  2  0
 27 28  1  0
 28 29  2  0
 29 30  1  0
 27 31  1  0
 26 32  1  0
 25 33  1  0
 23 34  1  0
 23 35  1  0
  6 36  1  0
  6 37  1  0
  5 38  2  0
  4 39  1  0
  3 40  1  0
  1 41  1  0
  1 42  1  0
  1 43  1  0
 38  2  1  0
 22  7  1  0
 29 24  1  0
 17 10  1  0
M  END
>  <cnnaffinity>  (1) 
-6.54433

>  <filename>  (1) 
Cn1ccc(Cc2nc(-c3cc(F)cc(F)c3)nn2Cc2cccnc2)n1

$$$$
