
     RDKit          3D

 46 49  0  0  0  0  0  0  0  0999 V2000
    8.5885    1.8383   26.9171 C   0  0  0  0  0  0  0  0  0  0  0  0
    7.7958    1.9372   25.7276 N   0  0  0  0  0  0  0  0  0  0  0  0
    8.2847    2.0457   24.4753 C   0  0  0  0  0  0  0  0  0  0  0  0
    7.2489    1.8463   23.6023 C   0  0  0  0  0  0  0  0  0  0  0  0
    7.4489    1.5140   22.1483 C   0  0  0  0  0  0  0  0  0  0  0  0
    7.4391    0.0284   21.8854 C   0  0  0  0  0  0  0  0  0  0  0  0
    7.9966   -0.9014   22.6440 N   0  0  0  0  0  0  0  0  0  0  0  0
    7.8550   -2.0399   21.9138 C   0  0  0  0  0  0  0  0  0  0  0  0
    8.3731   -3.3721   22.3795 C   0  0  0  0  0  0  0  0  0  0  0  0
    8.2954   -3.5786   23.9017 C   0  0  0  0  0  0  0  0  0  0  0  0
    8.4386   -5.0960   24.1123 C   0  0  0  0  0  0  0  0  0  0  0  0
    8.0376   -5.7588   22.7679 C   0  0  0  0  0  0  0  0  0  0  0  0
    7.6450   -4.6102   21.8185 C   0  0  0  0  0  0  0  0  0  0  0  0
    6.5612   -4.4348   21.8476 H   0  0  0  0  0  0  0  0  0  0  0  0
    7.9043   -4.8148   20.7751 H   0  0  0  0  0  0  0  0  0  0  0  0
    7.2163   -6.4724   22.8878 H   0  0  0  0  0  0  0  0  0  0  0  0
    8.8775   -6.3309   22.3567 H   0  0  0  0  0  0  0  0  0  0  0  0
    7.8171   -5.4308   24.9500 H   0  0  0  0  0  0  0  0  0  0  0  0
    9.4692   -5.3621   24.3748 H   0  0  0  0  0  0  0  0  0  0  0  0
    9.0584   -2.9936   24.4257 H   0  0  0  0  0  0  0  0  0  0  0  0
    7.3130   -3.2337   24.2513 H   0  0  0  0  0  0  0  0  0  0  0  0
    9.4310   -3.3959   22.0797 H   0  0  0  0  0  0  0  0  0  0  0  0
    7.2876   -1.8649   20.7337 N   0  0  0  0  0  0  0  0  0  0  0  0
    6.9938   -0.5414   20.7312 N   0  0  0  0  0  0  0  0  0  0  0  0
    6.4104    0.0446   19.5840 C   0  0  0  0  0  0  0  0  0  0  0  0
    5.2564    0.8342   19.6507 C   0  0  0  0  0  0  0  0  0  0  0  0
    4.7750    1.3855   18.4605 C   0  0  0  0  0  0  0  0  0  0  0  0
    5.4691    1.1456   17.2749 C   0  0  0  0  0  0  0  0  0  0  0  0
    6.5656    0.3733   17.2083 N   0  0  0  0  0  0  0  0  0  0  0  0
    7.0084   -0.1822   18.3357 C   0  0  0  0  0  0  0  0  0  0  0  0
    7.8805   -0.8285   18.2659 H   0  0  0  0  0  0  0  0  0  0  0  0
    5.1434    1.5966   16.3435 H   0  0  0  0  0  0  0  0  0  0  0  0
    3.9042    2.0299   18.4497 H   0  0  0  0  0  0  0  0  0  0  0  0
    4.7558    1.0148   20.6000 H   0  0  0  0  0  0  0  0  0  0  0  0
    8.4439    1.8756   21.8481 H   0  0  0  0  0  0  0  0  0  0  0  0
    6.7323    2.0423   21.5140 H   0  0  0  0  0  0  0  0  0  0  0  0
    6.1285    1.7186   24.4671 C   0  0  0  0  0  0  0  0  0  0  0  0
    4.6954    1.6232   24.0421 C   0  0  0  0  0  0  0  0  0  0  0  0
    4.0412    2.7911   24.1509 F   0  0  0  0  0  0  0  0  0  0  0  0
    3.9850    0.7236   24.7327 F   0  0  0  0  0  0  0  0  0  0  0  0
    4.6530    1.2891   22.7259 F   0  0  0  0  0  0  0  0  0  0  0  0
    6.4833    1.7380   25.7492 N   0  0  0  0  0  0  0  0  0  0  0  0
    9.3254    2.2812   24.2897 H   0  0  0  0  0  0  0  0  0  0  0  0
    8.4867    0.8489   27.3661 H   0  0  0  0  0  0  0  0  0  0  0  0
    8.3018    2.5958   27.6478 H   0  0  0  0  0  0  0  0  0  0  0  0
    9.6227    1.9675   26.6027 H   0  0  0  0  0  0  0  0  0  0  0  0
  1  2  1  0
  2  3  1  0
  3  4  2  0
  4  5  1  0
  5  6  1  0
  6  7  2  0
  7  8  1  0
  8  9  1  0
  9 10  1  0
 10 11  1  0
 11 12  1  0
 12 13  1  0
 13 14  1  0
 13 15  1  0
 12 16  1  0
 12 17  1  0
 11 18  1  0
 11 19  1  0
 10 20  1  0
 10 21  1  0
  9 22  1  0
  8 23  2  0
 23 24  1  0
 24 25  1  0
 25 26  2  0
 26 27  1  0
 27 28  2  0
 28 29  1  0
 29 30  2  0
 30 31  1  0
 28 32  1  0
 27 33  1  0
 26 34  1  0
  5 35  1  0
  5 36  1  0
  4 37  1  0
 37 38  1  0
 38 39  1  0
 38 40  1  0
 38 41  1  0
 37 42  2  0
  3 43  1  0
  1 44  1  0
  1 45  1  0
  1 46  1  0
 42  2  1  0
 24  6  1  0
 30 25  1  0
 13  9  1  0
M  END
>  <cnnaffinity>  (1) 
-5.60298

>  <filename>  (1) 
Cn1cc(Cc2nc(C3CCCC3)nn2-c2cccnc2)c(C(F)(F)F)n1

$$$$
