
     RDKit          3D

 43 46  0  0  0  0  0  0  0  0999 V2000
    5.3584   -0.7317   26.1740 C   0  0  0  0  0  0  0  0  0  0  0  0
    6.4553    0.0111   25.5952 N   0  0  0  0  0  0  0  0  0  0  0  0
    7.6636    0.2616   26.1453 C   0  0  0  0  0  0  0  0  0  0  0  0
    8.3475    1.0425   25.2462 C   0  0  0  0  0  0  0  0  0  0  0  0
    7.4540    1.2197   24.1693 C   0  0  0  0  0  0  0  0  0  0  0  0
    7.7495    1.8501   22.8421 C   0  0  0  0  0  0  0  0  0  0  0  0
    8.7393    0.9640   22.1797 C   0  0  0  0  0  0  0  0  0  0  0  0
   10.0366    1.0250   22.4186 N   0  0  0  0  0  0  0  0  0  0  0  0
   10.4849   -0.1656   21.9613 C   0  0  0  0  0  0  0  0  0  0  0  0
   11.8885   -0.5937   21.9045 C   0  0  0  0  0  0  0  0  0  0  0  0
   12.1178   -1.8071   21.2374 C   0  0  0  0  0  0  0  0  0  0  0  0
   13.3353   -2.0658   20.6448 C   0  0  0  0  0  0  0  0  0  0  0  0
   14.3466   -1.1429   20.8335 C   0  0  0  0  0  0  0  0  0  0  0  0
   15.3468   -1.2203   19.9514 F   0  0  0  0  0  0  0  0  0  0  0  0
   14.2494   -0.0988   21.7707 C   0  0  0  0  0  0  0  0  0  0  0  0
   12.9846    0.1961   22.2928 C   0  0  0  0  0  0  0  0  0  0  0  0
   12.8197    1.0680   22.9273 H   0  0  0  0  0  0  0  0  0  0  0  0
   15.1117    0.5145   22.0022 H   0  0  0  0  0  0  0  0  0  0  0  0
   13.5071   -2.8884   19.9600 H   0  0  0  0  0  0  0  0  0  0  0  0
   11.2692   -2.4667   21.1391 H   0  0  0  0  0  0  0  0  0  0  0  0
    9.5334   -0.9364   21.4443 N   0  0  0  0  0  0  0  0  0  0  0  0
    8.4184   -0.1985   21.5739 N   0  0  0  0  0  0  0  0  0  0  0  0
    7.1385   -0.7242   21.0979 C   0  0  0  0  0  0  0  0  0  0  0  0
    6.5225    0.0439   19.9463 C   0  0  0  0  0  0  0  0  0  0  0  0
    5.2909    0.6968   20.0660 C   0  0  0  0  0  0  0  0  0  0  0  0
    4.7593    1.3574   18.9555 C   0  0  0  0  0  0  0  0  0  0  0  0
    5.4809    1.3388   17.7588 C   0  0  0  0  0  0  0  0  0  0  0  0
    6.6602    0.7132   17.6195 N   0  0  0  0  0  0  0  0  0  0  0  0
    7.1630    0.0954   18.6961 C   0  0  0  0  0  0  0  0  0  0  0  0
    8.1226   -0.3994   18.5515 H   0  0  0  0  0  0  0  0  0  0  0  0
    5.0973    1.8453   16.8735 H   0  0  0  0  0  0  0  0  0  0  0  0
    3.8186    1.8938   19.0100 H   0  0  0  0  0  0  0  0  0  0  0  0
    4.7537    0.6876   21.0173 H   0  0  0  0  0  0  0  0  0  0  0  0
    7.3417   -1.7598   20.8050 H   0  0  0  0  0  0  0  0  0  0  0  0
    6.4445   -0.7509   21.9458 H   0  0  0  0  0  0  0  0  0  0  0  0
    8.2173    2.8286   22.9627 H   0  0  0  0  0  0  0  0  0  0  0  0
    6.8383    1.9416   22.2476 H   0  0  0  0  0  0  0  0  0  0  0  0
    6.3148    0.5827   24.3873 N   0  0  0  0  0  0  0  0  0  0  0  0
    9.3825    1.3567   25.2484 H   0  0  0  0  0  0  0  0  0  0  0  0
    7.9400   -0.1575   27.1077 H   0  0  0  0  0  0  0  0  0  0  0  0
    4.7500   -0.0946   26.8252 H   0  0  0  0  0  0  0  0  0  0  0  0
    5.7556   -1.5666   26.7570 H   0  0  0  0  0  0  0  0  0  0  0  0
    4.7460   -1.1169   25.3574 H   0  0  0  0  0  0  0  0  0  0  0  0
  1  2  1  0
  2  3  1  0
  3  4  2  0
  4  5  1  0
  5  6  1  0
  6  7  1  0
  7  8  2  0
  8  9  1  0
  9 10  1  0
 10 11  2  0
 11 12  1  0
 12 13  2  0
 13 14  1  0
 13 15  1  0
 15 16  2  0
 16 17  1  0
 15 18  1  0
 12 19  1  0
 11 20  1  0
  9 21  2  0
 21 22  1  0
 22 23  1  0
 23 24  1  0
 24 25  2  0
 25 26  1  0
 26 27  2  0
 27 28  1  0
 28 29  2  0
 29 30  1  0
 27 31  1  0
 26 32  1  0
 25 33  1  0
 23 34  1  0
 23 35  1  0
  6 36  1  0
  6 37  1  0
  5 38  2  0
  4 39  1  0
  3 40  1  0
  1 41  1  0
  1 42  1  0
  1 43  1  0
 38  2  1  0
 22  7  1  0
 29 24  1  0
 16 10  1  0
M  END
>  <cnnaffinity>  (1) 
-6.48842

>  <filename>  (1) 
Cn1ccc(Cc2nc(-c3ccc(F)cc3)nn2Cc2cccnc2)n1

$$$$
