
     RDKit          3D

 46 49  0  0  0  0  0  0  0  0999 V2000
    5.1826    0.3156   24.9028 C   0  0  0  0  0  0  0  0  0  0  0  0
    6.4177   -0.4331   24.8264 N   0  0  0  0  0  0  0  0  0  0  0  0
    6.4048   -1.7690   24.9354 N   0  0  0  0  0  0  0  0  0  0  0  0
    7.6798   -2.1335   24.8637 C   0  0  0  0  0  0  0  0  0  0  0  0
    8.5207   -1.0162   24.7223 C   0  0  0  0  0  0  0  0  0  0  0  0
    7.6696    0.0741   24.6719 C   0  0  0  0  0  0  0  0  0  0  0  0
    7.9319    1.5177   24.3399 C   0  0  0  0  0  0  0  0  0  0  0  0
    7.8435    1.8203   22.8156 C   0  0  0  0  0  0  0  0  0  0  0  0
    8.8182    0.9609   22.0652 C   0  0  0  0  0  0  0  0  0  0  0  0
   10.1219    1.0156   22.2854 N   0  0  0  0  0  0  0  0  0  0  0  0
   10.5974   -0.1246   21.7305 C   0  0  0  0  0  0  0  0  0  0  0  0
   12.0386   -0.4964   21.7029 C   0  0  0  0  0  0  0  0  0  0  0  0
   13.0665    0.3134   22.2354 C   0  0  0  0  0  0  0  0  0  0  0  0
   14.3633    0.1485   21.7584 C   0  0  0  0  0  0  0  0  0  0  0  0
   14.6167   -0.7853   20.7232 C   0  0  0  0  0  0  0  0  0  0  0  0
   16.0413   -0.3413   19.6383 Cl  0  0  0  0  0  0  0  0  0  0  0  0
   13.7087   -1.8016   20.4562 C   0  0  0  0  0  0  0  0  0  0  0  0
   12.4183   -1.6381   20.9800 C   0  0  0  0  0  0  0  0  0  0  0  0
   11.6156   -2.3354   20.8089 H   0  0  0  0  0  0  0  0  0  0  0  0
   13.9838   -2.6611   19.8557 H   0  0  0  0  0  0  0  0  0  0  0  0
   15.1329    0.8446   22.0787 H   0  0  0  0  0  0  0  0  0  0  0  0
   12.8662    1.1194   22.9348 H   0  0  0  0  0  0  0  0  0  0  0  0
    9.6493   -0.8690   21.1636 N   0  0  0  0  0  0  0  0  0  0  0  0
    8.5185   -0.1510   21.3515 N   0  0  0  0  0  0  0  0  0  0  0  0
    7.2227   -0.7053   20.9660 C   0  0  0  0  0  0  0  0  0  0  0  0
    6.5146    0.0447   19.8617 C   0  0  0  0  0  0  0  0  0  0  0  0
    5.2870    0.6934   20.0421 C   0  0  0  0  0  0  0  0  0  0  0  0
    4.7159    1.3694   18.9620 C   0  0  0  0  0  0  0  0  0  0  0  0
    5.3892    1.3610   17.7372 C   0  0  0  0  0  0  0  0  0  0  0  0
    6.5555    0.7258   17.5363 N   0  0  0  0  0  0  0  0  0  0  0  0
    7.0939    0.0925   18.5836 C   0  0  0  0  0  0  0  0  0  0  0  0
    8.0381   -0.4199   18.4002 H   0  0  0  0  0  0  0  0  0  0  0  0
    4.9725    1.8772   16.8751 H   0  0  0  0  0  0  0  0  0  0  0  0
    3.7779    1.9066   19.0579 H   0  0  0  0  0  0  0  0  0  0  0  0
    4.7861    0.6801   21.0135 H   0  0  0  0  0  0  0  0  0  0  0  0
    6.5777   -0.7754   21.8467 H   0  0  0  0  0  0  0  0  0  0  0  0
    7.4368   -1.7317   20.6556 H   0  0  0  0  0  0  0  0  0  0  0  0
    8.0855    2.8732   22.6372 H   0  0  0  0  0  0  0  0  0  0  0  0
    6.8224    1.6692   22.4508 H   0  0  0  0  0  0  0  0  0  0  0  0
    8.9473    1.7557   24.6697 H   0  0  0  0  0  0  0  0  0  0  0  0
    7.2634    2.1811   24.8996 H   0  0  0  0  0  0  0  0  0  0  0  0
    9.5985   -0.9954   24.6151 H   0  0  0  0  0  0  0  0  0  0  0  0
    7.9339   -3.1860   24.9154 H   0  0  0  0  0  0  0  0  0  0  0  0
    4.9639    0.8034   23.9466 H   0  0  0  0  0  0  0  0  0  0  0  0
    4.3819   -0.3826   25.1410 H   0  0  0  0  0  0  0  0  0  0  0  0
    5.2427    1.0794   25.6832 H   0  0  0  0  0  0  0  0  0  0  0  0
  1  2  1  0
  2  3  1  0
  3  4  2  0
  4  5  1  0
  5  6  2  0
  6  7  1  0
  7  8  1  0
  8  9  1  0
  9 10  2  0
 10 11  1  0
 11 12  1  0
 12 13  2  0
 13 14  1  0
 14 15  2  0
 15 16  1  0
 15 17  1  0
 17 18  2  0
 18 19  1  0
 17 20  1  0
 14 21  1  0
 13 22  1  0
 11 23  2  0
 23 24  1  0
 24 25  1  0
 25 26  1  0
 26 27  2  0
 27 28  1  0
 28 29  2  0
 29 30  1  0
 30 31  2  0
 31 32  1  0
 29 33  1  0
 28 34  1  0
 27 35  1  0
 25 36  1  0
 25 37  1  0
  8 38  1  0
  8 39  1  0
  7 40  1  0
  7 41  1  0
  5 42  1  0
  4 43  1  0
  1 44  1  0
  1 45  1  0
  1 46  1  0
  6  2  1  0
 24  9  1  0
 31 26  1  0
 18 12  1  0
M  END
>  <cnnaffinity>  (1) 
-6.54992

>  <filename>  (1) 
Cn1nccc1CCc1nc(-c2ccc(Cl)cc2)nn1Cc1cccnc1

$$$$
