
     RDKit          3D

 41 45  0  0  0  0  0  0  0  0999 V2000
    7.9682    2.7388   22.0023 C   0  0  0  0  0  0  0  0  0  0  0  0
    9.2884    2.3485   22.4519 N   0  0  0  0  0  0  0  0  0  0  0  0
    9.8082    2.9382   23.5383 N   0  0  0  0  0  0  0  0  0  0  0  0
   10.9627    2.3231   23.7592 C   0  0  0  0  0  0  0  0  0  0  0  0
   11.1695    1.3159   22.7976 C   0  0  0  0  0  0  0  0  0  0  0  0
   12.4981    0.2235   22.6854 Cl  0  0  0  0  0  0  0  0  0  0  0  0
   10.0658    1.3415   21.9720 C   0  0  0  0  0  0  0  0  0  0  0  0
    9.6259    0.3840   20.8961 C   0  0  0  0  0  0  0  0  0  0  0  0
    8.5775   -0.5825   21.3675 C   0  0  0  0  0  0  0  0  0  0  0  0
    8.7922   -1.4398   22.3337 N   0  0  0  0  0  0  0  0  0  0  0  0
    7.5935   -2.0657   22.4816 C   0  0  0  0  0  0  0  0  0  0  0  0
    7.5409   -3.1280   23.5211 C   0  0  0  0  0  0  0  0  0  0  0  0
    7.7682   -2.6797   24.9337 C   0  0  0  0  0  0  0  0  0  0  0  0
    6.4275   -3.3579   24.5638 C   0  0  0  0  0  0  0  0  0  0  0  0
    5.2922   -4.3166   24.2338 C   0  0  0  0  0  0  0  0  0  0  0  0
    5.4586   -3.8453   25.6416 C   0  0  0  0  0  0  0  0  0  0  0  0
    5.8638   -4.5314   26.3853 H   0  0  0  0  0  0  0  0  0  0  0  0
    4.7295   -3.1310   26.0109 H   0  0  0  0  0  0  0  0  0  0  0  0
    4.4545   -3.8959   23.6800 H   0  0  0  0  0  0  0  0  0  0  0  0
    5.5686   -5.3406   23.9702 H   0  0  0  0  0  0  0  0  0  0  0  0
    7.7678   -1.5976   25.1010 H   0  0  0  0  0  0  0  0  0  0  0  0
    8.4560   -3.2342   25.5804 H   0  0  0  0  0  0  0  0  0  0  0  0
    8.0653   -4.0301   23.1899 H   0  0  0  0  0  0  0  0  0  0  0  0
    6.6519   -1.6592   21.6507 N   0  0  0  0  0  0  0  0  0  0  0  0
    7.2998   -0.7175   20.9009 N   0  0  0  0  0  0  0  0  0  0  0  0
    6.6164   -0.0258   19.8585 C   0  0  0  0  0  0  0  0  0  0  0  0
    5.4145    0.6356   20.1242 C   0  0  0  0  0  0  0  0  0  0  0  0
    4.7956    1.3268   19.0785 C   0  0  0  0  0  0  0  0  0  0  0  0
    5.3840    1.3194   17.8099 C   0  0  0  0  0  0  0  0  0  0  0  0
    6.5269    0.6703   17.5415 N   0  0  0  0  0  0  0  0  0  0  0  0
    7.1251    0.0179   18.5479 C   0  0  0  0  0  0  0  0  0  0  0  0
    8.0582   -0.4891   18.3052 H   0  0  0  0  0  0  0  0  0  0  0  0
    4.9231    1.8481   16.9771 H   0  0  0  0  0  0  0  0  0  0  0  0
    3.8695    1.8677   19.2345 H   0  0  0  0  0  0  0  0  0  0  0  0
    4.9905    0.5936   21.1286 H   0  0  0  0  0  0  0  0  0  0  0  0
   10.4870   -0.2249   20.6118 H   0  0  0  0  0  0  0  0  0  0  0  0
    9.2811    0.9158   20.0097 H   0  0  0  0  0  0  0  0  0  0  0  0
   11.5822    2.6132   24.5976 H   0  0  0  0  0  0  0  0  0  0  0  0
    7.2054    2.0358   22.3558 H   0  0  0  0  0  0  0  0  0  0  0  0
    7.7667    3.7364   22.3929 H   0  0  0  0  0  0  0  0  0  0  0  0
    7.9592    2.7560   20.9137 H   0  0  0  0  0  0  0  0  0  0  0  0
  1  2  1  0
  2  3  1  0
  3  4  2  0
  4  5  1  0
  5  6  1  0
  5  7  2  0
  7  8  1  0
  8  9  1  0
  9 10  2  0
 10 11  1  0
 11 12  1  0
 12 13  1  0
 13 14  1  0
 14 15  1  0
 15 16  1  0
 16 17  1  0
 16 18  1  0
 15 19  1  0
 15 20  1  0
 13 21  1  0
 13 22  1  0
 12 23  1  0
 11 24  2  0
 24 25  1  0
 25 26  1  0
 26 27  2  0
 27 28  1  0
 28 29  2  0
 29 30  1  0
 30 31  2  0
 31 32  1  0
 29 33  1  0
 28 34  1  0
 27 35  1  0
  8 36  1  0
  8 37  1  0
  4 38  1  0
  1 39  1  0
  1 40  1  0
  1 41  1  0
  7  2  1  0
 25  9  1  0
 31 26  1  0
 14 12  1  0
 16 14  1  0
M  END
>  <cnnaffinity>  (1) 
-6.48976

>  <filename>  (1) 
Cn1ncc(Cl)c1Cc1nc(C2CC23CC3)nn1-c1cccnc1

$$$$
