
     RDKit          3D

 40 43  0  0  0  0  0  0  0  0999 V2000
   11.8653    0.3686   22.9703 C   0  0  0  0  0  0  0  0  0  0  0  0
   10.8531    1.3928   22.8794 N   0  0  0  0  0  0  0  0  0  0  0  0
   10.7868    2.3767   23.7889 N   0  0  0  0  0  0  0  0  0  0  0  0
    9.7330    3.1012   23.4302 C   0  0  0  0  0  0  0  0  0  0  0  0
    9.1285    2.5571   22.2867 C   0  0  0  0  0  0  0  0  0  0  0  0
    7.6416    3.0334   21.5792 Cl  0  0  0  0  0  0  0  0  0  0  0  0
    9.8933    1.4685   21.9308 C   0  0  0  0  0  0  0  0  0  0  0  0
    9.6204    0.4177   20.8958 C   0  0  0  0  0  0  0  0  0  0  0  0
    8.6236   -0.5867   21.3756 C   0  0  0  0  0  0  0  0  0  0  0  0
    8.8505   -1.4540   22.3343 N   0  0  0  0  0  0  0  0  0  0  0  0
    7.6464   -2.0655   22.5050 C   0  0  0  0  0  0  0  0  0  0  0  0
    7.4218   -3.1031   23.5325 C   0  0  0  0  0  0  0  0  0  0  0  0
    6.1539   -3.7125   23.6495 C   0  0  0  0  0  0  0  0  0  0  0  0
    5.9252   -4.6946   24.6086 C   0  0  0  0  0  0  0  0  0  0  0  0
    6.9733   -5.0563   25.4513 C   0  0  0  0  0  0  0  0  0  0  0  0
    6.7540   -6.0011   26.3753 F   0  0  0  0  0  0  0  0  0  0  0  0
    8.2367   -4.4762   25.3718 C   0  0  0  0  0  0  0  0  0  0  0  0
    8.4586   -3.4946   24.4071 C   0  0  0  0  0  0  0  0  0  0  0  0
    9.4405   -3.0313   24.3361 H   0  0  0  0  0  0  0  0  0  0  0  0
    9.0099   -4.8033   26.0612 H   0  0  0  0  0  0  0  0  0  0  0  0
    4.9619   -5.1810   24.7237 H   0  0  0  0  0  0  0  0  0  0  0  0
    5.3495   -3.4034   22.9847 H   0  0  0  0  0  0  0  0  0  0  0  0
    6.7044   -1.6364   21.6806 N   0  0  0  0  0  0  0  0  0  0  0  0
    7.3376   -0.6999   20.9327 N   0  0  0  0  0  0  0  0  0  0  0  0
    6.6464   -0.0012   19.9000 C   0  0  0  0  0  0  0  0  0  0  0  0
    5.4312    0.6361   20.1670 C   0  0  0  0  0  0  0  0  0  0  0  0
    4.8105    1.3060   19.1068 C   0  0  0  0  0  0  0  0  0  0  0  0
    5.3980    1.2960   17.8356 C   0  0  0  0  0  0  0  0  0  0  0  0
    6.5533    0.6676   17.5721 N   0  0  0  0  0  0  0  0  0  0  0  0
    7.1595    0.0474   18.5903 C   0  0  0  0  0  0  0  0  0  0  0  0
    8.1066   -0.4345   18.3627 H   0  0  0  0  0  0  0  0  0  0  0  0
    4.9248    1.7913   16.9916 H   0  0  0  0  0  0  0  0  0  0  0  0
    3.8831    1.8397   19.2590 H   0  0  0  0  0  0  0  0  0  0  0  0
    5.0112    0.6027   21.1754 H   0  0  0  0  0  0  0  0  0  0  0  0
   10.5300   -0.1323   20.6307 H   0  0  0  0  0  0  0  0  0  0  0  0
    9.2344    0.9237   20.0126 H   0  0  0  0  0  0  0  0  0  0  0  0
    9.4223    3.9891   23.9622 H   0  0  0  0  0  0  0  0  0  0  0  0
   11.3964   -0.6173   23.0266 H   0  0  0  0  0  0  0  0  0  0  0  0
   12.5167    0.4064   22.0966 H   0  0  0  0  0  0  0  0  0  0  0  0
   12.4470    0.5746   23.8604 H   0  0  0  0  0  0  0  0  0  0  0  0
  1  2  1  0
  2  3  1  0
  3  4  2  0
  4  5  1  0
  5  6  1  0
  5  7  2  0
  7  8  1  0
  8  9  1  0
  9 10  2  0
 10 11  1  0
 11 12  1  0
 12 13  2  0
 13 14  1  0
 14 15  2  0
 15 16  1  0
 15 17  1  0
 17 18  2  0
 18 19  1  0
 17 20  1  0
 14 21  1  0
 13 22  1  0
 11 23  2  0
 23 24  1  0
 24 25  1  0
 25 26  2  0
 26 27  1  0
 27 28  2  0
 28 29  1  0
 29 30  2  0
 30 31  1  0
 28 32  1  0
 27 33  1  0
 26 34  1  0
  8 35  1  0
  8 36  1  0
  4 37  1  0
  1 38  1  0
  1 39  1  0
  1 40  1  0
  7  2  1  0
 24  9  1  0
 30 25  1  0
 18 12  1  0
M  END
>  <cnnaffinity>  (1) 
-6.12315

>  <filename>  (1) 
Cn1ncc(Cl)c1Cc1nc(-c2ccc(F)cc2)nn1-c1cccnc1

$$$$
