
     RDKit          3D

 25 26  0  0  0  0  0  0  0  0999 V2000
    4.9581    1.7307   17.0335 H   0  0  0  0  0  0  0  0  0  0  0  0
    5.4519    1.2478   17.8752 C   0  0  0  0  0  0  0  0  0  0  0  0
    6.6226    0.6341   17.6154 N   0  0  0  0  0  0  0  0  0  0  0  0
    7.2610    0.0441   18.6405 C   0  0  0  0  0  0  0  0  0  0  0  0
    8.2077   -0.4568   18.4277 H   0  0  0  0  0  0  0  0  0  0  0  0
    6.7504    0.0493   19.9583 C   0  0  0  0  0  0  0  0  0  0  0  0
    7.5406   -0.5048   21.0032 O   0  0  0  0  0  0  0  0  0  0  0  0
    6.8334   -1.0260   22.3871 S   0  0  0  0  0  0  0  0  0  0  0  0
    6.3800    0.1190   23.1450 O   0  0  0  0  0  0  0  0  0  0  0  0
    5.9569   -2.1287   22.0796 O   0  0  0  0  0  0  0  0  0  0  0  0
    8.3011   -1.6860   23.1650 C   0  0  0  0  0  0  0  0  0  0  0  0
    9.4839   -2.2593   22.7131 C   0  0  0  0  0  0  0  0  0  0  0  0
    9.9582   -2.2378   21.7386 H   0  0  0  0  0  0  0  0  0  0  0  0
    9.9695   -2.9338   23.8510 C   0  0  0  0  0  0  0  0  0  0  0  0
   10.8423   -3.5666   23.9447 H   0  0  0  0  0  0  0  0  0  0  0  0
    9.1860   -2.7525   24.8990 N   0  0  0  0  0  0  0  0  0  0  0  0
    8.1808   -1.9850   24.4801 N   0  0  0  0  0  0  0  0  0  0  0  0
    7.1145   -1.7023   25.4199 C   0  0  0  0  0  0  0  0  0  0  0  0
    7.4233   -2.1414   26.3681 H   0  0  0  0  0  0  0  0  0  0  0  0
    6.1798   -2.1600   25.0945 H   0  0  0  0  0  0  0  0  0  0  0  0
    6.9859   -0.6307   25.5403 H   0  0  0  0  0  0  0  0  0  0  0  0
    5.5229    0.6542   20.2175 C   0  0  0  0  0  0  0  0  0  0  0  0
    5.1069    0.6603   21.2216 H   0  0  0  0  0  0  0  0  0  0  0  0
    4.8643    1.2721   19.1441 C   0  0  0  0  0  0  0  0  0  0  0  0
    3.9120    1.7720   19.2980 H   0  0  0  0  0  0  0  0  0  0  0  0
  1  2  1  0
  2  3  2  0
  3  4  1  0
  4  5  1  0
  4  6  2  0
  6  7  1  0
  7  8  1  0
  8  9  2  0
  8 10  2  0
  8 11  1  0
 11 12  2  0
 12 13  1  0
 12 14  1  0
 14 15  1  0
 14 16  2  0
 16 17  1  0
 17 18  1  0
 18 19  1  0
 18 20  1  0
 18 21  1  0
  6 22  1  0
 22 23  1  0
 22 24  2  0
 24 25  1  0
 24  2  1  0
 17 11  1  0
M  END
>  <cnnaffinity>  (1) 
-4.04519

>  <filename>  (1) 
Cn1nccc1S(=O)(=O)Oc1cccnc1

$$$$
