
     RDKit          3D

 44 48  0  0  0  0  0  0  0  0999 V2000
    7.6977    2.3654   21.6208 C   0  0  0  0  0  0  0  0  0  0  0  0
    9.1136    2.1417   21.8341 N   0  0  0  0  0  0  0  0  0  0  0  0
    9.7599    2.8676   22.7523 N   0  0  0  0  0  0  0  0  0  0  0  0
   10.9967    2.3746   22.7758 C   0  0  0  0  0  0  0  0  0  0  0  0
   11.9832    2.7691   23.8453 C   0  0  0  0  0  0  0  0  0  0  0  0
   13.2503    2.4857   23.4699 F   0  0  0  0  0  0  0  0  0  0  0  0
   11.9317    4.0591   24.1866 F   0  0  0  0  0  0  0  0  0  0  0  0
   11.7350    2.0601   24.9632 F   0  0  0  0  0  0  0  0  0  0  0  0
   11.1402    1.3132   21.8606 C   0  0  0  0  0  0  0  0  0  0  0  0
    9.8857    1.1403   21.3309 C   0  0  0  0  0  0  0  0  0  0  0  0
    9.3854   -0.0227   20.5175 C   0  0  0  0  0  0  0  0  0  0  0  0
    8.3324   -0.8889   21.1486 C   0  0  0  0  0  0  0  0  0  0  0  0
    8.5417   -1.6880   22.1794 N   0  0  0  0  0  0  0  0  0  0  0  0
    7.3298   -2.2812   22.3646 C   0  0  0  0  0  0  0  0  0  0  0  0
    6.9502   -3.2233   23.4563 C   0  0  0  0  0  0  0  0  0  0  0  0
    6.6266   -4.6577   23.1542 C   0  0  0  0  0  0  0  0  0  0  0  0
    7.8377   -4.3381   24.0607 C   0  0  0  0  0  0  0  0  0  0  0  0
    8.9217   -3.9847   25.0600 C   0  0  0  0  0  0  0  0  0  0  0  0
    8.7127   -5.4223   24.6865 C   0  0  0  0  0  0  0  0  0  0  0  0
    8.2518   -6.0780   25.4272 H   0  0  0  0  0  0  0  0  0  0  0  0
    9.4132   -5.8983   24.0063 H   0  0  0  0  0  0  0  0  0  0  0  0
    8.6130   -3.6688   26.0580 H   0  0  0  0  0  0  0  0  0  0  0  0
    9.7825   -3.4610   24.6395 H   0  0  0  0  0  0  0  0  0  0  0  0
    6.8605   -5.0552   22.1621 H   0  0  0  0  0  0  0  0  0  0  0  0
    5.7582   -5.1236   23.6288 H   0  0  0  0  0  0  0  0  0  0  0  0
    6.3184   -2.7250   24.1982 H   0  0  0  0  0  0  0  0  0  0  0  0
    6.3919   -1.8943   21.5173 N   0  0  0  0  0  0  0  0  0  0  0  0
    7.0447   -1.0273   20.7072 N   0  0  0  0  0  0  0  0  0  0  0  0
    6.3459   -0.3048   19.7005 C   0  0  0  0  0  0  0  0  0  0  0  0
    5.2352    0.4817   20.0205 C   0  0  0  0  0  0  0  0  0  0  0  0
    4.7368    1.3341   19.0270 C   0  0  0  0  0  0  0  0  0  0  0  0
    5.3270    1.3197   17.7569 C   0  0  0  0  0  0  0  0  0  0  0  0
    6.3219    0.4847   17.4176 N   0  0  0  0  0  0  0  0  0  0  0  0
    6.7971   -0.3259   18.3710 C   0  0  0  0  0  0  0  0  0  0  0  0
    7.5809   -1.0245   18.0809 H   0  0  0  0  0  0  0  0  0  0  0  0
    4.9873    1.9961   16.9755 H   0  0  0  0  0  0  0  0  0  0  0  0
    3.9137    2.0116   19.2224 H   0  0  0  0  0  0  0  0  0  0  0  0
    4.7863    0.4241   21.0145 H   0  0  0  0  0  0  0  0  0  0  0  0
   10.2378   -0.6833   20.3526 H   0  0  0  0  0  0  0  0  0  0  0  0
    9.0623    0.3258   19.5361 H   0  0  0  0  0  0  0  0  0  0  0  0
   12.0209    0.7222   21.6436 H   0  0  0  0  0  0  0  0  0  0  0  0
    7.0950    1.8170   22.3569 H   0  0  0  0  0  0  0  0  0  0  0  0
    7.4912    3.4321   21.7133 H   0  0  0  0  0  0  0  0  0  0  0  0
    7.4469    2.0386   20.6096 H   0  0  0  0  0  0  0  0  0  0  0  0
  1  2  1  0
  2  3  1  0
  3  4  2  0
  4  5  1  0
  5  6  1  0
  5  7  1  0
  5  8  1  0
  4  9  1  0
  9 10  2  0
 10 11  1  0
 11 12  1  0
 12 13  2  0
 13 14  1  0
 14 15  1  0
 15 16  1  0
 16 17  1  0
 17 18  1  0
 18 19  1  0
 19 20  1  0
 19 21  1  0
 18 22  1  0
 18 23  1  0
 16 24  1  0
 16 25  1  0
 15 26  1  0
 14 27  2  0
 27 28  1  0
 28 29  1  0
 29 30  2  0
 30 31  1  0
 31 32  2  0
 32 33  1  0
 33 34  2  0
 34 35  1  0
 32 36  1  0
 31 37  1  0
 30 38  1  0
 11 39  1  0
 11 40  1  0
  9 41  1  0
  1 42  1  0
  1 43  1  0
  1 44  1  0
 10  2  1  0
 28 12  1  0
 34 29  1  0
 17 15  1  0
 19 17  1  0
M  END
>  <cnnaffinity>  (1) 
-6.62692

>  <filename>  (1) 
Cn1nc(C(F)(F)F)cc1Cc1nc(C2CC23CC3)nn1-c1cccnc1

$$$$
