
     RDKit          3D

 43 46  0  0  0  0  0  0  0  0999 V2000
    3.2461    2.5385   24.6691 C   0  0  0  0  0  0  0  0  0  0  0  0
    4.4640    1.7653   24.5381 N   0  0  0  0  0  0  0  0  0  0  0  0
    5.2980    2.0135   23.5106 N   0  0  0  0  0  0  0  0  0  0  0  0
    6.3533    1.2431   23.7094 C   0  0  0  0  0  0  0  0  0  0  0  0
    7.4766    1.2674   22.7263 C   0  0  0  0  0  0  0  0  0  0  0  0
    7.6682   -0.0881   22.1599 C   0  0  0  0  0  0  0  0  0  0  0  0
    8.2174   -1.0536   22.8686 N   0  0  0  0  0  0  0  0  0  0  0  0
    8.1742   -2.1184   22.0295 C   0  0  0  0  0  0  0  0  0  0  0  0
    8.6895   -3.4790   22.4083 C   0  0  0  0  0  0  0  0  0  0  0  0
    8.7204   -3.8117   23.9216 C   0  0  0  0  0  0  0  0  0  0  0  0
    8.6282   -5.3578   24.0287 C   0  0  0  0  0  0  0  0  0  0  0  0
    8.2652   -5.8787   22.6187 C   0  0  0  0  0  0  0  0  0  0  0  0
    7.8728   -4.6424   21.8026 C   0  0  0  0  0  0  0  0  0  0  0  0
    8.0575   -4.7731   20.7315 H   0  0  0  0  0  0  0  0  0  0  0  0
    6.8050   -4.4065   21.9352 H   0  0  0  0  0  0  0  0  0  0  0  0
    9.1268   -6.3825   22.1706 H   0  0  0  0  0  0  0  0  0  0  0  0
    7.4514   -6.6151   22.6329 H   0  0  0  0  0  0  0  0  0  0  0  0
    9.5734   -5.7972   24.3799 H   0  0  0  0  0  0  0  0  0  0  0  0
    7.8630   -5.6656   24.7483 H   0  0  0  0  0  0  0  0  0  0  0  0
    7.8563   -3.3487   24.4161 H   0  0  0  0  0  0  0  0  0  0  0  0
    9.6263   -3.4232   24.4013 H   0  0  0  0  0  0  0  0  0  0  0  0
    9.7234   -3.4538   22.0471 H   0  0  0  0  0  0  0  0  0  0  0  0
    7.6863   -1.8506   20.8270 N   0  0  0  0  0  0  0  0  0  0  0  0
    7.3074   -0.5490   20.9307 N   0  0  0  0  0  0  0  0  0  0  0  0
    6.5987    0.0775   19.8628 C   0  0  0  0  0  0  0  0  0  0  0  0
    5.4068    0.7825   20.0778 C   0  0  0  0  0  0  0  0  0  0  0  0
    4.7923    1.3908   18.9769 C   0  0  0  0  0  0  0  0  0  0  0  0
    5.4027    1.3039   17.7222 C   0  0  0  0  0  0  0  0  0  0  0  0
    6.5320    0.6077   17.5088 N   0  0  0  0  0  0  0  0  0  0  0  0
    7.0957   -0.0107   18.5496 C   0  0  0  0  0  0  0  0  0  0  0  0
    7.9884   -0.5959   18.3395 H   0  0  0  0  0  0  0  0  0  0  0  0
    4.9723    1.8046   16.8554 H   0  0  0  0  0  0  0  0  0  0  0  0
    3.8562    1.9270   19.0769 H   0  0  0  0  0  0  0  0  0  0  0  0
    4.9699    0.8534   21.0753 H   0  0  0  0  0  0  0  0  0  0  0  0
    8.4062    1.5437   23.2331 H   0  0  0  0  0  0  0  0  0  0  0  0
    7.2641    2.0121   21.9578 H   0  0  0  0  0  0  0  0  0  0  0  0
    6.2094    0.4574   24.8641 C   0  0  0  0  0  0  0  0  0  0  0  0
    4.9905    0.8330   25.3668 C   0  0  0  0  0  0  0  0  0  0  0  0
    4.1844    0.3075   26.7838 Cl  0  0  0  0  0  0  0  0  0  0  0  0
    6.8882   -0.3012   25.2183 H   0  0  0  0  0  0  0  0  0  0  0  0
    2.3824    1.8757   24.7631 H   0  0  0  0  0  0  0  0  0  0  0  0
    3.1554    3.1434   23.7642 H   0  0  0  0  0  0  0  0  0  0  0  0
    3.2987    3.1958   25.5426 H   0  0  0  0  0  0  0  0  0  0  0  0
  1  2  1  0
  2  3  1  0
  3  4  2  0
  4  5  1  0
  5  6  1  0
  6  7  2  0
  7  8  1  0
  8  9  1  0
  9 10  1  0
 10 11  1  0
 11 12  1  0
 12 13  1  0
 13 14  1  0
 13 15  1  0
 12 16  1  0
 12 17  1  0
 11 18  1  0
 11 19  1  0
 10 20  1  0
 10 21  1  0
  9 22  1  0
  8 23  2  0
 23 24  1  0
 24 25  1  0
 25 26  2  0
 26 27  1  0
 27 28  2  0
 28 29  1  0
 29 30  2  0
 30 31  1  0
 28 32  1  0
 27 33  1  0
 26 34  1  0
  5 35  1  0
  5 36  1  0
  4 37  1  0
 37 38  2  0
 38 39  1  0
 37 40  1  0
  1 41  1  0
  1 42  1  0
  1 43  1  0
 38  2  1  0
 24  6  1  0
 30 25  1  0
 13  9  1  0
M  END
>  <cnnaffinity>  (1) 
-5.98927

>  <filename>  (1) 
Cn1nc(Cc2nc(C3CCCC3)nn2-c2cccnc2)cc1Cl

$$$$
