
     RDKit          3D

 47 50  0  0  0  0  0  0  0  0999 V2000
   12.0871   -1.6609   21.1737 C   0  0  0  0  0  0  0  0  0  0  0  0
   11.7244   -0.3239   21.5897 N   0  0  0  0  0  0  0  0  0  0  0  0
   12.5061    0.2917   22.4785 N   0  0  0  0  0  0  0  0  0  0  0  0
   11.9084    1.4566   22.7107 C   0  0  0  0  0  0  0  0  0  0  0  0
   12.3844    2.3614   23.8088 C   0  0  0  0  0  0  0  0  0  0  0  0
   13.7117    2.4696   23.8252 F   0  0  0  0  0  0  0  0  0  0  0  0
   11.8645    3.6008   23.6776 F   0  0  0  0  0  0  0  0  0  0  0  0
   12.0015    1.8986   25.0131 F   0  0  0  0  0  0  0  0  0  0  0  0
   10.7394    1.6002   21.9428 C   0  0  0  0  0  0  0  0  0  0  0  0
   10.6356    0.4197   21.2454 C   0  0  0  0  0  0  0  0  0  0  0  0
    9.4764   -0.0285   20.3997 C   0  0  0  0  0  0  0  0  0  0  0  0
    8.4463   -0.8456   21.1193 C   0  0  0  0  0  0  0  0  0  0  0  0
    8.6713   -1.6781   22.1122 N   0  0  0  0  0  0  0  0  0  0  0  0
    7.4294   -2.1153   22.4482 C   0  0  0  0  0  0  0  0  0  0  0  0
    7.2340   -3.0364   23.6217 C   0  0  0  0  0  0  0  0  0  0  0  0
    6.5069   -2.3430   24.8172 C   0  0  0  0  0  0  0  0  0  0  0  0
    6.0216   -3.3264   25.8573 C   0  0  0  0  0  0  0  0  0  0  0  0
    6.0104   -4.6487   25.6902 C   0  0  0  0  0  0  0  0  0  0  0  0
    6.4285   -5.3312   24.4094 C   0  0  0  0  0  0  0  0  0  0  0  0
    6.5169   -4.3522   23.2211 C   0  0  0  0  0  0  0  0  0  0  0  0
    7.0496   -4.8387   22.3936 H   0  0  0  0  0  0  0  0  0  0  0  0
    5.5096   -4.0940   22.8610 H   0  0  0  0  0  0  0  0  0  0  0  0
    5.7230   -6.1431   24.1791 H   0  0  0  0  0  0  0  0  0  0  0  0
    7.4043   -5.8162   24.5786 H   0  0  0  0  0  0  0  0  0  0  0  0
    5.7000   -5.2949   26.5130 H   0  0  0  0  0  0  0  0  0  0  0  0
    5.6514   -2.9000   26.7914 H   0  0  0  0  0  0  0  0  0  0  0  0
    5.6480   -1.7541   24.4648 H   0  0  0  0  0  0  0  0  0  0  0  0
    7.1859   -1.6276   25.3057 H   0  0  0  0  0  0  0  0  0  0  0  0
    8.2535   -3.2759   23.9572 H   0  0  0  0  0  0  0  0  0  0  0  0
    6.4574   -1.6438   21.6843 N   0  0  0  0  0  0  0  0  0  0  0  0
    7.1172   -0.8464   20.8022 N   0  0  0  0  0  0  0  0  0  0  0  0
    6.4199   -0.1603   19.7668 C   0  0  0  0  0  0  0  0  0  0  0  0
    5.2554    0.5610   20.0482 C   0  0  0  0  0  0  0  0  0  0  0  0
    4.7013    1.3445   19.0327 C   0  0  0  0  0  0  0  0  0  0  0  0
    5.2936    1.3439   17.7652 C   0  0  0  0  0  0  0  0  0  0  0  0
    6.3510    0.5781   17.4608 N   0  0  0  0  0  0  0  0  0  0  0  0
    6.8854   -0.1636   18.4368 C   0  0  0  0  0  0  0  0  0  0  0  0
    7.7312   -0.7836   18.1475 H   0  0  0  0  0  0  0  0  0  0  0  0
    4.8998    1.9688   16.9669 H   0  0  0  0  0  0  0  0  0  0  0  0
    3.8256    1.9570   19.2088 H   0  0  0  0  0  0  0  0  0  0  0  0
    4.8018    0.4923   21.0350 H   0  0  0  0  0  0  0  0  0  0  0  0
    8.9777    0.8557   19.9951 H   0  0  0  0  0  0  0  0  0  0  0  0
    9.8117   -0.6148   19.5413 H   0  0  0  0  0  0  0  0  0  0  0  0
   10.0694    2.4501   21.9161 H   0  0  0  0  0  0  0  0  0  0  0  0
   12.5700   -1.6519   20.1935 H   0  0  0  0  0  0  0  0  0  0  0  0
   11.1883   -2.2800   21.1793 H   0  0  0  0  0  0  0  0  0  0  0  0
   12.8028   -2.0435   21.8993 H   0  0  0  0  0  0  0  0  0  0  0  0
  1  2  1  0
  2  3  1  0
  3  4  2  0
  4  5  1  0
  5  6  1  0
  5  7  1  0
  5  8  1  0
  4  9  1  0
  9 10  2  0
 10 11  1  0
 11 12  1  0
 12 13  2  0
 13 14  1  0
 14 15  1  0
 15 16  1  0
 16 17  1  0
 17 18  2  0
 18 19  1  0
 19 20  1  0
 20 21  1  0
 20 22  1  0
 19 23  1  0
 19 24  1  0
 18 25  1  0
 17 26  1  0
 16 27  1  0
 16 28  1  0
 15 29  1  0
 14 30  2  0
 30 31  1  0
 31 32  1  0
 32 33  2  0
 33 34  1  0
 34 35  2  0
 35 36  1  0
 36 37  2  0
 37 38  1  0
 35 39  1  0
 34 40  1  0
 33 41  1  0
 11 42  1  0
 11 43  1  0
  9 44  1  0
  1 45  1  0
  1 46  1  0
  1 47  1  0
 10  2  1  0
 31 12  1  0
 37 32  1  0
 20 15  1  0
M  END
>  <cnnaffinity>  (1) 
-6.78252

>  <filename>  (1) 
Cn1nc(C(F)(F)F)cc1Cc1nc(C2CC=CCC2)nn1-c1cccnc1

$$$$
