
     RDKit          3D

 46 49  0  0  0  0  0  0  0  0999 V2000
   13.5100    0.9557   22.5325 C   0  0  0  0  0  0  0  0  0  0  0  0
   12.5429    0.3588   23.4359 N   0  0  0  0  0  0  0  0  0  0  0  0
   12.6377    0.5536   24.7634 N   0  0  0  0  0  0  0  0  0  0  0  0
   11.5487   -0.0140   25.2747 C   0  0  0  0  0  0  0  0  0  0  0  0
   10.7620   -0.6030   24.2734 C   0  0  0  0  0  0  0  0  0  0  0  0
   11.4158   -0.3219   23.0829 C   0  0  0  0  0  0  0  0  0  0  0  0
   10.9403   -0.4696   21.6564 C   0  0  0  0  0  0  0  0  0  0  0  0
   10.1323    0.7664   21.1457 C   0  0  0  0  0  0  0  0  0  0  0  0
    8.9387    1.0722   21.9939 C   0  0  0  0  0  0  0  0  0  0  0  0
    8.8872    1.9672   22.9623 N   0  0  0  0  0  0  0  0  0  0  0  0
    7.7627    1.6176   23.6500 C   0  0  0  0  0  0  0  0  0  0  0  0
    7.3739    2.2586   24.9362 C   0  0  0  0  0  0  0  0  0  0  0  0
    6.1556    1.9426   25.5779 C   0  0  0  0  0  0  0  0  0  0  0  0
    5.8433    2.5713   26.7787 C   0  0  0  0  0  0  0  0  0  0  0  0
    4.6758    2.2877   27.3792 F   0  0  0  0  0  0  0  0  0  0  0  0
    6.7012    3.4898   27.3837 C   0  0  0  0  0  0  0  0  0  0  0  0
    7.9153    3.7821   26.7547 C   0  0  0  0  0  0  0  0  0  0  0  0
    8.2546    3.1785   25.5438 C   0  0  0  0  0  0  0  0  0  0  0  0
    9.2031    3.4090   25.0618 H   0  0  0  0  0  0  0  0  0  0  0  0
    8.6035    4.4885   27.2102 H   0  0  0  0  0  0  0  0  0  0  0  0
    6.4077    3.9547   28.3175 H   0  0  0  0  0  0  0  0  0  0  0  0
    5.4596    1.2122   25.1695 H   0  0  0  0  0  0  0  0  0  0  0  0
    7.0901    0.6167   23.1017 N   0  0  0  0  0  0  0  0  0  0  0  0
    7.8518    0.2721   22.0377 N   0  0  0  0  0  0  0  0  0  0  0  0
    7.3389   -0.6780   21.0462 C   0  0  0  0  0  0  0  0  0  0  0  0
    6.6486   -0.0035   19.8799 C   0  0  0  0  0  0  0  0  0  0  0  0
    5.4461    0.6777   20.1061 C   0  0  0  0  0  0  0  0  0  0  0  0
    4.8310    1.3294   19.0391 C   0  0  0  0  0  0  0  0  0  0  0  0
    5.4490    1.2841   17.7867 C   0  0  0  0  0  0  0  0  0  0  0  0
    6.5942    0.6254   17.5461 N   0  0  0  0  0  0  0  0  0  0  0  0
    7.1686   -0.0046   18.5792 C   0  0  0  0  0  0  0  0  0  0  0  0
    8.0879   -0.5549   18.3528 H   0  0  0  0  0  0  0  0  0  0  0  0
    5.0024    1.7915   16.9345 H   0  0  0  0  0  0  0  0  0  0  0  0
    3.8981    1.8692   19.1669 H   0  0  0  0  0  0  0  0  0  0  0  0
    5.0206    0.6963   21.1114 H   0  0  0  0  0  0  0  0  0  0  0  0
    6.6302   -1.3128   21.5860 H   0  0  0  0  0  0  0  0  0  0  0  0
    8.1633   -1.3146   20.7037 H   0  0  0  0  0  0  0  0  0  0  0  0
   10.7653    1.6596   21.1198 H   0  0  0  0  0  0  0  0  0  0  0  0
    9.7830    0.6014   20.1241 H   0  0  0  0  0  0  0  0  0  0  0  0
   11.7698   -0.6842   20.9693 H   0  0  0  0  0  0  0  0  0  0  0  0
   10.3034   -1.3613   21.6261 H   0  0  0  0  0  0  0  0  0  0  0  0
    9.8115   -1.1080   24.3785 H   0  0  0  0  0  0  0  0  0  0  0  0
   11.3603    0.0449   26.3424 H   0  0  0  0  0  0  0  0  0  0  0  0
   14.0783    1.7143   23.0748 H   0  0  0  0  0  0  0  0  0  0  0  0
   14.2015    0.2113   22.1221 H   0  0  0  0  0  0  0  0  0  0  0  0
   12.9781    1.4426   21.7048 H   0  0  0  0  0  0  0  0  0  0  0  0
  1  2  1  0
  2  3  1  0
  3  4  2  0
  4  5  1  0
  5  6  2  0
  6  7  1  0
  7  8  1  0
  8  9  1  0
  9 10  2  0
 10 11  1  0
 11 12  1  0
 12 13  2  0
 13 14  1  0
 14 15  1  0
 14 16  2  0
 16 17  1  0
 17 18  2  0
 18 19  1  0
 17 20  1  0
 16 21  1  0
 13 22  1  0
 11 23  2  0
 23 24  1  0
 24 25  1  0
 25 26  1  0
 26 27  2  0
 27 28  1  0
 28 29  2  0
 29 30  1  0
 30 31  2  0
 31 32  1  0
 29 33  1  0
 28 34  1  0
 27 35  1  0
 25 36  1  0
 25 37  1  0
  8 38  1  0
  8 39  1  0
  7 40  1  0
  7 41  1  0
  5 42  1  0
  4 43  1  0
  1 44  1  0
  1 45  1  0
  1 46  1  0
  6  2  1  0
 24  9  1  0
 31 26  1  0
 18 12  1  0
M  END
>  <cnnaffinity>  (1) 
-5.73805

>  <filename>  (1) 
Cn1nccc1CCc1nc(-c2cccc(F)c2)nn1Cc1cccnc1

$$$$
