
     RDKit          3D

 32 34  0  0  0  0  0  0  0  0999 V2000
    7.0905   -1.5802   24.3440 C   0  0  0  0  0  0  0  0  0  0  0  0
    7.4109   -1.3884   22.9392 N   0  0  0  0  0  0  0  0  0  0  0  0
    6.4901   -0.7503   22.1884 N   0  0  0  0  0  0  0  0  0  0  0  0
    7.0362   -0.7182   20.9897 C   0  0  0  0  0  0  0  0  0  0  0  0
    6.4085   -0.0270   19.8614 C   0  0  0  0  0  0  0  0  0  0  0  0
    5.2138    0.7121   19.9806 C   0  0  0  0  0  0  0  0  0  0  0  0
    4.7562    1.3982   18.8612 C   0  0  0  0  0  0  0  0  0  0  0  0
    5.4879    1.3238   17.6712 C   0  0  0  0  0  0  0  0  0  0  0  0
    6.6183    0.6112   17.5441 N   0  0  0  0  0  0  0  0  0  0  0  0
    7.0645   -0.0394   18.6240 C   0  0  0  0  0  0  0  0  0  0  0  0
    7.9952   -0.5925   18.5002 H   0  0  0  0  0  0  0  0  0  0  0  0
    5.1504    1.8535   16.7824 H   0  0  0  0  0  0  0  0  0  0  0  0
    3.8581    2.0069   18.8970 H   0  0  0  0  0  0  0  0  0  0  0  0
    4.6765    0.7597   20.9322 H   0  0  0  0  0  0  0  0  0  0  0  0
    8.2597   -1.3106   20.9220 N   0  0  0  0  0  0  0  0  0  0  0  0
    8.4828   -1.6931   22.1679 C   0  0  0  0  0  0  0  0  0  0  0  0
    9.7593   -2.2721   22.7256 C   0  0  0  0  0  0  0  0  0  0  0  0
   10.6605   -1.2473   23.4081 C   0  0  0  0  0  0  0  0  0  0  0  0
   10.4757   -0.8591   24.7433 C   0  0  0  0  0  0  0  0  0  0  0  0
   11.1812    0.0829   25.3746 N   0  0  0  0  0  0  0  0  0  0  0  0
   12.1711    0.6707   24.6920 C   0  0  0  0  0  0  0  0  0  0  0  0
   12.4883    0.3547   23.3735 C   0  0  0  0  0  0  0  0  0  0  0  0
   11.7033   -0.6019   22.7274 C   0  0  0  0  0  0  0  0  0  0  0  0
   12.0163   -0.9863   21.0651 Cl  0  0  0  0  0  0  0  0  0  0  0  0
   13.3193    0.8400   22.8777 H   0  0  0  0  0  0  0  0  0  0  0  0
   12.7391    1.4262   25.2267 H   0  0  0  0  0  0  0  0  0  0  0  0
    9.7040   -1.3487   25.3389 H   0  0  0  0  0  0  0  0  0  0  0  0
   10.2877   -2.7566   21.9039 H   0  0  0  0  0  0  0  0  0  0  0  0
    9.5163   -3.0819   23.4216 H   0  0  0  0  0  0  0  0  0  0  0  0
    7.2644   -0.6608   24.9163 H   0  0  0  0  0  0  0  0  0  0  0  0
    6.0282   -1.8279   24.4027 H   0  0  0  0  0  0  0  0  0  0  0  0
    7.6634   -2.4037   24.7763 H   0  0  0  0  0  0  0  0  0  0  0  0
  1  2  1  0
  2  3  1  0
  3  4  2  0
  4  5  1  0
  5  6  2  0
  6  7  1  0
  7  8  2  0
  8  9  1  0
  9 10  2  0
 10 11  1  0
  8 12  1  0
  7 13  1  0
  6 14  1  0
  4 15  1  0
 15 16  2  0
 16 17  1  0
 17 18  1  0
 18 19  2  0
 19 20  1  0
 20 21  2  0
 21 22  1  0
 22 23  2  0
 23 24  1  0
 22 25  1  0
 21 26  1  0
 19 27  1  0
 17 28  1  0
 17 29  1  0
  1 30  1  0
  1 31  1  0
  1 32  1  0
 16  2  1  0
 23 18  1  0
 10  5  1  0
M  END
>  <cnnaffinity>  (1) 
-5.66829

>  <filename>  (1) 
Cn1nc(-c2cccnc2)nc1Cc1cnccc1Cl

$$$$
