
     RDKit          3D

 43 46  0  0  0  0  0  0  0  0999 V2000
    8.9936    1.4419   25.2578 C   0  0  0  0  0  0  0  0  0  0  0  0
    7.6255    0.9658   25.2883 N   0  0  0  0  0  0  0  0  0  0  0  0
    7.2524    0.2306   26.3450 N   0  0  0  0  0  0  0  0  0  0  0  0
    5.9862   -0.0881   26.1152 C   0  0  0  0  0  0  0  0  0  0  0  0
    5.5378    0.4456   24.8927 C   0  0  0  0  0  0  0  0  0  0  0  0
    6.6336    1.0883   24.3585 C   0  0  0  0  0  0  0  0  0  0  0  0
    6.8497    1.6668   22.9764 C   0  0  0  0  0  0  0  0  0  0  0  0
    7.8697    0.9001   22.1832 C   0  0  0  0  0  0  0  0  0  0  0  0
    9.1484    1.1813   22.2455 N   0  0  0  0  0  0  0  0  0  0  0  0
    9.7562    0.0349   21.8224 C   0  0  0  0  0  0  0  0  0  0  0  0
   11.2077   -0.1050   22.0562 C   0  0  0  0  0  0  0  0  0  0  0  0
   11.9772   -1.1692   21.5530 C   0  0  0  0  0  0  0  0  0  0  0  0
   13.3468   -1.1628   21.8069 C   0  0  0  0  0  0  0  0  0  0  0  0
   14.1123   -2.1261   21.2843 F   0  0  0  0  0  0  0  0  0  0  0  0
   13.9797   -0.1705   22.5537 C   0  0  0  0  0  0  0  0  0  0  0  0
   13.1887    0.8604   23.0390 C   0  0  0  0  0  0  0  0  0  0  0  0
   13.7578    1.8652   23.7108 F   0  0  0  0  0  0  0  0  0  0  0  0
   11.8224    0.8941   22.8351 C   0  0  0  0  0  0  0  0  0  0  0  0
   11.2361    1.7027   23.2578 H   0  0  0  0  0  0  0  0  0  0  0  0
   15.0377   -0.1736   22.7439 H   0  0  0  0  0  0  0  0  0  0  0  0
   11.5290   -1.9812   20.9914 H   0  0  0  0  0  0  0  0  0  0  0  0
    8.9159   -0.8711   21.3533 N   0  0  0  0  0  0  0  0  0  0  0  0
    7.6983   -0.3109   21.6071 N   0  0  0  0  0  0  0  0  0  0  0  0
    6.4838   -0.8756   21.0294 C   0  0  0  0  0  0  0  0  0  0  0  0
    6.0098   -0.0782   19.8297 C   0  0  0  0  0  0  0  0  0  0  0  0
    4.8373    0.6837   19.7981 C   0  0  0  0  0  0  0  0  0  0  0  0
    4.5866    1.4813   18.6755 C   0  0  0  0  0  0  0  0  0  0  0  0
    5.4942    1.4552   17.6136 C   0  0  0  0  0  0  0  0  0  0  0  0
    6.6104    0.7113   17.6136 N   0  0  0  0  0  0  0  0  0  0  0  0
    6.8581   -0.0140   18.7098 C   0  0  0  0  0  0  0  0  0  0  0  0
    7.7975   -0.5668   18.7223 H   0  0  0  0  0  0  0  0  0  0  0  0
    5.3231    2.0583   16.7221 H   0  0  0  0  0  0  0  0  0  0  0  0
    3.7233    2.1372   18.6199 H   0  0  0  0  0  0  0  0  0  0  0  0
    4.1294    0.6646   20.6317 H   0  0  0  0  0  0  0  0  0  0  0  0
    5.7190   -0.9227   21.8087 H   0  0  0  0  0  0  0  0  0  0  0  0
    6.7317   -1.9046   20.7540 H   0  0  0  0  0  0  0  0  0  0  0  0
    5.8988    1.7091   22.4412 H   0  0  0  0  0  0  0  0  0  0  0  0
    7.2240    2.6923   23.0516 H   0  0  0  0  0  0  0  0  0  0  0  0
    4.5532    0.3769   24.4554 H   0  0  0  0  0  0  0  0  0  0  0  0
    5.4556   -0.7103   26.8237 H   0  0  0  0  0  0  0  0  0  0  0  0
    9.0768    2.2448   24.5289 H   0  0  0  0  0  0  0  0  0  0  0  0
    9.2661    1.8052   26.2477 H   0  0  0  0  0  0  0  0  0  0  0  0
    9.6667    0.6282   24.9732 H   0  0  0  0  0  0  0  0  0  0  0  0
  1  2  1  0
  2  3  1  0
  3  4  2  0
  4  5  1  0
  5  6  2  0
  6  7  1  0
  7  8  1  0
  8  9  2  0
  9 10  1  0
 10 11  1  0
 11 12  2  0
 12 13  1  0
 13 14  1  0
 13 15  2  0
 15 16  1  0
 16 17  1  0
 16 18  2  0
 18 19  1  0
 15 20  1  0
 12 21  1  0
 10 22  2  0
 22 23  1  0
 23 24  1  0
 24 25  1  0
 25 26  2  0
 26 27  1  0
 27 28  2  0
 28 29  1  0
 29 30  2  0
 30 31  1  0
 28 32  1  0
 27 33  1  0
 26 34  1  0
 24 35  1  0
 24 36  1  0
  7 37  1  0
  7 38  1  0
  5 39  1  0
  4 40  1  0
  1 41  1  0
  1 42  1  0
  1 43  1  0
  6  2  1  0
 23  8  1  0
 30 25  1  0
 18 11  1  0
M  END
>  <cnnaffinity>  (1) 
-6.5535

>  <filename>  (1) 
Cn1nccc1Cc1nc(-c2cc(F)cc(F)c2)nn1Cc1cccnc1

$$$$
