
     RDKit          3D

 43 46  0  0  0  0  0  0  0  0999 V2000
   11.2355   -1.2682   21.7205 C   0  0  0  0  0  0  0  0  0  0  0  0
   11.7797    0.0660   21.8084 N   0  0  0  0  0  0  0  0  0  0  0  0
   12.9848    0.2333   22.3760 N   0  0  0  0  0  0  0  0  0  0  0  0
   13.1796    1.5437   22.3895 C   0  0  0  0  0  0  0  0  0  0  0  0
   12.0877    2.2289   21.8205 C   0  0  0  0  0  0  0  0  0  0  0  0
   11.1929    1.2452   21.4695 C   0  0  0  0  0  0  0  0  0  0  0  0
    9.7652    1.4022   21.0080 C   0  0  0  0  0  0  0  0  0  0  0  0
    8.7659    1.1478   22.0886 C   0  0  0  0  0  0  0  0  0  0  0  0
    8.7159    1.8587   23.1923 N   0  0  0  0  0  0  0  0  0  0  0  0
    7.6736    1.3161   23.8727 C   0  0  0  0  0  0  0  0  0  0  0  0
    7.2399    1.8424   25.1801 C   0  0  0  0  0  0  0  0  0  0  0  0
    7.9701    2.8847   25.7889 C   0  0  0  0  0  0  0  0  0  0  0  0
    7.5842    3.3687   27.0383 C   0  0  0  0  0  0  0  0  0  0  0  0
    6.4738    2.8218   27.6896 C   0  0  0  0  0  0  0  0  0  0  0  0
    5.7408    1.7929   27.0859 C   0  0  0  0  0  0  0  0  0  0  0  0
    6.1150    1.3041   25.8342 C   0  0  0  0  0  0  0  0  0  0  0  0
    5.5591    0.4970   25.3571 H   0  0  0  0  0  0  0  0  0  0  0  0
    4.8801    1.3634   27.5909 H   0  0  0  0  0  0  0  0  0  0  0  0
    6.1799    3.1961   28.6669 H   0  0  0  0  0  0  0  0  0  0  0  0
    8.1539    4.1699   27.5018 H   0  0  0  0  0  0  0  0  0  0  0  0
    8.8405    3.2923   25.2767 H   0  0  0  0  0  0  0  0  0  0  0  0
    7.0856    0.3111   23.2385 N   0  0  0  0  0  0  0  0  0  0  0  0
    7.8006    0.1989   22.0951 N   0  0  0  0  0  0  0  0  0  0  0  0
    7.3683   -0.7105   21.0303 C   0  0  0  0  0  0  0  0  0  0  0  0
    6.6541   -0.0078   19.8838 C   0  0  0  0  0  0  0  0  0  0  0  0
    5.4425    0.6555   20.1303 C   0  0  0  0  0  0  0  0  0  0  0  0
    4.8065    1.3138   19.0763 C   0  0  0  0  0  0  0  0  0  0  0  0
    5.4071    1.2960   17.8160 C   0  0  0  0  0  0  0  0  0  0  0  0
    6.5568    0.6581   17.5529 N   0  0  0  0  0  0  0  0  0  0  0  0
    7.1561    0.0272   18.5723 C   0  0  0  0  0  0  0  0  0  0  0  0
    8.0946   -0.4721   18.3168 H   0  0  0  0  0  0  0  0  0  0  0  0
    4.9450    1.8176   16.9810 H   0  0  0  0  0  0  0  0  0  0  0  0
    3.8721    1.8456   19.2173 H   0  0  0  0  0  0  0  0  0  0  0  0
    5.0166    0.6696   21.1355 H   0  0  0  0  0  0  0  0  0  0  0  0
    6.7033   -1.4341   21.5137 H   0  0  0  0  0  0  0  0  0  0  0  0
    8.2406   -1.2765   20.6782 H   0  0  0  0  0  0  0  0  0  0  0  0
    9.5356    0.7850   20.1356 H   0  0  0  0  0  0  0  0  0  0  0  0
    9.6205    2.4498   20.7254 H   0  0  0  0  0  0  0  0  0  0  0  0
   11.9341    3.2917   21.6918 H   0  0  0  0  0  0  0  0  0  0  0  0
   14.0992    1.9375   22.7970 H   0  0  0  0  0  0  0  0  0  0  0  0
   12.0401   -1.9829   21.8871 H   0  0  0  0  0  0  0  0  0  0  0  0
   10.4563   -1.4190   22.4699 H   0  0  0  0  0  0  0  0  0  0  0  0
   10.8220   -1.4326   20.7296 H   0  0  0  0  0  0  0  0  0  0  0  0
  1  2  1  0
  2  3  1  0
  3  4  2  0
  4  5  1  0
  5  6  2  0
  6  7  1  0
  7  8  1  0
  8  9  2  0
  9 10  1  0
 10 11  1  0
 11 12  2  0
 12 13  1  0
 13 14  2  0
 14 15  1  0
 15 16  2  0
 16 17  1  0
 15 18  1  0
 14 19  1  0
 13 20  1  0
 12 21  1  0
 10 22  2  0
 22 23  1  0
 23 24  1  0
 24 25  1  0
 25 26  2  0
 26 27  1  0
 27 28  2  0
 28 29  1  0
 29 30  2  0
 30 31  1  0
 28 32  1  0
 27 33  1  0
 26 34  1  0
 24 35  1  0
 24 36  1  0
  7 37  1  0
  7 38  1  0
  5 39  1  0
  4 40  1  0
  1 41  1  0
  1 42  1  0
  1 43  1  0
  6  2  1  0
 23  8  1  0
 30 25  1  0
 16 11  1  0
M  END
>  <cnnaffinity>  (1) 
-6.26843

>  <filename>  (1) 
Cn1nccc1Cc1nc(-c2ccccc2)nn1Cc1cccnc1

$$$$
