
     RDKit          3D

 43 46  0  0  0  0  0  0  0  0999 V2000
   11.2349   -1.2714   21.7242 C   0  0  0  0  0  0  0  0  0  0  0  0
   11.7793    0.0630   21.8103 N   0  0  0  0  0  0  0  0  0  0  0  0
   12.9845    0.2301   22.3778 N   0  0  0  0  0  0  0  0  0  0  0  0
   13.1803    1.5405   22.3906 C   0  0  0  0  0  0  0  0  0  0  0  0
   12.0885    2.2259   21.8210 C   0  0  0  0  0  0  0  0  0  0  0  0
   11.1935    1.2425   21.4706 C   0  0  0  0  0  0  0  0  0  0  0  0
    9.7663    1.4028   21.0088 C   0  0  0  0  0  0  0  0  0  0  0  0
    8.7667    1.1476   22.0878 C   0  0  0  0  0  0  0  0  0  0  0  0
    8.7152    1.8602   23.1905 N   0  0  0  0  0  0  0  0  0  0  0  0
    7.6730    1.3180   23.8712 C   0  0  0  0  0  0  0  0  0  0  0  0
    7.2395    1.8445   25.1763 C   0  0  0  0  0  0  0  0  0  0  0  0
    7.9660    2.8858   25.7875 C   0  0  0  0  0  0  0  0  0  0  0  0
    7.5878    3.3764   27.0347 C   0  0  0  0  0  0  0  0  0  0  0  0
    6.4759    2.8218   27.6748 C   0  0  0  0  0  0  0  0  0  0  0  0
    6.0039    3.4232   29.2351 Cl  0  0  0  0  0  0  0  0  0  0  0  0
    5.7354    1.7936   27.0832 C   0  0  0  0  0  0  0  0  0  0  0  0
    6.1157    1.3099   25.8332 C   0  0  0  0  0  0  0  0  0  0  0  0
    5.5607    0.5039   25.3570 H   0  0  0  0  0  0  0  0  0  0  0  0
    4.8789    1.3770   27.6014 H   0  0  0  0  0  0  0  0  0  0  0  0
    8.1454    4.1755   27.5108 H   0  0  0  0  0  0  0  0  0  0  0  0
    8.8351    3.2920   25.2746 H   0  0  0  0  0  0  0  0  0  0  0  0
    7.0850    0.3127   23.2378 N   0  0  0  0  0  0  0  0  0  0  0  0
    7.8005    0.1993   22.0945 N   0  0  0  0  0  0  0  0  0  0  0  0
    7.3682   -0.7103   21.0302 C   0  0  0  0  0  0  0  0  0  0  0  0
    6.6536   -0.0080   19.8841 C   0  0  0  0  0  0  0  0  0  0  0  0
    5.4422    0.6548   20.1311 C   0  0  0  0  0  0  0  0  0  0  0  0
    4.8066    1.3130   19.0763 C   0  0  0  0  0  0  0  0  0  0  0  0
    5.4075    1.2956   17.8160 C   0  0  0  0  0  0  0  0  0  0  0  0
    6.5568    0.6577   17.5525 N   0  0  0  0  0  0  0  0  0  0  0  0
    7.1557    0.0265   18.5724 C   0  0  0  0  0  0  0  0  0  0  0  0
    8.0939   -0.4737   18.3177 H   0  0  0  0  0  0  0  0  0  0  0  0
    4.9453    1.8172   16.9811 H   0  0  0  0  0  0  0  0  0  0  0  0
    3.8726    1.8440   19.2172 H   0  0  0  0  0  0  0  0  0  0  0  0
    5.0156    0.6695   21.1361 H   0  0  0  0  0  0  0  0  0  0  0  0
    8.2411   -1.2768   20.6799 H   0  0  0  0  0  0  0  0  0  0  0  0
    6.7030   -1.4329   21.5149 H   0  0  0  0  0  0  0  0  0  0  0  0
    9.5352    0.7877   20.1357 H   0  0  0  0  0  0  0  0  0  0  0  0
    9.6240    2.4521   20.7309 H   0  0  0  0  0  0  0  0  0  0  0  0
   11.9369    3.2886   21.6907 H   0  0  0  0  0  0  0  0  0  0  0  0
   14.1002    1.9333   22.7979 H   0  0  0  0  0  0  0  0  0  0  0  0
   10.4542   -1.4209   22.4725 H   0  0  0  0  0  0  0  0  0  0  0  0
   10.8233   -1.4372   20.7328 H   0  0  0  0  0  0  0  0  0  0  0  0
   12.0399   -1.9852   21.8932 H   0  0  0  0  0  0  0  0  0  0  0  0
  1  2  1  0
  2  3  1  0
  3  4  2  0
  4  5  1  0
  5  6  2  0
  6  7  1  0
  7  8  1  0
  8  9  2  0
  9 10  1  0
 10 11  1  0
 11 12  2  0
 12 13  1  0
 13 14  2  0
 14 15  1  0
 14 16  1  0
 16 17  2  0
 17 18  1  0
 16 19  1  0
 13 20  1  0
 12 21  1  0
 10 22  2  0
 22 23  1  0
 23 24  1  0
 24 25  1  0
 25 26  2  0
 26 27  1  0
 27 28  2  0
 28 29  1  0
 29 30  2  0
 30 31  1  0
 28 32  1  0
 27 33  1  0
 26 34  1  0
 24 35  1  0
 24 36  1  0
  7 37  1  0
  7 38  1  0
  5 39  1  0
  4 40  1  0
  1 41  1  0
  1 42  1  0
  1 43  1  0
  6  2  1  0
 23  8  1  0
 30 25  1  0
 17 11  1  0
M  END
>  <cnnaffinity>  (1) 
-5.99906

>  <filename>  (1) 
Cn1nccc1Cc1nc(-c2ccc(Cl)cc2)nn1Cc1cccnc1

$$$$
