
     RDKit          3D

 43 46  0  0  0  0  0  0  0  0999 V2000
   11.2337   -1.2703   21.7238 C   0  0  0  0  0  0  0  0  0  0  0  0
   11.7785    0.0641   21.8104 N   0  0  0  0  0  0  0  0  0  0  0  0
   12.9842    0.2310   22.3773 N   0  0  0  0  0  0  0  0  0  0  0  0
   13.1804    1.5412   22.3904 C   0  0  0  0  0  0  0  0  0  0  0  0
   12.0884    2.2271   21.8217 C   0  0  0  0  0  0  0  0  0  0  0  0
   11.1928    1.2438   21.4712 C   0  0  0  0  0  0  0  0  0  0  0  0
    9.7651    1.4021   21.0096 C   0  0  0  0  0  0  0  0  0  0  0  0
    8.7662    1.1485   22.0897 C   0  0  0  0  0  0  0  0  0  0  0  0
    8.7150    1.8598   23.1938 N   0  0  0  0  0  0  0  0  0  0  0  0
    7.6725    1.3168   23.8731 C   0  0  0  0  0  0  0  0  0  0  0  0
    7.2405    1.8419   25.1767 C   0  0  0  0  0  0  0  0  0  0  0  0
    6.1161    1.3062   25.8343 C   0  0  0  0  0  0  0  0  0  0  0  0
    5.7354    1.7887   27.0837 C   0  0  0  0  0  0  0  0  0  0  0  0
    6.4817    2.8134   27.6624 C   0  0  0  0  0  0  0  0  0  0  0  0
    6.1203    3.2800   28.8662 F   0  0  0  0  0  0  0  0  0  0  0  0
    7.5916    3.3750   27.0336 C   0  0  0  0  0  0  0  0  0  0  0  0
    7.9675    2.8833   25.7871 C   0  0  0  0  0  0  0  0  0  0  0  0
    8.8357    3.2883   25.2714 H   0  0  0  0  0  0  0  0  0  0  0  0
    8.1366    4.1732   27.5237 H   0  0  0  0  0  0  0  0  0  0  0  0
    4.8818    1.3827   27.6153 H   0  0  0  0  0  0  0  0  0  0  0  0
    5.5631    0.5007   25.3553 H   0  0  0  0  0  0  0  0  0  0  0  0
    7.0843    0.3125   23.2387 N   0  0  0  0  0  0  0  0  0  0  0  0
    7.7996    0.2006   22.0952 N   0  0  0  0  0  0  0  0  0  0  0  0
    7.3682   -0.7091   21.0311 C   0  0  0  0  0  0  0  0  0  0  0  0
    6.6540   -0.0067   19.8849 C   0  0  0  0  0  0  0  0  0  0  0  0
    5.4424    0.6565   20.1316 C   0  0  0  0  0  0  0  0  0  0  0  0
    4.8067    1.3143   19.0768 C   0  0  0  0  0  0  0  0  0  0  0  0
    5.4076    1.2959   17.8166 C   0  0  0  0  0  0  0  0  0  0  0  0
    6.5571    0.6579   17.5538 N   0  0  0  0  0  0  0  0  0  0  0  0
    7.1563    0.0273   18.5736 C   0  0  0  0  0  0  0  0  0  0  0  0
    8.0945   -0.4727   18.3189 H   0  0  0  0  0  0  0  0  0  0  0  0
    4.9458    1.8170   16.9811 H   0  0  0  0  0  0  0  0  0  0  0  0
    3.8725    1.8452   19.2172 H   0  0  0  0  0  0  0  0  0  0  0  0
    5.0164    0.6708   21.1369 H   0  0  0  0  0  0  0  0  0  0  0  0
    6.7026   -1.4310   21.5167 H   0  0  0  0  0  0  0  0  0  0  0  0
    8.2414   -1.2754   20.6815 H   0  0  0  0  0  0  0  0  0  0  0  0
    9.5341    0.7835   20.1384 H   0  0  0  0  0  0  0  0  0  0  0  0
    9.6209    2.4502   20.7278 H   0  0  0  0  0  0  0  0  0  0  0  0
   11.9372    3.2897   21.6914 H   0  0  0  0  0  0  0  0  0  0  0  0
   14.1008    1.9334   22.7973 H   0  0  0  0  0  0  0  0  0  0  0  0
   10.8221   -1.4357   20.7322 H   0  0  0  0  0  0  0  0  0  0  0  0
   12.0387   -1.9842   21.8928 H   0  0  0  0  0  0  0  0  0  0  0  0
   10.4528   -1.4199   22.4720 H   0  0  0  0  0  0  0  0  0  0  0  0
  1  2  1  0
  2  3  1  0
  3  4  2  0
  4  5  1  0
  5  6  2  0
  6  7  1  0
  7  8  1  0
  8  9  2  0
  9 10  1  0
 10 11  1  0
 11 12  2  0
 12 13  1  0
 13 14  2  0
 14 15  1  0
 14 16  1  0
 16 17  2  0
 17 18  1  0
 16 19  1  0
 13 20  1  0
 12 21  1  0
 10 22  2  0
 22 23  1  0
 23 24  1  0
 24 25  1  0
 25 26  2  0
 26 27  1  0
 27 28  2  0
 28 29  1  0
 29 30  2  0
 30 31  1  0
 28 32  1  0
 27 33  1  0
 26 34  1  0
 24 35  1  0
 24 36  1  0
  7 37  1  0
  7 38  1  0
  5 39  1  0
  4 40  1  0
  1 41  1  0
  1 42  1  0
  1 43  1  0
  6  2  1  0
 23  8  1  0
 30 25  1  0
 17 11  1  0
M  END
>  <cnnaffinity>  (1) 
-5.91357

>  <filename>  (1) 
Cn1nccc1Cc1nc(-c2ccc(F)cc2)nn1Cc1cccnc1

$$$$
