
     RDKit          3D

 49 52  0  0  0  0  0  0  0  0999 V2000
    5.6199    3.5720   22.7295 C   0  0  0  0  0  0  0  0  0  0  0  0
    5.4975    2.3496   23.4924 N   0  0  0  0  0  0  0  0  0  0  0  0
    4.4765    2.1596   24.3347 N   0  0  0  0  0  0  0  0  0  0  0  0
    4.6842    0.9513   24.8596 C   0  0  0  0  0  0  0  0  0  0  0  0
    3.8230    0.3392   25.9388 C   0  0  0  0  0  0  0  0  0  0  0  0
    3.7168   -1.0011   25.7729 F   0  0  0  0  0  0  0  0  0  0  0  0
    2.5872    0.8471   25.9660 F   0  0  0  0  0  0  0  0  0  0  0  0
    4.3726    0.5185   27.1575 F   0  0  0  0  0  0  0  0  0  0  0  0
    5.8482    0.3658   24.3383 C   0  0  0  0  0  0  0  0  0  0  0  0
    6.3428    1.2881   23.4511 C   0  0  0  0  0  0  0  0  0  0  0  0
    7.5883    1.1897   22.6148 C   0  0  0  0  0  0  0  0  0  0  0  0
    7.8197   -0.2019   22.1234 C   0  0  0  0  0  0  0  0  0  0  0  0
    8.4437   -1.1536   22.7859 N   0  0  0  0  0  0  0  0  0  0  0  0
    8.3384   -2.2260   21.9535 C   0  0  0  0  0  0  0  0  0  0  0  0
    8.9277   -3.5538   22.2765 C   0  0  0  0  0  0  0  0  0  0  0  0
    8.6432   -4.1132   23.6753 C   0  0  0  0  0  0  0  0  0  0  0  0
    7.1432   -4.1009   24.0407 C   0  0  0  0  0  0  0  0  0  0  0  0
    7.0819   -3.7926   25.5430 C   0  0  0  0  0  0  0  0  0  0  0  0
    8.3145   -2.9178   25.8218 C   0  0  0  0  0  0  0  0  0  0  0  0
    9.3888   -3.3707   24.8166 C   0  0  0  0  0  0  0  0  0  0  0  0
    9.9757   -2.5226   24.4530 H   0  0  0  0  0  0  0  0  0  0  0  0
   10.1125   -4.0474   25.2885 H   0  0  0  0  0  0  0  0  0  0  0  0
    8.0717   -1.8595   25.6545 H   0  0  0  0  0  0  0  0  0  0  0  0
    8.6608   -3.0080   26.8565 H   0  0  0  0  0  0  0  0  0  0  0  0
    7.1383   -4.7247   26.1184 H   0  0  0  0  0  0  0  0  0  0  0  0
    6.1444   -3.2969   25.8257 H   0  0  0  0  0  0  0  0  0  0  0  0
    6.6174   -3.3259   23.4683 H   0  0  0  0  0  0  0  0  0  0  0  0
    6.6610   -5.0511   23.7873 H   0  0  0  0  0  0  0  0  0  0  0  0
    8.9969   -5.1519   23.6744 H   0  0  0  0  0  0  0  0  0  0  0  0
   10.0041   -3.3849   22.1966 H   0  0  0  0  0  0  0  0  0  0  0  0
    8.5828   -4.2463   21.5052 H   0  0  0  0  0  0  0  0  0  0  0  0
    7.7556   -1.9764   20.7998 N   0  0  0  0  0  0  0  0  0  0  0  0
    7.3758   -0.6754   20.9273 N   0  0  0  0  0  0  0  0  0  0  0  0
    6.6543    0.0011   19.9064 C   0  0  0  0  0  0  0  0  0  0  0  0
    5.4438    0.6556   20.1683 C   0  0  0  0  0  0  0  0  0  0  0  0
    4.8086    1.3131   19.1109 C   0  0  0  0  0  0  0  0  0  0  0  0
    5.4023    1.2937   17.8438 C   0  0  0  0  0  0  0  0  0  0  0  0
    6.5670    0.6706   17.5898 N   0  0  0  0  0  0  0  0  0  0  0  0
    7.1712    0.0376   18.5982 C   0  0  0  0  0  0  0  0  0  0  0  0
    8.1204   -0.4434   18.3762 H   0  0  0  0  0  0  0  0  0  0  0  0
    4.9236    1.7823   16.9979 H   0  0  0  0  0  0  0  0  0  0  0  0
    3.8737    1.8428   19.2566 H   0  0  0  0  0  0  0  0  0  0  0  0
    5.0110    0.6269   21.1696 H   0  0  0  0  0  0  0  0  0  0  0  0
    8.4407    1.4562   23.2448 H   0  0  0  0  0  0  0  0  0  0  0  0
    7.5589    1.8852   21.7692 H   0  0  0  0  0  0  0  0  0  0  0  0
    6.2732   -0.6125   24.5380 H   0  0  0  0  0  0  0  0  0  0  0  0
    6.6035    4.0161   22.8925 H   0  0  0  0  0  0  0  0  0  0  0  0
    4.8544    4.2639   23.0689 H   0  0  0  0  0  0  0  0  0  0  0  0
    5.4958    3.3751   21.6608 H   0  0  0  0  0  0  0  0  0  0  0  0
  1  2  1  0
  2  3  1  0
  3  4  2  0
  4  5  1  0
  5  6  1  0
  5  7  1  0
  5  8  1  0
  4  9  1  0
  9 10  2  0
 10 11  1  0
 11 12  1  0
 12 13  2  0
 13 14  1  0
 14 15  1  0
 15 16  1  0
 16 17  1  0
 17 18  1  0
 18 19  1  0
 19 20  1  0
 20 21  1  0
 20 22  1  0
 19 23  1  0
 19 24  1  0
 18 25  1  0
 18 26  1  0
 17 27  1  0
 17 28  1  0
 16 29  1  0
 15 30  1  0
 15 31  1  0
 14 32  2  0
 32 33  1  0
 33 34  1  0
 34 35  2  0
 35 36  1  0
 36 37  2  0
 37 38  1  0
 38 39  2  0
 39 40  1  0
 37 41  1  0
 36 42  1  0
 35 43  1  0
 11 44  1  0
 11 45  1  0
  9 46  1  0
  1 47  1  0
  1 48  1  0
  1 49  1  0
 10  2  1  0
 33 12  1  0
 39 34  1  0
 20 16  1  0
M  END
>  <cnnaffinity>  (1) 
-5.99157

>  <filename>  (1) 
Cn1nc(C(F)(F)F)cc1Cc1nc(CC2CCCC2)nn1-c1cccnc1

$$$$
