
     RDKit          3D

 22 23  0  0  0  0  0  0  0  0999 V2000
    4.9624    1.7799   17.0132 H   0  0  0  0  0  0  0  0  0  0  0  0
    5.4190    1.2779   17.8591 C   0  0  0  0  0  0  0  0  0  0  0  0
    6.5795    0.6494   17.6103 N   0  0  0  0  0  0  0  0  0  0  0  0
    7.1814    0.0293   18.6252 C   0  0  0  0  0  0  0  0  0  0  0  0
    8.1218   -0.4609   18.3748 H   0  0  0  0  0  0  0  0  0  0  0  0
    6.6538   -0.0104   19.9244 C   0  0  0  0  0  0  0  0  0  0  0  0
    7.3528   -0.6903   20.9478 N   0  0  0  0  0  0  0  0  0  0  0  0
    6.7598   -1.0607   22.0868 N   0  0  0  0  0  0  0  0  0  0  0  0
    7.6526   -1.6342   22.8374 N   0  0  0  0  0  0  0  0  0  0  0  0
    8.8347   -1.6201   22.1805 C   0  0  0  0  0  0  0  0  0  0  0  0
    9.9679   -2.1193   22.7453 N   0  0  0  0  0  0  0  0  0  0  0  0
    9.7997   -2.5401   23.6382 H   0  0  0  0  0  0  0  0  0  0  0  0
   11.2133   -2.0752   22.0321 C   0  0  0  0  0  0  0  0  0  0  0  0
   11.0460   -2.3896   20.9942 H   0  0  0  0  0  0  0  0  0  0  0  0
   11.9588   -2.7401   22.4702 H   0  0  0  0  0  0  0  0  0  0  0  0
   11.6127   -1.0536   22.0080 H   0  0  0  0  0  0  0  0  0  0  0  0
    8.6695   -1.0425   20.9597 C   0  0  0  0  0  0  0  0  0  0  0  0
    9.3791   -0.8593   20.1817 H   0  0  0  0  0  0  0  0  0  0  0  0
    5.4396    0.6450   20.1821 C   0  0  0  0  0  0  0  0  0  0  0  0
    5.0108    0.6283   21.1852 H   0  0  0  0  0  0  0  0  0  0  0  0
    4.8162    1.2999   19.1218 C   0  0  0  0  0  0  0  0  0  0  0  0
    3.8819    1.8348   19.2594 H   0  0  0  0  0  0  0  0  0  0  0  0
  1  2  1  0
  2  3  2  0
  3  4  1  0
  4  5  1  0
  4  6  2  0
  6  7  1  0
  7  8  1  0
  8  9  2  0
  9 10  1  0
 10 11  1  0
 11 12  1  0
 11 13  1  0
 13 14  1  0
 13 15  1  0
 13 16  1  0
 10 17  2  0
 17 18  1  0
  6 19  1  0
 19 20  1  0
 19 21  2  0
 21 22  1  0
 21  2  1  0
 17  7  1  0
M  END
>  <cnnaffinity>  (1) 
-4.25736

>  <filename>  (1) 
CNc1cn(-c2cccnc2)nn1

$$$$
