
     RDKit          3D

 24 25  0  0  0  0  0  0  0  0999 V2000
    4.9350    1.7815   16.9993 H   0  0  0  0  0  0  0  0  0  0  0  0
    5.4085    1.2873   17.8453 C   0  0  0  0  0  0  0  0  0  0  0  0
    6.5720    0.6690   17.5874 N   0  0  0  0  0  0  0  0  0  0  0  0
    7.1892    0.0628   18.6068 C   0  0  0  0  0  0  0  0  0  0  0  0
    8.1289   -0.4398   18.3705 H   0  0  0  0  0  0  0  0  0  0  0  0
    6.6710    0.0153   19.9155 C   0  0  0  0  0  0  0  0  0  0  0  0
    7.3761   -0.6797   20.9377 N   0  0  0  0  0  0  0  0  0  0  0  0
    8.7455   -0.4893   21.2085 C   0  0  0  0  0  0  0  0  0  0  0  0
    9.3878    0.1661   20.6501 H   0  0  0  0  0  0  0  0  0  0  0  0
    9.0537   -1.2905   22.2428 C   0  0  0  0  0  0  0  0  0  0  0  0
   10.2363   -1.5333   22.8710 N   0  0  0  0  0  0  0  0  0  0  0  0
   10.2460   -2.1932   23.6311 H   0  0  0  0  0  0  0  0  0  0  0  0
   11.4196   -0.8260   22.4239 C   0  0  0  0  0  0  0  0  0  0  0  0
   11.6460   -1.0446   21.3674 H   0  0  0  0  0  0  0  0  0  0  0  0
   11.2883    0.2650   22.5095 H   0  0  0  0  0  0  0  0  0  0  0  0
   12.3074   -1.0927   23.0023 H   0  0  0  0  0  0  0  0  0  0  0  0
    7.9035   -1.9468   22.6114 N   0  0  0  0  0  0  0  0  0  0  0  0
    7.7973   -2.6599   23.3041 H   0  0  0  0  0  0  0  0  0  0  0  0
    6.8882   -1.6938   21.7346 C   0  0  0  0  0  0  0  0  0  0  0  0
    5.5058   -2.6105   21.6304 S   0  0  0  0  0  0  0  0  0  0  0  0
    5.4479    0.6428   20.1743 C   0  0  0  0  0  0  0  0  0  0  0  0
    5.0143    0.6129   21.1729 H   0  0  0  0  0  0  0  0  0  0  0  0
    4.8201    1.3025   19.1138 C   0  0  0  0  0  0  0  0  0  0  0  0
    3.8880    1.8294   19.2593 H   0  0  0  0  0  0  0  0  0  0  0  0
  1  2  1  0
  2  3  2  0
  3  4  1  0
  4  5  1  0
  4  6  2  0
  6  7  1  0
  7  8  1  0
  8  9  1  0
  8 10  2  0
 10 11  1  0
 11 12  1  0
 11 13  1  0
 13 14  1  0
 13 15  1  0
 13 16  1  0
 10 17  1  0
 17 18  1  0
 17 19  1  0
 19 20  2  0
  6 21  1  0
 21 22  1  0
 21 23  2  0
 23 24  1  0
 23  2  1  0
 19  7  1  0
M  END
>  <cnnaffinity>  (1) 
-4.48726

>  <filename>  (1) 
CNc1cn(-c2cccnc2)c(=S)[nH]1

$$$$
