
     RDKit          3D

 30 31  0  0  0  0  0  0  0  0999 V2000
    4.9471    1.7912   17.0064 H   0  0  0  0  0  0  0  0  0  0  0  0
    5.4208    1.2902   17.8454 C   0  0  0  0  0  0  0  0  0  0  0  0
    6.5854    0.6785   17.5780 N   0  0  0  0  0  0  0  0  0  0  0  0
    7.2004    0.0614   18.5958 C   0  0  0  0  0  0  0  0  0  0  0  0
    8.1436   -0.4332   18.3596 H   0  0  0  0  0  0  0  0  0  0  0  0
    6.6845   -0.0054   19.9090 C   0  0  0  0  0  0  0  0  0  0  0  0
    7.3663   -0.6992   20.9575 N   0  0  0  0  0  0  0  0  0  0  0  0
    6.7463   -1.6363   21.7687 C   0  0  0  0  0  0  0  0  0  0  0  0
    5.6434   -2.1106   21.5869 O   0  0  0  0  0  0  0  0  0  0  0  0
    7.7376   -2.0338   22.8514 C   0  0  0  0  0  0  0  0  0  0  0  0
    7.4284   -1.5904   23.8044 H   0  0  0  0  0  0  0  0  0  0  0  0
    7.6623   -3.1183   22.9585 H   0  0  0  0  0  0  0  0  0  0  0  0
    9.1061   -1.5294   22.3605 C   0  0  0  0  0  0  0  0  0  0  0  0
    9.6974   -1.0225   23.1333 H   0  0  0  0  0  0  0  0  0  0  0  0
    9.7345   -2.3520   22.0092 H   0  0  0  0  0  0  0  0  0  0  0  0
    8.8104   -0.5625   21.1846 C   0  0  2  0  0  0  0  0  0  0  0  0
    9.3615   -0.8935   20.2883 H   0  0  0  0  0  0  0  0  0  0  0  0
    9.1997    0.8968   21.4688 C   0  0  0  0  0  0  0  0  0  0  0  0
    8.7934    1.5284   20.6564 H   0  0  0  0  0  0  0  0  0  0  0  0
    8.6796    1.2063   22.3910 H   0  0  0  0  0  0  0  0  0  0  0  0
   10.6399    1.0351   21.6743 N   0  0  0  0  0  0  0  0  0  0  0  0
   11.1661    0.7448   20.8525 H   0  0  0  0  0  0  0  0  0  0  0  0
   11.0334    2.3651   22.1032 C   0  0  0  0  0  0  0  0  0  0  0  0
   12.1171    2.4170   22.2455 H   0  0  0  0  0  0  0  0  0  0  0  0
   10.5616    2.5859   23.0702 H   0  0  0  0  0  0  0  0  0  0  0  0
   10.7430    3.1606   21.4050 H   0  0  0  0  0  0  0  0  0  0  0  0
    5.4589    0.6302   20.1648 C   0  0  0  0  0  0  0  0  0  0  0  0
    5.0239    0.5910   21.1635 H   0  0  0  0  0  0  0  0  0  0  0  0
    4.8249    1.2985   19.1124 C   0  0  0  0  0  0  0  0  0  0  0  0
    3.8877    1.8273   19.2626 H   0  0  0  0  0  0  0  0  0  0  0  0
  1  2  1  0
  2  3  2  0
  3  4  1  0
  4  5  1  0
  4  6  2  0
  6  7  1  0
  7  8  1  0
  8  9  2  0
  8 10  1  0
 10 11  1  0
 10 12  1  0
 10 13  1  0
 13 14  1  0
 13 15  1  0
 13 16  1  0
 16 17  1  6
 16 18  1  0
 18 19  1  0
 18 20  1  0
 18 21  1  0
 21 22  1  0
 21 23  1  0
 23 24  1  0
 23 25  1  0
 23 26  1  0
  6 27  1  0
 27 28  1  0
 27 29  2  0
 29 30  1  0
 29  2  1  0
 16  7  1  0
M  END
>  <cnnaffinity>  (1) 
-4.44951

>  <filename>  (1) 
CNC[C@H]1CCC(=O)N1c1cccnc1

$$$$
