
     RDKit          3D

 28 29  0  0  0  0  0  0  0  0999 V2000
    4.9320    1.8359   17.0024 H   0  0  0  0  0  0  0  0  0  0  0  0
    5.3985    1.3037   17.8274 C   0  0  0  0  0  0  0  0  0  0  0  0
    6.5558    0.6803   17.5489 N   0  0  0  0  0  0  0  0  0  0  0  0
    7.1670    0.0299   18.5517 C   0  0  0  0  0  0  0  0  0  0  0  0
    8.1149   -0.4555   18.3156 H   0  0  0  0  0  0  0  0  0  0  0  0
    6.6590   -0.0494   19.8726 C   0  0  0  0  0  0  0  0  0  0  0  0
    7.3120   -0.7496   20.9001 N   0  0  0  0  0  0  0  0  0  0  0  0
    6.7450   -0.9824   21.7061 H   0  0  0  0  0  0  0  0  0  0  0  0
    8.6907   -0.6765   21.1684 C   0  0  0  0  0  0  0  0  0  0  0  0
    9.7110    0.1894   20.6939 C   0  0  0  0  0  0  0  0  0  0  0  0
    9.5952    1.0528   20.0545 H   0  0  0  0  0  0  0  0  0  0  0  0
   10.9072   -0.1536   21.1655 N   0  0  0  0  0  0  0  0  0  0  0  0
   10.6543   -1.2148   21.9490 N   0  0  0  0  0  0  0  0  0  0  0  0
   11.4269   -1.7242   22.3584 H   0  0  0  0  0  0  0  0  0  0  0  0
    9.3408   -1.5583   22.0001 C   0  0  0  0  0  0  0  0  0  0  0  0
    8.7387   -2.5954   22.9018 C   0  0  0  0  0  0  0  0  0  0  0  0
    7.7852   -2.9443   22.4579 H   0  0  0  0  0  0  0  0  0  0  0  0
    8.4451   -2.1058   23.8453 H   0  0  0  0  0  0  0  0  0  0  0  0
    9.6704   -3.6567   23.2216 N   0  0  0  0  0  0  0  0  0  0  0  0
   10.0452   -4.0454   22.3658 H   0  0  0  0  0  0  0  0  0  0  0  0
    9.1161   -4.6947   24.0671 C   0  0  0  0  0  0  0  0  0  0  0  0
    9.9233   -5.3766   24.3592 H   0  0  0  0  0  0  0  0  0  0  0  0
    8.2869   -5.2735   23.6127 H   0  0  0  0  0  0  0  0  0  0  0  0
    8.7458   -4.2471   24.9996 H   0  0  0  0  0  0  0  0  0  0  0  0
    5.4432    0.5994   20.1331 C   0  0  0  0  0  0  0  0  0  0  0  0
    5.0329    0.5908   21.1423 H   0  0  0  0  0  0  0  0  0  0  0  0
    4.8081    1.2904   19.0954 C   0  0  0  0  0  0  0  0  0  0  0  0
    3.8793    1.8280   19.2613 H   0  0  0  0  0  0  0  0  0  0  0  0
  1  2  1  0
  2  3  2  0
  3  4  1  0
  4  5  1  0
  4  6  2  0
  6  7  1  0
  7  8  1  0
  7  9  1  0
  9 10  1  0
 10 11  1  0
 10 12  2  0
 12 13  1  0
 13 14  1  0
 13 15  1  0
 15 16  1  0
 16 17  1  0
 16 18  1  0
 16 19  1  0
 19 20  1  0
 19 21  1  0
 21 22  1  0
 21 23  1  0
 21 24  1  0
  6 25  1  0
 25 26  1  0
 25 27  2  0
 27 28  1  0
 27  2  1  0
 15  9  2  0
M  END
>  <cnnaffinity>  (1) 
-4.79057

>  <filename>  (1) 
CNCc1[nH]ncc1Nc1cccnc1

$$$$
