
     RDKit          3D

 36 38  0  0  0  0  0  0  0  0999 V2000
    4.9847    1.8500   16.9448 H   0  0  0  0  0  0  0  0  0  0  0  0
    5.4149    1.3025   17.7808 C   0  0  0  0  0  0  0  0  0  0  0  0
    6.5558    0.6402   17.5312 N   0  0  0  0  0  0  0  0  0  0  0  0
    7.1359    0.0034   18.5543 C   0  0  0  0  0  0  0  0  0  0  0  0
    8.0412   -0.5490   18.3115 H   0  0  0  0  0  0  0  0  0  0  0  0
    6.6378    0.0183   19.8715 C   0  0  0  0  0  0  0  0  0  0  0  0
    7.4042   -0.5996   20.9594 C   0  0  0  0  0  0  0  0  0  0  0  0
    8.0062   -1.7780   20.7739 N   0  0  0  0  0  0  0  0  0  0  0  0
    8.5730   -2.0187   21.9544 N   0  0  0  0  0  0  0  0  0  0  0  0
    8.4280   -1.0531   22.8676 C   0  0  0  0  0  0  0  0  0  0  0  0
    7.6503   -0.0767   22.2750 C   0  0  0  0  0  0  0  0  0  0  0  0
    7.2064    1.2062   22.9402 C   0  0  0  0  0  0  0  0  0  0  0  0
    8.0694    1.7173   23.3984 H   0  0  0  0  0  0  0  0  0  0  0  0
    6.8218    1.8975   22.1799 H   0  0  0  0  0  0  0  0  0  0  0  0
    6.1516    1.0027   24.0499 C   0  0  0  0  0  0  0  0  0  0  0  0
    5.2923    0.4648   23.6291 H   0  0  0  0  0  0  0  0  0  0  0  0
    6.5736    0.3594   24.8376 H   0  0  0  0  0  0  0  0  0  0  0  0
    5.6459    2.2292   24.6590 N   0  0  0  0  0  0  0  0  0  0  0  0
    6.4329    2.8143   24.9362 H   0  0  0  0  0  0  0  0  0  0  0  0
    4.7506    2.9890   23.8011 C   0  0  0  0  0  0  0  0  0  0  0  0
    3.8485    2.3926   23.6160 H   0  0  0  0  0  0  0  0  0  0  0  0
    5.1772    3.2616   22.8205 H   0  0  0  0  0  0  0  0  0  0  0  0
    4.4338    3.9085   24.3025 H   0  0  0  0  0  0  0  0  0  0  0  0
    9.2338   -1.3870   24.0968 C   0  0  0  0  0  0  0  0  0  0  0  0
    9.9442   -0.5936   24.3444 H   0  0  0  0  0  0  0  0  0  0  0  0
    8.5844   -1.5356   24.9648 H   0  0  0  0  0  0  0  0  0  0  0  0
    9.9724   -2.6986   23.7054 C   0  0  0  0  0  0  0  0  0  0  0  0
   11.0494   -2.5499   23.6907 H   0  0  0  0  0  0  0  0  0  0  0  0
    9.7605   -3.5002   24.4133 H   0  0  0  0  0  0  0  0  0  0  0  0
    9.5078   -3.0601   22.2724 C   0  0  0  0  0  0  0  0  0  0  0  0
    9.0210   -4.0355   22.1969 H   0  0  0  0  0  0  0  0  0  0  0  0
   10.3304   -2.9766   21.5629 H   0  0  0  0  0  0  0  0  0  0  0  0
    5.4040    0.6462   20.0942 C   0  0  0  0  0  0  0  0  0  0  0  0
    4.9185    0.5954   21.0717 H   0  0  0  0  0  0  0  0  0  0  0  0
    4.7884    1.3048   19.0307 C   0  0  0  0  0  0  0  0  0  0  0  0
    3.8527    1.8341   19.1592 H   0  0  0  0  0  0  0  0  0  0  0  0
  1  2  1  0
  2  3  2  0
  3  4  1  0
  4  5  1  0
  4  6  2  0
  6  7  1  0
  7  8  2  0
  8  9  1  0
  9 10  1  0
 10 11  2  0
 11 12  1  0
 12 13  1  0
 12 14  1  0
 12 15  1  0
 15 16  1  0
 15 17  1  0
 15 18  1  0
 18 19  1  0
 18 20  1  0
 20 21  1  0
 20 22  1  0
 20 23  1  0
 10 24  1  0
 24 25  1  0
 24 26  1  0
 24 27  1  0
 27 28  1  0
 27 29  1  0
 27 30  1  0
 30 31  1  0
 30 32  1  0
  6 33  1  0
 33 34  1  0
 33 35  2  0
 35 36  1  0
 35  2  1  0
 11  7  1  0
 30  9  1  0
M  END
>  <cnnaffinity>  (1) 
-4.93463

>  <filename>  (1) 
CNCCc1c(-c2cccnc2)nn2c1CCC2

$$$$
