
     RDKit          3D

 45 47  0  0  0  0  0  0  0  0999 V2000
    7.4137   -6.8607   22.2726 C   0  0  0  0  0  0  0  0  0  0  0  0
    8.2189   -5.7359   22.5226 O   0  0  0  0  0  0  0  0  0  0  0  0
    7.5465   -4.4894   22.5710 C   0  0  0  0  0  0  0  0  0  0  0  0
    6.9823   -4.2247   23.9639 C   0  0  0  0  0  0  0  0  0  0  0  0
    6.2160   -4.9686   24.2136 H   0  0  0  0  0  0  0  0  0  0  0  0
    6.5361   -3.2240   24.0120 H   0  0  0  0  0  0  0  0  0  0  0  0
    7.7800   -4.2957   24.7161 H   0  0  0  0  0  0  0  0  0  0  0  0
    8.6251   -3.4904   22.1503 C   0  0  0  0  0  0  0  0  0  0  0  0
    8.1358   -2.1075   21.9564 C   0  0  0  0  0  0  0  0  0  0  0  0
    7.6913   -1.7429   20.7709 N   0  0  0  0  0  0  0  0  0  0  0  0
    7.2282   -0.4877   20.9850 N   0  0  0  0  0  0  0  0  0  0  0  0
    6.5417    0.1545   19.9219 C   0  0  0  0  0  0  0  0  0  0  0  0
    5.3236    0.8254   20.0899 C   0  0  0  0  0  0  0  0  0  0  0  0
    4.7544    1.4267   18.9600 C   0  0  0  0  0  0  0  0  0  0  0  0
    5.4194    1.3382   17.7321 C   0  0  0  0  0  0  0  0  0  0  0  0
    6.5651    0.6546   17.5623 N   0  0  0  0  0  0  0  0  0  0  0  0
    7.0916    0.0535   18.6300 C   0  0  0  0  0  0  0  0  0  0  0  0
    7.9778   -0.5599   18.4727 H   0  0  0  0  0  0  0  0  0  0  0  0
    5.0084    1.8032   16.8399 H   0  0  0  0  0  0  0  0  0  0  0  0
    3.8123    1.9609   19.0182 H   0  0  0  0  0  0  0  0  0  0  0  0
    4.8299    0.8468   21.0645 H   0  0  0  0  0  0  0  0  0  0  0  0
    7.5244   -0.1222   22.2697 C   0  0  0  0  0  0  0  0  0  0  0  0
    7.3878    1.2516   22.8576 C   0  0  0  0  0  0  0  0  0  0  0  0
    8.6939    1.7326   23.4572 C   0  0  0  0  0  0  0  0  0  0  0  0
    8.9290    1.5970   24.8261 C   0  0  0  0  0  0  0  0  0  0  0  0
   10.1705    1.9655   25.3391 C   0  0  0  0  0  0  0  0  0  0  0  0
   11.1495    2.5007   24.5993 N   0  0  0  0  0  0  0  0  0  0  0  0
   10.9153    2.6201   23.2878 C   0  0  0  0  0  0  0  0  0  0  0  0
    9.7385    2.2048   22.6446 C   0  0  0  0  0  0  0  0  0  0  0  0
    9.6366    2.2473   21.1442 C   0  0  0  0  0  0  0  0  0  0  0  0
    8.8849    2.9651   20.8013 H   0  0  0  0  0  0  0  0  0  0  0  0
   10.5929    2.5321   20.7000 H   0  0  0  0  0  0  0  0  0  0  0  0
    9.3514    1.2746   20.7259 H   0  0  0  0  0  0  0  0  0  0  0  0
   11.7129    3.0759   22.7008 H   0  0  0  0  0  0  0  0  0  0  0  0
   10.3849    1.8434   26.3924 H   0  0  0  0  0  0  0  0  0  0  0  0
    8.1613    1.2097   25.4902 H   0  0  0  0  0  0  0  0  0  0  0  0
    6.6332    1.2176   23.6459 H   0  0  0  0  0  0  0  0  0  0  0  0
    7.0336    1.9486   22.0963 H   0  0  0  0  0  0  0  0  0  0  0  0
    8.0473   -1.1558   22.9136 N   0  0  0  0  0  0  0  0  0  0  0  0
    9.4465   -3.5233   22.8686 H   0  0  0  0  0  0  0  0  0  0  0  0
    8.9752   -3.8082   21.1742 H   0  0  0  0  0  0  0  0  0  0  0  0
    6.7276   -4.4757   21.8230 H   0  0  0  0  0  0  0  0  0  0  0  0
    7.0086   -6.8372   21.2505 H   0  0  0  0  0  0  0  0  0  0  0  0
    6.5772   -6.9633   22.9811 H   0  0  0  0  0  0  0  0  0  0  0  0
    8.0663   -7.7286   22.3745 H   0  0  0  0  0  0  0  0  0  0  0  0
  1  2  1  0
  2  3  1  0
  3  4  1  0
  4  5  1  0
  4  6  1  0
  4  7  1  0
  3  8  1  0
  8  9  1  0
  9 10  2  0
 10 11  1  0
 11 12  1  0
 12 13  2  0
 13 14  1  0
 14 15  2  0
 15 16  1  0
 16 17  2  0
 17 18  1  0
 15 19  1  0
 14 20  1  0
 13 21  1  0
 11 22  1  0
 22 23  1  0
 23 24  1  0
 24 25  2  0
 25 26  1  0
 26 27  2  0
 27 28  1  0
 28 29  2  0
 29 30  1  0
 30 31  1  0
 30 32  1  0
 30 33  1  0
 28 34  1  0
 26 35  1  0
 25 36  1  0
 23 37  1  0
 23 38  1  0
 22 39  2  0
  8 40  1  0
  8 41  1  0
  3 42  1  0
  1 43  1  0
  1 44  1  0
  1 45  1  0
 39  9  1  0
 17 12  1  0
 29 24  1  0
M  END
>  <cnnaffinity>  (1) 
-5.95881

>  <filename>  (1) 
COC(C)Cc1nc(Cc2ccncc2C)n(-c2cccnc2)n1

$$$$
