
     RDKit          3D

 41 42  0  0  0  0  0  0  0  0999 V2000
    8.0323   -2.9276   21.6017 C   0  0  0  0  0  0  0  0  0  0  0  0
    7.5661   -2.0456   20.5948 O   0  0  0  0  0  0  0  0  0  0  0  0
    7.2458   -0.7544   21.0575 C   0  0  0  0  0  0  0  0  0  0  0  0
    8.4834   -0.0013   21.6952 C   0  0  0  0  0  0  0  0  0  0  0  0
    9.6349   -0.2414   21.3711 O   0  0  0  0  0  0  0  0  0  0  0  0
    8.2053    0.9243   22.6652 N   0  0  0  0  0  0  0  0  0  0  0  0
    9.2546    1.8200   23.1651 C   0  0  0  0  0  0  0  0  0  0  0  0
    9.6533    2.8549   22.0893 C   0  0  0  0  0  0  0  0  0  0  0  0
   10.6930    3.8787   22.5145 C   0  0  0  0  0  0  0  0  0  0  0  0
   12.0538    3.5798   22.3418 C   0  0  0  0  0  0  0  0  0  0  0  0
   13.0632    4.4623   22.7407 C   0  0  0  0  0  0  0  0  0  0  0  0
   12.7141    5.6883   23.3083 C   0  0  0  0  0  0  0  0  0  0  0  0
   11.3692    6.0337   23.4349 C   0  0  0  0  0  0  0  0  0  0  0  0
   10.3535    5.1526   23.0249 C   0  0  0  0  0  0  0  0  0  0  0  0
    8.9062    5.6014   23.1007 C   0  0  0  0  0  0  0  0  0  0  0  0
    8.3597    5.7418   21.8736 F   0  0  0  0  0  0  0  0  0  0  0  0
    8.7549    6.7794   23.7370 F   0  0  0  0  0  0  0  0  0  0  0  0
    8.1269    4.7163   23.7638 F   0  0  0  0  0  0  0  0  0  0  0  0
   11.0989    7.0088   23.8254 H   0  0  0  0  0  0  0  0  0  0  0  0
   13.4793    6.3782   23.6516 H   0  0  0  0  0  0  0  0  0  0  0  0
   14.1072    4.1886   22.6150 H   0  0  0  0  0  0  0  0  0  0  0  0
   12.3246    2.6501   21.8471 H   0  0  0  0  0  0  0  0  0  0  0  0
    8.7542    3.3595   21.7223 H   0  0  0  0  0  0  0  0  0  0  0  0
   10.0424    2.2738   21.2434 H   0  0  0  0  0  0  0  0  0  0  0  0
    8.9100    2.3017   24.0874 H   0  0  0  0  0  0  0  0  0  0  0  0
   10.1125    1.1914   23.4336 H   0  0  0  0  0  0  0  0  0  0  0  0
    7.2446    1.1657   22.8317 H   0  0  0  0  0  0  0  0  0  0  0  0
    6.5992   -0.0130   19.8937 C   0  0  0  0  0  0  0  0  0  0  0  0
    5.4257    0.7243   20.0818 C   0  0  0  0  0  0  0  0  0  0  0  0
    4.8585    1.3844   18.9903 C   0  0  0  0  0  0  0  0  0  0  0  0
    5.4839    1.2765   17.7460 C   0  0  0  0  0  0  0  0  0  0  0  0
    6.6002    0.5617   17.5366 N   0  0  0  0  0  0  0  0  0  0  0  0
    7.1312   -0.0716   18.5910 C   0  0  0  0  0  0  0  0  0  0  0  0
    8.0290   -0.6559   18.3959 H   0  0  0  0  0  0  0  0  0  0  0  0
    5.0699    1.7830   16.8755 H   0  0  0  0  0  0  0  0  0  0  0  0
    3.9572    1.9787   19.0886 H   0  0  0  0  0  0  0  0  0  0  0  0
    4.9474    0.7646   21.0634 H   0  0  0  0  0  0  0  0  0  0  0  0
    6.4913   -0.8454   21.8603 H   0  0  0  0  0  0  0  0  0  0  0  0
    7.2435   -3.1177   22.3444 H   0  0  0  0  0  0  0  0  0  0  0  0
    8.9224   -2.5226   22.0998 H   0  0  0  0  0  0  0  0  0  0  0  0
    8.2957   -3.8624   21.1030 H   0  0  0  0  0  0  0  0  0  0  0  0
  1  2  1  0
  2  3  1  0
  3  4  1  0
  4  5  2  0
  4  6  1  0
  6  7  1  0
  7  8  1  0
  8  9  1  0
  9 10  2  0
 10 11  1  0
 11 12  2  0
 12 13  1  0
 13 14  2  0
 14 15  1  0
 15 16  1  0
 15 17  1  0
 15 18  1  0
 13 19  1  0
 12 20  1  0
 11 21  1  0
 10 22  1  0
  8 23  1  0
  8 24  1  0
  7 25  1  0
  7 26  1  0
  6 27  1  0
  3 28  1  0
 28 29  2  0
 29 30  1  0
 30 31  2  0
 31 32  1  0
 32 33  2  0
 33 34  1  0
 31 35  1  0
 30 36  1  0
 29 37  1  0
  3 38  1  0
  1 39  1  0
  1 40  1  0
  1 41  1  0
 14  9  1  0
 33 28  1  0
M  END
>  <cnnaffinity>  (1) 
-4.83291

>  <filename>  (1) 
COC(C(=O)NCCc1ccccc1C(F)(F)F)c1cccnc1

$$$$
