
     RDKit          3D

 42 44  0  0  0  0  0  0  0  0999 V2000
    6.8630   -5.3271   23.7331 C   0  0  0  0  0  0  0  0  0  0  0  0
    6.5396   -4.0491   23.2392 O   0  0  0  0  0  0  0  0  0  0  0  0
    7.3860   -2.9856   23.6334 C   0  0  0  0  0  0  0  0  0  0  0  0
    6.7874   -2.2673   24.8577 C   0  0  0  0  0  0  0  0  0  0  0  0
    6.6377   -2.9807   25.6740 H   0  0  0  0  0  0  0  0  0  0  0  0
    7.4542   -1.4705   25.2048 H   0  0  0  0  0  0  0  0  0  0  0  0
    5.8162   -1.8295   24.6008 H   0  0  0  0  0  0  0  0  0  0  0  0
    7.5994   -2.0245   22.4919 C   0  0  0  0  0  0  0  0  0  0  0  0
    6.6595   -1.6002   21.6711 N   0  0  0  0  0  0  0  0  0  0  0  0
    7.3113   -0.6716   20.9312 N   0  0  0  0  0  0  0  0  0  0  0  0
    6.6414    0.0012   19.8774 C   0  0  0  0  0  0  0  0  0  0  0  0
    5.4302    0.6424   20.1427 C   0  0  0  0  0  0  0  0  0  0  0  0
    4.7980    1.3181   19.0956 C   0  0  0  0  0  0  0  0  0  0  0  0
    5.3905    1.3019   17.8247 C   0  0  0  0  0  0  0  0  0  0  0  0
    6.5371    0.6603   17.5578 N   0  0  0  0  0  0  0  0  0  0  0  0
    7.1495    0.0334   18.5669 C   0  0  0  0  0  0  0  0  0  0  0  0
    8.0941   -0.4537   18.3309 H   0  0  0  0  0  0  0  0  0  0  0  0
    4.9288    1.8214   16.9882 H   0  0  0  0  0  0  0  0  0  0  0  0
    3.8665    1.8547   19.2501 H   0  0  0  0  0  0  0  0  0  0  0  0
    5.0183    0.5912   21.1518 H   0  0  0  0  0  0  0  0  0  0  0  0
    8.5936   -0.5514   21.3852 C   0  0  0  0  0  0  0  0  0  0  0  0
    9.6357    0.3621   20.8387 C   0  0  0  0  0  0  0  0  0  0  0  0
   10.2916    1.1955   21.9158 C   0  0  0  0  0  0  0  0  0  0  0  0
   11.5459    0.8189   22.4049 C   0  0  0  0  0  0  0  0  0  0  0  0
   12.1061    1.5271   23.4694 C   0  0  0  0  0  0  0  0  0  0  0  0
   11.4925    2.5665   24.0473 N   0  0  0  0  0  0  0  0  0  0  0  0
   10.2907    2.9260   23.5697 C   0  0  0  0  0  0  0  0  0  0  0  0
    9.6213    2.2785   22.5170 C   0  0  0  0  0  0  0  0  0  0  0  0
    8.2517    2.7322   22.0655 C   0  0  0  0  0  0  0  0  0  0  0  0
    7.9046    3.5922   22.6462 H   0  0  0  0  0  0  0  0  0  0  0  0
    8.2772    3.0155   21.0111 H   0  0  0  0  0  0  0  0  0  0  0  0
    7.5023    1.9358   22.1575 H   0  0  0  0  0  0  0  0  0  0  0  0
    9.8217    3.7785   24.0653 H   0  0  0  0  0  0  0  0  0  0  0  0
   13.0730    1.2435   23.8892 H   0  0  0  0  0  0  0  0  0  0  0  0
   12.0615   -0.0379   21.9770 H   0  0  0  0  0  0  0  0  0  0  0  0
    9.1874    0.9846   20.0653 H   0  0  0  0  0  0  0  0  0  0  0  0
   10.3714   -0.3023   20.3796 H   0  0  0  0  0  0  0  0  0  0  0  0
    8.8046   -1.4125   22.3557 N   0  0  0  0  0  0  0  0  0  0  0  0
    8.4022   -3.3467   23.8609 H   0  0  0  0  0  0  0  0  0  0  0  0
    6.0770   -5.9867   23.3610 H   0  0  0  0  0  0  0  0  0  0  0  0
    6.8821   -5.3712   24.8325 H   0  0  0  0  0  0  0  0  0  0  0  0
    7.8351   -5.6766   23.3547 H   0  0  0  0  0  0  0  0  0  0  0  0
  1  2  1  0
  2  3  1  0
  3  4  1  0
  4  5  1  0
  4  6  1  0
  4  7  1  0
  3  8  1  0
  8  9  2  0
  9 10  1  0
 10 11  1  0
 11 12  2  0
 12 13  1  0
 13 14  2  0
 14 15  1  0
 15 16  2  0
 16 17  1  0
 14 18  1  0
 13 19  1  0
 12 20  1  0
 10 21  1  0
 21 22  1  0
 22 23  1  0
 23 24  2  0
 24 25  1  0
 25 26  2  0
 26 27  1  0
 27 28  2  0
 28 29  1  0
 29 30  1  0
 29 31  1  0
 29 32  1  0
 27 33  1  0
 25 34  1  0
 24 35  1  0
 22 36  1  0
 22 37  1  0
 21 38  2  0
  3 39  1  0
  1 40  1  0
  1 41  1  0
  1 42  1  0
 38  8  1  0
 16 11  1  0
 28 23  1  0
M  END
>  <cnnaffinity>  (1) 
-5.8369

>  <filename>  (1) 
COC(C)c1nc(Cc2ccncc2C)n(-c2cccnc2)n1

$$$$
