
     RDKit          3D

 44 47  0  0  0  0  0  0  0  0999 V2000
    6.7966   -5.4982   24.2222 C   0  0  0  0  0  0  0  0  0  0  0  0
    6.5997   -4.3318   23.4461 O   0  0  0  0  0  0  0  0  0  0  0  0
    7.4935   -3.2900   23.8065 C   0  0  0  0  0  0  0  0  0  0  0  0
    7.7106   -2.2744   22.7041 C   0  0  0  0  0  0  0  0  0  0  0  0
    6.8669   -1.8675   21.7767 N   0  0  0  0  0  0  0  0  0  0  0  0
    7.5366   -0.8369   21.1870 N   0  0  0  0  0  0  0  0  0  0  0  0
    6.8900   -0.1769   20.0912 C   0  0  0  0  0  0  0  0  0  0  0  0
    5.6743    0.4723   20.3112 C   0  0  0  0  0  0  0  0  0  0  0  0
    5.0458    1.0828   19.2225 C   0  0  0  0  0  0  0  0  0  0  0  0
    5.6282    0.9770   17.9540 C   0  0  0  0  0  0  0  0  0  0  0  0
    6.7769    0.3238   17.7310 N   0  0  0  0  0  0  0  0  0  0  0  0
    7.3946   -0.2363   18.7818 C   0  0  0  0  0  0  0  0  0  0  0  0
    8.3185   -0.7694   18.5668 H   0  0  0  0  0  0  0  0  0  0  0  0
    5.1458    1.4257   17.0885 H   0  0  0  0  0  0  0  0  0  0  0  0
    4.1268    1.6413   19.3515 H   0  0  0  0  0  0  0  0  0  0  0  0
    5.2583    0.5077   21.3181 H   0  0  0  0  0  0  0  0  0  0  0  0
    8.7366   -0.6609   21.8271 C   0  0  0  0  0  0  0  0  0  0  0  0
    9.6746    0.5026   21.7450 C   0  0  0  0  0  0  0  0  0  0  0  0
    9.1594    1.7013   22.5314 C   0  0  0  0  0  0  0  0  0  0  0  0
    8.3226    2.6148   21.8904 C   0  0  0  0  0  0  0  0  0  0  0  0
    7.9943    2.3485   20.6149 F   0  0  0  0  0  0  0  0  0  0  0  0
    7.8065    3.7519   22.5071 C   0  0  0  0  0  0  0  0  0  0  0  0
    8.1040    3.9445   23.8546 C   0  0  0  0  0  0  0  0  0  0  0  0
    7.6203    5.0199   24.4876 F   0  0  0  0  0  0  0  0  0  0  0  0
    8.9100    3.0322   24.5489 C   0  0  0  0  0  0  0  0  0  0  0  0
    9.1698    3.2364   25.8490 F   0  0  0  0  0  0  0  0  0  0  0  0
    9.4260    1.9108   23.8970 C   0  0  0  0  0  0  0  0  0  0  0  0
   10.0192    1.2147   24.4866 H   0  0  0  0  0  0  0  0  0  0  0  0
    7.2407    4.4834   21.9402 H   0  0  0  0  0  0  0  0  0  0  0  0
    9.8218    0.7728   20.6987 H   0  0  0  0  0  0  0  0  0  0  0  0
   10.6320    0.1548   22.1485 H   0  0  0  0  0  0  0  0  0  0  0  0
    8.8854   -1.5883   22.7451 N   0  0  0  0  0  0  0  0  0  0  0  0
    7.1359   -2.6171   25.1647 C   0  0  0  0  0  0  0  0  0  0  0  0
    5.7160   -2.2874   25.5274 C   0  0  0  0  0  0  0  0  0  0  0  0
    6.6841   -1.1802   25.2589 C   0  0  0  0  0  0  0  0  0  0  0  0
    7.0547   -0.5683   26.0782 H   0  0  0  0  0  0  0  0  0  0  0  0
    6.5619   -0.6415   24.3233 H   0  0  0  0  0  0  0  0  0  0  0  0
    4.9514   -2.5030   24.7843 H   0  0  0  0  0  0  0  0  0  0  0  0
    5.3955   -2.4513   26.5504 H   0  0  0  0  0  0  0  0  0  0  0  0
    7.7758   -2.9551   25.9829 H   0  0  0  0  0  0  0  0  0  0  0  0
    8.5014   -3.7087   23.9247 H   0  0  0  0  0  0  0  0  0  0  0  0
    6.6217   -5.3225   25.2948 H   0  0  0  0  0  0  0  0  0  0  0  0
    7.8163   -5.8988   24.0864 H   0  0  0  0  0  0  0  0  0  0  0  0
    6.0863   -6.2419   23.8582 H   0  0  0  0  0  0  0  0  0  0  0  0
  1  2  1  0
  2  3  1  0
  3  4  1  0
  4  5  2  0
  5  6  1  0
  6  7  1  0
  7  8  2  0
  8  9  1  0
  9 10  2  0
 10 11  1  0
 11 12  2  0
 12 13  1  0
 10 14  1  0
  9 15  1  0
  8 16  1  0
  6 17  1  0
 17 18  1  0
 18 19  1  0
 19 20  2  0
 20 21  1  0
 20 22  1  0
 22 23  2  0
 23 24  1  0
 23 25  1  0
 25 26  1  0
 25 27  2  0
 27 28  1  0
 22 29  1  0
 18 30  1  0
 18 31  1  0
 17 32  2  0
  3 33  1  0
 33 34  1  0
 34 35  1  0
 35 36  1  0
 35 37  1  0
 34 38  1  0
 34 39  1  0
 33 40  1  0
  3 41  1  0
  1 42  1  0
  1 43  1  0
  1 44  1  0
 32  4  1  0
 35 33  1  0
 12  7  1  0
 27 19  1  0
M  END
>  <cnnaffinity>  (1) 
-6.42714

>  <filename>  (1) 
COC(c1nc(Cc2cc(F)c(F)cc2F)n(-c2cccnc2)n1)C1CC1

$$$$
