
     RDKit          3D

 47 49  0  0  0  0  0  0  0  0999 V2000
    7.0110   -1.6476   25.5493 C   0  0  0  0  0  0  0  0  0  0  0  0
    6.5430   -2.6475   24.6667 O   0  0  0  0  0  0  0  0  0  0  0  0
    7.4258   -3.0488   23.6238 C   0  0  0  0  0  0  0  0  0  0  0  0
    6.8280   -4.3565   23.1049 C   0  0  0  0  0  0  0  0  0  0  0  0
    5.8614   -4.1764   22.6258 H   0  0  0  0  0  0  0  0  0  0  0  0
    7.4883   -4.8677   22.3994 H   0  0  0  0  0  0  0  0  0  0  0  0
    6.6673   -5.0138   23.9641 H   0  0  0  0  0  0  0  0  0  0  0  0
    7.6354   -1.9783   22.5545 C   0  0  0  0  0  0  0  0  0  0  0  0
    6.6964   -1.5692   21.7183 N   0  0  0  0  0  0  0  0  0  0  0  0
    7.3405   -0.6449   20.9527 N   0  0  0  0  0  0  0  0  0  0  0  0
    6.6485   -0.0076   19.8799 C   0  0  0  0  0  0  0  0  0  0  0  0
    5.4266    0.6306   20.1151 C   0  0  0  0  0  0  0  0  0  0  0  0
    4.8106    1.3147   19.0604 C   0  0  0  0  0  0  0  0  0  0  0  0
    5.4235    1.3051   17.8028 C   0  0  0  0  0  0  0  0  0  0  0  0
    6.5638    0.6458   17.5496 N   0  0  0  0  0  0  0  0  0  0  0  0
    7.1541    0.0017   18.5666 C   0  0  0  0  0  0  0  0  0  0  0  0
    8.0614   -0.5469   18.3183 H   0  0  0  0  0  0  0  0  0  0  0  0
    4.9715    1.8292   16.9638 H   0  0  0  0  0  0  0  0  0  0  0  0
    3.8797    1.8530   19.2103 H   0  0  0  0  0  0  0  0  0  0  0  0
    4.9909    0.5940   21.1134 H   0  0  0  0  0  0  0  0  0  0  0  0
    8.6215   -0.5093   21.4083 C   0  0  0  0  0  0  0  0  0  0  0  0
    9.5724    0.5640   20.9467 C   0  0  0  0  0  0  0  0  0  0  0  0
    9.2601    1.8823   21.4259 O   0  0  0  0  0  0  0  0  0  0  0  0
    9.3494    2.0080   22.8084 C   0  0  0  0  0  0  0  0  0  0  0  0
    8.1642    2.0133   23.5795 C   0  0  0  0  0  0  0  0  0  0  0  0
    6.7906    1.8951   22.9665 C   0  0  0  0  0  0  0  0  0  0  0  0
    6.4768    0.8429   22.9252 H   0  0  0  0  0  0  0  0  0  0  0  0
    6.7443    2.3022   21.9549 H   0  0  0  0  0  0  0  0  0  0  0  0
    6.0517    2.4115   23.5832 H   0  0  0  0  0  0  0  0  0  0  0  0
    8.2822    2.0203   24.9755 C   0  0  0  0  0  0  0  0  0  0  0  0
    9.5294    2.0001   25.5939 C   0  0  0  0  0  0  0  0  0  0  0  0
   10.6897    2.0051   24.8163 C   0  0  0  0  0  0  0  0  0  0  0  0
   10.6226    2.0345   23.4195 C   0  0  0  0  0  0  0  0  0  0  0  0
   11.8998    2.0225   22.6078 C   0  0  0  0  0  0  0  0  0  0  0  0
   12.3060    1.0086   22.4875 H   0  0  0  0  0  0  0  0  0  0  0  0
   11.7504    2.4459   21.6122 H   0  0  0  0  0  0  0  0  0  0  0  0
   12.6860    2.5970   23.1023 H   0  0  0  0  0  0  0  0  0  0  0  0
   11.6604    1.9703   25.2974 H   0  0  0  0  0  0  0  0  0  0  0  0
    9.5863    1.9853   26.6701 H   0  0  0  0  0  0  0  0  0  0  0  0
    7.3800    2.0018   25.5833 H   0  0  0  0  0  0  0  0  0  0  0  0
   10.5766    0.2620   21.2754 H   0  0  0  0  0  0  0  0  0  0  0  0
    9.5564    0.6599   19.8613 H   0  0  0  0  0  0  0  0  0  0  0  0
    8.8399   -1.3658   22.3932 N   0  0  0  0  0  0  0  0  0  0  0  0
    8.4337   -3.2335   24.0275 H   0  0  0  0  0  0  0  0  0  0  0  0
    7.5070   -0.8181   25.0236 H   0  0  0  0  0  0  0  0  0  0  0  0
    7.7091   -2.0488   26.3026 H   0  0  0  0  0  0  0  0  0  0  0  0
    6.1208   -1.2569   26.0520 H   0  0  0  0  0  0  0  0  0  0  0  0
  1  2  1  0
  2  3  1  0
  3  4  1  0
  4  5  1  0
  4  6  1  0
  4  7  1  0
  3  8  1  0
  8  9  2  0
  9 10  1  0
 10 11  1  0
 11 12  2  0
 12 13  1  0
 13 14  2  0
 14 15  1  0
 15 16  2  0
 16 17  1  0
 14 18  1  0
 13 19  1  0
 12 20  1  0
 10 21  1  0
 21 22  1  0
 22 23  1  0
 23 24  1  0
 24 25  2  0
 25 26  1  0
 26 27  1  0
 26 28  1  0
 26 29  1  0
 25 30  1  0
 30 31  2  0
 31 32  1  0
 32 33  2  0
 33 34  1  0
 34 35  1  0
 34 36  1  0
 34 37  1  0
 32 38  1  0
 31 39  1  0
 30 40  1  0
 22 41  1  0
 22 42  1  0
 21 43  2  0
  3 44  1  0
  1 45  1  0
  1 46  1  0
  1 47  1  0
 43  8  1  0
 16 11  1  0
 33 24  1  0
M  END
>  <cnnaffinity>  (1) 
-5.72877

>  <filename>  (1) 
COC(C)c1nc(COc2c(C)cccc2C)n(-c2cccnc2)n1

$$$$
