
     RDKit          3D

 56 58  0  0  0  0  0  0  0  0999 V2000
   13.1647    3.7686   23.2427 C   0  0  0  0  0  0  0  0  0  0  0  0
   12.1435    2.8675   23.6814 O   0  0  0  0  0  0  0  0  0  0  0  0
   10.8901    3.1851   23.2709 C   0  0  0  0  0  0  0  0  0  0  0  0
   10.6194    4.2424   22.7290 O   0  0  0  0  0  0  0  0  0  0  0  0
    9.9857    2.1819   23.5131 N   0  0  0  0  0  0  0  0  0  0  0  0
   10.3177    1.0349   24.3690 C   0  0  0  0  0  0  0  0  0  0  0  0
   10.5631    1.3524   25.3916 H   0  0  0  0  0  0  0  0  0  0  0  0
    9.4596    0.3551   24.4146 H   0  0  0  0  0  0  0  0  0  0  0  0
   11.1798    0.4685   23.9897 H   0  0  0  0  0  0  0  0  0  0  0  0
    8.7416    2.2321   22.7250 C   0  0  0  0  0  0  0  0  0  0  0  0
    8.9762    1.9859   21.2268 C   0  0  0  0  0  0  0  0  0  0  0  0
    9.4993    0.5772   20.9018 C   0  0  0  0  0  0  0  0  0  0  0  0
    8.6191   -0.5252   21.3868 C   0  0  0  0  0  0  0  0  0  0  0  0
    8.8475   -1.3604   22.3841 N   0  0  0  0  0  0  0  0  0  0  0  0
    7.6537   -1.9972   22.5318 C   0  0  0  0  0  0  0  0  0  0  0  0
    7.4040   -2.9678   23.6526 C   0  0  0  0  0  0  0  0  0  0  0  0
    6.7173   -4.2659   23.1626 C   0  0  0  0  0  0  0  0  0  0  0  0
    6.4486   -5.2350   24.3230 C   0  0  0  0  0  0  0  0  0  0  0  0
    5.6236   -4.5881   25.4509 C   0  0  0  0  0  0  0  0  0  0  0  0
    5.3571   -5.5729   26.5957 C   0  0  0  0  0  0  0  0  0  0  0  0
    6.2971   -5.8975   27.0625 H   0  0  0  0  0  0  0  0  0  0  0  0
    4.8400   -6.4717   26.2389 H   0  0  0  0  0  0  0  0  0  0  0  0
    4.7397   -5.1179   27.3799 H   0  0  0  0  0  0  0  0  0  0  0  0
    6.3227   -3.3097   25.9511 C   0  0  0  0  0  0  0  0  0  0  0  0
    6.6067   -2.3123   24.8169 C   0  0  0  0  0  0  0  0  0  0  0  0
    5.6566   -1.9222   24.4266 H   0  0  0  0  0  0  0  0  0  0  0  0
    7.1564   -1.4428   25.2047 H   0  0  0  0  0  0  0  0  0  0  0  0
    5.7149   -2.8316   26.7332 H   0  0  0  0  0  0  0  0  0  0  0  0
    7.2684   -3.5968   26.4384 H   0  0  0  0  0  0  0  0  0  0  0  0
    4.6547   -4.2859   25.0184 H   0  0  0  0  0  0  0  0  0  0  0  0
    7.4081   -5.5756   24.7456 H   0  0  0  0  0  0  0  0  0  0  0  0
    5.9412   -6.1384   23.9561 H   0  0  0  0  0  0  0  0  0  0  0  0
    5.7748   -4.0031   22.6600 H   0  0  0  0  0  0  0  0  0  0  0  0
    7.3399   -4.7542   22.4033 H   0  0  0  0  0  0  0  0  0  0  0  0
    8.4019   -3.2227   24.0326 H   0  0  0  0  0  0  0  0  0  0  0  0
    6.7201   -1.6282   21.6726 N   0  0  0  0  0  0  0  0  0  0  0  0
    7.3571   -0.7047   20.9075 N   0  0  0  0  0  0  0  0  0  0  0  0
    6.6620   -0.0333   19.8611 C   0  0  0  0  0  0  0  0  0  0  0  0
    5.4552    0.6206   20.1305 C   0  0  0  0  0  0  0  0  0  0  0  0
    4.8372    1.3174   19.0883 C   0  0  0  0  0  0  0  0  0  0  0  0
    5.4322    1.3147   17.8198 C   0  0  0  0  0  0  0  0  0  0  0  0
    6.5710    0.6605   17.5460 N   0  0  0  0  0  0  0  0  0  0  0  0
    7.1641   -0.0009   18.5469 C   0  0  0  0  0  0  0  0  0  0  0  0
    8.0850   -0.5297   18.2968 H   0  0  0  0  0  0  0  0  0  0  0  0
    4.9800    1.8483   16.9878 H   0  0  0  0  0  0  0  0  0  0  0  0
    3.9088    1.8568   19.2423 H   0  0  0  0  0  0  0  0  0  0  0  0
    5.0385    0.5834   21.1391 H   0  0  0  0  0  0  0  0  0  0  0  0
   10.4941    0.4316   21.3289 H   0  0  0  0  0  0  0  0  0  0  0  0
    9.5806    0.4835   19.8205 H   0  0  0  0  0  0  0  0  0  0  0  0
    9.6850    2.7483   20.8905 H   0  0  0  0  0  0  0  0  0  0  0  0
    8.0500    2.1690   20.6709 H   0  0  0  0  0  0  0  0  0  0  0  0
    8.0449    1.4887   23.1367 H   0  0  0  0  0  0  0  0  0  0  0  0
    8.2840    3.2201   22.8573 H   0  0  0  0  0  0  0  0  0  0  0  0
   13.2313    3.8095   22.1485 H   0  0  0  0  0  0  0  0  0  0  0  0
   14.0880    3.3723   23.6460 H   0  0  0  0  0  0  0  0  0  0  0  0
   12.9784    4.7804   23.6149 H   0  0  0  0  0  0  0  0  0  0  0  0
  1  2  1  0
  2  3  1  0
  3  4  2  0
  3  5  1  0
  5  6  1  0
  6  7  1  0
  6  8  1  0
  6  9  1  0
  5 10  1  0
 10 11  1  0
 11 12  1  0
 12 13  1  0
 13 14  2  0
 14 15  1  0
 15 16  1  0
 16 17  1  0
 17 18  1  0
 18 19  1  0
 19 20  1  0
 20 21  1  0
 20 22  1  0
 20 23  1  0
 19 24  1  0
 24 25  1  0
 25 26  1  0
 25 27  1  0
 24 28  1  0
 24 29  1  0
 19 30  1  0
 18 31  1  0
 18 32  1  0
 17 33  1  0
 17 34  1  0
 16 35  1  0
 15 36  2  0
 36 37  1  0
 37 38  1  0
 38 39  2  0
 39 40  1  0
 40 41  2  0
 41 42  1  0
 42 43  2  0
 43 44  1  0
 41 45  1  0
 40 46  1  0
 39 47  1  0
 12 48  1  0
 12 49  1  0
 11 50  1  0
 11 51  1  0
 10 52  1  0
 10 53  1  0
  1 54  1  0
  1 55  1  0
  1 56  1  0
 37 13  1  0
 43 38  1  0
 25 16  1  0
M  END
>  <cnnaffinity>  (1) 
-6.19286

>  <filename>  (1) 
COC(=O)N(C)CCCc1nc(C2CCC(C)CC2)nn1-c1cccnc1

$$$$
