
     RDKit          3D

 42 44  0  0  0  0  0  0  0  0999 V2000
    9.0861    2.0581   24.3600 C   0  0  0  0  0  0  0  0  0  0  0  0
    9.8231    1.1974   23.4796 O   0  0  0  0  0  0  0  0  0  0  0  0
   10.2602   -0.0223   24.0917 C   0  0  0  0  0  0  0  0  0  0  0  0
   11.6014    0.1982   24.7839 C   0  0  0  0  0  0  0  0  0  0  0  0
   12.3991    0.3596   24.0515 H   0  0  0  0  0  0  0  0  0  0  0  0
   11.8507   -0.6775   25.3861 H   0  0  0  0  0  0  0  0  0  0  0  0
   11.5534    1.0681   25.4394 H   0  0  0  0  0  0  0  0  0  0  0  0
   10.4205   -1.0849   23.0125 C   0  0  0  0  0  0  0  0  0  0  0  0
    9.1739   -1.1390   22.2143 C   0  0  0  0  0  0  0  0  0  0  0  0
    8.9123   -0.3241   21.2246 N   0  0  0  0  0  0  0  0  0  0  0  0
    7.6520   -0.6824   20.8998 N   0  0  0  0  0  0  0  0  0  0  0  0
    6.9029   -0.0289   19.9169 C   0  0  0  0  0  0  0  0  0  0  0  0
    5.5978    0.4272   20.1498 C   0  0  0  0  0  0  0  0  0  0  0  0
    4.9538    1.1035   19.1088 C   0  0  0  0  0  0  0  0  0  0  0  0
    5.6082    1.2798   17.8813 C   0  0  0  0  0  0  0  0  0  0  0  0
    6.8570    0.8355   17.6575 N   0  0  0  0  0  0  0  0  0  0  0  0
    7.4924    0.2115   18.6673 C   0  0  0  0  0  0  0  0  0  0  0  0
    8.5020   -0.1575   18.5126 H   0  0  0  0  0  0  0  0  0  0  0  0
    5.0910    1.7874   17.0729 H   0  0  0  0  0  0  0  0  0  0  0  0
    3.9529    1.5032   19.2278 H   0  0  0  0  0  0  0  0  0  0  0  0
    5.1078    0.2964   21.1158 H   0  0  0  0  0  0  0  0  0  0  0  0
    7.2676   -1.7828   21.6539 C   0  0  0  0  0  0  0  0  0  0  0  0
    5.9798   -2.5364   21.4103 C   0  0  0  0  0  0  0  0  0  0  0  0
    5.8170   -3.9055   22.0675 C   0  0  0  0  0  0  0  0  0  0  0  0
    5.8048   -4.0632   23.4653 C   0  0  0  0  0  0  0  0  0  0  0  0
    5.6100   -5.3521   23.9782 C   0  0  0  0  0  0  0  0  0  0  0  0
    5.4033   -6.4290   23.1081 C   0  0  0  0  0  0  0  0  0  0  0  0
    5.4256   -6.2854   21.7799 N   0  0  0  0  0  0  0  0  0  0  0  0
    5.6429   -5.0635   21.2721 C   0  0  0  0  0  0  0  0  0  0  0  0
    5.7148   -4.9371   19.3751 Br  0  0  0  0  0  0  0  0  0  0  0  0
    5.2277   -7.4196   23.5204 H   0  0  0  0  0  0  0  0  0  0  0  0
    5.5967   -5.5367   25.0482 H   0  0  0  0  0  0  0  0  0  0  0  0
    5.9410   -3.2182   24.1416 H   0  0  0  0  0  0  0  0  0  0  0  0
    5.8787   -2.6520   20.3269 H   0  0  0  0  0  0  0  0  0  0  0  0
    5.1743   -1.8878   21.7287 H   0  0  0  0  0  0  0  0  0  0  0  0
    8.1935   -2.0605   22.5225 N   0  0  0  0  0  0  0  0  0  0  0  0
   10.6037   -2.0582   23.4682 H   0  0  0  0  0  0  0  0  0  0  0  0
   11.2607   -0.8522   22.3595 H   0  0  0  0  0  0  0  0  0  0  0  0
    9.5220   -0.3578   24.8314 H   0  0  0  0  0  0  0  0  0  0  0  0
    9.0470    3.0698   23.9458 H   0  0  0  0  0  0  0  0  0  0  0  0
    9.5497    2.1112   25.3497 H   0  0  0  0  0  0  0  0  0  0  0  0
    8.0603    1.6937   24.4733 H   0  0  0  0  0  0  0  0  0  0  0  0
  1  2  1  0
  2  3  1  0
  3  4  1  0
  4  5  1  0
  4  6  1  0
  4  7  1  0
  3  8  1  0
  8  9  1  0
  9 10  2  0
 10 11  1  0
 11 12  1  0
 12 13  2  0
 13 14  1  0
 14 15  2  0
 15 16  1  0
 16 17  2  0
 17 18  1  0
 15 19  1  0
 14 20  1  0
 13 21  1  0
 11 22  1  0
 22 23  1  0
 23 24  1  0
 24 25  2  0
 25 26  1  0
 26 27  2  0
 27 28  1  0
 28 29  2  0
 29 30  1  0
 27 31  1  0
 26 32  1  0
 25 33  1  0
 23 34  1  0
 23 35  1  0
 22 36  2  0
  8 37  1  0
  8 38  1  0
  3 39  1  0
  1 40  1  0
  1 41  1  0
  1 42  1  0
 36  9  1  0
 17 12  1  0
 29 24  1  0
M  END
>  <cnnaffinity>  (1) 
-5.65906

>  <filename>  (1) 
COC(C)Cc1nc(Cc2cccnc2Br)n(-c2cccnc2)n1

$$$$
