
     RDKit          3D

 42 45  0  0  0  0  0  0  0  0999 V2000
    8.7223   -4.7765   23.4627 C   0  0  0  0  0  0  0  0  0  0  0  0
    8.0441   -3.9357   24.3785 O   0  0  0  0  0  0  0  0  0  0  0  0
    7.1184   -2.9789   23.8860 C   0  0  0  0  0  0  0  0  0  0  0  0
    7.6006   -2.1114   22.7205 C   0  0  0  0  0  0  0  0  0  0  0  0
    6.7364   -1.6979   21.8166 N   0  0  0  0  0  0  0  0  0  0  0  0
    7.4563   -0.8058   21.0724 N   0  0  0  0  0  0  0  0  0  0  0  0
    6.8081   -0.1051   20.0055 C   0  0  0  0  0  0  0  0  0  0  0  0
    5.5867    0.5414   20.2383 C   0  0  0  0  0  0  0  0  0  0  0  0
    4.9574    1.2029   19.1808 C   0  0  0  0  0  0  0  0  0  0  0  0
    5.5663    1.1975   17.9223 C   0  0  0  0  0  0  0  0  0  0  0  0
    6.7241    0.5624   17.6796 N   0  0  0  0  0  0  0  0  0  0  0  0
    7.3228   -0.0734   18.6981 C   0  0  0  0  0  0  0  0  0  0  0  0
    8.2445   -0.6013   18.4492 H   0  0  0  0  0  0  0  0  0  0  0  0
    5.1116    1.7254   17.0839 H   0  0  0  0  0  0  0  0  0  0  0  0
    4.0205    1.7325   19.3234 H   0  0  0  0  0  0  0  0  0  0  0  0
    5.1446    0.5125   21.2344 H   0  0  0  0  0  0  0  0  0  0  0  0
    8.7091   -0.7115   21.6124 C   0  0  0  0  0  0  0  0  0  0  0  0
    9.6813    0.3822   21.3105 C   0  0  0  0  0  0  0  0  0  0  0  0
    9.1785    1.7017   21.8409 C   0  0  0  0  0  0  0  0  0  0  0  0
    8.3433    2.5448   21.1745 C   0  0  0  0  0  0  0  0  0  0  0  0
    7.9657    3.5475   22.0322 N   0  0  0  0  0  0  0  0  0  0  0  0
    8.5590    3.3427   23.2529 C   0  0  0  0  0  0  0  0  0  0  0  0
    9.3187    2.2027   23.1663 C   0  0  0  0  0  0  0  0  0  0  0  0
    9.9503    1.7665   23.9346 H   0  0  0  0  0  0  0  0  0  0  0  0
    8.3646    4.0049   24.0852 H   0  0  0  0  0  0  0  0  0  0  0  0
    7.4201    4.3555   21.7784 H   0  0  0  0  0  0  0  0  0  0  0  0
    7.9941    2.4534   20.1580 H   0  0  0  0  0  0  0  0  0  0  0  0
    9.8143    0.4405   20.2284 H   0  0  0  0  0  0  0  0  0  0  0  0
   10.6324    0.1038   21.7696 H   0  0  0  0  0  0  0  0  0  0  0  0
    8.8425   -1.5732   22.6023 N   0  0  0  0  0  0  0  0  0  0  0  0
    6.7378   -2.1396   25.1149 C   0  0  0  0  0  0  0  0  0  0  0  0
    7.6321   -1.0347   25.6181 C   0  0  0  0  0  0  0  0  0  0  0  0
    6.2905   -0.7046   25.0380 C   0  0  0  0  0  0  0  0  0  0  0  0
    5.4936   -0.3912   25.7062 H   0  0  0  0  0  0  0  0  0  0  0  0
    6.2777   -0.2283   24.0572 H   0  0  0  0  0  0  0  0  0  0  0  0
    8.5064   -0.7879   25.0168 H   0  0  0  0  0  0  0  0  0  0  0  0
    7.7829   -0.9505   26.6909 H   0  0  0  0  0  0  0  0  0  0  0  0
    6.2652   -2.7556   25.8810 H   0  0  0  0  0  0  0  0  0  0  0  0
    6.2077   -3.4558   23.4872 H   0  0  0  0  0  0  0  0  0  0  0  0
    9.6257   -5.1186   23.9764 H   0  0  0  0  0  0  0  0  0  0  0  0
    9.0175   -4.2392   22.5522 H   0  0  0  0  0  0  0  0  0  0  0  0
    8.1182   -5.6577   23.2060 H   0  0  0  0  0  0  0  0  0  0  0  0
  1  2  1  0
  2  3  1  0
  3  4  1  0
  4  5  2  0
  5  6  1  0
  6  7  1  0
  7  8  2  0
  8  9  1  0
  9 10  2  0
 10 11  1  0
 11 12  2  0
 12 13  1  0
 10 14  1  0
  9 15  1  0
  8 16  1  0
  6 17  1  0
 17 18  1  0
 18 19  1  0
 19 20  2  0
 20 21  1  0
 21 22  1  0
 22 23  2  0
 23 24  1  0
 22 25  1  0
 21 26  1  0
 20 27  1  0
 18 28  1  0
 18 29  1  0
 17 30  2  0
  3 31  1  0
 31 32  1  0
 32 33  1  0
 33 34  1  0
 33 35  1  0
 32 36  1  0
 32 37  1  0
 31 38  1  0
  3 39  1  0
  1 40  1  0
  1 41  1  0
  1 42  1  0
 30  4  1  0
 33 31  1  0
 12  7  1  0
 23 19  1  0
M  END
>  <cnnaffinity>  (1) 
-5.79204

>  <filename>  (1) 
COC(c1nc(Cc2cc[nH]c2)n(-c2cccnc2)n1)C1CC1

$$$$
