
     RDKit          3D

 46 49  0  0  0  0  0  0  0  0999 V2000
    7.5643   -1.8535   25.7042 C   0  0  0  0  0  0  0  0  0  0  0  0
    7.7512   -2.9877   24.8864 O   0  0  0  0  0  0  0  0  0  0  0  0
    7.0564   -3.0261   23.6480 C   0  0  0  0  0  0  0  0  0  0  0  0
    7.4680   -1.9598   22.6226 C   0  0  0  0  0  0  0  0  0  0  0  0
    6.5826   -1.5763   21.7203 N   0  0  0  0  0  0  0  0  0  0  0  0
    7.2825   -0.7208   20.9235 N   0  0  0  0  0  0  0  0  0  0  0  0
    6.6067   -0.0436   19.8658 C   0  0  0  0  0  0  0  0  0  0  0  0
    5.3966    0.6133   20.1247 C   0  0  0  0  0  0  0  0  0  0  0  0
    4.7949    1.3176   19.0787 C   0  0  0  0  0  0  0  0  0  0  0  0
    5.3932    1.3141   17.8141 C   0  0  0  0  0  0  0  0  0  0  0  0
    6.5232    0.6433   17.5454 N   0  0  0  0  0  0  0  0  0  0  0  0
    7.1080   -0.0173   18.5536 C   0  0  0  0  0  0  0  0  0  0  0  0
    8.0233   -0.5557   18.3131 H   0  0  0  0  0  0  0  0  0  0  0  0
    4.9495    1.8691   16.9877 H   0  0  0  0  0  0  0  0  0  0  0  0
    3.8769    1.8722   19.2353 H   0  0  0  0  0  0  0  0  0  0  0  0
    4.9517    0.5567   21.1190 H   0  0  0  0  0  0  0  0  0  0  0  0
    8.5479   -0.5924   21.4303 C   0  0  0  0  0  0  0  0  0  0  0  0
    9.6542    0.2731   20.8909 C   0  0  0  0  0  0  0  0  0  0  0  0
   10.3340    1.1417   21.9424 C   0  0  0  0  0  0  0  0  0  0  0  0
   11.6112    0.8124   22.4144 C   0  0  0  0  0  0  0  0  0  0  0  0
   12.2326    1.4239   23.4328 N   0  0  0  0  0  0  0  0  0  0  0  0
   11.5822    2.4326   24.0166 C   0  0  0  0  0  0  0  0  0  0  0  0
   10.3311    2.8791   23.5985 C   0  0  0  0  0  0  0  0  0  0  0  0
    9.6757    2.2335   22.5441 C   0  0  0  0  0  0  0  0  0  0  0  0
    8.3225    2.7082   22.0927 C   0  0  0  0  0  0  0  0  0  0  0  0
    8.3663    3.0270   21.0484 H   0  0  0  0  0  0  0  0  0  0  0  0
    7.5727    1.9117   22.1640 H   0  0  0  0  0  0  0  0  0  0  0  0
    7.9824    3.5590   22.6904 H   0  0  0  0  0  0  0  0  0  0  0  0
    9.8725    3.7262   24.0928 H   0  0  0  0  0  0  0  0  0  0  0  0
   12.0770    2.9161   24.8562 H   0  0  0  0  0  0  0  0  0  0  0  0
   12.1553   -0.0134   21.9531 H   0  0  0  0  0  0  0  0  0  0  0  0
   10.3995   -0.4020   20.4555 H   0  0  0  0  0  0  0  0  0  0  0  0
    9.2708    0.8926   20.0787 H   0  0  0  0  0  0  0  0  0  0  0  0
    8.6920   -1.3940   22.4783 N   0  0  0  0  0  0  0  0  0  0  0  0
    7.2643   -4.4630   23.1471 C   0  0  0  0  0  0  0  0  0  0  0  0
    8.6541   -4.9233   22.8110 C   0  0  0  0  0  0  0  0  0  0  0  0
    7.6218   -4.8136   21.7294 C   0  0  0  0  0  0  0  0  0  0  0  0
    7.7252   -3.9807   21.0334 H   0  0  0  0  0  0  0  0  0  0  0  0
    7.2001   -5.7256   21.3107 H   0  0  0  0  0  0  0  0  0  0  0  0
    8.9676   -5.8995   23.1785 H   0  0  0  0  0  0  0  0  0  0  0  0
    9.4265   -4.1559   22.8105 H   0  0  0  0  0  0  0  0  0  0  0  0
    6.6454   -5.1845   23.6787 H   0  0  0  0  0  0  0  0  0  0  0  0
    5.9783   -2.8502   23.7957 H   0  0  0  0  0  0  0  0  0  0  0  0
    7.5777   -0.9185   25.1251 H   0  0  0  0  0  0  0  0  0  0  0  0
    8.4067   -1.8511   26.4026 H   0  0  0  0  0  0  0  0  0  0  0  0
    6.6233   -1.9224   26.2695 H   0  0  0  0  0  0  0  0  0  0  0  0
  1  2  1  0
  2  3  1  0
  3  4  1  0
  4  5  2  0
  5  6  1  0
  6  7  1  0
  7  8  2  0
  8  9  1  0
  9 10  2  0
 10 11  1  0
 11 12  2  0
 12 13  1  0
 10 14  1  0
  9 15  1  0
  8 16  1  0
  6 17  1  0
 17 18  1  0
 18 19  1  0
 19 20  2  0
 20 21  1  0
 21 22  2  0
 22 23  1  0
 23 24  2  0
 24 25  1  0
 25 26  1  0
 25 27  1  0
 25 28  1  0
 23 29  1  0
 22 30  1  0
 20 31  1  0
 18 32  1  0
 18 33  1  0
 17 34  2  0
  3 35  1  0
 35 36  1  0
 36 37  1  0
 37 38  1  0
 37 39  1  0
 36 40  1  0
 36 41  1  0
 35 42  1  0
  3 43  1  0
  1 44  1  0
  1 45  1  0
  1 46  1  0
 34  4  1  0
 37 35  1  0
 12  7  1  0
 24 19  1  0
M  END
>  <cnnaffinity>  (1) 
-6.07019

>  <filename>  (1) 
COC(c1nc(Cc2cnccc2C)n(-c2cccnc2)n1)C1CC1

$$$$
