
     RDKit          3D

 43 45  0  0  0  0  0  0  0  0999 V2000
    5.6491   -4.0202   24.1298 C   0  0  0  0  0  0  0  0  0  0  0  0
    7.0388   -3.9260   23.9645 O   0  0  0  0  0  0  0  0  0  0  0  0
    7.5992   -4.4220   22.7681 C   0  0  0  0  0  0  0  0  0  0  0  0
    8.3280   -5.7257   23.0638 C   0  0  0  0  0  0  0  0  0  0  0  0
    7.6281   -6.5152   23.3458 H   0  0  0  0  0  0  0  0  0  0  0  0
    8.8998   -6.0722   22.1975 H   0  0  0  0  0  0  0  0  0  0  0  0
    9.0129   -5.5625   23.9038 H   0  0  0  0  0  0  0  0  0  0  0  0
    8.5779   -3.3514   22.2949 C   0  0  0  0  0  0  0  0  0  0  0  0
    7.9168   -2.0550   22.0242 C   0  0  0  0  0  0  0  0  0  0  0  0
    7.5622   -1.1905   22.9530 N   0  0  0  0  0  0  0  0  0  0  0  0
    7.0641   -0.1465   22.2330 N   0  0  0  0  0  0  0  0  0  0  0  0
    6.9951    1.1831   22.8769 C   0  0  0  0  0  0  0  0  0  0  0  0
    8.3305    1.5881   23.4984 C   0  0  0  0  0  0  0  0  0  0  0  0
    8.5414    1.5007   24.8824 C   0  0  0  0  0  0  0  0  0  0  0  0
    9.8110    1.6320   25.4490 C   0  0  0  0  0  0  0  0  0  0  0  0
   10.9150    1.8836   24.6376 C   0  0  0  0  0  0  0  0  0  0  0  0
   10.7412    2.0133   23.2567 C   0  0  0  0  0  0  0  0  0  0  0  0
    9.4577    1.8712   22.7165 C   0  0  0  0  0  0  0  0  0  0  0  0
    9.2858    2.0345   21.0043 Cl  0  0  0  0  0  0  0  0  0  0  0  0
   11.5788    2.2052   22.5957 H   0  0  0  0  0  0  0  0  0  0  0  0
   11.9008    1.9544   25.0882 H   0  0  0  0  0  0  0  0  0  0  0  0
    9.9421    1.4934   26.5138 H   0  0  0  0  0  0  0  0  0  0  0  0
    7.6906    1.2963   25.5222 H   0  0  0  0  0  0  0  0  0  0  0  0
    6.6818    1.9024   22.1136 H   0  0  0  0  0  0  0  0  0  0  0  0
    6.2302    1.1331   23.6541 H   0  0  0  0  0  0  0  0  0  0  0  0
    7.0754   -0.4921   20.9147 C   0  0  0  0  0  0  0  0  0  0  0  0
    6.4328    0.2274   19.8215 C   0  0  0  0  0  0  0  0  0  0  0  0
    5.2109    0.9119   19.9144 C   0  0  0  0  0  0  0  0  0  0  0  0
    4.7064    1.5039   18.7558 C   0  0  0  0  0  0  0  0  0  0  0  0
    5.4356    1.3981   17.5656 C   0  0  0  0  0  0  0  0  0  0  0  0
    6.5809    0.7066   17.4594 N   0  0  0  0  0  0  0  0  0  0  0  0
    7.0473    0.1224   18.5652 C   0  0  0  0  0  0  0  0  0  0  0  0
    7.9540   -0.4708   18.4551 H   0  0  0  0  0  0  0  0  0  0  0  0
    5.0814    1.8783   16.6545 H   0  0  0  0  0  0  0  0  0  0  0  0
    3.7737    2.0545   18.7627 H   0  0  0  0  0  0  0  0  0  0  0  0
    4.6557    0.9511   20.8549 H   0  0  0  0  0  0  0  0  0  0  0  0
    7.6616   -1.6656   20.7549 N   0  0  0  0  0  0  0  0  0  0  0  0
    9.0330   -3.6489   21.3516 H   0  0  0  0  0  0  0  0  0  0  0  0
    9.3510   -3.2139   23.0570 H   0  0  0  0  0  0  0  0  0  0  0  0
    6.8217   -4.5814   21.9935 H   0  0  0  0  0  0  0  0  0  0  0  0
    5.1095   -3.4234   23.3771 H   0  0  0  0  0  0  0  0  0  0  0  0
    5.2894   -5.0616   24.0845 H   0  0  0  0  0  0  0  0  0  0  0  0
    5.4366   -3.6149   25.1239 H   0  0  0  0  0  0  0  0  0  0  0  0
  1  2  1  0
  2  3  1  0
  3  4  1  0
  4  5  1  0
  4  6  1  0
  4  7  1  0
  3  8  1  0
  8  9  1  0
  9 10  2  0
 10 11  1  0
 11 12  1  0
 12 13  1  0
 13 14  2  0
 14 15  1  0
 15 16  2  0
 16 17  1  0
 17 18  2  0
 18 19  1  0
 17 20  1  0
 16 21  1  0
 15 22  1  0
 14 23  1  0
 12 24  1  0
 12 25  1  0
 11 26  1  0
 26 27  1  0
 27 28  2  0
 28 29  1  0
 29 30  2  0
 30 31  1  0
 31 32  2  0
 32 33  1  0
 30 34  1  0
 29 35  1  0
 28 36  1  0
 26 37  2  0
  8 38  1  0
  8 39  1  0
  3 40  1  0
  1 41  1  0
  1 42  1  0
  1 43  1  0
 37  9  1  0
 18 13  1  0
 32 27  1  0
M  END
>  <cnnaffinity>  (1) 
-6.07935

>  <filename>  (1) 
COC(C)Cc1nc(-c2cccnc2)n(Cc2ccccc2Cl)n1

$$$$
