
     RDKit          3D

 41 43  0  0  0  0  0  0  0  0999 V2000
    7.7526   -4.6601   23.4956 C   0  0  0  0  0  0  0  0  0  0  0  0
    8.9037   -3.8412   23.5318 O   0  0  0  0  0  0  0  0  0  0  0  0
    9.1794   -3.1152   22.3503 C   0  0  0  0  0  0  0  0  0  0  0  0
   10.6093   -2.5854   22.4988 C   0  0  0  0  0  0  0  0  0  0  0  0
   10.6214   -1.8501   23.3127 H   0  0  0  0  0  0  0  0  0  0  0  0
   11.2759   -3.4132   22.7453 H   0  0  0  0  0  0  0  0  0  0  0  0
   10.9436   -2.0989   21.5763 H   0  0  0  0  0  0  0  0  0  0  0  0
    8.2312   -1.9688   22.0639 C   0  0  0  0  0  0  0  0  0  0  0  0
    7.7798   -1.7345   20.8453 N   0  0  0  0  0  0  0  0  0  0  0  0
    7.1790   -0.5219   20.9751 N   0  0  0  0  0  0  0  0  0  0  0  0
    6.5269    0.0910   19.8829 C   0  0  0  0  0  0  0  0  0  0  0  0
    5.3164    0.7746   20.0395 C   0  0  0  0  0  0  0  0  0  0  0  0
    4.7676    1.3938   18.9149 C   0  0  0  0  0  0  0  0  0  0  0  0
    5.4408    1.3039   17.6937 C   0  0  0  0  0  0  0  0  0  0  0  0
    6.5909    0.6229   17.5386 N   0  0  0  0  0  0  0  0  0  0  0  0
    7.1130    0.0206   18.6092 C   0  0  0  0  0  0  0  0  0  0  0  0
    8.0386   -0.5376   18.4765 H   0  0  0  0  0  0  0  0  0  0  0  0
    5.0377    1.7768   16.8009 H   0  0  0  0  0  0  0  0  0  0  0  0
    3.8343    1.9405   18.9811 H   0  0  0  0  0  0  0  0  0  0  0  0
    4.8159    0.8027   21.0077 H   0  0  0  0  0  0  0  0  0  0  0  0
    7.3908   -0.0654   22.2381 C   0  0  0  0  0  0  0  0  0  0  0  0
    7.1296    1.3284   22.7176 C   0  0  0  0  0  0  0  0  0  0  0  0
    8.1457    1.8363   23.5761 O   0  0  0  0  0  0  0  0  0  0  0  0
    9.4412    1.9489   23.1569 C   0  0  0  0  0  0  0  0  0  0  0  0
    9.8261    2.0263   21.8085 C   0  0  0  0  0  0  0  0  0  0  0  0
   11.1630    2.2598   21.4659 C   0  0  0  0  0  0  0  0  0  0  0  0
   12.1371    2.3734   22.4575 C   0  0  0  0  0  0  0  0  0  0  0  0
   11.7802    2.2214   23.8007 C   0  0  0  0  0  0  0  0  0  0  0  0
   10.4449    2.0063   24.1485 C   0  0  0  0  0  0  0  0  0  0  0  0
   10.0467    1.7553   25.8209 Cl  0  0  0  0  0  0  0  0  0  0  0  0
   12.5311    2.2441   24.5840 H   0  0  0  0  0  0  0  0  0  0  0  0
   13.1713    2.5756   22.1930 H   0  0  0  0  0  0  0  0  0  0  0  0
   11.4381    2.3537   20.4194 H   0  0  0  0  0  0  0  0  0  0  0  0
    9.0730    1.8759   21.0425 H   0  0  0  0  0  0  0  0  0  0  0  0
    6.9510    2.0127   21.8796 H   0  0  0  0  0  0  0  0  0  0  0  0
    6.2417    1.2982   23.3511 H   0  0  0  0  0  0  0  0  0  0  0  0
    7.9826   -0.9886   22.9636 N   0  0  0  0  0  0  0  0  0  0  0  0
    9.0833   -3.7568   21.4664 H   0  0  0  0  0  0  0  0  0  0  0  0
    7.6674   -5.0805   24.5019 H   0  0  0  0  0  0  0  0  0  0  0  0
    7.8640   -5.4839   22.7697 H   0  0  0  0  0  0  0  0  0  0  0  0
    6.8477   -4.0811   23.2486 H   0  0  0  0  0  0  0  0  0  0  0  0
  1  2  1  0
  2  3  1  0
  3  4  1  0
  4  5  1  0
  4  6  1  0
  4  7  1  0
  3  8  1  0
  8  9  2  0
  9 10  1  0
 10 11  1  0
 11 12  2  0
 12 13  1  0
 13 14  2  0
 14 15  1  0
 15 16  2  0
 16 17  1  0
 14 18  1  0
 13 19  1  0
 12 20  1  0
 10 21  1  0
 21 22  1  0
 22 23  1  0
 23 24  1  0
 24 25  2  0
 25 26  1  0
 26 27  2  0
 27 28  1  0
 28 29  2  0
 29 30  1  0
 28 31  1  0
 27 32  1  0
 26 33  1  0
 25 34  1  0
 22 35  1  0
 22 36  1  0
 21 37  2  0
  3 38  1  0
  1 39  1  0
  1 40  1  0
  1 41  1  0
 37  8  1  0
 16 11  1  0
 29 24  1  0
M  END
>  <cnnaffinity>  (1) 
-5.94992

>  <filename>  (1) 
COC(C)c1nc(COc2ccccc2Cl)n(-c2cccnc2)n1

$$$$
