
     RDKit          3D

 46 49  0  0  0  0  0  0  0  0999 V2000
    6.7079   -5.1961   23.9830 C   0  0  0  0  0  0  0  0  0  0  0  0
    6.5208   -3.9954   23.2727 O   0  0  0  0  0  0  0  0  0  0  0  0
    7.3633   -2.9326   23.6689 C   0  0  0  0  0  0  0  0  0  0  0  0
    7.5926   -1.9905   22.5179 C   0  0  0  0  0  0  0  0  0  0  0  0
    6.6583   -1.5776   21.6828 N   0  0  0  0  0  0  0  0  0  0  0  0
    7.3197   -0.6683   20.9262 N   0  0  0  0  0  0  0  0  0  0  0  0
    6.6471    0.0080   19.8774 C   0  0  0  0  0  0  0  0  0  0  0  0
    5.4350    0.6468   20.1454 C   0  0  0  0  0  0  0  0  0  0  0  0
    4.8013    1.3184   19.0971 C   0  0  0  0  0  0  0  0  0  0  0  0
    5.3913    1.3008   17.8261 C   0  0  0  0  0  0  0  0  0  0  0  0
    6.5416    0.6652   17.5576 N   0  0  0  0  0  0  0  0  0  0  0  0
    7.1554    0.0409   18.5683 C   0  0  0  0  0  0  0  0  0  0  0  0
    8.1015   -0.4473   18.3368 H   0  0  0  0  0  0  0  0  0  0  0  0
    4.9235    1.8118   16.9883 H   0  0  0  0  0  0  0  0  0  0  0  0
    3.8690    1.8514   19.2529 H   0  0  0  0  0  0  0  0  0  0  0  0
    5.0220    0.5963   21.1539 H   0  0  0  0  0  0  0  0  0  0  0  0
    8.6008   -0.5473   21.3788 C   0  0  0  0  0  0  0  0  0  0  0  0
    9.6334    0.3711   20.8297 C   0  0  0  0  0  0  0  0  0  0  0  0
   10.2828    1.1988   21.9123 C   0  0  0  0  0  0  0  0  0  0  0  0
   11.5475    0.8389   22.3829 C   0  0  0  0  0  0  0  0  0  0  0  0
   12.1007    1.5355   23.4578 C   0  0  0  0  0  0  0  0  0  0  0  0
   11.4692    2.5459   24.0662 N   0  0  0  0  0  0  0  0  0  0  0  0
   10.2554    2.8882   23.6048 C   0  0  0  0  0  0  0  0  0  0  0  0
    9.5930    2.2541   22.5406 C   0  0  0  0  0  0  0  0  0  0  0  0
    8.2029    2.6821   22.1215 C   0  0  0  0  0  0  0  0  0  0  0  0
    7.8605    3.5453   22.7000 H   0  0  0  0  0  0  0  0  0  0  0  0
    7.4705    1.8759   22.2543 H   0  0  0  0  0  0  0  0  0  0  0  0
    8.1798    2.9504   21.0624 H   0  0  0  0  0  0  0  0  0  0  0  0
    9.7684    3.7170   24.1248 H   0  0  0  0  0  0  0  0  0  0  0  0
   13.0814    1.2663   23.8555 H   0  0  0  0  0  0  0  0  0  0  0  0
   12.0797    0.0047   21.9318 H   0  0  0  0  0  0  0  0  0  0  0  0
    9.1785    1.0041   20.0696 H   0  0  0  0  0  0  0  0  0  0  0  0
   10.3700   -0.2825   20.3594 H   0  0  0  0  0  0  0  0  0  0  0  0
    8.8039   -1.3930   22.3667 N   0  0  0  0  0  0  0  0  0  0  0  0
    6.7837   -2.1666   24.8678 C   0  0  0  0  0  0  0  0  0  0  0  0
    7.1981   -2.5207   26.2699 C   0  0  0  0  0  0  0  0  0  0  0  0
    7.6914   -1.2439   25.6329 C   0  0  0  0  0  0  0  0  0  0  0  0
    8.7339   -1.1835   25.3107 H   0  0  0  0  0  0  0  0  0  0  0  0
    7.3060   -0.2849   25.9748 H   0  0  0  0  0  0  0  0  0  0  0  0
    7.9020   -3.3422   26.4156 H   0  0  0  0  0  0  0  0  0  0  0  0
    6.4463   -2.4638   27.0538 H   0  0  0  0  0  0  0  0  0  0  0  0
    5.7501   -1.8490   24.7001 H   0  0  0  0  0  0  0  0  0  0  0  0
    8.3772   -3.2915   23.9292 H   0  0  0  0  0  0  0  0  0  0  0  0
    7.7149   -5.6083   23.8180 H   0  0  0  0  0  0  0  0  0  0  0  0
    5.9708   -5.8963   23.5858 H   0  0  0  0  0  0  0  0  0  0  0  0
    6.5467   -5.0733   25.0621 H   0  0  0  0  0  0  0  0  0  0  0  0
  1  2  1  0
  2  3  1  0
  3  4  1  0
  4  5  2  0
  5  6  1  0
  6  7  1  0
  7  8  2  0
  8  9  1  0
  9 10  2  0
 10 11  1  0
 11 12  2  0
 12 13  1  0
 10 14  1  0
  9 15  1  0
  8 16  1  0
  6 17  1  0
 17 18  1  0
 18 19  1  0
 19 20  2  0
 20 21  1  0
 21 22  2  0
 22 23  1  0
 23 24  2  0
 24 25  1  0
 25 26  1  0
 25 27  1  0
 25 28  1  0
 23 29  1  0
 21 30  1  0
 20 31  1  0
 18 32  1  0
 18 33  1  0
 17 34  2  0
  3 35  1  0
 35 36  1  0
 36 37  1  0
 37 38  1  0
 37 39  1  0
 36 40  1  0
 36 41  1  0
 35 42  1  0
  3 43  1  0
  1 44  1  0
  1 45  1  0
  1 46  1  0
 34  4  1  0
 37 35  1  0
 12  7  1  0
 24 19  1  0
M  END
>  <cnnaffinity>  (1) 
-6.13789

>  <filename>  (1) 
COC(c1nc(Cc2ccncc2C)n(-c2cccnc2)n1)C1CC1

$$$$
