
     RDKit          3D

 46 49  0  0  0  0  0  0  0  0999 V2000
    6.3342   -1.9324   25.3212 C   0  0  0  0  0  0  0  0  0  0  0  0
    6.2219   -2.9101   24.3074 O   0  0  0  0  0  0  0  0  0  0  0  0
    7.4111   -3.0776   23.5535 C   0  0  0  0  0  0  0  0  0  0  0  0
    7.6272   -1.9928   22.5212 C   0  0  0  0  0  0  0  0  0  0  0  0
    6.6978   -1.5959   21.6706 N   0  0  0  0  0  0  0  0  0  0  0  0
    7.3485   -0.6622   20.9299 N   0  0  0  0  0  0  0  0  0  0  0  0
    6.6600    0.0102   19.8834 C   0  0  0  0  0  0  0  0  0  0  0  0
    5.4422    0.6420   20.1510 C   0  0  0  0  0  0  0  0  0  0  0  0
    4.8057    1.3117   19.1013 C   0  0  0  0  0  0  0  0  0  0  0  0
    5.3921    1.2977   17.8294 C   0  0  0  0  0  0  0  0  0  0  0  0
    6.5428    0.6634   17.5590 N   0  0  0  0  0  0  0  0  0  0  0  0
    7.1595    0.0412   18.5704 C   0  0  0  0  0  0  0  0  0  0  0  0
    8.1043   -0.4487   18.3376 H   0  0  0  0  0  0  0  0  0  0  0  0
    4.9233    1.8094   16.9920 H   0  0  0  0  0  0  0  0  0  0  0  0
    3.8738    1.8458   19.2548 H   0  0  0  0  0  0  0  0  0  0  0  0
    5.0240    0.5939   21.1582 H   0  0  0  0  0  0  0  0  0  0  0  0
    8.6241   -0.5291   21.3998 C   0  0  0  0  0  0  0  0  0  0  0  0
    9.6527    0.3910   20.8659 C   0  0  0  0  0  0  0  0  0  0  0  0
   10.2312    1.2237   21.9703 C   0  0  0  0  0  0  0  0  0  0  0  0
   11.4707    0.8907   22.3356 N   0  0  0  0  0  0  0  0  0  0  0  0
   12.0393    1.5633   23.3436 C   0  0  0  0  0  0  0  0  0  0  0  0
   11.3971    2.5992   24.0191 C   0  0  0  0  0  0  0  0  0  0  0  0
   10.0993    2.9543   23.6245 C   0  0  0  0  0  0  0  0  0  0  0  0
    9.4819    2.2642   22.5782 C   0  0  0  0  0  0  0  0  0  0  0  0
    8.0779    2.6250   22.1463 C   0  0  0  0  0  0  0  0  0  0  0  0
    8.0230    2.8222   21.0718 H   0  0  0  0  0  0  0  0  0  0  0  0
    7.3704    1.8136   22.3557 H   0  0  0  0  0  0  0  0  0  0  0  0
    7.7336    3.5179   22.6729 H   0  0  0  0  0  0  0  0  0  0  0  0
    9.5540    3.7616   24.1176 H   0  0  0  0  0  0  0  0  0  0  0  0
   11.9104    3.1085   24.8206 H   0  0  0  0  0  0  0  0  0  0  0  0
   13.0443    1.2428   23.6174 H   0  0  0  0  0  0  0  0  0  0  0  0
   10.4441   -0.2421   20.4655 H   0  0  0  0  0  0  0  0  0  0  0  0
    9.2200    1.0234   20.0927 H   0  0  0  0  0  0  0  0  0  0  0  0
    8.8292   -1.3729   22.3880 N   0  0  0  0  0  0  0  0  0  0  0  0
    7.3704   -4.4514   22.9145 C   0  0  0  0  0  0  0  0  0  0  0  0
    7.7398   -5.6374   23.7574 C   0  0  0  0  0  0  0  0  0  0  0  0
    8.6794   -5.1452   22.6963 C   0  0  0  0  0  0  0  0  0  0  0  0
    8.8195   -5.7510   21.8045 H   0  0  0  0  0  0  0  0  0  0  0  0
    9.5606   -4.5911   23.0223 H   0  0  0  0  0  0  0  0  0  0  0  0
    7.1957   -6.5493   23.5530 H   0  0  0  0  0  0  0  0  0  0  0  0
    7.9925   -5.4912   24.8070 H   0  0  0  0  0  0  0  0  0  0  0  0
    6.5744   -4.5658   22.1760 H   0  0  0  0  0  0  0  0  0  0  0  0
    8.3025   -3.0198   24.2075 H   0  0  0  0  0  0  0  0  0  0  0  0
    6.7582   -0.9915   24.9400 H   0  0  0  0  0  0  0  0  0  0  0  0
    6.9669   -2.2896   26.1489 H   0  0  0  0  0  0  0  0  0  0  0  0
    5.3247   -1.7434   25.6925 H   0  0  0  0  0  0  0  0  0  0  0  0
  1  2  1  0
  2  3  1  0
  3  4  1  0
  4  5  2  0
  5  6  1  0
  6  7  1  0
  7  8  2  0
  8  9  1  0
  9 10  2  0
 10 11  1  0
 11 12  2  0
 12 13  1  0
 10 14  1  0
  9 15  1  0
  8 16  1  0
  6 17  1  0
 17 18  1  0
 18 19  1  0
 19 20  2  0
 20 21  1  0
 21 22  2  0
 22 23  1  0
 23 24  2  0
 24 25  1  0
 25 26  1  0
 25 27  1  0
 25 28  1  0
 23 29  1  0
 22 30  1  0
 21 31  1  0
 18 32  1  0
 18 33  1  0
 17 34  2  0
  3 35  1  0
 35 36  1  0
 36 37  1  0
 37 38  1  0
 37 39  1  0
 36 40  1  0
 36 41  1  0
 35 42  1  0
  3 43  1  0
  1 44  1  0
  1 45  1  0
  1 46  1  0
 34  4  1  0
 37 35  1  0
 12  7  1  0
 24 19  1  0
M  END
>  <cnnaffinity>  (1) 
-6.07736

>  <filename>  (1) 
COC(c1nc(Cc2ncccc2C)n(-c2cccnc2)n1)C1CC1

$$$$
