
     RDKit          3D

 43 45  0  0  0  0  0  0  0  0999 V2000
    7.3170   -5.0455   22.6290 C   0  0  0  0  0  0  0  0  0  0  0  0
    6.5991   -4.0458   23.3265 O   0  0  0  0  0  0  0  0  0  0  0  0
    7.3925   -2.9286   23.6849 C   0  0  0  0  0  0  0  0  0  0  0  0
    6.7086   -2.2238   24.8622 C   0  0  0  0  0  0  0  0  0  0  0  0
    6.5327   -2.9399   25.6709 H   0  0  0  0  0  0  0  0  0  0  0  0
    7.3524   -1.4265   25.2454 H   0  0  0  0  0  0  0  0  0  0  0  0
    5.7473   -1.7948   24.5552 H   0  0  0  0  0  0  0  0  0  0  0  0
    7.6592   -1.9793   22.5227 C   0  0  0  0  0  0  0  0  0  0  0  0
    6.7350   -1.5993   21.6638 N   0  0  0  0  0  0  0  0  0  0  0  0
    7.3699   -0.6459   20.9357 N   0  0  0  0  0  0  0  0  0  0  0  0
    6.6699    0.0208   19.8933 C   0  0  0  0  0  0  0  0  0  0  0  0
    5.4453    0.6430   20.1530 C   0  0  0  0  0  0  0  0  0  0  0  0
    4.8104    1.3105   19.1022 C   0  0  0  0  0  0  0  0  0  0  0  0
    5.3957    1.2974   17.8308 C   0  0  0  0  0  0  0  0  0  0  0  0
    6.5493    0.6665   17.5672 N   0  0  0  0  0  0  0  0  0  0  0  0
    7.1684    0.0511   18.5800 C   0  0  0  0  0  0  0  0  0  0  0  0
    8.1113   -0.4394   18.3461 H   0  0  0  0  0  0  0  0  0  0  0  0
    4.9285    1.8034   16.9890 H   0  0  0  0  0  0  0  0  0  0  0  0
    3.8777    1.8397   19.2538 H   0  0  0  0  0  0  0  0  0  0  0  0
    5.0165    0.5917   21.1547 H   0  0  0  0  0  0  0  0  0  0  0  0
    8.6363   -0.4711   21.4287 C   0  0  0  0  0  0  0  0  0  0  0  0
    9.5072    0.6896   21.0149 C   0  0  0  0  0  0  0  0  0  0  0  0
   10.9700    0.4405   21.3929 C   0  0  0  0  0  0  0  0  0  0  0  0
   11.0768    0.3091   22.4739 H   0  0  0  0  0  0  0  0  0  0  0  0
   11.3310   -0.4784   20.9178 H   0  0  0  0  0  0  0  0  0  0  0  0
   11.6064    1.2752   21.0749 H   0  0  0  0  0  0  0  0  0  0  0  0
    8.9603    2.0510   21.5629 C   0  0  0  0  0  0  0  0  0  0  0  0
    8.7675    2.0744   23.0544 C   0  0  0  0  0  0  0  0  0  0  0  0
    7.7117    1.6728   23.8408 C   0  0  0  0  0  0  0  0  0  0  0  0
    8.0278    1.7290   25.1741 N   0  0  0  0  0  0  0  0  0  0  0  0
    9.2651    2.1472   25.2156 C   0  0  0  0  0  0  0  0  0  0  0  0
    9.7596    2.3816   23.9667 N   0  0  0  0  0  0  0  0  0  0  0  0
   10.7094    2.6471   23.7365 H   0  0  0  0  0  0  0  0  0  0  0  0
    9.8422    2.3052   26.1169 H   0  0  0  0  0  0  0  0  0  0  0  0
    6.7536    1.2968   23.5066 H   0  0  0  0  0  0  0  0  0  0  0  0
    9.6420    2.8505   21.2419 H   0  0  0  0  0  0  0  0  0  0  0  0
    8.0028    2.2658   21.0762 H   0  0  0  0  0  0  0  0  0  0  0  0
    9.4268    0.7288   19.9233 H   0  0  0  0  0  0  0  0  0  0  0  0
    8.8528   -1.3410   22.4026 N   0  0  0  0  0  0  0  0  0  0  0  0
    8.3971   -3.2547   24.0025 H   0  0  0  0  0  0  0  0  0  0  0  0
    8.0090   -5.5787   23.2999 H   0  0  0  0  0  0  0  0  0  0  0  0
    7.9016   -4.6311   21.7938 H   0  0  0  0  0  0  0  0  0  0  0  0
    6.5752   -5.7413   22.2332 H   0  0  0  0  0  0  0  0  0  0  0  0
  1  2  1  0
  2  3  1  0
  3  4  1  0
  4  5  1  0
  4  6  1  0
  4  7  1  0
  3  8  1  0
  8  9  2  0
  9 10  1  0
 10 11  1  0
 11 12  2  0
 12 13  1  0
 13 14  2  0
 14 15  1  0
 15 16  2  0
 16 17  1  0
 14 18  1  0
 13 19  1  0
 12 20  1  0
 10 21  1  0
 21 22  1  0
 22 23  1  0
 23 24  1  0
 23 25  1  0
 23 26  1  0
 22 27  1  0
 27 28  1  0
 28 29  2  0
 29 30  1  0
 30 31  2  0
 31 32  1  0
 32 33  1  0
 31 34  1  0
 29 35  1  0
 27 36  1  0
 27 37  1  0
 22 38  1  0
 21 39  2  0
  3 40  1  0
  1 41  1  0
  1 42  1  0
  1 43  1  0
 39  8  1  0
 16 11  1  0
 32 28  1  0
M  END
>  <cnnaffinity>  (1) 
-5.69716

>  <filename>  (1) 
COC(C)c1nc(C(C)Cc2cnc[nH]2)n(-c2cccnc2)n1

$$$$
