
     RDKit          3D

 50 53  0  0  0  0  0  0  0  0999 V2000
    8.2440   -4.9617   23.1532 C   0  0  0  0  0  0  0  0  0  0  0  0
    8.0947   -3.9509   24.1284 O   0  0  0  0  0  0  0  0  0  0  0  0
    7.1401   -2.9403   23.8293 C   0  0  0  0  0  0  0  0  0  0  0  0
    7.4774   -2.0876   22.6091 C   0  0  0  0  0  0  0  0  0  0  0  0
    6.5423   -1.6876   21.7627 N   0  0  0  0  0  0  0  0  0  0  0  0
    7.2253   -0.8690   20.9122 N   0  0  0  0  0  0  0  0  0  0  0  0
    6.5589   -0.1700   19.8670 C   0  0  0  0  0  0  0  0  0  0  0  0
    5.3970    0.5565   20.1351 C   0  0  0  0  0  0  0  0  0  0  0  0
    4.8256    1.2919   19.0941 C   0  0  0  0  0  0  0  0  0  0  0  0
    5.4246    1.2621   17.8273 C   0  0  0  0  0  0  0  0  0  0  0  0
    6.5231    0.5433   17.5537 N   0  0  0  0  0  0  0  0  0  0  0  0
    7.0733   -0.1526   18.5560 C   0  0  0  0  0  0  0  0  0  0  0  0
    7.9783   -0.7103   18.3238 H   0  0  0  0  0  0  0  0  0  0  0  0
    5.0046    1.8320   17.0014 H   0  0  0  0  0  0  0  0  0  0  0  0
    3.9375    1.8928   19.2547 H   0  0  0  0  0  0  0  0  0  0  0  0
    4.9772    0.5385   21.1429 H   0  0  0  0  0  0  0  0  0  0  0  0
    8.5195   -0.7794   21.3322 C   0  0  0  0  0  0  0  0  0  0  0  0
    9.5695    0.1191   20.7577 C   0  0  0  0  0  0  0  0  0  0  0  0
   10.3682    0.8047   21.8544 C   0  0  0  0  0  0  0  0  0  0  0  0
   11.5254    0.1850   22.3862 C   0  0  0  0  0  0  0  0  0  0  0  0
   11.9775   -1.2014   21.9641 C   0  0  0  0  0  0  0  0  0  0  0  0
   12.0593   -1.3029   20.8764 H   0  0  0  0  0  0  0  0  0  0  0  0
   12.9530   -1.4393   22.3987 H   0  0  0  0  0  0  0  0  0  0  0  0
   11.2659   -1.9592   22.3122 H   0  0  0  0  0  0  0  0  0  0  0  0
   12.2446    0.8622   23.3820 C   0  0  0  0  0  0  0  0  0  0  0  0
   11.7572    2.0472   23.9376 C   0  0  0  0  0  0  0  0  0  0  0  0
   10.5581    2.5957   23.4750 C   0  0  0  0  0  0  0  0  0  0  0  0
    9.8393    1.9805   22.4388 C   0  0  0  0  0  0  0  0  0  0  0  0
    8.5209    2.5873   21.9746 C   0  0  0  0  0  0  0  0  0  0  0  0
    8.5992    2.9799   20.9519 H   0  0  0  0  0  0  0  0  0  0  0  0
    8.2037    3.4040   22.6316 H   0  0  0  0  0  0  0  0  0  0  0  0
    7.7160    1.8390   21.9642 H   0  0  0  0  0  0  0  0  0  0  0  0
   10.1459    3.4850   23.9518 H   0  0  0  0  0  0  0  0  0  0  0  0
   12.2891    2.5217   24.7513 H   0  0  0  0  0  0  0  0  0  0  0  0
   13.1902    0.4408   23.7208 H   0  0  0  0  0  0  0  0  0  0  0  0
   10.2072   -0.5087   20.1367 H   0  0  0  0  0  0  0  0  0  0  0  0
    9.1231    0.8678   20.0988 H   0  0  0  0  0  0  0  0  0  0  0  0
    8.7112   -1.6000   22.3495 N   0  0  0  0  0  0  0  0  0  0  0  0
    6.9975   -2.1248   25.1165 C   0  0  0  0  0  0  0  0  0  0  0  0
    8.0414   -1.1184   25.5172 C   0  0  0  0  0  0  0  0  0  0  0  0
    6.6668   -0.6590   25.1213 C   0  0  0  0  0  0  0  0  0  0  0  0
    6.5746   -0.1644   24.1537 H   0  0  0  0  0  0  0  0  0  0  0  0
    5.9945   -0.2784   25.8870 H   0  0  0  0  0  0  0  0  0  0  0  0
    8.8418   -0.9327   24.8016 H   0  0  0  0  0  0  0  0  0  0  0  0
    8.3482   -1.0804   26.5615 H   0  0  0  0  0  0  0  0  0  0  0  0
    6.5835   -2.7242   25.9257 H   0  0  0  0  0  0  0  0  0  0  0  0
    6.1655   -3.3901   23.5903 H   0  0  0  0  0  0  0  0  0  0  0  0
    8.5915   -4.5638   22.1870 H   0  0  0  0  0  0  0  0  0  0  0  0
    8.9973   -5.6471   23.5490 H   0  0  0  0  0  0  0  0  0  0  0  0
    7.3054   -5.5151   22.9929 H   0  0  0  0  0  0  0  0  0  0  0  0
  1  2  1  0
  2  3  1  0
  3  4  1  0
  4  5  2  0
  5  6  1  0
  6  7  1  0
  7  8  2  0
  8  9  1  0
  9 10  2  0
 10 11  1  0
 11 12  2  0
 12 13  1  0
 10 14  1  0
  9 15  1  0
  8 16  1  0
  6 17  1  0
 17 18  1  0
 18 19  1  0
 19 20  2  0
 20 21  1  0
 21 22  1  0
 21 23  1  0
 21 24  1  0
 20 25  1  0
 25 26  2  0
 26 27  1  0
 27 28  2  0
 28 29  1  0
 29 30  1  0
 29 31  1  0
 29 32  1  0
 27 33  1  0
 26 34  1  0
 25 35  1  0
 18 36  1  0
 18 37  1  0
 17 38  2  0
  3 39  1  0
 39 40  1  0
 40 41  1  0
 41 42  1  0
 41 43  1  0
 40 44  1  0
 40 45  1  0
 39 46  1  0
  3 47  1  0
  1 48  1  0
  1 49  1  0
  1 50  1  0
 38  4  1  0
 41 39  1  0
 12  7  1  0
 28 19  1  0
M  END
>  <cnnaffinity>  (1) 
-6.53302

>  <filename>  (1) 
COC(c1nc(Cc2c(C)cccc2C)n(-c2cccnc2)n1)C1CC1

$$$$
