
     RDKit          3D

 43 46  0  0  0  0  0  0  0  0999 V2000
   10.8096   -2.5433   23.0721 C   0  0  0  0  0  0  0  0  0  0  0  0
    9.8515   -3.5923   23.1102 O   0  0  0  0  0  0  0  0  0  0  0  0
    8.7069   -3.5358   22.2589 C   0  0  0  0  0  0  0  0  0  0  0  0
    8.1352   -2.1583   21.9980 C   0  0  0  0  0  0  0  0  0  0  0  0
    7.7221   -1.8276   20.7897 N   0  0  0  0  0  0  0  0  0  0  0  0
    7.2810   -0.5516   20.9578 N   0  0  0  0  0  0  0  0  0  0  0  0
    6.6023    0.0991   19.9030 C   0  0  0  0  0  0  0  0  0  0  0  0
    5.3837    0.7540   20.1085 C   0  0  0  0  0  0  0  0  0  0  0  0
    4.7864    1.3675   19.0039 C   0  0  0  0  0  0  0  0  0  0  0  0
    5.4275    1.3061   17.7616 C   0  0  0  0  0  0  0  0  0  0  0  0
    6.5834    0.6460   17.5593 N   0  0  0  0  0  0  0  0  0  0  0  0
    7.1429    0.0410   18.6086 C   0  0  0  0  0  0  0  0  0  0  0  0
    8.0581   -0.5252   18.4422 H   0  0  0  0  0  0  0  0  0  0  0  0
    4.9961    1.7882   16.8874 H   0  0  0  0  0  0  0  0  0  0  0  0
    3.8445    1.8962   19.1002 H   0  0  0  0  0  0  0  0  0  0  0  0
    4.9136    0.7558   21.0940 H   0  0  0  0  0  0  0  0  0  0  0  0
    7.5256   -0.1642   22.2430 C   0  0  0  0  0  0  0  0  0  0  0  0
    7.3354    1.1857   22.8617 C   0  0  0  0  0  0  0  0  0  0  0  0
    8.6126    1.6994   23.5185 C   0  0  0  0  0  0  0  0  0  0  0  0
    8.8342    1.6588   24.9031 C   0  0  0  0  0  0  0  0  0  0  0  0
    9.9997    1.9536   25.4937 N   0  0  0  0  0  0  0  0  0  0  0  0
   11.0187    2.3272   24.7110 C   0  0  0  0  0  0  0  0  0  0  0  0
   10.9185    2.4622   23.3318 C   0  0  0  0  0  0  0  0  0  0  0  0
    9.7010    2.1226   22.7483 C   0  0  0  0  0  0  0  0  0  0  0  0
    9.5517    2.2031   21.0319 Cl  0  0  0  0  0  0  0  0  0  0  0  0
   11.7453    2.8265   22.7345 H   0  0  0  0  0  0  0  0  0  0  0  0
   11.9581    2.5468   25.2123 H   0  0  0  0  0  0  0  0  0  0  0  0
    8.0239    1.3598   25.5699 H   0  0  0  0  0  0  0  0  0  0  0  0
    6.9964    1.8899   22.0971 H   0  0  0  0  0  0  0  0  0  0  0  0
    6.5509    1.0741   23.6148 H   0  0  0  0  0  0  0  0  0  0  0  0
    8.0341   -1.1759   22.9212 N   0  0  0  0  0  0  0  0  0  0  0  0
    7.7082   -4.4809   22.9054 C   0  0  0  0  0  0  0  0  0  0  0  0
    6.7439   -5.3424   22.1409 C   0  0  0  0  0  0  0  0  0  0  0  0
    7.9477   -5.9628   22.7957 C   0  0  0  0  0  0  0  0  0  0  0  0
    7.8394   -6.5540   23.6992 H   0  0  0  0  0  0  0  0  0  0  0  0
    8.7612   -6.3005   22.1579 H   0  0  0  0  0  0  0  0  0  0  0  0
    5.7637   -5.5192   22.5791 H   0  0  0  0  0  0  0  0  0  0  0  0
    6.7189   -5.2686   21.0551 H   0  0  0  0  0  0  0  0  0  0  0  0
    7.3787   -4.1225   23.8803 H   0  0  0  0  0  0  0  0  0  0  0  0
    8.9477   -3.8839   21.2454 H   0  0  0  0  0  0  0  0  0  0  0  0
   10.8115   -1.9993   24.0277 H   0  0  0  0  0  0  0  0  0  0  0  0
   10.5788   -1.8018   22.3016 H   0  0  0  0  0  0  0  0  0  0  0  0
   11.8038   -2.9661   22.8969 H   0  0  0  0  0  0  0  0  0  0  0  0
  1  2  1  0
  2  3  1  0
  3  4  1  0
  4  5  2  0
  5  6  1  0
  6  7  1  0
  7  8  2  0
  8  9  1  0
  9 10  2  0
 10 11  1  0
 11 12  2  0
 12 13  1  0
 10 14  1  0
  9 15  1  0
  8 16  1  0
  6 17  1  0
 17 18  1  0
 18 19  1  0
 19 20  2  0
 20 21  1  0
 21 22  2  0
 22 23  1  0
 23 24  2  0
 24 25  1  0
 23 26  1  0
 22 27  1  0
 20 28  1  0
 18 29  1  0
 18 30  1  0
 17 31  2  0
  3 32  1  0
 32 33  1  0
 33 34  1  0
 34 35  1  0
 34 36  1  0
 33 37  1  0
 33 38  1  0
 32 39  1  0
  3 40  1  0
  1 41  1  0
  1 42  1  0
  1 43  1  0
 31  4  1  0
 34 32  1  0
 12  7  1  0
 24 19  1  0
M  END
>  <cnnaffinity>  (1) 
-6.38226

>  <filename>  (1) 
COC(c1nc(Cc2cnccc2Cl)n(-c2cccnc2)n1)C1CC1

$$$$
