
     RDKit          3D

 43 46  0  0  0  0  0  0  0  0999 V2000
    7.3436   -5.1391   22.5438 C   0  0  0  0  0  0  0  0  0  0  0  0
    6.6298   -4.1681   23.2825 O   0  0  0  0  0  0  0  0  0  0  0  0
    7.3771   -3.0222   23.6567 C   0  0  0  0  0  0  0  0  0  0  0  0
    7.5605   -2.0191   22.5286 C   0  0  0  0  0  0  0  0  0  0  0  0
    6.6354   -1.6148   21.6840 N   0  0  0  0  0  0  0  0  0  0  0  0
    7.2957   -0.6957   20.9260 N   0  0  0  0  0  0  0  0  0  0  0  0
    6.6303   -0.0143   19.8693 C   0  0  0  0  0  0  0  0  0  0  0  0
    5.4175    0.6307   20.1302 C   0  0  0  0  0  0  0  0  0  0  0  0
    4.7927    1.3169   19.0872 C   0  0  0  0  0  0  0  0  0  0  0  0
    5.3894    1.3058   17.8195 C   0  0  0  0  0  0  0  0  0  0  0  0
    6.5314    0.6562   17.5508 N   0  0  0  0  0  0  0  0  0  0  0  0
    7.1399    0.0205   18.5564 C   0  0  0  0  0  0  0  0  0  0  0  0
    8.0795   -0.4772   18.3131 H   0  0  0  0  0  0  0  0  0  0  0  0
    4.9296    1.8368   16.9892 H   0  0  0  0  0  0  0  0  0  0  0  0
    3.8682    1.8611   19.2465 H   0  0  0  0  0  0  0  0  0  0  0  0
    5.0049    0.5747   21.1381 H   0  0  0  0  0  0  0  0  0  0  0  0
    8.5785   -0.5830   21.3826 C   0  0  0  0  0  0  0  0  0  0  0  0
    9.6446    0.3136   20.8301 C   0  0  0  0  0  0  0  0  0  0  0  0
   10.3415    1.1556   21.8908 C   0  0  0  0  0  0  0  0  0  0  0  0
   11.6053    0.7852   22.3652 C   0  0  0  0  0  0  0  0  0  0  0  0
   12.1899    1.4710   23.4346 C   0  0  0  0  0  0  0  0  0  0  0  0
   11.4751    2.5306   23.9850 C   0  0  0  0  0  0  0  0  0  0  0  0
   10.2705    2.9249   23.5532 N   0  0  0  0  0  0  0  0  0  0  0  0
    9.7371    2.2510   22.5473 C   0  0  0  0  0  0  0  0  0  0  0  0
    8.1500    2.7688   22.0710 Cl  0  0  0  0  0  0  0  0  0  0  0  0
   11.8686    3.0854   24.8259 H   0  0  0  0  0  0  0  0  0  0  0  0
   13.1560    1.1898   23.8407 H   0  0  0  0  0  0  0  0  0  0  0  0
   12.1150   -0.0540   21.8972 H   0  0  0  0  0  0  0  0  0  0  0  0
   10.3724   -0.3561   20.3584 H   0  0  0  0  0  0  0  0  0  0  0  0
    9.2163    0.9469   20.0518 H   0  0  0  0  0  0  0  0  0  0  0  0
    8.7702   -1.4157   22.3845 N   0  0  0  0  0  0  0  0  0  0  0  0
    6.7456   -2.3388   24.8658 C   0  0  0  0  0  0  0  0  0  0  0  0
    5.2587   -2.1975   24.9802 C   0  0  0  0  0  0  0  0  0  0  0  0
    5.9952   -3.1013   25.9177 C   0  0  0  0  0  0  0  0  0  0  0  0
    6.1257   -2.8360   26.9623 H   0  0  0  0  0  0  0  0  0  0  0  0
    5.8683   -4.1619   25.7335 H   0  0  0  0  0  0  0  0  0  0  0  0
    4.6823   -2.7035   24.2136 H   0  0  0  0  0  0  0  0  0  0  0  0
    4.8400   -1.2473   25.3019 H   0  0  0  0  0  0  0  0  0  0  0  0
    7.3511   -1.5050   25.2177 H   0  0  0  0  0  0  0  0  0  0  0  0
    8.4023   -3.3055   23.9361 H   0  0  0  0  0  0  0  0  0  0  0  0
    7.9065   -4.7024   21.7046 H   0  0  0  0  0  0  0  0  0  0  0  0
    8.0411   -5.6997   23.1847 H   0  0  0  0  0  0  0  0  0  0  0  0
    6.5952   -5.8290   22.1452 H   0  0  0  0  0  0  0  0  0  0  0  0
  1  2  1  0
  2  3  1  0
  3  4  1  0
  4  5  2  0
  5  6  1  0
  6  7  1  0
  7  8  2  0
  8  9  1  0
  9 10  2  0
 10 11  1  0
 11 12  2  0
 12 13  1  0
 10 14  1  0
  9 15  1  0
  8 16  1  0
  6 17  1  0
 17 18  1  0
 18 19  1  0
 19 20  2  0
 20 21  1  0
 21 22  2  0
 22 23  1  0
 23 24  2  0
 24 25  1  0
 22 26  1  0
 21 27  1  0
 20 28  1  0
 18 29  1  0
 18 30  1  0
 17 31  2  0
  3 32  1  0
 32 33  1  0
 33 34  1  0
 34 35  1  0
 34 36  1  0
 33 37  1  0
 33 38  1  0
 32 39  1  0
  3 40  1  0
  1 41  1  0
  1 42  1  0
  1 43  1  0
 31  4  1  0
 34 32  1  0
 12  7  1  0
 24 19  1  0
M  END
>  <cnnaffinity>  (1) 
-6.19446

>  <filename>  (1) 
COC(c1nc(Cc2cccnc2Cl)n(-c2cccnc2)n1)C1CC1

$$$$
