
     RDKit          3D

 43 45  0  0  0  0  0  0  0  0999 V2000
    6.2349   -3.1905   25.5912 C   0  0  0  0  0  0  0  0  0  0  0  0
    6.2001   -2.9107   24.2123 O   0  0  0  0  0  0  0  0  0  0  0  0
    7.4336   -3.0920   23.5341 C   0  0  0  0  0  0  0  0  0  0  0  0
    7.4613   -4.4797   22.8768 C   0  0  0  0  0  0  0  0  0  0  0  0
    7.3248   -5.2599   23.6325 H   0  0  0  0  0  0  0  0  0  0  0  0
    8.4158   -4.6416   22.3652 H   0  0  0  0  0  0  0  0  0  0  0  0
    6.6423   -4.5457   22.1536 H   0  0  0  0  0  0  0  0  0  0  0  0
    7.6354   -2.0004   22.5162 C   0  0  0  0  0  0  0  0  0  0  0  0
    6.6867   -1.5831   21.7003 N   0  0  0  0  0  0  0  0  0  0  0  0
    7.3345   -0.6876   20.9200 N   0  0  0  0  0  0  0  0  0  0  0  0
    6.6448    0.0008   19.8897 C   0  0  0  0  0  0  0  0  0  0  0  0
    5.4347    0.6426   20.1635 C   0  0  0  0  0  0  0  0  0  0  0  0
    4.8119    1.3130   19.1086 C   0  0  0  0  0  0  0  0  0  0  0  0
    5.3978    1.2987   17.8356 C   0  0  0  0  0  0  0  0  0  0  0  0
    6.5534    0.6723   17.5681 N   0  0  0  0  0  0  0  0  0  0  0  0
    7.1604    0.0470   18.5821 C   0  0  0  0  0  0  0  0  0  0  0  0
    8.1117   -0.4304   18.3599 H   0  0  0  0  0  0  0  0  0  0  0  0
    4.9212    1.7898   16.9924 H   0  0  0  0  0  0  0  0  0  0  0  0
    3.8808    1.8408   19.2591 H   0  0  0  0  0  0  0  0  0  0  0  0
    5.0177    0.6033   21.1749 H   0  0  0  0  0  0  0  0  0  0  0  0
    8.6216   -0.5684   21.3598 C   0  0  0  0  0  0  0  0  0  0  0  0
    9.6329    0.3466   20.7785 C   0  0  0  0  0  0  0  0  0  0  0  0
   10.4129    1.0911   21.8419 C   0  0  0  0  0  0  0  0  0  0  0  0
   11.6149    0.5778   22.3604 C   0  0  0  0  0  0  0  0  0  0  0  0
   12.2795   -0.9154   21.7516 Cl  0  0  0  0  0  0  0  0  0  0  0  0
   12.2963    1.2036   23.4065 C   0  0  0  0  0  0  0  0  0  0  0  0
   11.7474    2.3598   23.9476 C   0  0  0  0  0  0  0  0  0  0  0  0
   10.5437    2.8775   23.4732 C   0  0  0  0  0  0  0  0  0  0  0  0
    9.8541    2.2461   22.4380 C   0  0  0  0  0  0  0  0  0  0  0  0
    8.5356    2.8225   21.9842 C   0  0  0  0  0  0  0  0  0  0  0  0
    7.7336    2.0774   21.9587 H   0  0  0  0  0  0  0  0  0  0  0  0
    8.6270    3.2203   20.9737 H   0  0  0  0  0  0  0  0  0  0  0  0
    8.2121    3.6427   22.6291 H   0  0  0  0  0  0  0  0  0  0  0  0
   10.1273    3.7836   23.9071 H   0  0  0  0  0  0  0  0  0  0  0  0
   12.2309    2.8698   24.7577 H   0  0  0  0  0  0  0  0  0  0  0  0
   13.2267    0.7762   23.7714 H   0  0  0  0  0  0  0  0  0  0  0  0
   10.2712   -0.3326   20.2158 H   0  0  0  0  0  0  0  0  0  0  0  0
    9.1498    1.0575   20.1058 H   0  0  0  0  0  0  0  0  0  0  0  0
    8.8544   -1.4420   22.3183 N   0  0  0  0  0  0  0  0  0  0  0  0
    8.2860   -2.9890   24.2263 H   0  0  0  0  0  0  0  0  0  0  0  0
    6.5712   -4.2204   25.7928 H   0  0  0  0  0  0  0  0  0  0  0  0
    5.2135   -3.0635   25.9536 H   0  0  0  0  0  0  0  0  0  0  0  0
    6.9021   -2.4960   26.1296 H   0  0  0  0  0  0  0  0  0  0  0  0
  1  2  1  0
  2  3  1  0
  3  4  1  0
  4  5  1  0
  4  6  1  0
  4  7  1  0
  3  8  1  0
  8  9  2  0
  9 10  1  0
 10 11  1  0
 11 12  2  0
 12 13  1  0
 13 14  2  0
 14 15  1  0
 15 16  2  0
 16 17  1  0
 14 18  1  0
 13 19  1  0
 12 20  1  0
 10 21  1  0
 21 22  1  0
 22 23  1  0
 23 24  2  0
 24 25  1  0
 24 26  1  0
 26 27  2  0
 27 28  1  0
 28 29  2  0
 29 30  1  0
 30 31  1  0
 30 32  1  0
 30 33  1  0
 28 34  1  0
 27 35  1  0
 26 36  1  0
 22 37  1  0
 22 38  1  0
 21 39  2  0
  3 40  1  0
  1 41  1  0
  1 42  1  0
  1 43  1  0
 39  8  1  0
 16 11  1  0
 29 23  1  0
M  END
>  <cnnaffinity>  (1) 
-6.39219

>  <filename>  (1) 
COC(C)c1nc(Cc2c(C)cccc2Cl)n(-c2cccnc2)n1

$$$$
