
     RDKit          3D

 41 43  0  0  0  0  0  0  0  0999 V2000
    7.7227   -5.3169   22.5108 C   0  0  0  0  0  0  0  0  0  0  0  0
    8.3959   -4.2281   21.8635 O   0  0  0  0  0  0  0  0  0  0  0  0
    8.5500   -3.0474   22.6854 C   0  0  0  0  0  0  0  0  0  0  0  0
   10.0501   -2.7596   22.8298 C   0  0  0  0  0  0  0  0  0  0  0  0
   10.5617   -3.6515   23.1993 H   0  0  0  0  0  0  0  0  0  0  0  0
   10.4820   -2.4790   21.8644 H   0  0  0  0  0  0  0  0  0  0  0  0
   10.2260   -1.9409   23.5371 H   0  0  0  0  0  0  0  0  0  0  0  0
    7.8380   -1.8131   22.1397 C   0  0  0  0  0  0  0  0  0  0  0  0
    7.5280   -1.5574   20.8866 N   0  0  0  0  0  0  0  0  0  0  0  0
    7.0125   -0.3067   20.9335 N   0  0  0  0  0  0  0  0  0  0  0  0
    6.4531    0.3298   19.8220 C   0  0  0  0  0  0  0  0  0  0  0  0
    5.3804    1.2248   19.9257 C   0  0  0  0  0  0  0  0  0  0  0  0
    4.8441    1.7366   18.7446 C   0  0  0  0  0  0  0  0  0  0  0  0
    5.3943    1.3649   17.5094 C   0  0  0  0  0  0  0  0  0  0  0  0
    6.4420    0.5260   17.4139 N   0  0  0  0  0  0  0  0  0  0  0  0
    6.9543    0.0180   18.5500 C   0  0  0  0  0  0  0  0  0  0  0  0
    7.8108   -0.6485   18.4842 H   0  0  0  0  0  0  0  0  0  0  0  0
    4.9538    1.7530   16.5987 H   0  0  0  0  0  0  0  0  0  0  0  0
    3.9971    2.4146   18.7635 H   0  0  0  0  0  0  0  0  0  0  0  0
    4.9547    1.4884   20.8959 H   0  0  0  0  0  0  0  0  0  0  0  0
    7.0982    0.1793   22.2258 C   0  0  0  0  0  0  0  0  0  0  0  0
    6.8946    1.6235   22.6215 C   0  0  0  0  0  0  0  0  0  0  0  0
    7.8984    2.0621   23.5623 O   0  0  0  0  0  0  0  0  0  0  0  0
    9.1925    2.1031   23.0913 C   0  0  0  0  0  0  0  0  0  0  0  0
    9.4846    2.3303   21.7349 C   0  0  0  0  0  0  0  0  0  0  0  0
   10.8086    2.3507   21.2839 C   0  0  0  0  0  0  0  0  0  0  0  0
   11.8544    2.1518   22.1841 C   0  0  0  0  0  0  0  0  0  0  0  0
   11.5792    1.9451   23.5348 C   0  0  0  0  0  0  0  0  0  0  0  0
   10.2579    1.9132   23.9888 C   0  0  0  0  0  0  0  0  0  0  0  0
    9.9373    1.5707   25.8379 Br  0  0  0  0  0  0  0  0  0  0  0  0
   12.3912    1.8056   24.2422 H   0  0  0  0  0  0  0  0  0  0  0  0
   12.8796    2.1681   21.8318 H   0  0  0  0  0  0  0  0  0  0  0  0
   11.0402    2.5425   20.2438 H   0  0  0  0  0  0  0  0  0  0  0  0
    8.6702    2.5099   21.0405 H   0  0  0  0  0  0  0  0  0  0  0  0
    6.9368    2.2399   21.7196 H   0  0  0  0  0  0  0  0  0  0  0  0
    5.9016    1.7541   23.0536 H   0  0  0  0  0  0  0  0  0  0  0  0
    7.5210   -0.7768   23.0078 N   0  0  0  0  0  0  0  0  0  0  0  0
    8.1389   -3.2278   23.6855 H   0  0  0  0  0  0  0  0  0  0  0  0
    8.3665   -6.2030   22.5422 H   0  0  0  0  0  0  0  0  0  0  0  0
    7.4441   -5.0623   23.5401 H   0  0  0  0  0  0  0  0  0  0  0  0
    6.8150   -5.5642   21.9528 H   0  0  0  0  0  0  0  0  0  0  0  0
  1  2  1  0
  2  3  1  0
  3  4  1  0
  4  5  1  0
  4  6  1  0
  4  7  1  0
  3  8  1  0
  8  9  2  0
  9 10  1  0
 10 11  1  0
 11 12  2  0
 12 13  1  0
 13 14  2  0
 14 15  1  0
 15 16  2  0
 16 17  1  0
 14 18  1  0
 13 19  1  0
 12 20  1  0
 10 21  1  0
 21 22  1  0
 22 23  1  0
 23 24  1  0
 24 25  2  0
 25 26  1  0
 26 27  2  0
 27 28  1  0
 28 29  2  0
 29 30  1  0
 28 31  1  0
 27 32  1  0
 26 33  1  0
 25 34  1  0
 22 35  1  0
 22 36  1  0
 21 37  2  0
  3 38  1  0
  1 39  1  0
  1 40  1  0
  1 41  1  0
 37  8  1  0
 16 11  1  0
 29 24  1  0
M  END
>  <cnnaffinity>  (1) 
-6.05434

>  <filename>  (1) 
COC(C)c1nc(COc2ccccc2Br)n(-c2cccnc2)n1

$$$$
