
     RDKit          3D

 40 42  0  0  0  0  0  0  0  0999 V2000
    8.2171   -5.0340   23.8555 C   0  0  0  0  0  0  0  0  0  0  0  0
    8.7826   -3.7379   23.8832 O   0  0  0  0  0  0  0  0  0  0  0  0
    9.0789   -3.1474   22.6264 C   0  0  0  0  0  0  0  0  0  0  0  0
   10.5116   -2.6105   22.7319 C   0  0  0  0  0  0  0  0  0  0  0  0
   10.5411   -1.7850   23.4481 H   0  0  0  0  0  0  0  0  0  0  0  0
   10.8831   -2.2544   21.7665 H   0  0  0  0  0  0  0  0  0  0  0  0
   11.1560   -3.4035   23.1202 H   0  0  0  0  0  0  0  0  0  0  0  0
    8.1216   -2.0405   22.2190 C   0  0  0  0  0  0  0  0  0  0  0  0
    7.6958   -1.1373   23.0767 N   0  0  0  0  0  0  0  0  0  0  0  0
    7.1809   -0.1728   22.2715 N   0  0  0  0  0  0  0  0  0  0  0  0
    7.0753    1.1906   22.8142 C   0  0  0  0  0  0  0  0  0  0  0  0
    8.3762    1.6298   23.4672 C   0  0  0  0  0  0  0  0  0  0  0  0
    8.5219    1.5750   24.8615 C   0  0  0  0  0  0  0  0  0  0  0  0
    9.7598    1.7902   25.4705 C   0  0  0  0  0  0  0  0  0  0  0  0
   10.8800    2.1105   24.6958 C   0  0  0  0  0  0  0  0  0  0  0  0
   10.7624    2.1778   23.3061 C   0  0  0  0  0  0  0  0  0  0  0  0
    9.5225    1.9209   22.7134 C   0  0  0  0  0  0  0  0  0  0  0  0
    9.4299    1.9315   20.9853 Cl  0  0  0  0  0  0  0  0  0  0  0  0
   11.6139    2.3969   22.6660 H   0  0  0  0  0  0  0  0  0  0  0  0
   11.8442    2.3082   25.1602 H   0  0  0  0  0  0  0  0  0  0  0  0
    9.8373    1.6611   26.5408 H   0  0  0  0  0  0  0  0  0  0  0  0
    7.6534    1.3463   25.4786 H   0  0  0  0  0  0  0  0  0  0  0  0
    6.8045    1.8607   21.9963 H   0  0  0  0  0  0  0  0  0  0  0  0
    6.2735    1.1749   23.5539 H   0  0  0  0  0  0  0  0  0  0  0  0
    7.2023   -0.6122   20.9826 C   0  0  0  0  0  0  0  0  0  0  0  0
    6.5381    0.0722   19.8710 C   0  0  0  0  0  0  0  0  0  0  0  0
    5.3162    0.7522   20.0147 C   0  0  0  0  0  0  0  0  0  0  0  0
    4.7722    1.3902   18.9018 C   0  0  0  0  0  0  0  0  0  0  0  0
    5.4643    1.3235   17.6862 C   0  0  0  0  0  0  0  0  0  0  0  0
    6.6098    0.6422   17.5257 N   0  0  0  0  0  0  0  0  0  0  0  0
    7.1204    0.0220   18.5959 C   0  0  0  0  0  0  0  0  0  0  0  0
    8.0470   -0.5294   18.4336 H   0  0  0  0  0  0  0  0  0  0  0  0
    5.0708    1.8210   16.7998 H   0  0  0  0  0  0  0  0  0  0  0  0
    3.8441    1.9469   18.9694 H   0  0  0  0  0  0  0  0  0  0  0  0
    4.8048    0.7737   20.9802 H   0  0  0  0  0  0  0  0  0  0  0  0
    7.8336   -1.7749   20.9131 N   0  0  0  0  0  0  0  0  0  0  0  0
    8.9939   -3.8842   21.8185 H   0  0  0  0  0  0  0  0  0  0  0  0
    8.9507   -5.7890   23.5375 H   0  0  0  0  0  0  0  0  0  0  0  0
    7.9105   -5.2632   24.8777 H   0  0  0  0  0  0  0  0  0  0  0  0
    7.3415   -5.1037   23.1899 H   0  0  0  0  0  0  0  0  0  0  0  0
  1  2  1  0
  2  3  1  0
  3  4  1  0
  4  5  1  0
  4  6  1  0
  4  7  1  0
  3  8  1  0
  8  9  2  0
  9 10  1  0
 10 11  1  0
 11 12  1  0
 12 13  2  0
 13 14  1  0
 14 15  2  0
 15 16  1  0
 16 17  2  0
 17 18  1  0
 16 19  1  0
 15 20  1  0
 14 21  1  0
 13 22  1  0
 11 23  1  0
 11 24  1  0
 10 25  1  0
 25 26  1  0
 26 27  2  0
 27 28  1  0
 28 29  2  0
 29 30  1  0
 30 31  2  0
 31 32  1  0
 29 33  1  0
 28 34  1  0
 27 35  1  0
 25 36  2  0
  3 37  1  0
  1 38  1  0
  1 39  1  0
  1 40  1  0
 36  8  1  0
 17 12  1  0
 31 26  1  0
M  END
>  <cnnaffinity>  (1) 
-5.77369

>  <filename>  (1) 
COC(C)c1nc(-c2cccnc2)n(Cc2ccccc2Cl)n1

$$$$
