
     RDKit          3D

 43 45  0  0  0  0  0  0  0  0999 V2000
    7.2321   -6.8458   22.3668 C   0  0  0  0  0  0  0  0  0  0  0  0
    8.0792   -5.7226   22.4566 O   0  0  0  0  0  0  0  0  0  0  0  0
    7.4335   -4.4618   22.5400 C   0  0  0  0  0  0  0  0  0  0  0  0
    6.9372   -4.1794   23.9578 C   0  0  0  0  0  0  0  0  0  0  0  0
    6.1476   -4.8743   24.2595 H   0  0  0  0  0  0  0  0  0  0  0  0
    6.5403   -3.1626   24.0450 H   0  0  0  0  0  0  0  0  0  0  0  0
    7.7745   -4.2850   24.6560 H   0  0  0  0  0  0  0  0  0  0  0  0
    8.5126   -3.4629   22.1045 C   0  0  0  0  0  0  0  0  0  0  0  0
    7.9903   -2.0849   21.9196 C   0  0  0  0  0  0  0  0  0  0  0  0
    7.5427   -1.6822   20.7556 N   0  0  0  0  0  0  0  0  0  0  0  0
    7.0936   -0.4231   21.0053 N   0  0  0  0  0  0  0  0  0  0  0  0
    6.4739    0.2735   19.9346 C   0  0  0  0  0  0  0  0  0  0  0  0
    5.2668    0.9736   20.0396 C   0  0  0  0  0  0  0  0  0  0  0  0
    4.7273    1.5217   18.8663 C   0  0  0  0  0  0  0  0  0  0  0  0
    5.4124    1.3708   17.6577 C   0  0  0  0  0  0  0  0  0  0  0  0
    6.5636    0.6852   17.5512 N   0  0  0  0  0  0  0  0  0  0  0  0
    7.0657    0.1472   18.6621 C   0  0  0  0  0  0  0  0  0  0  0  0
    7.9932   -0.4122   18.5679 H   0  0  0  0  0  0  0  0  0  0  0  0
    5.0191    1.8012   16.7388 H   0  0  0  0  0  0  0  0  0  0  0  0
    3.7954    2.0729   18.8874 H   0  0  0  0  0  0  0  0  0  0  0  0
    4.7535    1.0794   20.9955 H   0  0  0  0  0  0  0  0  0  0  0  0
    7.3516   -0.1184   22.3117 C   0  0  0  0  0  0  0  0  0  0  0  0
    7.1484    1.1971   22.9956 C   0  0  0  0  0  0  0  0  0  0  0  0
    8.4590    1.7336   23.5658 C   0  0  0  0  0  0  0  0  0  0  0  0
    9.4858    2.2131   22.7377 C   0  0  0  0  0  0  0  0  0  0  0  0
    9.1546    2.4325   21.0499 Cl  0  0  0  0  0  0  0  0  0  0  0  0
   10.7779    2.4871   23.2007 C   0  0  0  0  0  0  0  0  0  0  0  0
   11.0690    2.2590   24.5474 C   0  0  0  0  0  0  0  0  0  0  0  0
   10.0725    1.8164   25.4176 C   0  0  0  0  0  0  0  0  0  0  0  0
    8.7904    1.6120   24.9213 C   0  0  0  0  0  0  0  0  0  0  0  0
    7.8326    1.2670   25.7997 F   0  0  0  0  0  0  0  0  0  0  0  0
   10.2456    1.6003   26.4617 H   0  0  0  0  0  0  0  0  0  0  0  0
   12.0769    2.4176   24.9142 H   0  0  0  0  0  0  0  0  0  0  0  0
   11.5330    2.8506   22.5109 H   0  0  0  0  0  0  0  0  0  0  0  0
    6.4339    1.0224   23.8040 H   0  0  0  0  0  0  0  0  0  0  0  0
    6.7268    1.9262   22.2971 H   0  0  0  0  0  0  0  0  0  0  0  0
    7.8993   -1.1689   22.9115 N   0  0  0  0  0  0  0  0  0  0  0  0
    8.8863   -3.7756   21.1328 H   0  0  0  0  0  0  0  0  0  0  0  0
    9.3331   -3.4698   22.8308 H   0  0  0  0  0  0  0  0  0  0  0  0
    6.5840   -4.4279   21.8275 H   0  0  0  0  0  0  0  0  0  0  0  0
    7.8761   -7.7320   22.3979 H   0  0  0  0  0  0  0  0  0  0  0  0
    6.5112   -6.8984   23.1951 H   0  0  0  0  0  0  0  0  0  0  0  0
    6.6540   -6.8460   21.4295 H   0  0  0  0  0  0  0  0  0  0  0  0
  1  2  1  0
  2  3  1  0
  3  4  1  0
  4  5  1  0
  4  6  1  0
  4  7  1  0
  3  8  1  0
  8  9  1  0
  9 10  2  0
 10 11  1  0
 11 12  1  0
 12 13  2  0
 13 14  1  0
 14 15  2  0
 15 16  1  0
 16 17  2  0
 17 18  1  0
 15 19  1  0
 14 20  1  0
 13 21  1  0
 11 22  1  0
 22 23  1  0
 23 24  1  0
 24 25  2  0
 25 26  1  0
 25 27  1  0
 27 28  2  0
 28 29  1  0
 29 30  2  0
 30 31  1  0
 29 32  1  0
 28 33  1  0
 27 34  1  0
 23 35  1  0
 23 36  1  0
 22 37  2  0
  8 38  1  0
  8 39  1  0
  3 40  1  0
  1 41  1  0
  1 42  1  0
  1 43  1  0
 37  9  1  0
 17 12  1  0
 30 24  1  0
M  END
>  <cnnaffinity>  (1) 
-5.91256

>  <filename>  (1) 
COC(C)Cc1nc(Cc2c(F)cccc2Cl)n(-c2cccnc2)n1

$$$$
