
     RDKit          3D

 49 51  0  0  0  0  0  0  0  0999 V2000
    5.2458   -2.8279   26.6663 C   0  0  0  0  0  0  0  0  0  0  0  0
    6.3228   -3.1706   25.8287 O   0  0  0  0  0  0  0  0  0  0  0  0
    6.6745   -2.1936   24.8637 C   0  0  0  0  0  0  0  0  0  0  0  0
    7.7065   -1.2215   25.4335 C   0  0  0  0  0  0  0  0  0  0  0  0
    8.0020   -0.4736   24.6893 H   0  0  0  0  0  0  0  0  0  0  0  0
    8.5986   -1.7710   25.7544 H   0  0  0  0  0  0  0  0  0  0  0  0
    7.2987   -0.7011   26.3084 H   0  0  0  0  0  0  0  0  0  0  0  0
    7.1773   -3.0114   23.6685 C   0  0  0  0  0  0  0  0  0  0  0  0
    7.4611   -2.1614   22.4937 C   0  0  0  0  0  0  0  0  0  0  0  0
    6.5478   -1.7823   21.6246 N   0  0  0  0  0  0  0  0  0  0  0  0
    7.2323   -0.9198   20.8267 N   0  0  0  0  0  0  0  0  0  0  0  0
    6.5735   -0.1936   19.7945 C   0  0  0  0  0  0  0  0  0  0  0  0
    5.4241    0.5494   20.0813 C   0  0  0  0  0  0  0  0  0  0  0  0
    4.8531    1.3033   19.0541 C   0  0  0  0  0  0  0  0  0  0  0  0
    5.4380    1.2792   17.7821 C   0  0  0  0  0  0  0  0  0  0  0  0
    6.5268    0.5498   17.4919 N   0  0  0  0  0  0  0  0  0  0  0  0
    7.0751   -0.1673   18.4803 C   0  0  0  0  0  0  0  0  0  0  0  0
    7.9732   -0.7325   18.2322 H   0  0  0  0  0  0  0  0  0  0  0  0
    4.9997    1.8499   16.9664 H   0  0  0  0  0  0  0  0  0  0  0  0
    3.9759    1.9147   19.2318 H   0  0  0  0  0  0  0  0  0  0  0  0
    5.0139    0.5330   21.0918 H   0  0  0  0  0  0  0  0  0  0  0  0
    8.5081   -0.7954   21.2962 C   0  0  0  0  0  0  0  0  0  0  0  0
    9.5543    0.1097   20.7393 C   0  0  0  0  0  0  0  0  0  0  0  0
   10.3505    0.7844   21.8408 C   0  0  0  0  0  0  0  0  0  0  0  0
    9.8395    1.9664   22.4273 C   0  0  0  0  0  0  0  0  0  0  0  0
    8.5385    2.5848   21.9559 C   0  0  0  0  0  0  0  0  0  0  0  0
    8.2509    3.4261   22.5928 H   0  0  0  0  0  0  0  0  0  0  0  0
    7.7177    1.8555   21.9600 H   0  0  0  0  0  0  0  0  0  0  0  0
    8.6399    2.9555   20.9291 H   0  0  0  0  0  0  0  0  0  0  0  0
   10.5678    2.5845   23.4528 C   0  0  0  0  0  0  0  0  0  0  0  0
   11.7693    2.0271   23.9016 C   0  0  0  0  0  0  0  0  0  0  0  0
   12.2329    0.8324   23.3534 C   0  0  0  0  0  0  0  0  0  0  0  0
   11.5050    0.1555   22.3691 C   0  0  0  0  0  0  0  0  0  0  0  0
   11.9533   -1.2341   21.9645 C   0  0  0  0  0  0  0  0  0  0  0  0
   11.2388   -1.9810   22.3224 H   0  0  0  0  0  0  0  0  0  0  0  0
   12.9329   -1.4765   22.3841 H   0  0  0  0  0  0  0  0  0  0  0  0
   12.0370   -1.3529   20.8829 H   0  0  0  0  0  0  0  0  0  0  0  0
   13.1630    0.3901   23.7084 H   0  0  0  0  0  0  0  0  0  0  0  0
   12.3260    2.5193   24.6859 H   0  0  0  0  0  0  0  0  0  0  0  0
   10.1905    3.5036   23.8988 H   0  0  0  0  0  0  0  0  0  0  0  0
   10.1894   -0.5056   20.0980 H   0  0  0  0  0  0  0  0  0  0  0  0
    9.0841    0.8653   20.1065 H   0  0  0  0  0  0  0  0  0  0  0  0
    8.6832   -1.6108   22.3209 N   0  0  0  0  0  0  0  0  0  0  0  0
    8.0941   -3.5312   23.9525 H   0  0  0  0  0  0  0  0  0  0  0  0
    6.4186   -3.7522   23.4137 H   0  0  0  0  0  0  0  0  0  0  0  0
    5.7746   -1.6300   24.5574 H   0  0  0  0  0  0  0  0  0  0  0  0
    5.4228   -1.9038   27.2392 H   0  0  0  0  0  0  0  0  0  0  0  0
    5.1154   -3.6506   27.3717 H   0  0  0  0  0  0  0  0  0  0  0  0
    4.3141   -2.7064   26.0919 H   0  0  0  0  0  0  0  0  0  0  0  0
  1  2  1  0
  2  3  1  0
  3  4  1  0
  4  5  1  0
  4  6  1  0
  4  7  1  0
  3  8  1  0
  8  9  1  0
  9 10  2  0
 10 11  1  0
 11 12  1  0
 12 13  2  0
 13 14  1  0
 14 15  2  0
 15 16  1  0
 16 17  2  0
 17 18  1  0
 15 19  1  0
 14 20  1  0
 13 21  1  0
 11 22  1  0
 22 23  1  0
 23 24  1  0
 24 25  2  0
 25 26  1  0
 26 27  1  0
 26 28  1  0
 26 29  1  0
 25 30  1  0
 30 31  2  0
 31 32  1  0
 32 33  2  0
 33 34  1  0
 34 35  1  0
 34 36  1  0
 34 37  1  0
 32 38  1  0
 31 39  1  0
 30 40  1  0
 23 41  1  0
 23 42  1  0
 22 43  2  0
  8 44  1  0
  8 45  1  0
  3 46  1  0
  1 47  1  0
  1 48  1  0
  1 49  1  0
 43  9  1  0
 17 12  1  0
 33 24  1  0
M  END
>  <cnnaffinity>  (1) 
-6.31603

>  <filename>  (1) 
COC(C)Cc1nc(Cc2c(C)cccc2C)n(-c2cccnc2)n1

$$$$
