
     RDKit          3D

 43 45  0  0  0  0  0  0  0  0999 V2000
    9.0090   -6.1613   24.3368 C   0  0  0  0  0  0  0  0  0  0  0  0
    7.9271   -5.2848   24.1521 O   0  0  0  0  0  0  0  0  0  0  0  0
    8.0025   -4.4127   23.0418 C   0  0  0  0  0  0  0  0  0  0  0  0
    7.2338   -4.9873   21.8557 C   0  0  0  0  0  0  0  0  0  0  0  0
    7.6287   -5.9737   21.5882 H   0  0  0  0  0  0  0  0  0  0  0  0
    7.2977   -4.3344   20.9784 H   0  0  0  0  0  0  0  0  0  0  0  0
    6.1754   -5.1026   22.1220 H   0  0  0  0  0  0  0  0  0  0  0  0
    7.4051   -3.0968   23.5436 C   0  0  0  0  0  0  0  0  0  0  0  0
    7.5789   -2.0400   22.5290 C   0  0  0  0  0  0  0  0  0  0  0  0
    6.6446   -1.6408   21.6952 N   0  0  0  0  0  0  0  0  0  0  0  0
    7.2923   -0.7138   20.9407 N   0  0  0  0  0  0  0  0  0  0  0  0
    6.6280   -0.0330   19.8885 C   0  0  0  0  0  0  0  0  0  0  0  0
    5.4219    0.6245   20.1477 C   0  0  0  0  0  0  0  0  0  0  0  0
    4.7977    1.3114   19.1031 C   0  0  0  0  0  0  0  0  0  0  0  0
    5.3943    1.2936   17.8366 C   0  0  0  0  0  0  0  0  0  0  0  0
    6.5416    0.6505   17.5746 N   0  0  0  0  0  0  0  0  0  0  0  0
    7.1461    0.0139   18.5807 C   0  0  0  0  0  0  0  0  0  0  0  0
    8.0980   -0.4630   18.3418 H   0  0  0  0  0  0  0  0  0  0  0  0
    4.9386    1.8164   16.9984 H   0  0  0  0  0  0  0  0  0  0  0  0
    3.8716    1.8571   19.2540 H   0  0  0  0  0  0  0  0  0  0  0  0
    5.0104    0.5868   21.1556 H   0  0  0  0  0  0  0  0  0  0  0  0
    8.5745   -0.6040   21.3857 C   0  0  0  0  0  0  0  0  0  0  0  0
    9.6286    0.2749   20.8067 C   0  0  0  0  0  0  0  0  0  0  0  0
   10.3621    1.0732   21.8617 C   0  0  0  0  0  0  0  0  0  0  0  0
   11.6365    0.6732   22.2868 C   0  0  0  0  0  0  0  0  0  0  0  0
   12.2931    1.3202   23.3409 C   0  0  0  0  0  0  0  0  0  0  0  0
   11.6637    2.3896   23.9858 C   0  0  0  0  0  0  0  0  0  0  0  0
   10.4065    2.8266   23.5599 C   0  0  0  0  0  0  0  0  0  0  0  0
    9.7646    2.1695   22.5060 C   0  0  0  0  0  0  0  0  0  0  0  0
    8.1670    2.7129   22.0496 Cl  0  0  0  0  0  0  0  0  0  0  0  0
    9.9032    3.6480   24.0579 H   0  0  0  0  0  0  0  0  0  0  0  0
   12.1233    2.8846   24.8334 H   0  0  0  0  0  0  0  0  0  0  0  0
   13.2701    0.9725   23.6671 H   0  0  0  0  0  0  0  0  0  0  0  0
   12.0984   -0.1769   21.7854 H   0  0  0  0  0  0  0  0  0  0  0  0
    9.1686    0.9450   20.0819 H   0  0  0  0  0  0  0  0  0  0  0  0
   10.3165   -0.3981   20.2863 H   0  0  0  0  0  0  0  0  0  0  0  0
    8.7912   -1.4566   22.3633 N   0  0  0  0  0  0  0  0  0  0  0  0
    7.9547   -2.8080   24.4443 H   0  0  0  0  0  0  0  0  0  0  0  0
    6.3430   -3.2130   23.7813 H   0  0  0  0  0  0  0  0  0  0  0  0
    9.0591   -4.2367   22.7603 H   0  0  0  0  0  0  0  0  0  0  0  0
    8.7596   -6.7601   25.2162 H   0  0  0  0  0  0  0  0  0  0  0  0
    9.9516   -5.6155   24.5152 H   0  0  0  0  0  0  0  0  0  0  0  0
    9.1446   -6.8291   23.4712 H   0  0  0  0  0  0  0  0  0  0  0  0
  1  2  1  0
  2  3  1  0
  3  4  1  0
  4  5  1  0
  4  6  1  0
  4  7  1  0
  3  8  1  0
  8  9  1  0
  9 10  2  0
 10 11  1  0
 11 12  1  0
 12 13  2  0
 13 14  1  0
 14 15  2  0
 15 16  1  0
 16 17  2  0
 17 18  1  0
 15 19  1  0
 14 20  1  0
 13 21  1  0
 11 22  1  0
 22 23  1  0
 23 24  1  0
 24 25  2  0
 25 26  1  0
 26 27  2  0
 27 28  1  0
 28 29  2  0
 29 30  1  0
 28 31  1  0
 27 32  1  0
 26 33  1  0
 25 34  1  0
 23 35  1  0
 23 36  1  0
 22 37  2  0
  8 38  1  0
  8 39  1  0
  3 40  1  0
  1 41  1  0
  1 42  1  0
  1 43  1  0
 37  9  1  0
 17 12  1  0
 29 24  1  0
M  END
>  <cnnaffinity>  (1) 
-6.26472

>  <filename>  (1) 
COC(C)Cc1nc(Cc2ccccc2Cl)n(-c2cccnc2)n1

$$$$
