
     RDKit          3D

 42 44  0  0  0  0  0  0  0  0999 V2000
    6.6968   -1.9000   25.4777 C   0  0  0  0  0  0  0  0  0  0  0  0
    6.3475   -2.7888   24.4301 O   0  0  0  0  0  0  0  0  0  0  0  0
    7.4423   -3.0757   23.5677 C   0  0  0  0  0  0  0  0  0  0  0  0
    7.1938   -4.4339   22.9210 C   0  0  0  0  0  0  0  0  0  0  0  0
    6.2997   -4.3848   22.2915 H   0  0  0  0  0  0  0  0  0  0  0  0
    7.0562   -5.1907   23.6979 H   0  0  0  0  0  0  0  0  0  0  0  0
    8.0529   -4.7120   22.2995 H   0  0  0  0  0  0  0  0  0  0  0  0
    7.6768   -1.9908   22.5282 C   0  0  0  0  0  0  0  0  0  0  0  0
    6.7467   -1.6286   21.6651 N   0  0  0  0  0  0  0  0  0  0  0  0
    7.3663   -0.6763   20.9245 N   0  0  0  0  0  0  0  0  0  0  0  0
    6.6579    0.0046   19.8956 C   0  0  0  0  0  0  0  0  0  0  0  0
    5.4412    0.6399   20.1666 C   0  0  0  0  0  0  0  0  0  0  0  0
    4.8131    1.3084   19.1114 C   0  0  0  0  0  0  0  0  0  0  0  0
    5.3981    1.2963   17.8386 C   0  0  0  0  0  0  0  0  0  0  0  0
    6.5565    0.6728   17.5730 N   0  0  0  0  0  0  0  0  0  0  0  0
    7.1663    0.0499   18.5857 C   0  0  0  0  0  0  0  0  0  0  0  0
    8.1127   -0.4364   18.3624 H   0  0  0  0  0  0  0  0  0  0  0  0
    4.9190    1.7865   16.9950 H   0  0  0  0  0  0  0  0  0  0  0  0
    3.8819    1.8386   19.2618 H   0  0  0  0  0  0  0  0  0  0  0  0
    5.0221    0.6098   21.1771 H   0  0  0  0  0  0  0  0  0  0  0  0
    8.6376   -0.5037   21.3986 C   0  0  0  0  0  0  0  0  0  0  0  0
    9.5410    0.5901   20.9452 C   0  0  0  0  0  0  0  0  0  0  0  0
    9.1991    1.9621   21.5858 C   0  0  0  0  0  0  0  0  0  0  0  0
    9.4112    1.9461   23.0773 C   0  0  0  0  0  0  0  0  0  0  0  0
    8.3799    1.7430   24.0155 C   0  0  0  0  0  0  0  0  0  0  0  0
    6.7228    1.5813   23.5255 Cl  0  0  0  0  0  0  0  0  0  0  0  0
    8.6675    1.6756   25.3822 C   0  0  0  0  0  0  0  0  0  0  0  0
    9.8997    1.7840   25.8779 N   0  0  0  0  0  0  0  0  0  0  0  0
   10.8956    1.9482   25.0068 C   0  0  0  0  0  0  0  0  0  0  0  0
   10.6999    2.0359   23.6303 C   0  0  0  0  0  0  0  0  0  0  0  0
   12.0951    2.2690   22.6255 Cl  0  0  0  0  0  0  0  0  0  0  0  0
   11.8981    2.0464   25.4063 H   0  0  0  0  0  0  0  0  0  0  0  0
    7.8613    1.5433   26.1004 H   0  0  0  0  0  0  0  0  0  0  0  0
    9.8377    2.7354   21.1499 H   0  0  0  0  0  0  0  0  0  0  0  0
    8.1585    2.2284   21.3739 H   0  0  0  0  0  0  0  0  0  0  0  0
   10.5593    0.2899   21.2030 H   0  0  0  0  0  0  0  0  0  0  0  0
    9.4979    0.6804   19.8577 H   0  0  0  0  0  0  0  0  0  0  0  0
    8.8697   -1.3527   22.3863 N   0  0  0  0  0  0  0  0  0  0  0  0
    8.3719   -3.1235   24.1547 H   0  0  0  0  0  0  0  0  0  0  0  0
    7.2554   -1.0128   25.1295 H   0  0  0  0  0  0  0  0  0  0  0  0
    7.3182   -2.4247   26.2189 H   0  0  0  0  0  0  0  0  0  0  0  0
    5.7692   -1.5689   25.9486 H   0  0  0  0  0  0  0  0  0  0  0  0
  1  2  1  0
  2  3  1  0
  3  4  1  0
  4  5  1  0
  4  6  1  0
  4  7  1  0
  3  8  1  0
  8  9  2  0
  9 10  1  0
 10 11  1  0
 11 12  2  0
 12 13  1  0
 13 14  2  0
 14 15  1  0
 15 16  2  0
 16 17  1  0
 14 18  1  0
 13 19  1  0
 12 20  1  0
 10 21  1  0
 21 22  1  0
 22 23  1  0
 23 24  1  0
 24 25  2  0
 25 26  1  0
 25 27  1  0
 27 28  2  0
 28 29  1  0
 29 30  2  0
 30 31  1  0
 29 32  1  0
 27 33  1  0
 23 34  1  0
 23 35  1  0
 22 36  1  0
 22 37  1  0
 21 38  2  0
  3 39  1  0
  1 40  1  0
  1 41  1  0
  1 42  1  0
 38  8  1  0
 16 11  1  0
 30 24  1  0
M  END
>  <cnnaffinity>  (1) 
-6.26086

>  <filename>  (1) 
COC(C)c1nc(CCc2c(Cl)cncc2Cl)n(-c2cccnc2)n1

$$$$
