
     RDKit          3D

 48 51  0  0  0  0  0  0  0  0999 V2000
    7.0770   -5.0805   22.6311 C   0  0  0  0  0  0  0  0  0  0  0  0
    6.5009   -4.0565   23.4173 O   0  0  0  0  0  0  0  0  0  0  0  0
    7.3718   -2.9727   23.6844 C   0  0  0  0  0  0  0  0  0  0  0  0
    7.6041   -2.0091   22.5357 C   0  0  0  0  0  0  0  0  0  0  0  0
    6.6924   -1.6128   21.6658 N   0  0  0  0  0  0  0  0  0  0  0  0
    7.3517   -0.6796   20.9249 N   0  0  0  0  0  0  0  0  0  0  0  0
    6.6599    0.0012   19.8718 C   0  0  0  0  0  0  0  0  0  0  0  0
    5.4426    0.6402   20.1334 C   0  0  0  0  0  0  0  0  0  0  0  0
    4.8118    1.3163   19.0844 C   0  0  0  0  0  0  0  0  0  0  0  0
    5.3992    1.3075   17.8157 C   0  0  0  0  0  0  0  0  0  0  0  0
    6.5448    0.6623   17.5454 N   0  0  0  0  0  0  0  0  0  0  0  0
    7.1568    0.0274   18.5562 C   0  0  0  0  0  0  0  0  0  0  0  0
    8.0810   -0.4956   18.3063 H   0  0  0  0  0  0  0  0  0  0  0  0
    4.9335    1.8363   16.9861 H   0  0  0  0  0  0  0  0  0  0  0  0
    3.8794    1.8443   19.2432 H   0  0  0  0  0  0  0  0  0  0  0  0
    5.0107    0.5791   21.1341 H   0  0  0  0  0  0  0  0  0  0  0  0
    8.6110   -0.5287   21.4335 C   0  0  0  0  0  0  0  0  0  0  0  0
    9.6502    0.4413   20.9899 C   0  0  0  0  0  0  0  0  0  0  0  0
   10.0612    1.3402   22.0547 N   0  0  0  0  0  0  0  0  0  0  0  0
    9.2863    2.3656   22.5670 C   0  0  0  0  0  0  0  0  0  0  0  0
    7.9300    2.7051   22.0276 C   0  0  0  0  0  0  0  0  0  0  0  0
    7.6007    3.6826   22.3887 H   0  0  0  0  0  0  0  0  0  0  0  0
    7.1808    1.9662   22.3391 H   0  0  0  0  0  0  0  0  0  0  0  0
    7.9121    2.7253   20.9364 H   0  0  0  0  0  0  0  0  0  0  0  0
    9.9626    2.8986   23.6346 C   0  0  0  0  0  0  0  0  0  0  0  0
   11.1668    2.1560   23.8072 C   0  0  0  0  0  0  0  0  0  0  0  0
   11.1898    1.1814   22.8428 C   0  0  0  0  0  0  0  0  0  0  0  0
   12.1695    0.0716   22.6233 C   0  0  0  0  0  0  0  0  0  0  0  0
   11.6619   -0.9023   22.6052 H   0  0  0  0  0  0  0  0  0  0  0  0
   12.9271    0.0574   23.4122 H   0  0  0  0  0  0  0  0  0  0  0  0
   12.7136    0.1791   21.6839 H   0  0  0  0  0  0  0  0  0  0  0  0
   11.9258    2.2858   24.5673 H   0  0  0  0  0  0  0  0  0  0  0  0
    9.6141    3.7288   24.2374 H   0  0  0  0  0  0  0  0  0  0  0  0
    9.3145    1.0146   20.1287 H   0  0  0  0  0  0  0  0  0  0  0  0
   10.5306   -0.1293   20.6914 H   0  0  0  0  0  0  0  0  0  0  0  0
    8.8068   -1.3829   22.4192 N   0  0  0  0  0  0  0  0  0  0  0  0
    6.8356   -2.2246   24.8930 C   0  0  0  0  0  0  0  0  0  0  0  0
    7.0955   -2.7583   26.2692 C   0  0  0  0  0  0  0  0  0  0  0  0
    7.8055   -1.5150   25.7909 C   0  0  0  0  0  0  0  0  0  0  0  0
    7.5380   -0.5498   26.2189 H   0  0  0  0  0  0  0  0  0  0  0  0
    8.8598   -1.6131   25.5336 H   0  0  0  0  0  0  0  0  0  0  0  0
    7.6659   -3.6805   26.3519 H   0  0  0  0  0  0  0  0  0  0  0  0
    6.3102   -2.6514   27.0165 H   0  0  0  0  0  0  0  0  0  0  0  0
    5.8670   -1.7631   24.7281 H   0  0  0  0  0  0  0  0  0  0  0  0
    8.3846   -3.3339   23.9347 H   0  0  0  0  0  0  0  0  0  0  0  0
    7.7811   -5.6950   23.2149 H   0  0  0  0  0  0  0  0  0  0  0  0
    6.2528   -5.7141   22.3011 H   0  0  0  0  0  0  0  0  0  0  0  0
    7.5982   -4.6850   21.7450 H   0  0  0  0  0  0  0  0  0  0  0  0
  1  2  1  0
  2  3  1  0
  3  4  1  0
  4  5  2  0
  5  6  1  0
  6  7  1  0
  7  8  2  0
  8  9  1  0
  9 10  2  0
 10 11  1  0
 11 12  2  0
 12 13  1  0
 10 14  1  0
  9 15  1  0
  8 16  1  0
  6 17  1  0
 17 18  1  0
 18 19  1  0
 19 20  1  0
 20 21  1  0
 21 22  1  0
 21 23  1  0
 21 24  1  0
 20 25  2  0
 25 26  1  0
 26 27  2  0
 27 28  1  0
 28 29  1  0
 28 30  1  0
 28 31  1  0
 26 32  1  0
 25 33  1  0
 18 34  1  0
 18 35  1  0
 17 36  2  0
  3 37  1  0
 37 38  1  0
 38 39  1  0
 39 40  1  0
 39 41  1  0
 38 42  1  0
 38 43  1  0
 37 44  1  0
  3 45  1  0
  1 46  1  0
  1 47  1  0
  1 48  1  0
 36  4  1  0
 39 37  1  0
 12  7  1  0
 27 19  1  0
M  END
>  <cnnaffinity>  (1) 
-6.40061

>  <filename>  (1) 
COC(c1nc(Cn2c(C)ccc2C)n(-c2cccnc2)n1)C1CC1

$$$$
