
     RDKit          3D

 45 47  0  0  0  0  0  0  0  0999 V2000
    7.1241   -5.0133   22.7446 C   0  0  0  0  0  0  0  0  0  0  0  0
    6.5551   -3.9728   23.5171 O   0  0  0  0  0  0  0  0  0  0  0  0
    7.4186   -2.8727   23.7571 C   0  0  0  0  0  0  0  0  0  0  0  0
    6.8209   -2.1015   24.9401 C   0  0  0  0  0  0  0  0  0  0  0  0
    6.6431   -2.7979   25.7639 H   0  0  0  0  0  0  0  0  0  0  0  0
    7.4998   -1.3110   25.2813 H   0  0  0  0  0  0  0  0  0  0  0  0
    5.8648   -1.6494   24.6567 H   0  0  0  0  0  0  0  0  0  0  0  0
    7.6593   -1.9710   22.5464 C   0  0  0  0  0  0  0  0  0  0  0  0
    6.7064   -1.5465   21.7383 N   0  0  0  0  0  0  0  0  0  0  0  0
    7.3566   -0.6564   20.9429 N   0  0  0  0  0  0  0  0  0  0  0  0
    6.6703    0.0034   19.8833 C   0  0  0  0  0  0  0  0  0  0  0  0
    5.4554    0.6367   20.1492 C   0  0  0  0  0  0  0  0  0  0  0  0
    4.8254    1.3122   19.1030 C   0  0  0  0  0  0  0  0  0  0  0  0
    5.4155    1.3077   17.8337 C   0  0  0  0  0  0  0  0  0  0  0  0
    6.5676    0.6744   17.5626 N   0  0  0  0  0  0  0  0  0  0  0  0
    7.1800    0.0376   18.5708 C   0  0  0  0  0  0  0  0  0  0  0  0
    8.1110   -0.4734   18.3245 H   0  0  0  0  0  0  0  0  0  0  0  0
    4.9368    1.8205   17.0040 H   0  0  0  0  0  0  0  0  0  0  0  0
    3.8895    1.8318   19.2642 H   0  0  0  0  0  0  0  0  0  0  0  0
    5.0344    0.5824   21.1545 H   0  0  0  0  0  0  0  0  0  0  0  0
    8.6488   -0.5371   21.3650 C   0  0  0  0  0  0  0  0  0  0  0  0
    9.5196    0.6103   20.9484 C   0  0  0  0  0  0  0  0  0  0  0  0
    8.9983    2.0173   21.3810 C   0  0  0  0  0  0  0  0  0  0  0  0
    8.7481    2.1507   22.8758 C   0  0  0  0  0  0  0  0  0  0  0  0
    7.4859    1.9236   23.2744 N   0  0  0  0  0  0  0  0  0  0  0  0
    7.2490    1.8303   24.5889 C   0  0  0  0  0  0  0  0  0  0  0  0
    8.2267    1.9594   25.5681 C   0  0  0  0  0  0  0  0  0  0  0  0
    9.5383    2.2064   25.1510 C   0  0  0  0  0  0  0  0  0  0  0  0
    9.8088    2.3890   23.7896 C   0  0  0  0  0  0  0  0  0  0  0  0
   11.1868    2.8059   23.3213 C   0  0  0  0  0  0  0  0  0  0  0  0
   11.1623    3.7425   22.7513 H   0  0  0  0  0  0  0  0  0  0  0  0
   11.6220    2.0469   22.6633 H   0  0  0  0  0  0  0  0  0  0  0  0
   11.8790    2.9541   24.1545 H   0  0  0  0  0  0  0  0  0  0  0  0
   10.3570    2.2292   25.8654 H   0  0  0  0  0  0  0  0  0  0  0  0
    7.9518    1.8888   26.6187 H   0  0  0  0  0  0  0  0  0  0  0  0
    6.2163    1.6189   24.8615 H   0  0  0  0  0  0  0  0  0  0  0  0
    8.0544    2.2170   20.8723 H   0  0  0  0  0  0  0  0  0  0  0  0
    9.7100    2.7803   21.0539 H   0  0  0  0  0  0  0  0  0  0  0  0
   10.5168    0.4389   21.3635 H   0  0  0  0  0  0  0  0  0  0  0  0
    9.6164    0.6036   19.8630 H   0  0  0  0  0  0  0  0  0  0  0  0
    8.8817   -1.4042   22.3340 N   0  0  0  0  0  0  0  0  0  0  0  0
    8.4230   -3.2241   24.0437 H   0  0  0  0  0  0  0  0  0  0  0  0
    7.8382   -5.6065   23.3356 H   0  0  0  0  0  0  0  0  0  0  0  0
    7.6301   -4.6334   21.8436 H   0  0  0  0  0  0  0  0  0  0  0  0
    6.3043   -5.6671   22.4400 H   0  0  0  0  0  0  0  0  0  0  0  0
  1  2  1  0
  2  3  1  0
  3  4  1  0
  4  5  1  0
  4  6  1  0
  4  7  1  0
  3  8  1  0
  8  9  2  0
  9 10  1  0
 10 11  1  0
 11 12  2  0
 12 13  1  0
 13 14  2  0
 14 15  1  0
 15 16  2  0
 16 17  1  0
 14 18  1  0
 13 19  1  0
 12 20  1  0
 10 21  1  0
 21 22  1  0
 22 23  1  0
 23 24  1  0
 24 25  2  0
 25 26  1  0
 26 27  2  0
 27 28  1  0
 28 29  2  0
 29 30  1  0
 30 31  1  0
 30 32  1  0
 30 33  1  0
 28 34  1  0
 27 35  1  0
 26 36  1  0
 23 37  1  0
 23 38  1  0
 22 39  1  0
 22 40  1  0
 21 41  2  0
  3 42  1  0
  1 43  1  0
  1 44  1  0
  1 45  1  0
 41  8  1  0
 16 11  1  0
 29 24  1  0
M  END
>  <cnnaffinity>  (1) 
-5.73587

>  <filename>  (1) 
COC(C)c1nc(CCc2ncccc2C)n(-c2cccnc2)n1

$$$$
