
     RDKit          3D

 34 36  0  0  0  0  0  0  0  0999 V2000
    4.9343    1.7932   16.9891 H   0  0  0  0  0  0  0  0  0  0  0  0
    5.4017    1.2882   17.8332 C   0  0  0  0  0  0  0  0  0  0  0  0
    6.5640    0.6638   17.5791 N   0  0  0  0  0  0  0  0  0  0  0  0
    7.1589    0.0319   18.5953 C   0  0  0  0  0  0  0  0  0  0  0  0
    8.1200   -0.4328   18.3635 H   0  0  0  0  0  0  0  0  0  0  0  0
    6.6416   -0.0069   19.9014 C   0  0  0  0  0  0  0  0  0  0  0  0
    7.3738   -0.6600   20.9872 C   0  0  0  0  0  0  0  0  0  0  0  0
    7.7061   -0.0640   22.1907 C   0  0  0  0  0  0  0  0  0  0  0  0
    7.4717    1.3841   22.4575 C   0  0  0  0  0  0  0  0  0  0  0  0
    7.9600    2.3831   21.5858 C   0  0  0  0  0  0  0  0  0  0  0  0
    8.5101    2.1025   20.6886 H   0  0  0  0  0  0  0  0  0  0  0  0
    7.7916    3.6897   21.8026 N   0  0  0  0  0  0  0  0  0  0  0  0
    7.0930    4.0801   22.8783 C   0  0  0  0  0  0  0  0  0  0  0  0
    6.9604    5.1555   22.9913 H   0  0  0  0  0  0  0  0  0  0  0  0
    6.5582    3.1705   23.8144 C   0  0  0  0  0  0  0  0  0  0  0  0
    5.8635    3.4977   24.9342 O   0  0  0  0  0  0  0  0  0  0  0  0
    5.6032    4.8575   25.2475 C   0  0  0  0  0  0  0  0  0  0  0  0
    5.0025    5.3471   24.4687 H   0  0  0  0  0  0  0  0  0  0  0  0
    6.5304    5.4284   25.3953 H   0  0  0  0  0  0  0  0  0  0  0  0
    5.0398    4.8211   26.1811 H   0  0  0  0  0  0  0  0  0  0  0  0
    6.7692    1.7992   23.5918 C   0  0  0  0  0  0  0  0  0  0  0  0
    6.3727    1.0819   24.3111 H   0  0  0  0  0  0  0  0  0  0  0  0
    8.3364   -0.8735   23.1961 C   0  0  0  0  0  0  0  0  0  0  0  0
    8.5912   -0.3849   24.1374 H   0  0  0  0  0  0  0  0  0  0  0  0
    8.6265   -2.1856   22.9773 C   0  0  0  0  0  0  0  0  0  0  0  0
    9.1000   -2.8289   23.7060 H   0  0  0  0  0  0  0  0  0  0  0  0
    8.2880   -2.8188   21.7101 C   0  0  0  0  0  0  0  0  0  0  0  0
    8.4395   -3.9889   21.4025 O   0  0  0  0  0  0  0  0  0  0  0  0
    7.7320   -1.9675   20.7755 N   0  0  0  0  0  0  0  0  0  0  0  0
    7.4687   -2.4772   19.9512 H   0  0  0  0  0  0  0  0  0  0  0  0
    5.4267    0.6499   20.1522 C   0  0  0  0  0  0  0  0  0  0  0  0
    5.0124    0.6482   21.1624 H   0  0  0  0  0  0  0  0  0  0  0  0
    4.7994    1.3044   19.0953 C   0  0  0  0  0  0  0  0  0  0  0  0
    3.8733    1.8445   19.2383 H   0  0  0  0  0  0  0  0  0  0  0  0
  1  2  1  0
  2  3  2  0
  3  4  1  0
  4  5  1  0
  4  6  2  0
  6  7  1  0
  7  8  2  0
  8  9  1  0
  9 10  2  0
 10 11  1  0
 10 12  1  0
 12 13  2  0
 13 14  1  0
 13 15  1  0
 15 16  1  0
 16 17  1  0
 17 18  1  0
 17 19  1  0
 17 20  1  0
 15 21  2  0
 21 22  1  0
  8 23  1  0
 23 24  1  0
 23 25  2  0
 25 26  1  0
 25 27  1  0
 27 28  2  0
 27 29  1  0
 29 30  1  0
  6 31  1  0
 31 32  1  0
 31 33  2  0
 33 34  1  0
 33  2  1  0
 29  7  1  0
 21  9  1  0
M  END
>  <cnnaffinity>  (1) 
-5.36597

>  <filename>  (1) 
COc1cncc(-c2ccc(=O)[nH]c2-c2cccnc2)c1

$$$$
