
     RDKit          3D

 42 46  0  0  0  0  0  0  0  0999 V2000
    5.7646   -0.1230   26.0539 C   0  0  0  0  0  0  0  0  0  0  0  0
    6.3055   -0.0552   24.7533 O   0  0  0  0  0  0  0  0  0  0  0  0
    6.5832    1.1233   24.1544 C   0  0  0  0  0  0  0  0  0  0  0  0
    6.3060    2.3770   24.7187 C   0  0  0  0  0  0  0  0  0  0  0  0
    6.5967    3.5508   24.0190 C   0  0  0  0  0  0  0  0  0  0  0  0
    7.1722    3.4768   22.7549 C   0  0  0  0  0  0  0  0  0  0  0  0
    7.4599    4.6101   22.0930 F   0  0  0  0  0  0  0  0  0  0  0  0
    7.4532    2.2537   22.1639 C   0  0  0  0  0  0  0  0  0  0  0  0
    7.1514    1.0632   22.8562 C   0  0  0  0  0  0  0  0  0  0  0  0
    7.4370   -0.2658   22.2908 C   0  0  0  0  0  0  0  0  0  0  0  0
    8.0223   -1.2518   22.9424 N   0  0  0  0  0  0  0  0  0  0  0  0
    8.1928   -2.1916   21.9970 C   0  0  0  0  0  0  0  0  0  0  0  0
    8.9440   -3.4595   22.1891 C   0  0  0  0  0  0  0  0  0  0  0  0
    8.2431   -4.7504   21.8717 C   0  0  0  0  0  0  0  0  0  0  0  0
    8.8614   -4.5699   23.2664 C   0  0  0  0  0  0  0  0  0  0  0  0
    8.8823   -5.7087   24.3007 C   0  0  0  0  0  0  0  0  0  0  0  0
    9.8337   -4.5602   24.4324 C   0  0  0  0  0  0  0  0  0  0  0  0
    9.6238   -3.7935   25.1814 H   0  0  0  0  0  0  0  0  0  0  0  0
   10.8978   -4.7157   24.2286 H   0  0  0  0  0  0  0  0  0  0  0  0
    9.2993   -6.6584   23.9559 H   0  0  0  0  0  0  0  0  0  0  0  0
    8.0445   -5.8125   24.9888 H   0  0  0  0  0  0  0  0  0  0  0  0
    8.6091   -5.5298   21.2018 H   0  0  0  0  0  0  0  0  0  0  0  0
    7.1522   -4.7069   21.8757 H   0  0  0  0  0  0  0  0  0  0  0  0
    9.9799   -3.2515   21.9131 H   0  0  0  0  0  0  0  0  0  0  0  0
    7.7836   -1.8568   20.7828 N   0  0  0  0  0  0  0  0  0  0  0  0
    7.2628   -0.6184   20.9744 N   0  0  0  0  0  0  0  0  0  0  0  0
    6.5837    0.0297   19.9152 C   0  0  0  0  0  0  0  0  0  0  0  0
    5.3712    0.6954   20.1294 C   0  0  0  0  0  0  0  0  0  0  0  0
    4.7887    1.3390   19.0382 C   0  0  0  0  0  0  0  0  0  0  0  0
    5.4285    1.2970   17.7957 C   0  0  0  0  0  0  0  0  0  0  0  0
    6.5808    0.6352   17.5829 N   0  0  0  0  0  0  0  0  0  0  0  0
    7.1335    0.0012   18.6191 C   0  0  0  0  0  0  0  0  0  0  0  0
    8.0609   -0.5381   18.4328 H   0  0  0  0  0  0  0  0  0  0  0  0
    4.9970    1.8049   16.9376 H   0  0  0  0  0  0  0  0  0  0  0  0
    3.8604    1.8859   19.1488 H   0  0  0  0  0  0  0  0  0  0  0  0
    4.9265    0.7371   21.1253 H   0  0  0  0  0  0  0  0  0  0  0  0
    7.8919    2.2541   21.1676 H   0  0  0  0  0  0  0  0  0  0  0  0
    6.3840    4.5235   24.4469 H   0  0  0  0  0  0  0  0  0  0  0  0
    5.8600    2.4289   25.7072 H   0  0  0  0  0  0  0  0  0  0  0  0
    6.4173    0.3582   26.7934 H   0  0  0  0  0  0  0  0  0  0  0  0
    5.6916   -1.1876   26.2835 H   0  0  0  0  0  0  0  0  0  0  0  0
    4.7630    0.3224   26.0980 H   0  0  0  0  0  0  0  0  0  0  0  0
  1  2  1  0
  2  3  1  0
  3  4  2  0
  4  5  1  0
  5  6  2  0
  6  7  1  0
  6  8  1  0
  8  9  2  0
  9 10  1  0
 10 11  2  0
 11 12  1  0
 12 13  1  0
 13 14  1  0
 14 15  1  0
 15 16  1  0
 16 17  1  0
 17 18  1  0
 17 19  1  0
 16 20  1  0
 16 21  1  0
 14 22  1  0
 14 23  1  0
 13 24  1  0
 12 25  2  0
 25 26  1  0
 26 27  1  0
 27 28  2  0
 28 29  1  0
 29 30  2  0
 30 31  1  0
 31 32  2  0
 32 33  1  0
 30 34  1  0
 29 35  1  0
 28 36  1  0
  8 37  1  0
  5 38  1  0
  4 39  1  0
  1 40  1  0
  1 41  1  0
  1 42  1  0
  9  3  1  0
 26 10  1  0
 32 27  1  0
 15 13  1  0
 17 15  1  0
M  END
>  <cnnaffinity>  (1) 
-6.17558

>  <filename>  (1) 
COc1ccc(F)cc1-c1nc(C2CC23CC3)nn1-c1cccnc1

$$$$
