
     RDKit          3D

 47 50  0  0  0  0  0  0  0  0999 V2000
   12.4431    2.6105   23.7476 C   0  0  0  0  0  0  0  0  0  0  0  0
   11.2595    2.3518   23.0312 O   0  0  0  0  0  0  0  0  0  0  0  0
   10.0713    2.2392   23.6978 C   0  0  0  0  0  0  0  0  0  0  0  0
    9.9638    2.1789   25.0940 C   0  0  0  0  0  0  0  0  0  0  0  0
    8.7024    2.0885   25.6945 C   0  0  0  0  0  0  0  0  0  0  0  0
    7.5599    1.9535   24.9000 C   0  0  0  0  0  0  0  0  0  0  0  0
    7.6852    1.9537   23.5068 C   0  0  0  0  0  0  0  0  0  0  0  0
    8.9238    2.1348   22.8814 C   0  0  0  0  0  0  0  0  0  0  0  0
    9.0569    2.0221   21.3774 C   0  0  0  0  0  0  0  0  0  0  0  0
    9.5347    0.6151   20.9445 C   0  0  0  0  0  0  0  0  0  0  0  0
    8.6308   -0.4747   21.4148 C   0  0  0  0  0  0  0  0  0  0  0  0
    8.8567   -1.2951   22.4154 N   0  0  0  0  0  0  0  0  0  0  0  0
    7.6608   -1.9255   22.5763 C   0  0  0  0  0  0  0  0  0  0  0  0
    7.4632   -2.9370   23.6415 C   0  0  2  0  0  0  0  0  0  0  0  0
    8.4187   -4.1040   23.7419 C   0  0  0  0  0  0  0  0  0  0  0  0
    7.0016   -4.3294   23.2841 C   0  0  1  0  0  0  0  0  0  0  0  0
    6.0313   -5.0492   24.1945 C   0  0  0  0  0  0  0  0  0  0  0  0
    6.1354   -6.1343   24.0863 H   0  0  0  0  0  0  0  0  0  0  0  0
    6.2166   -4.8005   25.2475 H   0  0  0  0  0  0  0  0  0  0  0  0
    4.9916   -4.7873   23.9672 H   0  0  0  0  0  0  0  0  0  0  0  0
    6.8423   -4.4966   22.2148 H   0  0  0  0  0  0  0  0  0  0  0  0
    9.2360   -4.1389   23.0223 H   0  0  0  0  0  0  0  0  0  0  0  0
    8.6996   -4.4541   24.7347 H   0  0  0  0  0  0  0  0  0  0  0  0
    7.0891   -2.4874   24.5660 H   0  0  0  0  0  0  0  0  0  0  0  0
    6.7161   -1.5537   21.7312 N   0  0  0  0  0  0  0  0  0  0  0  0
    7.3567   -0.6430   20.9513 N   0  0  0  0  0  0  0  0  0  0  0  0
    6.6651    0.0104   19.8955 C   0  0  0  0  0  0  0  0  0  0  0  0
    5.4462    0.6440   20.1550 C   0  0  0  0  0  0  0  0  0  0  0  0
    4.8104    1.3113   19.1046 C   0  0  0  0  0  0  0  0  0  0  0  0
    5.4006    1.2963   17.8349 C   0  0  0  0  0  0  0  0  0  0  0  0
    6.5551    0.6656   17.5712 N   0  0  0  0  0  0  0  0  0  0  0  0
    7.1695    0.0454   18.5849 C   0  0  0  0  0  0  0  0  0  0  0  0
    8.1102   -0.4503   18.3486 H   0  0  0  0  0  0  0  0  0  0  0  0
    4.9293    1.8026   16.9953 H   0  0  0  0  0  0  0  0  0  0  0  0
    3.8756    1.8412   19.2590 H   0  0  0  0  0  0  0  0  0  0  0  0
    5.0194    0.5937   21.1577 H   0  0  0  0  0  0  0  0  0  0  0  0
   10.5319    0.4146   21.3451 H   0  0  0  0  0  0  0  0  0  0  0  0
    9.5912    0.5625   19.8563 H   0  0  0  0  0  0  0  0  0  0  0  0
    8.0957    2.2467   20.8983 H   0  0  0  0  0  0  0  0  0  0  0  0
    9.7807    2.7509   21.0064 H   0  0  0  0  0  0  0  0  0  0  0  0
    6.8186    1.7539   22.8742 H   0  0  0  0  0  0  0  0  0  0  0  0
    6.5863    1.7989   25.3545 H   0  0  0  0  0  0  0  0  0  0  0  0
    8.6187    2.1067   26.7798 H   0  0  0  0  0  0  0  0  0  0  0  0
   10.8721    2.1191   25.6825 H   0  0  0  0  0  0  0  0  0  0  0  0
   12.3583    3.5541   24.3016 H   0  0  0  0  0  0  0  0  0  0  0  0
   12.6796    1.7957   24.4448 H   0  0  0  0  0  0  0  0  0  0  0  0
   13.2322    2.6855   22.9977 H   0  0  0  0  0  0  0  0  0  0  0  0
  1  2  1  0
  2  3  1  0
  3  4  2  0
  4  5  1  0
  5  6  2  0
  6  7  1  0
  7  8  2  0
  8  9  1  0
  9 10  1  0
 10 11  1  0
 11 12  2  0
 12 13  1  0
 13 14  1  0
 14 15  1  0
 15 16  1  0
 16 17  1  0
 17 18  1  0
 17 19  1  0
 17 20  1  0
 16 21  1  6
 15 22  1  0
 15 23  1  0
 14 24  1  1
 13 25  2  0
 25 26  1  0
 26 27  1  0
 27 28  2  0
 28 29  1  0
 29 30  2  0
 30 31  1  0
 31 32  2  0
 32 33  1  0
 30 34  1  0
 29 35  1  0
 28 36  1  0
 10 37  1  0
 10 38  1  0
  9 39  1  0
  9 40  1  0
  7 41  1  0
  6 42  1  0
  5 43  1  0
  4 44  1  0
  1 45  1  0
  1 46  1  0
  1 47  1  0
  8  3  1  0
 26 11  1  0
 32 27  1  0
 16 14  1  0
M  END
>  <cnnaffinity>  (1) 
-5.97765

>  <filename>  (1) 
COc1ccccc1CCc1nc([C@@H]2C[C@H]2C)nn1-c1cccnc1

$$$$
