
     RDKit          3D

 47 50  0  0  0  0  0  0  0  0999 V2000
   12.4062    2.5099   23.8456 C   0  0  0  0  0  0  0  0  0  0  0  0
   11.2395    2.2341   23.1123 O   0  0  0  0  0  0  0  0  0  0  0  0
   10.0455    2.1299   23.7686 C   0  0  0  0  0  0  0  0  0  0  0  0
    9.9237    2.0562   25.1653 C   0  0  0  0  0  0  0  0  0  0  0  0
    8.6618    1.9046   25.7493 C   0  0  0  0  0  0  0  0  0  0  0  0
    7.5318    1.7833   24.9376 C   0  0  0  0  0  0  0  0  0  0  0  0
    7.6631    1.8524   23.5461 C   0  0  0  0  0  0  0  0  0  0  0  0
    8.9067    2.0586   22.9386 C   0  0  0  0  0  0  0  0  0  0  0  0
    9.0542    2.0052   21.4317 C   0  0  0  0  0  0  0  0  0  0  0  0
    9.5448    0.6155   20.9479 C   0  0  0  0  0  0  0  0  0  0  0  0
    8.6587   -0.5051   21.3903 C   0  0  0  0  0  0  0  0  0  0  0  0
    8.8772   -1.3376   22.3889 N   0  0  0  0  0  0  0  0  0  0  0  0
    7.6653   -1.9218   22.5771 C   0  0  0  0  0  0  0  0  0  0  0  0
    7.4008   -2.8025   23.7566 C   0  0  0  0  0  0  0  0  0  0  0  0
    6.4376   -2.1961   24.8418 C   0  0  0  0  0  0  0  0  0  0  0  0
    5.4199   -3.3299   24.5647 C   0  0  0  0  0  0  0  0  0  0  0  0
    6.3867   -3.9654   23.5336 C   0  0  0  0  0  0  0  0  0  0  0  0
    6.7731   -4.9557   23.7984 H   0  0  0  0  0  0  0  0  0  0  0  0
    5.9992   -4.0165   22.5088 H   0  0  0  0  0  0  0  0  0  0  0  0
    5.1742   -3.9578   25.4297 H   0  0  0  0  0  0  0  0  0  0  0  0
    4.4736   -2.9838   24.1309 H   0  0  0  0  0  0  0  0  0  0  0  0
    6.0780   -1.1804   24.6179 H   0  0  0  0  0  0  0  0  0  0  0  0
    6.8547   -2.1818   25.8549 H   0  0  0  0  0  0  0  0  0  0  0  0
    8.3881   -3.0939   24.1403 H   0  0  0  0  0  0  0  0  0  0  0  0
    6.7320   -1.5523   21.7188 N   0  0  0  0  0  0  0  0  0  0  0  0
    7.3776   -0.6520   20.9359 N   0  0  0  0  0  0  0  0  0  0  0  0
    6.6757    0.0092   19.8961 C   0  0  0  0  0  0  0  0  0  0  0  0
    5.4541    0.6397   20.1590 C   0  0  0  0  0  0  0  0  0  0  0  0
    4.8123    1.3063   19.1114 C   0  0  0  0  0  0  0  0  0  0  0  0
    5.4020    1.2923   17.8409 C   0  0  0  0  0  0  0  0  0  0  0  0
    6.5555    0.6628   17.5748 N   0  0  0  0  0  0  0  0  0  0  0  0
    7.1747    0.0432   18.5835 C   0  0  0  0  0  0  0  0  0  0  0  0
    8.1133   -0.4555   18.3462 H   0  0  0  0  0  0  0  0  0  0  0  0
    4.9299    1.8019   17.0042 H   0  0  0  0  0  0  0  0  0  0  0  0
    3.8778    1.8382   19.2652 H   0  0  0  0  0  0  0  0  0  0  0  0
    5.0237    0.5920   21.1595 H   0  0  0  0  0  0  0  0  0  0  0  0
    9.5846    0.6061   19.8588 H   0  0  0  0  0  0  0  0  0  0  0  0
   10.5517    0.4220   21.3297 H   0  0  0  0  0  0  0  0  0  0  0  0
    8.0962    2.2546   20.9568 H   0  0  0  0  0  0  0  0  0  0  0  0
    9.7772    2.7536   21.0963 H   0  0  0  0  0  0  0  0  0  0  0  0
    6.7963    1.6945   22.9024 H   0  0  0  0  0  0  0  0  0  0  0  0
    6.5560    1.5933   25.3774 H   0  0  0  0  0  0  0  0  0  0  0  0
    8.5731    1.8609   26.8346 H   0  0  0  0  0  0  0  0  0  0  0  0
   10.8184    2.0508   25.7765 H   0  0  0  0  0  0  0  0  0  0  0  0
   12.2872    3.4334   24.4285 H   0  0  0  0  0  0  0  0  0  0  0  0
   13.2039    2.6236   23.1084 H   0  0  0  0  0  0  0  0  0  0  0  0
   12.6386    1.6825   24.5277 H   0  0  0  0  0  0  0  0  0  0  0  0
  1  2  1  0
  2  3  1  0
  3  4  2  0
  4  5  1  0
  5  6  2  0
  6  7  1  0
  7  8  2  0
  8  9  1  0
  9 10  1  0
 10 11  1  0
 11 12  2  0
 12 13  1  0
 13 14  1  0
 14 15  1  0
 15 16  1  0
 16 17  1  0
 17 18  1  0
 17 19  1  0
 16 20  1  0
 16 21  1  0
 15 22  1  0
 15 23  1  0
 14 24  1  0
 13 25  2  0
 25 26  1  0
 26 27  1  0
 27 28  2  0
 28 29  1  0
 29 30  2  0
 30 31  1  0
 31 32  2  0
 32 33  1  0
 30 34  1  0
 29 35  1  0
 28 36  1  0
 10 37  1  0
 10 38  1  0
  9 39  1  0
  9 40  1  0
  7 41  1  0
  6 42  1  0
  5 43  1  0
  4 44  1  0
  1 45  1  0
  1 46  1  0
  1 47  1  0
  8  3  1  0
 26 11  1  0
 32 27  1  0
 17 14  1  0
M  END
>  <cnnaffinity>  (1) 
-6.00441

>  <filename>  (1) 
COc1ccccc1CCc1nc(C2CCC2)nn1-c1cccnc1

$$$$
