
     RDKit          3D

 47 50  0  0  0  0  0  0  0  0999 V2000
    5.0118    1.8306   17.0186 H   0  0  0  0  0  0  0  0  0  0  0  0
    5.4655    1.2864   17.8419 C   0  0  0  0  0  0  0  0  0  0  0  0
    6.6220    0.6601   17.5778 N   0  0  0  0  0  0  0  0  0  0  0  0
    7.2115    0.0063   18.5925 C   0  0  0  0  0  0  0  0  0  0  0  0
    8.1472   -0.4821   18.3488 H   0  0  0  0  0  0  0  0  0  0  0  0
    6.7068   -0.0714   19.9240 C   0  0  0  0  0  0  0  0  0  0  0  0
    7.3325   -0.8211   20.9322 N   0  0  0  0  0  0  0  0  0  0  0  0
    7.0832   -0.5720   22.3661 C   0  0  1  0  0  0  0  0  0  0  0  0
    6.0135   -0.5730   22.5825 H   0  0  0  0  0  0  0  0  0  0  0  0
    7.7695   -1.7911   23.0092 C   0  0  0  0  0  0  0  0  0  0  0  0
    8.1303   -1.5748   24.0193 H   0  0  0  0  0  0  0  0  0  0  0  0
    7.0424   -2.6053   23.0843 H   0  0  0  0  0  0  0  0  0  0  0  0
    8.8986   -2.1620   22.0136 C   0  0  0  0  0  0  0  0  0  0  0  0
    8.7100   -3.1505   21.5838 H   0  0  0  0  0  0  0  0  0  0  0  0
    9.8971   -2.1769   22.4633 H   0  0  0  0  0  0  0  0  0  0  0  0
    8.7760   -1.1098   20.8962 C   0  0  2  0  0  0  0  0  0  0  0  0
    9.0651   -1.5392   19.9295 H   0  0  0  0  0  0  0  0  0  0  0  0
    9.5672    0.1953   21.1322 C   0  0  0  0  0  0  0  0  0  0  0  0
    9.3825    0.8416   20.2670 H   0  0  0  0  0  0  0  0  0  0  0  0
   10.6390   -0.0281   21.1222 H   0  0  0  0  0  0  0  0  0  0  0  0
    9.1746    0.9650   22.4256 C   0  0  2  0  0  0  0  0  0  0  0  0
    9.3336    2.0364   22.2231 H   0  0  0  0  0  0  0  0  0  0  0  0
   10.0842    0.6257   23.6337 C   0  0  0  0  0  0  0  0  0  0  0  0
   10.0346   -0.4407   23.8794 H   0  0  0  0  0  0  0  0  0  0  0  0
    9.7057    1.1669   24.5129 H   0  0  0  0  0  0  0  0  0  0  0  0
   11.5176    1.0510   23.4136 C   0  0  0  0  0  0  0  0  0  0  0  0
   12.5409    0.1394   23.0981 C   0  0  0  0  0  0  0  0  0  0  0  0
   12.3228   -0.9219   23.0409 H   0  0  0  0  0  0  0  0  0  0  0  0
   13.8295    0.5913   22.8094 C   0  0  0  0  0  0  0  0  0  0  0  0
   14.6085   -0.1196   22.5470 H   0  0  0  0  0  0  0  0  0  0  0  0
   14.1127    1.9612   22.8214 C   0  0  0  0  0  0  0  0  0  0  0  0
   15.0908    2.3190   22.5175 H   0  0  0  0  0  0  0  0  0  0  0  0
   13.1092    2.8749   23.1603 C   0  0  0  0  0  0  0  0  0  0  0  0
   13.2491    4.2273   23.2342 O   0  0  0  0  0  0  0  0  0  0  0  0
   14.4179    4.8483   22.7472 C   0  0  0  0  0  0  0  0  0  0  0  0
   14.1843    5.9132   22.6766 H   0  0  0  0  0  0  0  0  0  0  0  0
   14.6813    4.4777   21.7476 H   0  0  0  0  0  0  0  0  0  0  0  0
   15.2555    4.7035   23.4428 H   0  0  0  0  0  0  0  0  0  0  0  0
   11.8207    2.4150   23.4506 C   0  0  0  0  0  0  0  0  0  0  0  0
   11.0624    3.1611   23.6686 H   0  0  0  0  0  0  0  0  0  0  0  0
    7.6746    0.7936   22.7722 C   0  0  0  0  0  0  0  0  0  0  0  0
    7.0974    1.5692   22.2559 H   0  0  0  0  0  0  0  0  0  0  0  0
    7.5085    0.9592   23.8424 H   0  0  0  0  0  0  0  0  0  0  0  0
    5.4933    0.6037   20.1616 C   0  0  0  0  0  0  0  0  0  0  0  0
    5.0675    0.6092   21.1612 H   0  0  0  0  0  0  0  0  0  0  0  0
    4.8711    1.2788   19.1066 C   0  0  0  0  0  0  0  0  0  0  0  0
    3.9407    1.8089   19.2700 H   0  0  0  0  0  0  0  0  0  0  0  0
  1  2  1  0
  2  3  2  0
  3  4  1  0
  4  5  1  0
  4  6  2  0
  6  7  1  0
  7  8  1  0
  8  9  1  6
  8 10  1  0
 10 11  1  0
 10 12  1  0
 10 13  1  0
 13 14  1  0
 13 15  1  0
 13 16  1  0
 16 17  1  6
 16 18  1  0
 18 19  1  0
 18 20  1  0
 18 21  1  0
 21 22  1  6
 21 23  1  0
 23 24  1  0
 23 25  1  0
 23 26  1  0
 26 27  2  0
 27 28  1  0
 27 29  1  0
 29 30  1  0
 29 31  2  0
 31 32  1  0
 31 33  1  0
 33 34  1  0
 34 35  1  0
 35 36  1  0
 35 37  1  0
 35 38  1  0
 33 39  2  0
 39 40  1  0
 21 41  1  0
 41 42  1  0
 41 43  1  0
  6 44  1  0
 44 45  1  0
 44 46  2  0
 46 47  1  0
 46  2  1  0
 16  7  1  0
 39 26  1  0
 41  8  1  0
M  END
>  <cnnaffinity>  (1) 
-6.22574

>  <filename>  (1) 
COc1cccc(C[C@H]2C[C@H]3CC[C@@H](C2)N3c2cccnc2)c1

$$$$
