
     RDKit          3D

 45 48  0  0  0  0  0  0  0  0999 V2000
   13.1841   -1.8927   21.3883 C   0  0  0  0  0  0  0  0  0  0  0  0
   12.0672   -1.0638   21.1739 O   0  0  0  0  0  0  0  0  0  0  0  0
   11.8650    0.0330   21.9554 C   0  0  0  0  0  0  0  0  0  0  0  0
   12.7297    0.4616   22.9767 C   0  0  0  0  0  0  0  0  0  0  0  0
   12.4691    1.6511   23.6654 C   0  0  0  0  0  0  0  0  0  0  0  0
   11.3352    2.3862   23.3442 C   0  0  0  0  0  0  0  0  0  0  0  0
   11.0854    3.5301   24.0021 F   0  0  0  0  0  0  0  0  0  0  0  0
   10.4442    1.9519   22.3612 C   0  0  0  0  0  0  0  0  0  0  0  0
   10.6925    0.7675   21.6662 C   0  0  0  0  0  0  0  0  0  0  0  0
    9.6599    0.2251   20.6984 C   0  0  0  0  0  0  0  0  0  0  0  0
    8.6174   -0.6179   21.3561 C   0  0  0  0  0  0  0  0  0  0  0  0
    8.8256   -1.4585   22.3453 N   0  0  0  0  0  0  0  0  0  0  0  0
    7.6127   -2.0123   22.5421 C   0  0  0  0  0  0  0  0  0  0  0  0
    7.3848   -2.9971   23.6349 C   0  0  0  0  0  0  0  0  0  0  0  0
    6.3782   -2.5360   24.7128 C   0  0  0  0  0  0  0  0  0  0  0  0
    5.7596   -3.8486   25.2010 C   0  0  0  0  0  0  0  0  0  0  0  0
    6.0236   -4.8321   24.2119 O   0  0  0  0  0  0  0  0  0  0  0  0
    6.7692   -4.3105   23.1335 C   0  0  0  0  0  0  0  0  0  0  0  0
    6.1154   -4.1352   22.2655 H   0  0  0  0  0  0  0  0  0  0  0  0
    7.5283   -5.0493   22.8467 H   0  0  0  0  0  0  0  0  0  0  0  0
    6.1990   -4.1800   26.1507 H   0  0  0  0  0  0  0  0  0  0  0  0
    4.6734   -3.7656   25.3372 H   0  0  0  0  0  0  0  0  0  0  0  0
    6.8466   -1.9537   25.5125 H   0  0  0  0  0  0  0  0  0  0  0  0
    5.6112   -1.9033   24.2603 H   0  0  0  0  0  0  0  0  0  0  0  0
    8.3658   -3.1879   24.0809 H   0  0  0  0  0  0  0  0  0  0  0  0
    6.6635   -1.5926   21.7237 N   0  0  0  0  0  0  0  0  0  0  0  0
    7.3214   -0.6994   20.9401 N   0  0  0  0  0  0  0  0  0  0  0  0
    6.6444   -0.0158   19.8928 C   0  0  0  0  0  0  0  0  0  0  0  0
    5.4321    0.6294   20.1543 C   0  0  0  0  0  0  0  0  0  0  0  0
    4.8036    1.3054   19.1060 C   0  0  0  0  0  0  0  0  0  0  0  0
    5.3998    1.2922   17.8389 C   0  0  0  0  0  0  0  0  0  0  0  0
    6.5500    0.6539   17.5721 N   0  0  0  0  0  0  0  0  0  0  0  0
    7.1576    0.0239   18.5835 C   0  0  0  0  0  0  0  0  0  0  0  0
    8.1022   -0.4674   18.3460 H   0  0  0  0  0  0  0  0  0  0  0  0
    4.9344    1.8132   17.0055 H   0  0  0  0  0  0  0  0  0  0  0  0
    3.8740    1.8467   19.2618 H   0  0  0  0  0  0  0  0  0  0  0  0
    5.0110    0.5944   21.1583 H   0  0  0  0  0  0  0  0  0  0  0  0
   10.1340   -0.4385   19.9693 H   0  0  0  0  0  0  0  0  0  0  0  0
    9.1666    1.0440   20.1742 H   0  0  0  0  0  0  0  0  0  0  0  0
    9.5622    2.5499   22.1557 H   0  0  0  0  0  0  0  0  0  0  0  0
   13.1408    2.0103   24.4355 H   0  0  0  0  0  0  0  0  0  0  0  0
   13.5913   -0.1408   23.2420 H   0  0  0  0  0  0  0  0  0  0  0  0
   14.0912   -1.3003   21.5484 H   0  0  0  0  0  0  0  0  0  0  0  0
   13.0251   -2.5501   22.2513 H   0  0  0  0  0  0  0  0  0  0  0  0
   13.3067   -2.4788   20.4749 H   0  0  0  0  0  0  0  0  0  0  0  0
  1  2  1  0
  2  3  1  0
  3  4  2  0
  4  5  1  0
  5  6  2  0
  6  7  1  0
  6  8  1  0
  8  9  2  0
  9 10  1  0
 10 11  1  0
 11 12  2  0
 12 13  1  0
 13 14  1  0
 14 15  1  0
 15 16  1  0
 16 17  1  0
 17 18  1  0
 18 19  1  0
 18 20  1  0
 16 21  1  0
 16 22  1  0
 15 23  1  0
 15 24  1  0
 14 25  1  0
 13 26  2  0
 26 27  1  0
 27 28  1  0
 28 29  2  0
 29 30  1  0
 30 31  2  0
 31 32  1  0
 32 33  2  0
 33 34  1  0
 31 35  1  0
 30 36  1  0
 29 37  1  0
 10 38  1  0
 10 39  1  0
  8 40  1  0
  5 41  1  0
  4 42  1  0
  1 43  1  0
  1 44  1  0
  1 45  1  0
  9  3  1  0
 27 11  1  0
 33 28  1  0
 18 14  1  0
M  END
>  <cnnaffinity>  (1) 
-6.49645

>  <filename>  (1) 
COc1ccc(F)cc1Cc1nc(C2CCOC2)nn1-c1cccnc1

$$$$
