
     RDKit          3D

 42 45  0  0  0  0  0  0  0  0999 V2000
    4.9303    1.7837   16.9897 H   0  0  0  0  0  0  0  0  0  0  0  0
    5.4055    1.2941   17.8358 C   0  0  0  0  0  0  0  0  0  0  0  0
    6.5645    0.6697   17.5829 N   0  0  0  0  0  0  0  0  0  0  0  0
    7.1574    0.0502   18.6115 C   0  0  0  0  0  0  0  0  0  0  0  0
    8.1088   -0.4292   18.3858 H   0  0  0  0  0  0  0  0  0  0  0  0
    6.6228   -0.0107   19.9071 C   0  0  0  0  0  0  0  0  0  0  0  0
    7.3324   -0.7336   20.9655 C   0  0  0  0  0  0  0  0  0  0  0  0
    6.6913   -1.5375   21.8191 N   0  0  0  0  0  0  0  0  0  0  0  0
    7.6523   -1.9038   22.6771 N   0  0  0  0  0  0  0  0  0  0  0  0
    8.8419   -1.3423   22.4306 C   0  0  0  0  0  0  0  0  0  0  0  0
    8.7093   -0.5786   21.2958 C   0  0  0  0  0  0  0  0  0  0  0  0
    9.7270    0.4460   20.8597 C   0  0  0  0  0  0  0  0  0  0  0  0
    9.5115    0.7349   19.8283 H   0  0  0  0  0  0  0  0  0  0  0  0
   10.7261   -0.0018   20.8879 H   0  0  0  0  0  0  0  0  0  0  0  0
    9.7066    1.6955   21.7308 C   0  0  0  0  0  0  0  0  0  0  0  0
    8.6384    2.5899   21.5965 C   0  0  0  0  0  0  0  0  0  0  0  0
    7.8732    2.3688   20.8529 H   0  0  0  0  0  0  0  0  0  0  0  0
    8.5259    3.7289   22.3990 C   0  0  0  0  0  0  0  0  0  0  0  0
    7.6904    4.4142   22.2629 H   0  0  0  0  0  0  0  0  0  0  0  0
    9.5050    3.9790   23.3596 C   0  0  0  0  0  0  0  0  0  0  0  0
    9.4330    4.8678   23.9822 H   0  0  0  0  0  0  0  0  0  0  0  0
   10.5838    3.1021   23.5290 C   0  0  0  0  0  0  0  0  0  0  0  0
   11.3466    3.3028   24.2748 H   0  0  0  0  0  0  0  0  0  0  0  0
   10.6865    1.9587   22.7177 C   0  0  0  0  0  0  0  0  0  0  0  0
   11.7016    1.0456   22.8217 O   0  0  0  0  0  0  0  0  0  0  0  0
   12.7290    1.2004   23.7843 C   0  0  0  0  0  0  0  0  0  0  0  0
   13.3119    2.1191   23.6411 H   0  0  0  0  0  0  0  0  0  0  0  0
   12.3460    1.1800   24.8126 H   0  0  0  0  0  0  0  0  0  0  0  0
   13.3905    0.3470   23.6384 H   0  0  0  0  0  0  0  0  0  0  0  0
    9.7609   -1.5019   23.5879 C   0  0  0  0  0  0  0  0  0  0  0  0
    9.9782   -0.5116   23.9941 H   0  0  0  0  0  0  0  0  0  0  0  0
   10.7188   -1.9253   23.2885 H   0  0  0  0  0  0  0  0  0  0  0  0
    8.9478   -2.3954   24.5660 C   0  0  0  0  0  0  0  0  0  0  0  0
    8.9092   -1.9594   25.5632 H   0  0  0  0  0  0  0  0  0  0  0  0
    9.4003   -3.3832   24.6587 H   0  0  0  0  0  0  0  0  0  0  0  0
    7.5107   -2.5211   23.9778 C   0  0  0  0  0  0  0  0  0  0  0  0
    6.7576   -1.9787   24.5543 H   0  0  0  0  0  0  0  0  0  0  0  0
    7.1724   -3.5528   23.8867 H   0  0  0  0  0  0  0  0  0  0  0  0
    5.4135    0.6537   20.1557 C   0  0  0  0  0  0  0  0  0  0  0  0
    4.9881    0.6306   21.1633 H   0  0  0  0  0  0  0  0  0  0  0  0
    4.8022    1.3217   19.0985 C   0  0  0  0  0  0  0  0  0  0  0  0
    3.8709    1.8490   19.2468 H   0  0  0  0  0  0  0  0  0  0  0  0
  1  2  1  0
  2  3  2  0
  3  4  1  0
  4  5  1  0
  4  6  2  0
  6  7  1  0
  7  8  2  0
  8  9  1  0
  9 10  1  0
 10 11  2  0
 11 12  1  0
 12 13  1  0
 12 14  1  0
 12 15  1  0
 15 16  2  0
 16 17  1  0
 16 18  1  0
 18 19  1  0
 18 20  2  0
 20 21  1  0
 20 22  1  0
 22 23  1  0
 22 24  2  0
 24 25  1  0
 25 26  1  0
 26 27  1  0
 26 28  1  0
 26 29  1  0
 10 30  1  0
 30 31  1  0
 30 32  1  0
 30 33  1  0
 33 34  1  0
 33 35  1  0
 33 36  1  0
 36 37  1  0
 36 38  1  0
  6 39  1  0
 39 40  1  0
 39 41  2  0
 41 42  1  0
 41  2  1  0
 11  7  1  0
 24 15  1  0
 36  9  1  0
M  END
>  <cnnaffinity>  (1) 
-5.7777

>  <filename>  (1) 
COc1ccccc1Cc1c(-c2cccnc2)nn2c1CCC2

$$$$
