
     RDKit          3D

 31 33  0  0  0  0  0  0  0  0999 V2000
    5.0323    1.7866   16.9694 H   0  0  0  0  0  0  0  0  0  0  0  0
    5.4476    1.2688   17.8308 C   0  0  0  0  0  0  0  0  0  0  0  0
    6.5786    0.5838   17.6072 N   0  0  0  0  0  0  0  0  0  0  0  0
    7.1321   -0.0468   18.6442 C   0  0  0  0  0  0  0  0  0  0  0  0
    8.0282   -0.6290   18.4366 H   0  0  0  0  0  0  0  0  0  0  0  0
    6.6226    0.0080   19.9506 C   0  0  0  0  0  0  0  0  0  0  0  0
    7.3870   -0.6430   21.0085 C   0  0  0  0  0  0  0  0  0  0  0  0
    8.0022   -1.8570   20.8462 N   0  0  0  0  0  0  0  0  0  0  0  0
    8.5239   -2.1530   22.0068 C   0  0  0  0  0  0  0  0  0  0  0  0
    9.0864   -3.0583   22.2234 H   0  0  0  0  0  0  0  0  0  0  0  0
    8.3132   -1.1655   22.9128 N   0  0  0  0  0  0  0  0  0  0  0  0
    8.5678   -1.1521   23.8921 H   0  0  0  0  0  0  0  0  0  0  0  0
    7.6123   -0.1665   22.2806 C   0  0  0  0  0  0  0  0  0  0  0  0
    7.3555    1.1675   22.9180 C   0  0  0  0  0  0  0  0  0  0  0  0
    6.9587    1.8734   22.1831 H   0  0  0  0  0  0  0  0  0  0  0  0
    8.2999    1.5767   23.3063 H   0  0  0  0  0  0  0  0  0  0  0  0
    6.4104    1.1135   24.0288 N   0  0  0  0  0  0  0  0  0  0  0  0
    5.0220    1.2518   23.8685 N   0  0  0  0  0  0  0  0  0  0  0  0
    4.5787    0.7804   24.9783 C   0  0  0  0  0  0  0  0  0  0  0  0
    3.3037    0.6852   25.3124 O   0  0  0  0  0  0  0  0  0  0  0  0
    2.9517    0.3035   26.6533 C   0  0  0  0  0  0  0  0  0  0  0  0
    3.4075   -0.6576   26.9190 H   0  0  0  0  0  0  0  0  0  0  0  0
    1.8613    0.2192   26.6562 H   0  0  0  0  0  0  0  0  0  0  0  0
    3.2686    1.0762   27.3657 H   0  0  0  0  0  0  0  0  0  0  0  0
    5.5108    0.3191   25.8406 O   0  0  0  0  0  0  0  0  0  0  0  0
    6.7063    0.4426   25.1747 C   0  0  0  0  0  0  0  0  0  0  0  0
    7.7612    0.0059   25.5635 O   0  0  0  0  0  0  0  0  0  0  0  0
    5.4067    0.6835   20.1632 C   0  0  0  0  0  0  0  0  0  0  0  0
    4.9400    0.7008   21.1535 H   0  0  0  0  0  0  0  0  0  0  0  0
    4.8092    1.3174   19.0749 C   0  0  0  0  0  0  0  0  0  0  0  0
    3.8726    1.8523   19.1707 H   0  0  0  0  0  0  0  0  0  0  0  0
  1  2  1  0
  2  3  2  0
  3  4  1  0
  4  5  1  0
  4  6  2  0
  6  7  1  0
  7  8  1  0
  8  9  2  0
  9 10  1  0
  9 11  1  0
 11 12  1  0
 11 13  1  0
 13 14  1  0
 14 15  1  0
 14 16  1  0
 14 17  1  0
 17 18  1  0
 18 19  2  0
 19 20  1  0
 20 21  1  0
 21 22  1  0
 21 23  1  0
 21 24  1  0
 19 25  1  0
 25 26  1  0
 26 27  2  0
  6 28  1  0
 28 29  1  0
 28 30  2  0
 30 31  1  0
 30  2  1  0
 13  7  2  0
 26 17  1  0
M  END
>  <cnnaffinity>  (1) 
-4.96181

>  <filename>  (1) 
COc1nn(Cc2[nH]cnc2-c2cccnc2)c(=O)o1

$$$$
