
     RDKit          3D

 45 48  0  0  0  0  0  0  0  0999 V2000
   13.2113   -1.8823   21.4949 C   0  0  0  0  0  0  0  0  0  0  0  0
   12.0677   -1.0810   21.2778 O   0  0  0  0  0  0  0  0  0  0  0  0
   11.8388    0.0291   22.0370 C   0  0  0  0  0  0  0  0  0  0  0  0
   12.7065    0.4732   23.0465 C   0  0  0  0  0  0  0  0  0  0  0  0
   12.4821    1.6983   23.6699 C   0  0  0  0  0  0  0  0  0  0  0  0
   11.3902    2.4869   23.3151 C   0  0  0  0  0  0  0  0  0  0  0  0
   10.4918    2.0163   22.3494 C   0  0  0  0  0  0  0  0  0  0  0  0
   10.6834    0.7860   21.7149 C   0  0  0  0  0  0  0  0  0  0  0  0
    9.6398    0.2452   20.7603 C   0  0  0  0  0  0  0  0  0  0  0  0
    8.5828   -0.5849   21.4167 C   0  0  0  0  0  0  0  0  0  0  0  0
    8.7901   -1.4182   22.4122 N   0  0  0  0  0  0  0  0  0  0  0  0
    7.5768   -1.9858   22.6075 C   0  0  0  0  0  0  0  0  0  0  0  0
    7.3132   -3.1031   23.5946 C   0  0  0  0  0  0  0  0  0  0  0  0
    7.7867   -4.4950   23.0762 C   0  0  0  0  0  0  0  0  0  0  0  0
    8.2670   -5.1952   24.3585 C   0  0  0  0  0  0  0  0  0  0  0  0
    8.7948   -4.0180   25.1802 C   0  0  0  0  0  0  0  0  0  0  0  0
    7.9522   -2.9191   24.8533 O   0  0  0  0  0  0  0  0  0  0  0  0
    9.8437   -3.7825   24.9373 H   0  0  0  0  0  0  0  0  0  0  0  0
    8.7325   -4.1554   26.2651 H   0  0  0  0  0  0  0  0  0  0  0  0
    7.4333   -5.6781   24.8818 H   0  0  0  0  0  0  0  0  0  0  0  0
    9.0322   -5.9612   24.1890 H   0  0  0  0  0  0  0  0  0  0  0  0
    8.6225   -4.3538   22.3774 H   0  0  0  0  0  0  0  0  0  0  0  0
    6.9938   -5.0232   22.5336 H   0  0  0  0  0  0  0  0  0  0  0  0
    6.2278   -3.0658   23.7550 H   0  0  0  0  0  0  0  0  0  0  0  0
    6.6411   -1.5873   21.7631 N   0  0  0  0  0  0  0  0  0  0  0  0
    7.2910   -0.6928   20.9748 N   0  0  0  0  0  0  0  0  0  0  0  0
    6.6203   -0.0316   19.9040 C   0  0  0  0  0  0  0  0  0  0  0  0
    5.4063    0.6216   20.1446 C   0  0  0  0  0  0  0  0  0  0  0  0
    4.8017    1.3095   19.0889 C   0  0  0  0  0  0  0  0  0  0  0  0
    5.4115    1.2953   17.8281 C   0  0  0  0  0  0  0  0  0  0  0  0
    6.5504    0.6331   17.5761 N   0  0  0  0  0  0  0  0  0  0  0  0
    7.1364   -0.0107   18.5926 C   0  0  0  0  0  0  0  0  0  0  0  0
    8.0602   -0.5342   18.3516 H   0  0  0  0  0  0  0  0  0  0  0  0
    4.9667    1.8248   16.9882 H   0  0  0  0  0  0  0  0  0  0  0  0
    3.8758    1.8572   19.2301 H   0  0  0  0  0  0  0  0  0  0  0  0
    4.9688    0.5721   21.1415 H   0  0  0  0  0  0  0  0  0  0  0  0
   10.1122   -0.4343   20.0455 H   0  0  0  0  0  0  0  0  0  0  0  0
    9.1600    1.0617   20.2146 H   0  0  0  0  0  0  0  0  0  0  0  0
    9.6304    2.6244   22.0734 H   0  0  0  0  0  0  0  0  0  0  0  0
   11.2305    3.4444   23.7978 H   0  0  0  0  0  0  0  0  0  0  0  0
   13.1910    2.0144   24.4298 H   0  0  0  0  0  0  0  0  0  0  0  0
   13.5462   -0.1319   23.3643 H   0  0  0  0  0  0  0  0  0  0  0  0
   13.0016   -2.6403   22.2615 H   0  0  0  0  0  0  0  0  0  0  0  0
   13.4368   -2.3484   20.5375 H   0  0  0  0  0  0  0  0  0  0  0  0
   14.0892   -1.2913   21.7887 H   0  0  0  0  0  0  0  0  0  0  0  0
  1  2  1  0
  2  3  1  0
  3  4  2  0
  4  5  1  0
  5  6  2  0
  6  7  1  0
  7  8  2  0
  8  9  1  0
  9 10  1  0
 10 11  2  0
 11 12  1  0
 12 13  1  0
 13 14  1  0
 14 15  1  0
 15 16  1  0
 16 17  1  0
 16 18  1  0
 16 19  1  0
 15 20  1  0
 15 21  1  0
 14 22  1  0
 14 23  1  0
 13 24  1  0
 12 25  2  0
 25 26  1  0
 26 27  1  0
 27 28  2  0
 28 29  1  0
 29 30  2  0
 30 31  1  0
 31 32  2  0
 32 33  1  0
 30 34  1  0
 29 35  1  0
 28 36  1  0
  9 37  1  0
  9 38  1  0
  7 39  1  0
  6 40  1  0
  5 41  1  0
  4 42  1  0
  1 43  1  0
  1 44  1  0
  1 45  1  0
  8  3  1  0
 26 10  1  0
 32 27  1  0
 17 13  1  0
M  END
>  <cnnaffinity>  (1) 
-6.37909

>  <filename>  (1) 
COc1ccccc1Cc1nc(C2CCCO2)nn1-c1cccnc1

$$$$
