
     RDKit          3D

 39 41  0  0  0  0  0  0  0  0999 V2000
    6.9539    1.7507   22.1449 H   0  0  0  0  0  0  0  0  0  0  0  0
    7.3558    0.9584   22.7803 C   0  0  0  0  0  0  0  0  0  0  0  0
    7.6186   -0.2564   22.2870 C   0  0  0  0  0  0  0  0  0  0  0  0
    7.3811   -0.7643   20.9213 C   0  0  0  0  0  0  0  0  0  0  0  0
    6.6491    0.0080   19.9010 C   0  0  0  0  0  0  0  0  0  0  0  0
    7.1678    0.0509   18.6044 C   0  0  0  0  0  0  0  0  0  0  0  0
    8.1113   -0.4386   18.3790 H   0  0  0  0  0  0  0  0  0  0  0  0
    6.5696    0.6769   17.5890 N   0  0  0  0  0  0  0  0  0  0  0  0
    5.4039    1.2923   17.8419 C   0  0  0  0  0  0  0  0  0  0  0  0
    4.9281    1.7811   16.9956 H   0  0  0  0  0  0  0  0  0  0  0  0
    4.8011    1.3104   19.1037 C   0  0  0  0  0  0  0  0  0  0  0  0
    3.8704    1.8438   19.2513 H   0  0  0  0  0  0  0  0  0  0  0  0
    5.4321    0.6592   20.1614 C   0  0  0  0  0  0  0  0  0  0  0  0
    4.9923    0.6390   21.1628 H   0  0  0  0  0  0  0  0  0  0  0  0
    7.8518   -1.9354   20.7075 N   0  0  0  0  0  0  0  0  0  0  0  0
    8.4530   -2.4529   21.9413 C   0  0  0  0  0  0  0  0  0  0  0  0
    7.9575   -3.3883   22.2147 H   0  0  0  0  0  0  0  0  0  0  0  0
    9.5008   -2.6777   21.7331 H   0  0  0  0  0  0  0  0  0  0  0  0
    8.3055   -1.3741   23.0419 C   0  0  0  0  0  0  0  0  0  0  0  0
    7.6903   -1.7211   23.8814 H   0  0  0  0  0  0  0  0  0  0  0  0
    9.2685   -1.0406   23.4486 H   0  0  0  0  0  0  0  0  0  0  0  0
    7.6792    1.4021   24.1856 C   0  0  0  0  0  0  0  0  0  0  0  0
    8.1764    0.6019   24.7433 H   0  0  0  0  0  0  0  0  0  0  0  0
    6.7367    1.6077   24.7082 H   0  0  0  0  0  0  0  0  0  0  0  0
    8.5342    2.6563   24.1889 C   0  0  0  0  0  0  0  0  0  0  0  0
    7.9328    3.9078   24.3470 C   0  0  0  0  0  0  0  0  0  0  0  0
    6.8547    3.9489   24.4939 H   0  0  0  0  0  0  0  0  0  0  0  0
    8.6693    5.0930   24.3081 C   0  0  0  0  0  0  0  0  0  0  0  0
    8.1679    6.0504   24.4373 H   0  0  0  0  0  0  0  0  0  0  0  0
   10.0466    5.0216   24.0993 C   0  0  0  0  0  0  0  0  0  0  0  0
   10.6314    5.9363   24.0687 H   0  0  0  0  0  0  0  0  0  0  0  0
   10.6831    3.7858   23.9205 C   0  0  0  0  0  0  0  0  0  0  0  0
   11.7551    3.7394   23.7459 H   0  0  0  0  0  0  0  0  0  0  0  0
    9.9348    2.6005   23.9566 C   0  0  0  0  0  0  0  0  0  0  0  0
   10.4682    1.3486   23.7741 O   0  0  0  0  0  0  0  0  0  0  0  0
   11.8487    1.1805   23.5086 C   0  0  0  0  0  0  0  0  0  0  0  0
   12.4844    1.5305   24.3325 H   0  0  0  0  0  0  0  0  0  0  0  0
   12.1712    1.6683   22.5785 H   0  0  0  0  0  0  0  0  0  0  0  0
   11.9953    0.1056   23.3973 H   0  0  0  0  0  0  0  0  0  0  0  0
  1  2  1  0
  2  3  2  3
  3  4  1  0
  4  5  1  0
  5  6  2  0
  6  7  1  0
  6  8  1  0
  8  9  2  0
  9 10  1  0
  9 11  1  0
 11 12  1  0
 11 13  2  0
 13 14  1  0
  4 15  2  0
 15 16  1  0
 16 17  1  0
 16 18  1  0
 16 19  1  0
 19 20  1  0
 19 21  1  0
  2 22  1  0
 22 23  1  0
 22 24  1  0
 22 25  1  0
 25 26  2  0
 26 27  1  0
 26 28  1  0
 28 29  1  0
 28 30  2  0
 30 31  1  0
 30 32  1  0
 32 33  1  0
 32 34  2  0
 34 35  1  0
 35 36  1  0
 36 37  1  0
 36 38  1  0
 36 39  1  0
 19  3  1  0
 34 25  1  0
 13  5  1  0
M  END
>  <cnnaffinity>  (1) 
-5.26686

>  <filename>  (1) 
COc1ccccc1CC=C1CCN=C1c1cccnc1

$$$$
