
     RDKit          3D

 39 41  0  0  0  0  0  0  0  0999 V2000
    9.2885    0.4967   23.3053 H   0  0  0  0  0  0  0  0  0  0  0  0
    8.7079   -0.2218   22.7407 C   0  0  0  0  0  0  0  0  0  0  0  0
    9.0228   -1.5224   22.7157 C   0  0  0  0  0  0  0  0  0  0  0  0
   10.0980   -2.1599   23.5551 C   0  0  0  0  0  0  0  0  0  0  0  0
   10.8155   -1.3842   23.8403 H   0  0  0  0  0  0  0  0  0  0  0  0
   10.6423   -2.9073   22.9690 H   0  0  0  0  0  0  0  0  0  0  0  0
    9.4746   -2.7445   24.8137 C   0  0  0  0  0  0  0  0  0  0  0  0
    9.1618   -1.8956   25.8821 C   0  0  0  0  0  0  0  0  0  0  0  0
    9.3840   -0.8326   25.7841 H   0  0  0  0  0  0  0  0  0  0  0  0
    8.5524   -2.3770   27.0412 C   0  0  0  0  0  0  0  0  0  0  0  0
    8.3208   -1.6915   27.8500 H   0  0  0  0  0  0  0  0  0  0  0  0
    8.2554   -3.7380   27.1420 C   0  0  0  0  0  0  0  0  0  0  0  0
    7.8232   -4.1430   28.0528 H   0  0  0  0  0  0  0  0  0  0  0  0
    8.5078   -4.5979   26.0669 C   0  0  0  0  0  0  0  0  0  0  0  0
    8.2794   -5.6554   26.1431 H   0  0  0  0  0  0  0  0  0  0  0  0
    9.0511   -4.0879   24.8777 C   0  0  0  0  0  0  0  0  0  0  0  0
    9.1580   -4.8040   23.7145 O   0  0  0  0  0  0  0  0  0  0  0  0
    8.7610   -6.1608   23.7258 C   0  0  0  0  0  0  0  0  0  0  0  0
    9.4164   -6.7431   24.3853 H   0  0  0  0  0  0  0  0  0  0  0  0
    7.7184   -6.2624   24.0499 H   0  0  0  0  0  0  0  0  0  0  0  0
    8.8558   -6.5170   22.6998 H   0  0  0  0  0  0  0  0  0  0  0  0
    8.2213   -2.3980   22.0024 N   0  0  0  0  0  0  0  0  0  0  0  0
    8.2452   -3.3914   22.1429 H   0  0  0  0  0  0  0  0  0  0  0  0
    7.1803   -2.0400   21.1756 C   0  0  0  0  0  0  0  0  0  0  0  0
    6.4978   -2.8947   20.6569 O   0  0  0  0  0  0  0  0  0  0  0  0
    7.0635   -0.6598   20.9982 N   0  0  0  0  0  0  0  0  0  0  0  0
    6.4720   -0.0736   19.8329 C   0  0  0  0  0  0  0  0  0  0  0  0
    7.0957   -0.0521   18.5647 C   0  0  0  0  0  0  0  0  0  0  0  0
    8.0391   -0.5897   18.4248 H   0  0  0  0  0  0  0  0  0  0  0  0
    6.6014    0.6193   17.5131 N   0  0  0  0  0  0  0  0  0  0  0  0
    5.4605    1.3122   17.6824 C   0  0  0  0  0  0  0  0  0  0  0  0
    5.1034    1.8582   16.8096 H   0  0  0  0  0  0  0  0  0  0  0  0
    4.7531    1.3286   18.8875 C   0  0  0  0  0  0  0  0  0  0  0  0
    3.8600    1.9359   18.9714 H   0  0  0  0  0  0  0  0  0  0  0  0
    5.2666    0.6239   19.9796 C   0  0  0  0  0  0  0  0  0  0  0  0
    4.7746    0.6276   20.9516 H   0  0  0  0  0  0  0  0  0  0  0  0
    7.4304    0.2406   22.1062 C   0  0  0  0  0  0  0  0  0  0  0  0
    7.5604    1.2553   21.7087 H   0  0  0  0  0  0  0  0  0  0  0  0
    6.6220    0.2879   22.8694 H   0  0  0  0  0  0  0  0  0  0  0  0
  1  2  1  0
  2  3  2  0
  3  4  1  0
  4  5  1  0
  4  6  1  0
  4  7  1  0
  7  8  2  0
  8  9  1  0
  8 10  1  0
 10 11  1  0
 10 12  2  0
 12 13  1  0
 12 14  1  0
 14 15  1  0
 14 16  2  0
 16 17  1  0
 17 18  1  0
 18 19  1  0
 18 20  1  0
 18 21  1  0
  3 22  1  0
 22 23  1  0
 22 24  1  0
 24 25  2  0
 24 26  1  0
 26 27  1  0
 27 28  2  0
 28 29  1  0
 28 30  1  0
 30 31  2  0
 31 32  1  0
 31 33  1  0
 33 34  1  0
 33 35  2  0
 35 36  1  0
 26 37  1  0
 37 38  1  0
 37 39  1  0
 37  2  1  0
 16  7  1  0
 35 27  1  0
M  END
>  <cnnaffinity>  (1) 
-5.22389

>  <filename>  (1) 
COc1ccccc1CC1=CCN(c2cccnc2)C(=O)N1

$$$$
