
     RDKit          3D

 45 48  0  0  0  0  0  0  0  0999 V2000
    7.9823    4.9781   27.2760 C   0  0  0  0  0  0  0  0  0  0  0  0
    6.9612    5.5730   26.4841 O   0  0  0  0  0  0  0  0  0  0  0  0
    6.2436    4.8317   25.5990 C   0  0  0  0  0  0  0  0  0  0  0  0
    5.1786    5.5158   24.9874 C   0  0  0  0  0  0  0  0  0  0  0  0
    4.3308    4.8691   24.0926 C   0  0  0  0  0  0  0  0  0  0  0  0
    4.5450    3.5248   23.7701 C   0  0  0  0  0  0  0  0  0  0  0  0
    5.6292    2.8185   24.3092 C   0  0  0  0  0  0  0  0  0  0  0  0
    5.9921    1.4282   23.8380 C   0  0  0  0  0  0  0  0  0  0  0  0
    7.0708    1.4716   22.7265 C   0  0  0  0  0  0  0  0  0  0  0  0
    7.4823    0.1197   22.2528 C   0  0  0  0  0  0  0  0  0  0  0  0
    8.1514   -0.7264   23.0174 N   0  0  0  0  0  0  0  0  0  0  0  0
    8.2982   -1.8161   22.2255 C   0  0  0  0  0  0  0  0  0  0  0  0
    8.9800   -3.0553   22.6922 C   0  0  0  0  0  0  0  0  0  0  0  0
    8.3191   -3.8990   23.8194 C   0  0  0  0  0  0  0  0  0  0  0  0
    9.9619   -4.2881   24.5200 S   0  0  0  0  0  0  0  0  0  0  0  0
   10.3152   -2.8579   23.4464 C   0  0  0  0  0  0  0  0  0  0  0  0
   11.2291   -2.9179   22.8530 H   0  0  0  0  0  0  0  0  0  0  0  0
   10.3370   -1.9415   24.0418 H   0  0  0  0  0  0  0  0  0  0  0  0
    7.7543   -4.7860   23.5187 H   0  0  0  0  0  0  0  0  0  0  0  0
    7.7113   -3.3109   24.5096 H   0  0  0  0  0  0  0  0  0  0  0  0
    9.1115   -3.6962   21.8236 H   0  0  0  0  0  0  0  0  0  0  0  0
    7.7916   -1.7000   21.0169 N   0  0  0  0  0  0  0  0  0  0  0  0
    7.2368   -0.4517   21.0320 N   0  0  0  0  0  0  0  0  0  0  0  0
    6.5753    0.0925   19.8908 C   0  0  0  0  0  0  0  0  0  0  0  0
    5.4218    0.8903   19.9933 C   0  0  0  0  0  0  0  0  0  0  0  0
    4.8879    1.4437   18.8218 C   0  0  0  0  0  0  0  0  0  0  0  0
    5.5132    1.1855   17.6007 C   0  0  0  0  0  0  0  0  0  0  0  0
    6.5937    0.3918   17.4907 N   0  0  0  0  0  0  0  0  0  0  0  0
    7.0964   -0.1500   18.6048 C   0  0  0  0  0  0  0  0  0  0  0  0
    7.9593   -0.8022   18.4893 H   0  0  0  0  0  0  0  0  0  0  0  0
    5.1362    1.6168   16.6743 H   0  0  0  0  0  0  0  0  0  0  0  0
    4.0163    2.0903   18.8500 H   0  0  0  0  0  0  0  0  0  0  0  0
    4.9464    1.0821   20.9551 H   0  0  0  0  0  0  0  0  0  0  0  0
    7.9670    1.9606   23.1232 H   0  0  0  0  0  0  0  0  0  0  0  0
    6.7325    2.1024   21.8989 H   0  0  0  0  0  0  0  0  0  0  0  0
    6.3598    0.8240   24.6759 H   0  0  0  0  0  0  0  0  0  0  0  0
    5.0940    0.9175   23.4663 H   0  0  0  0  0  0  0  0  0  0  0  0
    6.4514    3.4878   25.2283 C   0  0  0  0  0  0  0  0  0  0  0  0
    7.4983    2.7970   25.7548 F   0  0  0  0  0  0  0  0  0  0  0  0
    3.8675    3.0203   23.0857 H   0  0  0  0  0  0  0  0  0  0  0  0
    3.5055    5.4094   23.6369 H   0  0  0  0  0  0  0  0  0  0  0  0
    5.0477    6.5639   25.2421 H   0  0  0  0  0  0  0  0  0  0  0  0
    8.3113    5.7605   27.9616 H   0  0  0  0  0  0  0  0  0  0  0  0
    7.6012    4.1258   27.8480 H   0  0  0  0  0  0  0  0  0  0  0  0
    8.8228    4.6516   26.6563 H   0  0  0  0  0  0  0  0  0  0  0  0
  1  2  1  0
  2  3  1  0
  3  4  2  0
  4  5  1  0
  5  6  2  0
  6  7  1  0
  7  8  1  0
  8  9  1  0
  9 10  1  0
 10 11  2  0
 11 12  1  0
 12 13  1  0
 13 14  1  0
 14 15  1  0
 15 16  1  0
 16 17  1  0
 16 18  1  0
 14 19  1  0
 14 20  1  0
 13 21  1  0
 12 22  2  0
 22 23  1  0
 23 24  1  0
 24 25  2  0
 25 26  1  0
 26 27  2  0
 27 28  1  0
 28 29  2  0
 29 30  1  0
 27 31  1  0
 26 32  1  0
 25 33  1  0
  9 34  1  0
  9 35  1  0
  8 36  1  0
  8 37  1  0
  7 38  2  0
 38 39  1  0
  6 40  1  0
  5 41  1  0
  4 42  1  0
  1 43  1  0
  1 44  1  0
  1 45  1  0
 38  3  1  0
 23 10  1  0
 29 24  1  0
 16 13  1  0
M  END
>  <cnnaffinity>  (1) 
-6.08648

>  <filename>  (1) 
COc1cccc(CCc2nc(C3CSC3)nn2-c2cccnc2)c1F

$$$$
