
     RDKit          3D

 31 33  0  0  0  0  0  0  0  0999 V2000
    4.9849    1.8301   16.9283 H   0  0  0  0  0  0  0  0  0  0  0  0
    5.4263    1.3118   17.7763 C   0  0  0  0  0  0  0  0  0  0  0  0
    6.5799    0.6684   17.5379 N   0  0  0  0  0  0  0  0  0  0  0  0
    7.1546    0.0345   18.5626 C   0  0  0  0  0  0  0  0  0  0  0  0
    8.0846   -0.4866   18.3457 H   0  0  0  0  0  0  0  0  0  0  0  0
    6.6214    0.0106   19.8610 C   0  0  0  0  0  0  0  0  0  0  0  0
    7.3551   -0.7139   20.8926 C   0  0  0  0  0  0  0  0  0  0  0  0
    8.3605   -1.5363   20.7027 N   0  0  0  0  0  0  0  0  0  0  0  0
    8.7244   -1.9692   21.9480 C   0  0  0  0  0  0  0  0  0  0  0  0
    9.5602   -2.6437   22.0940 H   0  0  0  0  0  0  0  0  0  0  0  0
    7.9353   -1.4067   22.9162 C   0  0  0  0  0  0  0  0  0  0  0  0
    7.9164   -1.4634   24.4165 C   0  0  0  0  0  0  0  0  0  0  0  0
    6.8935   -1.4039   24.8008 H   0  0  0  0  0  0  0  0  0  0  0  0
    8.3478   -2.4203   24.7318 H   0  0  0  0  0  0  0  0  0  0  0  0
    8.6937   -0.3954   25.0463 N   0  0  0  0  0  0  0  0  0  0  0  0
    8.1919    0.8942   25.3064 N   0  0  0  0  0  0  0  0  0  0  0  0
    9.2751    1.5881   25.3623 C   0  0  0  0  0  0  0  0  0  0  0  0
    9.4807    2.8670   25.5930 O   0  0  0  0  0  0  0  0  0  0  0  0
    8.3926    3.7135   25.9786 C   0  0  0  0  0  0  0  0  0  0  0  0
    7.7173    3.8985   25.1373 H   0  0  0  0  0  0  0  0  0  0  0  0
    7.8291    3.2906   26.8178 H   0  0  0  0  0  0  0  0  0  0  0  0
    8.8611    4.6506   26.2836 H   0  0  0  0  0  0  0  0  0  0  0  0
   10.4253    0.9317   25.1314 O   0  0  0  0  0  0  0  0  0  0  0  0
   10.0499   -0.3676   24.8986 C   0  0  0  0  0  0  0  0  0  0  0  0
   10.7842   -1.2732   24.6190 O   0  0  0  0  0  0  0  0  0  0  0  0
    7.0546   -0.6137   22.2168 N   0  0  0  0  0  0  0  0  0  0  0  0
    6.4974    0.1233   22.6146 H   0  0  0  0  0  0  0  0  0  0  0  0
    5.4042    0.6728   20.0929 C   0  0  0  0  0  0  0  0  0  0  0  0
    4.9272    0.6615   21.0766 H   0  0  0  0  0  0  0  0  0  0  0  0
    4.8000    1.3333   19.0284 C   0  0  0  0  0  0  0  0  0  0  0  0
    3.8689    1.8746   19.1567 H   0  0  0  0  0  0  0  0  0  0  0  0
  1  2  1  0
  2  3  2  0
  3  4  1  0
  4  5  1  0
  4  6  2  0
  6  7  1  0
  7  8  2  0
  8  9  1  0
  9 10  1  0
  9 11  2  0
 11 12  1  0
 12 13  1  0
 12 14  1  0
 12 15  1  0
 15 16  1  0
 16 17  2  0
 17 18  1  0
 18 19  1  0
 19 20  1  0
 19 21  1  0
 19 22  1  0
 17 23  1  0
 23 24  1  0
 24 25  2  0
 11 26  1  0
 26 27  1  0
  6 28  1  0
 28 29  1  0
 28 30  2  0
 30 31  1  0
 30  2  1  0
 26  7  1  0
 24 15  1  0
M  END
>  <cnnaffinity>  (1) 
-5.04454

>  <filename>  (1) 
COc1nn(Cc2cnc(-c3cccnc3)[nH]2)c(=O)o1

$$$$
