
     RDKit          3D

 47 50  0  0  0  0  0  0  0  0999 V2000
   11.0629   -2.2222   21.7335 C   0  0  0  0  0  0  0  0  0  0  0  0
   10.6600   -0.8747   21.7067 O   0  0  0  0  0  0  0  0  0  0  0  0
   11.6109    0.0960   21.8813 C   0  0  0  0  0  0  0  0  0  0  0  0
   12.9123   -0.1642   22.3273 C   0  0  0  0  0  0  0  0  0  0  0  0
   13.7453    0.9036   22.6704 C   0  0  0  0  0  0  0  0  0  0  0  0
   13.2901    2.2171   22.5313 C   0  0  0  0  0  0  0  0  0  0  0  0
   12.0301    2.4715   21.9607 C   0  0  0  0  0  0  0  0  0  0  0  0
   11.1833    1.4127   21.6100 C   0  0  0  0  0  0  0  0  0  0  0  0
    9.7737    1.6099   21.0617 C   0  0  0  0  0  0  0  0  0  0  0  0
    8.7434    1.2530   22.0840 C   0  0  0  0  0  0  0  0  0  0  0  0
    8.6741    1.9185   23.2127 N   0  0  0  0  0  0  0  0  0  0  0  0
    7.6677    1.3133   23.8866 C   0  0  0  0  0  0  0  0  0  0  0  0
    7.2261    1.8130   25.2014 C   0  0  0  0  0  0  0  0  0  0  0  0
    6.0895    1.2835   25.8414 C   0  0  0  0  0  0  0  0  0  0  0  0
    5.7004    1.7824   27.0848 C   0  0  0  0  0  0  0  0  0  0  0  0
    6.4277    2.8123   27.6946 C   0  0  0  0  0  0  0  0  0  0  0  0
    7.5459    3.3554   27.0525 C   0  0  0  0  0  0  0  0  0  0  0  0
    7.9442    2.8616   25.8126 C   0  0  0  0  0  0  0  0  0  0  0  0
    8.8084    3.2794   25.2979 H   0  0  0  0  0  0  0  0  0  0  0  0
    8.1127    4.1586   27.5146 H   0  0  0  0  0  0  0  0  0  0  0  0
    6.1295    3.1857   28.6694 H   0  0  0  0  0  0  0  0  0  0  0  0
    4.8337    1.3598   27.5838 H   0  0  0  0  0  0  0  0  0  0  0  0
    5.5223    0.4875   25.3590 H   0  0  0  0  0  0  0  0  0  0  0  0
    7.1187    0.3027   23.2298 N   0  0  0  0  0  0  0  0  0  0  0  0
    7.8182    0.2627   22.0738 N   0  0  0  0  0  0  0  0  0  0  0  0
    7.4144   -0.6676   21.0220 C   0  0  0  0  0  0  0  0  0  0  0  0
    6.6766    0.0010   19.8803 C   0  0  0  0  0  0  0  0  0  0  0  0
    5.4580    0.6484   20.1297 C   0  0  0  0  0  0  0  0  0  0  0  0
    4.8253    1.3020   19.0727 C   0  0  0  0  0  0  0  0  0  0  0  0
    5.4262    1.2898   17.8101 C   0  0  0  0  0  0  0  0  0  0  0  0
    6.5763    0.6525   17.5455 N   0  0  0  0  0  0  0  0  0  0  0  0
    7.1740    0.0266   18.5684 C   0  0  0  0  0  0  0  0  0  0  0  0
    8.1032   -0.4920   18.3240 H   0  0  0  0  0  0  0  0  0  0  0  0
    4.9594    1.8089   16.9756 H   0  0  0  0  0  0  0  0  0  0  0  0
    3.8908    1.8309   19.2176 H   0  0  0  0  0  0  0  0  0  0  0  0
    5.0249    0.6547   21.1341 H   0  0  0  0  0  0  0  0  0  0  0  0
    8.2984   -1.2160   20.6812 H   0  0  0  0  0  0  0  0  0  0  0  0
    6.7583   -1.3896   21.5162 H   0  0  0  0  0  0  0  0  0  0  0  0
    9.6137    0.9818   20.1815 H   0  0  0  0  0  0  0  0  0  0  0  0
    9.6026    2.6603   20.8050 H   0  0  0  0  0  0  0  0  0  0  0  0
   11.7238    3.5046   21.7762 H   0  0  0  0  0  0  0  0  0  0  0  0
   13.9493    3.0355   22.7965 H   0  0  0  0  0  0  0  0  0  0  0  0
   14.7561    0.6940   23.0128 H   0  0  0  0  0  0  0  0  0  0  0  0
   13.2657   -1.1872   22.4053 H   0  0  0  0  0  0  0  0  0  0  0  0
   11.9223   -2.3665   21.0668 H   0  0  0  0  0  0  0  0  0  0  0  0
   11.3386   -2.5694   22.7380 H   0  0  0  0  0  0  0  0  0  0  0  0
   10.2008   -2.7924   21.3858 H   0  0  0  0  0  0  0  0  0  0  0  0
  1  2  1  0
  2  3  1  0
  3  4  2  0
  4  5  1  0
  5  6  2  0
  6  7  1  0
  7  8  2  0
  8  9  1  0
  9 10  1  0
 10 11  2  0
 11 12  1  0
 12 13  1  0
 13 14  2  0
 14 15  1  0
 15 16  2  0
 16 17  1  0
 17 18  2  0
 18 19  1  0
 17 20  1  0
 16 21  1  0
 15 22  1  0
 14 23  1  0
 12 24  2  0
 24 25  1  0
 25 26  1  0
 26 27  1  0
 27 28  2  0
 28 29  1  0
 29 30  2  0
 30 31  1  0
 31 32  2  0
 32 33  1  0
 30 34  1  0
 29 35  1  0
 28 36  1  0
 26 37  1  0
 26 38  1  0
  9 39  1  0
  9 40  1  0
  7 41  1  0
  6 42  1  0
  5 43  1  0
  4 44  1  0
  1 45  1  0
  1 46  1  0
  1 47  1  0
  8  3  1  0
 25 10  1  0
 32 27  1  0
 18 13  1  0
M  END
>  <cnnaffinity>  (1) 
-6.11004

>  <filename>  (1) 
COc1ccccc1Cc1nc(-c2ccccc2)nn1Cc1cccnc1

$$$$
