
     RDKit          3D

 44 47  0  0  0  0  0  0  0  0999 V2000
    3.5780    3.6344   22.1858 C   0  0  0  0  0  0  0  0  0  0  0  0
    4.5634    2.8421   22.8128 O   0  0  0  0  0  0  0  0  0  0  0  0
    5.3104    3.3692   23.8295 C   0  0  0  0  0  0  0  0  0  0  0  0
    5.1684    4.6808   24.3112 C   0  0  0  0  0  0  0  0  0  0  0  0
    5.9948    5.1355   25.3487 C   0  0  0  0  0  0  0  0  0  0  0  0
    6.9612    4.2934   25.8974 C   0  0  0  0  0  0  0  0  0  0  0  0
    7.0907    2.9891   25.4129 C   0  0  0  0  0  0  0  0  0  0  0  0
    6.2670    2.4985   24.3969 C   0  0  0  0  0  0  0  0  0  0  0  0
    6.4852    1.1109   23.8566 C   0  0  0  0  0  0  0  0  0  0  0  0
    7.4959    1.1370   22.6910 C   0  0  0  0  0  0  0  0  0  0  0  0
    7.7418   -0.2119   22.1291 C   0  0  0  0  0  0  0  0  0  0  0  0
    8.3737   -1.1610   22.7863 N   0  0  0  0  0  0  0  0  0  0  0  0
    8.3416   -2.1968   21.9185 C   0  0  0  0  0  0  0  0  0  0  0  0
    8.9532   -3.4889   22.2698 C   0  0  0  0  0  0  0  0  0  0  0  0
    8.1868   -4.7746   22.0662 C   0  0  0  0  0  0  0  0  0  0  0  0
    8.5110   -4.3059   23.4602 C   0  0  0  0  0  0  0  0  0  0  0  0
    7.7328   -3.9111   24.1134 H   0  0  0  0  0  0  0  0  0  0  0  0
    9.2972   -4.8294   24.0057 H   0  0  0  0  0  0  0  0  0  0  0  0
    7.1703   -4.6415   21.6944 H   0  0  0  0  0  0  0  0  0  0  0  0
    8.6727   -5.6557   21.6470 H   0  0  0  0  0  0  0  0  0  0  0  0
   10.0270   -3.3858   22.1532 H   0  0  0  0  0  0  0  0  0  0  0  0
    7.7801   -1.9444   20.7514 N   0  0  0  0  0  0  0  0  0  0  0  0
    7.3601   -0.6646   20.9024 N   0  0  0  0  0  0  0  0  0  0  0  0
    6.6371    0.0045   19.8852 C   0  0  0  0  0  0  0  0  0  0  0  0
    5.4311    0.6630   20.1509 C   0  0  0  0  0  0  0  0  0  0  0  0
    4.7968    1.3129   19.0889 C   0  0  0  0  0  0  0  0  0  0  0  0
    5.3965    1.2962   17.8256 C   0  0  0  0  0  0  0  0  0  0  0  0
    6.5564    0.6624   17.5721 N   0  0  0  0  0  0  0  0  0  0  0  0
    7.1551    0.0275   18.5806 C   0  0  0  0  0  0  0  0  0  0  0  0
    8.1007   -0.4659   18.3698 H   0  0  0  0  0  0  0  0  0  0  0  0
    4.9409    1.8061   16.9819 H   0  0  0  0  0  0  0  0  0  0  0  0
    3.8613    1.8432   19.2293 H   0  0  0  0  0  0  0  0  0  0  0  0
    5.0167    0.6753   21.1621 H   0  0  0  0  0  0  0  0  0  0  0  0
    8.4619    1.5018   23.0601 H   0  0  0  0  0  0  0  0  0  0  0  0
    7.1643    1.8370   21.9173 H   0  0  0  0  0  0  0  0  0  0  0  0
    6.8702    0.4522   24.6462 H   0  0  0  0  0  0  0  0  0  0  0  0
    5.5342    0.6777   23.5204 H   0  0  0  0  0  0  0  0  0  0  0  0
    7.8510    2.3231   25.8156 H   0  0  0  0  0  0  0  0  0  0  0  0
    7.6157    4.6346   26.6938 H   0  0  0  0  0  0  0  0  0  0  0  0
    5.8780    6.1507   25.7229 H   0  0  0  0  0  0  0  0  0  0  0  0
    4.4204    5.3289   23.8678 H   0  0  0  0  0  0  0  0  0  0  0  0
    4.0122    4.5173   21.6957 H   0  0  0  0  0  0  0  0  0  0  0  0
    3.1324    2.9793   21.4365 H   0  0  0  0  0  0  0  0  0  0  0  0
    2.8070    3.9631   22.8967 H   0  0  0  0  0  0  0  0  0  0  0  0
  1  2  1  0
  2  3  1  0
  3  4  2  0
  4  5  1  0
  5  6  2  0
  6  7  1  0
  7  8  2  0
  8  9  1  0
  9 10  1  0
 10 11  1  0
 11 12  2  0
 12 13  1  0
 13 14  1  0
 14 15  1  0
 15 16  1  0
 16 17  1  0
 16 18  1  0
 15 19  1  0
 15 20  1  0
 14 21  1  0
 13 22  2  0
 22 23  1  0
 23 24  1  0
 24 25  2  0
 25 26  1  0
 26 27  2  0
 27 28  1  0
 28 29  2  0
 29 30  1  0
 27 31  1  0
 26 32  1  0
 25 33  1  0
 10 34  1  0
 10 35  1  0
  9 36  1  0
  9 37  1  0
  7 38  1  0
  6 39  1  0
  5 40  1  0
  4 41  1  0
  1 42  1  0
  1 43  1  0
  1 44  1  0
  8  3  1  0
 23 11  1  0
 29 24  1  0
 16 14  1  0
M  END
>  <cnnaffinity>  (1) 
-5.81894

>  <filename>  (1) 
COc1ccccc1CCc1nc(C2CC2)nn1-c1cccnc1

$$$$
