
     RDKit          3D

 37 39  0  0  0  0  0  0  0  0999 V2000
    4.9177    1.8091   16.9894 H   0  0  0  0  0  0  0  0  0  0  0  0
    5.3930    1.3032   17.8277 C   0  0  0  0  0  0  0  0  0  0  0  0
    6.5517    0.6796   17.5656 N   0  0  0  0  0  0  0  0  0  0  0  0
    7.1733    0.0593   18.5774 C   0  0  0  0  0  0  0  0  0  0  0  0
    8.1111   -0.4364   18.3279 H   0  0  0  0  0  0  0  0  0  0  0  0
    6.6746    0.0135   19.8979 C   0  0  0  0  0  0  0  0  0  0  0  0
    7.3466   -0.6602   20.9696 N   0  0  0  0  0  0  0  0  0  0  0  0
    6.8205   -1.6210   21.7986 C   0  0  0  0  0  0  0  0  0  0  0  0
    5.8068   -1.9817   21.7101 H   0  0  0  0  0  0  0  0  0  0  0  0
    7.7037   -2.0452   22.6569 N   0  0  0  0  0  0  0  0  0  0  0  0
    8.8582   -1.3406   22.4270 N   0  0  0  0  0  0  0  0  0  0  0  0
    8.6387   -0.5094   21.4401 C   0  0  0  0  0  0  0  0  0  0  0  0
    9.5608    0.5540   20.9330 C   0  0  0  0  0  0  0  0  0  0  0  0
   10.5558    0.3657   21.3445 H   0  0  0  0  0  0  0  0  0  0  0  0
    9.6208    0.4538   19.8465 H   0  0  0  0  0  0  0  0  0  0  0  0
    9.1033    1.9910   21.2830 C   0  0  0  0  0  0  0  0  0  0  0  0
    8.1573    2.2117   20.7686 H   0  0  0  0  0  0  0  0  0  0  0  0
    9.8498    2.6887   20.8928 H   0  0  0  0  0  0  0  0  0  0  0  0
    8.9513    2.1847   22.7733 C   0  0  0  0  0  0  0  0  0  0  0  0
    7.6978    2.0589   23.3839 C   0  0  0  0  0  0  0  0  0  0  0  0
    6.8363    1.8422   22.7460 H   0  0  0  0  0  0  0  0  0  0  0  0
    7.5590    2.1404   24.7730 C   0  0  0  0  0  0  0  0  0  0  0  0
    6.5782    2.0292   25.2181 H   0  0  0  0  0  0  0  0  0  0  0  0
    8.6932    2.2857   25.5762 C   0  0  0  0  0  0  0  0  0  0  0  0
    8.5934    2.3740   26.6558 H   0  0  0  0  0  0  0  0  0  0  0  0
    9.9668    2.3038   24.9965 C   0  0  0  0  0  0  0  0  0  0  0  0
   10.8686    2.2151   25.5880 H   0  0  0  0  0  0  0  0  0  0  0  0
   10.0901    2.3149   23.6011 C   0  0  0  0  0  0  0  0  0  0  0  0
   11.2924    2.3979   22.9565 O   0  0  0  0  0  0  0  0  0  0  0  0
   12.4719    2.6502   23.6850 C   0  0  0  0  0  0  0  0  0  0  0  0
   12.4077    3.6148   24.2068 H   0  0  0  0  0  0  0  0  0  0  0  0
   12.6757    1.8556   24.4167 H   0  0  0  0  0  0  0  0  0  0  0  0
   13.2729    2.6752   22.9431 H   0  0  0  0  0  0  0  0  0  0  0  0
    5.4584    0.6544   20.1484 C   0  0  0  0  0  0  0  0  0  0  0  0
    5.0423    0.6282   21.1555 H   0  0  0  0  0  0  0  0  0  0  0  0
    4.8101    1.3142   19.0985 C   0  0  0  0  0  0  0  0  0  0  0  0
    3.8740    1.8403   19.2519 H   0  0  0  0  0  0  0  0  0  0  0  0
  1  2  1  0
  2  3  2  0
  3  4  1  0
  4  5  1  0
  4  6  2  0
  6  7  1  0
  7  8  1  0
  8  9  1  0
  8 10  2  0
 10 11  1  0
 11 12  2  0
 12 13  1  0
 13 14  1  0
 13 15  1  0
 13 16  1  0
 16 17  1  0
 16 18  1  0
 16 19  1  0
 19 20  2  0
 20 21  1  0
 20 22  1  0
 22 23  1  0
 22 24  2  0
 24 25  1  0
 24 26  1  0
 26 27  1  0
 26 28  2  0
 28 29  1  0
 29 30  1  0
 30 31  1  0
 30 32  1  0
 30 33  1  0
  6 34  1  0
 34 35  1  0
 34 36  2  0
 36 37  1  0
 36  2  1  0
 12  7  1  0
 28 19  1  0
M  END
>  <cnnaffinity>  (1) 
-5.19372

>  <filename>  (1) 
COc1ccccc1CCc1nncn1-c1cccnc1

$$$$
