
     RDKit          3D

 48 52  0  0  0  0  0  0  0  0999 V2000
    6.8029    1.2591   27.2481 C   0  0  0  0  0  0  0  0  0  0  0  0
    6.7977    1.4015   25.8376 O   0  0  0  0  0  0  0  0  0  0  0  0
    7.9696    1.6502   25.1931 C   0  0  0  0  0  0  0  0  0  0  0  0
    9.2089    1.7539   25.8296 C   0  0  0  0  0  0  0  0  0  0  0  0
   10.3799    1.9617   25.0946 C   0  0  0  0  0  0  0  0  0  0  0  0
   10.3153    2.1080   23.7151 C   0  0  0  0  0  0  0  0  0  0  0  0
    9.0873    2.0136   23.0319 C   0  0  0  0  0  0  0  0  0  0  0  0
    9.0681    2.0041   21.5165 C   0  0  0  0  0  0  0  0  0  0  0  0
    9.4987    0.6256   20.9512 C   0  0  0  0  0  0  0  0  0  0  0  0
    8.6176   -0.5094   21.3719 C   0  0  0  0  0  0  0  0  0  0  0  0
    8.8681   -1.3809   22.3241 N   0  0  0  0  0  0  0  0  0  0  0  0
    7.6657   -2.0045   22.5012 C   0  0  0  0  0  0  0  0  0  0  0  0
    7.5367   -2.9067   23.6781 C   0  0  0  0  0  0  0  0  0  0  0  0
    8.4350   -4.0981   23.7136 C   0  0  0  0  0  0  0  0  0  0  0  0
    6.8964   -4.3103   23.7375 C   0  0  0  0  0  0  0  0  0  0  0  0
    6.2869   -5.6714   24.0776 C   0  0  0  0  0  0  0  0  0  0  0  0
    5.4312   -4.4475   24.1289 C   0  0  0  0  0  0  0  0  0  0  0  0
    4.6981   -4.3364   23.3294 H   0  0  0  0  0  0  0  0  0  0  0  0
    5.1334   -4.0405   25.0981 H   0  0  0  0  0  0  0  0  0  0  0  0
    6.1149   -6.3619   23.2539 H   0  0  0  0  0  0  0  0  0  0  0  0
    6.6087   -6.1194   25.0196 H   0  0  0  0  0  0  0  0  0  0  0  0
    8.9936   -4.3381   24.6256 H   0  0  0  0  0  0  0  0  0  0  0  0
    8.9677   -4.3228   22.7842 H   0  0  0  0  0  0  0  0  0  0  0  0
    7.4140   -2.3304   24.5998 H   0  0  0  0  0  0  0  0  0  0  0  0
    6.7121   -1.6167   21.6786 N   0  0  0  0  0  0  0  0  0  0  0  0
    7.3374   -0.6699   20.9228 N   0  0  0  0  0  0  0  0  0  0  0  0
    6.6484   -0.0045   19.8736 C   0  0  0  0  0  0  0  0  0  0  0  0
    5.4394    0.6443   20.1375 C   0  0  0  0  0  0  0  0  0  0  0  0
    4.8092    1.3211   19.0900 C   0  0  0  0  0  0  0  0  0  0  0  0
    5.3968    1.3110   17.8192 C   0  0  0  0  0  0  0  0  0  0  0  0
    6.5423    0.6648   17.5501 N   0  0  0  0  0  0  0  0  0  0  0  0
    7.1469    0.0262   18.5576 C   0  0  0  0  0  0  0  0  0  0  0  0
    8.0766   -0.4853   18.3124 H   0  0  0  0  0  0  0  0  0  0  0  0
    4.9304    1.8315   16.9848 H   0  0  0  0  0  0  0  0  0  0  0  0
    3.8782    1.8540   19.2461 H   0  0  0  0  0  0  0  0  0  0  0  0
    5.0254    0.6079   21.1458 H   0  0  0  0  0  0  0  0  0  0  0  0
    9.5313    0.6646   19.8629 H   0  0  0  0  0  0  0  0  0  0  0  0
   10.5099    0.3836   21.2904 H   0  0  0  0  0  0  0  0  0  0  0  0
    8.0755    2.2766   21.1419 H   0  0  0  0  0  0  0  0  0  0  0  0
    9.7634    2.7655   21.1502 H   0  0  0  0  0  0  0  0  0  0  0  0
    7.9332    1.7878   23.7878 C   0  0  0  0  0  0  0  0  0  0  0  0
    6.7397    1.6859   23.1557 F   0  0  0  0  0  0  0  0  0  0  0  0
   11.2236    2.2887   23.1419 H   0  0  0  0  0  0  0  0  0  0  0  0
   11.3412    1.9825   25.5988 H   0  0  0  0  0  0  0  0  0  0  0  0
    9.2269    1.6632   26.9036 H   0  0  0  0  0  0  0  0  0  0  0  0
    7.4502    0.4313   27.5705 H   0  0  0  0  0  0  0  0  0  0  0  0
    5.7716    1.0443   27.5291 H   0  0  0  0  0  0  0  0  0  0  0  0
    7.1353    2.1835   27.7397 H   0  0  0  0  0  0  0  0  0  0  0  0
  1  2  1  0
  2  3  1  0
  3  4  2  0
  4  5  1  0
  5  6  2  0
  6  7  1  0
  7  8  1  0
  8  9  1  0
  9 10  1  0
 10 11  2  0
 11 12  1  0
 12 13  1  0
 13 14  1  0
 14 15  1  0
 15 16  1  0
 16 17  1  0
 17 18  1  0
 17 19  1  0
 16 20  1  0
 16 21  1  0
 14 22  1  0
 14 23  1  0
 13 24  1  0
 12 25  2  0
 25 26  1  0
 26 27  1  0
 27 28  2  0
 28 29  1  0
 29 30  2  0
 30 31  1  0
 31 32  2  0
 32 33  1  0
 30 34  1  0
 29 35  1  0
 28 36  1  0
  9 37  1  0
  9 38  1  0
  8 39  1  0
  8 40  1  0
  7 41  2  0
 41 42  1  0
  6 43  1  0
  5 44  1  0
  4 45  1  0
  1 46  1  0
  1 47  1  0
  1 48  1  0
 41  3  1  0
 26 10  1  0
 32 27  1  0
 15 13  1  0
 17 15  1  0
M  END
>  <cnnaffinity>  (1) 
-6.32063

>  <filename>  (1) 
COc1cccc(CCc2nc(C3CC34CC4)nn2-c2cccnc2)c1F

$$$$
