
     RDKit          3D

 46 49  0  0  0  0  0  0  0  0999 V2000
   12.4520    2.5525   23.7742 C   0  0  0  0  0  0  0  0  0  0  0  0
   11.2656    2.2881   23.0641 O   0  0  0  0  0  0  0  0  0  0  0  0
   10.0809    2.1928   23.7390 C   0  0  0  0  0  0  0  0  0  0  0  0
    9.9827    2.1185   25.1369 C   0  0  0  0  0  0  0  0  0  0  0  0
    8.7251    1.9990   25.7413 C   0  0  0  0  0  0  0  0  0  0  0  0
    7.5798    1.8675   24.9520 C   0  0  0  0  0  0  0  0  0  0  0  0
    7.6967    1.9013   23.5581 C   0  0  0  0  0  0  0  0  0  0  0  0
    8.9297    2.0997   22.9275 C   0  0  0  0  0  0  0  0  0  0  0  0
    9.0562    2.0175   21.4212 C   0  0  0  0  0  0  0  0  0  0  0  0
    9.5348    0.6145   20.9604 C   0  0  0  0  0  0  0  0  0  0  0  0
    8.6422   -0.4940   21.4109 C   0  0  0  0  0  0  0  0  0  0  0  0
    8.8576   -1.3352   22.3978 N   0  0  0  0  0  0  0  0  0  0  0  0
    7.6469   -1.9588   22.5668 C   0  0  0  0  0  0  0  0  0  0  0  0
    7.4018   -2.9626   23.6737 C   0  0  0  0  0  0  0  0  0  0  0  0
    8.4141   -3.2370   24.6221 C   0  0  0  0  0  0  0  0  0  0  0  0
    8.1708   -4.1683   25.6323 C   0  0  0  0  0  0  0  0  0  0  0  0
    6.9236   -4.7971   25.6765 C   0  0  0  0  0  0  0  0  0  0  0  0
    5.9771   -4.4619   24.7026 C   0  0  0  0  0  0  0  0  0  0  0  0
    6.2017   -3.5805   23.7289 N   0  0  0  0  0  0  0  0  0  0  0  0
    4.9871   -4.9190   24.6940 H   0  0  0  0  0  0  0  0  0  0  0  0
    6.6732   -5.5282   26.4358 H   0  0  0  0  0  0  0  0  0  0  0  0
    8.9424   -4.4006   26.3687 H   0  0  0  0  0  0  0  0  0  0  0  0
    9.3611   -2.7155   24.5373 H   0  0  0  0  0  0  0  0  0  0  0  0
    6.7183   -1.5590   21.7078 N   0  0  0  0  0  0  0  0  0  0  0  0
    7.3652   -0.6484   20.9451 N   0  0  0  0  0  0  0  0  0  0  0  0
    6.6732    0.0189   19.8947 C   0  0  0  0  0  0  0  0  0  0  0  0
    5.4522    0.6459   20.1537 C   0  0  0  0  0  0  0  0  0  0  0  0
    4.8126    1.3113   19.1054 C   0  0  0  0  0  0  0  0  0  0  0  0
    5.3969    1.2973   17.8344 C   0  0  0  0  0  0  0  0  0  0  0  0
    6.5518    0.6683   17.5711 N   0  0  0  0  0  0  0  0  0  0  0  0
    7.1731    0.0507   18.5830 C   0  0  0  0  0  0  0  0  0  0  0  0
    8.1112   -0.4482   18.3448 H   0  0  0  0  0  0  0  0  0  0  0  0
    4.9263    1.8026   16.9940 H   0  0  0  0  0  0  0  0  0  0  0  0
    3.8784    1.8378   19.2587 H   0  0  0  0  0  0  0  0  0  0  0  0
    5.0265    0.5842   21.1556 H   0  0  0  0  0  0  0  0  0  0  0  0
    9.5777    0.5956   19.8717 H   0  0  0  0  0  0  0  0  0  0  0  0
   10.5439    0.4239   21.3379 H   0  0  0  0  0  0  0  0  0  0  0  0
    9.7747    2.7606   21.0607 H   0  0  0  0  0  0  0  0  0  0  0  0
    8.0903    2.2574   20.9583 H   0  0  0  0  0  0  0  0  0  0  0  0
    6.8299    1.7199   22.9229 H   0  0  0  0  0  0  0  0  0  0  0  0
    6.6074    1.6957   25.4039 H   0  0  0  0  0  0  0  0  0  0  0  0
    8.6459    1.9879   26.8273 H   0  0  0  0  0  0  0  0  0  0  0  0
   10.8909    2.0744   25.7256 H   0  0  0  0  0  0  0  0  0  0  0  0
   13.2401    2.6379   23.0218 H   0  0  0  0  0  0  0  0  0  0  0  0
   12.3561    3.4910   24.3370 H   0  0  0  0  0  0  0  0  0  0  0  0
   12.6921    1.7314   24.4632 H   0  0  0  0  0  0  0  0  0  0  0  0
  1  2  1  0
  2  3  1  0
  3  4  2  0
  4  5  1  0
  5  6  2  0
  6  7  1  0
  7  8  2  0
  8  9  1  0
  9 10  1  0
 10 11  1  0
 11 12  2  0
 12 13  1  0
 13 14  1  0
 14 15  2  0
 15 16  1  0
 16 17  2  0
 17 18  1  0
 18 19  2  0
 18 20  1  0
 17 21  1  0
 16 22  1  0
 15 23  1  0
 13 24  2  0
 24 25  1  0
 25 26  1  0
 26 27  2  0
 27 28  1  0
 28 29  2  0
 29 30  1  0
 30 31  2  0
 31 32  1  0
 29 33  1  0
 28 34  1  0
 27 35  1  0
 10 36  1  0
 10 37  1  0
  9 38  1  0
  9 39  1  0
  7 40  1  0
  6 41  1  0
  5 42  1  0
  4 43  1  0
  1 44  1  0
  1 45  1  0
  1 46  1  0
  8  3  1  0
 25 11  1  0
 31 26  1  0
 19 14  1  0
M  END
>  <cnnaffinity>  (1) 
-5.92609

>  <filename>  (1) 
COc1ccccc1CCc1nc(-c2ccccn2)nn1-c1cccnc1

$$$$
