
     RDKit          3D

 46 49  0  0  0  0  0  0  0  0999 V2000
   10.2835    1.2000   25.4899 C   0  0  0  0  0  0  0  0  0  0  0  0
    9.9792    1.0670   24.1148 O   0  0  0  0  0  0  0  0  0  0  0  0
    9.2875    2.0324   23.4606 C   0  0  0  0  0  0  0  0  0  0  0  0
    8.8759    3.2437   24.0302 C   0  0  0  0  0  0  0  0  0  0  0  0
    8.0175    4.0591   23.2958 C   0  0  0  0  0  0  0  0  0  0  0  0
    7.5901    3.7531   22.0712 N   0  0  0  0  0  0  0  0  0  0  0  0
    8.0811    2.6399   21.5063 C   0  0  0  0  0  0  0  0  0  0  0  0
    8.9810    1.7683   22.1125 C   0  0  0  0  0  0  0  0  0  0  0  0
    9.5305    0.5449   21.3827 C   0  0  0  0  0  0  0  0  0  0  0  0
    8.6542   -0.6589   21.5635 C   0  0  0  0  0  0  0  0  0  0  0  0
    8.8564   -1.6180   22.4403 N   0  0  0  0  0  0  0  0  0  0  0  0
    7.6334   -2.2002   22.5431 C   0  0  0  0  0  0  0  0  0  0  0  0
    7.3844   -3.2100   23.6005 C   0  0  0  0  0  0  0  0  0  0  0  0
    6.1096   -3.2246   24.4026 C   0  0  0  0  0  0  0  0  0  0  0  0
    7.3943   -2.7949   25.0623 C   0  0  0  0  0  0  0  0  0  0  0  0
    7.6133   -1.3280   25.3951 C   0  0  0  0  0  0  0  0  0  0  0  0
    7.1517   -0.6571   24.6632 H   0  0  0  0  0  0  0  0  0  0  0  0
    7.2253   -1.0714   26.3865 H   0  0  0  0  0  0  0  0  0  0  0  0
    8.6865   -1.1003   25.3873 H   0  0  0  0  0  0  0  0  0  0  0  0
    8.0651   -3.7440   26.0370 C   0  0  0  0  0  0  0  0  0  0  0  0
    7.9208   -4.7913   25.7514 H   0  0  0  0  0  0  0  0  0  0  0  0
    9.1453   -3.5550   26.0782 H   0  0  0  0  0  0  0  0  0  0  0  0
    7.6665   -3.6211   27.0517 H   0  0  0  0  0  0  0  0  0  0  0  0
    5.3696   -2.4624   24.1629 H   0  0  0  0  0  0  0  0  0  0  0  0
    5.6893   -4.1942   24.6684 H   0  0  0  0  0  0  0  0  0  0  0  0
    7.8531   -4.1595   23.3571 H   0  0  0  0  0  0  0  0  0  0  0  0
    6.7234   -1.7382   21.7091 N   0  0  0  0  0  0  0  0  0  0  0  0
    7.3967   -0.7618   21.0374 N   0  0  0  0  0  0  0  0  0  0  0  0
    6.7483   -0.0655   19.9719 C   0  0  0  0  0  0  0  0  0  0  0  0
    5.5272    0.5757   20.1998 C   0  0  0  0  0  0  0  0  0  0  0  0
    4.9302    1.2546   19.1355 C   0  0  0  0  0  0  0  0  0  0  0  0
    5.5517    1.2419   17.8806 C   0  0  0  0  0  0  0  0  0  0  0  0
    6.7020    0.5967   17.6418 N   0  0  0  0  0  0  0  0  0  0  0  0
    7.2850   -0.0359   18.6698 C   0  0  0  0  0  0  0  0  0  0  0  0
    8.2118   -0.5593   18.4444 H   0  0  0  0  0  0  0  0  0  0  0  0
    5.1050    1.7689   17.0408 H   0  0  0  0  0  0  0  0  0  0  0  0
    4.0038    1.7973   19.2703 H   0  0  0  0  0  0  0  0  0  0  0  0
    5.0683    0.5380   21.1896 H   0  0  0  0  0  0  0  0  0  0  0  0
    9.6515    0.7539   20.3155 H   0  0  0  0  0  0  0  0  0  0  0  0
   10.5097    0.2726   21.7796 H   0  0  0  0  0  0  0  0  0  0  0  0
    7.7272    2.4065   20.4989 H   0  0  0  0  0  0  0  0  0  0  0  0
    7.6507    4.9954   23.7272 H   0  0  0  0  0  0  0  0  0  0  0  0
    9.2252    3.5430   25.0095 H   0  0  0  0  0  0  0  0  0  0  0  0
   10.9934    2.0165   25.6500 H   0  0  0  0  0  0  0  0  0  0  0  0
    9.3854    1.3624   26.1045 H   0  0  0  0  0  0  0  0  0  0  0  0
   10.7548    0.2584   25.7776 H   0  0  0  0  0  0  0  0  0  0  0  0
  1  2  1  0
  2  3  1  0
  3  4  2  0
  4  5  1  0
  5  6  2  0
  6  7  1  0
  7  8  2  0
  8  9  1  0
  9 10  1  0
 10 11  2  0
 11 12  1  0
 12 13  1  0
 13 14  1  0
 14 15  1  0
 15 16  1  0
 16 17  1  0
 16 18  1  0
 16 19  1  0
 15 20  1  0
 20 21  1  0
 20 22  1  0
 20 23  1  0
 14 24  1  0
 14 25  1  0
 13 26  1  0
 12 27  2  0
 27 28  1  0
 28 29  1  0
 29 30  2  0
 30 31  1  0
 31 32  2  0
 32 33  1  0
 33 34  2  0
 34 35  1  0
 32 36  1  0
 31 37  1  0
 30 38  1  0
  9 39  1  0
  9 40  1  0
  7 41  1  0
  5 42  1  0
  4 43  1  0
  1 44  1  0
  1 45  1  0
  1 46  1  0
  8  3  1  0
 28 10  1  0
 34 29  1  0
 15 13  1  0
M  END
>  <cnnaffinity>  (1) 
-6.04086

>  <filename>  (1) 
COc1ccncc1Cc1nc(C2CC2(C)C)nn1-c1cccnc1

$$$$
