
     RDKit          3D

 30 32  0  0  0  0  0  0  0  0999 V2000
    4.9417    2.1486   16.5734 H   0  0  0  0  0  0  0  0  0  0  0  0
    5.2634    1.6095   17.4634 C   0  0  0  0  0  0  0  0  0  0  0  0
    6.3921    0.8921   17.3449 N   0  0  0  0  0  0  0  0  0  0  0  0
    6.8138    0.2182   18.4190 C   0  0  0  0  0  0  0  0  0  0  0  0
    7.7282   -0.3626   18.3027 H   0  0  0  0  0  0  0  0  0  0  0  0
    6.1443    0.2232   19.6536 C   0  0  0  0  0  0  0  0  0  0  0  0
    6.7532   -0.5228   20.7589 C   0  0  0  0  0  0  0  0  0  0  0  0
    7.9156   -1.1501   20.7035 N   0  0  0  0  0  0  0  0  0  0  0  0
    8.0729   -1.6402   21.9646 C   0  0  0  0  0  0  0  0  0  0  0  0
    9.3147   -2.3700   22.3973 C   0  0  0  0  0  0  0  0  0  0  0  0
    9.6392   -2.9670   21.5419 H   0  0  0  0  0  0  0  0  0  0  0  0
    9.0511   -3.0076   23.2474 H   0  0  0  0  0  0  0  0  0  0  0  0
   10.4605   -1.5404   22.7385 N   0  0  0  0  0  0  0  0  0  0  0  0
   11.5670   -1.4924   21.9007 N   0  0  0  0  0  0  0  0  0  0  0  0
   12.3398   -0.6801   22.5229 C   0  0  0  0  0  0  0  0  0  0  0  0
   13.5705   -0.3733   22.1666 O   0  0  0  0  0  0  0  0  0  0  0  0
   14.2191    0.7483   22.7860 C   0  0  0  0  0  0  0  0  0  0  0  0
   15.1642    0.8648   22.2544 H   0  0  0  0  0  0  0  0  0  0  0  0
   13.6197    1.6569   22.6627 H   0  0  0  0  0  0  0  0  0  0  0  0
   14.4033    0.5628   23.8506 H   0  0  0  0  0  0  0  0  0  0  0  0
   11.8511   -0.1574   23.6708 O   0  0  0  0  0  0  0  0  0  0  0  0
   10.6231   -0.7571   23.8471 C   0  0  0  0  0  0  0  0  0  0  0  0
    9.9212   -0.5988   24.8057 O   0  0  0  0  0  0  0  0  0  0  0  0
    7.0621   -1.3994   22.7747 N   0  0  0  0  0  0  0  0  0  0  0  0
    6.2338   -0.6600   21.9948 N   0  0  0  0  0  0  0  0  0  0  0  0
    5.3653   -0.3075   22.3697 H   0  0  0  0  0  0  0  0  0  0  0  0
    4.9633    0.9734   19.7622 C   0  0  0  0  0  0  0  0  0  0  0  0
    4.4141    1.0399   20.7032 H   0  0  0  0  0  0  0  0  0  0  0  0
    4.5154    1.6726   18.6452 C   0  0  0  0  0  0  0  0  0  0  0  0
    3.6188    2.2821   18.6866 H   0  0  0  0  0  0  0  0  0  0  0  0
  1  2  1  0
  2  3  2  0
  3  4  1  0
  4  5  1  0
  4  6  2  0
  6  7  1  0
  7  8  2  0
  8  9  1  0
  9 10  1  0
 10 11  1  0
 10 12  1  0
 10 13  1  0
 13 14  1  0
 14 15  2  0
 15 16  1  0
 16 17  1  0
 17 18  1  0
 17 19  1  0
 17 20  1  0
 15 21  1  0
 21 22  1  0
 22 23  2  0
  9 24  2  0
 24 25  1  0
 25 26  1  0
  6 27  1  0
 27 28  1  0
 27 29  2  0
 29 30  1  0
 29  2  1  0
 25  7  1  0
 22 13  1  0
M  END
>  <cnnaffinity>  (1) 
-5.09022

>  <filename>  (1) 
COc1nn(Cc2n[nH]c(-c3cccnc3)n2)c(=O)o1

$$$$
