
     RDKit          3D

 39 41  0  0  0  0  0  0  0  0999 V2000
    4.9270    1.8639   16.9244 H   0  0  0  0  0  0  0  0  0  0  0  0
    5.3843    1.3353   17.7586 C   0  0  0  0  0  0  0  0  0  0  0  0
    6.5428    0.7018   17.5076 N   0  0  0  0  0  0  0  0  0  0  0  0
    7.1312    0.0618   18.5338 C   0  0  0  0  0  0  0  0  0  0  0  0
    8.0433   -0.4831   18.2968 H   0  0  0  0  0  0  0  0  0  0  0  0
    6.6221    0.0223   19.8597 C   0  0  0  0  0  0  0  0  0  0  0  0
    7.2627   -0.6321   20.9364 N   0  0  0  0  0  0  0  0  0  0  0  0
    6.6543   -1.0957   21.5999 H   0  0  0  0  0  0  0  0  0  0  0  0
    8.6372   -0.5876   21.2781 C   0  0  0  0  0  0  0  0  0  0  0  0
    9.6121    0.2861   20.7297 C   0  0  0  0  0  0  0  0  0  0  0  0
    9.4454    1.0565   19.9879 H   0  0  0  0  0  0  0  0  0  0  0  0
   10.8304    0.0736   21.2093 N   0  0  0  0  0  0  0  0  0  0  0  0
   10.6546   -0.9482   22.0662 N   0  0  0  0  0  0  0  0  0  0  0  0
   11.4193   -1.2897   22.6284 H   0  0  0  0  0  0  0  0  0  0  0  0
    9.3613   -1.3610   22.1949 C   0  0  0  0  0  0  0  0  0  0  0  0
    9.0658   -2.3431   23.1358 N   0  0  0  0  0  0  0  0  0  0  0  0
    9.8373   -3.5744   23.2098 C   0  0  0  0  0  0  0  0  0  0  0  0
    9.2481   -4.4217   22.8285 H   0  0  0  0  0  0  0  0  0  0  0  0
   10.7241   -3.4403   22.5818 H   0  0  0  0  0  0  0  0  0  0  0  0
   10.3121   -3.8661   24.6324 C   0  0  0  0  0  0  0  0  0  0  0  0
   11.1183   -3.1678   24.8851 H   0  0  0  0  0  0  0  0  0  0  0  0
   10.7248   -4.8824   24.6629 H   0  0  0  0  0  0  0  0  0  0  0  0
    9.1906   -3.7035   25.6725 C   0  0  0  0  0  0  0  0  0  0  0  0
    9.6362   -3.7111   26.6830 H   0  0  0  0  0  0  0  0  0  0  0  0
    8.2131   -4.7311   25.5503 O   0  0  0  0  0  0  0  0  0  0  0  0
    8.4969   -5.9392   26.2251 C   0  0  0  0  0  0  0  0  0  0  0  0
    9.4574   -6.3792   25.9152 H   0  0  0  0  0  0  0  0  0  0  0  0
    8.5142   -5.8074   27.3198 H   0  0  0  0  0  0  0  0  0  0  0  0
    7.6975   -6.6402   25.9687 H   0  0  0  0  0  0  0  0  0  0  0  0
    8.4522   -2.3736   25.4798 C   0  0  0  0  0  0  0  0  0  0  0  0
    9.1495   -1.5473   25.6831 H   0  0  0  0  0  0  0  0  0  0  0  0
    7.6116   -2.3106   26.1813 H   0  0  0  0  0  0  0  0  0  0  0  0
    7.9369   -2.2325   24.0433 C   0  0  0  0  0  0  0  0  0  0  0  0
    7.1901   -3.0154   23.8388 H   0  0  0  0  0  0  0  0  0  0  0  0
    7.4611   -1.2531   23.9074 H   0  0  0  0  0  0  0  0  0  0  0  0
    5.3850    0.6503   20.0754 C   0  0  0  0  0  0  0  0  0  0  0  0
    4.9280    0.6143   21.0655 H   0  0  0  0  0  0  0  0  0  0  0  0
    4.7663    1.3234   19.0154 C   0  0  0  0  0  0  0  0  0  0  0  0
    3.8232    1.8441   19.1571 H   0  0  0  0  0  0  0  0  0  0  0  0
  1  2  1  0
  2  3  2  0
  3  4  1  0
  4  5  1  0
  4  6  2  0
  6  7  1  0
  7  8  1  0
  7  9  1  0
  9 10  1  0
 10 11  1  0
 10 12  2  0
 12 13  1  0
 13 14  1  0
 13 15  1  0
 15 16  1  0
 16 17  1  0
 17 18  1  0
 17 19  1  0
 17 20  1  0
 20 21  1  0
 20 22  1  0
 20 23  1  0
 23 24  1  0
 23 25  1  0
 25 26  1  0
 26 27  1  0
 26 28  1  0
 26 29  1  0
 23 30  1  0
 30 31  1  0
 30 32  1  0
 30 33  1  0
 33 34  1  0
 33 35  1  0
  6 36  1  0
 36 37  1  0
 36 38  2  0
 38 39  1  0
 38  2  1  0
 15  9  2  0
 33 16  1  0
M  END
>  <cnnaffinity>  (1) 
-5.40751

>  <filename>  (1) 
COC1CCN(c2[nH]ncc2Nc2cccnc2)CC1

$$$$
