
     RDKit          3D

 33 35  0  0  0  0  0  0  0  0999 V2000
    4.9604    1.8037   17.0085 H   0  0  0  0  0  0  0  0  0  0  0  0
    5.4102    1.2890   17.8542 C   0  0  0  0  0  0  0  0  0  0  0  0
    6.5692    0.6574   17.6143 N   0  0  0  0  0  0  0  0  0  0  0  0
    7.1516    0.0284   18.6401 C   0  0  0  0  0  0  0  0  0  0  0  0
    8.0951   -0.4617   18.3983 H   0  0  0  0  0  0  0  0  0  0  0  0
    6.6106   -0.0415   19.9389 C   0  0  0  0  0  0  0  0  0  0  0  0
    7.3685   -0.7553   21.0008 C   0  0  0  0  0  0  0  0  0  0  0  0
    6.5948   -1.3429   21.9762 O   0  0  0  0  0  0  0  0  0  0  0  0
    7.1962   -2.0135   23.0192 C   0  0  0  0  0  0  0  0  0  0  0  0
    6.2608   -2.6241   24.0033 C   0  0  0  0  0  0  0  0  0  0  0  0
    5.0082   -3.1426   23.6155 C   0  0  0  0  0  0  0  0  0  0  0  0
    4.7032   -3.1459   22.5705 H   0  0  0  0  0  0  0  0  0  0  0  0
    4.1086   -3.6070   24.4876 N   0  0  0  0  0  0  0  0  0  0  0  0
    4.4395   -3.6441   25.7895 C   0  0  0  0  0  0  0  0  0  0  0  0
    3.6637   -3.9525   26.4875 H   0  0  0  0  0  0  0  0  0  0  0  0
    5.7158   -3.2924   26.2697 C   0  0  0  0  0  0  0  0  0  0  0  0
    6.1628   -3.4208   27.5473 O   0  0  0  0  0  0  0  0  0  0  0  0
    5.3080   -4.0012   28.5174 C   0  0  0  0  0  0  0  0  0  0  0  0
    5.8918   -4.0917   29.4350 H   0  0  0  0  0  0  0  0  0  0  0  0
    4.4352   -3.3608   28.6899 H   0  0  0  0  0  0  0  0  0  0  0  0
    4.9659   -4.9965   28.2066 H   0  0  0  0  0  0  0  0  0  0  0  0
    6.6211   -2.7485   25.3551 C   0  0  0  0  0  0  0  0  0  0  0  0
    7.5884   -2.4423   25.7487 H   0  0  0  0  0  0  0  0  0  0  0  0
    8.5373   -2.1243   23.1057 C   0  0  0  0  0  0  0  0  0  0  0  0
    9.0208   -2.6690   23.9027 H   0  0  0  0  0  0  0  0  0  0  0  0
    9.4137   -1.5197   22.1099 C   0  0  0  0  0  0  0  0  0  0  0  0
   10.6296   -1.5953   22.1651 O   0  0  0  0  0  0  0  0  0  0  0  0
    8.7141   -0.8193   21.0379 C   0  0  0  0  0  0  0  0  0  0  0  0
    9.3297   -0.3317   20.2997 H   0  0  0  0  0  0  0  0  0  0  0  0
    5.3910    0.6251   20.1660 C   0  0  0  0  0  0  0  0  0  0  0  0
    4.9462    0.6213   21.1602 H   0  0  0  0  0  0  0  0  0  0  0  0
    4.7874    1.3032   19.1065 C   0  0  0  0  0  0  0  0  0  0  0  0
    3.8596    1.8538   19.2352 H   0  0  0  0  0  0  0  0  0  0  0  0
  1  2  1  0
  2  3  2  0
  3  4  1  0
  4  5  1  0
  4  6  2  0
  6  7  1  0
  7  8  1  0
  8  9  1  0
  9 10  1  0
 10 11  2  0
 11 12  1  0
 11 13  1  0
 13 14  2  0
 14 15  1  0
 14 16  1  0
 16 17  1  0
 17 18  1  0
 18 19  1  0
 18 20  1  0
 18 21  1  0
 16 22  2  0
 22 23  1  0
  9 24  2  0
 24 25  1  0
 24 26  1  0
 26 27  2  0
 26 28  1  0
 28 29  1  0
  6 30  1  0
 30 31  1  0
 30 32  2  0
 32 33  1  0
 32  2  1  0
 28  7  2  0
 22 10  1  0
M  END
>  <cnnaffinity>  (1) 
-5.00524

>  <filename>  (1) 
COc1cncc(-c2cc(=O)cc(-c3cccnc3)o2)c1

$$$$
