
     RDKit          3D

 46 49  0  0  0  0  0  0  0  0999 V2000
   10.0273    0.3716   25.8555 C   0  0  0  0  0  0  0  0  0  0  0  0
    9.1347    0.7789   24.8438 O   0  0  0  0  0  0  0  0  0  0  0  0
    7.8482    1.0808   25.1138 C   0  0  0  0  0  0  0  0  0  0  0  0
    7.2971    1.0778   26.3965 C   0  0  0  0  0  0  0  0  0  0  0  0
    5.9471    1.3854   26.5166 C   0  0  0  0  0  0  0  0  0  0  0  0
    5.1611    1.7058   25.4873 N   0  0  0  0  0  0  0  0  0  0  0  0
    5.7170    1.7143   24.2646 C   0  0  0  0  0  0  0  0  0  0  0  0
    7.0485    1.4003   23.9950 C   0  0  0  0  0  0  0  0  0  0  0  0
    7.6649    1.3059   22.5941 C   0  0  0  0  0  0  0  0  0  0  0  0
    7.7792   -0.1060   22.0754 C   0  0  0  0  0  0  0  0  0  0  0  0
    8.4054   -1.0657   22.7296 N   0  0  0  0  0  0  0  0  0  0  0  0
    8.1987   -2.1663   21.9799 C   0  0  0  0  0  0  0  0  0  0  0  0
    8.7322   -3.5124   22.4010 C   0  0  0  0  0  0  0  0  0  0  0  0
    7.9676   -4.7147   21.8019 C   0  0  0  0  0  0  0  0  0  0  0  0
    8.3351   -5.9158   22.6807 C   0  0  0  0  0  0  0  0  0  0  0  0
    8.6804   -5.3480   24.0740 C   0  0  0  0  0  0  0  0  0  0  0  0
    8.7625   -3.8056   23.9285 C   0  0  0  0  0  0  0  0  0  0  0  0
    9.6850   -3.4192   24.3755 H   0  0  0  0  0  0  0  0  0  0  0  0
    7.9220   -3.3147   24.4382 H   0  0  0  0  0  0  0  0  0  0  0  0
    7.9224   -5.6358   24.8089 H   0  0  0  0  0  0  0  0  0  0  0  0
    9.6251   -5.7710   24.4383 H   0  0  0  0  0  0  0  0  0  0  0  0
    9.1954   -6.4411   22.2582 H   0  0  0  0  0  0  0  0  0  0  0  0
    7.5354   -6.6635   22.7241 H   0  0  0  0  0  0  0  0  0  0  0  0
    6.8906   -4.4965   21.8590 H   0  0  0  0  0  0  0  0  0  0  0  0
    8.2260   -4.9014   20.7544 H   0  0  0  0  0  0  0  0  0  0  0  0
    9.7771   -3.4578   22.0752 H   0  0  0  0  0  0  0  0  0  0  0  0
    7.5641   -1.9360   20.8387 N   0  0  0  0  0  0  0  0  0  0  0  0
    7.2651   -0.6135   20.9164 N   0  0  0  0  0  0  0  0  0  0  0  0
    6.5671    0.0170   19.8456 C   0  0  0  0  0  0  0  0  0  0  0  0
    5.3739    0.7155   20.0590 C   0  0  0  0  0  0  0  0  0  0  0  0
    4.7821    1.3716   18.9747 C   0  0  0  0  0  0  0  0  0  0  0  0
    5.4108    1.3201   17.7288 C   0  0  0  0  0  0  0  0  0  0  0  0
    6.5367    0.6178   17.5093 N   0  0  0  0  0  0  0  0  0  0  0  0
    7.0826   -0.0388   18.5384 C   0  0  0  0  0  0  0  0  0  0  0  0
    7.9771   -0.6173   18.3175 H   0  0  0  0  0  0  0  0  0  0  0  0
    4.9966    1.8499   16.8724 H   0  0  0  0  0  0  0  0  0  0  0  0
    3.8526    1.9173   19.0861 H   0  0  0  0  0  0  0  0  0  0  0  0
    4.9132    0.7299   21.0463 H   0  0  0  0  0  0  0  0  0  0  0  0
    7.1496    1.9456   21.8736 H   0  0  0  0  0  0  0  0  0  0  0  0
    8.6968    1.6648   22.6662 H   0  0  0  0  0  0  0  0  0  0  0  0
    5.0334    1.9834   23.4547 H   0  0  0  0  0  0  0  0  0  0  0  0
    5.4772    1.3778   27.4999 H   0  0  0  0  0  0  0  0  0  0  0  0
    7.9048    0.8448   27.2608 H   0  0  0  0  0  0  0  0  0  0  0  0
   10.3368    1.2319   26.4566 H   0  0  0  0  0  0  0  0  0  0  0  0
   10.8953   -0.0408   25.3371 H   0  0  0  0  0  0  0  0  0  0  0  0
    9.5987   -0.4020   26.5075 H   0  0  0  0  0  0  0  0  0  0  0  0
  1  2  1  0
  2  3  1  0
  3  4  2  0
  4  5  1  0
  5  6  2  0
  6  7  1  0
  7  8  2  0
  8  9  1  0
  9 10  1  0
 10 11  2  0
 11 12  1  0
 12 13  1  0
 13 14  1  0
 14 15  1  0
 15 16  1  0
 16 17  1  0
 17 18  1  0
 17 19  1  0
 16 20  1  0
 16 21  1  0
 15 22  1  0
 15 23  1  0
 14 24  1  0
 14 25  1  0
 13 26  1  0
 12 27  2  0
 27 28  1  0
 28 29  1  0
 29 30  2  0
 30 31  1  0
 31 32  2  0
 32 33  1  0
 33 34  2  0
 34 35  1  0
 32 36  1  0
 31 37  1  0
 30 38  1  0
  9 39  1  0
  9 40  1  0
  7 41  1  0
  5 42  1  0
  4 43  1  0
  1 44  1  0
  1 45  1  0
  1 46  1  0
  8  3  1  0
 28 10  1  0
 34 29  1  0
 17 13  1  0
M  END
>  <cnnaffinity>  (1) 
-6.69195

>  <filename>  (1) 
COc1ccncc1Cc1nc(C2CCCC2)nn1-c1cccnc1

$$$$
