
     RDKit          3D

 44 48  0  0  0  0  0  0  0  0999 V2000
   13.2140   -1.8147   21.4274 C   0  0  0  0  0  0  0  0  0  0  0  0
   12.1047   -0.9773   21.1728 O   0  0  0  0  0  0  0  0  0  0  0  0
   11.8511    0.0898   21.9561 C   0  0  0  0  0  0  0  0  0  0  0  0
   12.6873    0.5169   22.9938 C   0  0  0  0  0  0  0  0  0  0  0  0
   12.3532    1.6933   23.6508 C   0  0  0  0  0  0  0  0  0  0  0  0
   11.2731    2.4247   23.3686 N   0  0  0  0  0  0  0  0  0  0  0  0
   10.4647    1.9729   22.3990 C   0  0  0  0  0  0  0  0  0  0  0  0
   10.6678    0.8008   21.6699 C   0  0  0  0  0  0  0  0  0  0  0  0
    9.6305    0.2373   20.7083 C   0  0  0  0  0  0  0  0  0  0  0  0
    8.5804   -0.6204   21.3495 C   0  0  0  0  0  0  0  0  0  0  0  0
    8.7842   -1.4445   22.3467 N   0  0  0  0  0  0  0  0  0  0  0  0
    7.5688   -2.0217   22.5338 C   0  0  0  0  0  0  0  0  0  0  0  0
    7.5013   -3.0711   23.5809 C   0  0  0  0  0  0  0  0  0  0  0  0
    7.8575   -2.6373   24.9646 C   0  0  0  0  0  0  0  0  0  0  0  0
    6.4401   -3.1984   24.6876 C   0  0  0  0  0  0  0  0  0  0  0  0
    5.2249   -4.0816   24.4401 C   0  0  0  0  0  0  0  0  0  0  0  0
    5.5222   -3.6188   25.8293 C   0  0  0  0  0  0  0  0  0  0  0  0
    4.8622   -2.8559   26.2398 H   0  0  0  0  0  0  0  0  0  0  0  0
    5.9311   -4.3257   26.5533 H   0  0  0  0  0  0  0  0  0  0  0  0
    5.4102   -5.1211   24.1567 H   0  0  0  0  0  0  0  0  0  0  0  0
    4.3721   -3.6136   23.9450 H   0  0  0  0  0  0  0  0  0  0  0  0
    7.9718   -1.5590   25.0978 H   0  0  0  0  0  0  0  0  0  0  0  0
    8.5329   -3.2299   25.5906 H   0  0  0  0  0  0  0  0  0  0  0  0
    7.9274   -4.0128   23.2283 H   0  0  0  0  0  0  0  0  0  0  0  0
    6.6251   -1.6140   21.7093 N   0  0  0  0  0  0  0  0  0  0  0  0
    7.2853   -0.7193   20.9188 N   0  0  0  0  0  0  0  0  0  0  0  0
    6.6179   -0.0258   19.8699 C   0  0  0  0  0  0  0  0  0  0  0  0
    5.4127    0.6345   20.1281 C   0  0  0  0  0  0  0  0  0  0  0  0
    4.7958    1.3224   19.0812 C   0  0  0  0  0  0  0  0  0  0  0  0
    5.3909    1.3126   17.8142 C   0  0  0  0  0  0  0  0  0  0  0  0
    6.5392    0.6699   17.5538 N   0  0  0  0  0  0  0  0  0  0  0  0
    7.1379    0.0254   18.5621 C   0  0  0  0  0  0  0  0  0  0  0  0
    8.0810   -0.4647   18.3222 H   0  0  0  0  0  0  0  0  0  0  0  0
    4.9299    1.8354   16.9789 H   0  0  0  0  0  0  0  0  0  0  0  0
    3.8691    1.8619   19.2361 H   0  0  0  0  0  0  0  0  0  0  0  0
    4.9934    0.5942   21.1328 H   0  0  0  0  0  0  0  0  0  0  0  0
   10.1264   -0.4303   19.9967 H   0  0  0  0  0  0  0  0  0  0  0  0
    9.1484    1.0437   20.1522 H   0  0  0  0  0  0  0  0  0  0  0  0
    9.5837    2.5891   22.2025 H   0  0  0  0  0  0  0  0  0  0  0  0
   12.9906    2.0646   24.4511 H   0  0  0  0  0  0  0  0  0  0  0  0
   13.5529   -0.0547   23.2983 H   0  0  0  0  0  0  0  0  0  0  0  0
   12.9982   -2.4553   22.2862 H   0  0  0  0  0  0  0  0  0  0  0  0
   13.3445   -2.4163   20.5347 H   0  0  0  0  0  0  0  0  0  0  0  0
   14.1274   -1.2365   21.5957 H   0  0  0  0  0  0  0  0  0  0  0  0
  1  2  1  0
  2  3  1  0
  3  4  2  0
  4  5  1  0
  5  6  2  0
  6  7  1  0
  7  8  2  0
  8  9  1  0
  9 10  1  0
 10 11  2  0
 11 12  1  0
 12 13  1  0
 13 14  1  0
 14 15  1  0
 15 16  1  0
 16 17  1  0
 17 18  1  0
 17 19  1  0
 16 20  1  0
 16 21  1  0
 14 22  1  0
 14 23  1  0
 13 24  1  0
 12 25  2  0
 25 26  1  0
 26 27  1  0
 27 28  2  0
 28 29  1  0
 29 30  2  0
 30 31  1  0
 31 32  2  0
 32 33  1  0
 30 34  1  0
 29 35  1  0
 28 36  1  0
  9 37  1  0
  9 38  1  0
  7 39  1  0
  5 40  1  0
  4 41  1  0
  1 42  1  0
  1 43  1  0
  1 44  1  0
  8  3  1  0
 26 10  1  0
 32 27  1  0
 15 13  1  0
 17 15  1  0
M  END
>  <cnnaffinity>  (1) 
-6.58439

>  <filename>  (1) 
COc1ccncc1Cc1nc(C2CC23CC3)nn1-c1cccnc1

$$$$
