
     RDKit          3D

 30 32  0  0  0  0  0  0  0  0999 V2000
    4.9258    1.8103   16.9652 H   0  0  0  0  0  0  0  0  0  0  0  0
    5.3873    1.3168   17.8137 C   0  0  0  0  0  0  0  0  0  0  0  0
    6.5542    0.7010   17.5640 N   0  0  0  0  0  0  0  0  0  0  0  0
    7.1560    0.1118   18.6052 C   0  0  0  0  0  0  0  0  0  0  0  0
    8.1043   -0.3833   18.3911 H   0  0  0  0  0  0  0  0  0  0  0  0
    6.6510    0.0939   19.9280 C   0  0  0  0  0  0  0  0  0  0  0  0
    7.3465   -0.6314   21.0302 C   0  0  0  0  0  0  0  0  0  0  0  0
    7.6924   -2.0245   20.9767 C   0  0  0  0  0  0  0  0  0  0  0  0
    7.4145   -2.6691   20.1570 H   0  0  0  0  0  0  0  0  0  0  0  0
    8.2680   -2.5646   22.0127 N   0  0  0  0  0  0  0  0  0  0  0  0
    8.4093   -1.4097   23.1997 S   0  0  0  0  0  0  0  0  0  0  0  0
    7.6494   -0.1532   22.2946 C   0  0  0  0  0  0  0  0  0  0  0  0
    7.3536    1.1511   22.8925 C   0  0  0  0  0  0  0  0  0  0  0  0
    7.4965    2.3187   22.1268 C   0  0  0  0  0  0  0  0  0  0  0  0
    7.8188    2.2255   21.0938 H   0  0  0  0  0  0  0  0  0  0  0  0
    7.2482    3.5448   22.6038 N   0  0  0  0  0  0  0  0  0  0  0  0
    6.8340    3.6501   23.8692 C   0  0  0  0  0  0  0  0  0  0  0  0
    6.6385    4.6408   24.2639 H   0  0  0  0  0  0  0  0  0  0  0  0
    6.6455    2.5414   24.7273 C   0  0  0  0  0  0  0  0  0  0  0  0
    6.2094    2.8129   25.9824 O   0  0  0  0  0  0  0  0  0  0  0  0
    6.0069    1.7262   26.8652 C   0  0  0  0  0  0  0  0  0  0  0  0
    5.2303    1.0471   26.4923 H   0  0  0  0  0  0  0  0  0  0  0  0
    5.6883    2.1622   27.8102 H   0  0  0  0  0  0  0  0  0  0  0  0
    6.9313    1.1554   27.0158 H   0  0  0  0  0  0  0  0  0  0  0  0
    6.9142    1.2709   24.2252 C   0  0  0  0  0  0  0  0  0  0  0  0
    6.7611    0.3867   24.8411 H   0  0  0  0  0  0  0  0  0  0  0  0
    5.4152    0.7302   20.1477 C   0  0  0  0  0  0  0  0  0  0  0  0
    4.9808    0.7263   21.1499 H   0  0  0  0  0  0  0  0  0  0  0  0
    4.7744    1.3494   19.0709 C   0  0  0  0  0  0  0  0  0  0  0  0
    3.8204    1.8550   19.1923 H   0  0  0  0  0  0  0  0  0  0  0  0
  1  2  1  0
  2  3  2  0
  3  4  1  0
  4  5  1  0
  4  6  2  0
  6  7  1  0
  7  8  1  0
  8  9  1  0
  8 10  2  0
 10 11  1  0
 11 12  1  0
 12 13  1  0
 13 14  2  0
 14 15  1  0
 14 16  1  0
 16 17  2  0
 17 18  1  0
 17 19  1  0
 19 20  1  0
 20 21  1  0
 21 22  1  0
 21 23  1  0
 21 24  1  0
 19 25  2  0
 25 26  1  0
  6 27  1  0
 27 28  1  0
 27 29  2  0
 29 30  1  0
 29  2  1  0
 12  7  2  0
 25 13  1  0
M  END
>  <cnnaffinity>  (1) 
-5.12216

>  <filename>  (1) 
COc1cncc(-c2sncc2-c2cccnc2)c1

$$$$
