
     RDKit          3D

 46 49  0  0  0  0  0  0  0  0999 V2000
   10.4778    1.4849   25.2972 C   0  0  0  0  0  0  0  0  0  0  0  0
    9.2030    1.8553   24.8046 O   0  0  0  0  0  0  0  0  0  0  0  0
    8.1304    1.0587   25.0737 C   0  0  0  0  0  0  0  0  0  0  0  0
    8.0030    0.3007   26.2428 C   0  0  0  0  0  0  0  0  0  0  0  0
    6.8190   -0.4205   26.4486 C   0  0  0  0  0  0  0  0  0  0  0  0
    5.8129   -0.3748   25.4857 C   0  0  0  0  0  0  0  0  0  0  0  0
    5.9423    0.3232   24.3447 N   0  0  0  0  0  0  0  0  0  0  0  0
    7.0512    1.0367   24.1374 C   0  0  0  0  0  0  0  0  0  0  0  0
    7.1155    1.7116   22.7869 C   0  0  0  0  0  0  0  0  0  0  0  0
    8.0624    0.9255   21.9477 C   0  0  0  0  0  0  0  0  0  0  0  0
    9.3287    1.2213   21.9409 N   0  0  0  0  0  0  0  0  0  0  0  0
    9.9485    0.0850   21.5218 C   0  0  0  0  0  0  0  0  0  0  0  0
   11.4209    0.0163   21.7152 C   0  0  0  0  0  0  0  0  0  0  0  0
   11.9991    1.1285   22.3620 C   0  0  0  0  0  0  0  0  0  0  0  0
   13.3157    1.0791   22.7642 C   0  0  0  0  0  0  0  0  0  0  0  0
   13.8152    2.1283   23.4292 F   0  0  0  0  0  0  0  0  0  0  0  0
   14.1231   -0.0096   22.4768 C   0  0  0  0  0  0  0  0  0  0  0  0
   13.5531   -1.0748   21.7848 C   0  0  0  0  0  0  0  0  0  0  0  0
   14.3391   -2.1100   21.4686 F   0  0  0  0  0  0  0  0  0  0  0  0
   12.2175   -1.0962   21.3959 C   0  0  0  0  0  0  0  0  0  0  0  0
   11.8299   -1.9387   20.8335 H   0  0  0  0  0  0  0  0  0  0  0  0
   15.1549   -0.0160   22.7505 H   0  0  0  0  0  0  0  0  0  0  0  0
   11.4003    2.0055   22.5801 H   0  0  0  0  0  0  0  0  0  0  0  0
    9.1076   -0.8615   21.1428 N   0  0  0  0  0  0  0  0  0  0  0  0
    7.8910   -0.3161   21.4377 N   0  0  0  0  0  0  0  0  0  0  0  0
    6.6486   -0.9330   20.9779 C   0  0  0  0  0  0  0  0  0  0  0  0
    6.0826   -0.1822   19.7890 C   0  0  0  0  0  0  0  0  0  0  0  0
    4.9188    0.5917   19.8473 C   0  0  0  0  0  0  0  0  0  0  0  0
    4.5785    1.3812   18.7439 C   0  0  0  0  0  0  0  0  0  0  0  0
    5.4050    1.3563   17.6177 C   0  0  0  0  0  0  0  0  0  0  0  0
    6.5067    0.5959   17.5288 N   0  0  0  0  0  0  0  0  0  0  0  0
    6.8286   -0.1416   18.5974 C   0  0  0  0  0  0  0  0  0  0  0  0
    7.7526   -0.7169   18.5161 H   0  0  0  0  0  0  0  0  0  0  0  0
    5.1813    1.9838   16.7541 H   0  0  0  0  0  0  0  0  0  0  0  0
    3.7080    2.0280   18.7540 H   0  0  0  0  0  0  0  0  0  0  0  0
    4.2844    0.5822   20.7389 H   0  0  0  0  0  0  0  0  0  0  0  0
    6.9026   -1.9699   20.7271 H   0  0  0  0  0  0  0  0  0  0  0  0
    5.9568   -0.9183   21.8298 H   0  0  0  0  0  0  0  0  0  0  0  0
    6.1188    1.7452   22.3430 H   0  0  0  0  0  0  0  0  0  0  0  0
    7.5403    2.7150   22.8638 H   0  0  0  0  0  0  0  0  0  0  0  0
    4.8794   -0.9200   25.6193 H   0  0  0  0  0  0  0  0  0  0  0  0
    6.6921   -1.0200   27.3398 H   0  0  0  0  0  0  0  0  0  0  0  0
    8.8144    0.2917   26.9690 H   0  0  0  0  0  0  0  0  0  0  0  0
   10.7568    0.4676   24.9849 H   0  0  0  0  0  0  0  0  0  0  0  0
   10.5210    1.5615   26.3871 H   0  0  0  0  0  0  0  0  0  0  0  0
   11.1912    2.1926   24.8756 H   0  0  0  0  0  0  0  0  0  0  0  0
  1  2  1  0
  2  3  1  0
  3  4  2  0
  4  5  1  0
  5  6  2  0
  6  7  1  0
  7  8  2  0
  8  9  1  0
  9 10  1  0
 10 11  2  0
 11 12  1  0
 12 13  1  0
 13 14  2  0
 14 15  1  0
 15 16  1  0
 15 17  2  0
 17 18  1  0
 18 19  1  0
 18 20  2  0
 20 21  1  0
 17 22  1  0
 14 23  1  0
 12 24  2  0
 24 25  1  0
 25 26  1  0
 26 27  1  0
 27 28  2  0
 28 29  1  0
 29 30  2  0
 30 31  1  0
 31 32  2  0
 32 33  1  0
 30 34  1  0
 29 35  1  0
 28 36  1  0
 26 37  1  0
 26 38  1  0
  9 39  1  0
  9 40  1  0
  6 41  1  0
  5 42  1  0
  4 43  1  0
  1 44  1  0
  1 45  1  0
  1 46  1  0
  8  3  1  0
 25 10  1  0
 32 27  1  0
 20 13  1  0
M  END
>  <cnnaffinity>  (1) 
-6.85373

>  <filename>  (1) 
COc1cccnc1Cc1nc(-c2cc(F)cc(F)c2)nn1Cc1cccnc1

$$$$
