
     RDKit          3D

 45 48  0  0  0  0  0  0  0  0999 V2000
    8.6181    0.5539   26.8162 C   0  0  0  0  0  0  0  0  0  0  0  0
    8.3005    0.7633   25.4582 O   0  0  0  0  0  0  0  0  0  0  0  0
    9.1334    1.4870   24.6570 C   0  0  0  0  0  0  0  0  0  0  0  0
   10.4228    1.8951   25.0300 C   0  0  0  0  0  0  0  0  0  0  0  0
   11.2377    2.5669   24.1123 C   0  0  0  0  0  0  0  0  0  0  0  0
   10.7764    2.8476   22.8268 C   0  0  0  0  0  0  0  0  0  0  0  0
    9.4835    2.4276   22.4820 C   0  0  0  0  0  0  0  0  0  0  0  0
    8.9286    2.6790   20.8652 Cl  0  0  0  0  0  0  0  0  0  0  0  0
    8.6280    1.7619   23.3610 C   0  0  0  0  0  0  0  0  0  0  0  0
    7.2773    1.1996   22.9009 C   0  0  0  0  0  0  0  0  0  0  0  0
    7.4549   -0.1507   22.2721 C   0  0  0  0  0  0  0  0  0  0  0  0
    7.9678   -1.1281   22.9829 N   0  0  0  0  0  0  0  0  0  0  0  0
    8.1942   -2.1076   22.0794 C   0  0  0  0  0  0  0  0  0  0  0  0
    8.8402   -3.3577   22.5629 C   0  0  0  0  0  0  0  0  0  0  0  0
    8.0948   -4.0741   23.7087 C   0  0  0  0  0  0  0  0  0  0  0  0
    9.2161   -4.8405   24.4134 C   0  0  0  0  0  0  0  0  0  0  0  0
   10.4018   -4.0936   24.1897 O   0  0  0  0  0  0  0  0  0  0  0  0
   10.1906   -3.0617   23.2461 C   0  0  0  0  0  0  0  0  0  0  0  0
   10.1528   -2.0951   23.7793 H   0  0  0  0  0  0  0  0  0  0  0  0
   11.0392   -3.0149   22.5546 H   0  0  0  0  0  0  0  0  0  0  0  0
    9.0483   -4.9202   25.4930 H   0  0  0  0  0  0  0  0  0  0  0  0
    9.3482   -5.8639   24.0210 H   0  0  0  0  0  0  0  0  0  0  0  0
    7.2931   -4.7324   23.3663 H   0  0  0  0  0  0  0  0  0  0  0  0
    7.6517   -3.3136   24.3679 H   0  0  0  0  0  0  0  0  0  0  0  0
    8.9265   -4.0338   21.7147 H   0  0  0  0  0  0  0  0  0  0  0  0
    7.8345   -1.8255   20.8465 N   0  0  0  0  0  0  0  0  0  0  0  0
    7.3050   -0.5692   20.9753 N   0  0  0  0  0  0  0  0  0  0  0  0
    6.6190    0.0518   19.8962 C   0  0  0  0  0  0  0  0  0  0  0  0
    5.3946    0.7025   20.1054 C   0  0  0  0  0  0  0  0  0  0  0  0
    4.7988    1.3451   19.0176 C   0  0  0  0  0  0  0  0  0  0  0  0
    5.4372    1.3137   17.7748 C   0  0  0  0  0  0  0  0  0  0  0  0
    6.5844    0.6459   17.5567 N   0  0  0  0  0  0  0  0  0  0  0  0
    7.1486    0.0169   18.5926 C   0  0  0  0  0  0  0  0  0  0  0  0
    8.0623   -0.5378   18.3904 H   0  0  0  0  0  0  0  0  0  0  0  0
    5.0122    1.8369   16.9209 H   0  0  0  0  0  0  0  0  0  0  0  0
    3.8601    1.8754   19.1294 H   0  0  0  0  0  0  0  0  0  0  0  0
    4.9164    0.6898   21.0866 H   0  0  0  0  0  0  0  0  0  0  0  0
    6.6585    1.0449   23.7861 H   0  0  0  0  0  0  0  0  0  0  0  0
    6.7640    1.8937   22.2346 H   0  0  0  0  0  0  0  0  0  0  0  0
   11.3974    3.3670   22.1019 H   0  0  0  0  0  0  0  0  0  0  0  0
   12.2434    2.8613   24.4010 H   0  0  0  0  0  0  0  0  0  0  0  0
   10.7812    1.6658   26.0272 H   0  0  0  0  0  0  0  0  0  0  0  0
    7.8220   -0.0733   27.2227 H   0  0  0  0  0  0  0  0  0  0  0  0
    9.5786    0.0335   26.9377 H   0  0  0  0  0  0  0  0  0  0  0  0
    8.6357    1.5072   27.3585 H   0  0  0  0  0  0  0  0  0  0  0  0
  1  2  1  0
  2  3  1  0
  3  4  2  0
  4  5  1  0
  5  6  2  0
  6  7  1  0
  7  8  1  0
  7  9  2  0
  9 10  1  0
 10 11  1  0
 11 12  2  0
 12 13  1  0
 13 14  1  0
 14 15  1  0
 15 16  1  0
 16 17  1  0
 17 18  1  0
 18 19  1  0
 18 20  1  0
 16 21  1  0
 16 22  1  0
 15 23  1  0
 15 24  1  0
 14 25  1  0
 13 26  2  0
 26 27  1  0
 27 28  1  0
 28 29  2  0
 29 30  1  0
 30 31  2  0
 31 32  1  0
 32 33  2  0
 33 34  1  0
 31 35  1  0
 30 36  1  0
 29 37  1  0
 10 38  1  0
 10 39  1  0
  6 40  1  0
  5 41  1  0
  4 42  1  0
  1 43  1  0
  1 44  1  0
  1 45  1  0
  9  3  1  0
 27 11  1  0
 33 28  1  0
 18 14  1  0
M  END
>  <cnnaffinity>  (1) 
-6.05903

>  <filename>  (1) 
COc1cccc(Cl)c1Cc1nc(C2CCOC2)nn1-c1cccnc1

$$$$
