
     RDKit          3D

 47 50  0  0  0  0  0  0  0  0999 V2000
   13.3539   -1.7933   21.3539 C   0  0  0  0  0  0  0  0  0  0  0  0
   12.1725   -1.0543   21.1396 O   0  0  0  0  0  0  0  0  0  0  0  0
   11.8881    0.0048   21.9491 C   0  0  0  0  0  0  0  0  0  0  0  0
   12.6997    0.4626   23.0010 C   0  0  0  0  0  0  0  0  0  0  0  0
   12.3747    1.6805   23.6170 C   0  0  0  0  0  0  0  0  0  0  0  0
   11.2280    2.3586   23.1985 C   0  0  0  0  0  0  0  0  0  0  0  0
   10.3856    1.8703   22.2741 N   0  0  0  0  0  0  0  0  0  0  0  0
   10.6757    0.7098   21.6839 C   0  0  0  0  0  0  0  0  0  0  0  0
    9.6370    0.2077   20.7153 C   0  0  0  0  0  0  0  0  0  0  0  0
    8.5724   -0.5726   21.3942 C   0  0  0  0  0  0  0  0  0  0  0  0
    8.7673   -1.3909   22.4060 N   0  0  0  0  0  0  0  0  0  0  0  0
    7.5642   -1.9972   22.5545 C   0  0  0  0  0  0  0  0  0  0  0  0
    7.3213   -2.9885   23.6534 C   0  0  0  0  0  0  0  0  0  0  0  0
    6.5219   -2.3443   24.8234 C   0  0  0  0  0  0  0  0  0  0  0  0
    6.0240   -3.3635   25.8150 C   0  0  0  0  0  0  0  0  0  0  0  0
    6.0084   -4.6793   25.5857 C   0  0  0  0  0  0  0  0  0  0  0  0
    6.4892   -5.3063   24.2993 C   0  0  0  0  0  0  0  0  0  0  0  0
    6.6377   -4.2864   23.1554 C   0  0  0  0  0  0  0  0  0  0  0  0
    5.6535   -4.0200   22.7452 H   0  0  0  0  0  0  0  0  0  0  0  0
    7.2175   -4.7338   22.3372 H   0  0  0  0  0  0  0  0  0  0  0  0
    5.8051   -6.1133   24.0066 H   0  0  0  0  0  0  0  0  0  0  0  0
    7.4555   -5.7981   24.4897 H   0  0  0  0  0  0  0  0  0  0  0  0
    5.6552   -5.3567   26.3619 H   0  0  0  0  0  0  0  0  0  0  0  0
    5.6424   -2.9736   26.7566 H   0  0  0  0  0  0  0  0  0  0  0  0
    5.6605   -1.7836   24.4338 H   0  0  0  0  0  0  0  0  0  0  0  0
    7.1455   -1.6012   25.3406 H   0  0  0  0  0  0  0  0  0  0  0  0
    8.3232   -3.2372   24.0255 H   0  0  0  0  0  0  0  0  0  0  0  0
    6.6380   -1.6102   21.6948 N   0  0  0  0  0  0  0  0  0  0  0  0
    7.2916   -0.7029   20.9269 N   0  0  0  0  0  0  0  0  0  0  0  0
    6.6054   -0.0302   19.8738 C   0  0  0  0  0  0  0  0  0  0  0  0
    5.3905    0.6198   20.1233 C   0  0  0  0  0  0  0  0  0  0  0  0
    4.7872    1.3145   19.0706 C   0  0  0  0  0  0  0  0  0  0  0  0
    5.3949    1.3069   17.8092 C   0  0  0  0  0  0  0  0  0  0  0  0
    6.5326    0.6451   17.5496 N   0  0  0  0  0  0  0  0  0  0  0  0
    7.1182   -0.0017   18.5640 C   0  0  0  0  0  0  0  0  0  0  0  0
    8.0457   -0.5221   18.3278 H   0  0  0  0  0  0  0  0  0  0  0  0
    4.9537    1.8499   16.9763 H   0  0  0  0  0  0  0  0  0  0  0  0
    3.8669    1.8704   19.2160 H   0  0  0  0  0  0  0  0  0  0  0  0
    4.9459    0.5760   21.1178 H   0  0  0  0  0  0  0  0  0  0  0  0
    9.1918    1.0696   20.2217 H   0  0  0  0  0  0  0  0  0  0  0  0
   10.0700   -0.4616   19.9653 H   0  0  0  0  0  0  0  0  0  0  0  0
   10.9519    3.3119   23.6339 H   0  0  0  0  0  0  0  0  0  0  0  0
   13.0040    2.0868   24.3991 H   0  0  0  0  0  0  0  0  0  0  0  0
   13.5700   -0.1123   23.3143 H   0  0  0  0  0  0  0  0  0  0  0  0
   14.2412   -1.1490   21.3696 H   0  0  0  0  0  0  0  0  0  0  0  0
   13.4474   -2.4861   20.5154 H   0  0  0  0  0  0  0  0  0  0  0  0
   13.2787   -2.3393   22.2971 H   0  0  0  0  0  0  0  0  0  0  0  0
  1  2  1  0
  2  3  1  0
  3  4  2  0
  4  5  1  0
  5  6  2  0
  6  7  1  0
  7  8  2  0
  8  9  1  0
  9 10  1  0
 10 11  2  0
 11 12  1  0
 12 13  1  0
 13 14  1  0
 14 15  1  0
 15 16  2  0
 16 17  1  0
 17 18  1  0
 18 19  1  0
 18 20  1  0
 17 21  1  0
 17 22  1  0
 16 23  1  0
 15 24  1  0
 14 25  1  0
 14 26  1  0
 13 27  1  0
 12 28  2  0
 28 29  1  0
 29 30  1  0
 30 31  2  0
 31 32  1  0
 32 33  2  0
 33 34  1  0
 34 35  2  0
 35 36  1  0
 33 37  1  0
 32 38  1  0
 31 39  1  0
  9 40  1  0
  9 41  1  0
  6 42  1  0
  5 43  1  0
  4 44  1  0
  1 45  1  0
  1 46  1  0
  1 47  1  0
  8  3  1  0
 29 10  1  0
 35 30  1  0
 18 13  1  0
M  END
>  <cnnaffinity>  (1) 
-6.84118

>  <filename>  (1) 
COc1cccnc1Cc1nc(C2CC=CCC2)nn1-c1cccnc1

$$$$
