
     RDKit          3D

 37 39  0  0  0  0  0  0  0  0999 V2000
    4.9027    1.8215   16.9724 H   0  0  0  0  0  0  0  0  0  0  0  0
    5.3790    1.3252   17.8168 C   0  0  0  0  0  0  0  0  0  0  0  0
    6.5475    0.7183   17.5591 N   0  0  0  0  0  0  0  0  0  0  0  0
    7.1642    0.1111   18.5800 C   0  0  0  0  0  0  0  0  0  0  0  0
    8.1171   -0.3577   18.3472 H   0  0  0  0  0  0  0  0  0  0  0  0
    6.6435    0.0426   19.8843 C   0  0  0  0  0  0  0  0  0  0  0  0
    7.3754   -0.6948   20.9920 C   0  0  1  0  0  0  0  0  0  0  0  0
    6.9083   -0.4368   21.9554 H   0  0  0  0  0  0  0  0  0  0  0  0
    7.4152   -2.2446   20.8910 C   0  0  0  0  0  0  0  0  0  0  0  0
    6.5295   -3.0287   20.6745 O   0  0  0  0  0  0  0  0  0  0  0  0
    8.7325   -2.5870   21.0676 N   0  0  0  0  0  0  0  0  0  0  0  0
    9.0926   -3.4464   20.6974 H   0  0  0  0  0  0  0  0  0  0  0  0
    9.5751   -1.4948   21.1188 C   0  0  0  0  0  0  0  0  0  0  0  0
   10.7752   -1.5564   21.2329 O   0  0  0  0  0  0  0  0  0  0  0  0
    8.7983   -0.3701   21.0090 N   0  0  0  0  0  0  0  0  0  0  0  0
    9.2920    0.9316   21.4397 C   0  0  0  0  0  0  0  0  0  0  0  0
   10.3448    0.9947   21.1460 H   0  0  0  0  0  0  0  0  0  0  0  0
    8.7459    1.7062   20.8885 H   0  0  0  0  0  0  0  0  0  0  0  0
    9.1547    1.1097   22.9409 C   0  0  0  0  0  0  0  0  0  0  0  0
   10.1174    0.5734   23.8022 C   0  0  0  0  0  0  0  0  0  0  0  0
   10.9731    0.0559   23.3693 H   0  0  0  0  0  0  0  0  0  0  0  0
    9.9915    0.6769   25.1947 C   0  0  0  0  0  0  0  0  0  0  0  0
   10.7559    0.2615   25.8458 H   0  0  0  0  0  0  0  0  0  0  0  0
    8.8814    1.3206   25.7452 C   0  0  0  0  0  0  0  0  0  0  0  0
    8.7691    1.4027   26.8274 H   0  0  0  0  0  0  0  0  0  0  0  0
    7.8936    1.8539   24.9075 C   0  0  0  0  0  0  0  0  0  0  0  0
    7.0229    2.3564   25.3180 H   0  0  0  0  0  0  0  0  0  0  0  0
    8.0263    1.7404   23.5128 C   0  0  0  0  0  0  0  0  0  0  0  0
    7.1057    2.2042   22.6206 O   0  0  0  0  0  0  0  0  0  0  0  0
    5.9457    2.8586   23.0794 C   0  0  0  0  0  0  0  0  0  0  0  0
    5.4050    3.1478   22.1783 H   0  0  0  0  0  0  0  0  0  0  0  0
    6.1886    3.7568   23.6642 H   0  0  0  0  0  0  0  0  0  0  0  0
    5.3247    2.1934   23.6946 H   0  0  0  0  0  0  0  0  0  0  0  0
    5.4238    0.6841   20.1336 C   0  0  0  0  0  0  0  0  0  0  0  0
    5.0039    0.6843   21.1420 H   0  0  0  0  0  0  0  0  0  0  0  0
    4.7741    1.3360   19.0788 C   0  0  0  0  0  0  0  0  0  0  0  0
    3.8272    1.8552   19.2114 H   0  0  0  0  0  0  0  0  0  0  0  0
  1  2  1  0
  2  3  2  0
  3  4  1  0
  4  5  1  0
  4  6  2  0
  6  7  1  0
  7  8  1  1
  7  9  1  0
  9 10  2  0
  9 11  1  0
 11 12  1  0
 11 13  1  0
 13 14  2  0
 13 15  1  0
 15 16  1  0
 16 17  1  0
 16 18  1  0
 16 19  1  0
 19 20  2  0
 20 21  1  0
 20 22  1  0
 22 23  1  0
 22 24  2  0
 24 25  1  0
 24 26  1  0
 26 27  1  0
 26 28  2  0
 28 29  1  0
 29 30  1  0
 30 31  1  0
 30 32  1  0
 30 33  1  0
  6 34  1  0
 34 35  1  0
 34 36  2  0
 36 37  1  0
 36  2  1  0
 15  7  1  0
 28 19  1  0
M  END
>  <cnnaffinity>  (1) 
-5.05105

>  <filename>  (1) 
COc1ccccc1CN1C(=O)NC(=O)[C@@H]1c1cccnc1

$$$$
