
     RDKit          3D

 30 31  0  0  0  0  0  0  0  0999 V2000
    4.9318    1.8109   16.9996 H   0  0  0  0  0  0  0  0  0  0  0  0
    5.3979    1.2932   17.8359 C   0  0  0  0  0  0  0  0  0  0  0  0
    6.5596    0.6731   17.5694 N   0  0  0  0  0  0  0  0  0  0  0  0
    7.1637    0.0365   18.5840 C   0  0  0  0  0  0  0  0  0  0  0  0
    8.1185   -0.4310   18.3548 H   0  0  0  0  0  0  0  0  0  0  0  0
    6.6559   -0.0490   19.9101 C   0  0  0  0  0  0  0  0  0  0  0  0
    7.3250   -0.7654   20.9222 N   0  0  0  0  0  0  0  0  0  0  0  0
    6.8279   -0.9795   21.7831 H   0  0  0  0  0  0  0  0  0  0  0  0
    8.7140   -0.6979   21.1305 C   0  0  0  0  0  0  0  0  0  0  0  0
    9.6801    0.2384   20.6752 C   0  0  0  0  0  0  0  0  0  0  0  0
    9.5439    1.0756   20.0052 H   0  0  0  0  0  0  0  0  0  0  0  0
   10.8946   -0.0525   21.1370 N   0  0  0  0  0  0  0  0  0  0  0  0
   10.7138   -1.1634   21.8658 N   0  0  0  0  0  0  0  0  0  0  0  0
   11.5121   -1.5456   22.3624 H   0  0  0  0  0  0  0  0  0  0  0  0
    9.4210   -1.5911   21.9162 C   0  0  0  0  0  0  0  0  0  0  0  0
    8.9331   -2.6925   22.8170 C   0  0  0  0  0  0  0  0  0  0  0  0
    9.6634   -3.5109   22.8549 H   0  0  0  0  0  0  0  0  0  0  0  0
    8.0063   -3.1158   22.4063 H   0  0  0  0  0  0  0  0  0  0  0  0
    8.6607   -2.2228   24.2479 C   0  0  0  0  0  0  0  0  0  0  0  0
    9.5799   -1.8073   24.6945 H   0  0  0  0  0  0  0  0  0  0  0  0
    8.3645   -3.0832   24.8706 H   0  0  0  0  0  0  0  0  0  0  0  0
    7.6355   -1.2494   24.2392 O   0  0  0  0  0  0  0  0  0  0  0  0
    7.4020   -0.7191   25.5277 C   0  0  0  0  0  0  0  0  0  0  0  0
    6.6069    0.0249   25.4412 H   0  0  0  0  0  0  0  0  0  0  0  0
    7.0899   -1.5041   26.2347 H   0  0  0  0  0  0  0  0  0  0  0  0
    8.2987   -0.2340   25.9485 H   0  0  0  0  0  0  0  0  0  0  0  0
    5.4428    0.6100   20.1598 C   0  0  0  0  0  0  0  0  0  0  0  0
    5.0273    0.6115   21.1665 H   0  0  0  0  0  0  0  0  0  0  0  0
    4.8105    1.2904   19.1073 C   0  0  0  0  0  0  0  0  0  0  0  0
    3.8836    1.8318   19.2645 H   0  0  0  0  0  0  0  0  0  0  0  0
  1  2  1  0
  2  3  2  0
  3  4  1  0
  4  5  1  0
  4  6  2  0
  6  7  1  0
  7  8  1  0
  7  9  1  0
  9 10  1  0
 10 11  1  0
 10 12  2  0
 12 13  1  0
 13 14  1  0
 13 15  1  0
 15 16  1  0
 16 17  1  0
 16 18  1  0
 16 19  1  0
 19 20  1  0
 19 21  1  0
 19 22  1  0
 22 23  1  0
 23 24  1  0
 23 25  1  0
 23 26  1  0
  6 27  1  0
 27 28  1  0
 27 29  2  0
 29 30  1  0
 29  2  1  0
 15  9  2  0
M  END
>  <cnnaffinity>  (1) 
-4.87937

>  <filename>  (1) 
COCCc1[nH]ncc1Nc1cccnc1

$$$$
