
     RDKit          3D

 46 49  0  0  0  0  0  0  0  0999 V2000
    6.8797    2.3062   23.1550 C   0  0  0  0  0  0  0  0  0  0  0  0
    8.1287    1.6579   23.1199 O   0  0  0  0  0  0  0  0  0  0  0  0
    9.1373    2.4649   22.5423 C   0  0  0  0  0  0  0  0  0  0  0  0
   10.4618    1.7279   22.5460 C   0  0  0  0  0  0  0  0  0  0  0  0
   11.4312    2.0715   23.5011 C   0  0  0  0  0  0  0  0  0  0  0  0
   12.6548    1.3969   23.5643 C   0  0  0  0  0  0  0  0  0  0  0  0
   12.9176    0.3534   22.6760 C   0  0  0  0  0  0  0  0  0  0  0  0
   11.9499   -0.0050   21.7306 C   0  0  0  0  0  0  0  0  0  0  0  0
   10.7400    0.6886   21.6342 C   0  0  0  0  0  0  0  0  0  0  0  0
    9.6846    0.2030   20.6619 C   0  0  0  0  0  0  0  0  0  0  0  0
    8.6472   -0.6265   21.3250 C   0  0  0  0  0  0  0  0  0  0  0  0
    8.8637   -1.4884   22.2897 N   0  0  0  0  0  0  0  0  0  0  0  0
    7.6256   -1.9665   22.5567 C   0  0  0  0  0  0  0  0  0  0  0  0
    7.3744   -2.9144   23.6775 C   0  0  0  0  0  0  0  0  0  0  0  0
    6.0817   -3.4015   23.9323 C   0  0  0  0  0  0  0  0  0  0  0  0
    5.8919   -4.2895   24.9885 C   0  0  0  0  0  0  0  0  0  0  0  0
    6.8685   -4.7200   25.7924 N   0  0  0  0  0  0  0  0  0  0  0  0
    8.0975   -4.2504   25.5522 C   0  0  0  0  0  0  0  0  0  0  0  0
    8.4075   -3.3583   24.5253 C   0  0  0  0  0  0  0  0  0  0  0  0
    9.4291   -3.0201   24.3949 H   0  0  0  0  0  0  0  0  0  0  0  0
    8.8776   -4.6079   26.2160 H   0  0  0  0  0  0  0  0  0  0  0  0
    4.8994   -4.6749   25.1930 H   0  0  0  0  0  0  0  0  0  0  0  0
    5.2466   -3.0856   23.3190 H   0  0  0  0  0  0  0  0  0  0  0  0
    6.6704   -1.5048   21.7660 N   0  0  0  0  0  0  0  0  0  0  0  0
    7.3387   -0.6651   20.9423 N   0  0  0  0  0  0  0  0  0  0  0  0
    6.6525    0.0088   19.9014 C   0  0  0  0  0  0  0  0  0  0  0  0
    5.4367    0.6457   20.1656 C   0  0  0  0  0  0  0  0  0  0  0  0
    4.8103    1.3121   19.1096 C   0  0  0  0  0  0  0  0  0  0  0  0
    5.3991    1.2968   17.8391 C   0  0  0  0  0  0  0  0  0  0  0  0
    6.5572    0.6722   17.5777 N   0  0  0  0  0  0  0  0  0  0  0  0
    7.1657    0.0507   18.5932 C   0  0  0  0  0  0  0  0  0  0  0  0
    8.1124   -0.4311   18.3636 H   0  0  0  0  0  0  0  0  0  0  0  0
    4.9204    1.7857   16.9946 H   0  0  0  0  0  0  0  0  0  0  0  0
    3.8791    1.8402   19.2619 H   0  0  0  0  0  0  0  0  0  0  0  0
    5.0219    0.6125   21.1782 H   0  0  0  0  0  0  0  0  0  0  0  0
   10.1088   -0.4587   19.9007 H   0  0  0  0  0  0  0  0  0  0  0  0
    9.2104    1.0413   20.1481 H   0  0  0  0  0  0  0  0  0  0  0  0
   12.1292   -0.8335   21.0460 H   0  0  0  0  0  0  0  0  0  0  0  0
   13.8643   -0.1788   22.7106 H   0  0  0  0  0  0  0  0  0  0  0  0
   13.3932    1.6862   24.3062 H   0  0  0  0  0  0  0  0  0  0  0  0
   11.2175    2.8750   24.2037 H   0  0  0  0  0  0  0  0  0  0  0  0
    9.2430    3.4016   23.1120 H   0  0  0  0  0  0  0  0  0  0  0  0
    8.8453    2.7463   21.5173 H   0  0  0  0  0  0  0  0  0  0  0  0
    6.5402    2.5747   22.1411 H   0  0  0  0  0  0  0  0  0  0  0  0
    6.9022    3.2228   23.7716 H   0  0  0  0  0  0  0  0  0  0  0  0
    6.1637    1.6082   23.5988 H   0  0  0  0  0  0  0  0  0  0  0  0
  1  2  1  0
  2  3  1  0
  3  4  1  0
  4  5  2  0
  5  6  1  0
  6  7  2  0
  7  8  1  0
  8  9  2  0
  9 10  1  0
 10 11  1  0
 11 12  2  0
 12 13  1  0
 13 14  1  0
 14 15  2  0
 15 16  1  0
 16 17  2  0
 17 18  1  0
 18 19  2  0
 19 20  1  0
 18 21  1  0
 16 22  1  0
 15 23  1  0
 13 24  2  0
 24 25  1  0
 25 26  1  0
 26 27  2  0
 27 28  1  0
 28 29  2  0
 29 30  1  0
 30 31  2  0
 31 32  1  0
 29 33  1  0
 28 34  1  0
 27 35  1  0
 10 36  1  0
 10 37  1  0
  8 38  1  0
  7 39  1  0
  6 40  1  0
  5 41  1  0
  3 42  1  0
  3 43  1  0
  1 44  1  0
  1 45  1  0
  1 46  1  0
  9  4  1  0
 25 11  1  0
 31 26  1  0
 19 14  1  0
M  END
>  <cnnaffinity>  (1) 
-6.28385

>  <filename>  (1) 
COCc1ccccc1Cc1nc(-c2ccncc2)nn1-c1cccnc1

$$$$
