
     RDKit          3D

 41 43  0  0  0  0  0  0  0  0999 V2000
    8.2818   -5.7148   23.3202 C   0  0  0  0  0  0  0  0  0  0  0  0
    7.7803   -4.4221   23.0691 O   0  0  0  0  0  0  0  0  0  0  0  0
    8.6232   -3.6293   22.2570 C   0  0  0  0  0  0  0  0  0  0  0  0
    8.0863   -2.2475   22.0066 C   0  0  0  0  0  0  0  0  0  0  0  0
    7.7151   -1.8761   20.7944 N   0  0  0  0  0  0  0  0  0  0  0  0
    7.3294   -0.5911   20.9719 N   0  0  0  0  0  0  0  0  0  0  0  0
    6.6384    0.0731   19.9190 C   0  0  0  0  0  0  0  0  0  0  0  0
    5.4270    0.7284   20.1447 C   0  0  0  0  0  0  0  0  0  0  0  0
    4.8117    1.3526   19.0551 C   0  0  0  0  0  0  0  0  0  0  0  0
    5.4263    1.3062   17.7985 C   0  0  0  0  0  0  0  0  0  0  0  0
    6.5716    0.6408   17.5696 N   0  0  0  0  0  0  0  0  0  0  0  0
    7.1490    0.0248   18.6093 C   0  0  0  0  0  0  0  0  0  0  0  0
    8.0437   -0.5532   18.3929 H   0  0  0  0  0  0  0  0  0  0  0  0
    4.9844    1.8176   16.9455 H   0  0  0  0  0  0  0  0  0  0  0  0
    3.8657    1.8687   19.1689 H   0  0  0  0  0  0  0  0  0  0  0  0
    4.9497    0.7010   21.1277 H   0  0  0  0  0  0  0  0  0  0  0  0
    7.5881   -0.2193   22.2704 C   0  0  0  0  0  0  0  0  0  0  0  0
    7.6335    1.1892   22.7903 C   0  0  0  0  0  0  0  0  0  0  0  0
    8.9598    1.9529   22.4685 C   0  0  0  0  0  0  0  0  0  0  0  0
    9.1332    2.0767   20.9617 C   0  0  0  0  0  0  0  0  0  0  0  0
    8.2479    2.5165   20.5004 H   0  0  0  0  0  0  0  0  0  0  0  0
   10.0230    2.6743   20.7355 H   0  0  0  0  0  0  0  0  0  0  0  0
    9.2546    1.0836   20.5108 H   0  0  0  0  0  0  0  0  0  0  0  0
   10.1736    1.3677   23.0644 N   0  0  0  0  0  0  0  0  0  0  0  0
   10.9998    0.4356   22.4741 C   0  0  0  0  0  0  0  0  0  0  0  0
   11.9944    0.0952   23.3431 C   0  0  0  0  0  0  0  0  0  0  0  0
   11.7778    0.8398   24.5325 C   0  0  0  0  0  0  0  0  0  0  0  0
   10.6684    1.6216   24.3263 C   0  0  0  0  0  0  0  0  0  0  0  0
   10.2097    2.3619   24.9665 H   0  0  0  0  0  0  0  0  0  0  0  0
   12.3659    0.7797   25.4371 H   0  0  0  0  0  0  0  0  0  0  0  0
   12.8034   -0.5987   23.1413 H   0  0  0  0  0  0  0  0  0  0  0  0
   10.8133    0.0817   21.4716 H   0  0  0  0  0  0  0  0  0  0  0  0
    8.8679    2.9510   22.9178 H   0  0  0  0  0  0  0  0  0  0  0  0
    7.4635    1.1593   23.8700 H   0  0  0  0  0  0  0  0  0  0  0  0
    6.8144    1.7674   22.3531 H   0  0  0  0  0  0  0  0  0  0  0  0
    8.0275   -1.2638   22.9444 N   0  0  0  0  0  0  0  0  0  0  0  0
    8.7309   -4.0820   21.2611 H   0  0  0  0  0  0  0  0  0  0  0  0
    9.6212   -3.5240   22.7165 H   0  0  0  0  0  0  0  0  0  0  0  0
    9.1603   -5.6854   23.9807 H   0  0  0  0  0  0  0  0  0  0  0  0
    8.5529   -6.2520   22.3968 H   0  0  0  0  0  0  0  0  0  0  0  0
    7.4806   -6.2599   23.8194 H   0  0  0  0  0  0  0  0  0  0  0  0
  1  2  1  0
  2  3  1  0
  3  4  1  0
  4  5  2  0
  5  6  1  0
  6  7  1  0
  7  8  2  0
  8  9  1  0
  9 10  2  0
 10 11  1  0
 11 12  2  0
 12 13  1  0
 10 14  1  0
  9 15  1  0
  8 16  1  0
  6 17  1  0
 17 18  1  0
 18 19  1  0
 19 20  1  0
 20 21  1  0
 20 22  1  0
 20 23  1  0
 19 24  1  0
 24 25  1  0
 25 26  2  0
 26 27  1  0
 27 28  2  0
 28 29  1  0
 27 30  1  0
 26 31  1  0
 25 32  1  0
 19 33  1  0
 18 34  1  0
 18 35  1  0
 17 36  2  0
  3 37  1  0
  3 38  1  0
  1 39  1  0
  1 40  1  0
  1 41  1  0
 36  4  1  0
 12  7  1  0
 28 24  1  0
M  END
>  <cnnaffinity>  (1) 
-5.53423

>  <filename>  (1) 
COCc1nc(CC(C)n2cccc2)n(-c2cccnc2)n1

$$$$
