
     RDKit          3D

 37 39  0  0  0  0  0  0  0  0999 V2000
    4.9605    1.8412   16.9512 H   0  0  0  0  0  0  0  0  0  0  0  0
    5.4076    1.3016   17.7839 C   0  0  0  0  0  0  0  0  0  0  0  0
    6.5528    0.6491   17.5223 N   0  0  0  0  0  0  0  0  0  0  0  0
    7.1404    0.0018   18.5337 C   0  0  0  0  0  0  0  0  0  0  0  0
    8.0641   -0.5176   18.2901 H   0  0  0  0  0  0  0  0  0  0  0  0
    6.6378   -0.0163   19.8485 C   0  0  0  0  0  0  0  0  0  0  0  0
    7.3789   -0.6641   20.9379 C   0  0  0  0  0  0  0  0  0  0  0  0
    8.1479   -1.7382   20.7457 N   0  0  0  0  0  0  0  0  0  0  0  0
    8.6432   -1.9751   21.9604 N   0  0  0  0  0  0  0  0  0  0  0  0
    8.2772   -1.1227   22.9227 C   0  0  0  0  0  0  0  0  0  0  0  0
    7.4143   -0.2358   22.3183 C   0  0  0  0  0  0  0  0  0  0  0  0
    6.7764    0.8725   22.9050 N   0  0  0  0  0  0  0  0  0  0  0  0
    6.8301    0.8061   23.9167 H   0  0  0  0  0  0  0  0  0  0  0  0
    7.3481    2.1511   22.4612 C   0  0  0  0  0  0  0  0  0  0  0  0
    8.2987    2.3589   22.9740 H   0  0  0  0  0  0  0  0  0  0  0  0
    7.5621    2.0662   21.3920 H   0  0  0  0  0  0  0  0  0  0  0  0
    6.3769    3.2898   22.6697 C   0  0  0  0  0  0  0  0  0  0  0  0
    6.7337    4.1793   22.1259 H   0  0  0  0  0  0  0  0  0  0  0  0
    5.4098    2.9999   22.2220 H   0  0  0  0  0  0  0  0  0  0  0  0
    6.2637    3.5483   24.0531 O   0  0  0  0  0  0  0  0  0  0  0  0
    5.2257    4.4284   24.3933 C   0  0  0  0  0  0  0  0  0  0  0  0
    5.2107    4.4862   25.4835 H   0  0  0  0  0  0  0  0  0  0  0  0
    4.2482    4.0605   24.0430 H   0  0  0  0  0  0  0  0  0  0  0  0
    5.3859    5.4353   23.9764 H   0  0  0  0  0  0  0  0  0  0  0  0
    9.0228   -1.4144   24.1970 C   0  0  0  0  0  0  0  0  0  0  0  0
    8.3319   -1.6566   25.0101 H   0  0  0  0  0  0  0  0  0  0  0  0
    9.6277   -0.5630   24.5271 H   0  0  0  0  0  0  0  0  0  0  0  0
    9.9279   -2.6201   23.8093 C   0  0  0  0  0  0  0  0  0  0  0  0
    9.7797   -3.4584   24.4898 H   0  0  0  0  0  0  0  0  0  0  0  0
   10.9753   -2.3422   23.8421 H   0  0  0  0  0  0  0  0  0  0  0  0
    9.5867   -2.9912   22.3398 C   0  0  0  0  0  0  0  0  0  0  0  0
    9.1207   -3.9733   22.2391 H   0  0  0  0  0  0  0  0  0  0  0  0
   10.4611   -2.9096   21.6902 H   0  0  0  0  0  0  0  0  0  0  0  0
    5.4294    0.6585   20.1006 C   0  0  0  0  0  0  0  0  0  0  0  0
    5.0125    0.6691   21.1097 H   0  0  0  0  0  0  0  0  0  0  0  0
    4.8036    1.3139   19.0450 C   0  0  0  0  0  0  0  0  0  0  0  0
    3.8714    1.8490   19.1826 H   0  0  0  0  0  0  0  0  0  0  0  0
  1  2  1  0
  2  3  2  0
  3  4  1  0
  4  5  1  0
  4  6  2  0
  6  7  1  0
  7  8  2  0
  8  9  1  0
  9 10  1  0
 10 11  2  0
 11 12  1  0
 12 13  1  0
 12 14  1  0
 14 15  1  0
 14 16  1  0
 14 17  1  0
 17 18  1  0
 17 19  1  0
 17 20  1  0
 20 21  1  0
 21 22  1  0
 21 23  1  0
 21 24  1  0
 10 25  1  0
 25 26  1  0
 25 27  1  0
 25 28  1  0
 28 29  1  0
 28 30  1  0
 28 31  1  0
 31 32  1  0
 31 33  1  0
  6 34  1  0
 34 35  1  0
 34 36  2  0
 36 37  1  0
 36  2  1  0
 11  7  1  0
 31  9  1  0
M  END
>  <cnnaffinity>  (1) 
-5.14758

>  <filename>  (1) 
COCCNc1c(-c2cccnc2)nn2c1CCC2

$$$$
