
     RDKit          3D

 49 52  0  0  0  0  0  0  0  0999 V2000
    9.7927    1.2572   25.8996 C   0  0  0  0  0  0  0  0  0  0  0  0
   10.8486    1.0486   24.9929 O   0  0  0  0  0  0  0  0  0  0  0  0
   10.5498    0.0890   24.0052 C   0  0  0  0  0  0  0  0  0  0  0  0
   11.7162   -0.1806   23.0882 C   0  0  0  0  0  0  0  0  0  0  0  0
   12.9033    0.7729   23.1446 C   0  0  0  0  0  0  0  0  0  0  0  0
   13.9922    0.6922   22.4228 C   0  0  0  0  0  0  0  0  0  0  0  0
   14.0704   -1.5145   21.4360 C   0  0  0  0  0  0  0  0  0  0  0  0
   12.7344   -1.5932   21.2914 C   0  0  0  0  0  0  0  0  0  0  0  0
   11.6415   -1.1981   22.1867 C   0  0  0  0  0  0  0  0  0  0  0  0
   10.4000   -2.1049   22.0601 C   0  0  0  0  0  0  0  0  0  0  0  0
    9.0680   -1.4692   21.8194 C   0  0  0  0  0  0  0  0  0  0  0  0
    8.7189   -0.9884   20.6452 N   0  0  0  0  0  0  0  0  0  0  0  0
    7.4828   -0.4724   20.8643 C   0  0  0  0  0  0  0  0  0  0  0  0
    6.7177    0.1661   19.7996 C   0  0  0  0  0  0  0  0  0  0  0  0
    5.4769    0.7882   20.0112 C   0  0  0  0  0  0  0  0  0  0  0  0
    4.8420    1.3508   18.9073 C   0  0  0  0  0  0  0  0  0  0  0  0
    5.4619    1.2713   17.6532 C   0  0  0  0  0  0  0  0  0  0  0  0
    6.6435    0.6705   17.4454 N   0  0  0  0  0  0  0  0  0  0  0  0
    7.2523    0.1350   18.5066 C   0  0  0  0  0  0  0  0  0  0  0  0
    8.2081   -0.3542   18.3267 H   0  0  0  0  0  0  0  0  0  0  0  0
    4.9865    1.7005   16.7749 H   0  0  0  0  0  0  0  0  0  0  0  0
    3.8879    1.8568   19.0051 H   0  0  0  0  0  0  0  0  0  0  0  0
    5.0387    0.8206   21.0126 H   0  0  0  0  0  0  0  0  0  0  0  0
    7.0403   -0.6071   22.0967 N   0  0  0  0  0  0  0  0  0  0  0  0
    8.0321   -1.3139   22.6989 N   0  0  0  0  0  0  0  0  0  0  0  0
    7.8458   -1.6841   24.0538 C   0  0  0  0  0  0  0  0  0  0  0  0
    8.1322   -2.9440   24.5843 C   0  0  0  0  0  0  0  0  0  0  0  0
    7.9381   -3.1503   25.9627 C   0  0  0  0  0  0  0  0  0  0  0  0
    8.1092   -4.5108   26.5972 C   0  0  0  0  0  0  0  0  0  0  0  0
    7.7351   -5.3038   25.9378 H   0  0  0  0  0  0  0  0  0  0  0  0
    9.1592   -4.7373   26.8215 H   0  0  0  0  0  0  0  0  0  0  0  0
    7.5498   -4.5769   27.5381 H   0  0  0  0  0  0  0  0  0  0  0  0
    7.5490   -2.0382   26.7295 C   0  0  0  0  0  0  0  0  0  0  0  0
    7.2503   -0.8305   26.2257 N   0  0  0  0  0  0  0  0  0  0  0  0
    7.3416   -0.6906   24.9023 C   0  0  0  0  0  0  0  0  0  0  0  0
    7.0377    0.2598   24.4736 H   0  0  0  0  0  0  0  0  0  0  0  0
    7.4587   -2.1345   27.8049 H   0  0  0  0  0  0  0  0  0  0  0  0
    8.4659   -3.7625   23.9462 H   0  0  0  0  0  0  0  0  0  0  0  0
   10.5285   -2.7076   21.1687 H   0  0  0  0  0  0  0  0  0  0  0  0
   10.3622   -2.7943   22.9070 H   0  0  0  0  0  0  0  0  0  0  0  0
   12.4062   -2.1379   20.4103 H   0  0  0  0  0  0  0  0  0  0  0  0
   14.6209   -2.0935   20.6845 H   0  0  0  0  0  0  0  0  0  0  0  0
   14.6254   -1.1262   22.2983 H   0  0  0  0  0  0  0  0  0  0  0  0
   12.7494    1.6184   23.8656 H   0  0  0  0  0  0  0  0  0  0  0  0
    9.7143    0.4591   23.3919 H   0  0  0  0  0  0  0  0  0  0  0  0
   10.2252   -0.8570   24.4694 H   0  0  0  0  0  0  0  0  0  0  0  0
    9.9991    2.1864   26.4295 H   0  0  0  0  0  0  0  0  0  0  0  0
    9.7023    0.4260   26.6158 H   0  0  0  0  0  0  0  0  0  0  0  0
    8.8195    1.3902   25.4042 H   0  0  0  0  0  0  0  0  0  0  0  0
  1  2  1  0
  2  3  1  0
  3  4  1  0
  4  5  2  0
  5  6  1  0
  6  7  2  0
  7  8  1  0
  8  9  2  0
  9 10  1  0
 10 11  1  0
 11 12  2  0
 12 13  1  0
 13 14  1  0
 14 15  2  0
 15 16  1  0
 16 17  2  0
 17 18  1  0
 18 19  2  0
 19 20  1  0
 17 21  1  0
 16 22  1  0
 15 23  1  0
 13 24  2  0
 24 25  1  0
 25 26  1  0
 26 27  2  0
 27 28  1  0
 28 29  1  0
 29 30  1  0
 29 31  1  0
 29 32  1  0
 28 33  2  0
 33 34  1  0
 34 35  2  0
 35 36  1  0
 33 37  1  0
 27 38  1  0
 10 39  1  0
 10 40  1  0
  8 41  1  0
  7 42  1  0
  6 43  1  0
  5 44  1  0
  3 45  1  0
  3 46  1  0
  1 47  1  0
  1 48  1  0
  1 49  1  0
  9  4  1  0
 25 11  1  0
 35 26  1  0
 19 14  1  0
M  END
>  <cnnaffinity>  (1) 
-6.67272

>  <filename>  (1) 
COCc1ccccc1Cc1nc(-c2cccnc2)nn1-c1cncc(C)c1

$$$$
