
     RDKit          3D

 37 39  0  0  0  0  0  0  0  0999 V2000
    7.3864   -4.5086   23.8668 C   0  0  0  0  0  0  0  0  0  0  0  0
    7.7562   -4.5883   22.5006 O   0  0  0  0  0  0  0  0  0  0  0  0
    8.5576   -3.5178   22.0362 C   0  0  0  0  0  0  0  0  0  0  0  0
    7.8893   -2.1646   21.9078 C   0  0  0  0  0  0  0  0  0  0  0  0
    7.4619   -1.7351   20.7412 N   0  0  0  0  0  0  0  0  0  0  0  0
    7.0023   -0.4854   21.0052 N   0  0  0  0  0  0  0  0  0  0  0  0
    6.4197    0.2429   19.9282 C   0  0  0  0  0  0  0  0  0  0  0  0
    5.2287    0.9780   20.0159 C   0  0  0  0  0  0  0  0  0  0  0  0
    4.7202    1.5364   18.8333 C   0  0  0  0  0  0  0  0  0  0  0  0
    5.4204    1.3822   17.6362 C   0  0  0  0  0  0  0  0  0  0  0  0
    6.5630    0.6776   17.5505 N   0  0  0  0  0  0  0  0  0  0  0  0
    7.0330    0.1222   18.6677 C   0  0  0  0  0  0  0  0  0  0  0  0
    7.9512   -0.4528   18.5848 H   0  0  0  0  0  0  0  0  0  0  0  0
    5.0564    1.8232   16.7099 H   0  0  0  0  0  0  0  0  0  0  0  0
    3.7954    2.1023   18.8343 H   0  0  0  0  0  0  0  0  0  0  0  0
    4.7057    1.0963   20.9637 H   0  0  0  0  0  0  0  0  0  0  0  0
    7.2672   -0.1901   22.3164 C   0  0  0  0  0  0  0  0  0  0  0  0
    7.1250    1.1438   22.9911 C   0  0  0  0  0  0  0  0  0  0  0  0
    8.4557    1.6270   23.5724 C   0  0  0  0  0  0  0  0  0  0  0  0
    9.4414    2.1812   22.7286 C   0  0  0  0  0  0  0  0  0  0  0  0
    9.0480    2.5069   21.0649 Cl  0  0  0  0  0  0  0  0  0  0  0  0
   10.7339    2.4904   23.1640 C   0  0  0  0  0  0  0  0  0  0  0  0
   11.0842    2.2235   24.4885 C   0  0  0  0  0  0  0  0  0  0  0  0
   10.1420    1.6820   25.3635 C   0  0  0  0  0  0  0  0  0  0  0  0
    8.8352    1.4476   24.9198 C   0  0  0  0  0  0  0  0  0  0  0  0
    7.6621    0.9941   26.1329 Cl  0  0  0  0  0  0  0  0  0  0  0  0
   10.4024    1.4471   26.3889 H   0  0  0  0  0  0  0  0  0  0  0  0
   12.0910    2.4398   24.8382 H   0  0  0  0  0  0  0  0  0  0  0  0
   11.4414    2.9368   22.4698 H   0  0  0  0  0  0  0  0  0  0  0  0
    6.7613    1.8879   22.2769 H   0  0  0  0  0  0  0  0  0  0  0  0
    6.3891    1.0451   23.7931 H   0  0  0  0  0  0  0  0  0  0  0  0
    7.8069   -1.2454   22.9056 N   0  0  0  0  0  0  0  0  0  0  0  0
    9.4652   -3.4032   22.6535 H   0  0  0  0  0  0  0  0  0  0  0  0
    8.8499   -3.8025   21.0273 H   0  0  0  0  0  0  0  0  0  0  0  0
    8.2393   -4.7087   24.5333 H   0  0  0  0  0  0  0  0  0  0  0  0
    6.6211   -5.2718   24.0260 H   0  0  0  0  0  0  0  0  0  0  0  0
    6.9686   -3.5254   24.1290 H   0  0  0  0  0  0  0  0  0  0  0  0
  1  2  1  0
  2  3  1  0
  3  4  1  0
  4  5  2  0
  5  6  1  0
  6  7  1  0
  7  8  2  0
  8  9  1  0
  9 10  2  0
 10 11  1  0
 11 12  2  0
 12 13  1  0
 10 14  1  0
  9 15  1  0
  8 16  1  0
  6 17  1  0
 17 18  1  0
 18 19  1  0
 19 20  2  0
 20 21  1  0
 20 22  1  0
 22 23  2  0
 23 24  1  0
 24 25  2  0
 25 26  1  0
 24 27  1  0
 23 28  1  0
 22 29  1  0
 18 30  1  0
 18 31  1  0
 17 32  2  0
  3 33  1  0
  3 34  1  0
  1 35  1  0
  1 36  1  0
  1 37  1  0
 32  4  1  0
 12  7  1  0
 25 19  1  0
M  END
>  <cnnaffinity>  (1) 
-5.67823

>  <filename>  (1) 
COCc1nc(Cc2c(Cl)cccc2Cl)n(-c2cccnc2)n1

$$$$
