
     RDKit          3D

 32 33  0  0  0  0  0  0  0  0999 V2000
    4.9442    1.7691   17.0117 H   0  0  0  0  0  0  0  0  0  0  0  0
    5.4144    1.2742   17.8581 C   0  0  0  0  0  0  0  0  0  0  0  0
    6.5740    0.6526   17.6087 N   0  0  0  0  0  0  0  0  0  0  0  0
    7.1890    0.0487   18.6299 C   0  0  0  0  0  0  0  0  0  0  0  0
    8.1393   -0.4259   18.3866 H   0  0  0  0  0  0  0  0  0  0  0  0
    6.6674    0.0019   19.9298 C   0  0  0  0  0  0  0  0  0  0  0  0
    7.4222   -0.7251   20.9803 C   0  0  0  0  0  0  0  0  0  0  0  0
    8.7328   -0.7028   20.8956 N   0  0  0  0  0  0  0  0  0  0  0  0
    9.4491   -1.3320   21.8757 C   0  0  0  0  0  0  0  0  0  0  0  0
   10.6567   -1.3848   21.9523 O   0  0  0  0  0  0  0  0  0  0  0  0
    8.7612   -1.9935   22.8904 N   0  0  0  0  0  0  0  0  0  0  0  0
    9.3695   -2.4293   23.5507 H   0  0  0  0  0  0  0  0  0  0  0  0
    7.4315   -2.0409   22.9484 C   0  0  0  0  0  0  0  0  0  0  0  0
    6.8608   -2.7226   23.9506 N   0  0  0  0  0  0  0  0  0  0  0  0
    5.8596   -2.6360   23.8999 H   0  0  0  0  0  0  0  0  0  0  0  0
    7.5129   -3.4370   25.0457 C   0  0  0  0  0  0  0  0  0  0  0  0
    8.1544   -4.2463   24.6569 H   0  0  0  0  0  0  0  0  0  0  0  0
    8.1584   -2.7702   25.6405 H   0  0  0  0  0  0  0  0  0  0  0  0
    6.4965   -4.0637   26.0186 C   0  0  0  0  0  0  0  0  0  0  0  0
    5.8781   -3.2796   26.4746 H   0  0  0  0  0  0  0  0  0  0  0  0
    5.8156   -4.7463   25.4782 H   0  0  0  0  0  0  0  0  0  0  0  0
    7.1578   -4.7331   27.0828 O   0  0  0  0  0  0  0  0  0  0  0  0
    7.3532   -6.1137   26.8697 C   0  0  0  0  0  0  0  0  0  0  0  0
    7.9679   -6.4852   27.6921 H   0  0  0  0  0  0  0  0  0  0  0  0
    6.3968   -6.6599   26.8643 H   0  0  0  0  0  0  0  0  0  0  0  0
    7.8704   -6.3275   25.9207 H   0  0  0  0  0  0  0  0  0  0  0  0
    6.7069   -1.4024   21.9770 C   0  0  0  0  0  0  0  0  0  0  0  0
    5.6385   -1.4699   21.9575 H   0  0  0  0  0  0  0  0  0  0  0  0
    5.4439    0.6452   20.1751 C   0  0  0  0  0  0  0  0  0  0  0  0
    4.9987    0.6518   21.1725 H   0  0  0  0  0  0  0  0  0  0  0  0
    4.8174    1.3014   19.1205 C   0  0  0  0  0  0  0  0  0  0  0  0
    3.8864    1.8333   19.2608 H   0  0  0  0  0  0  0  0  0  0  0  0
  1  2  1  0
  2  3  2  0
  3  4  1  0
  4  5  1  0
  4  6  2  0
  6  7  1  0
  7  8  2  0
  8  9  1  0
  9 10  2  0
  9 11  1  0
 11 12  1  0
 11 13  1  0
 13 14  1  0
 14 15  1  0
 14 16  1  0
 16 17  1  0
 16 18  1  0
 16 19  1  0
 19 20  1  0
 19 21  1  0
 19 22  1  0
 22 23  1  0
 23 24  1  0
 23 25  1  0
 23 26  1  0
 13 27  2  0
 27 28  1  0
  6 29  1  0
 29 30  1  0
 29 31  2  0
 31 32  1  0
 31  2  1  0
 27  7  1  0
M  END
>  <cnnaffinity>  (1) 
-4.61131

>  <filename>  (1) 
COCCNc1cc(-c2cccnc2)nc(=O)[nH]1

$$$$
