
     RDKit          3D

 43 45  0  0  0  0  0  0  0  0999 V2000
    6.8136   -5.8404   21.3488 C   0  0  0  0  0  0  0  0  0  0  0  0
    6.6145   -4.8297   22.3127 O   0  0  0  0  0  0  0  0  0  0  0  0
    7.7775   -4.4443   23.0065 C   0  0  0  0  0  0  0  0  0  0  0  0
    8.6437   -3.5096   22.1670 C   0  0  0  0  0  0  0  0  0  0  0  0
    8.0100   -2.1838   21.9216 C   0  0  0  0  0  0  0  0  0  0  0  0
    7.6381   -1.8153   20.7206 N   0  0  0  0  0  0  0  0  0  0  0  0
    7.1388   -0.5700   20.9141 N   0  0  0  0  0  0  0  0  0  0  0  0
    6.5036    0.1011   19.8354 C   0  0  0  0  0  0  0  0  0  0  0  0
    5.2901    0.7811   19.9965 C   0  0  0  0  0  0  0  0  0  0  0  0
    4.7408    1.4102   18.8750 C   0  0  0  0  0  0  0  0  0  0  0  0
    5.4228    1.3454   17.6565 C   0  0  0  0  0  0  0  0  0  0  0  0
    6.5773    0.6726   17.4944 N   0  0  0  0  0  0  0  0  0  0  0  0
    7.0888    0.0491   18.5576 C   0  0  0  0  0  0  0  0  0  0  0  0
    8.0058   -0.5199   18.4070 H   0  0  0  0  0  0  0  0  0  0  0  0
    5.0240    1.8324   16.7697 H   0  0  0  0  0  0  0  0  0  0  0  0
    3.8035    1.9525   18.9383 H   0  0  0  0  0  0  0  0  0  0  0  0
    4.7904    0.7997   20.9666 H   0  0  0  0  0  0  0  0  0  0  0  0
    7.3313   -0.2150   22.2201 C   0  0  0  0  0  0  0  0  0  0  0  0
    7.1590    1.1704   22.7830 C   0  0  0  0  0  0  0  0  0  0  0  0
    8.4307    1.6243   23.4994 C   0  0  0  0  0  0  0  0  0  0  0  0
    9.5191    2.1134   22.7679 C   0  0  0  0  0  0  0  0  0  0  0  0
    9.3514    2.3758   21.0560 Cl  0  0  0  0  0  0  0  0  0  0  0  0
   10.7698    2.3392   23.3510 C   0  0  0  0  0  0  0  0  0  0  0  0
   10.9532    2.0591   24.7045 C   0  0  0  0  0  0  0  0  0  0  0  0
    9.8804    1.5766   25.4596 C   0  0  0  0  0  0  0  0  0  0  0  0
    8.6182    1.3711   24.8804 C   0  0  0  0  0  0  0  0  0  0  0  0
    7.4665    0.8341   25.6971 C   0  0  0  0  0  0  0  0  0  0  0  0
    7.7080    0.7321   26.7599 H   0  0  0  0  0  0  0  0  0  0  0  0
    6.5892    1.4889   25.6196 H   0  0  0  0  0  0  0  0  0  0  0  0
    7.1753   -0.1510   25.3102 H   0  0  0  0  0  0  0  0  0  0  0  0
   10.0312    1.2948   26.4983 H   0  0  0  0  0  0  0  0  0  0  0  0
   11.9310    2.1954   25.1698 H   0  0  0  0  0  0  0  0  0  0  0  0
   11.5713    2.6871   22.7100 H   0  0  0  0  0  0  0  0  0  0  0  0
    6.3004    1.1593   23.4606 H   0  0  0  0  0  0  0  0  0  0  0  0
    6.9211    1.8718   21.9820 H   0  0  0  0  0  0  0  0  0  0  0  0
    7.8402   -1.2426   22.8826 N   0  0  0  0  0  0  0  0  0  0  0  0
    8.8126   -3.9386   21.1788 H   0  0  0  0  0  0  0  0  0  0  0  0
    9.6095   -3.3635   22.6564 H   0  0  0  0  0  0  0  0  0  0  0  0
    7.4499   -3.9190   23.9071 H   0  0  0  0  0  0  0  0  0  0  0  0
    8.3609   -5.3206   23.3392 H   0  0  0  0  0  0  0  0  0  0  0  0
    7.6829   -5.6461   20.7016 H   0  0  0  0  0  0  0  0  0  0  0  0
    5.9192   -5.8544   20.7255 H   0  0  0  0  0  0  0  0  0  0  0  0
    6.9483   -6.8333   21.8052 H   0  0  0  0  0  0  0  0  0  0  0  0
  1  2  1  0
  2  3  1  0
  3  4  1  0
  4  5  1  0
  5  6  2  0
  6  7  1  0
  7  8  1  0
  8  9  2  0
  9 10  1  0
 10 11  2  0
 11 12  1  0
 12 13  2  0
 13 14  1  0
 11 15  1  0
 10 16  1  0
  9 17  1  0
  7 18  1  0
 18 19  1  0
 19 20  1  0
 20 21  2  0
 21 22  1  0
 21 23  1  0
 23 24  2  0
 24 25  1  0
 25 26  2  0
 26 27  1  0
 27 28  1  0
 27 29  1  0
 27 30  1  0
 25 31  1  0
 24 32  1  0
 23 33  1  0
 19 34  1  0
 19 35  1  0
 18 36  2  0
  4 37  1  0
  4 38  1  0
  3 39  1  0
  3 40  1  0
  1 41  1  0
  1 42  1  0
  1 43  1  0
 36  5  1  0
 13  8  1  0
 26 20  1  0
M  END
>  <cnnaffinity>  (1) 
-5.79427

>  <filename>  (1) 
COCCc1nc(Cc2c(C)cccc2Cl)n(-c2cccnc2)n1

$$$$
