
     RDKit          3D

 37 39  0  0  0  0  0  0  0  0999 V2000
    8.2817   -5.6517   23.1794 C   0  0  0  0  0  0  0  0  0  0  0  0
    7.6909   -4.3962   22.9365 O   0  0  0  0  0  0  0  0  0  0  0  0
    8.5022   -3.5296   22.1679 C   0  0  0  0  0  0  0  0  0  0  0  0
    7.8576   -2.2017   21.9111 C   0  0  0  0  0  0  0  0  0  0  0  0
    7.4458   -1.8334   20.7158 N   0  0  0  0  0  0  0  0  0  0  0  0
    7.0148   -0.5630   20.9140 N   0  0  0  0  0  0  0  0  0  0  0  0
    6.4380    0.1417   19.8286 C   0  0  0  0  0  0  0  0  0  0  0  0
    5.2541    0.8770   19.9513 C   0  0  0  0  0  0  0  0  0  0  0  0
    4.7521    1.4954   18.8011 C   0  0  0  0  0  0  0  0  0  0  0  0
    5.4453    1.3582   17.5936 C   0  0  0  0  0  0  0  0  0  0  0  0
    6.5777    0.6388   17.4712 N   0  0  0  0  0  0  0  0  0  0  0  0
    7.0562    0.0499   18.5677 C   0  0  0  0  0  0  0  0  0  0  0  0
    7.9865   -0.5096   18.4761 H   0  0  0  0  0  0  0  0  0  0  0  0
    5.0765    1.8368   16.6902 H   0  0  0  0  0  0  0  0  0  0  0  0
    3.8422    2.0857   18.8405 H   0  0  0  0  0  0  0  0  0  0  0  0
    4.7402    0.9481   20.9121 H   0  0  0  0  0  0  0  0  0  0  0  0
    7.2627   -0.2115   22.2152 C   0  0  0  0  0  0  0  0  0  0  0  0
    7.0666    1.1077   22.8942 C   0  0  0  0  0  0  0  0  0  0  0  0
    8.4004    1.6371   23.4098 C   0  0  0  0  0  0  0  0  0  0  0  0
    8.8499    1.2840   24.6900 C   0  0  0  0  0  0  0  0  0  0  0  0
   10.1673    1.5592   25.0540 C   0  0  0  0  0  0  0  0  0  0  0  0
   10.6109    1.1348   26.2408 F   0  0  0  0  0  0  0  0  0  0  0  0
   11.0549    2.2244   24.2169 C   0  0  0  0  0  0  0  0  0  0  0  0
   10.5891    2.6474   22.9719 C   0  0  0  0  0  0  0  0  0  0  0  0
    9.2846    2.3272   22.5673 C   0  0  0  0  0  0  0  0  0  0  0  0
    8.8047    2.7199   20.9491 Cl  0  0  0  0  0  0  0  0  0  0  0  0
   11.2260    3.2042   22.2963 H   0  0  0  0  0  0  0  0  0  0  0  0
   12.0890    2.3488   24.5326 H   0  0  0  0  0  0  0  0  0  0  0  0
    8.2080    0.7436   25.3801 H   0  0  0  0  0  0  0  0  0  0  0  0
    6.5840    1.8278   22.2325 H   0  0  0  0  0  0  0  0  0  0  0  0
    6.4003    0.9111   23.7380 H   0  0  0  0  0  0  0  0  0  0  0  0
    7.7754   -1.2389   22.8583 N   0  0  0  0  0  0  0  0  0  0  0  0
    9.4498   -3.3108   22.6877 H   0  0  0  0  0  0  0  0  0  0  0  0
    8.7249   -3.9706   21.1853 H   0  0  0  0  0  0  0  0  0  0  0  0
    7.5110   -6.2730   23.6366 H   0  0  0  0  0  0  0  0  0  0  0  0
    9.1352   -5.5816   23.8703 H   0  0  0  0  0  0  0  0  0  0  0  0
    8.6185   -6.1383   22.2508 H   0  0  0  0  0  0  0  0  0  0  0  0
  1  2  1  0
  2  3  1  0
  3  4  1  0
  4  5  2  0
  5  6  1  0
  6  7  1  0
  7  8  2  0
  8  9  1  0
  9 10  2  0
 10 11  1  0
 11 12  2  0
 12 13  1  0
 10 14  1  0
  9 15  1  0
  8 16  1  0
  6 17  1  0
 17 18  1  0
 18 19  1  0
 19 20  2  0
 20 21  1  0
 21 22  1  0
 21 23  2  0
 23 24  1  0
 24 25  2  0
 25 26  1  0
 24 27  1  0
 23 28  1  0
 20 29  1  0
 18 30  1  0
 18 31  1  0
 17 32  2  0
  3 33  1  0
  3 34  1  0
  1 35  1  0
  1 36  1  0
  1 37  1  0
 32  4  1  0
 12  7  1  0
 25 19  1  0
M  END
>  <cnnaffinity>  (1) 
-5.50761

>  <filename>  (1) 
COCc1nc(Cc2cc(F)ccc2Cl)n(-c2cccnc2)n1

$$$$
