
     RDKit          3D

 40 42  0  0  0  0  0  0  0  0999 V2000
    7.1382   -5.8704   21.0768 C   0  0  0  0  0  0  0  0  0  0  0  0
    6.8699   -4.8600   22.0244 O   0  0  0  0  0  0  0  0  0  0  0  0
    7.9686   -4.5033   22.8382 C   0  0  0  0  0  0  0  0  0  0  0  0
    8.8481   -3.4933   22.1081 C   0  0  0  0  0  0  0  0  0  0  0  0
    8.2248   -2.1674   21.9021 C   0  0  0  0  0  0  0  0  0  0  0  0
    7.8817   -1.7464   20.7093 N   0  0  0  0  0  0  0  0  0  0  0  0
    7.3427   -0.5300   20.9554 N   0  0  0  0  0  0  0  0  0  0  0  0
    6.6202    0.0966   19.9114 C   0  0  0  0  0  0  0  0  0  0  0  0
    5.3972    0.7329   20.1278 C   0  0  0  0  0  0  0  0  0  0  0  0
    4.7924    1.3454   19.0295 C   0  0  0  0  0  0  0  0  0  0  0  0
    5.4221    1.2932   17.7819 C   0  0  0  0  0  0  0  0  0  0  0  0
    6.5692    0.6268   17.5632 N   0  0  0  0  0  0  0  0  0  0  0  0
    7.1382    0.0195   18.6065 C   0  0  0  0  0  0  0  0  0  0  0  0
    8.0456   -0.5550   18.4326 H   0  0  0  0  0  0  0  0  0  0  0  0
    4.9905    1.7993   16.9205 H   0  0  0  0  0  0  0  0  0  0  0  0
    3.8426    1.8540   19.1309 H   0  0  0  0  0  0  0  0  0  0  0  0
    4.9451    0.7421   21.1224 H   0  0  0  0  0  0  0  0  0  0  0  0
    7.4529   -0.2533   22.2923 C   0  0  0  0  0  0  0  0  0  0  0  0
    7.1496    1.0711   22.8885 C   0  0  0  0  0  0  0  0  0  0  0  0
    7.5346    2.2520   22.2198 C   0  0  0  0  0  0  0  0  0  0  0  0
    7.2676    3.4992   22.7744 C   0  0  0  0  0  0  0  0  0  0  0  0
    6.6019    3.5977   23.9960 C   0  0  0  0  0  0  0  0  0  0  0  0
    6.2215    2.4288   24.6566 C   0  0  0  0  0  0  0  0  0  0  0  0
    5.3634    2.6155   26.1689 Cl  0  0  0  0  0  0  0  0  0  0  0  0
    6.4861    1.1424   24.1429 C   0  0  0  0  0  0  0  0  0  0  0  0
    6.0751   -0.1032   24.8993 C   0  0  0  0  0  0  0  0  0  0  0  0
    5.1338    0.0404   25.4365 H   0  0  0  0  0  0  0  0  0  0  0  0
    5.9794   -0.9529   24.2217 H   0  0  0  0  0  0  0  0  0  0  0  0
    6.8464   -0.3794   25.6255 H   0  0  0  0  0  0  0  0  0  0  0  0
    6.3703    4.5669   24.4272 H   0  0  0  0  0  0  0  0  0  0  0  0
    7.5682    4.4012   22.2519 H   0  0  0  0  0  0  0  0  0  0  0  0
    8.0333    2.2024   21.2546 H   0  0  0  0  0  0  0  0  0  0  0  0
    7.9701   -1.3113   22.9124 N   0  0  0  0  0  0  0  0  0  0  0  0
    9.0000   -3.8504   21.0931 H   0  0  0  0  0  0  0  0  0  0  0  0
    9.8105   -3.3448   22.6029 H   0  0  0  0  0  0  0  0  0  0  0  0
    8.5718   -5.3806   23.1393 H   0  0  0  0  0  0  0  0  0  0  0  0
    7.5533   -4.0746   23.7557 H   0  0  0  0  0  0  0  0  0  0  0  0
    6.3176   -5.8668   20.3577 H   0  0  0  0  0  0  0  0  0  0  0  0
    7.1885   -6.8649   21.5435 H   0  0  0  0  0  0  0  0  0  0  0  0
    8.0760   -5.7062   20.5225 H   0  0  0  0  0  0  0  0  0  0  0  0
  1  2  1  0
  2  3  1  0
  3  4  1  0
  4  5  1  0
  5  6  2  0
  6  7  1  0
  7  8  1  0
  8  9  2  0
  9 10  1  0
 10 11  2  0
 11 12  1  0
 12 13  2  0
 13 14  1  0
 11 15  1  0
 10 16  1  0
  9 17  1  0
  7 18  1  0
 18 19  1  0
 19 20  2  0
 20 21  1  0
 21 22  2  0
 22 23  1  0
 23 24  1  0
 23 25  2  0
 25 26  1  0
 26 27  1  0
 26 28  1  0
 26 29  1  0
 22 30  1  0
 21 31  1  0
 20 32  1  0
 18 33  2  0
  4 34  1  0
  4 35  1  0
  3 36  1  0
  3 37  1  0
  1 38  1  0
  1 39  1  0
  1 40  1  0
 33  5  1  0
 13  8  1  0
 25 19  1  0
M  END
>  <cnnaffinity>  (1) 
-5.66879

>  <filename>  (1) 
COCCc1nc(-c2cccc(Cl)c2C)n(-c2cccnc2)n1

$$$$
