
     RDKit          3D

 42 44  0  0  0  0  0  0  0  0999 V2000
    6.2951   -4.9896   24.4139 C   0  0  0  0  0  0  0  0  0  0  0  0
    7.2435   -4.1386   23.8249 O   0  0  0  0  0  0  0  0  0  0  0  0
    7.7595   -4.5929   22.6063 C   0  0  0  0  0  0  0  0  0  0  0  0
    8.6601   -3.4900   22.0737 C   0  0  0  0  0  0  0  0  0  0  0  0
    7.9801   -2.1848   21.9049 C   0  0  0  0  0  0  0  0  0  0  0  0
    7.5384   -1.8386   20.7152 N   0  0  0  0  0  0  0  0  0  0  0  0
    7.0235   -0.6056   20.9236 N   0  0  0  0  0  0  0  0  0  0  0  0
    6.4174    0.0866   19.8455 C   0  0  0  0  0  0  0  0  0  0  0  0
    5.2183    0.7921   19.9868 C   0  0  0  0  0  0  0  0  0  0  0  0
    4.7039    1.4365   18.8584 C   0  0  0  0  0  0  0  0  0  0  0  0
    5.4024    1.3607   17.6510 C   0  0  0  0  0  0  0  0  0  0  0  0
    6.5396    0.6544   17.5066 N   0  0  0  0  0  0  0  0  0  0  0  0
    7.0194    0.0190   18.5765 C   0  0  0  0  0  0  0  0  0  0  0  0
    7.9214   -0.5744   18.4305 H   0  0  0  0  0  0  0  0  0  0  0  0
    5.0439    1.8779   16.7650 H   0  0  0  0  0  0  0  0  0  0  0  0
    3.7891    2.0153   18.9133 H   0  0  0  0  0  0  0  0  0  0  0  0
    4.7021    0.8283   20.9474 H   0  0  0  0  0  0  0  0  0  0  0  0
    7.2564   -0.2441   22.2218 C   0  0  0  0  0  0  0  0  0  0  0  0
    6.9489    1.1060   22.8041 C   0  0  0  0  0  0  0  0  0  0  0  0
    8.0899    1.6234   23.6493 C   0  0  0  0  0  0  0  0  0  0  0  0
    8.1415    1.3447   25.0158 C   0  0  0  0  0  0  0  0  0  0  0  0
    9.3260    1.6146   25.7031 C   0  0  0  0  0  0  0  0  0  0  0  0
   10.3672    2.2209   25.1415 N   0  0  0  0  0  0  0  0  0  0  0  0
   10.2800    2.6012   23.8570 C   0  0  0  0  0  0  0  0  0  0  0  0
   11.5083    3.3487   23.3087 C   0  0  0  0  0  0  0  0  0  0  0  0
   12.5249    2.4978   23.0785 F   0  0  0  0  0  0  0  0  0  0  0  0
   11.2411    3.9791   22.1549 F   0  0  0  0  0  0  0  0  0  0  0  0
   11.9578    4.2868   24.1573 F   0  0  0  0  0  0  0  0  0  0  0  0
    9.1726    2.2805   23.0535 C   0  0  0  0  0  0  0  0  0  0  0  0
    9.1493    2.5035   21.9891 H   0  0  0  0  0  0  0  0  0  0  0  0
    9.4375    1.3330   26.7463 H   0  0  0  0  0  0  0  0  0  0  0  0
    7.3023    0.9131   25.5502 H   0  0  0  0  0  0  0  0  0  0  0  0
    6.0353    1.0215   23.4042 H   0  0  0  0  0  0  0  0  0  0  0  0
    6.7495    1.8146   21.9960 H   0  0  0  0  0  0  0  0  0  0  0  0
    7.8375   -1.2437   22.8640 N   0  0  0  0  0  0  0  0  0  0  0  0
    8.9898   -3.7410   21.0688 H   0  0  0  0  0  0  0  0  0  0  0  0
    9.5269   -3.3597   22.7309 H   0  0  0  0  0  0  0  0  0  0  0  0
    8.3569   -5.5146   22.7411 H   0  0  0  0  0  0  0  0  0  0  0  0
    6.9522   -4.8350   21.8880 H   0  0  0  0  0  0  0  0  0  0  0  0
    5.3973   -5.0950   23.7838 H   0  0  0  0  0  0  0  0  0  0  0  0
    6.0152   -4.5225   25.3592 H   0  0  0  0  0  0  0  0  0  0  0  0
    6.7053   -5.9915   24.6201 H   0  0  0  0  0  0  0  0  0  0  0  0
  1  2  1  0
  2  3  1  0
  3  4  1  0
  4  5  1  0
  5  6  2  0
  6  7  1  0
  7  8  1  0
  8  9  2  0
  9 10  1  0
 10 11  2  0
 11 12  1  0
 12 13  2  0
 13 14  1  0
 11 15  1  0
 10 16  1  0
  9 17  1  0
  7 18  1  0
 18 19  1  0
 19 20  1  0
 20 21  2  0
 21 22  1  0
 22 23  2  0
 23 24  1  0
 24 25  1  0
 25 26  1  0
 25 27  1  0
 25 28  1  0
 24 29  2  0
 29 30  1  0
 22 31  1  0
 21 32  1  0
 19 33  1  0
 19 34  1  0
 18 35  2  0
  4 36  1  0
  4 37  1  0
  3 38  1  0
  3 39  1  0
  1 40  1  0
  1 41  1  0
  1 42  1  0
 35  5  1  0
 13  8  1  0
 29 20  1  0
M  END
>  <cnnaffinity>  (1) 
-6.03599

>  <filename>  (1) 
COCCc1nc(Cc2ccnc(C(F)(F)F)c2)n(-c2cccnc2)n1

$$$$
