
     RDKit          3D

 37 39  0  0  0  0  0  0  0  0999 V2000
    7.0905   -5.0983   22.6086 C   0  0  0  0  0  0  0  0  0  0  0  0
    8.1527   -4.3753   23.2030 O   0  0  0  0  0  0  0  0  0  0  0  0
    8.8141   -3.4652   22.3475 C   0  0  0  0  0  0  0  0  0  0  0  0
    8.1559   -2.1359   22.0682 C   0  0  0  0  0  0  0  0  0  0  0  0
    7.8510   -1.2311   22.9775 N   0  0  0  0  0  0  0  0  0  0  0  0
    7.3272   -0.2168   22.2406 N   0  0  0  0  0  0  0  0  0  0  0  0
    7.1769    1.1207   22.8456 C   0  0  0  0  0  0  0  0  0  0  0  0
    8.4714    1.6393   23.4573 C   0  0  0  0  0  0  0  0  0  0  0  0
    8.6380    1.6079   24.8478 C   0  0  0  0  0  0  0  0  0  0  0  0
    9.8785    1.8666   25.4395 C   0  0  0  0  0  0  0  0  0  0  0  0
   10.9712    2.2303   24.6480 C   0  0  0  0  0  0  0  0  0  0  0  0
   10.8199    2.3362   23.2658 C   0  0  0  0  0  0  0  0  0  0  0  0
    9.5810    2.0258   22.6902 C   0  0  0  0  0  0  0  0  0  0  0  0
    9.4434    2.0784   20.9738 Cl  0  0  0  0  0  0  0  0  0  0  0  0
   11.6614    2.6222   22.6405 H   0  0  0  0  0  0  0  0  0  0  0  0
   11.9530    2.4037   25.0839 H   0  0  0  0  0  0  0  0  0  0  0  0
   10.0067    1.7355   26.5052 H   0  0  0  0  0  0  0  0  0  0  0  0
    7.7764    1.3590   25.4668 H   0  0  0  0  0  0  0  0  0  0  0  0
    6.8336    1.8136   22.0710 H   0  0  0  0  0  0  0  0  0  0  0  0
    6.4222    1.0391   23.6337 H   0  0  0  0  0  0  0  0  0  0  0  0
    7.3194   -0.5905   20.9294 C   0  0  0  0  0  0  0  0  0  0  0  0
    6.6152    0.1075   19.8639 C   0  0  0  0  0  0  0  0  0  0  0  0
    5.3889    0.7572   20.0616 C   0  0  0  0  0  0  0  0  0  0  0  0
    4.7924    1.3800   18.9717 C   0  0  0  0  0  0  0  0  0  0  0  0
    5.4349    1.3327   17.7298 C   0  0  0  0  0  0  0  0  0  0  0  0
    6.5868    0.6740   17.5216 N   0  0  0  0  0  0  0  0  0  0  0  0
    7.1453    0.0573   18.5685 C   0  0  0  0  0  0  0  0  0  0  0  0
    8.0564   -0.5062   18.3721 H   0  0  0  0  0  0  0  0  0  0  0  0
    4.9993    1.8276   16.8631 H   0  0  0  0  0  0  0  0  0  0  0  0
    3.8407    1.8867   19.0684 H   0  0  0  0  0  0  0  0  0  0  0  0
    4.9040    0.7407   21.0409 H   0  0  0  0  0  0  0  0  0  0  0  0
    7.9034   -1.7626   20.7842 N   0  0  0  0  0  0  0  0  0  0  0  0
    8.9696   -3.8800   21.3462 H   0  0  0  0  0  0  0  0  0  0  0  0
    9.7858   -3.2775   22.8147 H   0  0  0  0  0  0  0  0  0  0  0  0
    6.5342   -5.5461   23.4371 H   0  0  0  0  0  0  0  0  0  0  0  0
    7.4537   -5.8903   21.9309 H   0  0  0  0  0  0  0  0  0  0  0  0
    6.4261   -4.4453   22.0242 H   0  0  0  0  0  0  0  0  0  0  0  0
  1  2  1  0
  2  3  1  0
  3  4  1  0
  4  5  2  0
  5  6  1  0
  6  7  1  0
  7  8  1  0
  8  9  2  0
  9 10  1  0
 10 11  2  0
 11 12  1  0
 12 13  2  0
 13 14  1  0
 12 15  1  0
 11 16  1  0
 10 17  1  0
  9 18  1  0
  7 19  1  0
  7 20  1  0
  6 21  1  0
 21 22  1  0
 22 23  2  0
 23 24  1  0
 24 25  2  0
 25 26  1  0
 26 27  2  0
 27 28  1  0
 25 29  1  0
 24 30  1  0
 23 31  1  0
 21 32  2  0
  3 33  1  0
  3 34  1  0
  1 35  1  0
  1 36  1  0
  1 37  1  0
 32  4  1  0
 13  8  1  0
 27 22  1  0
M  END
>  <cnnaffinity>  (1) 
-5.20997

>  <filename>  (1) 
COCc1nc(-c2cccnc2)n(Cc2ccccc2Cl)n1

$$$$
