
     RDKit          3D

 40 42  0  0  0  0  0  0  0  0999 V2000
    7.3940   -4.6493   23.7657 C   0  0  0  0  0  0  0  0  0  0  0  0
    7.9472   -4.6268   22.4638 O   0  0  0  0  0  0  0  0  0  0  0  0
    8.7420   -3.5030   22.1308 C   0  0  0  0  0  0  0  0  0  0  0  0
    8.0684   -2.1573   21.9891 C   0  0  0  0  0  0  0  0  0  0  0  0
    7.6364   -1.7927   20.7964 N   0  0  0  0  0  0  0  0  0  0  0  0
    7.1805   -0.5392   20.9927 N   0  0  0  0  0  0  0  0  0  0  0  0
    6.5428    0.1268   19.9166 C   0  0  0  0  0  0  0  0  0  0  0  0
    5.3319    0.7981   20.0868 C   0  0  0  0  0  0  0  0  0  0  0  0
    4.7563    1.4124   18.9707 C   0  0  0  0  0  0  0  0  0  0  0  0
    5.4185    1.3408   17.7406 C   0  0  0  0  0  0  0  0  0  0  0  0
    6.5717    0.6700   17.5679 N   0  0  0  0  0  0  0  0  0  0  0  0
    7.1045    0.0563   18.6279 C   0  0  0  0  0  0  0  0  0  0  0  0
    8.0136   -0.5183   18.4602 H   0  0  0  0  0  0  0  0  0  0  0  0
    4.9855    1.8001   16.8545 H   0  0  0  0  0  0  0  0  0  0  0  0
    3.8041    1.9234   19.0439 H   0  0  0  0  0  0  0  0  0  0  0  0
    4.8526    0.8124   21.0659 H   0  0  0  0  0  0  0  0  0  0  0  0
    7.4512   -0.1602   22.2832 C   0  0  0  0  0  0  0  0  0  0  0  0
    7.2922    1.2280   22.8508 C   0  0  0  0  0  0  0  0  0  0  0  0
    8.5815    1.7313   23.4914 C   0  0  0  0  0  0  0  0  0  0  0  0
    9.6621    2.1853   22.7195 C   0  0  0  0  0  0  0  0  0  0  0  0
    9.4908    2.2019   20.9983 Cl  0  0  0  0  0  0  0  0  0  0  0  0
   10.8948    2.5828   23.2742 C   0  0  0  0  0  0  0  0  0  0  0  0
   12.0200    3.1584   22.4465 C   0  0  0  0  0  0  0  0  0  0  0  0
   12.3944    2.4081   21.7436 H   0  0  0  0  0  0  0  0  0  0  0  0
   12.8555    3.4809   23.0768 H   0  0  0  0  0  0  0  0  0  0  0  0
   11.6907    4.0224   21.8581 H   0  0  0  0  0  0  0  0  0  0  0  0
   11.0511    2.3886   24.6494 C   0  0  0  0  0  0  0  0  0  0  0  0
   10.0075    1.9220   25.4500 C   0  0  0  0  0  0  0  0  0  0  0  0
    8.7717    1.6297   24.8746 C   0  0  0  0  0  0  0  0  0  0  0  0
    7.9409    1.3096   25.4989 H   0  0  0  0  0  0  0  0  0  0  0  0
   10.1701    1.7673   26.5067 H   0  0  0  0  0  0  0  0  0  0  0  0
   12.0227    2.5934   25.0841 H   0  0  0  0  0  0  0  0  0  0  0  0
    6.9636    1.9222   22.0687 H   0  0  0  0  0  0  0  0  0  0  0  0
    6.5082    1.2056   23.6148 H   0  0  0  0  0  0  0  0  0  0  0  0
    7.9975   -1.1780   22.9316 N   0  0  0  0  0  0  0  0  0  0  0  0
    9.6188   -3.4094   22.7920 H   0  0  0  0  0  0  0  0  0  0  0  0
    9.0705   -3.7055   21.1125 H   0  0  0  0  0  0  0  0  0  0  0  0
    6.9610   -3.6795   24.0432 H   0  0  0  0  0  0  0  0  0  0  0  0
    6.5978   -5.3968   23.7393 H   0  0  0  0  0  0  0  0  0  0  0  0
    8.1239   -4.9431   24.5366 H   0  0  0  0  0  0  0  0  0  0  0  0
  1  2  1  0
  2  3  1  0
  3  4  1  0
  4  5  2  0
  5  6  1  0
  6  7  1  0
  7  8  2  0
  8  9  1  0
  9 10  2  0
 10 11  1  0
 11 12  2  0
 12 13  1  0
 10 14  1  0
  9 15  1  0
  8 16  1  0
  6 17  1  0
 17 18  1  0
 18 19  1  0
 19 20  2  0
 20 21  1  0
 20 22  1  0
 22 23  1  0
 23 24  1  0
 23 25  1  0
 23 26  1  0
 22 27  2  0
 27 28  1  0
 28 29  2  0
 29 30  1  0
 28 31  1  0
 27 32  1  0
 18 33  1  0
 18 34  1  0
 17 35  2  0
  3 36  1  0
  3 37  1  0
  1 38  1  0
  1 39  1  0
  1 40  1  0
 35  4  1  0
 12  7  1  0
 29 19  1  0
M  END
>  <cnnaffinity>  (1) 
-5.28756

>  <filename>  (1) 
COCc1nc(Cc2cccc(C)c2Cl)n(-c2cccnc2)n1

$$$$
