
     RDKit          3D

 40 42  0  0  0  0  0  0  0  0999 V2000
    6.9922   -5.8881   21.3761 C   0  0  0  0  0  0  0  0  0  0  0  0
    6.7642   -4.8212   22.2723 O   0  0  0  0  0  0  0  0  0  0  0  0
    7.8600   -4.4494   23.0834 C   0  0  0  0  0  0  0  0  0  0  0  0
    8.7814   -3.4899   22.3250 C   0  0  0  0  0  0  0  0  0  0  0  0
    8.1878   -2.1573   22.0281 C   0  0  0  0  0  0  0  0  0  0  0  0
    7.8743   -1.2666   22.9477 N   0  0  0  0  0  0  0  0  0  0  0  0
    7.3590   -0.2389   22.2158 N   0  0  0  0  0  0  0  0  0  0  0  0
    7.1860    1.0991   22.8099 C   0  0  0  0  0  0  0  0  0  0  0  0
    8.4537    1.6190   23.4598 C   0  0  0  0  0  0  0  0  0  0  0  0
    9.5885    2.0198   22.7336 C   0  0  0  0  0  0  0  0  0  0  0  0
    9.5131    2.0781   21.0194 Cl  0  0  0  0  0  0  0  0  0  0  0  0
   10.7941    2.3199   23.3936 C   0  0  0  0  0  0  0  0  0  0  0  0
   12.1859    2.9188   22.5544 Cl  0  0  0  0  0  0  0  0  0  0  0  0
   10.8849    2.1584   24.7756 C   0  0  0  0  0  0  0  0  0  0  0  0
    9.7496    1.8177   25.5046 C   0  0  0  0  0  0  0  0  0  0  0  0
    8.5435    1.5775   24.8514 C   0  0  0  0  0  0  0  0  0  0  0  0
    7.6576    1.3235   25.4263 H   0  0  0  0  0  0  0  0  0  0  0  0
    9.7962    1.7209   26.5771 H   0  0  0  0  0  0  0  0  0  0  0  0
   11.8548    2.2948   25.2429 H   0  0  0  0  0  0  0  0  0  0  0  0
    6.8702    1.8047   22.0394 H   0  0  0  0  0  0  0  0  0  0  0  0
    6.3927    1.0412   23.5609 H   0  0  0  0  0  0  0  0  0  0  0  0
    7.3586   -0.5996   20.9088 C   0  0  0  0  0  0  0  0  0  0  0  0
    6.6295    0.1084   19.8698 C   0  0  0  0  0  0  0  0  0  0  0  0
    5.3905    0.7372   20.0838 C   0  0  0  0  0  0  0  0  0  0  0  0
    4.7812    1.3587   19.0015 C   0  0  0  0  0  0  0  0  0  0  0  0
    5.4189    1.3237   17.7546 C   0  0  0  0  0  0  0  0  0  0  0  0
    6.5752    0.6753   17.5320 N   0  0  0  0  0  0  0  0  0  0  0  0
    7.1485    0.0687   18.5717 C   0  0  0  0  0  0  0  0  0  0  0  0
    8.0702   -0.4828   18.3822 H   0  0  0  0  0  0  0  0  0  0  0  0
    4.9808    1.8300   16.8982 H   0  0  0  0  0  0  0  0  0  0  0  0
    3.8360    1.8771   19.1108 H   0  0  0  0  0  0  0  0  0  0  0  0
    4.9113    0.7109   21.0674 H   0  0  0  0  0  0  0  0  0  0  0  0
    7.9499   -1.7701   20.7521 N   0  0  0  0  0  0  0  0  0  0  0  0
    9.7476   -3.3687   22.8277 H   0  0  0  0  0  0  0  0  0  0  0  0
    8.9417   -3.9191   21.3406 H   0  0  0  0  0  0  0  0  0  0  0  0
    7.4397   -3.9692   23.9742 H   0  0  0  0  0  0  0  0  0  0  0  0
    8.4338   -5.3298   23.4265 H   0  0  0  0  0  0  0  0  0  0  0  0
    7.0516   -6.8563   21.8956 H   0  0  0  0  0  0  0  0  0  0  0  0
    6.1410   -5.9129   20.6919 H   0  0  0  0  0  0  0  0  0  0  0  0
    7.9079   -5.7642   20.7760 H   0  0  0  0  0  0  0  0  0  0  0  0
  1  2  1  0
  2  3  1  0
  3  4  1  0
  4  5  1  0
  5  6  2  0
  6  7  1  0
  7  8  1  0
  8  9  1  0
  9 10  2  0
 10 11  1  0
 10 12  1  0
 12 13  1  0
 12 14  2  0
 14 15  1  0
 15 16  2  0
 16 17  1  0
 15 18  1  0
 14 19  1  0
  8 20  1  0
  8 21  1  0
  7 22  1  0
 22 23  1  0
 23 24  2  0
 24 25  1  0
 25 26  2  0
 26 27  1  0
 27 28  2  0
 28 29  1  0
 26 30  1  0
 25 31  1  0
 24 32  1  0
 22 33  2  0
  4 34  1  0
  4 35  1  0
  3 36  1  0
  3 37  1  0
  1 38  1  0
  1 39  1  0
  1 40  1  0
 33  5  1  0
 16  9  1  0
 28 23  1  0
M  END
>  <cnnaffinity>  (1) 
-6.02979

>  <filename>  (1) 
COCCc1nc(-c2cccnc2)n(Cc2cccc(Cl)c2Cl)n1

$$$$
