
     RDKit          3D

 36 37  0  0  0  0  0  0  0  0999 V2000
    4.9258    1.8267   16.9656 H   0  0  0  0  0  0  0  0  0  0  0  0
    5.3827    1.3048   17.8030 C   0  0  0  0  0  0  0  0  0  0  0  0
    6.5426    0.6763   17.5489 N   0  0  0  0  0  0  0  0  0  0  0  0
    7.1367    0.0587   18.5782 C   0  0  0  0  0  0  0  0  0  0  0  0
    8.0865   -0.4290   18.3425 H   0  0  0  0  0  0  0  0  0  0  0  0
    6.6176    0.0250   19.8846 C   0  0  0  0  0  0  0  0  0  0  0  0
    7.3846   -0.6369   21.0148 C   0  0  0  0  0  0  0  0  0  0  0  0
    7.5790   -1.6911   20.7923 H   0  0  0  0  0  0  0  0  0  0  0  0
    6.8145   -0.5983   21.9449 H   0  0  0  0  0  0  0  0  0  0  0  0
    8.6976   -0.0354   21.2558 N   0  0  0  0  0  0  0  0  0  0  0  0
    9.8688   -0.6400   20.9214 C   0  0  0  0  0  0  0  0  0  0  0  0
    9.8636   -1.6315   20.4924 H   0  0  0  0  0  0  0  0  0  0  0  0
   10.9104    0.1897   21.2571 C   0  0  0  0  0  0  0  0  0  0  0  0
   11.9561   -0.0678   21.1972 H   0  0  0  0  0  0  0  0  0  0  0  0
   10.3540    1.3879   21.7531 C   0  0  0  0  0  0  0  0  0  0  0  0
   10.9234    2.2657   22.0651 H   0  0  0  0  0  0  0  0  0  0  0  0
    8.9699    1.2159   21.7680 C   0  0  0  0  0  0  0  0  0  0  0  0
    7.8829    2.0430   22.3603 C   0  0  0  0  0  0  0  0  0  0  0  0
    6.8176    1.5996   22.7720 O   0  0  0  0  0  0  0  0  0  0  0  0
    8.1874    3.3664   22.4207 N   0  0  0  0  0  0  0  0  0  0  0  0
    8.9921    3.6266   21.8792 H   0  0  0  0  0  0  0  0  0  0  0  0
    7.2948    4.3659   22.9876 C   0  0  0  0  0  0  0  0  0  0  0  0
    7.1306    4.1428   24.0467 H   0  0  0  0  0  0  0  0  0  0  0  0
    6.3065    4.3289   22.5098 H   0  0  0  0  0  0  0  0  0  0  0  0
    7.8596    5.7842   22.8787 C   0  0  0  0  0  0  0  0  0  0  0  0
    8.7982    5.8520   23.4397 H   0  0  0  0  0  0  0  0  0  0  0  0
    8.0816    6.0369   21.8268 H   0  0  0  0  0  0  0  0  0  0  0  0
    6.9885    6.7279   23.4792 O   0  0  0  0  0  0  0  0  0  0  0  0
    6.0093    7.2977   22.6386 C   0  0  0  0  0  0  0  0  0  0  0  0
    5.3374    7.8741   23.2807 H   0  0  0  0  0  0  0  0  0  0  0  0
    6.4596    7.9823   21.9022 H   0  0  0  0  0  0  0  0  0  0  0  0
    5.4055    6.5481   22.0999 H   0  0  0  0  0  0  0  0  0  0  0  0
    5.3960    0.6695   20.1169 C   0  0  0  0  0  0  0  0  0  0  0  0
    4.9778    0.6973   21.1240 H   0  0  0  0  0  0  0  0  0  0  0  0
    4.7673    1.3221   19.0550 C   0  0  0  0  0  0  0  0  0  0  0  0
    3.8339    1.8557   19.1961 H   0  0  0  0  0  0  0  0  0  0  0  0
  1  2  1  0
  2  3  2  0
  3  4  1  0
  4  5  1  0
  4  6  2  0
  6  7  1  0
  7  8  1  0
  7  9  1  0
  7 10  1  0
 10 11  1  0
 11 12  1  0
 11 13  2  0
 13 14  1  0
 13 15  1  0
 15 16  1  0
 15 17  2  0
 17 18  1  0
 18 19  2  0
 18 20  1  0
 20 21  1  0
 20 22  1  0
 22 23  1  0
 22 24  1  0
 22 25  1  0
 25 26  1  0
 25 27  1  0
 25 28  1  0
 28 29  1  0
 29 30  1  0
 29 31  1  0
 29 32  1  0
  6 33  1  0
 33 34  1  0
 33 35  2  0
 35 36  1  0
 35  2  1  0
 17 10  1  0
M  END
>  <cnnaffinity>  (1) 
-4.51627

>  <filename>  (1) 
COCCNC(=O)c1cccn1Cc1cccnc1

$$$$
