
     RDKit          3D

 39 41  0  0  0  0  0  0  0  0999 V2000
    7.9343   -3.3141   27.0229 C   0  0  0  0  0  0  0  0  0  0  0  0
    6.7321   -3.2452   26.2907 O   0  0  0  0  0  0  0  0  0  0  0  0
    6.7671   -2.4083   25.1569 C   0  0  0  0  0  0  0  0  0  0  0  0
    7.3413   -3.1529   23.9397 C   0  0  0  0  0  0  0  0  0  0  0  0
    7.6151   -2.2261   22.8127 C   0  0  0  0  0  0  0  0  0  0  0  0
    8.7608   -1.5881   22.7174 N   0  0  0  0  0  0  0  0  0  0  0  0
    8.5781   -0.7703   21.6565 N   0  0  0  0  0  0  0  0  0  0  0  0
    9.5766    0.2676   21.3987 C   0  0  0  0  0  0  0  0  0  0  0  0
    9.1867    1.6537   21.9337 C   0  0  0  0  0  0  0  0  0  0  0  0
    8.4966    2.5239   21.1584 C   0  0  0  0  0  0  0  0  0  0  0  0
    8.1637    4.0615   23.6128 C   0  0  0  0  0  0  0  0  0  0  0  0
    8.1948    3.9775   23.7877 C   0  0  0  0  0  0  0  0  0  0  0  0
    9.4149    3.0364   23.8477 C   0  0  0  0  0  0  0  0  0  0  0  0
    9.7292    1.9360   23.2330 N   0  0  0  0  0  0  0  0  0  0  0  0
    9.9701    3.2558   24.7613 H   0  0  0  0  0  0  0  0  0  0  0  0
    7.3921    4.7251   24.3593 H   0  0  0  0  0  0  0  0  0  0  0  0
    8.1653    3.5460   21.5763 H   0  0  0  0  0  0  0  0  0  0  0  0
    8.2406    2.2112   20.1441 H   0  0  0  0  0  0  0  0  0  0  0  0
   10.4883   -0.0369   21.9145 H   0  0  0  0  0  0  0  0  0  0  0  0
    9.7670    0.3238   20.3223 H   0  0  0  0  0  0  0  0  0  0  0  0
    7.3200   -0.9582   21.1717 C   0  0  0  0  0  0  0  0  0  0  0  0
    6.7569   -0.2215   20.0302 C   0  0  0  0  0  0  0  0  0  0  0  0
    5.5383    0.4655   20.1351 C   0  0  0  0  0  0  0  0  0  0  0  0
    5.0857    1.1782   19.0268 C   0  0  0  0  0  0  0  0  0  0  0  0
    5.8516    1.1716   17.8567 C   0  0  0  0  0  0  0  0  0  0  0  0
    7.0025    0.4917   17.7358 N   0  0  0  0  0  0  0  0  0  0  0  0
    7.4312   -0.1888   18.8031 C   0  0  0  0  0  0  0  0  0  0  0  0
    8.3592   -0.7480   18.6706 H   0  0  0  0  0  0  0  0  0  0  0  0
    5.5263    1.7241   16.9767 H   0  0  0  0  0  0  0  0  0  0  0  0
    4.1567    1.7376   19.0520 H   0  0  0  0  0  0  0  0  0  0  0  0
    4.9737    0.4371   21.0699 H   0  0  0  0  0  0  0  0  0  0  0  0
    6.6854   -1.8644   21.8919 N   0  0  0  0  0  0  0  0  0  0  0  0
    8.2839   -3.6287   24.2264 H   0  0  0  0  0  0  0  0  0  0  0  0
    6.6440   -3.9329   23.6260 H   0  0  0  0  0  0  0  0  0  0  0  0
    5.7296   -2.1118   24.9602 H   0  0  0  0  0  0  0  0  0  0  0  0
    7.3353   -1.4854   25.3689 H   0  0  0  0  0  0  0  0  0  0  0  0
    7.7499   -3.9735   27.8748 H   0  0  0  0  0  0  0  0  0  0  0  0
    8.2389   -2.3243   27.3993 H   0  0  0  0  0  0  0  0  0  0  0  0
    8.7707   -3.7295   26.4383 H   0  0  0  0  0  0  0  0  0  0  0  0
  1  2  1  0
  2  3  1  0
  3  4  1  0
  4  5  1  0
  5  6  2  0
  6  7  1  0
  7  8  1  0
  8  9  1  0
  9 10  2  0
 10 11  1  0
 11 12  2  0
 12 13  1  0
 13 14  2  0
 13 15  1  0
 12 16  1  0
 11 17  1  0
 10 18  1  0
  8 19  1  0
  8 20  1  0
  7 21  1  0
 21 22  1  0
 22 23  2  0
 23 24  1  0
 24 25  2  0
 25 26  1  0
 26 27  2  0
 27 28  1  0
 25 29  1  0
 24 30  1  0
 23 31  1  0
 21 32  2  0
  4 33  1  0
  4 34  1  0
  3 35  1  0
  3 36  1  0
  1 37  1  0
  1 38  1  0
  1 39  1  0
 32  5  1  0
 14  9  1  0
 27 22  1  0
M  END
>  <cnnaffinity>  (1) 
-5.38153

>  <filename>  (1) 
COCCc1nc(-c2cccnc2)n(Cc2ccccn2)n1

$$$$
