
     RDKit          3D

 39 41  0  0  0  0  0  0  0  0999 V2000
    7.6865   -5.2837   24.0622 C   0  0  0  0  0  0  0  0  0  0  0  0
    7.8701   -4.2723   23.1035 O   0  0  0  0  0  0  0  0  0  0  0  0
    7.4756   -3.0046   23.5939 C   0  0  0  0  0  0  0  0  0  0  0  0
    7.6796   -1.9472   22.5565 C   0  0  0  0  0  0  0  0  0  0  0  0
    6.7414   -1.5918   21.7045 N   0  0  0  0  0  0  0  0  0  0  0  0
    7.3620   -0.6651   20.9383 N   0  0  0  0  0  0  0  0  0  0  0  0
    6.6591    0.0071   19.8995 C   0  0  0  0  0  0  0  0  0  0  0  0
    5.4428    0.6456   20.1660 C   0  0  0  0  0  0  0  0  0  0  0  0
    4.8122    1.3114   19.1099 C   0  0  0  0  0  0  0  0  0  0  0  0
    5.4019    1.2951   17.8390 C   0  0  0  0  0  0  0  0  0  0  0  0
    6.5626    0.6758   17.5780 N   0  0  0  0  0  0  0  0  0  0  0  0
    7.1709    0.0556   18.5932 C   0  0  0  0  0  0  0  0  0  0  0  0
    8.1162   -0.4349   18.3723 H   0  0  0  0  0  0  0  0  0  0  0  0
    4.9144    1.7820   16.9956 H   0  0  0  0  0  0  0  0  0  0  0  0
    3.8776    1.8408   19.2644 H   0  0  0  0  0  0  0  0  0  0  0  0
    5.0121    0.6111   21.1696 H   0  0  0  0  0  0  0  0  0  0  0  0
    8.6331   -0.4800   21.4090 C   0  0  0  0  0  0  0  0  0  0  0  0
    9.5344    0.6134   20.9357 C   0  0  0  0  0  0  0  0  0  0  0  0
    9.0606    2.0186   21.3814 C   0  0  0  0  0  0  0  0  0  0  0  0
    8.9369    2.1272   22.8841 C   0  0  0  0  0  0  0  0  0  0  0  0
    7.7057    1.8972   23.5123 C   0  0  0  0  0  0  0  0  0  0  0  0
    7.6095    1.9294   24.9008 C   0  0  0  0  0  0  0  0  0  0  0  0
    8.7693    2.1822   25.6351 C   0  0  0  0  0  0  0  0  0  0  0  0
    9.9677    2.3829   25.0747 N   0  0  0  0  0  0  0  0  0  0  0  0
   10.0283    2.3424   23.7533 C   0  0  0  0  0  0  0  0  0  0  0  0
   11.6117    2.5970   23.0893 Cl  0  0  0  0  0  0  0  0  0  0  0  0
    8.7372    2.2301   26.7161 H   0  0  0  0  0  0  0  0  0  0  0  0
    6.6642    1.7668   25.4017 H   0  0  0  0  0  0  0  0  0  0  0  0
    6.8317    1.6748   22.8998 H   0  0  0  0  0  0  0  0  0  0  0  0
    9.7636    2.7648   21.0011 H   0  0  0  0  0  0  0  0  0  0  0  0
    8.0874    2.2326   20.9201 H   0  0  0  0  0  0  0  0  0  0  0  0
    9.6070    0.5805   19.8461 H   0  0  0  0  0  0  0  0  0  0  0  0
   10.5272    0.4034   21.3381 H   0  0  0  0  0  0  0  0  0  0  0  0
    8.8603   -1.2838   22.4244 N   0  0  0  0  0  0  0  0  0  0  0  0
    8.0657   -2.7240   24.4798 H   0  0  0  0  0  0  0  0  0  0  0  0
    6.4118   -3.0036   23.8769 H   0  0  0  0  0  0  0  0  0  0  0  0
    8.2858   -5.0940   24.9667 H   0  0  0  0  0  0  0  0  0  0  0  0
    8.0119   -6.2203   23.6064 H   0  0  0  0  0  0  0  0  0  0  0  0
    6.6266   -5.3677   24.3481 H   0  0  0  0  0  0  0  0  0  0  0  0
  1  2  1  0
  2  3  1  0
  3  4  1  0
  4  5  2  0
  5  6  1  0
  6  7  1  0
  7  8  2  0
  8  9  1  0
  9 10  2  0
 10 11  1  0
 11 12  2  0
 12 13  1  0
 10 14  1  0
  9 15  1  0
  8 16  1  0
  6 17  1  0
 17 18  1  0
 18 19  1  0
 19 20  1  0
 20 21  2  0
 21 22  1  0
 22 23  2  0
 23 24  1  0
 24 25  2  0
 25 26  1  0
 23 27  1  0
 22 28  1  0
 21 29  1  0
 19 30  1  0
 19 31  1  0
 18 32  1  0
 18 33  1  0
 17 34  2  0
  3 35  1  0
  3 36  1  0
  1 37  1  0
  1 38  1  0
  1 39  1  0
 34  4  1  0
 12  7  1  0
 25 20  1  0
M  END
>  <cnnaffinity>  (1) 
-5.88625

>  <filename>  (1) 
COCc1nc(CCc2cccnc2Cl)n(-c2cccnc2)n1

$$$$
