
     RDKit          3D

 37 39  0  0  0  0  0  0  0  0999 V2000
    8.3796   -5.5807   23.3689 C   0  0  0  0  0  0  0  0  0  0  0  0
    7.8437   -4.2860   23.2261 O   0  0  0  0  0  0  0  0  0  0  0  0
    8.5857   -3.4783   22.3388 C   0  0  0  0  0  0  0  0  0  0  0  0
    7.9395   -2.1590   22.0544 C   0  0  0  0  0  0  0  0  0  0  0  0
    7.6707   -1.2645   22.9875 N   0  0  0  0  0  0  0  0  0  0  0  0
    7.2072   -0.2037   22.2846 N   0  0  0  0  0  0  0  0  0  0  0  0
    7.0737    1.0801   22.9895 C   0  0  0  0  0  0  0  0  0  0  0  0
    8.4112    1.5572   23.5438 C   0  0  0  0  0  0  0  0  0  0  0  0
    8.7928    1.4071   24.8909 C   0  0  0  0  0  0  0  0  0  0  0  0
    7.6395    0.9353   26.1172 Cl  0  0  0  0  0  0  0  0  0  0  0  0
   10.0959    1.6711   25.3276 C   0  0  0  0  0  0  0  0  0  0  0  0
   11.0425    2.1745   24.4355 C   0  0  0  0  0  0  0  0  0  0  0  0
   10.6963    2.3839   23.0973 C   0  0  0  0  0  0  0  0  0  0  0  0
    9.3964    2.0735   22.6787 C   0  0  0  0  0  0  0  0  0  0  0  0
    9.0002    2.3644   21.0110 Cl  0  0  0  0  0  0  0  0  0  0  0  0
   11.3985    2.7878   22.3737 H   0  0  0  0  0  0  0  0  0  0  0  0
   12.0329    2.4296   24.8053 H   0  0  0  0  0  0  0  0  0  0  0  0
   10.3486    1.4868   26.3637 H   0  0  0  0  0  0  0  0  0  0  0  0
    6.3502    0.9293   23.7911 H   0  0  0  0  0  0  0  0  0  0  0  0
    6.6890    1.8310   22.2958 H   0  0  0  0  0  0  0  0  0  0  0  0
    7.2046   -0.5280   20.9555 C   0  0  0  0  0  0  0  0  0  0  0  0
    6.5773    0.2373   19.8849 C   0  0  0  0  0  0  0  0  0  0  0  0
    5.3585    0.9197   20.0144 C   0  0  0  0  0  0  0  0  0  0  0  0
    4.7955    1.4847   18.8697 C   0  0  0  0  0  0  0  0  0  0  0  0
    5.4727    1.3630   17.6517 C   0  0  0  0  0  0  0  0  0  0  0  0
    6.6318    0.7027   17.5158 N   0  0  0  0  0  0  0  0  0  0  0  0
    7.1575    0.1499   18.6112 C   0  0  0  0  0  0  0  0  0  0  0  0
    8.0933   -0.3887   18.4741 H   0  0  0  0  0  0  0  0  0  0  0  0
    5.0681    1.8186   16.7490 H   0  0  0  0  0  0  0  0  0  0  0  0
    3.8648    2.0332   18.9143 H   0  0  0  0  0  0  0  0  0  0  0  0
    4.8467    0.9793   20.9768 H   0  0  0  0  0  0  0  0  0  0  0  0
    7.7186   -1.7318   20.7854 N   0  0  0  0  0  0  0  0  0  0  0  0
    8.6761   -3.9648   21.3575 H   0  0  0  0  0  0  0  0  0  0  0  0
    9.6119   -3.2876   22.7123 H   0  0  0  0  0  0  0  0  0  0  0  0
    9.2771   -5.5784   24.0060 H   0  0  0  0  0  0  0  0  0  0  0  0
    7.6066   -6.1942   23.8307 H   0  0  0  0  0  0  0  0  0  0  0  0
    8.6343   -6.0252   22.3941 H   0  0  0  0  0  0  0  0  0  0  0  0
  1  2  1  0
  2  3  1  0
  3  4  1  0
  4  5  2  0
  5  6  1  0
  6  7  1  0
  7  8  1  0
  8  9  2  0
  9 10  1  0
  9 11  1  0
 11 12  2  0
 12 13  1  0
 13 14  2  0
 14 15  1  0
 13 16  1  0
 12 17  1  0
 11 18  1  0
  7 19  1  0
  7 20  1  0
  6 21  1  0
 21 22  1  0
 22 23  2  0
 23 24  1  0
 24 25  2  0
 25 26  1  0
 26 27  2  0
 27 28  1  0
 25 29  1  0
 24 30  1  0
 23 31  1  0
 21 32  2  0
  3 33  1  0
  3 34  1  0
  1 35  1  0
  1 36  1  0
  1 37  1  0
 32  4  1  0
 14  8  1  0
 27 22  1  0
M  END
>  <cnnaffinity>  (1) 
-5.72715

>  <filename>  (1) 
COCc1nc(-c2cccnc2)n(Cc2c(Cl)cccc2Cl)n1

$$$$
