
     RDKit          3D

 40 42  0  0  0  0  0  0  0  0999 V2000
    8.9813   -5.7412   24.5260 C   0  0  0  0  0  0  0  0  0  0  0  0
    8.3273   -5.6291   23.2815 O   0  0  0  0  0  0  0  0  0  0  0  0
    7.6284   -4.4170   23.0817 C   0  0  0  0  0  0  0  0  0  0  0  0
    8.5463   -3.4410   22.3399 C   0  0  0  0  0  0  0  0  0  0  0  0
    7.9342   -2.1289   22.0195 C   0  0  0  0  0  0  0  0  0  0  0  0
    7.6380   -1.2390   22.9420 N   0  0  0  0  0  0  0  0  0  0  0  0
    7.1728   -0.1846   22.2209 N   0  0  0  0  0  0  0  0  0  0  0  0
    7.0569    1.1211   22.8974 C   0  0  0  0  0  0  0  0  0  0  0  0
    8.3778    1.5564   23.5203 C   0  0  0  0  0  0  0  0  0  0  0  0
    8.5953    1.5141   24.9045 C   0  0  0  0  0  0  0  0  0  0  0  0
    9.8710    1.6990   25.4476 C   0  0  0  0  0  0  0  0  0  0  0  0
   10.9524    1.9930   24.6148 C   0  0  0  0  0  0  0  0  0  0  0  0
   10.7585    2.0757   23.2355 C   0  0  0  0  0  0  0  0  0  0  0  0
    9.4770    1.8799   22.7127 C   0  0  0  0  0  0  0  0  0  0  0  0
    9.2655    2.0862   21.0068 Cl  0  0  0  0  0  0  0  0  0  0  0  0
   11.5825    2.2920   22.5638 H   0  0  0  0  0  0  0  0  0  0  0  0
   11.9383    2.1583   25.0378 H   0  0  0  0  0  0  0  0  0  0  0  0
   10.0174    1.5803   26.5106 H   0  0  0  0  0  0  0  0  0  0  0  0
    7.7500    1.3267   25.5628 H   0  0  0  0  0  0  0  0  0  0  0  0
    6.7223    1.8636   22.1665 H   0  0  0  0  0  0  0  0  0  0  0  0
    6.2966    1.0133   23.6747 H   0  0  0  0  0  0  0  0  0  0  0  0
    7.1702   -0.5287   20.9028 C   0  0  0  0  0  0  0  0  0  0  0  0
    6.5440    0.2355   19.8236 C   0  0  0  0  0  0  0  0  0  0  0  0
    5.3196    0.9127   19.9497 C   0  0  0  0  0  0  0  0  0  0  0  0
    4.7580    1.4855   18.8140 C   0  0  0  0  0  0  0  0  0  0  0  0
    5.4371    1.3827   17.5936 C   0  0  0  0  0  0  0  0  0  0  0  0
    6.6002    0.7245   17.4580 N   0  0  0  0  0  0  0  0  0  0  0  0
    7.1251    0.1621   18.5474 C   0  0  0  0  0  0  0  0  0  0  0  0
    8.0540   -0.3875   18.4000 H   0  0  0  0  0  0  0  0  0  0  0  0
    5.0348    1.8471   16.6961 H   0  0  0  0  0  0  0  0  0  0  0  0
    3.8209    2.0268   18.8604 H   0  0  0  0  0  0  0  0  0  0  0  0
    4.7992    0.9548   20.9105 H   0  0  0  0  0  0  0  0  0  0  0  0
    7.6858   -1.7366   20.7468 N   0  0  0  0  0  0  0  0  0  0  0  0
    8.8362   -3.8757   21.3879 H   0  0  0  0  0  0  0  0  0  0  0  0
    9.4634   -3.2812   22.9255 H   0  0  0  0  0  0  0  0  0  0  0  0
    6.7452   -4.6642   22.4744 H   0  0  0  0  0  0  0  0  0  0  0  0
    7.2644   -3.9876   24.0325 H   0  0  0  0  0  0  0  0  0  0  0  0
    9.6041   -6.6379   24.4841 H   0  0  0  0  0  0  0  0  0  0  0  0
    9.6296   -4.8763   24.7446 H   0  0  0  0  0  0  0  0  0  0  0  0
    8.2586   -5.8425   25.3508 H   0  0  0  0  0  0  0  0  0  0  0  0
  1  2  1  0
  2  3  1  0
  3  4  1  0
  4  5  1  0
  5  6  2  0
  6  7  1  0
  7  8  1  0
  8  9  1  0
  9 10  2  0
 10 11  1  0
 11 12  2  0
 12 13  1  0
 13 14  2  0
 14 15  1  0
 13 16  1  0
 12 17  1  0
 11 18  1  0
 10 19  1  0
  8 20  1  0
  8 21  1  0
  7 22  1  0
 22 23  1  0
 23 24  2  0
 24 25  1  0
 25 26  2  0
 26 27  1  0
 27 28  2  0
 28 29  1  0
 26 30  1  0
 25 31  1  0
 24 32  1  0
 22 33  2  0
  4 34  1  0
  4 35  1  0
  3 36  1  0
  3 37  1  0
  1 38  1  0
  1 39  1  0
  1 40  1  0
 33  5  1  0
 14  9  1  0
 28 23  1  0
M  END
>  <cnnaffinity>  (1) 
-5.52337

>  <filename>  (1) 
COCCc1nc(-c2cccnc2)n(Cc2ccccc2Cl)n1

$$$$
