
     RDKit          3D

 46 49  0  0  0  0  0  0  0  0999 V2000
   11.1983    2.8359   24.4477 C   0  0  0  0  0  0  0  0  0  0  0  0
   11.5051    1.9803   23.3830 O   0  0  0  0  0  0  0  0  0  0  0  0
   11.5119    0.6072   23.7467 C   0  0  0  0  0  0  0  0  0  0  0  0
   12.0746   -0.1528   22.5789 C   0  0  0  0  0  0  0  0  0  0  0  0
   13.5733   -0.0901   22.3049 C   0  0  0  0  0  0  0  0  0  0  0  0
   13.8611   -1.2240   21.5282 C   0  0  0  0  0  0  0  0  0  0  0  0
   12.7710   -2.0239   21.1756 C   0  0  0  0  0  0  0  0  0  0  0  0
   11.5827   -1.4652   21.8937 C   0  0  0  0  0  0  0  0  0  0  0  0
   11.1044   -0.2438   21.2943 C   0  0  0  0  0  0  0  0  0  0  0  0
    9.6916    0.3820   21.2674 C   0  0  0  0  0  0  0  0  0  0  0  0
    8.6139   -0.5721   21.6683 C   0  0  0  0  0  0  0  0  0  0  0  0
    8.7275   -1.3397   22.7252 N   0  0  0  0  0  0  0  0  0  0  0  0
    7.5695   -2.0521   22.7518 C   0  0  0  0  0  0  0  0  0  0  0  0
    7.3150   -3.1876   23.7202 C   0  0  0  0  0  0  0  0  0  0  0  0
    6.0723   -3.8597   23.7272 C   0  0  0  0  0  0  0  0  0  0  0  0
    5.8861   -4.9282   24.6085 C   0  0  0  0  0  0  0  0  0  0  0  0
    6.9334   -5.2958   25.4553 C   0  0  0  0  0  0  0  0  0  0  0  0
    8.1286   -4.5772   25.3808 C   0  0  0  0  0  0  0  0  0  0  0  0
    8.3202   -3.5590   24.5411 N   0  0  0  0  0  0  0  0  0  0  0  0
    8.9735   -4.8166   26.0233 H   0  0  0  0  0  0  0  0  0  0  0  0
    6.8447   -6.1121   26.1644 H   0  0  0  0  0  0  0  0  0  0  0  0
    4.9374   -5.4605   24.6400 H   0  0  0  0  0  0  0  0  0  0  0  0
    5.2900   -3.5347   23.0490 H   0  0  0  0  0  0  0  0  0  0  0  0
    6.7150   -1.7053   21.7936 N   0  0  0  0  0  0  0  0  0  0  0  0
    7.3854   -0.7597   21.0918 N   0  0  0  0  0  0  0  0  0  0  0  0
    6.7315   -0.0914   20.0069 C   0  0  0  0  0  0  0  0  0  0  0  0
    5.5153    0.5733   20.2102 C   0  0  0  0  0  0  0  0  0  0  0  0
    4.9381    1.2423   19.1251 C   0  0  0  0  0  0  0  0  0  0  0  0
    5.5775    1.1970   17.8793 C   0  0  0  0  0  0  0  0  0  0  0  0
    6.7281    0.5398   17.6719 N   0  0  0  0  0  0  0  0  0  0  0  0
    7.2849   -0.0874   18.7162 C   0  0  0  0  0  0  0  0  0  0  0  0
    8.2143   -0.6232   18.5270 H   0  0  0  0  0  0  0  0  0  0  0  0
    5.1468    1.6961   17.0123 H   0  0  0  0  0  0  0  0  0  0  0  0
    4.0074    1.7931   19.2263 H   0  0  0  0  0  0  0  0  0  0  0  0
    5.0478    0.5681   21.1968 H   0  0  0  0  0  0  0  0  0  0  0  0
    9.6480    1.2212   21.9713 H   0  0  0  0  0  0  0  0  0  0  0  0
    9.4985    0.8064   20.2792 H   0  0  0  0  0  0  0  0  0  0  0  0
   11.7157   -0.1477   20.3860 H   0  0  0  0  0  0  0  0  0  0  0  0
   12.8238   -2.6314   20.2775 H   0  0  0  0  0  0  0  0  0  0  0  0
   14.8296   -1.4394   21.0918 H   0  0  0  0  0  0  0  0  0  0  0  0
   14.2399    0.7323   22.5262 H   0  0  0  0  0  0  0  0  0  0  0  0
   10.4950    0.2331   23.9650 H   0  0  0  0  0  0  0  0  0  0  0  0
   12.1416    0.4432   24.6349 H   0  0  0  0  0  0  0  0  0  0  0  0
   10.1558    2.7292   24.7912 H   0  0  0  0  0  0  0  0  0  0  0  0
   11.8866    2.6372   25.2779 H   0  0  0  0  0  0  0  0  0  0  0  0
   11.3469    3.8652   24.1132 H   0  0  0  0  0  0  0  0  0  0  0  0
  1  2  1  0
  2  3  1  0
  3  4  1  0
  4  5  2  0
  5  6  1  0
  6  7  2  0
  7  8  1  0
  8  9  2  0
  9 10  1  0
 10 11  1  0
 11 12  2  0
 12 13  1  0
 13 14  1  0
 14 15  2  0
 15 16  1  0
 16 17  2  0
 17 18  1  0
 18 19  2  0
 18 20  1  0
 17 21  1  0
 16 22  1  0
 15 23  1  0
 13 24  2  0
 24 25  1  0
 25 26  1  0
 26 27  2  0
 27 28  1  0
 28 29  2  0
 29 30  1  0
 30 31  2  0
 31 32  1  0
 29 33  1  0
 28 34  1  0
 27 35  1  0
 10 36  1  0
 10 37  1  0
  8 38  1  0
  7 39  1  0
  6 40  1  0
  5 41  1  0
  3 42  1  0
  3 43  1  0
  1 44  1  0
  1 45  1  0
  1 46  1  0
  9  4  1  0
 25 11  1  0
 31 26  1  0
 19 14  1  0
M  END
>  <cnnaffinity>  (1) 
-6.56452

>  <filename>  (1) 
COCc1ccccc1Cc1nc(-c2ccccn2)nn1-c1cccnc1

$$$$
