
     RDKit          3D

 48 50  0  0  0  0  0  0  0  0999 V2000
   12.1467    2.0509   24.7679 C   0  0  0  0  0  0  0  0  0  0  0  0
   10.9639    1.2734   24.7911 O   0  0  0  0  0  0  0  0  0  0  0  0
   10.3692    1.1801   23.5312 C   0  0  0  0  0  0  0  0  0  0  0  0
   11.2375    0.4129   22.4843 C   0  0  0  0  0  0  0  0  0  0  0  0
   12.4454    0.2766   22.5556 O   0  0  0  0  0  0  0  0  0  0  0  0
   10.5419   -0.1579   21.4265 N   0  0  0  0  0  0  0  0  0  0  0  0
   10.8457   -1.5776   21.1796 C   0  0  0  0  0  0  0  0  0  0  0  0
   10.0995   -1.9877   20.4917 H   0  0  0  0  0  0  0  0  0  0  0  0
   11.8533   -1.6842   20.7725 H   0  0  0  0  0  0  0  0  0  0  0  0
   10.7819   -2.1768   22.1014 H   0  0  0  0  0  0  0  0  0  0  0  0
    9.2297    0.3405   21.0226 C   0  0  0  0  0  0  0  0  0  0  0  0
    8.0946   -0.4928   21.5638 C   0  0  0  0  0  0  0  0  0  0  0  0
    8.1470   -1.1896   22.6819 N   0  0  0  0  0  0  0  0  0  0  0  0
    7.1257   -2.0742   22.5604 C   0  0  0  0  0  0  0  0  0  0  0  0
    7.0319   -3.1804   23.5802 C   0  0  0  0  0  0  0  0  0  0  0  0
    6.2443   -2.7402   24.8460 C   0  0  0  0  0  0  0  0  0  0  0  0
    5.8951   -3.8960   25.7500 C   0  0  0  0  0  0  0  0  0  0  0  0
    6.0469   -5.1798   25.4172 C   0  0  0  0  0  0  0  0  0  0  0  0
    6.5764   -5.6364   24.0787 C   0  0  0  0  0  0  0  0  0  0  0  0
    6.5539   -4.5299   23.0066 C   0  0  0  0  0  0  0  0  0  0  0  0
    5.5455   -4.4061   22.5958 H   0  0  0  0  0  0  0  0  0  0  0  0
    7.2031   -4.8235   22.1732 H   0  0  0  0  0  0  0  0  0  0  0  0
    5.9968   -6.5016   23.7324 H   0  0  0  0  0  0  0  0  0  0  0  0
    7.6032   -6.0093   24.2231 H   0  0  0  0  0  0  0  0  0  0  0  0
    5.8119   -5.9549   26.1470 H   0  0  0  0  0  0  0  0  0  0  0  0
    5.4781   -3.6373   26.7233 H   0  0  0  0  0  0  0  0  0  0  0  0
    5.3224   -2.2052   24.5799 H   0  0  0  0  0  0  0  0  0  0  0  0
    6.8503   -2.0182   25.4106 H   0  0  0  0  0  0  0  0  0  0  0  0
    8.0694   -3.3300   23.9080 H   0  0  0  0  0  0  0  0  0  0  0  0
    6.3622   -1.8776   21.4967 N   0  0  0  0  0  0  0  0  0  0  0  0
    6.9843   -0.8434   20.8556 N   0  0  0  0  0  0  0  0  0  0  0  0
    6.3855   -0.1548   19.7507 C   0  0  0  0  0  0  0  0  0  0  0  0
    5.2298    0.6117   19.9492 C   0  0  0  0  0  0  0  0  0  0  0  0
    4.7592    1.3858   18.8825 C   0  0  0  0  0  0  0  0  0  0  0  0
    5.4292    1.3354   17.6534 C   0  0  0  0  0  0  0  0  0  0  0  0
    6.5084    0.5673   17.4393 N   0  0  0  0  0  0  0  0  0  0  0  0
    6.9671   -0.1592   18.4672 C   0  0  0  0  0  0  0  0  0  0  0  0
    7.8463   -0.7719   18.2646 H   0  0  0  0  0  0  0  0  0  0  0  0
    5.0825    1.9274   16.8074 H   0  0  0  0  0  0  0  0  0  0  0  0
    3.8963    2.0356   18.9955 H   0  0  0  0  0  0  0  0  0  0  0  0
    4.7289    0.6012   20.9188 H   0  0  0  0  0  0  0  0  0  0  0  0
    9.1830    0.3655   19.9297 H   0  0  0  0  0  0  0  0  0  0  0  0
    9.1172    1.3773   21.3517 H   0  0  0  0  0  0  0  0  0  0  0  0
   10.1521    2.1828   23.1143 H   0  0  0  0  0  0  0  0  0  0  0  0
    9.4150    0.6471   23.6507 H   0  0  0  0  0  0  0  0  0  0  0  0
   12.8673    1.5460   25.4088 H   0  0  0  0  0  0  0  0  0  0  0  0
   12.5969    2.1040   23.7753 H   0  0  0  0  0  0  0  0  0  0  0  0
   11.9305    3.0791   25.0648 H   0  0  0  0  0  0  0  0  0  0  0  0
  1  2  1  0
  2  3  1  0
  3  4  1  0
  4  5  2  0
  4  6  1  0
  6  7  1  0
  7  8  1  0
  7  9  1  0
  7 10  1  0
  6 11  1  0
 11 12  1  0
 12 13  2  0
 13 14  1  0
 14 15  1  0
 15 16  1  0
 16 17  1  0
 17 18  2  0
 18 19  1  0
 19 20  1  0
 20 21  1  0
 20 22  1  0
 19 23  1  0
 19 24  1  0
 18 25  1  0
 17 26  1  0
 16 27  1  0
 16 28  1  0
 15 29  1  0
 14 30  2  0
 30 31  1  0
 31 32  1  0
 32 33  2  0
 33 34  1  0
 34 35  2  0
 35 36  1  0
 36 37  2  0
 37 38  1  0
 35 39  1  0
 34 40  1  0
 33 41  1  0
 11 42  1  0
 11 43  1  0
  3 44  1  0
  3 45  1  0
  1 46  1  0
  1 47  1  0
  1 48  1  0
 31 12  1  0
 37 32  1  0
 20 15  1  0
M  END
>  <cnnaffinity>  (1) 
-5.76605

>  <filename>  (1) 
COCC(=O)N(C)Cc1nc(C2CC=CCC2)nn1-c1cccnc1

$$$$
