
     RDKit          3D

 33 34  0  0  0  0  0  0  0  0999 V2000
    5.1232    2.0049   16.9231 H   0  0  0  0  0  0  0  0  0  0  0  0
    5.4814    1.3905   17.7449 C   0  0  0  0  0  0  0  0  0  0  0  0
    6.6268    0.7236   17.5235 N   0  0  0  0  0  0  0  0  0  0  0  0
    7.0991   -0.0325   18.5206 C   0  0  0  0  0  0  0  0  0  0  0  0
    8.0512   -0.5277   18.3320 H   0  0  0  0  0  0  0  0  0  0  0  0
    6.4474   -0.1972   19.7636 C   0  0  0  0  0  0  0  0  0  0  0  0
    7.0299   -0.9957   20.8247 N   0  0  0  0  0  0  0  0  0  0  0  0
    8.3259   -0.6580   21.2313 C   0  0  0  0  0  0  0  0  0  0  0  0
    8.7754    0.1889   20.7100 H   0  0  0  0  0  0  0  0  0  0  0  0
    8.9958   -1.2911   22.2229 C   0  0  0  0  0  0  0  0  0  0  0  0
   10.3316   -0.9763   22.5086 N   0  0  0  0  0  0  0  0  0  0  0  0
   10.6789   -1.3394   23.3885 H   0  0  0  0  0  0  0  0  0  0  0  0
   10.9229    0.2757   22.0620 C   0  0  0  0  0  0  0  0  0  0  0  0
   10.2795    1.1461   22.2708 H   0  0  0  0  0  0  0  0  0  0  0  0
   11.0799    0.2467   20.9803 H   0  0  0  0  0  0  0  0  0  0  0  0
   12.2618    0.4946   22.7338 C   0  0  0  0  0  0  0  0  0  0  0  0
   12.1256    0.4284   23.8274 H   0  0  0  0  0  0  0  0  0  0  0  0
   12.9842   -0.2886   22.4379 H   0  0  0  0  0  0  0  0  0  0  0  0
   12.7078    1.7781   22.3703 O   0  0  0  0  0  0  0  0  0  0  0  0
   13.8458    2.1721   23.0844 C   0  0  0  0  0  0  0  0  0  0  0  0
   14.0098    3.2275   22.8698 H   0  0  0  0  0  0  0  0  0  0  0  0
   14.7353    1.6040   22.7719 H   0  0  0  0  0  0  0  0  0  0  0  0
   13.7055    2.0421   24.1702 H   0  0  0  0  0  0  0  0  0  0  0  0
    8.2449   -2.3642   22.9951 C   0  0  0  0  0  0  0  0  0  0  0  0
    8.6467   -3.0349   23.9271 O   0  0  0  0  0  0  0  0  0  0  0  0
    6.9585   -2.5623   22.5639 N   0  0  0  0  0  0  0  0  0  0  0  0
    6.4517   -3.3121   22.9993 H   0  0  0  0  0  0  0  0  0  0  0  0
    6.3383   -2.0653   21.4577 C   0  0  0  0  0  0  0  0  0  0  0  0
    5.3055   -2.5732   21.1026 O   0  0  0  0  0  0  0  0  0  0  0  0
    5.2624    0.5152   19.9846 C   0  0  0  0  0  0  0  0  0  0  0  0
    4.7570    0.4419   20.9484 H   0  0  0  0  0  0  0  0  0  0  0  0
    4.7771    1.3265   18.9516 C   0  0  0  0  0  0  0  0  0  0  0  0
    3.8805    1.9257   19.0759 H   0  0  0  0  0  0  0  0  0  0  0  0
  1  2  1  0
  2  3  2  0
  3  4  1  0
  4  5  1  0
  4  6  2  0
  6  7  1  0
  7  8  1  0
  8  9  1  0
  8 10  2  0
 10 11  1  0
 11 12  1  0
 11 13  1  0
 13 14  1  0
 13 15  1  0
 13 16  1  0
 16 17  1  0
 16 18  1  0
 16 19  1  0
 19 20  1  0
 20 21  1  0
 20 22  1  0
 20 23  1  0
 10 24  1  0
 24 25  2  0
 24 26  1  0
 26 27  1  0
 26 28  1  0
 28 29  2  0
  6 30  1  0
 30 31  1  0
 30 32  2  0
 32 33  1  0
 32  2  1  0
 28  7  1  0
M  END
>  <cnnaffinity>  (1) 
-4.53978

>  <filename>  (1) 
COCCNc1cn(-c2cccnc2)c(=O)[nH]c1=O

$$$$
