
     RDKit          3D

 36 38  0  0  0  0  0  0  0  0999 V2000
    8.3855   -5.7498   23.1044 C   0  0  0  0  0  0  0  0  0  0  0  0
    7.8289   -4.4721   22.8847 O   0  0  0  0  0  0  0  0  0  0  0  0
    8.6987   -3.5793   22.2107 C   0  0  0  0  0  0  0  0  0  0  0  0
    8.1342   -2.2032   21.9878 C   0  0  0  0  0  0  0  0  0  0  0  0
    7.6987   -1.8644   20.7895 N   0  0  0  0  0  0  0  0  0  0  0  0
    7.3155   -0.5808   20.9467 N   0  0  0  0  0  0  0  0  0  0  0  0
    6.6323    0.0811   19.8970 C   0  0  0  0  0  0  0  0  0  0  0  0
    5.4028    0.7057   20.1244 C   0  0  0  0  0  0  0  0  0  0  0  0
    4.7818    1.3297   19.0403 C   0  0  0  0  0  0  0  0  0  0  0  0
    5.4073    1.2979   17.7904 C   0  0  0  0  0  0  0  0  0  0  0  0
    6.5604    0.6416   17.5581 N   0  0  0  0  0  0  0  0  0  0  0  0
    7.1505    0.0354   18.5927 C   0  0  0  0  0  0  0  0  0  0  0  0
    8.0711   -0.5151   18.3969 H   0  0  0  0  0  0  0  0  0  0  0  0
    4.9770    1.8253   16.9429 H   0  0  0  0  0  0  0  0  0  0  0  0
    3.8451    1.8598   19.1682 H   0  0  0  0  0  0  0  0  0  0  0  0
    4.9406    0.6686   21.1120 H   0  0  0  0  0  0  0  0  0  0  0  0
    7.5925   -0.1834   22.2263 C   0  0  0  0  0  0  0  0  0  0  0  0
    7.3752    1.1908   22.8062 C   0  0  0  0  0  0  0  0  0  0  0  0
    8.6290    1.7422   23.4685 C   0  0  0  0  0  0  0  0  0  0  0  0
    8.8289    1.6276   24.8443 C   0  0  0  0  0  0  0  0  0  0  0  0
   10.0488    2.0203   25.3979 C   0  0  0  0  0  0  0  0  0  0  0  0
   11.0284    2.5414   24.5570 C   0  0  0  0  0  0  0  0  0  0  0  0
   10.8757    2.6600   23.2371 N   0  0  0  0  0  0  0  0  0  0  0  0
    9.7248    2.2451   22.7345 C   0  0  0  0  0  0  0  0  0  0  0  0
    9.6410    2.2349   21.0180 Cl  0  0  0  0  0  0  0  0  0  0  0  0
   11.9853    2.8665   24.9505 H   0  0  0  0  0  0  0  0  0  0  0  0
   10.2453    1.8937   26.4467 H   0  0  0  0  0  0  0  0  0  0  0  0
    8.0543    1.2025   25.4815 H   0  0  0  0  0  0  0  0  0  0  0  0
    7.0327    1.8865   22.0347 H   0  0  0  0  0  0  0  0  0  0  0  0
    6.5647    1.1084   23.5390 H   0  0  0  0  0  0  0  0  0  0  0  0
    8.1191   -1.1894   22.8963 N   0  0  0  0  0  0  0  0  0  0  0  0
    8.8901   -3.9519   21.1954 H   0  0  0  0  0  0  0  0  0  0  0  0
    9.6532   -3.4616   22.7507 H   0  0  0  0  0  0  0  0  0  0  0  0
    7.5838   -6.3814   23.4879 H   0  0  0  0  0  0  0  0  0  0  0  0
    8.7750   -6.2097   22.1816 H   0  0  0  0  0  0  0  0  0  0  0  0
    9.1876   -5.7135   23.8549 H   0  0  0  0  0  0  0  0  0  0  0  0
  1  2  1  0
  2  3  1  0
  3  4  1  0
  4  5  2  0
  5  6  1  0
  6  7  1  0
  7  8  2  0
  8  9  1  0
  9 10  2  0
 10 11  1  0
 11 12  2  0
 12 13  1  0
 10 14  1  0
  9 15  1  0
  8 16  1  0
  6 17  1  0
 17 18  1  0
 18 19  1  0
 19 20  2  0
 20 21  1  0
 21 22  2  0
 22 23  1  0
 23 24  2  0
 24 25  1  0
 22 26  1  0
 21 27  1  0
 20 28  1  0
 18 29  1  0
 18 30  1  0
 17 31  2  0
  3 32  1  0
  3 33  1  0
  1 34  1  0
  1 35  1  0
  1 36  1  0
 31  4  1  0
 12  7  1  0
 24 19  1  0
M  END
>  <cnnaffinity>  (1) 
-5.65321

>  <filename>  (1) 
COCc1nc(Cc2cccnc2Cl)n(-c2cccnc2)n1

$$$$
