
     RDKit          3D

 45 48  0  0  0  0  0  0  0  0999 V2000
    6.8515    2.2744   23.2626 C   0  0  0  0  0  0  0  0  0  0  0  0
    7.9280    2.7876   21.8975 S   0  0  0  0  0  0  0  0  0  0  0  0
    7.9268    4.2853   21.9582 O   0  0  0  0  0  0  0  0  0  0  0  0
    9.5423    2.2185   22.5328 C   0  0  0  0  0  0  0  0  0  0  0  0
   10.1222    2.9229   23.5947 C   0  0  0  0  0  0  0  0  0  0  0  0
   11.3885    2.5578   24.0598 C   0  0  0  0  0  0  0  0  0  0  0  0
   12.0906    1.5000   23.4771 C   0  0  0  0  0  0  0  0  0  0  0  0
   11.5181    0.8233   22.3981 C   0  0  0  0  0  0  0  0  0  0  0  0
   10.2588    1.1860   21.9010 C   0  0  0  0  0  0  0  0  0  0  0  0
    9.6290    0.3548   20.8077 C   0  0  0  0  0  0  0  0  0  0  0  0
    8.6176   -0.5761   21.3602 C   0  0  0  0  0  0  0  0  0  0  0  0
    8.8604   -1.4305   22.3264 N   0  0  0  0  0  0  0  0  0  0  0  0
    7.6490   -2.0066   22.5421 C   0  0  0  0  0  0  0  0  0  0  0  0
    7.4140   -3.0042   23.6162 C   0  0  0  0  0  0  0  0  0  0  0  0
    6.1282   -3.5575   23.7835 C   0  0  0  0  0  0  0  0  0  0  0  0
    5.9293   -4.4904   24.7945 C   0  0  0  0  0  0  0  0  0  0  0  0
    4.7052   -5.0167   24.9448 F   0  0  0  0  0  0  0  0  0  0  0  0
    6.9460   -4.9001   25.6537 C   0  0  0  0  0  0  0  0  0  0  0  0
    8.2167   -4.3413   25.4833 C   0  0  0  0  0  0  0  0  0  0  0  0
    8.4593   -3.4007   24.4781 C   0  0  0  0  0  0  0  0  0  0  0  0
    9.4528   -2.9731   24.3615 H   0  0  0  0  0  0  0  0  0  0  0  0
    9.0227   -4.6470   26.1451 H   0  0  0  0  0  0  0  0  0  0  0  0
    6.7273   -5.6340   26.4267 H   0  0  0  0  0  0  0  0  0  0  0  0
    5.2937   -3.2680   23.1467 H   0  0  0  0  0  0  0  0  0  0  0  0
    6.6907   -1.5797   21.7329 N   0  0  0  0  0  0  0  0  0  0  0  0
    7.3279   -0.6919   20.9344 N   0  0  0  0  0  0  0  0  0  0  0  0
    6.6426   -0.0043   19.8976 C   0  0  0  0  0  0  0  0  0  0  0  0
    5.4338    0.6425   20.1658 C   0  0  0  0  0  0  0  0  0  0  0  0
    4.8123    1.3137   19.1094 C   0  0  0  0  0  0  0  0  0  0  0  0
    5.3980    1.2967   17.8373 C   0  0  0  0  0  0  0  0  0  0  0  0
    6.5527    0.6669   17.5726 N   0  0  0  0  0  0  0  0  0  0  0  0
    7.1586    0.0436   18.5876 C   0  0  0  0  0  0  0  0  0  0  0  0
    8.1101   -0.4320   18.3619 H   0  0  0  0  0  0  0  0  0  0  0  0
    4.9214    1.7884   16.9927 H   0  0  0  0  0  0  0  0  0  0  0  0
    3.8820    1.8414   19.2600 H   0  0  0  0  0  0  0  0  0  0  0  0
    5.0195    0.6102   21.1786 H   0  0  0  0  0  0  0  0  0  0  0  0
    9.1787    1.0043   20.0559 H   0  0  0  0  0  0  0  0  0  0  0  0
   10.3660   -0.3043   20.3453 H   0  0  0  0  0  0  0  0  0  0  0  0
   12.0342   -0.0207   21.9413 H   0  0  0  0  0  0  0  0  0  0  0  0
   13.0697    1.2044   23.8527 H   0  0  0  0  0  0  0  0  0  0  0  0
   11.8393    3.1058   24.8754 H   0  0  0  0  0  0  0  0  0  0  0  0
    9.5959    3.7726   24.0229 H   0  0  0  0  0  0  0  0  0  0  0  0
    5.8462    2.6124   22.9970 H   0  0  0  0  0  0  0  0  0  0  0  0
    6.8575    1.1915   23.4019 H   0  0  0  0  0  0  0  0  0  0  0  0
    7.1447    2.7973   24.1772 H   0  0  0  0  0  0  0  0  0  0  0  0
  1  2  1  0
  2  3  2  0
  2  4  1  0
  4  5  2  0
  5  6  1  0
  6  7  2  0
  7  8  1  0
  8  9  2  0
  9 10  1  0
 10 11  1  0
 11 12  2  0
 12 13  1  0
 13 14  1  0
 14 15  2  0
 15 16  1  0
 16 17  1  0
 16 18  2  0
 18 19  1  0
 19 20  2  0
 20 21  1  0
 19 22  1  0
 18 23  1  0
 15 24  1  0
 13 25  2  0
 25 26  1  0
 26 27  1  0
 27 28  2  0
 28 29  1  0
 29 30  2  0
 30 31  1  0
 31 32  2  0
 32 33  1  0
 30 34  1  0
 29 35  1  0
 28 36  1  0
 10 37  1  0
 10 38  1  0
  8 39  1  0
  7 40  1  0
  6 41  1  0
  5 42  1  0
  1 43  1  0
  1 44  1  0
  1 45  1  0
  9  4  1  0
 26 11  1  0
 32 27  1  0
 20 14  1  0
M  END
>  <cnnaffinity>  (1) 
-6.46311

>  <filename>  (1) 
CS(=O)c1ccccc1Cc1nc(-c2cccc(F)c2)nn1-c1cccnc1

$$$$
