
     RDKit          3D

 44 47  0  0  0  0  0  0  0  0999 V2000
    5.8424   -1.0414   27.4871 C   0  0  0  0  0  0  0  0  0  0  0  0
    5.4942    0.6141   26.8396 S   0  0  0  0  0  0  0  0  0  0  0  0
    4.4017    0.4260   25.8253 O   0  0  0  0  0  0  0  0  0  0  0  0
    7.0870    0.8582   25.9950 C   0  0  0  0  0  0  0  0  0  0  0  0
    7.7905    2.0217   26.3077 C   0  0  0  0  0  0  0  0  0  0  0  0
    9.1343    2.1371   25.9498 C   0  0  0  0  0  0  0  0  0  0  0  0
    9.7888    1.0650   25.3355 C   0  0  0  0  0  0  0  0  0  0  0  0
    9.0496   -0.0549   24.9512 C   0  0  0  0  0  0  0  0  0  0  0  0
    7.6533   -0.0826   25.1060 C   0  0  0  0  0  0  0  0  0  0  0  0
    6.7967   -0.9983   24.2368 C   0  0  0  0  0  0  0  0  0  0  0  0
    6.9004   -0.7357   22.7632 C   0  0  0  0  0  0  0  0  0  0  0  0
    6.0161   -0.0880   22.0368 N   0  0  0  0  0  0  0  0  0  0  0  0
    6.4959   -0.1832   20.7792 C   0  0  0  0  0  0  0  0  0  0  0  0
    5.8772    0.4048   19.6014 C   0  0  0  0  0  0  0  0  0  0  0  0
    4.6846    1.1390   19.6312 C   0  0  0  0  0  0  0  0  0  0  0  0
    4.3054    1.7924   18.4611 C   0  0  0  0  0  0  0  0  0  0  0  0
    5.1141    1.6732   17.3224 C   0  0  0  0  0  0  0  0  0  0  0  0
    6.2099    0.9031   17.2666 N   0  0  0  0  0  0  0  0  0  0  0  0
    6.5701    0.2796   18.3879 C   0  0  0  0  0  0  0  0  0  0  0  0
    7.4486   -0.3579   18.3185 H   0  0  0  0  0  0  0  0  0  0  0  0
    4.8735    2.2155   16.4122 H   0  0  0  0  0  0  0  0  0  0  0  0
    3.4181    2.4150   18.4301 H   0  0  0  0  0  0  0  0  0  0  0  0
    4.0931    1.1969   20.5480 H   0  0  0  0  0  0  0  0  0  0  0  0
    7.6459   -0.8211   20.6804 N   0  0  0  0  0  0  0  0  0  0  0  0
    7.9177   -1.1860   21.9567 N   0  0  0  0  0  0  0  0  0  0  0  0
    9.1922   -1.7574   22.2043 C   0  0  0  0  0  0  0  0  0  0  0  0
   10.3071   -1.2628   21.5082 C   0  0  0  0  0  0  0  0  0  0  0  0
   11.5519   -1.8372   21.7486 C   0  0  0  0  0  0  0  0  0  0  0  0
   11.6351   -2.8569   22.6955 C   0  0  0  0  0  0  0  0  0  0  0  0
   10.5819   -3.3297   23.3695 N   0  0  0  0  0  0  0  0  0  0  0  0
    9.3803   -2.8229   23.0943 C   0  0  0  0  0  0  0  0  0  0  0  0
    8.5541   -3.2993   23.6149 H   0  0  0  0  0  0  0  0  0  0  0  0
   12.5786   -3.3476   22.8862 H   0  0  0  0  0  0  0  0  0  0  0  0
   12.4333   -1.5485   21.1834 H   0  0  0  0  0  0  0  0  0  0  0  0
   10.1762   -0.4427   20.8038 H   0  0  0  0  0  0  0  0  0  0  0  0
    5.7478   -0.8628   24.5120 H   0  0  0  0  0  0  0  0  0  0  0  0
    7.0517   -2.0466   24.4251 H   0  0  0  0  0  0  0  0  0  0  0  0
    9.5583   -0.8995   24.5080 H   0  0  0  0  0  0  0  0  0  0  0  0
   10.8573    1.0982   25.1399 H   0  0  0  0  0  0  0  0  0  0  0  0
    9.6509    3.0603   26.1674 H   0  0  0  0  0  0  0  0  0  0  0  0
    7.2929    2.8195   26.8534 H   0  0  0  0  0  0  0  0  0  0  0  0
    4.8687   -1.5295   27.5363 H   0  0  0  0  0  0  0  0  0  0  0  0
    6.2992   -0.9901   28.4753 H   0  0  0  0  0  0  0  0  0  0  0  0
    6.4828   -1.6045   26.8024 H   0  0  0  0  0  0  0  0  0  0  0  0
  1  2  1  0
  2  3  2  0
  2  4  1  0
  4  5  2  0
  5  6  1  0
  6  7  2  0
  7  8  1  0
  8  9  2  0
  9 10  1  0
 10 11  1  0
 11 12  2  0
 12 13  1  0
 13 14  1  0
 14 15  2  0
 15 16  1  0
 16 17  2  0
 17 18  1  0
 18 19  2  0
 19 20  1  0
 17 21  1  0
 16 22  1  0
 15 23  1  0
 13 24  2  0
 24 25  1  0
 25 26  1  0
 26 27  2  0
 27 28  1  0
 28 29  2  0
 29 30  1  0
 30 31  2  0
 31 32  1  0
 29 33  1  0
 28 34  1  0
 27 35  1  0
 10 36  1  0
 10 37  1  0
  8 38  1  0
  7 39  1  0
  6 40  1  0
  5 41  1  0
  1 42  1  0
  1 43  1  0
  1 44  1  0
  9  4  1  0
 25 11  1  0
 31 26  1  0
 19 14  1  0
M  END
>  <cnnaffinity>  (1) 
-6.06428

>  <filename>  (1) 
CS(=O)c1ccccc1Cc1nc(-c2cccnc2)nn1-c1cccnc1

$$$$
