
     RDKit          3D

 44 47  0  0  0  0  0  0  0  0999 V2000
    4.9559    1.8240   16.9355 H   0  0  0  0  0  0  0  0  0  0  0  0
    5.4167    1.3329   17.7921 C   0  0  0  0  0  0  0  0  0  0  0  0
    6.5859    0.7149   17.5733 N   0  0  0  0  0  0  0  0  0  0  0  0
    7.1783    0.1199   18.6248 C   0  0  0  0  0  0  0  0  0  0  0  0
    8.1139   -0.3854   18.3786 H   0  0  0  0  0  0  0  0  0  0  0  0
    6.6527    0.0775   19.9322 C   0  0  0  0  0  0  0  0  0  0  0  0
    7.2450   -0.7930   21.0618 C   0  0  2  0  0  0  0  0  0  0  0  0
    6.4429   -2.1382   21.1224 C   0  0  0  0  0  0  0  0  0  0  0  0
    6.1845   -2.8321   19.9192 C   0  0  0  0  0  0  0  0  0  0  0  0
    6.3742   -2.3558   18.9553 H   0  0  0  0  0  0  0  0  0  0  0  0
    5.7109   -4.1426   19.9311 C   0  0  0  0  0  0  0  0  0  0  0  0
    5.6003   -4.6756   18.9964 H   0  0  0  0  0  0  0  0  0  0  0  0
    5.3799   -4.7790   21.1233 C   0  0  0  0  0  0  0  0  0  0  0  0
    5.0337   -5.8139   21.1337 H   0  0  0  0  0  0  0  0  0  0  0  0
    5.5031   -4.0571   22.3136 C   0  0  0  0  0  0  0  0  0  0  0  0
    4.9392   -4.8106   23.8365 S   0  0  0  0  0  0  0  0  0  0  0  0
    5.8386   -4.4355   24.9198 O   0  0  0  0  0  0  0  0  0  0  0  0
    4.6192   -6.2068   23.5671 O   0  0  0  0  0  0  0  0  0  0  0  0
    3.4029   -4.0227   24.1896 C   0  0  0  0  0  0  0  0  0  0  0  0
    3.1691   -4.3810   25.1886 H   0  0  0  0  0  0  0  0  0  0  0  0
    3.5445   -2.9431   24.1859 H   0  0  0  0  0  0  0  0  0  0  0  0
    2.6507   -4.3649   23.4844 H   0  0  0  0  0  0  0  0  0  0  0  0
    6.0696   -2.7710   22.3263 C   0  0  0  0  0  0  0  0  0  0  0  0
    6.2686   -2.2878   23.2822 H   0  0  0  0  0  0  0  0  0  0  0  0
    7.2919   -0.0129   22.4361 C   0  0  0  0  0  0  0  0  0  0  0  0
    6.5921   -0.4267   23.1591 H   0  0  0  0  0  0  0  0  0  0  0  0
    7.0180    1.0443   22.3205 H   0  0  0  0  0  0  0  0  0  0  0  0
    8.7461   -0.1303   22.9513 C   0  0  2  0  0  0  0  0  0  0  0  0
    8.8460   -0.0060   24.0352 H   0  0  0  0  0  0  0  0  0  0  0  0
    9.6006    0.8545   22.1319 C   0  0  0  0  0  0  0  0  0  0  0  0
   10.5945    0.9921   22.5737 H   0  0  0  0  0  0  0  0  0  0  0  0
    9.1294    1.8423   22.0655 H   0  0  0  0  0  0  0  0  0  0  0  0
    9.6845    0.1305   20.7574 C   0  0  0  0  0  0  0  0  0  0  0  0
    9.4048    0.7709   19.9174 H   0  0  0  0  0  0  0  0  0  0  0  0
   10.7129   -0.2249   20.6162 H   0  0  0  0  0  0  0  0  0  0  0  0
    8.7887   -1.1228   20.9361 C   0  0  1  0  0  0  0  0  0  0  0  0
    8.9945   -1.8959   20.1896 H   0  0  0  0  0  0  0  0  0  0  0  0
    9.1973   -1.4828   22.3808 C   0  0  0  0  0  0  0  0  0  0  0  0
    8.6743   -2.3479   22.8044 H   0  0  0  0  0  0  0  0  0  0  0  0
   10.2797   -1.6598   22.4869 H   0  0  0  0  0  0  0  0  0  0  0  0
    5.4179    0.7228   20.1220 C   0  0  0  0  0  0  0  0  0  0  0  0
    4.9354    0.6954   21.1023 H   0  0  0  0  0  0  0  0  0  0  0  0
    4.7988    1.3579   19.0458 C   0  0  0  0  0  0  0  0  0  0  0  0
    3.8516    1.8675   19.1638 H   0  0  0  0  0  0  0  0  0  0  0  0
  1  2  1  0
  2  3  2  0
  3  4  1  0
  4  5  1  0
  4  6  2  0
  7  6  1  6
  7  8  1  0
  8  9  2  0
  9 10  1  0
  9 11  1  0
 11 12  1  0
 11 13  2  0
 13 14  1  0
 13 15  1  0
 15 16  1  0
 16 17  2  0
 16 18  2  0
 16 19  1  0
 19 20  1  0
 19 21  1  0
 19 22  1  0
 15 23  2  0
 23 24  1  0
  7 25  1  0
 25 26  1  0
 25 27  1  0
 25 28  1  0
 28 29  1  1
 28 30  1  0
 30 31  1  0
 30 32  1  0
 30 33  1  0
 33 34  1  0
 33 35  1  0
 33 36  1  0
 36 37  1  6
 36 38  1  0
 38 39  1  0
 38 40  1  0
  6 41  1  0
 41 42  1  0
 41 43  2  0
 43 44  1  0
 43  2  1  0
 36  7  1  0
 23  8  1  0
 38 28  1  0
M  END
>  <cnnaffinity>  (1) 
-5.21996

>  <filename>  (1) 
CS(=O)(=O)c1cccc([C@@]2(c3cccnc3)C[C@@H]3CC[C@H]2C3)c1

$$$$
