
     RDKit          3D

 45 48  0  0  0  0  0  0  0  0999 V2000
    6.8904    2.1440   23.3811 C   0  0  0  0  0  0  0  0  0  0  0  0
    7.9155    2.7187   21.9995 S   0  0  0  0  0  0  0  0  0  0  0  0
    7.8884    4.2156   22.0998 O   0  0  0  0  0  0  0  0  0  0  0  0
    9.5595    2.1681   22.5728 C   0  0  0  0  0  0  0  0  0  0  0  0
   10.1549    2.8577   23.6354 C   0  0  0  0  0  0  0  0  0  0  0  0
   11.4401    2.5067   24.0575 C   0  0  0  0  0  0  0  0  0  0  0  0
   12.1462    1.4783   23.4291 C   0  0  0  0  0  0  0  0  0  0  0  0
   11.5555    0.8141   22.3514 C   0  0  0  0  0  0  0  0  0  0  0  0
   10.2764    1.1635   21.8991 C   0  0  0  0  0  0  0  0  0  0  0  0
    9.6335    0.3519   20.8017 C   0  0  0  0  0  0  0  0  0  0  0  0
    8.6270   -0.5783   21.3558 C   0  0  0  0  0  0  0  0  0  0  0  0
    8.8742   -1.4309   22.3302 N   0  0  0  0  0  0  0  0  0  0  0  0
    7.6628   -1.9934   22.5452 C   0  0  0  0  0  0  0  0  0  0  0  0
    7.4018   -2.9459   23.6594 C   0  0  0  0  0  0  0  0  0  0  0  0
    6.4919   -4.1608   23.3056 C   0  0  0  0  0  0  0  0  0  0  0  0
    5.4282   -3.6463   24.3068 C   0  0  0  0  0  0  0  0  0  0  0  0
    6.3424   -2.4634   24.7052 C   0  0  0  0  0  0  0  0  0  0  0  0
    5.9358   -1.4650   24.4992 H   0  0  0  0  0  0  0  0  0  0  0  0
    6.6872   -2.4624   25.7423 H   0  0  0  0  0  0  0  0  0  0  0  0
    5.1840   -4.3350   25.1207 H   0  0  0  0  0  0  0  0  0  0  0  0
    4.4840   -3.3460   23.8424 H   0  0  0  0  0  0  0  0  0  0  0  0
    6.1727   -4.1830   22.2577 H   0  0  0  0  0  0  0  0  0  0  0  0
    6.9244   -5.1362   23.5438 H   0  0  0  0  0  0  0  0  0  0  0  0
    8.3713   -3.2045   24.0902 H   0  0  0  0  0  0  0  0  0  0  0  0
    6.7016   -1.5743   21.7371 N   0  0  0  0  0  0  0  0  0  0  0  0
    7.3387   -0.6928   20.9294 N   0  0  0  0  0  0  0  0  0  0  0  0
    6.6441   -0.0076   19.8979 C   0  0  0  0  0  0  0  0  0  0  0  0
    5.4351    0.6391   20.1647 C   0  0  0  0  0  0  0  0  0  0  0  0
    4.8124    1.3130   19.1105 C   0  0  0  0  0  0  0  0  0  0  0  0
    5.3973    1.2968   17.8382 C   0  0  0  0  0  0  0  0  0  0  0  0
    6.5530    0.6680   17.5747 N   0  0  0  0  0  0  0  0  0  0  0  0
    7.1601    0.0432   18.5888 C   0  0  0  0  0  0  0  0  0  0  0  0
    8.1120   -0.4318   18.3617 H   0  0  0  0  0  0  0  0  0  0  0  0
    4.9216    1.7880   16.9937 H   0  0  0  0  0  0  0  0  0  0  0  0
    3.8814    1.8415   19.2609 H   0  0  0  0  0  0  0  0  0  0  0  0
    5.0163    0.6088   21.1751 H   0  0  0  0  0  0  0  0  0  0  0  0
   10.3560   -0.3110   20.3251 H   0  0  0  0  0  0  0  0  0  0  0  0
    9.1729    1.0124   20.0665 H   0  0  0  0  0  0  0  0  0  0  0  0
   12.0750   -0.0077   21.8601 H   0  0  0  0  0  0  0  0  0  0  0  0
   13.1421    1.1946   23.7688 H   0  0  0  0  0  0  0  0  0  0  0  0
   11.8961    3.0432   24.8779 H   0  0  0  0  0  0  0  0  0  0  0  0
    9.6244    3.6856   24.0994 H   0  0  0  0  0  0  0  0  0  0  0  0
    5.8700    2.4638   23.1522 H   0  0  0  0  0  0  0  0  0  0  0  0
    6.9303    1.0573   23.4903 H   0  0  0  0  0  0  0  0  0  0  0  0
    7.1963    2.6499   24.3009 H   0  0  0  0  0  0  0  0  0  0  0  0
  1  2  1  0
  2  3  2  0
  2  4  1  0
  4  5  2  0
  5  6  1  0
  6  7  2  0
  7  8  1  0
  8  9  2  0
  9 10  1  0
 10 11  1  0
 11 12  2  0
 12 13  1  0
 13 14  1  0
 14 15  1  0
 15 16  1  0
 16 17  1  0
 17 18  1  0
 17 19  1  0
 16 20  1  0
 16 21  1  0
 15 22  1  0
 15 23  1  0
 14 24  1  0
 13 25  2  0
 25 26  1  0
 26 27  1  0
 27 28  2  0
 28 29  1  0
 29 30  2  0
 30 31  1  0
 31 32  2  0
 32 33  1  0
 30 34  1  0
 29 35  1  0
 28 36  1  0
 10 37  1  0
 10 38  1  0
  8 39  1  0
  7 40  1  0
  6 41  1  0
  5 42  1  0
  1 43  1  0
  1 44  1  0
  1 45  1  0
  9  4  1  0
 26 11  1  0
 32 27  1  0
 17 14  1  0
M  END
>  <cnnaffinity>  (1) 
-6.29325

>  <filename>  (1) 
CS(=O)c1ccccc1Cc1nc(C2CCC2)nn1-c1cccnc1

$$$$
