
     RDKit          3D

 46 49  0  0  0  0  0  0  0  0999 V2000
   12.9817    1.4331   22.0321 C   0  0  0  0  0  0  0  0  0  0  0  0
   11.8855    0.9006   23.2780 S   0  0  0  0  0  0  0  0  0  0  0  0
   11.6073   -0.4912   22.9572 O   0  0  0  0  0  0  0  0  0  0  0  0
   12.5009    1.2576   24.5531 O   0  0  0  0  0  0  0  0  0  0  0  0
   10.4514    1.9409   22.9962 C   0  0  0  0  0  0  0  0  0  0  0  0
   10.2967    3.0291   23.8705 C   0  0  0  0  0  0  0  0  0  0  0  0
    9.2045    3.8783   23.7420 C   0  0  0  0  0  0  0  0  0  0  0  0
    8.2606    3.6622   22.7339 C   0  0  0  0  0  0  0  0  0  0  0  0
    8.4346    2.5942   21.8540 C   0  0  0  0  0  0  0  0  0  0  0  0
    9.5328    1.7216   21.9537 C   0  0  0  0  0  0  0  0  0  0  0  0
    9.5716    0.5527   20.9880 C   0  0  0  0  0  0  0  0  0  0  0  0
    8.6176   -0.5144   21.4123 C   0  0  0  0  0  0  0  0  0  0  0  0
    8.8314   -1.3692   22.3890 N   0  0  0  0  0  0  0  0  0  0  0  0
    7.6552   -2.0287   22.4981 C   0  0  0  0  0  0  0  0  0  0  0  0
    7.4339   -3.0659   23.5462 C   0  0  0  0  0  0  0  0  0  0  0  0
    6.2219   -2.8027   24.5021 C   0  0  0  0  0  0  0  0  0  0  0  0
    5.5257   -4.0753   23.9574 C   0  0  0  0  0  0  0  0  0  0  0  0
    6.7481   -4.3798   23.0546 C   0  0  0  0  0  0  0  0  0  0  0  0
    6.5437   -4.3909   21.9765 H   0  0  0  0  0  0  0  0  0  0  0  0
    7.3000   -5.2944   23.2979 H   0  0  0  0  0  0  0  0  0  0  0  0
    5.2982   -4.8395   24.7087 H   0  0  0  0  0  0  0  0  0  0  0  0
    4.6017   -3.8745   23.4027 H   0  0  0  0  0  0  0  0  0  0  0  0
    6.4699   -2.8195   25.5694 H   0  0  0  0  0  0  0  0  0  0  0  0
    5.7049   -1.8555   24.3059 H   0  0  0  0  0  0  0  0  0  0  0  0
    8.3997   -3.1947   24.0511 H   0  0  0  0  0  0  0  0  0  0  0  0
    6.7273   -1.6490   21.6375 N   0  0  0  0  0  0  0  0  0  0  0  0
    7.3542   -0.6833   20.9236 N   0  0  0  0  0  0  0  0  0  0  0  0
    6.6561   -0.0001   19.8909 C   0  0  0  0  0  0  0  0  0  0  0  0
    5.4423    0.6368   20.1588 C   0  0  0  0  0  0  0  0  0  0  0  0
    4.8080    1.3082   19.1087 C   0  0  0  0  0  0  0  0  0  0  0  0
    5.3956    1.2940   17.8367 C   0  0  0  0  0  0  0  0  0  0  0  0
    6.5480    0.6616   17.5694 N   0  0  0  0  0  0  0  0  0  0  0  0
    7.1596    0.0353   18.5801 C   0  0  0  0  0  0  0  0  0  0  0  0
    8.1031   -0.4555   18.3475 H   0  0  0  0  0  0  0  0  0  0  0  0
    4.9244    1.8012   16.9986 H   0  0  0  0  0  0  0  0  0  0  0  0
    3.8748    1.8428   19.2604 H   0  0  0  0  0  0  0  0  0  0  0  0
    5.0180    0.6064   21.1643 H   0  0  0  0  0  0  0  0  0  0  0  0
   10.5533    0.0884   20.9167 H   0  0  0  0  0  0  0  0  0  0  0  0
    9.2895    0.8982   19.9937 H   0  0  0  0  0  0  0  0  0  0  0  0
    7.6955    2.4103   21.0785 H   0  0  0  0  0  0  0  0  0  0  0  0
    7.3965    4.3154   22.6424 H   0  0  0  0  0  0  0  0  0  0  0  0
    9.0908    4.7019   24.4388 H   0  0  0  0  0  0  0  0  0  0  0  0
   11.0333    3.2028   24.6521 H   0  0  0  0  0  0  0  0  0  0  0  0
   13.7885    0.6991   22.0312 H   0  0  0  0  0  0  0  0  0  0  0  0
   13.3303    2.4326   22.2851 H   0  0  0  0  0  0  0  0  0  0  0  0
   12.4132    1.3992   21.1017 H   0  0  0  0  0  0  0  0  0  0  0  0
  1  2  1  0
  2  3  2  0
  2  4  2  0
  2  5  1  0
  5  6  2  0
  6  7  1  0
  7  8  2  0
  8  9  1  0
  9 10  2  0
 10 11  1  0
 11 12  1  0
 12 13  2  0
 13 14  1  0
 14 15  1  0
 15 16  1  0
 16 17  1  0
 17 18  1  0
 18 19  1  0
 18 20  1  0
 17 21  1  0
 17 22  1  0
 16 23  1  0
 16 24  1  0
 15 25  1  0
 14 26  2  0
 26 27  1  0
 27 28  1  0
 28 29  2  0
 29 30  1  0
 30 31  2  0
 31 32  1  0
 32 33  2  0
 33 34  1  0
 31 35  1  0
 30 36  1  0
 29 37  1  0
 11 38  1  0
 11 39  1  0
  9 40  1  0
  8 41  1  0
  7 42  1  0
  6 43  1  0
  1 44  1  0
  1 45  1  0
  1 46  1  0
 10  5  1  0
 27 12  1  0
 33 28  1  0
 18 15  1  0
M  END
>  <cnnaffinity>  (1) 
-6.556

>  <filename>  (1) 
CS(=O)(=O)c1ccccc1Cc1nc(C2CCC2)nn1-c1cccnc1

$$$$
