
     RDKit          3D

 38 41  0  0  0  0  0  0  0  0999 V2000
    4.9948    1.8610   16.8801 H   0  0  0  0  0  0  0  0  0  0  0  0
    5.4190    1.3046   17.7146 C   0  0  0  0  0  0  0  0  0  0  0  0
    6.5614    0.6426   17.4762 N   0  0  0  0  0  0  0  0  0  0  0  0
    7.1285   -0.0083   18.4976 C   0  0  0  0  0  0  0  0  0  0  0  0
    8.0582   -0.5262   18.2724 H   0  0  0  0  0  0  0  0  0  0  0  0
    6.5970   -0.0350   19.8010 C   0  0  0  0  0  0  0  0  0  0  0  0
    7.3566   -0.6370   20.9136 C   0  0  0  0  0  0  0  0  0  0  0  0
    8.4964   -1.3123   20.6949 N   0  0  0  0  0  0  0  0  0  0  0  0
    8.9304   -1.5797   21.9422 N   0  0  0  0  0  0  0  0  0  0  0  0
   10.0394   -2.2146   22.4809 C   0  0  0  0  0  0  0  0  0  0  0  0
   10.7774   -2.6746   21.8505 H   0  0  0  0  0  0  0  0  0  0  0  0
    9.9150   -2.0981   23.8255 C   0  0  0  0  0  0  0  0  0  0  0  0
   10.5345   -2.4778   24.6216 H   0  0  0  0  0  0  0  0  0  0  0  0
    8.7454   -1.3975   24.1262 N   0  0  0  0  0  0  0  0  0  0  0  0
    8.2623   -1.0074   25.4002 C   0  0  0  0  0  0  0  0  0  0  0  0
    9.1427   -0.6648   26.4411 C   0  0  0  0  0  0  0  0  0  0  0  0
   10.2177   -0.7184   26.3034 H   0  0  0  0  0  0  0  0  0  0  0  0
    8.6311   -0.2078   27.6564 C   0  0  0  0  0  0  0  0  0  0  0  0
    9.3044    0.0130   28.4786 H   0  0  0  0  0  0  0  0  0  0  0  0
    7.2615   -0.0435   27.8451 C   0  0  0  0  0  0  0  0  0  0  0  0
    6.9037    0.3882   28.7784 H   0  0  0  0  0  0  0  0  0  0  0  0
    6.3832   -0.4242   26.8192 C   0  0  0  0  0  0  0  0  0  0  0  0
    4.6177   -0.2786   27.1074 S   0  0  0  0  0  0  0  0  0  0  0  0
    3.9105   -0.2762   25.8335 O   0  0  0  0  0  0  0  0  0  0  0  0
    4.3998    0.7674   28.0982 O   0  0  0  0  0  0  0  0  0  0  0  0
    4.2724   -1.8133   27.9082 C   0  0  0  0  0  0  0  0  0  0  0  0
    3.2138   -1.7956   28.1598 H   0  0  0  0  0  0  0  0  0  0  0  0
    4.5141   -2.6136   27.2115 H   0  0  0  0  0  0  0  0  0  0  0  0
    4.8958   -1.8519   28.8015 H   0  0  0  0  0  0  0  0  0  0  0  0
    6.8724   -0.9225   25.6040 C   0  0  0  0  0  0  0  0  0  0  0  0
    6.2171   -1.2373   24.7913 H   0  0  0  0  0  0  0  0  0  0  0  0
    8.1352   -1.0986   22.9164 C   0  0  0  0  0  0  0  0  0  0  0  0
    7.0532   -0.4973   22.2902 C   0  0  0  0  0  0  0  0  0  0  0  0
    6.1726   -0.0509   22.7187 H   0  0  0  0  0  0  0  0  0  0  0  0
    5.3749    0.6242   20.0169 C   0  0  0  0  0  0  0  0  0  0  0  0
    4.9010    0.6168   21.0000 H   0  0  0  0  0  0  0  0  0  0  0  0
    4.7833    1.3089   18.9599 C   0  0  0  0  0  0  0  0  0  0  0  0
    3.8654    1.8682   19.0995 H   0  0  0  0  0  0  0  0  0  0  0  0
  1  2  1  0
  2  3  2  0
  3  4  1  0
  4  5  1  0
  4  6  2  0
  6  7  1  0
  7  8  2  0
  8  9  1  0
  9 10  1  0
 10 11  1  0
 10 12  2  0
 12 13  1  0
 12 14  1  0
 14 15  1  0
 15 16  2  0
 16 17  1  0
 16 18  1  0
 18 19  1  0
 18 20  2  0
 20 21  1  0
 20 22  1  0
 22 23  1  0
 23 24  2  0
 23 25  2  0
 23 26  1  0
 26 27  1  0
 26 28  1  0
 26 29  1  0
 22 30  2  0
 30 31  1  0
 14 32  1  0
 32 33  2  0
 33 34  1  0
  6 35  1  0
 35 36  1  0
 35 37  2  0
 37 38  1  0
 37  2  1  0
 33  7  1  0
 32  9  1  0
 30 15  1  0
M  END
>  <cnnaffinity>  (1) 
-5.65498

>  <filename>  (1) 
CS(=O)(=O)c1cccc(-n2ccn3nc(-c4cccnc4)cc23)c1

$$$$
