
     RDKit          3D

 35 37  0  0  0  0  0  0  0  0999 V2000
    4.9590    1.8215   16.9416 H   0  0  0  0  0  0  0  0  0  0  0  0
    5.4270    1.3116   17.7834 C   0  0  0  0  0  0  0  0  0  0  0  0
    6.5865    0.6826   17.5303 N   0  0  0  0  0  0  0  0  0  0  0  0
    7.1900    0.0617   18.5526 C   0  0  0  0  0  0  0  0  0  0  0  0
    8.1185   -0.4509   18.3073 H   0  0  0  0  0  0  0  0  0  0  0  0
    6.6853    0.0207   19.8660 C   0  0  0  0  0  0  0  0  0  0  0  0
    7.3643   -0.7005   20.9477 C   0  0  0  0  0  0  0  0  0  0  0  0
    6.8392   -1.2462   22.0638 C   0  0  0  0  0  0  0  0  0  0  0  0
    5.8146   -1.3953   22.3415 H   0  0  0  0  0  0  0  0  0  0  0  0
    7.8551   -1.7896   22.8362 N   0  0  0  0  0  0  0  0  0  0  0  0
    7.6843   -2.4223   24.0997 C   0  0  0  0  0  0  0  0  0  0  0  0
    6.7296   -1.9304   25.0040 C   0  0  0  0  0  0  0  0  0  0  0  0
    6.1341   -1.0562   24.7439 H   0  0  0  0  0  0  0  0  0  0  0  0
    6.5529   -2.5791   26.2284 C   0  0  0  0  0  0  0  0  0  0  0  0
    5.8171   -2.2023   26.9313 H   0  0  0  0  0  0  0  0  0  0  0  0
    7.2833   -3.7242   26.5440 C   0  0  0  0  0  0  0  0  0  0  0  0
    7.1222   -4.2177   27.4991 H   0  0  0  0  0  0  0  0  0  0  0  0
    8.2071   -4.2281   25.6150 C   0  0  0  0  0  0  0  0  0  0  0  0
    9.0857   -5.7407   25.9930 S   0  0  0  0  0  0  0  0  0  0  0  0
    9.4988   -6.3780   24.7502 O   0  0  0  0  0  0  0  0  0  0  0  0
    8.3173   -6.4586   27.0029 O   0  0  0  0  0  0  0  0  0  0  0  0
   10.5354   -5.1380   26.7962 C   0  0  0  0  0  0  0  0  0  0  0  0
   11.1918   -4.6832   26.0553 H   0  0  0  0  0  0  0  0  0  0  0  0
   10.2333   -4.4505   27.5848 H   0  0  0  0  0  0  0  0  0  0  0  0
   10.9857   -6.0227   27.2230 H   0  0  0  0  0  0  0  0  0  0  0  0
    8.4416   -3.5594   24.4075 C   0  0  0  0  0  0  0  0  0  0  0  0
    9.1919   -3.8682   23.6828 H   0  0  0  0  0  0  0  0  0  0  0  0
    9.0651   -1.6411   22.1544 C   0  0  0  0  0  0  0  0  0  0  0  0
   10.1776   -2.0056   22.4669 O   0  0  0  0  0  0  0  0  0  0  0  0
    8.7267   -0.9783   20.9975 N   0  0  0  0  0  0  0  0  0  0  0  0
    9.4883   -0.6578   20.4282 H   0  0  0  0  0  0  0  0  0  0  0  0
    5.4600    0.6753   20.1025 C   0  0  0  0  0  0  0  0  0  0  0  0
    5.0238    0.6879   21.1030 H   0  0  0  0  0  0  0  0  0  0  0  0
    4.8248    1.3275   19.0463 C   0  0  0  0  0  0  0  0  0  0  0  0
    3.8861    1.8531   19.1831 H   0  0  0  0  0  0  0  0  0  0  0  0
  1  2  1  0
  2  3  2  0
  3  4  1  0
  4  5  1  0
  4  6  2  0
  6  7  1  0
  7  8  2  0
  8  9  1  0
  8 10  1  0
 10 11  1  0
 11 12  2  0
 12 13  1  0
 12 14  1  0
 14 15  1  0
 14 16  2  0
 16 17  1  0
 16 18  1  0
 18 19  1  0
 19 20  2  0
 19 21  2  0
 19 22  1  0
 22 23  1  0
 22 24  1  0
 22 25  1  0
 18 26  2  0
 26 27  1  0
 10 28  1  0
 28 29  2  0
 28 30  1  0
 30 31  1  0
  6 32  1  0
 32 33  1  0
 32 34  2  0
 34 35  1  0
 34  2  1  0
 30  7  1  0
 26 11  1  0
M  END
>  <cnnaffinity>  (1) 
-5.36966

>  <filename>  (1) 
CS(=O)(=O)c1cccc(-n2cc(-c3cccnc3)[nH]c2=O)c1

$$$$
