
     RDKit          3D

 45 48  0  0  0  0  0  0  0  0999 V2000
    8.0775    1.9785   23.1899 C   0  0  0  0  0  0  0  0  0  0  0  0
    9.3986    2.7815   22.2502 S   0  0  0  0  0  0  0  0  0  0  0  0
    8.8859    2.8060   20.8417 O   0  0  0  0  0  0  0  0  0  0  0  0
   10.7130    1.5348   22.3760 C   0  0  0  0  0  0  0  0  0  0  0  0
   11.7257    1.8333   23.2913 C   0  0  0  0  0  0  0  0  0  0  0  0
   12.8548    1.0211   23.3933 C   0  0  0  0  0  0  0  0  0  0  0  0
   12.9648   -0.1133   22.5900 C   0  0  0  0  0  0  0  0  0  0  0  0
   11.9335   -0.4235   21.6933 C   0  0  0  0  0  0  0  0  0  0  0  0
   10.7968    0.3924   21.5595 C   0  0  0  0  0  0  0  0  0  0  0  0
    9.6648   -0.0049   20.6464 C   0  0  0  0  0  0  0  0  0  0  0  0
    8.5635   -0.6866   21.3748 C   0  0  0  0  0  0  0  0  0  0  0  0
    8.7094   -1.3959   22.4671 N   0  0  0  0  0  0  0  0  0  0  0  0
    7.4853   -1.9581   22.6564 C   0  0  0  0  0  0  0  0  0  0  0  0
    7.2560   -2.9242   23.7543 C   0  0  0  0  0  0  0  0  0  0  0  0
    5.9811   -3.4751   23.9918 C   0  0  0  0  0  0  0  0  0  0  0  0
    5.7997   -4.3836   25.0375 C   0  0  0  0  0  0  0  0  0  0  0  0
    6.8792   -4.7549   25.8492 C   0  0  0  0  0  0  0  0  0  0  0  0
    8.1497   -4.2204   25.6102 C   0  0  0  0  0  0  0  0  0  0  0  0
    8.3394   -3.3145   24.5687 C   0  0  0  0  0  0  0  0  0  0  0  0
    9.3268   -2.8996   24.3737 H   0  0  0  0  0  0  0  0  0  0  0  0
    8.9948   -4.5023   26.2349 H   0  0  0  0  0  0  0  0  0  0  0  0
    6.7346   -5.4559   26.6673 H   0  0  0  0  0  0  0  0  0  0  0  0
    4.8135   -4.7999   25.2253 H   0  0  0  0  0  0  0  0  0  0  0  0
    5.1457   -3.1841   23.3564 H   0  0  0  0  0  0  0  0  0  0  0  0
    6.5783   -1.5963   21.7654 N   0  0  0  0  0  0  0  0  0  0  0  0
    7.2725   -0.7852   20.9264 N   0  0  0  0  0  0  0  0  0  0  0  0
    6.6043   -0.0915   19.8800 C   0  0  0  0  0  0  0  0  0  0  0  0
    5.4119    0.5912   20.1437 C   0  0  0  0  0  0  0  0  0  0  0  0
    4.8159    1.3006   19.0990 C   0  0  0  0  0  0  0  0  0  0  0  0
    5.4201    1.2929   17.8359 C   0  0  0  0  0  0  0  0  0  0  0  0
    6.5476    0.6177   17.5671 N   0  0  0  0  0  0  0  0  0  0  0  0
    7.1203   -0.0564   18.5713 C   0  0  0  0  0  0  0  0  0  0  0  0
    8.0431   -0.5829   18.3313 H   0  0  0  0  0  0  0  0  0  0  0  0
    4.9790    1.8425   17.0081 H   0  0  0  0  0  0  0  0  0  0  0  0
    3.8995    1.8566   19.2561 H   0  0  0  0  0  0  0  0  0  0  0  0
    4.9801    0.5524   21.1452 H   0  0  0  0  0  0  0  0  0  0  0  0
   10.0049   -0.7086   19.8837 H   0  0  0  0  0  0  0  0  0  0  0  0
    9.2701    0.8827   20.1595 H   0  0  0  0  0  0  0  0  0  0  0  0
   12.0108   -1.3189   21.0847 H   0  0  0  0  0  0  0  0  0  0  0  0
   13.8385   -0.7547   22.6685 H   0  0  0  0  0  0  0  0  0  0  0  0
   13.6380    1.2838   24.0954 H   0  0  0  0  0  0  0  0  0  0  0  0
   11.6259    2.7301   23.8919 H   0  0  0  0  0  0  0  0  0  0  0  0
    7.3752    1.5608   22.4593 H   0  0  0  0  0  0  0  0  0  0  0  0
    8.4818    1.2080   23.8490 H   0  0  0  0  0  0  0  0  0  0  0  0
    7.5558    2.7437   23.7665 H   0  0  0  0  0  0  0  0  0  0  0  0
  1  2  1  0
  2  3  2  0
  2  4  1  0
  4  5  2  0
  5  6  1  0
  6  7  2  0
  7  8  1  0
  8  9  2  0
  9 10  1  0
 10 11  1  0
 11 12  2  0
 12 13  1  0
 13 14  1  0
 14 15  2  0
 15 16  1  0
 16 17  2  0
 17 18  1  0
 18 19  2  0
 19 20  1  0
 18 21  1  0
 17 22  1  0
 16 23  1  0
 15 24  1  0
 13 25  2  0
 25 26  1  0
 26 27  1  0
 27 28  2  0
 28 29  1  0
 29 30  2  0
 30 31  1  0
 31 32  2  0
 32 33  1  0
 30 34  1  0
 29 35  1  0
 28 36  1  0
 10 37  1  0
 10 38  1  0
  8 39  1  0
  7 40  1  0
  6 41  1  0
  5 42  1  0
  1 43  1  0
  1 44  1  0
  1 45  1  0
  9  4  1  0
 26 11  1  0
 32 27  1  0
 19 14  1  0
M  END
>  <cnnaffinity>  (1) 
-6.43447

>  <filename>  (1) 
CS(=O)c1ccccc1Cc1nc(-c2ccccc2)nn1-c1cccnc1

$$$$
