
     RDKit          3D

 31 33  0  0  0  0  0  0  0  0999 V2000
    4.9260    1.8010   16.9793 H   0  0  0  0  0  0  0  0  0  0  0  0
    5.3994    1.2963   17.8197 C   0  0  0  0  0  0  0  0  0  0  0  0
    6.5622    0.6763   17.5617 N   0  0  0  0  0  0  0  0  0  0  0  0
    7.1679    0.0455   18.5731 C   0  0  0  0  0  0  0  0  0  0  0  0
    8.1205   -0.4298   18.3399 H   0  0  0  0  0  0  0  0  0  0  0  0
    6.6434   -0.0166   19.8766 C   0  0  0  0  0  0  0  0  0  0  0  0
    7.3664   -0.7077   20.9524 C   0  0  0  0  0  0  0  0  0  0  0  0
    8.4795   -1.4156   20.7094 N   0  0  0  0  0  0  0  0  0  0  0  0
    8.8909   -1.7597   21.9545 N   0  0  0  0  0  0  0  0  0  0  0  0
   10.0924   -2.2121   22.5012 C   0  0  0  0  0  0  0  0  0  0  0  0
   10.8678   -2.5701   21.8450 H   0  0  0  0  0  0  0  0  0  0  0  0
    9.9805   -2.0351   23.8417 C   0  0  0  0  0  0  0  0  0  0  0  0
   10.6959   -2.1448   24.6412 H   0  0  0  0  0  0  0  0  0  0  0  0
    8.7172   -1.5217   24.1316 N   0  0  0  0  0  0  0  0  0  0  0  0
    8.3097   -0.8462   25.3062 C   0  0  0  0  0  0  0  0  0  0  0  0
    8.5828   -1.3873   26.2111 H   0  0  0  0  0  0  0  0  0  0  0  0
    7.2425   -0.6308   25.2751 H   0  0  0  0  0  0  0  0  0  0  0  0
    9.1011    0.7619   25.5354 S   0  0  0  0  0  0  0  0  0  0  0  0
   10.5381    0.5262   25.5512 O   0  0  0  0  0  0  0  0  0  0  0  0
    8.3846    1.3829   26.6373 O   0  0  0  0  0  0  0  0  0  0  0  0
    8.7582    1.7599   24.1240 C   0  0  0  0  0  0  0  0  0  0  0  0
    9.2385    2.7088   24.3681 H   0  0  0  0  0  0  0  0  0  0  0  0
    7.6786    1.8905   24.0474 H   0  0  0  0  0  0  0  0  0  0  0  0
    9.2127    1.2785   23.2601 H   0  0  0  0  0  0  0  0  0  0  0  0
    8.0823   -1.3038   22.9309 C   0  0  0  0  0  0  0  0  0  0  0  0
    7.0588   -0.6083   22.3333 C   0  0  0  0  0  0  0  0  0  0  0  0
    6.2877   -0.0106   22.7902 H   0  0  0  0  0  0  0  0  0  0  0  0
    5.4334    0.6468   20.1295 C   0  0  0  0  0  0  0  0  0  0  0  0
    4.9944    0.6441   21.1274 H   0  0  0  0  0  0  0  0  0  0  0  0
    4.8022    1.3116   19.0847 C   0  0  0  0  0  0  0  0  0  0  0  0
    3.8714    1.8456   19.2415 H   0  0  0  0  0  0  0  0  0  0  0  0
  1  2  1  0
  2  3  2  0
  3  4  1  0
  4  5  1  0
  4  6  2  0
  6  7  1  0
  7  8  2  0
  8  9  1  0
  9 10  1  0
 10 11  1  0
 10 12  2  0
 12 13  1  0
 12 14  1  0
 14 15  1  0
 15 16  1  0
 15 17  1  0
 15 18  1  0
 18 19  2  0
 18 20  2  0
 18 21  1  0
 21 22  1  0
 21 23  1  0
 21 24  1  0
 14 25  1  0
 25 26  2  0
 26 27  1  0
  6 28  1  0
 28 29  1  0
 28 30  2  0
 30 31  1  0
 30  2  1  0
 26  7  1  0
 25  9  1  0
M  END
>  <cnnaffinity>  (1) 
-5.09916

>  <filename>  (1) 
CS(=O)(=O)Cn1ccn2nc(-c3cccnc3)cc12

$$$$
