
     RDKit          3D

 30 31  0  0  0  0  0  0  0  0999 V2000
    4.9325    1.7950   16.9875 H   0  0  0  0  0  0  0  0  0  0  0  0
    5.4012    1.2969   17.8342 C   0  0  0  0  0  0  0  0  0  0  0  0
    6.5629    0.6755   17.5830 N   0  0  0  0  0  0  0  0  0  0  0  0
    7.1626    0.0492   18.6029 C   0  0  0  0  0  0  0  0  0  0  0  0
    8.1095   -0.4364   18.3712 H   0  0  0  0  0  0  0  0  0  0  0  0
    6.6338   -0.0085   19.9009 C   0  0  0  0  0  0  0  0  0  0  0  0
    7.4018   -0.6626   21.0233 C   0  0  1  0  0  0  0  0  0  0  0  0
    6.7027   -1.0023   21.8033 H   0  0  0  0  0  0  0  0  0  0  0  0
    8.0324   -1.8075   20.5442 F   0  0  0  0  0  0  0  0  0  0  0  0
    8.4308    0.2717   21.6276 C   0  0  0  0  0  0  0  0  0  0  0  0
    9.7112    0.3804   21.0717 C   0  0  0  0  0  0  0  0  0  0  0  0
    9.9816   -0.2585   20.2355 H   0  0  0  0  0  0  0  0  0  0  0  0
   10.6267    1.2921   21.5988 C   0  0  0  0  0  0  0  0  0  0  0  0
   11.6207    1.3714   21.1712 H   0  0  0  0  0  0  0  0  0  0  0  0
   10.2814    2.1056   22.6776 C   0  0  0  0  0  0  0  0  0  0  0  0
   11.0095    2.8163   23.0701 H   0  0  0  0  0  0  0  0  0  0  0  0
    8.9934    1.9984   23.2272 C   0  0  0  0  0  0  0  0  0  0  0  0
    8.5072    3.0723   24.5790 S   0  0  0  0  0  0  0  0  0  0  0  0
    7.0620    3.2554   24.5340 O   0  0  0  0  0  0  0  0  0  0  0  0
    9.4342    4.1981   24.6358 O   0  0  0  0  0  0  0  0  0  0  0  0
    8.8150    2.1463   26.0444 C   0  0  0  0  0  0  0  0  0  0  0  0
    8.5163    2.8199   26.8481 H   0  0  0  0  0  0  0  0  0  0  0  0
    8.1874    1.2583   26.0259 H   0  0  0  0  0  0  0  0  0  0  0  0
    9.8782    1.9238   26.0890 H   0  0  0  0  0  0  0  0  0  0  0  0
    8.0632    1.0961   22.6956 C   0  0  0  0  0  0  0  0  0  0  0  0
    7.0469    1.0435   23.0871 H   0  0  0  0  0  0  0  0  0  0  0  0
    5.4232    0.6499   20.1470 C   0  0  0  0  0  0  0  0  0  0  0  0
    4.9796    0.6495   21.1460 H   0  0  0  0  0  0  0  0  0  0  0  0
    4.7949    1.3145   19.0950 C   0  0  0  0  0  0  0  0  0  0  0  0
    3.8650    1.8530   19.2398 H   0  0  0  0  0  0  0  0  0  0  0  0
  1  2  1  0
  2  3  2  0
  3  4  1  0
  4  5  1  0
  4  6  2  0
  6  7  1  0
  7  8  1  1
  7  9  1  0
  7 10  1  0
 10 11  2  0
 11 12  1  0
 11 13  1  0
 13 14  1  0
 13 15  2  0
 15 16  1  0
 15 17  1  0
 17 18  1  0
 18 19  2  0
 18 20  2  0
 18 21  1  0
 21 22  1  0
 21 23  1  0
 21 24  1  0
 17 25  2  0
 25 26  1  0
  6 27  1  0
 27 28  1  0
 27 29  2  0
 29 30  1  0
 29  2  1  0
 25 10  1  0
M  END
>  <cnnaffinity>  (1) 
-4.49146

>  <filename>  (1) 
CS(=O)(=O)c1cccc([C@H](F)c2cccnc2)c1

$$$$
