
     RDKit          3D

 38 40  0  0  0  0  0  0  0  0999 V2000
    4.9632    1.8577   16.9199 H   0  0  0  0  0  0  0  0  0  0  0  0
    5.4091    1.3358   17.7642 C   0  0  0  0  0  0  0  0  0  0  0  0
    6.5721    0.7100   17.5250 N   0  0  0  0  0  0  0  0  0  0  0  0
    7.1504    0.0752   18.5503 C   0  0  0  0  0  0  0  0  0  0  0  0
    8.0997   -0.4176   18.3293 H   0  0  0  0  0  0  0  0  0  0  0  0
    6.6061    0.0103   19.8473 C   0  0  0  0  0  0  0  0  0  0  0  0
    7.3274   -0.6816   20.9910 C   0  0  2  0  0  0  0  0  0  0  0  0
    8.1671   -1.2470   20.5639 H   0  0  0  0  0  0  0  0  0  0  0  0
    6.4794   -1.7279   21.7317 C   0  0  0  0  0  0  0  0  0  0  0  0
    5.8391   -2.6454   21.2693 O   0  0  0  0  0  0  0  0  0  0  0  0
    6.5945   -1.4890   23.0707 N   0  0  0  0  0  0  0  0  0  0  0  0
    5.8447   -1.9224   23.5955 H   0  0  0  0  0  0  0  0  0  0  0  0
    7.0635   -0.1525   23.3885 C   0  0  0  0  0  0  0  0  0  0  0  0
    7.7119   -0.1775   24.2781 H   0  0  0  0  0  0  0  0  0  0  0  0
    6.2315    0.5437   23.5977 H   0  0  0  0  0  0  0  0  0  0  0  0
    7.8311    0.2907   22.1096 C   0  0  1  0  0  0  0  0  0  0  0  0
    7.5641    1.3270   21.8705 H   0  0  0  0  0  0  0  0  0  0  0  0
    9.3426    0.2394   22.2749 C   0  0  0  0  0  0  0  0  0  0  0  0
    9.9499   -0.9935   22.5593 C   0  0  0  0  0  0  0  0  0  0  0  0
    9.3363   -1.8743   22.7190 H   0  0  0  0  0  0  0  0  0  0  0  0
   11.3331   -1.1042   22.6693 C   0  0  0  0  0  0  0  0  0  0  0  0
   11.7730   -2.0851   22.8003 H   0  0  0  0  0  0  0  0  0  0  0  0
   12.1430    0.0245   22.5843 C   0  0  0  0  0  0  0  0  0  0  0  0
   13.2233   -0.0594   22.6938 H   0  0  0  0  0  0  0  0  0  0  0  0
   11.5393    1.2739   22.3604 C   0  0  0  0  0  0  0  0  0  0  0  0
   12.6204    2.7069   22.3006 S   0  0  0  0  0  0  0  0  0  0  0  0
   12.4603    3.3680   21.0116 O   0  0  0  0  0  0  0  0  0  0  0  0
   13.9214    2.2949   22.8144 O   0  0  0  0  0  0  0  0  0  0  0  0
   12.0117    3.8915   23.4451 C   0  0  0  0  0  0  0  0  0  0  0  0
   12.7228    4.7134   23.3538 H   0  0  0  0  0  0  0  0  0  0  0  0
   11.9983    3.4684   24.4469 H   0  0  0  0  0  0  0  0  0  0  0  0
   11.0393    4.2073   23.0761 H   0  0  0  0  0  0  0  0  0  0  0  0
   10.1545    1.3793   22.1468 C   0  0  0  0  0  0  0  0  0  0  0  0
    9.6968    2.3285   21.8533 H   0  0  0  0  0  0  0  0  0  0  0  0
    5.3858    0.6563   20.0689 C   0  0  0  0  0  0  0  0  0  0  0  0
    4.9268    0.6372   21.0597 H   0  0  0  0  0  0  0  0  0  0  0  0
    4.7784    1.3306   19.0105 C   0  0  0  0  0  0  0  0  0  0  0  0
    3.8477    1.8639   19.1425 H   0  0  0  0  0  0  0  0  0  0  0  0
  1  2  1  0
  2  3  2  0
  3  4  1  0
  4  5  1  0
  4  6  2  0
  6  7  1  0
  7  8  1  6
  7  9  1  0
  9 10  2  0
  9 11  1  0
 11 12  1  0
 11 13  1  0
 13 14  1  0
 13 15  1  0
 13 16  1  0
 16 17  1  6
 16 18  1  0
 18 19  2  0
 19 20  1  0
 19 21  1  0
 21 22  1  0
 21 23  2  0
 23 24  1  0
 23 25  1  0
 25 26  1  0
 26 27  2  0
 26 28  2  0
 26 29  1  0
 29 30  1  0
 29 31  1  0
 29 32  1  0
 25 33  2  0
 33 34  1  0
  6 35  1  0
 35 36  1  0
 35 37  2  0
 37 38  1  0
 37  2  1  0
 16  7  1  0
 33 18  1  0
M  END
>  <cnnaffinity>  (1) 
-5.85254

>  <filename>  (1) 
CS(=O)(=O)c1cccc([C@@H]2CNC(=O)[C@H]2c2cccnc2)c1

$$$$
