
     RDKit          3D

 47 50  0  0  0  0  0  0  0  0999 V2000
    6.8714    2.2598   23.2529 C   0  0  0  0  0  0  0  0  0  0  0  0
    7.9436    2.7911   21.8970 S   0  0  0  0  0  0  0  0  0  0  0  0
    7.9242    4.2886   22.0022 O   0  0  0  0  0  0  0  0  0  0  0  0
    9.5538    2.2189   22.5317 C   0  0  0  0  0  0  0  0  0  0  0  0
   10.1287    2.9200   23.6006 C   0  0  0  0  0  0  0  0  0  0  0  0
   11.3909    2.5501   24.0706 C   0  0  0  0  0  0  0  0  0  0  0  0
   12.0911    1.4965   23.4797 C   0  0  0  0  0  0  0  0  0  0  0  0
   11.5111    0.8130   22.4073 C   0  0  0  0  0  0  0  0  0  0  0  0
   10.2455    1.1601   21.9226 C   0  0  0  0  0  0  0  0  0  0  0  0
    9.6221    0.3195   20.8329 C   0  0  0  0  0  0  0  0  0  0  0  0
    8.5962   -0.5968   21.3841 C   0  0  0  0  0  0  0  0  0  0  0  0
    8.8296   -1.4474   22.3540 N   0  0  0  0  0  0  0  0  0  0  0  0
    7.6214   -2.0337   22.5528 C   0  0  0  0  0  0  0  0  0  0  0  0
    7.4008   -3.0257   23.6128 C   0  0  0  0  0  0  0  0  0  0  0  0
    6.1159   -3.5816   23.7924 C   0  0  0  0  0  0  0  0  0  0  0  0
    5.8899   -4.5165   24.7920 C   0  0  0  0  0  0  0  0  0  0  0  0
    6.9377   -4.9115   25.6417 C   0  0  0  0  0  0  0  0  0  0  0  0
    6.7069   -5.8262   26.6267 N   0  0  0  0  0  0  0  0  0  0  0  0
    5.7906   -6.2195   26.7270 H   0  0  0  0  0  0  0  0  0  0  0  0
    7.4636   -6.1211   27.2157 H   0  0  0  0  0  0  0  0  0  0  0  0
    8.2188   -4.3556   25.4769 C   0  0  0  0  0  0  0  0  0  0  0  0
    8.4511   -3.4203   24.4749 C   0  0  0  0  0  0  0  0  0  0  0  0
    9.4471   -2.9876   24.3595 H   0  0  0  0  0  0  0  0  0  0  0  0
    9.0036   -4.6806   26.1542 H   0  0  0  0  0  0  0  0  0  0  0  0
    4.9119   -4.9596   24.9472 H   0  0  0  0  0  0  0  0  0  0  0  0
    5.3004   -3.2618   23.1412 H   0  0  0  0  0  0  0  0  0  0  0  0
    6.6659   -1.6052   21.7362 N   0  0  0  0  0  0  0  0  0  0  0  0
    7.3079   -0.7018   20.9557 N   0  0  0  0  0  0  0  0  0  0  0  0
    6.6361   -0.0204   19.9012 C   0  0  0  0  0  0  0  0  0  0  0  0
    5.4327    0.6368   20.1584 C   0  0  0  0  0  0  0  0  0  0  0  0
    4.8065    1.3144   19.1083 C   0  0  0  0  0  0  0  0  0  0  0  0
    5.3926    1.2937   17.8377 C   0  0  0  0  0  0  0  0  0  0  0  0
    6.5423    0.6538   17.5779 N   0  0  0  0  0  0  0  0  0  0  0  0
    7.1509    0.0233   18.5900 C   0  0  0  0  0  0  0  0  0  0  0  0
    8.1020   -0.4488   18.3495 H   0  0  0  0  0  0  0  0  0  0  0  0
    4.9323    1.8057   16.9955 H   0  0  0  0  0  0  0  0  0  0  0  0
    3.8779    1.8505   19.2558 H   0  0  0  0  0  0  0  0  0  0  0  0
    5.0233    0.6050   21.1692 H   0  0  0  0  0  0  0  0  0  0  0  0
   10.3737   -0.3296   20.3789 H   0  0  0  0  0  0  0  0  0  0  0  0
    9.1870    0.9600   20.0668 H   0  0  0  0  0  0  0  0  0  0  0  0
   12.0344   -0.0148   21.9363 H   0  0  0  0  0  0  0  0  0  0  0  0
   13.0688    1.2032   23.8565 H   0  0  0  0  0  0  0  0  0  0  0  0
   11.8472    3.1099   24.8764 H   0  0  0  0  0  0  0  0  0  0  0  0
    9.5982    3.7743   24.0159 H   0  0  0  0  0  0  0  0  0  0  0  0
    7.1819    2.7768   24.1658 H   0  0  0  0  0  0  0  0  0  0  0  0
    5.8690    2.6062   22.9836 H   0  0  0  0  0  0  0  0  0  0  0  0
    6.8901    1.1757   23.3792 H   0  0  0  0  0  0  0  0  0  0  0  0
  1  2  1  0
  2  3  2  0
  2  4  1  0
  4  5  2  0
  5  6  1  0
  6  7  2  0
  7  8  1  0
  8  9  2  0
  9 10  1  0
 10 11  1  0
 11 12  2  0
 12 13  1  0
 13 14  1  0
 14 15  2  0
 15 16  1  0
 16 17  2  0
 17 18  1  0
 18 19  1  0
 18 20  1  0
 17 21  1  0
 21 22  2  0
 22 23  1  0
 21 24  1  0
 16 25  1  0
 15 26  1  0
 13 27  2  0
 27 28  1  0
 28 29  1  0
 29 30  2  0
 30 31  1  0
 31 32  2  0
 32 33  1  0
 33 34  2  0
 34 35  1  0
 32 36  1  0
 31 37  1  0
 30 38  1  0
 10 39  1  0
 10 40  1  0
  8 41  1  0
  7 42  1  0
  6 43  1  0
  5 44  1  0
  1 45  1  0
  1 46  1  0
  1 47  1  0
  9  4  1  0
 28 11  1  0
 34 29  1  0
 22 14  1  0
M  END
>  <cnnaffinity>  (1) 
-6.23732

>  <filename>  (1) 
CS(=O)c1ccccc1Cc1nc(-c2ccc(N)cc2)nn1-c1cccnc1

$$$$
