
     RDKit          3D

 44 47  0  0  0  0  0  0  0  0999 V2000
    8.0857    1.9716   23.1980 C   0  0  0  0  0  0  0  0  0  0  0  0
    9.3946    2.7813   22.2505 S   0  0  0  0  0  0  0  0  0  0  0  0
    8.8781    2.8024   20.8368 O   0  0  0  0  0  0  0  0  0  0  0  0
   10.7127    1.5388   22.3674 C   0  0  0  0  0  0  0  0  0  0  0  0
   11.7248    1.8389   23.2885 C   0  0  0  0  0  0  0  0  0  0  0  0
   12.8528    1.0233   23.3930 C   0  0  0  0  0  0  0  0  0  0  0  0
   12.9632   -0.1082   22.5873 C   0  0  0  0  0  0  0  0  0  0  0  0
   11.9364   -0.4186   21.6877 C   0  0  0  0  0  0  0  0  0  0  0  0
   10.8011    0.3988   21.5494 C   0  0  0  0  0  0  0  0  0  0  0  0
    9.6691   -0.0021   20.6300 C   0  0  0  0  0  0  0  0  0  0  0  0
    8.5650   -0.6831   21.3601 C   0  0  0  0  0  0  0  0  0  0  0  0
    8.7105   -1.3942   22.4497 N   0  0  0  0  0  0  0  0  0  0  0  0
    7.4843   -1.9510   22.6460 C   0  0  0  0  0  0  0  0  0  0  0  0
    7.2531   -2.9304   23.7640 C   0  0  0  0  0  0  0  0  0  0  0  0
    5.9901   -3.4978   24.0297 C   0  0  0  0  0  0  0  0  0  0  0  0
    5.8571   -4.4046   25.0877 C   0  0  0  0  0  0  0  0  0  0  0  0
    6.8677   -4.7856   25.8783 N   0  0  0  0  0  0  0  0  0  0  0  0
    8.0722   -4.2564   25.6264 C   0  0  0  0  0  0  0  0  0  0  0  0
    8.3151   -3.3454   24.5973 C   0  0  0  0  0  0  0  0  0  0  0  0
    9.3227   -2.9689   24.4499 H   0  0  0  0  0  0  0  0  0  0  0  0
    8.8852   -4.5710   26.2785 H   0  0  0  0  0  0  0  0  0  0  0  0
    4.8893   -4.8474   25.3126 H   0  0  0  0  0  0  0  0  0  0  0  0
    5.1224   -3.2410   23.4302 H   0  0  0  0  0  0  0  0  0  0  0  0
    6.5753   -1.5850   21.7581 N   0  0  0  0  0  0  0  0  0  0  0  0
    7.2712   -0.7766   20.9136 N   0  0  0  0  0  0  0  0  0  0  0  0
    6.6036   -0.0798   19.8611 C   0  0  0  0  0  0  0  0  0  0  0  0
    5.4112    0.6049   20.1224 C   0  0  0  0  0  0  0  0  0  0  0  0
    4.8100    1.3137   19.0795 C   0  0  0  0  0  0  0  0  0  0  0  0
    5.4109    1.3080   17.8148 C   0  0  0  0  0  0  0  0  0  0  0  0
    6.5400    0.6357   17.5467 N   0  0  0  0  0  0  0  0  0  0  0  0
    7.1162   -0.0390   18.5489 C   0  0  0  0  0  0  0  0  0  0  0  0
    8.0392   -0.5608   18.2999 H   0  0  0  0  0  0  0  0  0  0  0  0
    4.9654    1.8546   16.9865 H   0  0  0  0  0  0  0  0  0  0  0  0
    3.8910    1.8671   19.2371 H   0  0  0  0  0  0  0  0  0  0  0  0
    4.9785    0.5713   21.1241 H   0  0  0  0  0  0  0  0  0  0  0  0
   10.0130   -0.7057   19.8716 H   0  0  0  0  0  0  0  0  0  0  0  0
    9.2791    0.8835   20.1344 H   0  0  0  0  0  0  0  0  0  0  0  0
   12.0136   -1.3188   21.0805 H   0  0  0  0  0  0  0  0  0  0  0  0
   13.8368   -0.7558   22.6713 H   0  0  0  0  0  0  0  0  0  0  0  0
   13.6344    1.2834   24.1012 H   0  0  0  0  0  0  0  0  0  0  0  0
   11.6226    2.7301   23.8933 H   0  0  0  0  0  0  0  0  0  0  0  0
    7.5649    2.7361   23.7788 H   0  0  0  0  0  0  0  0  0  0  0  0
    7.3784    1.5474   22.4774 H   0  0  0  0  0  0  0  0  0  0  0  0
    8.4981    1.2056   23.8550 H   0  0  0  0  0  0  0  0  0  0  0  0
  1  2  1  0
  2  3  2  0
  2  4  1  0
  4  5  2  0
  5  6  1  0
  6  7  2  0
  7  8  1  0
  8  9  2  0
  9 10  1  0
 10 11  1  0
 11 12  2  0
 12 13  1  0
 13 14  1  0
 14 15  2  0
 15 16  1  0
 16 17  2  0
 17 18  1  0
 18 19  2  0
 19 20  1  0
 18 21  1  0
 16 22  1  0
 15 23  1  0
 13 24  2  0
 24 25  1  0
 25 26  1  0
 26 27  2  0
 27 28  1  0
 28 29  2  0
 29 30  1  0
 30 31  2  0
 31 32  1  0
 29 33  1  0
 28 34  1  0
 27 35  1  0
 10 36  1  0
 10 37  1  0
  8 38  1  0
  7 39  1  0
  6 40  1  0
  5 41  1  0
  1 42  1  0
  1 43  1  0
  1 44  1  0
  9  4  1  0
 25 11  1  0
 31 26  1  0
 19 14  1  0
M  END
>  <cnnaffinity>  (1) 
-6.50179

>  <filename>  (1) 
CS(=O)c1ccccc1Cc1nc(-c2ccncc2)nn1-c1cccnc1

$$$$
