
     RDKit          3D

 44 47  0  0  0  0  0  0  0  0999 V2000
    8.0741    1.9712   23.1846 C   0  0  0  0  0  0  0  0  0  0  0  0
    9.4015    2.7752   22.2621 S   0  0  0  0  0  0  0  0  0  0  0  0
    8.9052    2.8073   20.8415 O   0  0  0  0  0  0  0  0  0  0  0  0
   10.7167    1.5305   22.3884 C   0  0  0  0  0  0  0  0  0  0  0  0
   11.7376    1.8359   23.2987 C   0  0  0  0  0  0  0  0  0  0  0  0
   12.8666    1.0209   23.3991 C   0  0  0  0  0  0  0  0  0  0  0  0
   12.9715   -0.1137   22.5961 C   0  0  0  0  0  0  0  0  0  0  0  0
   11.9376   -0.4282   21.7059 C   0  0  0  0  0  0  0  0  0  0  0  0
   10.8006    0.3865   21.5739 C   0  0  0  0  0  0  0  0  0  0  0  0
    9.6650   -0.0120   20.6598 C   0  0  0  0  0  0  0  0  0  0  0  0
    8.5651   -0.7024   21.3871 C   0  0  0  0  0  0  0  0  0  0  0  0
    8.6888   -1.4205   22.4781 N   0  0  0  0  0  0  0  0  0  0  0  0
    7.4502   -1.9571   22.6454 C   0  0  0  0  0  0  0  0  0  0  0  0
    7.1796   -2.9037   23.7199 C   0  0  0  0  0  0  0  0  0  0  0  0
    5.9120   -3.4673   23.9698 C   0  0  0  0  0  0  0  0  0  0  0  0
    5.8316   -4.3640   25.0260 C   0  0  0  0  0  0  0  0  0  0  0  0
    4.6632   -4.9419   25.3342 F   0  0  0  0  0  0  0  0  0  0  0  0
    6.9711   -4.6749   25.7824 C   0  0  0  0  0  0  0  0  0  0  0  0
    8.1704   -4.1416   25.5239 N   0  0  0  0  0  0  0  0  0  0  0  0
    8.2718   -3.2744   24.5135 C   0  0  0  0  0  0  0  0  0  0  0  0
    9.2559   -2.8587   24.3151 H   0  0  0  0  0  0  0  0  0  0  0  0
    6.9032   -5.3711   26.6141 H   0  0  0  0  0  0  0  0  0  0  0  0
    5.0313   -3.2209   23.3746 H   0  0  0  0  0  0  0  0  0  0  0  0
    6.5612   -1.5883   21.7509 N   0  0  0  0  0  0  0  0  0  0  0  0
    7.2782   -0.7869   20.9230 N   0  0  0  0  0  0  0  0  0  0  0  0
    6.6185   -0.0865   19.8811 C   0  0  0  0  0  0  0  0  0  0  0  0
    5.4251    0.5904   20.1514 C   0  0  0  0  0  0  0  0  0  0  0  0
    4.8263    1.2983   19.1091 C   0  0  0  0  0  0  0  0  0  0  0  0
    5.4294    1.2894   17.8442 C   0  0  0  0  0  0  0  0  0  0  0  0
    6.5588    0.6176   17.5713 N   0  0  0  0  0  0  0  0  0  0  0  0
    7.1342   -0.0541   18.5747 C   0  0  0  0  0  0  0  0  0  0  0  0
    8.0570   -0.5848   18.3421 H   0  0  0  0  0  0  0  0  0  0  0  0
    4.9832    1.8327   17.0158 H   0  0  0  0  0  0  0  0  0  0  0  0
    3.9069    1.8496   19.2701 H   0  0  0  0  0  0  0  0  0  0  0  0
    4.9951    0.5423   21.1545 H   0  0  0  0  0  0  0  0  0  0  0  0
   10.0027   -0.7019   19.8836 H   0  0  0  0  0  0  0  0  0  0  0  0
    9.2684    0.8776   20.1761 H   0  0  0  0  0  0  0  0  0  0  0  0
   12.0111   -1.3293   21.0989 H   0  0  0  0  0  0  0  0  0  0  0  0
   13.8459   -0.7607   22.6744 H   0  0  0  0  0  0  0  0  0  0  0  0
   13.6567    1.2832   24.0976 H   0  0  0  0  0  0  0  0  0  0  0  0
   11.6467    2.7367   23.8916 H   0  0  0  0  0  0  0  0  0  0  0  0
    7.3678    1.5609   22.4532 H   0  0  0  0  0  0  0  0  0  0  0  0
    8.4729    1.1957   23.8385 H   0  0  0  0  0  0  0  0  0  0  0  0
    7.5574    2.7366   23.7651 H   0  0  0  0  0  0  0  0  0  0  0  0
  1  2  1  0
  2  3  2  0
  2  4  1  0
  4  5  2  0
  5  6  1  0
  6  7  2  0
  7  8  1  0
  8  9  2  0
  9 10  1  0
 10 11  1  0
 11 12  2  0
 12 13  1  0
 13 14  1  0
 14 15  2  0
 15 16  1  0
 16 17  1  0
 16 18  2  0
 18 19  1  0
 19 20  2  0
 20 21  1  0
 18 22  1  0
 15 23  1  0
 13 24  2  0
 24 25  1  0
 25 26  1  0
 26 27  2  0
 27 28  1  0
 28 29  2  0
 29 30  1  0
 30 31  2  0
 31 32  1  0
 29 33  1  0
 28 34  1  0
 27 35  1  0
 10 36  1  0
 10 37  1  0
  8 38  1  0
  7 39  1  0
  6 40  1  0
  5 41  1  0
  1 42  1  0
  1 43  1  0
  1 44  1  0
  9  4  1  0
 25 11  1  0
 31 26  1  0
 20 14  1  0
M  END
>  <cnnaffinity>  (1) 
-6.58377

>  <filename>  (1) 
CS(=O)c1ccccc1Cc1nc(-c2cncc(F)c2)nn1-c1cccnc1

$$$$
