
     RDKit          3D

 33 35  0  0  0  0  0  0  0  0999 V2000
    4.9355    1.7761   16.9965 H   0  0  0  0  0  0  0  0  0  0  0  0
    5.4065    1.2867   17.8442 C   0  0  0  0  0  0  0  0  0  0  0  0
    6.5698    0.6661   17.5982 N   0  0  0  0  0  0  0  0  0  0  0  0
    7.1703    0.0542   18.6225 C   0  0  0  0  0  0  0  0  0  0  0  0
    8.1147   -0.4193   18.3640 H   0  0  0  0  0  0  0  0  0  0  0  0
    6.6553    0.0044   19.9289 C   0  0  0  0  0  0  0  0  0  0  0  0
    7.3744   -0.7068   21.0025 C   0  0  0  0  0  0  0  0  0  0  0  0
    6.8327   -0.7220   22.2663 N   0  0  0  0  0  0  0  0  0  0  0  0
    7.5629   -1.3854   23.1145 C   0  0  0  0  0  0  0  0  0  0  0  0
    7.2297   -1.5621   24.5484 C   0  0  0  0  0  0  0  0  0  0  0  0
    8.0659   -2.2907   25.4155 C   0  0  0  0  0  0  0  0  0  0  0  0
    8.9923   -2.7463   25.0593 H   0  0  0  0  0  0  0  0  0  0  0  0
    7.7154   -2.4315   26.7591 C   0  0  0  0  0  0  0  0  0  0  0  0
    8.3678   -2.9970   27.4162 H   0  0  0  0  0  0  0  0  0  0  0  0
    6.5421   -1.8661   27.2667 C   0  0  0  0  0  0  0  0  0  0  0  0
    6.2549   -1.9934   28.3080 H   0  0  0  0  0  0  0  0  0  0  0  0
    5.7107   -1.1423   26.4055 C   0  0  0  0  0  0  0  0  0  0  0  0
    4.1716   -0.4605   27.0276 S   0  0  0  0  0  0  0  0  0  0  0  0
    3.8505   -1.1335   28.2819 O   0  0  0  0  0  0  0  0  0  0  0  0
    3.2263   -0.3625   25.9236 O   0  0  0  0  0  0  0  0  0  0  0  0
    4.5526    1.2031   27.4741 C   0  0  0  0  0  0  0  0  0  0  0  0
    3.6237    1.6265   27.8534 H   0  0  0  0  0  0  0  0  0  0  0  0
    4.8764    1.7413   26.5894 H   0  0  0  0  0  0  0  0  0  0  0  0
    5.3093    1.2023   28.2519 H   0  0  0  0  0  0  0  0  0  0  0  0
    6.0527   -0.9817   25.0590 C   0  0  0  0  0  0  0  0  0  0  0  0
    5.4286   -0.4093   24.3816 H   0  0  0  0  0  0  0  0  0  0  0  0
    9.0083   -2.0554   22.3923 S   0  0  0  0  0  0  0  0  0  0  0  0
    8.5546   -1.3778   20.8812 C   0  0  0  0  0  0  0  0  0  0  0  0
    9.1559   -1.4940   19.9937 H   0  0  0  0  0  0  0  0  0  0  0  0
    5.4303    0.6552   20.1673 C   0  0  0  0  0  0  0  0  0  0  0  0
    5.0025    0.6359   21.1705 H   0  0  0  0  0  0  0  0  0  0  0  0
    4.8081    1.3075   19.1074 C   0  0  0  0  0  0  0  0  0  0  0  0
    3.8766    1.8411   19.2525 H   0  0  0  0  0  0  0  0  0  0  0  0
  1  2  1  0
  2  3  2  0
  3  4  1  0
  4  5  1  0
  4  6  2  0
  6  7  1  0
  7  8  1  0
  8  9  2  0
  9 10  1  0
 10 11  2  0
 11 12  1  0
 11 13  1  0
 13 14  1  0
 13 15  2  0
 15 16  1  0
 15 17  1  0
 17 18  1  0
 18 19  2  0
 18 20  2  0
 18 21  1  0
 21 22  1  0
 21 23  1  0
 21 24  1  0
 17 25  2  0
 25 26  1  0
  9 27  1  0
 27 28  1  0
 28 29  1  0
  6 30  1  0
 30 31  1  0
 30 32  2  0
 32 33  1  0
 32  2  1  0
 28  7  2  0
 25 10  1  0
M  END
>  <cnnaffinity>  (1) 
-5.00581

>  <filename>  (1) 
CS(=O)(=O)c1cccc(-c2nc(-c3cccnc3)cs2)c1

$$$$
