
     RDKit          3D

 36 39  0  0  0  0  0  0  0  0999 V2000
    4.9117    1.8053   16.9758 H   0  0  0  0  0  0  0  0  0  0  0  0
    5.3815    1.3031   17.8214 C   0  0  0  0  0  0  0  0  0  0  0  0
    6.5453    0.6852   17.5639 N   0  0  0  0  0  0  0  0  0  0  0  0
    7.1538    0.0746   18.5843 C   0  0  0  0  0  0  0  0  0  0  0  0
    8.1050   -0.3974   18.3440 H   0  0  0  0  0  0  0  0  0  0  0  0
    6.6575    0.0278   19.9079 C   0  0  0  0  0  0  0  0  0  0  0  0
    7.4041   -0.6730   20.9638 C   0  0  0  0  0  0  0  0  0  0  0  0
    8.3115   -1.7029   20.9034 C   0  0  0  0  0  0  0  0  0  0  0  0
    8.7064   -2.1240   19.9988 H   0  0  0  0  0  0  0  0  0  0  0  0
    8.7738   -2.1113   22.1231 N   0  0  0  0  0  0  0  0  0  0  0  0
    8.1693   -1.2944   22.9445 C   0  0  0  0  0  0  0  0  0  0  0  0
    8.2423   -0.9430   24.6298 S   0  0  0  0  0  0  0  0  0  0  0  0
    7.1213    0.3920   24.3144 C   0  0  0  0  0  0  0  0  0  0  0  0
    6.6669    1.2879   25.3839 C   0  0  0  0  0  0  0  0  0  0  0  0
    7.1095    1.1067   26.7035 C   0  0  0  0  0  0  0  0  0  0  0  0
    7.7996    0.3032   26.9525 H   0  0  0  0  0  0  0  0  0  0  0  0
    6.6640    1.9605   27.7062 C   0  0  0  0  0  0  0  0  0  0  0  0
    7.0109    1.8009   28.7192 H   0  0  0  0  0  0  0  0  0  0  0  0
    5.7775    2.9979   27.4244 C   0  0  0  0  0  0  0  0  0  0  0  0
    5.4277    3.6314   28.2382 H   0  0  0  0  0  0  0  0  0  0  0  0
    5.3424    3.1781   26.1025 C   0  0  0  0  0  0  0  0  0  0  0  0
    4.1702    4.4724   25.7297 S   0  0  0  0  0  0  0  0  0  0  0  0
    3.5473    4.8995   26.9783 O   0  0  0  0  0  0  0  0  0  0  0  0
    3.3839    4.0652   24.5745 O   0  0  0  0  0  0  0  0  0  0  0  0
    5.1324    5.8419   25.1973 C   0  0  0  0  0  0  0  0  0  0  0  0
    5.6691    5.5440   24.3003 H   0  0  0  0  0  0  0  0  0  0  0  0
    4.3971    6.6168   24.9771 H   0  0  0  0  0  0  0  0  0  0  0  0
    5.7810    6.1344   26.0183 H   0  0  0  0  0  0  0  0  0  0  0  0
    5.7753    2.3289   25.0767 C   0  0  0  0  0  0  0  0  0  0  0  0
    5.4341    2.4273   24.0458 H   0  0  0  0  0  0  0  0  0  0  0  0
    6.7406    0.5351   23.0819 N   0  0  0  0  0  0  0  0  0  0  0  0
    7.3268   -0.4172   22.3287 N   0  0  0  0  0  0  0  0  0  0  0  0
    5.4283    0.6651   20.1478 C   0  0  0  0  0  0  0  0  0  0  0  0
    5.0149    0.6492   21.1543 H   0  0  0  0  0  0  0  0  0  0  0  0
    4.7911    1.3151   19.0886 C   0  0  0  0  0  0  0  0  0  0  0  0
    3.8610    1.8485   19.2371 H   0  0  0  0  0  0  0  0  0  0  0  0
  1  2  1  0
  2  3  2  0
  3  4  1  0
  4  5  1  0
  4  6  2  0
  6  7  1  0
  7  8  2  0
  8  9  1  0
  8 10  1  0
 10 11  2  0
 11 12  1  0
 12 13  1  0
 13 14  1  0
 14 15  2  0
 15 16  1  0
 15 17  1  0
 17 18  1  0
 17 19  2  0
 19 20  1  0
 19 21  1  0
 21 22  1  0
 22 23  2  0
 22 24  2  0
 22 25  1  0
 25 26  1  0
 25 27  1  0
 25 28  1  0
 21 29  2  0
 29 30  1  0
 13 31  2  0
 31 32  1  0
  6 33  1  0
 33 34  1  0
 33 35  2  0
 35 36  1  0
 35  2  1  0
 32  7  1  0
 32 11  1  0
 29 14  1  0
M  END
>  <cnnaffinity>  (1) 
-5.37395

>  <filename>  (1) 
CS(=O)(=O)c1cccc(-c2nn3c(-c4cccnc4)cnc3s2)c1

$$$$
