
     RDKit          3D

 37 39  0  0  0  0  0  0  0  0999 V2000
    4.9346    1.7945   16.9881 H   0  0  0  0  0  0  0  0  0  0  0  0
    5.4012    1.2867   17.8322 C   0  0  0  0  0  0  0  0  0  0  0  0
    6.5636    0.6637   17.5772 N   0  0  0  0  0  0  0  0  0  0  0  0
    7.1580    0.0285   18.5932 C   0  0  0  0  0  0  0  0  0  0  0  0
    8.1185   -0.4352   18.3606 H   0  0  0  0  0  0  0  0  0  0  0  0
    6.6382   -0.0141   19.8982 C   0  0  0  0  0  0  0  0  0  0  0  0
    7.3758   -0.6611   20.9843 C   0  0  0  0  0  0  0  0  0  0  0  0
    7.7100   -0.0609   22.1842 C   0  0  0  0  0  0  0  0  0  0  0  0
    7.4863    1.3908   22.4409 C   0  0  0  0  0  0  0  0  0  0  0  0
    7.9987    2.3652   21.5671 C   0  0  0  0  0  0  0  0  0  0  0  0
    8.5297    2.0332   20.6788 H   0  0  0  0  0  0  0  0  0  0  0  0
    7.8111    3.7201   21.8476 C   0  0  0  0  0  0  0  0  0  0  0  0
    8.2368    4.4956   21.2214 H   0  0  0  0  0  0  0  0  0  0  0  0
    7.0598    4.1274   22.9448 C   0  0  0  0  0  0  0  0  0  0  0  0
    6.8695    5.1916   23.0818 H   0  0  0  0  0  0  0  0  0  0  0  0
    6.5505    3.1574   23.8192 C   0  0  0  0  0  0  0  0  0  0  0  0
    5.5959    3.6758   25.2397 S   0  0  0  0  0  0  0  0  0  0  0  0
    5.1431    5.0415   25.0198 O   0  0  0  0  0  0  0  0  0  0  0  0
    4.6746    2.6027   25.5908 O   0  0  0  0  0  0  0  0  0  0  0  0
    6.7513    3.7715   26.5647 C   0  0  0  0  0  0  0  0  0  0  0  0
    7.1662    2.7792   26.7210 H   0  0  0  0  0  0  0  0  0  0  0  0
    6.1490    4.0884   27.4158 H   0  0  0  0  0  0  0  0  0  0  0  0
    7.4972    4.5183   26.3049 H   0  0  0  0  0  0  0  0  0  0  0  0
    6.7708    1.7934   23.5757 C   0  0  0  0  0  0  0  0  0  0  0  0
    6.3821    1.0159   24.2324 H   0  0  0  0  0  0  0  0  0  0  0  0
    8.3388   -0.8646   23.1945 C   0  0  0  0  0  0  0  0  0  0  0  0
    8.5883   -0.3696   24.1338 H   0  0  0  0  0  0  0  0  0  0  0  0
    8.6342   -2.1777   22.9813 C   0  0  0  0  0  0  0  0  0  0  0  0
    9.1099   -2.8188   23.7104 H   0  0  0  0  0  0  0  0  0  0  0  0
    8.2943   -2.8127   21.7128 C   0  0  0  0  0  0  0  0  0  0  0  0
    8.4474   -3.9850   21.4098 O   0  0  0  0  0  0  0  0  0  0  0  0
    7.7371   -1.9676   20.7755 N   0  0  0  0  0  0  0  0  0  0  0  0
    7.4733   -2.4808   19.9507 H   0  0  0  0  0  0  0  0  0  0  0  0
    5.4257    0.6450   20.1491 C   0  0  0  0  0  0  0  0  0  0  0  0
    5.0145    0.6509   21.1611 H   0  0  0  0  0  0  0  0  0  0  0  0
    4.7967    1.3021   19.0940 C   0  0  0  0  0  0  0  0  0  0  0  0
    3.8721    1.8453   19.2371 H   0  0  0  0  0  0  0  0  0  0  0  0
  1  2  1  0
  2  3  2  0
  3  4  1  0
  4  5  1  0
  4  6  2  0
  6  7  1  0
  7  8  2  0
  8  9  1  0
  9 10  2  0
 10 11  1  0
 10 12  1  0
 12 13  1  0
 12 14  2  0
 14 15  1  0
 14 16  1  0
 16 17  1  0
 17 18  2  0
 17 19  2  0
 17 20  1  0
 20 21  1  0
 20 22  1  0
 20 23  1  0
 16 24  2  0
 24 25  1  0
  8 26  1  0
 26 27  1  0
 26 28  2  0
 28 29  1  0
 28 30  1  0
 30 31  2  0
 30 32  1  0
 32 33  1  0
  6 34  1  0
 34 35  1  0
 34 36  2  0
 36 37  1  0
 36  2  1  0
 32  7  1  0
 24  9  1  0
M  END
>  <cnnaffinity>  (1) 
-5.4382

>  <filename>  (1) 
CS(=O)(=O)c1cccc(-c2ccc(=O)[nH]c2-c2cccnc2)c1

$$$$
