
     RDKit          3D

 44 47  0  0  0  0  0  0  0  0999 V2000
   12.8546    1.5368   22.1754 C   0  0  0  0  0  0  0  0  0  0  0  0
   11.8477    0.7731   23.4635 S   0  0  0  0  0  0  0  0  0  0  0  0
   11.5824   -0.6280   22.9940 O   0  0  0  0  0  0  0  0  0  0  0  0
   10.4039    1.8322   23.1427 C   0  0  0  0  0  0  0  0  0  0  0  0
   10.2823    2.9495   23.9793 C   0  0  0  0  0  0  0  0  0  0  0  0
    9.2075    3.8268   23.8376 C   0  0  0  0  0  0  0  0  0  0  0  0
    8.2777    3.6157   22.8170 C   0  0  0  0  0  0  0  0  0  0  0  0
    8.4510    2.5480   21.9321 C   0  0  0  0  0  0  0  0  0  0  0  0
    9.5043    1.6257   22.0788 C   0  0  0  0  0  0  0  0  0  0  0  0
    9.5679    0.4653   21.0895 C   0  0  0  0  0  0  0  0  0  0  0  0
    8.5533   -0.5842   21.4086 C   0  0  0  0  0  0  0  0  0  0  0  0
    8.7162   -1.4526   22.3719 N   0  0  0  0  0  0  0  0  0  0  0  0
    7.5179   -2.1026   22.4554 C   0  0  0  0  0  0  0  0  0  0  0  0
    7.3088   -3.1768   23.5001 C   0  0  0  0  0  0  0  0  0  0  0  0
    8.3722   -3.4792   24.3834 C   0  0  0  0  0  0  0  0  0  0  0  0
    8.1926   -4.4599   25.3557 C   0  0  0  0  0  0  0  0  0  0  0  0
    6.9595   -5.1128   25.4263 C   0  0  0  0  0  0  0  0  0  0  0  0
    5.9646   -4.7522   24.5130 C   0  0  0  0  0  0  0  0  0  0  0  0
    6.1219   -3.8224   23.5682 N   0  0  0  0  0  0  0  0  0  0  0  0
    4.9871   -5.2319   24.5403 H   0  0  0  0  0  0  0  0  0  0  0  0
    6.7667   -5.8767   26.1715 H   0  0  0  0  0  0  0  0  0  0  0  0
    9.0005   -4.7060   26.0442 H   0  0  0  0  0  0  0  0  0  0  0  0
    9.3100   -2.9347   24.2866 H   0  0  0  0  0  0  0  0  0  0  0  0
    6.6265   -1.6793   21.5733 N   0  0  0  0  0  0  0  0  0  0  0  0
    7.3005   -0.7335   20.8769 N   0  0  0  0  0  0  0  0  0  0  0  0
    6.6351   -0.0276   19.8356 C   0  0  0  0  0  0  0  0  0  0  0  0
    5.4318    0.6285   20.1092 C   0  0  0  0  0  0  0  0  0  0  0  0
    4.8117    1.3262   19.0714 C   0  0  0  0  0  0  0  0  0  0  0  0
    5.4046    1.3228   17.8029 C   0  0  0  0  0  0  0  0  0  0  0  0
    6.5407    0.6643   17.5259 N   0  0  0  0  0  0  0  0  0  0  0  0
    7.1348   -0.0004   18.5247 C   0  0  0  0  0  0  0  0  0  0  0  0
    8.0370   -0.5540   18.2707 H   0  0  0  0  0  0  0  0  0  0  0  0
    4.9449    1.8580   16.9761 H   0  0  0  0  0  0  0  0  0  0  0  0
    3.8839    1.8661   19.2325 H   0  0  0  0  0  0  0  0  0  0  0  0
    4.9984    0.5648   21.1078 H   0  0  0  0  0  0  0  0  0  0  0  0
    9.3966    0.8367   20.0792 H   0  0  0  0  0  0  0  0  0  0  0  0
   10.5384   -0.0368   21.1119 H   0  0  0  0  0  0  0  0  0  0  0  0
    7.7691    2.4248   21.0948 H   0  0  0  0  0  0  0  0  0  0  0  0
    7.4493    4.3050   22.6767 H   0  0  0  0  0  0  0  0  0  0  0  0
    9.1155    4.6904   24.4904 H   0  0  0  0  0  0  0  0  0  0  0  0
   11.0497    3.1445   24.7194 H   0  0  0  0  0  0  0  0  0  0  0  0
   13.2208    2.5094   22.5145 H   0  0  0  0  0  0  0  0  0  0  0  0
   13.6760    0.8443   21.9792 H   0  0  0  0  0  0  0  0  0  0  0  0
   12.2408    1.6475   21.2737 H   0  0  0  0  0  0  0  0  0  0  0  0
  1  2  1  0
  2  3  2  0
  2  4  1  0
  4  5  2  0
  5  6  1  0
  6  7  2  0
  7  8  1  0
  8  9  2  0
  9 10  1  0
 10 11  1  0
 11 12  2  0
 12 13  1  0
 13 14  1  0
 14 15  2  0
 15 16  1  0
 16 17  2  0
 17 18  1  0
 18 19  2  0
 18 20  1  0
 17 21  1  0
 16 22  1  0
 15 23  1  0
 13 24  2  0
 24 25  1  0
 25 26  1  0
 26 27  2  0
 27 28  1  0
 28 29  2  0
 29 30  1  0
 30 31  2  0
 31 32  1  0
 29 33  1  0
 28 34  1  0
 27 35  1  0
 10 36  1  0
 10 37  1  0
  8 38  1  0
  7 39  1  0
  6 40  1  0
  5 41  1  0
  1 42  1  0
  1 43  1  0
  1 44  1  0
  9  4  1  0
 25 11  1  0
 31 26  1  0
 19 14  1  0
M  END
>  <cnnaffinity>  (1) 
-6.41277

>  <filename>  (1) 
CS(=O)c1ccccc1Cc1nc(-c2ccccn2)nn1-c1cccnc1

$$$$
