
     RDKit          3D

 46 49  0  0  0  0  0  0  0  0999 V2000
    8.0878    1.9580   23.2147 C   0  0  0  0  0  0  0  0  0  0  0  0
    9.3879    2.7825   22.2556 S   0  0  0  0  0  0  0  0  0  0  0  0
    8.8745    2.8037   20.8459 O   0  0  0  0  0  0  0  0  0  0  0  0
   10.7139    1.5469   22.3750 C   0  0  0  0  0  0  0  0  0  0  0  0
   11.7231    1.8521   23.2919 C   0  0  0  0  0  0  0  0  0  0  0  0
   12.8515    1.0372   23.4010 C   0  0  0  0  0  0  0  0  0  0  0  0
   12.9631   -0.0964   22.5942 C   0  0  0  0  0  0  0  0  0  0  0  0
   11.9372   -0.4157   21.6923 C   0  0  0  0  0  0  0  0  0  0  0  0
   10.8009    0.4030   21.5612 C   0  0  0  0  0  0  0  0  0  0  0  0
    9.6597    0.0009   20.6567 C   0  0  0  0  0  0  0  0  0  0  0  0
    8.5462   -0.6472   21.4088 C   0  0  0  0  0  0  0  0  0  0  0  0
    8.6706   -1.3082   22.5383 N   0  0  0  0  0  0  0  0  0  0  0  0
    7.4521   -1.8891   22.7010 C   0  0  0  0  0  0  0  0  0  0  0  0
    7.2235   -2.8597   23.8212 C   0  0  0  0  0  0  0  0  0  0  0  0
    6.1825   -3.9702   23.5651 C   0  0  0  0  0  0  0  0  0  0  0  0
    6.6456   -5.0900   24.5058 C   0  0  0  0  0  0  0  0  0  0  0  0
    8.0257   -4.8709   24.7550 O   0  0  0  0  0  0  0  0  0  0  0  0
    8.4847   -3.6914   24.1248 C   0  0  0  0  0  0  0  0  0  0  0  0
    9.0223   -3.9392   23.1943 H   0  0  0  0  0  0  0  0  0  0  0  0
    9.1891   -3.1870   24.7980 H   0  0  0  0  0  0  0  0  0  0  0  0
    6.5147   -6.0902   24.0723 H   0  0  0  0  0  0  0  0  0  0  0  0
    6.1076   -5.0716   25.4650 H   0  0  0  0  0  0  0  0  0  0  0  0
    5.1523   -3.6598   23.7584 H   0  0  0  0  0  0  0  0  0  0  0  0
    6.2419   -4.2944   22.5195 H   0  0  0  0  0  0  0  0  0  0  0  0
    6.9581   -2.2885   24.7198 H   0  0  0  0  0  0  0  0  0  0  0  0
    6.5643   -1.5795   21.7759 N   0  0  0  0  0  0  0  0  0  0  0  0
    7.2718   -0.7827   20.9246 N   0  0  0  0  0  0  0  0  0  0  0  0
    6.6034   -0.0949   19.8698 C   0  0  0  0  0  0  0  0  0  0  0  0
    5.4119    0.5952   20.1319 C   0  0  0  0  0  0  0  0  0  0  0  0
    4.8199    1.3072   19.0865 C   0  0  0  0  0  0  0  0  0  0  0  0
    5.4241    1.2961   17.8228 C   0  0  0  0  0  0  0  0  0  0  0  0
    6.5520    0.6180   17.5549 N   0  0  0  0  0  0  0  0  0  0  0  0
    7.1199   -0.0582   18.5605 C   0  0  0  0  0  0  0  0  0  0  0  0
    8.0452   -0.5836   18.3232 H   0  0  0  0  0  0  0  0  0  0  0  0
    4.9824    1.8417   16.9922 H   0  0  0  0  0  0  0  0  0  0  0  0
    3.9024    1.8661   19.2427 H   0  0  0  0  0  0  0  0  0  0  0  0
    4.9807    0.5625   21.1345 H   0  0  0  0  0  0  0  0  0  0  0  0
    9.9848   -0.7155   19.9021 H   0  0  0  0  0  0  0  0  0  0  0  0
    9.2802    0.8749   20.1382 H   0  0  0  0  0  0  0  0  0  0  0  0
   12.0165   -1.3145   21.0812 H   0  0  0  0  0  0  0  0  0  0  0  0
   13.8381   -0.7389   22.6695 H   0  0  0  0  0  0  0  0  0  0  0  0
   13.6411    1.3004   24.1002 H   0  0  0  0  0  0  0  0  0  0  0  0
   11.6254    2.7483   23.8973 H   0  0  0  0  0  0  0  0  0  0  0  0
    8.5060    1.1750   23.8526 H   0  0  0  0  0  0  0  0  0  0  0  0
    7.3849    1.5325   22.4915 H   0  0  0  0  0  0  0  0  0  0  0  0
    7.5751    2.7143   23.8159 H   0  0  0  0  0  0  0  0  0  0  0  0
  1  2  1  0
  2  3  2  0
  2  4  1  0
  4  5  2  0
  5  6  1  0
  6  7  2  0
  7  8  1  0
  8  9  2  0
  9 10  1  0
 10 11  1  0
 11 12  2  0
 12 13  1  0
 13 14  1  0
 14 15  1  0
 15 16  1  0
 16 17  1  0
 17 18  1  0
 18 19  1  0
 18 20  1  0
 16 21  1  0
 16 22  1  0
 15 23  1  0
 15 24  1  0
 14 25  1  0
 13 26  2  0
 26 27  1  0
 27 28  1  0
 28 29  2  0
 29 30  1  0
 30 31  2  0
 31 32  1  0
 32 33  2  0
 33 34  1  0
 31 35  1  0
 30 36  1  0
 29 37  1  0
 10 38  1  0
 10 39  1  0
  8 40  1  0
  7 41  1  0
  6 42  1  0
  5 43  1  0
  1 44  1  0
  1 45  1  0
  1 46  1  0
  9  4  1  0
 27 11  1  0
 33 28  1  0
 18 14  1  0
M  END
>  <cnnaffinity>  (1) 
-6.47791

>  <filename>  (1) 
CS(=O)c1ccccc1Cc1nc(C2CCOC2)nn1-c1cccnc1

$$$$
