
     RDKit          3D

 42 44  0  0  0  0  0  0  0  0999 V2000
    4.9545    1.8370   16.8973 H   0  0  0  0  0  0  0  0  0  0  0  0
    5.4064    1.3360   17.7543 C   0  0  0  0  0  0  0  0  0  0  0  0
    6.5648    0.7025   17.5309 N   0  0  0  0  0  0  0  0  0  0  0  0
    7.1433    0.0865   18.5742 C   0  0  0  0  0  0  0  0  0  0  0  0
    8.0848   -0.4028   18.3299 H   0  0  0  0  0  0  0  0  0  0  0  0
    6.6281    0.0478   19.8916 C   0  0  0  0  0  0  0  0  0  0  0  0
    7.3103   -0.7711   21.0162 C   0  0  2  0  0  0  0  0  0  0  0  0
    6.6412   -2.1893   21.0173 C   0  0  0  0  0  0  0  0  0  0  0  0
    5.5661   -2.0237   21.1698 H   0  0  0  0  0  0  0  0  0  0  0  0
    6.7155   -2.5755   19.9959 H   0  0  0  0  0  0  0  0  0  0  0  0
    7.1115   -3.2530   22.0026 C   0  0  0  0  0  0  0  0  0  0  0  0
    8.0459   -4.2272   21.6168 C   0  0  0  0  0  0  0  0  0  0  0  0
    8.4781   -4.1925   20.6289 H   0  0  0  0  0  0  0  0  0  0  0  0
    8.4252   -5.2701   22.4668 C   0  0  0  0  0  0  0  0  0  0  0  0
    9.0990   -6.0390   22.1007 H   0  0  0  0  0  0  0  0  0  0  0  0
    7.9186   -5.3466   23.7599 C   0  0  0  0  0  0  0  0  0  0  0  0
    8.2629   -6.1556   24.4090 H   0  0  0  0  0  0  0  0  0  0  0  0
    6.9842   -4.3803   24.1723 C   0  0  0  0  0  0  0  0  0  0  0  0
    6.3010   -4.4970   25.8268 S   0  0  0  0  0  0  0  0  0  0  0  0
    6.8897   -5.6643   26.4711 O   0  0  0  0  0  0  0  0  0  0  0  0
    4.8586   -4.3099   25.7502 O   0  0  0  0  0  0  0  0  0  0  0  0
    6.9177   -3.0851   26.6889 C   0  0  0  0  0  0  0  0  0  0  0  0
    6.4619   -3.1778   27.6753 H   0  0  0  0  0  0  0  0  0  0  0  0
    8.0040   -3.1483   26.7424 H   0  0  0  0  0  0  0  0  0  0  0  0
    6.5630   -2.1870   26.1804 H   0  0  0  0  0  0  0  0  0  0  0  0
    6.5606   -3.3606   23.2925 C   0  0  0  0  0  0  0  0  0  0  0  0
    5.7695   -2.6629   23.5742 H   0  0  0  0  0  0  0  0  0  0  0  0
    7.2069   -0.1279   22.4372 C   0  0  0  0  0  0  0  0  0  0  0  0
    6.2880   -0.4207   22.9641 H   0  0  0  0  0  0  0  0  0  0  0  0
    7.1834    0.9684   22.3380 H   0  0  0  0  0  0  0  0  0  0  0  0
    8.3894   -0.5292   23.2084 N   0  0  0  0  0  0  0  0  0  0  0  0
    8.1689   -1.2846   23.8473 H   0  0  0  0  0  0  0  0  0  0  0  0
    9.4457   -0.9467   22.2795 C   0  0  0  0  0  0  0  0  0  0  0  0
    9.7677   -1.9790   22.4837 H   0  0  0  0  0  0  0  0  0  0  0  0
   10.3383   -0.3151   22.3999 H   0  0  0  0  0  0  0  0  0  0  0  0
    8.8577   -0.8024   20.8614 C   0  0  0  0  0  0  0  0  0  0  0  0
    9.1835    0.1579   20.4379 H   0  0  0  0  0  0  0  0  0  0  0  0
    9.2048   -1.5933   20.1865 H   0  0  0  0  0  0  0  0  0  0  0  0
    5.4059    0.7161   20.0849 C   0  0  0  0  0  0  0  0  0  0  0  0
    4.9347    0.7390   21.0691 H   0  0  0  0  0  0  0  0  0  0  0  0
    4.7894    1.3643   19.0076 C   0  0  0  0  0  0  0  0  0  0  0  0
    3.8493    1.8897   19.1236 H   0  0  0  0  0  0  0  0  0  0  0  0
  1  2  1  0
  2  3  2  0
  3  4  1  0
  4  5  1  0
  4  6  2  0
  6  7  1  0
  7  8  1  1
  8  9  1  0
  8 10  1  0
  8 11  1  0
 11 12  2  0
 12 13  1  0
 12 14  1  0
 14 15  1  0
 14 16  2  0
 16 17  1  0
 16 18  1  0
 18 19  1  0
 19 20  2  0
 19 21  2  0
 19 22  1  0
 22 23  1  0
 22 24  1  0
 22 25  1  0
 18 26  2  0
 26 27  1  0
  7 28  1  0
 28 29  1  0
 28 30  1  0
 28 31  1  0
 31 32  1  0
 31 33  1  0
 33 34  1  0
 33 35  1  0
 33 36  1  0
 36 37  1  0
 36 38  1  0
  6 39  1  0
 39 40  1  0
 39 41  2  0
 41 42  1  0
 41  2  1  0
 36  7  1  0
 26 11  1  0
M  END
>  <cnnaffinity>  (1) 
-5.09222

>  <filename>  (1) 
CS(=O)(=O)c1cccc(C[C@]2(c3cccnc3)CCNC2)c1

$$$$
