
     RDKit          3D

 46 50  0  0  0  0  0  0  0  0999 V2000
   11.4834    2.9457   23.6010 C   0  0  0  0  0  0  0  0  0  0  0  0
   10.7263    1.3138   23.5642 S   0  0  0  0  0  0  0  0  0  0  0  0
   11.6378    0.4783   24.4200 O   0  0  0  0  0  0  0  0  0  0  0  0
    9.2398    1.6653   24.5492 C   0  0  0  0  0  0  0  0  0  0  0  0
    9.3705    1.5753   25.9386 C   0  0  0  0  0  0  0  0  0  0  0  0
    8.2413    1.6700   26.7513 C   0  0  0  0  0  0  0  0  0  0  0  0
    6.9845    1.9086   26.1871 C   0  0  0  0  0  0  0  0  0  0  0  0
    6.8646    2.0098   24.7990 C   0  0  0  0  0  0  0  0  0  0  0  0
    7.9736    1.8355   23.9547 C   0  0  0  0  0  0  0  0  0  0  0  0
    7.7695    1.6306   22.4678 C   0  0  0  0  0  0  0  0  0  0  0  0
    7.6645    0.1719   22.1236 C   0  0  0  0  0  0  0  0  0  0  0  0
    8.1825   -0.8101   22.8348 N   0  0  0  0  0  0  0  0  0  0  0  0
    8.0247   -1.8927   22.0433 C   0  0  0  0  0  0  0  0  0  0  0  0
    8.5827   -3.2274   22.3173 C   0  0  0  0  0  0  0  0  0  0  0  0
    8.7751   -3.7752   23.7256 C   0  0  0  0  0  0  0  0  0  0  0  0
    7.7444   -4.3680   22.8014 C   0  0  0  0  0  0  0  0  0  0  0  0
    7.4242   -5.6943   22.2065 C   0  0  0  0  0  0  0  0  0  0  0  0
    6.3150   -4.7411   22.6564 C   0  0  0  0  0  0  0  0  0  0  0  0
    5.7703   -4.1858   21.8967 H   0  0  0  0  0  0  0  0  0  0  0  0
    5.7506   -5.0372   23.5357 H   0  0  0  0  0  0  0  0  0  0  0  0
    7.6081   -5.8268   21.1385 H   0  0  0  0  0  0  0  0  0  0  0  0
    7.5901   -6.5678   22.8373 H   0  0  0  0  0  0  0  0  0  0  0  0
    9.6551   -4.3959   23.8936 H   0  0  0  0  0  0  0  0  0  0  0  0
    8.4604   -3.1566   24.5678 H   0  0  0  0  0  0  0  0  0  0  0  0
    9.3037   -3.4763   21.5463 H   0  0  0  0  0  0  0  0  0  0  0  0
    7.4352   -1.6537   20.8848 N   0  0  0  0  0  0  0  0  0  0  0  0
    7.1718   -0.3253   20.9456 N   0  0  0  0  0  0  0  0  0  0  0  0
    6.5372    0.2909   19.8376 C   0  0  0  0  0  0  0  0  0  0  0  0
    5.3582    1.0352   19.9702 C   0  0  0  0  0  0  0  0  0  0  0  0
    4.7707    1.5379   18.8036 C   0  0  0  0  0  0  0  0  0  0  0  0
    5.3927    1.3057   17.5743 C   0  0  0  0  0  0  0  0  0  0  0  0
    6.5293    0.5983   17.4437 N   0  0  0  0  0  0  0  0  0  0  0  0
    7.0750    0.0946   18.5513 C   0  0  0  0  0  0  0  0  0  0  0  0
    7.9909   -0.4793   18.4215 H   0  0  0  0  0  0  0  0  0  0  0  0
    4.9669    1.6975   16.6546 H   0  0  0  0  0  0  0  0  0  0  0  0
    3.8499    2.1103   18.8441 H   0  0  0  0  0  0  0  0  0  0  0  0
    4.8978    1.1979   20.9459 H   0  0  0  0  0  0  0  0  0  0  0  0
    8.6221    2.0368   21.9104 H   0  0  0  0  0  0  0  0  0  0  0  0
    6.8790    2.1478   22.1122 H   0  0  0  0  0  0  0  0  0  0  0  0
    5.8834    2.1890   24.3632 H   0  0  0  0  0  0  0  0  0  0  0  0
    6.1005    1.9678   26.8184 H   0  0  0  0  0  0  0  0  0  0  0  0
    8.3394    1.5365   27.8238 H   0  0  0  0  0  0  0  0  0  0  0  0
   10.3551    1.3739   26.3562 H   0  0  0  0  0  0  0  0  0  0  0  0
   11.6795    3.2001   24.6443 H   0  0  0  0  0  0  0  0  0  0  0  0
   10.8642    3.7005   23.1141 H   0  0  0  0  0  0  0  0  0  0  0  0
   12.4347    2.8285   23.0771 H   0  0  0  0  0  0  0  0  0  0  0  0
  1  2  1  0
  2  3  2  0
  2  4  1  0
  4  5  2  0
  5  6  1  0
  6  7  2  0
  7  8  1  0
  8  9  2  0
  9 10  1  0
 10 11  1  0
 11 12  2  0
 12 13  1  0
 13 14  1  0
 14 15  1  0
 15 16  1  0
 16 17  1  0
 17 18  1  0
 18 19  1  0
 18 20  1  0
 17 21  1  0
 17 22  1  0
 15 23  1  0
 15 24  1  0
 14 25  1  0
 13 26  2  0
 26 27  1  0
 27 28  1  0
 28 29  2  0
 29 30  1  0
 30 31  2  0
 31 32  1  0
 32 33  2  0
 33 34  1  0
 31 35  1  0
 30 36  1  0
 29 37  1  0
 10 38  1  0
 10 39  1  0
  8 40  1  0
  7 41  1  0
  6 42  1  0
  5 43  1  0
  1 44  1  0
  1 45  1  0
  1 46  1  0
  9  4  1  0
 27 11  1  0
 33 28  1  0
 16 14  1  0
 18 16  1  0
M  END
>  <cnnaffinity>  (1) 
-6.2727

>  <filename>  (1) 
CS(=O)c1ccccc1Cc1nc(C2CC23CC3)nn1-c1cccnc1

$$$$
