
     RDKit          3D

 36 38  0  0  0  0  0  0  0  0999 V2000
    4.8726    1.6331   16.4594 H   0  0  0  0  0  0  0  0  0  0  0  0
    5.3873    1.2474   17.3334 C   0  0  0  0  0  0  0  0  0  0  0  0
    6.4877    0.5270   17.0811 N   0  0  0  0  0  0  0  0  0  0  0  0
    7.1608    0.0424   18.1314 C   0  0  0  0  0  0  0  0  0  0  0  0
    8.0599   -0.5276   17.8963 H   0  0  0  0  0  0  0  0  0  0  0  0
    6.7877    0.2352   19.4792 C   0  0  0  0  0  0  0  0  0  0  0  0
    7.5872   -0.2810   20.6295 C   0  0  0  0  0  0  0  0  0  0  0  0
    7.4368    0.4661   21.7252 N   0  0  0  0  0  0  0  0  0  0  0  0
    7.9757   -0.0476   22.8828 N   0  0  0  0  0  0  0  0  0  0  0  0
    8.0095    0.8079   24.0065 C   0  0  0  0  0  0  0  0  0  0  0  0
    8.1440    2.1982   23.8174 C   0  0  0  0  0  0  0  0  0  0  0  0
    8.1594    2.5941   22.8066 H   0  0  0  0  0  0  0  0  0  0  0  0
    8.2642    3.0382   24.9288 C   0  0  0  0  0  0  0  0  0  0  0  0
    8.3780    4.1112   24.7740 H   0  0  0  0  0  0  0  0  0  0  0  0
    8.2334    2.5244   26.2316 C   0  0  0  0  0  0  0  0  0  0  0  0
    8.3370    3.1950   27.0809 H   0  0  0  0  0  0  0  0  0  0  0  0
    8.0563    1.1440   26.4138 C   0  0  0  0  0  0  0  0  0  0  0  0
    8.0220    0.4155   28.0591 S   0  0  0  0  0  0  0  0  0  0  0  0
    8.8947   -0.7541   28.0402 O   0  0  0  0  0  0  0  0  0  0  0  0
    8.1211    1.4705   29.0581 O   0  0  0  0  0  0  0  0  0  0  0  0
    6.3793   -0.2033   28.2128 C   0  0  0  0  0  0  0  0  0  0  0  0
    6.2011   -0.9391   27.4342 H   0  0  0  0  0  0  0  0  0  0  0  0
    6.3459   -0.6614   29.1971 H   0  0  0  0  0  0  0  0  0  0  0  0
    5.6971    0.6385   28.1610 H   0  0  0  0  0  0  0  0  0  0  0  0
    7.9381    0.2840   25.3075 C   0  0  0  0  0  0  0  0  0  0  0  0
    7.7555   -0.7799   25.4255 H   0  0  0  0  0  0  0  0  0  0  0  0
    8.3665   -1.3750   22.8859 C   0  0  0  0  0  0  0  0  0  0  0  0
    8.5805   -1.8497   23.8328 H   0  0  0  0  0  0  0  0  0  0  0  0
    8.5743   -2.0962   21.7359 C   0  0  0  0  0  0  0  0  0  0  0  0
    9.1285   -3.0312   21.7035 H   0  0  0  0  0  0  0  0  0  0  0  0
    8.6948   -1.3523   20.3460 C   0  0  0  0  0  0  0  0  0  0  0  0
    8.6589   -1.3511   20.3619 O   0  0  0  0  0  0  0  0  0  0  0  0
    5.6274    1.0135   19.7100 C   0  0  0  0  0  0  0  0  0  0  0  0
    5.3262    1.2267   20.7369 H   0  0  0  0  0  0  0  0  0  0  0  0
    4.9138    1.5083   18.6245 C   0  0  0  0  0  0  0  0  0  0  0  0
    4.0215    2.1156   18.7612 H   0  0  0  0  0  0  0  0  0  0  0  0
  1  2  1  0
  2  3  2  0
  3  4  1  0
  4  5  1  0
  4  6  2  0
  6  7  1  0
  7  8  2  0
  8  9  1  0
  9 10  1  0
 10 11  2  0
 11 12  1  0
 11 13  1  0
 13 14  1  0
 13 15  2  0
 15 16  1  0
 15 17  1  0
 17 18  1  0
 18 19  2  0
 18 20  2  0
 18 21  1  0
 21 22  1  0
 21 23  1  0
 21 24  1  0
 17 25  2  0
 25 26  1  0
  9 27  1  0
 27 28  1  0
 27 29  2  0
 29 30  1  0
 29 31  1  0
 31 32  2  0
  6 33  1  0
 33 34  1  0
 33 35  2  0
 35 36  1  0
 35  2  1  0
 31  7  1  0
 25 10  1  0
M  END
>  <cnnaffinity>  (1) 
-5.35721

>  <filename>  (1) 
CS(=O)(=O)c1cccc(-n2ccc(=O)c(-c3cccnc3)n2)c1

$$$$
