
     RDKit          3D

 28 29  0  0  0  0  0  0  0  0999 V2000
    4.9179    1.7898   16.9885 H   0  0  0  0  0  0  0  0  0  0  0  0
    5.3942    1.2970   17.8319 C   0  0  0  0  0  0  0  0  0  0  0  0
    6.5602    0.6808   17.5711 N   0  0  0  0  0  0  0  0  0  0  0  0
    7.1571    0.0445   18.5884 C   0  0  0  0  0  0  0  0  0  0  0  0
    8.1139   -0.4287   18.3638 H   0  0  0  0  0  0  0  0  0  0  0  0
    6.6306   -0.0323   19.8913 C   0  0  0  0  0  0  0  0  0  0  0  0
    7.5405   -0.8261   21.2026 S   0  0  0  0  0  0  0  0  0  0  0  0
    8.4521    0.6255   21.7199 C   0  0  0  0  0  0  0  0  0  0  0  0
    9.6884    0.9003   21.1212 C   0  0  0  0  0  0  0  0  0  0  0  0
   10.0731    0.1889   20.3951 H   0  0  0  0  0  0  0  0  0  0  0  0
   10.3791    2.0625   21.4638 C   0  0  0  0  0  0  0  0  0  0  0  0
   11.3436    2.2707   21.0080 H   0  0  0  0  0  0  0  0  0  0  0  0
    9.8491    2.9545   22.3982 C   0  0  0  0  0  0  0  0  0  0  0  0
   10.4204    3.8416   22.6700 H   0  0  0  0  0  0  0  0  0  0  0  0
    8.5990    2.6828   22.9826 C   0  0  0  0  0  0  0  0  0  0  0  0
    7.9176    3.7872   24.2158 S   0  0  0  0  0  0  0  0  0  0  0  0
    8.9829    4.6658   24.6744 O   0  0  0  0  0  0  0  0  0  0  0  0
    7.1077    2.9957   25.1314 O   0  0  0  0  0  0  0  0  0  0  0  0
    6.7766    4.8135   23.3393 C   0  0  0  0  0  0  0  0  0  0  0  0
    7.3107    5.3715   22.5767 H   0  0  0  0  0  0  0  0  0  0  0  0
    6.3548    5.4882   24.0823 H   0  0  0  0  0  0  0  0  0  0  0  0
    5.9942    4.1933   22.9110 H   0  0  0  0  0  0  0  0  0  0  0  0
    7.8965    1.5173   22.6410 C   0  0  0  0  0  0  0  0  0  0  0  0
    6.9253    1.2686   23.0668 H   0  0  0  0  0  0  0  0  0  0  0  0
    5.4237    0.6340   20.1503 C   0  0  0  0  0  0  0  0  0  0  0  0
    5.0066    0.6322   21.1580 H   0  0  0  0  0  0  0  0  0  0  0  0
    4.7996    1.3100   19.0979 C   0  0  0  0  0  0  0  0  0  0  0  0
    3.8721    1.8470   19.2535 H   0  0  0  0  0  0  0  0  0  0  0  0
  1  2  1  0
  2  3  2  0
  3  4  1  0
  4  5  1  0
  4  6  2  0
  6  7  1  0
  7  8  1  0
  8  9  2  0
  9 10  1  0
  9 11  1  0
 11 12  1  0
 11 13  2  0
 13 14  1  0
 13 15  1  0
 15 16  1  0
 16 17  2  0
 16 18  2  0
 16 19  1  0
 19 20  1  0
 19 21  1  0
 19 22  1  0
 15 23  2  0
 23 24  1  0
  6 25  1  0
 25 26  1  0
 25 27  2  0
 27 28  1  0
 27  2  1  0
 23  8  1  0
M  END
>  <cnnaffinity>  (1) 
-4.43443

>  <filename>  (1) 
CS(=O)(=O)c1cccc(Sc2cccnc2)c1

$$$$
