
     RDKit          3D

 45 48  0  0  0  0  0  0  0  0999 V2000
   10.8619    0.2902   25.5111 C   0  0  0  0  0  0  0  0  0  0  0  0
   10.4201    1.0971   23.9504 S   0  0  0  0  0  0  0  0  0  0  0  0
   10.8067    2.5375   24.1438 O   0  0  0  0  0  0  0  0  0  0  0  0
   11.7226    0.3239   22.9374 C   0  0  0  0  0  0  0  0  0  0  0  0
   12.9589    0.9901   22.9498 C   0  0  0  0  0  0  0  0  0  0  0  0
   14.0803    0.4039   22.3706 C   0  0  0  0  0  0  0  0  0  0  0  0
   13.9565   -0.8235   21.7165 C   0  0  0  0  0  0  0  0  0  0  0  0
   12.7035   -1.4238   21.6227 C   0  0  0  0  0  0  0  0  0  0  0  0
   11.5640   -0.8858   22.2383 C   0  0  0  0  0  0  0  0  0  0  0  0
   10.3177   -1.7589   22.2454 C   0  0  0  0  0  0  0  0  0  0  0  0
    9.0155   -1.1451   21.8575 C   0  0  0  0  0  0  0  0  0  0  0  0
    8.7426   -0.6671   20.6674 N   0  0  0  0  0  0  0  0  0  0  0  0
    7.4457   -0.2723   20.7769 C   0  0  0  0  0  0  0  0  0  0  0  0
    6.7379    0.2902   19.6327 C   0  0  0  0  0  0  0  0  0  0  0  0
    5.4636    0.8773   19.7069 C   0  0  0  0  0  0  0  0  0  0  0  0
    4.9172    1.3829   18.5307 C   0  0  0  0  0  0  0  0  0  0  0  0
    5.6474    1.2732   17.3427 C   0  0  0  0  0  0  0  0  0  0  0  0
    6.8543    0.6981   17.2657 N   0  0  0  0  0  0  0  0  0  0  0  0
    7.3827    0.2190   18.3931 C   0  0  0  0  0  0  0  0  0  0  0  0
    8.3593   -0.2571   18.3124 H   0  0  0  0  0  0  0  0  0  0  0  0
    5.2448    1.6609   16.4115 H   0  0  0  0  0  0  0  0  0  0  0  0
    3.9510    1.8763   18.5194 H   0  0  0  0  0  0  0  0  0  0  0  0
    4.9336    0.9297   20.6606 H   0  0  0  0  0  0  0  0  0  0  0  0
    6.9041   -0.4787   21.9611 N   0  0  0  0  0  0  0  0  0  0  0  0
    7.9067   -1.0901   22.6417 N   0  0  0  0  0  0  0  0  0  0  0  0
    7.7722   -1.5551   23.9839 C   0  0  0  0  0  0  0  0  0  0  0  0
    8.0353   -2.8956   24.3014 C   0  0  0  0  0  0  0  0  0  0  0  0
    8.0418   -3.2675   25.6426 C   0  0  0  0  0  0  0  0  0  0  0  0
    8.3379   -4.5376   25.9585 F   0  0  0  0  0  0  0  0  0  0  0  0
    7.7762   -2.3631   26.6640 C   0  0  0  0  0  0  0  0  0  0  0  0
    7.4679   -1.0402   26.3259 C   0  0  0  0  0  0  0  0  0  0  0  0
    7.4505   -0.6354   24.9883 C   0  0  0  0  0  0  0  0  0  0  0  0
    7.2229    0.3895   24.7106 H   0  0  0  0  0  0  0  0  0  0  0  0
    7.2630   -0.3140   27.1102 H   0  0  0  0  0  0  0  0  0  0  0  0
    7.8215   -2.7102   27.6874 H   0  0  0  0  0  0  0  0  0  0  0  0
    8.2494   -3.6404   23.5432 H   0  0  0  0  0  0  0  0  0  0  0  0
   10.2352   -2.2064   23.2403 H   0  0  0  0  0  0  0  0  0  0  0  0
   10.4598   -2.5798   21.5379 H   0  0  0  0  0  0  0  0  0  0  0  0
   12.5978   -2.3180   21.0228 H   0  0  0  0  0  0  0  0  0  0  0  0
   14.8016   -1.3297   21.2643 H   0  0  0  0  0  0  0  0  0  0  0  0
   15.0299    0.9276   22.4163 H   0  0  0  0  0  0  0  0  0  0  0  0
   13.0148    1.9655   23.4294 H   0  0  0  0  0  0  0  0  0  0  0  0
   11.9499    0.2920   25.6146 H   0  0  0  0  0  0  0  0  0  0  0  0
   10.4657   -0.7237   25.5412 H   0  0  0  0  0  0  0  0  0  0  0  0
   10.4430    0.8917   26.3180 H   0  0  0  0  0  0  0  0  0  0  0  0
  1  2  1  0
  2  3  2  0
  2  4  1  0
  4  5  2  0
  5  6  1  0
  6  7  2  0
  7  8  1  0
  8  9  2  0
  9 10  1  0
 10 11  1  0
 11 12  2  0
 12 13  1  0
 13 14  1  0
 14 15  2  0
 15 16  1  0
 16 17  2  0
 17 18  1  0
 18 19  2  0
 19 20  1  0
 17 21  1  0
 16 22  1  0
 15 23  1  0
 13 24  2  0
 24 25  1  0
 25 26  1  0
 26 27  2  0
 27 28  1  0
 28 29  1  0
 28 30  2  0
 30 31  1  0
 31 32  2  0
 32 33  1  0
 31 34  1  0
 30 35  1  0
 27 36  1  0
 10 37  1  0
 10 38  1  0
  8 39  1  0
  7 40  1  0
  6 41  1  0
  5 42  1  0
  1 43  1  0
  1 44  1  0
  1 45  1  0
  9  4  1  0
 25 11  1  0
 32 26  1  0
 19 14  1  0
M  END
>  <cnnaffinity>  (1) 
-6.76652

>  <filename>  (1) 
CS(=O)c1ccccc1Cc1nc(-c2cccnc2)nn1-c1cccc(F)c1

$$$$
