
     RDKit          3D

 33 35  0  0  0  0  0  0  0  0999 V2000
    4.9274    1.7947   16.9870 H   0  0  0  0  0  0  0  0  0  0  0  0
    5.3921    1.2964   17.8351 C   0  0  0  0  0  0  0  0  0  0  0  0
    6.5533    0.6788   17.5768 N   0  0  0  0  0  0  0  0  0  0  0  0
    7.1592    0.0647   18.5922 C   0  0  0  0  0  0  0  0  0  0  0  0
    8.1074   -0.4127   18.3506 H   0  0  0  0  0  0  0  0  0  0  0  0
    6.6480    0.0151   19.8968 C   0  0  0  0  0  0  0  0  0  0  0  0
    7.3855   -0.6948   20.9380 C   0  0  0  0  0  0  0  0  0  0  0  0
    6.8962   -0.7524   22.2301 N   0  0  0  0  0  0  0  0  0  0  0  0
    7.7697   -1.4451   22.8838 C   0  0  0  0  0  0  0  0  0  0  0  0
    7.7505   -1.8000   24.2935 C   0  0  0  0  0  0  0  0  0  0  0  0
    8.7917   -2.5655   24.8469 C   0  0  0  0  0  0  0  0  0  0  0  0
    9.6306   -2.9121   24.2463 H   0  0  0  0  0  0  0  0  0  0  0  0
    8.7285   -2.8763   26.1933 C   0  0  0  0  0  0  0  0  0  0  0  0
    9.4912   -3.4700   26.6828 H   0  0  0  0  0  0  0  0  0  0  0  0
    7.6647   -2.4420   26.9679 C   0  0  0  0  0  0  0  0  0  0  0  0
    7.7260   -2.7721   27.9759 H   0  0  0  0  0  0  0  0  0  0  0  0
    6.6266   -1.6756   26.4215 C   0  0  0  0  0  0  0  0  0  0  0  0
    5.2295   -1.1662   27.4324 S   0  0  0  0  0  0  0  0  0  0  0  0
    4.0636   -0.9845   26.5768 O   0  0  0  0  0  0  0  0  0  0  0  0
    5.1817   -2.0085   28.6205 O   0  0  0  0  0  0  0  0  0  0  0  0
    5.6163    0.4442   28.0236 C   0  0  0  0  0  0  0  0  0  0  0  0
    6.5060    0.3680   28.6432 H   0  0  0  0  0  0  0  0  0  0  0  0
    4.7444    0.7285   28.6158 H   0  0  0  0  0  0  0  0  0  0  0  0
    5.7304    1.0894   27.1570 H   0  0  0  0  0  0  0  0  0  0  0  0
    6.6618   -1.3556   25.0633 C   0  0  0  0  0  0  0  0  0  0  0  0
    5.8707   -0.7879   24.5626 H   0  0  0  0  0  0  0  0  0  0  0  0
    8.8114   -1.8653   22.1308 O   0  0  0  0  0  0  0  0  0  0  0  0
    8.5559   -1.3764   20.8915 C   0  0  0  0  0  0  0  0  0  0  0  0
    9.2808   -1.5965   20.1294 H   0  0  0  0  0  0  0  0  0  0  0  0
    5.4276    0.6597   20.1569 C   0  0  0  0  0  0  0  0  0  0  0  0
    5.0059    0.6396   21.1643 H   0  0  0  0  0  0  0  0  0  0  0  0
    4.7956    1.3142   19.1022 C   0  0  0  0  0  0  0  0  0  0  0  0
    3.8639    1.8483   19.2415 H   0  0  0  0  0  0  0  0  0  0  0  0
  1  2  1  0
  2  3  2  0
  3  4  1  0
  4  5  1  0
  4  6  2  0
  6  7  1  0
  7  8  1  0
  8  9  2  0
  9 10  1  0
 10 11  2  0
 11 12  1  0
 11 13  1  0
 13 14  1  0
 13 15  2  0
 15 16  1  0
 15 17  1  0
 17 18  1  0
 18 19  2  0
 18 20  2  0
 18 21  1  0
 21 22  1  0
 21 23  1  0
 21 24  1  0
 17 25  2  0
 25 26  1  0
  9 27  1  0
 27 28  1  0
 28 29  1  0
  6 30  1  0
 30 31  1  0
 30 32  2  0
 32 33  1  0
 32  2  1  0
 28  7  2  0
 25 10  1  0
M  END
>  <cnnaffinity>  (1) 
-5.05906

>  <filename>  (1) 
CS(=O)(=O)c1cccc(-c2nc(-c3cccnc3)co2)c1

$$$$
