
     RDKit          3D

 40 42  0  0  0  0  0  0  0  0999 V2000
    6.8224   -6.1445   21.2944 C   0  0  0  0  0  0  0  0  0  0  0  0
    6.2692   -4.9682   22.5485 S   0  0  0  0  0  0  0  0  0  0  0  0
    7.8499   -4.3873   23.2095 C   0  0  0  0  0  0  0  0  0  0  0  0
    8.6463   -3.5178   22.2316 C   0  0  0  0  0  0  0  0  0  0  0  0
    8.0066   -2.1997   21.9531 C   0  0  0  0  0  0  0  0  0  0  0  0
    7.7118   -1.8089   20.7335 N   0  0  0  0  0  0  0  0  0  0  0  0
    7.1309   -0.5965   20.9292 N   0  0  0  0  0  0  0  0  0  0  0  0
    6.5103    0.0672   19.8440 C   0  0  0  0  0  0  0  0  0  0  0  0
    5.2983    0.7457   20.0041 C   0  0  0  0  0  0  0  0  0  0  0  0
    4.7538    1.3924   18.8923 C   0  0  0  0  0  0  0  0  0  0  0  0
    5.4333    1.3322   17.6719 C   0  0  0  0  0  0  0  0  0  0  0  0
    6.5772    0.6460   17.5034 N   0  0  0  0  0  0  0  0  0  0  0  0
    7.0909    0.0132   18.5622 C   0  0  0  0  0  0  0  0  0  0  0  0
    7.9937   -0.5711   18.3911 H   0  0  0  0  0  0  0  0  0  0  0  0
    5.0533    1.8507   16.7948 H   0  0  0  0  0  0  0  0  0  0  0  0
    3.8368    1.9642   18.9753 H   0  0  0  0  0  0  0  0  0  0  0  0
    4.7909    0.7526   20.9715 H   0  0  0  0  0  0  0  0  0  0  0  0
    7.1947   -0.2887   22.2660 C   0  0  0  0  0  0  0  0  0  0  0  0
    6.9048    1.0386   22.9118 C   0  0  0  0  0  0  0  0  0  0  0  0
    8.1800    1.6473   23.4768 C   0  0  0  0  0  0  0  0  0  0  0  0
    8.4883    1.5347   24.8403 C   0  0  0  0  0  0  0  0  0  0  0  0
    9.7895    1.7338   25.3076 C   0  0  0  0  0  0  0  0  0  0  0  0
   10.7668    2.1099   24.3909 C   0  0  0  0  0  0  0  0  0  0  0  0
   12.0301    2.2521   24.8073 F   0  0  0  0  0  0  0  0  0  0  0  0
   10.4829    2.3727   23.0516 C   0  0  0  0  0  0  0  0  0  0  0  0
    9.1746    2.1468   22.6158 C   0  0  0  0  0  0  0  0  0  0  0  0
    8.7905    2.4380   20.9503 Cl  0  0  0  0  0  0  0  0  0  0  0  0
   11.2627    2.7276   22.3894 H   0  0  0  0  0  0  0  0  0  0  0  0
   10.0588    1.5829   26.3478 H   0  0  0  0  0  0  0  0  0  0  0  0
    7.6851    1.2737   25.5311 H   0  0  0  0  0  0  0  0  0  0  0  0
    6.4585    1.7156   22.1852 H   0  0  0  0  0  0  0  0  0  0  0  0
    6.1814    0.8744   23.7138 H   0  0  0  0  0  0  0  0  0  0  0  0
    7.7068   -1.3065   22.9274 N   0  0  0  0  0  0  0  0  0  0  0  0
    9.6554   -3.3482   22.6286 H   0  0  0  0  0  0  0  0  0  0  0  0
    8.7426   -4.0044   21.2628 H   0  0  0  0  0  0  0  0  0  0  0  0
    7.5876   -3.8006   24.0977 H   0  0  0  0  0  0  0  0  0  0  0  0
    8.4448   -5.2440   23.5442 H   0  0  0  0  0  0  0  0  0  0  0  0
    7.1484   -7.0919   21.7327 H   0  0  0  0  0  0  0  0  0  0  0  0
    5.9607   -6.3178   20.6458 H   0  0  0  0  0  0  0  0  0  0  0  0
    7.6352   -5.7305   20.6875 H   0  0  0  0  0  0  0  0  0  0  0  0
  1  2  1  0
  2  3  1  0
  3  4  1  0
  4  5  1  0
  5  6  2  0
  6  7  1  0
  7  8  1  0
  8  9  2  0
  9 10  1  0
 10 11  2  0
 11 12  1  0
 12 13  2  0
 13 14  1  0
 11 15  1  0
 10 16  1  0
  9 17  1  0
  7 18  1  0
 18 19  1  0
 19 20  1  0
 20 21  2  0
 21 22  1  0
 22 23  2  0
 23 24  1  0
 23 25  1  0
 25 26  2  0
 26 27  1  0
 25 28  1  0
 22 29  1  0
 21 30  1  0
 19 31  1  0
 19 32  1  0
 18 33  2  0
  4 34  1  0
  4 35  1  0
  3 36  1  0
  3 37  1  0
  1 38  1  0
  1 39  1  0
  1 40  1  0
 33  5  1  0
 13  8  1  0
 26 20  1  0
M  END
>  <cnnaffinity>  (1) 
-5.81821

>  <filename>  (1) 
CSCCc1nc(Cc2ccc(F)cc2Cl)n(-c2cccnc2)n1

$$$$
