
     RDKit          3D

 40 42  0  0  0  0  0  0  0  0999 V2000
    6.8891   -6.1965   21.2786 C   0  0  0  0  0  0  0  0  0  0  0  0
    6.2990   -4.9486   22.4471 S   0  0  0  0  0  0  0  0  0  0  0  0
    7.8668   -4.4009   23.1722 C   0  0  0  0  0  0  0  0  0  0  0  0
    8.7046   -3.5435   22.2140 C   0  0  0  0  0  0  0  0  0  0  0  0
    8.1704   -2.1776   21.9503 C   0  0  0  0  0  0  0  0  0  0  0  0
    7.7644   -1.8113   20.7580 N   0  0  0  0  0  0  0  0  0  0  0  0
    7.2997   -0.5534   20.9581 N   0  0  0  0  0  0  0  0  0  0  0  0
    6.6162    0.0965   19.8980 C   0  0  0  0  0  0  0  0  0  0  0  0
    5.3954    0.7457   20.1028 C   0  0  0  0  0  0  0  0  0  0  0  0
    4.7966    1.3679   19.0047 C   0  0  0  0  0  0  0  0  0  0  0  0
    5.4289    1.3168   17.7587 C   0  0  0  0  0  0  0  0  0  0  0  0
    6.5775    0.6478   17.5492 N   0  0  0  0  0  0  0  0  0  0  0  0
    7.1385    0.0330   18.5929 C   0  0  0  0  0  0  0  0  0  0  0  0
    8.0394   -0.5447   18.4028 H   0  0  0  0  0  0  0  0  0  0  0  0
    4.9962    1.8158   16.8941 H   0  0  0  0  0  0  0  0  0  0  0  0
    3.8431    1.8722   19.0999 H   0  0  0  0  0  0  0  0  0  0  0  0
    4.9092    0.7171   21.0799 H   0  0  0  0  0  0  0  0  0  0  0  0
    7.5328   -0.1966   22.2607 C   0  0  0  0  0  0  0  0  0  0  0  0
    7.2928    1.1465   22.9027 C   0  0  0  0  0  0  0  0  0  0  0  0
    8.5678    1.7148   23.5262 C   0  0  0  0  0  0  0  0  0  0  0  0
    9.5923    2.2516   22.7282 C   0  0  0  0  0  0  0  0  0  0  0  0
    9.3260    2.3970   21.0204 Cl  0  0  0  0  0  0  0  0  0  0  0  0
   10.8363    2.6402   23.2371 C   0  0  0  0  0  0  0  0  0  0  0  0
   11.0917    2.4477   24.5920 C   0  0  0  0  0  0  0  0  0  0  0  0
   10.0974    1.9377   25.4319 C   0  0  0  0  0  0  0  0  0  0  0  0
    8.8521    1.6163   24.8954 C   0  0  0  0  0  0  0  0  0  0  0  0
    7.8853    1.1827   25.7267 F   0  0  0  0  0  0  0  0  0  0  0  0
   10.2845    1.7570   26.4761 H   0  0  0  0  0  0  0  0  0  0  0  0
   12.0651    2.7018   24.9982 H   0  0  0  0  0  0  0  0  0  0  0  0
   11.5829    3.0614   22.5687 H   0  0  0  0  0  0  0  0  0  0  0  0
    6.5364    1.0133   23.6816 H   0  0  0  0  0  0  0  0  0  0  0  0
    6.9067    1.8639   22.1699 H   0  0  0  0  0  0  0  0  0  0  0  0
    8.0718   -1.2175   22.9037 N   0  0  0  0  0  0  0  0  0  0  0  0
    9.7153   -3.4356   22.6206 H   0  0  0  0  0  0  0  0  0  0  0  0
    8.7481   -4.0192   21.2340 H   0  0  0  0  0  0  0  0  0  0  0  0
    8.4424   -5.2722   23.5145 H   0  0  0  0  0  0  0  0  0  0  0  0
    7.6117   -3.8165   24.0645 H   0  0  0  0  0  0  0  0  0  0  0  0
    7.7103   -5.8164   20.6651 H   0  0  0  0  0  0  0  0  0  0  0  0
    7.2089   -7.1132   21.7828 H   0  0  0  0  0  0  0  0  0  0  0  0
    6.0607   -6.4303   20.6070 H   0  0  0  0  0  0  0  0  0  0  0  0
  1  2  1  0
  2  3  1  0
  3  4  1  0
  4  5  1  0
  5  6  2  0
  6  7  1  0
  7  8  1  0
  8  9  2  0
  9 10  1  0
 10 11  2  0
 11 12  1  0
 12 13  2  0
 13 14  1  0
 11 15  1  0
 10 16  1  0
  9 17  1  0
  7 18  1  0
 18 19  1  0
 19 20  1  0
 20 21  2  0
 21 22  1  0
 21 23  1  0
 23 24  2  0
 24 25  1  0
 25 26  2  0
 26 27  1  0
 25 28  1  0
 24 29  1  0
 23 30  1  0
 19 31  1  0
 19 32  1  0
 18 33  2  0
  4 34  1  0
  4 35  1  0
  3 36  1  0
  3 37  1  0
  1 38  1  0
  1 39  1  0
  1 40  1  0
 33  5  1  0
 13  8  1  0
 26 20  1  0
M  END
>  <cnnaffinity>  (1) 
-5.76395

>  <filename>  (1) 
CSCCc1nc(Cc2c(F)cccc2Cl)n(-c2cccnc2)n1

$$$$
