
     RDKit          3D

 40 42  0  0  0  0  0  0  0  0999 V2000
    8.9858   -5.7502   24.9996 C   0  0  0  0  0  0  0  0  0  0  0  0
    7.3541   -5.7323   24.2227 S   0  0  0  0  0  0  0  0  0  0  0  0
    7.6467   -4.4435   23.0011 C   0  0  0  0  0  0  0  0  0  0  0  0
    7.4074   -3.0403   23.5707 C   0  0  0  0  0  0  0  0  0  0  0  0
    7.6262   -1.9934   22.5473 C   0  0  0  0  0  0  0  0  0  0  0  0
    6.6700   -1.5692   21.7481 N   0  0  0  0  0  0  0  0  0  0  0  0
    7.3232   -0.7063   20.9313 N   0  0  0  0  0  0  0  0  0  0  0  0
    6.6435   -0.0072   19.8994 C   0  0  0  0  0  0  0  0  0  0  0  0
    5.4346    0.6428   20.1663 C   0  0  0  0  0  0  0  0  0  0  0  0
    4.8131    1.3119   19.1090 C   0  0  0  0  0  0  0  0  0  0  0  0
    5.3989    1.2963   17.8370 C   0  0  0  0  0  0  0  0  0  0  0  0
    6.5559    0.6690   17.5755 N   0  0  0  0  0  0  0  0  0  0  0  0
    7.1609    0.0454   18.5919 C   0  0  0  0  0  0  0  0  0  0  0  0
    8.1099   -0.4309   18.3580 H   0  0  0  0  0  0  0  0  0  0  0  0
    4.9252    1.7882   16.9918 H   0  0  0  0  0  0  0  0  0  0  0  0
    3.8818    1.8407   19.2580 H   0  0  0  0  0  0  0  0  0  0  0  0
    5.0182    0.6078   21.1766 H   0  0  0  0  0  0  0  0  0  0  0  0
    8.6236   -0.6247   21.3387 C   0  0  0  0  0  0  0  0  0  0  0  0
    9.6479    0.2308   20.6892 C   0  0  0  0  0  0  0  0  0  0  0  0
   10.6596    0.7783   21.6683 C   0  0  0  0  0  0  0  0  0  0  0  0
   11.8850    0.1465   21.8879 C   0  0  0  0  0  0  0  0  0  0  0  0
   12.7633    0.5906   22.8806 C   0  0  0  0  0  0  0  0  0  0  0  0
   12.4114    1.6788   23.6813 C   0  0  0  0  0  0  0  0  0  0  0  0
   11.1802    2.3134   23.4875 C   0  0  0  0  0  0  0  0  0  0  0  0
   10.7099    3.6923   24.4125 Cl  0  0  0  0  0  0  0  0  0  0  0  0
   10.3142    1.8527   22.4933 C   0  0  0  0  0  0  0  0  0  0  0  0
    9.1213    2.4467   22.3466 F   0  0  0  0  0  0  0  0  0  0  0  0
   13.0800    2.0465   24.4489 H   0  0  0  0  0  0  0  0  0  0  0  0
   13.7182    0.0960   23.0245 H   0  0  0  0  0  0  0  0  0  0  0  0
   12.1306   -0.7198   21.2794 H   0  0  0  0  0  0  0  0  0  0  0  0
   10.1150   -0.4354   19.9594 H   0  0  0  0  0  0  0  0  0  0  0  0
    9.1654    1.0539   20.1587 H   0  0  0  0  0  0  0  0  0  0  0  0
    8.8541   -1.4784   22.3133 N   0  0  0  0  0  0  0  0  0  0  0  0
    6.3862   -2.9583   23.9430 H   0  0  0  0  0  0  0  0  0  0  0  0
    8.0918   -2.8544   24.4048 H   0  0  0  0  0  0  0  0  0  0  0  0
    6.9739   -4.6459   22.1615 H   0  0  0  0  0  0  0  0  0  0  0  0
    8.6711   -4.5532   22.6254 H   0  0  0  0  0  0  0  0  0  0  0  0
    9.7428   -6.0486   24.2739 H   0  0  0  0  0  0  0  0  0  0  0  0
    9.2510   -4.7709   25.4114 H   0  0  0  0  0  0  0  0  0  0  0  0
    8.9791   -6.4847   25.8081 H   0  0  0  0  0  0  0  0  0  0  0  0
  1  2  1  0
  2  3  1  0
  3  4  1  0
  4  5  1  0
  5  6  2  0
  6  7  1  0
  7  8  1  0
  8  9  2  0
  9 10  1  0
 10 11  2  0
 11 12  1  0
 12 13  2  0
 13 14  1  0
 11 15  1  0
 10 16  1  0
  9 17  1  0
  7 18  1  0
 18 19  1  0
 19 20  1  0
 20 21  2  0
 21 22  1  0
 22 23  2  0
 23 24  1  0
 24 25  1  0
 24 26  2  0
 26 27  1  0
 23 28  1  0
 22 29  1  0
 21 30  1  0
 19 31  1  0
 19 32  1  0
 18 33  2  0
  4 34  1  0
  4 35  1  0
  3 36  1  0
  3 37  1  0
  1 38  1  0
  1 39  1  0
  1 40  1  0
 33  5  1  0
 13  8  1  0
 26 20  1  0
M  END
>  <cnnaffinity>  (1) 
-6.45064

>  <filename>  (1) 
CSCCc1nc(Cc2cccc(Cl)c2F)n(-c2cccnc2)n1

$$$$
