
     RDKit          3D

 40 42  0  0  0  0  0  0  0  0999 V2000
    8.7416   -1.6806   26.7652 C   0  0  0  0  0  0  0  0  0  0  0  0
    7.5802   -0.8525   25.6506 S   0  0  0  0  0  0  0  0  0  0  0  0
    6.7285   -2.2663   24.9036 C   0  0  0  0  0  0  0  0  0  0  0  0
    7.5087   -2.9428   23.7653 C   0  0  0  0  0  0  0  0  0  0  0  0
    7.7396   -2.0179   22.6167 C   0  0  0  0  0  0  0  0  0  0  0  0
    8.8918   -1.4213   22.4536 N   0  0  0  0  0  0  0  0  0  0  0  0
    8.6643   -0.5446   21.4377 N   0  0  0  0  0  0  0  0  0  0  0  0
    9.5615    0.6108   21.3301 C   0  0  0  0  0  0  0  0  0  0  0  0
    9.0550    1.8146   22.0917 C   0  0  0  0  0  0  0  0  0  0  0  0
    8.2115    2.7289   21.4634 C   0  0  0  0  0  0  0  0  0  0  0  0
    7.7934    3.8975   22.1048 C   0  0  0  0  0  0  0  0  0  0  0  0
    8.1885    4.1460   23.4225 C   0  0  0  0  0  0  0  0  0  0  0  0
    8.9689    3.2025   24.1039 C   0  0  0  0  0  0  0  0  0  0  0  0
    9.3782    2.0538   23.4292 C   0  0  0  0  0  0  0  0  0  0  0  0
   10.1258    1.1467   24.0821 F   0  0  0  0  0  0  0  0  0  0  0  0
    9.2624    3.3341   25.1396 H   0  0  0  0  0  0  0  0  0  0  0  0
    7.8934    5.0741   23.9059 H   0  0  0  0  0  0  0  0  0  0  0  0
    7.1918    4.6235   21.5679 H   0  0  0  0  0  0  0  0  0  0  0  0
    7.8982    2.4635   20.4596 H   0  0  0  0  0  0  0  0  0  0  0  0
   10.5287    0.2897   21.7233 H   0  0  0  0  0  0  0  0  0  0  0  0
    9.6853    0.8643   20.2742 H   0  0  0  0  0  0  0  0  0  0  0  0
    7.3663   -0.6843   21.0367 C   0  0  0  0  0  0  0  0  0  0  0  0
    6.6955    0.0351   19.9346 C   0  0  0  0  0  0  0  0  0  0  0  0
    5.4555    0.6592   20.1423 C   0  0  0  0  0  0  0  0  0  0  0  0
    4.8555    1.3148   19.0686 C   0  0  0  0  0  0  0  0  0  0  0  0
    5.4995    1.2929   17.8241 C   0  0  0  0  0  0  0  0  0  0  0  0
    6.6646    0.6640   17.6007 N   0  0  0  0  0  0  0  0  0  0  0  0
    7.2377    0.0493   18.6415 C   0  0  0  0  0  0  0  0  0  0  0  0
    8.1643   -0.4861   18.4323 H   0  0  0  0  0  0  0  0  0  0  0  0
    5.0506    1.7846   16.9653 H   0  0  0  0  0  0  0  0  0  0  0  0
    3.9079    1.8342   19.1796 H   0  0  0  0  0  0  0  0  0  0  0  0
    4.9861    0.6291   21.1303 H   0  0  0  0  0  0  0  0  0  0  0  0
    6.7645   -1.6046   21.7624 N   0  0  0  0  0  0  0  0  0  0  0  0
    6.9643   -3.8250   23.4260 H   0  0  0  0  0  0  0  0  0  0  0  0
    8.4924   -3.2670   24.1140 H   0  0  0  0  0  0  0  0  0  0  0  0
    5.7845   -1.8652   24.5154 H   0  0  0  0  0  0  0  0  0  0  0  0
    6.4629   -2.9896   25.6823 H   0  0  0  0  0  0  0  0  0  0  0  0
    9.4480   -2.3164   26.2234 H   0  0  0  0  0  0  0  0  0  0  0  0
    8.2155   -2.2780   27.5154 H   0  0  0  0  0  0  0  0  0  0  0  0
    9.3049   -0.8964   27.2801 H   0  0  0  0  0  0  0  0  0  0  0  0
  1  2  1  0
  2  3  1  0
  3  4  1  0
  4  5  1  0
  5  6  2  0
  6  7  1  0
  7  8  1  0
  8  9  1  0
  9 10  2  0
 10 11  1  0
 11 12  2  0
 12 13  1  0
 13 14  2  0
 14 15  1  0
 13 16  1  0
 12 17  1  0
 11 18  1  0
 10 19  1  0
  8 20  1  0
  8 21  1  0
  7 22  1  0
 22 23  1  0
 23 24  2  0
 24 25  1  0
 25 26  2  0
 26 27  1  0
 27 28  2  0
 28 29  1  0
 26 30  1  0
 25 31  1  0
 24 32  1  0
 22 33  2  0
  4 34  1  0
  4 35  1  0
  3 36  1  0
  3 37  1  0
  1 38  1  0
  1 39  1  0
  1 40  1  0
 33  5  1  0
 14  9  1  0
 28 23  1  0
M  END
>  <cnnaffinity>  (1) 
-5.65721

>  <filename>  (1) 
CSCCc1nc(-c2cccnc2)n(Cc2ccccc2F)n1

$$$$
