
     RDKit          3D

 36 38  0  0  0  0  0  0  0  0999 V2000
    5.7975   -1.4020   25.2068 C   0  0  0  0  0  0  0  0  0  0  0  0
    7.2495   -2.4290   25.5281 S   0  0  0  0  0  0  0  0  0  0  0  0
    7.4981   -3.1219   23.8653 C   0  0  0  0  0  0  0  0  0  0  0  0
    7.6941   -2.1122   22.7798 C   0  0  0  0  0  0  0  0  0  0  0  0
    8.7937   -1.4041   22.6616 N   0  0  0  0  0  0  0  0  0  0  0  0
    8.5663   -0.6564   21.5574 N   0  0  0  0  0  0  0  0  0  0  0  0
    9.4859    0.4351   21.2524 C   0  0  0  0  0  0  0  0  0  0  0  0
    9.0739    1.7567   21.8940 C   0  0  0  0  0  0  0  0  0  0  0  0
    8.0625    2.5874   21.4742 C   0  0  0  0  0  0  0  0  0  0  0  0
    8.3290    4.2855   22.5789 C   0  0  0  0  0  0  0  0  0  0  0  0
    8.2384    4.0740   22.7682 C   0  0  0  0  0  0  0  0  0  0  0  0
    9.1799    3.3008   23.5334 C   0  0  0  0  0  0  0  0  0  0  0  0
    9.7915    2.1578   22.9993 N   0  0  0  0  0  0  0  0  0  0  0  0
    8.3334    3.0552   24.1179 H   0  0  0  0  0  0  0  0  0  0  0  0
    7.2549    4.7107   23.1076 H   0  0  0  0  0  0  0  0  0  0  0  0
    8.6790    4.9403   21.6054 H   0  0  0  0  0  0  0  0  0  0  0  0
    7.3334    2.4039   20.6968 H   0  0  0  0  0  0  0  0  0  0  0  0
   10.4513    0.1319   21.6595 H   0  0  0  0  0  0  0  0  0  0  0  0
    9.6009    0.4922   20.1673 H   0  0  0  0  0  0  0  0  0  0  0  0
    7.3184   -0.9267   21.0912 C   0  0  0  0  0  0  0  0  0  0  0  0
    6.6809   -0.2193   19.9733 C   0  0  0  0  0  0  0  0  0  0  0  0
    5.4547    0.4406   20.1351 C   0  0  0  0  0  0  0  0  0  0  0  0
    4.9258    1.1237   19.0435 C   0  0  0  0  0  0  0  0  0  0  0  0
    5.6179    1.0952   17.8269 C   0  0  0  0  0  0  0  0  0  0  0  0
    6.7674    0.4260   17.6475 N   0  0  0  0  0  0  0  0  0  0  0  0
    7.2764   -0.2122   18.7059 C   0  0  0  0  0  0  0  0  0  0  0  0
    8.2048   -0.7590   18.5397 H   0  0  0  0  0  0  0  0  0  0  0  0
    5.2320    1.6269   16.9596 H   0  0  0  0  0  0  0  0  0  0  0  0
    3.9969    1.6778   19.1198 H   0  0  0  0  0  0  0  0  0  0  0  0
    4.9366    0.4124   21.0978 H   0  0  0  0  0  0  0  0  0  0  0  0
    6.7490   -1.8570   21.8345 N   0  0  0  0  0  0  0  0  0  0  0  0
    6.6535   -3.7549   23.5890 H   0  0  0  0  0  0  0  0  0  0  0  0
    8.3960   -3.7406   23.9357 H   0  0  0  0  0  0  0  0  0  0  0  0
    4.9268   -2.0094   24.9454 H   0  0  0  0  0  0  0  0  0  0  0  0
    5.9920   -0.6861   24.4010 H   0  0  0  0  0  0  0  0  0  0  0  0
    5.5809   -0.8483   26.1235 H   0  0  0  0  0  0  0  0  0  0  0  0
  1  2  1  0
  2  3  1  0
  3  4  1  0
  4  5  2  0
  5  6  1  0
  6  7  1  0
  7  8  1  0
  8  9  2  0
  9 10  1  0
 10 11  2  0
 11 12  1  0
 12 13  2  0
 12 14  1  0
 11 15  1  0
 10 16  1  0
  9 17  1  0
  7 18  1  0
  7 19  1  0
  6 20  1  0
 20 21  1  0
 21 22  2  0
 22 23  1  0
 23 24  2  0
 24 25  1  0
 25 26  2  0
 26 27  1  0
 24 28  1  0
 23 29  1  0
 22 30  1  0
 20 31  2  0
  3 32  1  0
  3 33  1  0
  1 34  1  0
  1 35  1  0
  1 36  1  0
 31  4  1  0
 13  8  1  0
 26 21  1  0
M  END
>  <cnnaffinity>  (1) 
-5.32222

>  <filename>  (1) 
CSCc1nc(-c2cccnc2)n(Cc2ccccn2)n1

$$$$
