
     RDKit          3D

 13 13  0  0  0  0  0  0  0  0999 V2000
    4.9235    1.7756   17.0001 H   0  0  0  0  0  0  0  0  0  0  0  0
    5.4016    1.2910   17.8466 C   0  0  0  0  0  0  0  0  0  0  0  0
    6.5656    0.6729   17.5918 N   0  0  0  0  0  0  0  0  0  0  0  0
    7.1625    0.0657   18.6083 C   0  0  0  0  0  0  0  0  0  0  0  0
    8.1087   -0.4243   18.3923 H   0  0  0  0  0  0  0  0  0  0  0  0
    6.6422    0.0165   19.9121 C   0  0  0  0  0  0  0  0  0  0  0  0
    7.4024   -0.6982   20.9173 C   0  0  0  0  0  0  0  0  0  0  0  0
    6.8404   -0.7007   22.1248 F   0  0  0  0  0  0  0  0  0  0  0  0
    8.8064   -1.5172   20.9140 S   0  0  0  0  0  0  0  0  0  0  0  0
    5.4120    0.6649   20.1736 C   0  0  0  0  0  0  0  0  0  0  0  0
    4.9750    0.6485   21.1766 H   0  0  0  0  0  0  0  0  0  0  0  0
    4.7971    1.3135   19.1114 C   0  0  0  0  0  0  0  0  0  0  0  0
    3.8662    1.8494   19.2545 H   0  0  0  0  0  0  0  0  0  0  0  0
  1  2  1  0
  2  3  2  0
  3  4  1  0
  4  5  1  0
  4  6  2  0
  6  7  1  0
  7  8  1  0
  7  9  2  0
  6 10  1  0
 10 11  1  0
 10 12  2  0
 12 13  1  0
 12  2  1  0
M  END
>  <cnnaffinity>  (1) 
-3.64908

>  <filename>  (1) 
FC(=S)c1cccnc1

$$$$
