
     RDKit          3D

 29 30  0  0  0  0  0  0  0  0999 V2000
    6.6726   -1.2318   21.7241 H   0  0  0  0  0  0  0  0  0  0  0  0
    7.3168   -0.7169   21.0141 C   0  0  0  0  0  0  0  0  0  0  0  0
    8.6378   -0.7446   21.2598 C   0  0  0  0  0  0  0  0  0  0  0  0
    9.4880   -0.0454   20.5051 F   0  0  0  0  0  0  0  0  0  0  0  0
    9.3292   -1.3844   22.1977 O   0  0  0  0  0  0  0  0  0  0  0  0
    8.6178   -2.1458   23.2065 C   0  0  0  0  0  0  0  0  0  0  0  0
    7.9248   -2.8267   22.7013 H   0  0  0  0  0  0  0  0  0  0  0  0
    9.6360   -2.9513   24.0118 C   0  0  0  0  0  0  0  0  0  0  0  0
   10.5818   -2.4014   24.0159 H   0  0  0  0  0  0  0  0  0  0  0  0
    9.8308   -3.9296   23.5642 H   0  0  0  0  0  0  0  0  0  0  0  0
    9.0505   -3.0645   25.4255 C   0  0  0  0  0  0  0  0  0  0  0  0
    9.8197   -3.2218   26.1872 H   0  0  0  0  0  0  0  0  0  0  0  0
    8.3701   -3.9221   25.5038 H   0  0  0  0  0  0  0  0  0  0  0  0
    8.2841   -1.7465   25.6374 C   0  0  0  0  0  0  0  0  0  0  0  0
    8.9331   -0.9975   26.1052 H   0  0  0  0  0  0  0  0  0  0  0  0
    7.4322   -1.8776   26.3121 H   0  0  0  0  0  0  0  0  0  0  0  0
    7.8527   -1.2739   24.2262 C   0  0  0  0  0  0  0  0  0  0  0  0
    8.0892   -0.2184   24.0777 H   0  0  0  0  0  0  0  0  0  0  0  0
    6.7704   -1.3798   24.0963 H   0  0  0  0  0  0  0  0  0  0  0  0
    6.6561   -0.0035   19.9027 C   0  0  0  0  0  0  0  0  0  0  0  0
    7.1724    0.0721   18.5838 C   0  0  0  0  0  0  0  0  0  0  0  0
    8.1174   -0.4138   18.3518 H   0  0  0  0  0  0  0  0  0  0  0  0
    6.5581    0.6856   17.5627 N   0  0  0  0  0  0  0  0  0  0  0  0
    5.3939    1.2980   17.8329 C   0  0  0  0  0  0  0  0  0  0  0  0
    4.9126    1.7879   16.9906 H   0  0  0  0  0  0  0  0  0  0  0  0
    4.7982    1.3133   19.1002 C   0  0  0  0  0  0  0  0  0  0  0  0
    3.8684    1.8483   19.2529 H   0  0  0  0  0  0  0  0  0  0  0  0
    5.4294    0.6404   20.1473 C   0  0  0  0  0  0  0  0  0  0  0  0
    5.0113    0.6229   21.1558 H   0  0  0  0  0  0  0  0  0  0  0  0
  1  2  1  0
  2  3  2  3
  3  4  1  0
  3  5  1  0
  5  6  1  0
  6  7  1  0
  6  8  1  0
  8  9  1  0
  8 10  1  0
  8 11  1  0
 11 12  1  0
 11 13  1  0
 11 14  1  0
 14 15  1  0
 14 16  1  0
 14 17  1  0
 17 18  1  0
 17 19  1  0
  2 20  1  0
 20 21  2  0
 21 22  1  0
 21 23  1  0
 23 24  2  0
 24 25  1  0
 24 26  1  0
 26 27  1  0
 26 28  2  0
 28 29  1  0
 17  6  1  0
 28 20  1  0
M  END
>  <cnnaffinity>  (1) 
-4.53713

>  <filename>  (1) 
FC(=Cc1cccnc1)OC1CCCC1

$$$$
