
     RDKit          3D

 32 34  0  0  0  0  0  0  0  0999 V2000
    4.9406    1.8031   16.9726 H   0  0  0  0  0  0  0  0  0  0  0  0
    5.3979    1.3032   17.8264 C   0  0  0  0  0  0  0  0  0  0  0  0
    6.5557    0.6683   17.5869 N   0  0  0  0  0  0  0  0  0  0  0  0
    7.1535    0.0513   18.6115 C   0  0  0  0  0  0  0  0  0  0  0  0
    8.1020   -0.4334   18.3796 H   0  0  0  0  0  0  0  0  0  0  0  0
    6.6272    0.0135   19.9130 C   0  0  0  0  0  0  0  0  0  0  0  0
    7.2878   -0.7299   20.9966 C   0  0  0  0  0  0  0  0  0  0  0  0
    6.6976   -1.5736   21.8005 N   0  0  0  0  0  0  0  0  0  0  0  0
    7.6491   -2.0996   22.6422 N   0  0  0  0  0  0  0  0  0  0  0  0
    8.7817   -1.5395   22.3242 C   0  0  0  0  0  0  0  0  0  0  0  0
    9.7491   -1.6919   22.7887 H   0  0  0  0  0  0  0  0  0  0  0  0
    8.6235   -0.6564   21.2943 N   0  0  0  0  0  0  0  0  0  0  0  0
    9.6916    0.1685   20.7081 C   0  0  0  0  0  0  0  0  0  0  0  0
   10.3120   -0.4774   20.0845 H   0  0  0  0  0  0  0  0  0  0  0  0
    9.2266    0.9580   20.1216 H   0  0  0  0  0  0  0  0  0  0  0  0
   10.6337    0.7983   21.7296 C   0  0  0  0  0  0  0  0  0  0  0  0
   11.7714    0.1270   21.9160 N   0  0  0  0  0  0  0  0  0  0  0  0
   12.6511    0.5569   22.8254 C   0  0  0  0  0  0  0  0  0  0  0  0
   13.5323   -0.0719   22.9500 H   0  0  0  0  0  0  0  0  0  0  0  0
   12.4492    1.7101   23.5829 C   0  0  0  0  0  0  0  0  0  0  0  0
   13.2028    1.9889   24.3029 H   0  0  0  0  0  0  0  0  0  0  0  0
   11.2821    2.4440   23.3836 C   0  0  0  0  0  0  0  0  0  0  0  0
   11.0919    3.3593   23.9459 H   0  0  0  0  0  0  0  0  0  0  0  0
   10.3588    1.9694   22.4491 C   0  0  0  0  0  0  0  0  0  0  0  0
    9.0429    2.6364   22.2169 C   0  0  0  0  0  0  0  0  0  0  0  0
    8.8975    3.7617   22.9324 F   0  0  0  0  0  0  0  0  0  0  0  0
    8.0123    1.8302   22.5310 F   0  0  0  0  0  0  0  0  0  0  0  0
    8.8787    2.9705   20.9191 F   0  0  0  0  0  0  0  0  0  0  0  0
    5.4103    0.6659   20.1439 C   0  0  0  0  0  0  0  0  0  0  0  0
    4.9708    0.6338   21.1409 H   0  0  0  0  0  0  0  0  0  0  0  0
    4.7940    1.3319   19.0877 C   0  0  0  0  0  0  0  0  0  0  0  0
    3.8589    1.8656   19.2176 H   0  0  0  0  0  0  0  0  0  0  0  0
  1  2  1  0
  2  3  2  0
  3  4  1  0
  4  5  1  0
  4  6  2  0
  6  7  1  0
  7  8  2  0
  8  9  1  0
  9 10  2  0
 10 11  1  0
 10 12  1  0
 12 13  1  0
 13 14  1  0
 13 15  1  0
 13 16  1  0
 16 17  2  0
 17 18  1  0
 18 19  1  0
 18 20  2  0
 20 21  1  0
 20 22  1  0
 22 23  1  0
 22 24  2  0
 24 25  1  0
 25 26  1  0
 25 27  1  0
 25 28  1  0
  6 29  1  0
 29 30  1  0
 29 31  2  0
 31 32  1  0
 31  2  1  0
 12  7  1  0
 24 16  1  0
M  END
>  <cnnaffinity>  (1) 
-5.37745

>  <filename>  (1) 
FC(F)(F)c1cccnc1Cn1cnnc1-c1cccnc1

$$$$
