
     RDKit          3D

 31 33  0  0  0  0  0  0  0  0999 V2000
   10.4719   -1.3135   21.8634 H   0  0  0  0  0  0  0  0  0  0  0  0
    9.3911   -1.3158   21.8880 C   0  0  0  0  0  0  0  0  0  0  0  0
    8.8327   -1.9766   22.9037 N   0  0  0  0  0  0  0  0  0  0  0  0
    7.4890   -2.0146   22.9528 C   0  0  0  0  0  0  0  0  0  0  0  0
    6.7947   -2.7496   24.1075 C   0  0  0  0  0  0  0  0  0  0  0  0
    5.6999   -2.1506   24.6058 N   0  0  0  0  0  0  0  0  0  0  0  0
    5.0619   -2.6779   25.6491 C   0  0  0  0  0  0  0  0  0  0  0  0
    4.1922   -2.1375   26.0185 H   0  0  0  0  0  0  0  0  0  0  0  0
    5.4612   -3.8708   26.2490 C   0  0  0  0  0  0  0  0  0  0  0  0
    4.9189   -4.2695   27.0944 H   0  0  0  0  0  0  0  0  0  0  0  0
    6.5582   -4.5385   25.7258 C   0  0  0  0  0  0  0  0  0  0  0  0
    6.8930   -5.4737   26.1736 H   0  0  0  0  0  0  0  0  0  0  0  0
    7.2208   -3.9967   24.6182 C   0  0  0  0  0  0  0  0  0  0  0  0
    8.3937   -4.7440   24.0211 C   0  0  0  0  0  0  0  0  0  0  0  0
    8.3688   -4.7454   22.6739 F   0  0  0  0  0  0  0  0  0  0  0  0
    8.4183   -6.0366   24.4009 F   0  0  0  0  0  0  0  0  0  0  0  0
    9.5690   -4.2202   24.3977 F   0  0  0  0  0  0  0  0  0  0  0  0
    6.7479   -1.3854   21.9608 C   0  0  0  0  0  0  0  0  0  0  0  0
    5.6733   -1.4234   21.9600 H   0  0  0  0  0  0  0  0  0  0  0  0
    7.4283   -0.7052   20.9536 C   0  0  0  0  0  0  0  0  0  0  0  0
    6.6771    0.0148   19.9095 C   0  0  0  0  0  0  0  0  0  0  0  0
    7.1858    0.0633   18.6058 C   0  0  0  0  0  0  0  0  0  0  0  0
    8.1272   -0.4267   18.3730 H   0  0  0  0  0  0  0  0  0  0  0  0
    6.5673    0.6680   17.5883 N   0  0  0  0  0  0  0  0  0  0  0  0
    5.4057    1.2870   17.8479 C   0  0  0  0  0  0  0  0  0  0  0  0
    4.9187    1.7735   17.0047 H   0  0  0  0  0  0  0  0  0  0  0  0
    4.8111    1.3082   19.1144 C   0  0  0  0  0  0  0  0  0  0  0  0
    3.8768    1.8407   19.2639 H   0  0  0  0  0  0  0  0  0  0  0  0
    5.4482    0.6478   20.1618 C   0  0  0  0  0  0  0  0  0  0  0  0
    5.0064    0.6392   21.1623 H   0  0  0  0  0  0  0  0  0  0  0  0
    8.7632   -0.6901   20.8937 N   0  0  0  0  0  0  0  0  0  0  0  0
  1  2  1  0
  2  3  2  0
  3  4  1  0
  4  5  1  0
  5  6  2  0
  6  7  1  0
  7  8  1  0
  7  9  2  0
  9 10  1  0
  9 11  1  0
 11 12  1  0
 11 13  2  0
 13 14  1  0
 14 15  1  0
 14 16  1  0
 14 17  1  0
  4 18  2  0
 18 19  1  0
 18 20  1  0
 20 21  1  0
 21 22  2  0
 22 23  1  0
 22 24  1  0
 24 25  2  0
 25 26  1  0
 25 27  1  0
 27 28  1  0
 27 29  2  0
 29 30  1  0
 20 31  2  0
 31  2  1  0
 13  5  1  0
 29 21  1  0
M  END
>  <cnnaffinity>  (1) 
-5.60016

>  <filename>  (1) 
FC(F)(F)c1cccnc1-c1cc(-c2cccnc2)ncn1

$$$$
