
     RDKit          3D

 30 32  0  0  0  0  0  0  0  0999 V2000
    4.9212    1.8224   16.9573 H   0  0  0  0  0  0  0  0  0  0  0  0
    5.3750    1.2974   17.7973 C   0  0  0  0  0  0  0  0  0  0  0  0
    6.5362    0.6708   17.5447 N   0  0  0  0  0  0  0  0  0  0  0  0
    7.1356    0.0397   18.5604 C   0  0  0  0  0  0  0  0  0  0  0  0
    8.0983   -0.4183   18.3359 H   0  0  0  0  0  0  0  0  0  0  0  0
    6.6261   -0.0057   19.8738 C   0  0  0  0  0  0  0  0  0  0  0  0
    7.3581   -0.6581   20.9743 C   0  0  0  0  0  0  0  0  0  0  0  0
    8.0683   -0.1876   22.0682 C   0  0  0  0  0  0  0  0  0  0  0  0
    8.2776    1.2627   22.3927 C   0  0  0  0  0  0  0  0  0  0  0  0
    7.2183    2.0602   22.1596 N   0  0  0  0  0  0  0  0  0  0  0  0
    7.2746    3.3521   22.4659 C   0  0  0  0  0  0  0  0  0  0  0  0
    6.3710    3.9253   22.2708 H   0  0  0  0  0  0  0  0  0  0  0  0
    8.4091    3.9545   23.0133 C   0  0  0  0  0  0  0  0  0  0  0  0
    8.3941    5.0105   23.2507 H   0  0  0  0  0  0  0  0  0  0  0  0
    9.5369    3.1736   23.2097 C   0  0  0  0  0  0  0  0  0  0  0  0
   10.4521    3.6079   23.6132 H   0  0  0  0  0  0  0  0  0  0  0  0
    9.4884    1.8195   22.8669 C   0  0  0  0  0  0  0  0  0  0  0  0
   10.7077    0.9565   23.0241 C   0  0  0  0  0  0  0  0  0  0  0  0
   11.8218    1.6848   23.2315 F   0  0  0  0  0  0  0  0  0  0  0  0
   10.9408    0.2042   21.9323 F   0  0  0  0  0  0  0  0  0  0  0  0
   10.5768    0.1287   24.0709 F   0  0  0  0  0  0  0  0  0  0  0  0
    8.6223   -1.2539   22.7555 N   0  0  0  0  0  0  0  0  0  0  0  0
    8.2645   -2.3183   22.0995 C   0  0  0  0  0  0  0  0  0  0  0  0
    8.5028   -3.3384   22.3707 H   0  0  0  0  0  0  0  0  0  0  0  0
    7.5273   -2.0168   21.0046 N   0  0  0  0  0  0  0  0  0  0  0  0
    7.1010   -2.6587   20.3571 H   0  0  0  0  0  0  0  0  0  0  0  0
    5.4002    0.6327   20.1051 C   0  0  0  0  0  0  0  0  0  0  0  0
    5.0155    0.6587   21.1240 H   0  0  0  0  0  0  0  0  0  0  0  0
    4.7684    1.3003   19.0560 C   0  0  0  0  0  0  0  0  0  0  0  0
    3.8511    1.8548   19.2162 H   0  0  0  0  0  0  0  0  0  0  0  0
  1  2  1  0
  2  3  2  0
  3  4  1  0
  4  5  1  0
  4  6  2  0
  6  7  1  0
  7  8  2  0
  8  9  1  0
  9 10  2  0
 10 11  1  0
 11 12  1  0
 11 13  2  0
 13 14  1  0
 13 15  1  0
 15 16  1  0
 15 17  2  0
 17 18  1  0
 18 19  1  0
 18 20  1  0
 18 21  1  0
  8 22  1  0
 22 23  2  0
 23 24  1  0
 23 25  1  0
 25 26  1  0
  6 27  1  0
 27 28  1  0
 27 29  2  0
 29 30  1  0
 29  2  1  0
 25  7  1  0
 17  9  1  0
M  END
>  <cnnaffinity>  (1) 
-5.75516

>  <filename>  (1) 
FC(F)(F)c1cccnc1-c1nc[nH]c1-c1cccnc1

$$$$
