
     RDKit          3D

 43 46  0  0  0  0  0  0  0  0999 V2000
    5.9663   -1.1949   28.2065 F   0  0  0  0  0  0  0  0  0  0  0  0
    6.8890   -0.7830   27.3300 C   0  0  0  0  0  0  0  0  0  0  0  0
    7.7904   -0.0351   28.0042 F   0  0  0  0  0  0  0  0  0  0  0  0
    7.5542   -1.8805   26.9074 F   0  0  0  0  0  0  0  0  0  0  0  0
    6.3209   -0.0015   26.1525 C   0  0  0  0  0  0  0  0  0  0  0  0
    7.0970    0.7010   25.2664 C   0  0  0  0  0  0  0  0  0  0  0  0
    6.2582    1.0992   24.2505 N   0  0  0  0  0  0  0  0  0  0  0  0
    6.7163    1.7502   23.0122 C   0  0  0  0  0  0  0  0  0  0  0  0
    7.8376    0.9888   22.3643 C   0  0  0  0  0  0  0  0  0  0  0  0
    9.1163    1.2392   22.5311 N   0  0  0  0  0  0  0  0  0  0  0  0
    9.7247    0.1355   22.0128 C   0  0  0  0  0  0  0  0  0  0  0  0
   11.1807   -0.1031   22.1209 C   0  0  0  0  0  0  0  0  0  0  0  0
   12.0131    0.8956   22.6647 C   0  0  0  0  0  0  0  0  0  0  0  0
   13.3491    0.6198   22.9502 C   0  0  0  0  0  0  0  0  0  0  0  0
   13.8832   -0.6370   22.6454 C   0  0  0  0  0  0  0  0  0  0  0  0
   13.0729   -1.6259   22.0730 C   0  0  0  0  0  0  0  0  0  0  0  0
   11.7258   -1.3701   21.8178 C   0  0  0  0  0  0  0  0  0  0  0  0
   11.0788   -2.1556   21.4229 H   0  0  0  0  0  0  0  0  0  0  0  0
   13.4945   -2.6078   21.8734 H   0  0  0  0  0  0  0  0  0  0  0  0
   14.9107   -0.8538   22.9085 H   0  0  0  0  0  0  0  0  0  0  0  0
   13.9537    1.3775   23.4390 H   0  0  0  0  0  0  0  0  0  0  0  0
   11.6052    1.8775   22.8976 H   0  0  0  0  0  0  0  0  0  0  0  0
    8.8755   -0.7505   21.5095 N   0  0  0  0  0  0  0  0  0  0  0  0
    7.6670   -0.1957   21.7436 N   0  0  0  0  0  0  0  0  0  0  0  0
    6.4564   -0.7496   21.1472 C   0  0  0  0  0  0  0  0  0  0  0  0
    6.0654   -0.0199   19.8734 C   0  0  0  0  0  0  0  0  0  0  0  0
    4.8703    0.6934   19.7430 C   0  0  0  0  0  0  0  0  0  0  0  0
    4.6760    1.4809   18.6038 C   0  0  0  0  0  0  0  0  0  0  0  0
    5.6781    1.5123   17.6313 C   0  0  0  0  0  0  0  0  0  0  0  0
    6.8048    0.7868   17.7043 N   0  0  0  0  0  0  0  0  0  0  0  0
    6.9814    0.0481   18.8055 C   0  0  0  0  0  0  0  0  0  0  0  0
    7.9197   -0.5033   18.8617 H   0  0  0  0  0  0  0  0  0  0  0  0
    5.5742    2.1483   16.7547 H   0  0  0  0  0  0  0  0  0  0  0  0
    3.7786    2.0759   18.4722 H   0  0  0  0  0  0  0  0  0  0  0  0
    4.1032    0.6370   20.5178 H   0  0  0  0  0  0  0  0  0  0  0  0
    5.6641   -0.6793   21.8963 H   0  0  0  0  0  0  0  0  0  0  0  0
    6.6724   -1.8096   20.9842 H   0  0  0  0  0  0  0  0  0  0  0  0
    5.8880    1.8313   22.3024 H   0  0  0  0  0  0  0  0  0  0  0  0
    7.0887    2.7562   23.2357 H   0  0  0  0  0  0  0  0  0  0  0  0
    5.0057    0.6661   24.6069 C   0  0  0  0  0  0  0  0  0  0  0  0
    5.0044    0.0065   25.7315 N   0  0  0  0  0  0  0  0  0  0  0  0
    4.1342    0.9067   24.0089 H   0  0  0  0  0  0  0  0  0  0  0  0
    8.1425    0.9891   25.2876 H   0  0  0  0  0  0  0  0  0  0  0  0
  1  2  1  0
  2  3  1  0
  2  4  1  0
  2  5  1  0
  5  6  2  0
  6  7  1  0
  7  8  1  0
  8  9  1  0
  9 10  2  0
 10 11  1  0
 11 12  1  0
 12 13  2  0
 13 14  1  0
 14 15  2  0
 15 16  1  0
 16 17  2  0
 17 18  1  0
 16 19  1  0
 15 20  1  0
 14 21  1  0
 13 22  1  0
 11 23  2  0
 23 24  1  0
 24 25  1  0
 25 26  1  0
 26 27  2  0
 27 28  1  0
 28 29  2  0
 29 30  1  0
 30 31  2  0
 31 32  1  0
 29 33  1  0
 28 34  1  0
 27 35  1  0
 25 36  1  0
 25 37  1  0
  8 38  1  0
  8 39  1  0
  7 40  1  0
 40 41  2  0
 40 42  1  0
  6 43  1  0
 41  5  1  0
 24  9  1  0
 31 26  1  0
 17 12  1  0
M  END
>  <cnnaffinity>  (1) 
-6.17172

>  <filename>  (1) 
FC(F)(F)c1cn(Cc2nc(-c3ccccc3)nn2Cc2cccnc2)cn1

$$$$
