
     RDKit          3D

 31 33  0  0  0  0  0  0  0  0999 V2000
    4.9715    1.8239   16.9827 H   0  0  0  0  0  0  0  0  0  0  0  0
    5.4332    1.2957   17.8107 C   0  0  0  0  0  0  0  0  0  0  0  0
    6.5828    0.6491   17.5490 N   0  0  0  0  0  0  0  0  0  0  0  0
    7.1943    0.0257   18.5622 C   0  0  0  0  0  0  0  0  0  0  0  0
    8.1161   -0.5088   18.3258 H   0  0  0  0  0  0  0  0  0  0  0  0
    6.6932    0.0136   19.8745 C   0  0  0  0  0  0  0  0  0  0  0  0
    7.3883   -0.6753   20.8984 N   0  0  0  0  0  0  0  0  0  0  0  0
    8.7641   -0.7815   21.0560 C   0  0  0  0  0  0  0  0  0  0  0  0
    9.4331   -0.2960   20.3535 H   0  0  0  0  0  0  0  0  0  0  0  0
    9.0037   -1.5175   22.1798 C   0  0  0  0  0  0  0  0  0  0  0  0
    9.9641   -1.8049   22.5909 H   0  0  0  0  0  0  0  0  0  0  0  0
    7.7407   -1.8945   22.7554 C   0  0  0  0  0  0  0  0  0  0  0  0
    7.5441   -2.7061   23.9842 C   0  0  0  0  0  0  0  0  0  0  0  0
    8.6511   -3.2441   24.5350 N   0  0  0  0  0  0  0  0  0  0  0  0
    8.5387   -3.9969   25.6362 C   0  0  0  0  0  0  0  0  0  0  0  0
    9.7881   -4.6896   26.2346 C   0  0  0  0  0  0  0  0  0  0  0  0
   10.9291   -4.4305   25.5942 F   0  0  0  0  0  0  0  0  0  0  0  0
    9.9556   -4.3469   27.5305 F   0  0  0  0  0  0  0  0  0  0  0  0
    9.6015   -6.0286   26.2252 F   0  0  0  0  0  0  0  0  0  0  0  0
    7.3110   -4.2240   26.2793 C   0  0  0  0  0  0  0  0  0  0  0  0
    7.2688   -4.7658   27.2207 H   0  0  0  0  0  0  0  0  0  0  0  0
    6.1590   -3.6979   25.6988 C   0  0  0  0  0  0  0  0  0  0  0  0
    5.1887   -3.8874   26.1521 H   0  0  0  0  0  0  0  0  0  0  0  0
    6.2681   -2.9352   24.5358 C   0  0  0  0  0  0  0  0  0  0  0  0
    5.3807   -2.5451   24.0525 H   0  0  0  0  0  0  0  0  0  0  0  0
    6.7804   -1.3670   21.9158 C   0  0  0  0  0  0  0  0  0  0  0  0
    5.7016   -1.4704   21.8854 H   0  0  0  0  0  0  0  0  0  0  0  0
    5.4790    0.6767   20.1333 C   0  0  0  0  0  0  0  0  0  0  0  0
    5.0617    0.7136   21.1412 H   0  0  0  0  0  0  0  0  0  0  0  0
    4.8349    1.3178   19.0759 C   0  0  0  0  0  0  0  0  0  0  0  0
    3.8869    1.8309   19.2268 H   0  0  0  0  0  0  0  0  0  0  0  0
  1  2  1  0
  2  3  2  0
  3  4  1  0
  4  5  1  0
  4  6  2  0
  6  7  1  0
  7  8  1  0
  8  9  1  0
  8 10  2  0
 10 11  1  0
 10 12  1  0
 12 13  1  0
 13 14  2  0
 14 15  1  0
 15 16  1  0
 16 17  1  0
 16 18  1  0
 16 19  1  0
 15 20  2  0
 20 21  1  0
 20 22  1  0
 22 23  1  0
 22 24  2  0
 24 25  1  0
 12 26  2  0
 26 27  1  0
  6 28  1  0
 28 29  1  0
 28 30  2  0
 30 31  1  0
 30  2  1  0
 26  7  1  0
 24 13  1  0
M  END
>  <cnnaffinity>  (1) 
-5.11451

>  <filename>  (1) 
FC(F)(F)c1cccc(-c2ccn(-c3cccnc3)c2)n1

$$$$
