
     RDKit          3D

 28 29  0  0  0  0  0  0  0  0999 V2000
    4.9076    1.7889   16.9860 H   0  0  0  0  0  0  0  0  0  0  0  0
    5.3944    1.3010   17.8237 C   0  0  0  0  0  0  0  0  0  0  0  0
    6.5581    0.6838   17.5562 N   0  0  0  0  0  0  0  0  0  0  0  0
    7.1735    0.0749   18.5780 C   0  0  0  0  0  0  0  0  0  0  0  0
    8.1204   -0.4228   18.3703 H   0  0  0  0  0  0  0  0  0  0  0  0
    6.6628    0.0126   19.8964 C   0  0  0  0  0  0  0  0  0  0  0  0
    7.3210   -0.6086   20.9700 N   0  0  0  0  0  0  0  0  0  0  0  0
    6.7063   -1.7738   21.6171 C   0  0  0  0  0  0  0  0  0  0  0  0
    5.6176   -1.6984   21.5363 H   0  0  0  0  0  0  0  0  0  0  0  0
    6.9941   -2.7273   21.1439 H   0  0  0  0  0  0  0  0  0  0  0  0
    7.1158   -1.7922   23.1032 C   0  0  0  0  0  0  0  0  0  0  0  0
    6.7004   -2.6772   23.5974 H   0  0  0  0  0  0  0  0  0  0  0  0
    6.6645   -0.9192   23.5864 H   0  0  0  0  0  0  0  0  0  0  0  0
    8.5767   -1.7310   23.3248 N   0  0  0  0  0  0  0  0  0  0  0  0
    9.2378   -2.9710   23.1541 C   0  0  0  0  0  0  0  0  0  0  0  0
    8.7413   -3.7894   23.6886 H   0  0  0  0  0  0  0  0  0  0  0  0
   10.5276   -2.8921   23.5566 F   0  0  0  0  0  0  0  0  0  0  0  0
    9.2551   -3.3019   21.8195 F   0  0  0  0  0  0  0  0  0  0  0  0
    9.1680   -0.5877   22.5900 C   0  0  0  0  0  0  0  0  0  0  0  0
    8.8114    0.3283   23.0704 H   0  0  0  0  0  0  0  0  0  0  0  0
   10.2552   -0.6099   22.6921 H   0  0  0  0  0  0  0  0  0  0  0  0
    8.7762   -0.5179   21.0974 C   0  0  0  0  0  0  0  0  0  0  0  0
    9.0910    0.4501   20.6939 H   0  0  0  0  0  0  0  0  0  0  0  0
    9.3175   -1.3007   20.5425 H   0  0  0  0  0  0  0  0  0  0  0  0
    5.4299    0.6445   20.1444 C   0  0  0  0  0  0  0  0  0  0  0  0
    5.0303    0.6183   21.1618 H   0  0  0  0  0  0  0  0  0  0  0  0
    4.8032    1.3148   19.0962 C   0  0  0  0  0  0  0  0  0  0  0  0
    3.8698    1.8443   19.2588 H   0  0  0  0  0  0  0  0  0  0  0  0
  1  2  1  0
  2  3  2  0
  3  4  1  0
  4  5  1  0
  4  6  2  0
  6  7  1  0
  7  8  1  0
  8  9  1  0
  8 10  1  0
  8 11  1  0
 11 12  1  0
 11 13  1  0
 11 14  1  0
 14 15  1  0
 15 16  1  0
 15 17  1  0
 15 18  1  0
 14 19  1  0
 19 20  1  0
 19 21  1  0
 19 22  1  0
 22 23  1  0
 22 24  1  0
  6 25  1  0
 25 26  1  0
 25 27  2  0
 27 28  1  0
 27  2  1  0
 22  7  1  0
M  END
>  <cnnaffinity>  (1) 
-4.2357

>  <filename>  (1) 
FC(F)N1CCN(c2cccnc2)CC1

$$$$
