
     RDKit          3D

 46 49  0  0  0  0  0  0  0  0999 V2000
    4.9346    1.7877   17.0082 H   0  0  0  0  0  0  0  0  0  0  0  0
    5.4058    1.2713   17.8413 C   0  0  0  0  0  0  0  0  0  0  0  0
    6.5611    0.6435   17.5763 N   0  0  0  0  0  0  0  0  0  0  0  0
    7.1897    0.0417   18.5952 C   0  0  0  0  0  0  0  0  0  0  0  0
    8.1371   -0.4300   18.3436 H   0  0  0  0  0  0  0  0  0  0  0  0
    6.7215   -0.0041   19.9414 C   0  0  0  0  0  0  0  0  0  0  0  0
    7.4848   -0.5889   20.9742 N   0  0  0  0  0  0  0  0  0  0  0  0
    8.3067   -1.7997   20.7890 C   0  0  1  0  0  0  0  0  0  0  0  0
    8.9146   -1.7195   19.8798 H   0  0  0  0  0  0  0  0  0  0  0  0
    9.1752   -1.7876   22.0650 C   0  0  0  0  0  0  0  0  0  0  0  0
   10.1012   -1.2330   21.8869 H   0  0  0  0  0  0  0  0  0  0  0  0
    9.4573   -2.8040   22.3568 H   0  0  0  0  0  0  0  0  0  0  0  0
    8.2797   -1.0760   23.1154 C   0  0  0  0  0  0  0  0  0  0  0  0
    8.0690   -1.6820   24.0017 H   0  0  0  0  0  0  0  0  0  0  0  0
    8.7347   -0.1450   23.4675 H   0  0  0  0  0  0  0  0  0  0  0  0
    6.9824   -0.7805   22.3417 C   0  0  2  0  0  0  0  0  0  0  0  0
    6.4712    0.1187   22.7124 H   0  0  0  0  0  0  0  0  0  0  0  0
    5.9849   -1.9577   22.3639 C   0  0  0  0  0  0  0  0  0  0  0  0
    5.1773   -1.6247   21.6898 H   0  0  0  0  0  0  0  0  0  0  0  0
    5.6626   -2.1169   23.4016 H   0  0  0  0  0  0  0  0  0  0  0  0
    6.4157   -3.3094   21.8225 C   0  0  2  0  0  0  0  0  0  0  0  0
    5.5209   -3.7750   21.3770 H   0  0  0  0  0  0  0  0  0  0  0  0
    6.8814   -4.3491   22.8600 C   0  0  0  0  0  0  0  0  0  0  0  0
    7.2536   -5.2288   22.3162 H   0  0  0  0  0  0  0  0  0  0  0  0
    7.7281   -3.9613   23.4410 H   0  0  0  0  0  0  0  0  0  0  0  0
    5.7594   -4.7896   23.7738 C   0  0  0  0  0  0  0  0  0  0  0  0
    5.6876   -4.3430   25.1000 C   0  0  0  0  0  0  0  0  0  0  0  0
    6.4602   -3.6733   25.4717 H   0  0  0  0  0  0  0  0  0  0  0  0
    4.6349   -4.7134   25.9343 C   0  0  0  0  0  0  0  0  0  0  0  0
    4.6142   -4.3530   26.9596 H   0  0  0  0  0  0  0  0  0  0  0  0
    3.6093   -5.5386   25.4445 C   0  0  0  0  0  0  0  0  0  0  0  0
    2.5002   -5.9991   26.3640 C   0  0  0  0  0  0  0  0  0  0  0  0
    1.3479   -6.2284   25.7037 F   0  0  0  0  0  0  0  0  0  0  0  0
    2.8194   -7.1486   26.9907 F   0  0  0  0  0  0  0  0  0  0  0  0
    2.2239   -5.0983   27.3271 F   0  0  0  0  0  0  0  0  0  0  0  0
    3.6562   -5.9807   24.1104 C   0  0  0  0  0  0  0  0  0  0  0  0
    2.8645   -6.6098   23.7083 H   0  0  0  0  0  0  0  0  0  0  0  0
    4.7147   -5.5996   23.2892 C   0  0  0  0  0  0  0  0  0  0  0  0
    4.7255   -5.9187   22.2497 H   0  0  0  0  0  0  0  0  0  0  0  0
    7.3933   -3.0566   20.6959 C   0  0  0  0  0  0  0  0  0  0  0  0
    8.0189   -3.9536   20.6090 H   0  0  0  0  0  0  0  0  0  0  0  0
    6.7783   -2.9267   19.7929 H   0  0  0  0  0  0  0  0  0  0  0  0
    5.4802    0.6384   20.1723 C   0  0  0  0  0  0  0  0  0  0  0  0
    5.0351    0.6319   21.1637 H   0  0  0  0  0  0  0  0  0  0  0  0
    4.8268    1.2855   19.1141 C   0  0  0  0  0  0  0  0  0  0  0  0
    3.8925    1.8189   19.2718 H   0  0  0  0  0  0  0  0  0  0  0  0
  1  2  1  0
  2  3  2  0
  3  4  1  0
  4  5  1  0
  4  6  2  0
  6  7  1  0
  7  8  1  0
  8  9  1  6
  8 10  1  0
 10 11  1  0
 10 12  1  0
 10 13  1  0
 13 14  1  0
 13 15  1  0
 13 16  1  0
 16 17  1  1
 16 18  1  0
 18 19  1  0
 18 20  1  0
 18 21  1  0
 21 22  1  6
 21 23  1  0
 23 24  1  0
 23 25  1  0
 23 26  1  0
 26 27  2  0
 27 28  1  0
 27 29  1  0
 29 30  1  0
 29 31  2  0
 31 32  1  0
 32 33  1  0
 32 34  1  0
 32 35  1  0
 31 36  1  0
 36 37  1  0
 36 38  2  0
 38 39  1  0
 21 40  1  0
 40 41  1  0
 40 42  1  0
  6 43  1  0
 43 44  1  0
 43 45  2  0
 45 46  1  0
 45  2  1  0
 16  7  1  0
 38 26  1  0
 40  8  1  0
M  END
>  <cnnaffinity>  (1) 
-5.45195

>  <filename>  (1) 
FC(F)(F)c1ccc(C[C@H]2C[C@H]3CC[C@@H](C2)N3c2cccnc2)cc1

$$$$
