
     RDKit          3D

 41 43  0  0  0  0  0  0  0  0999 V2000
    8.3321   -3.7989   21.0819 F   0  0  0  0  0  0  0  0  0  0  0  0
    7.1487   -4.3692   21.4438 C   0  0  0  0  0  0  0  0  0  0  0  0
    6.1757   -3.6850   20.8055 F   0  0  0  0  0  0  0  0  0  0  0  0
    7.1570   -5.6009   20.9048 F   0  0  0  0  0  0  0  0  0  0  0  0
    6.9853   -4.3163   22.9453 C   0  0  0  0  0  0  0  0  0  0  0  0
    6.9729   -5.4867   23.7565 C   0  0  0  0  0  0  0  0  0  0  0  0
    7.0044   -5.0735   25.5413 C   0  0  0  0  0  0  0  0  0  0  0  0
    6.7521   -4.9787   25.3217 C   0  0  0  0  0  0  0  0  0  0  0  0
    6.6841   -3.2310   25.1043 C   0  0  0  0  0  0  0  0  0  0  0  0
    6.8752   -3.0853   23.7012 C   0  0  0  0  0  0  0  0  0  0  0  0
    6.9112   -1.6989   23.0644 C   0  0  0  0  0  0  0  0  0  0  0  0
    8.2086   -1.3324   22.2464 N   0  0  0  0  0  4  0  0  0  0  0  0
    9.1147   -0.3131   22.9577 C   0  0  0  0  0  0  0  0  0  0  0  0
    8.4950    1.0865   23.0064 C   0  0  0  0  0  0  0  0  0  0  0  0
    7.9148    1.5053   21.6792 C   0  0  0  0  0  0  0  0  0  0  0  0
    7.5954    0.6428   20.7060 C   0  0  0  0  0  0  0  0  0  0  0  0
    6.9116    1.0988   19.4628 C   0  0  0  0  0  0  0  0  0  0  0  0
    5.8095    1.9727   19.5277 C   0  0  0  0  0  0  0  0  0  0  0  0
    5.2083    2.4000   18.3446 C   0  0  0  0  0  0  0  0  0  0  0  0
    5.7509    1.9833   17.1251 C   0  0  0  0  0  0  0  0  0  0  0  0
    6.7964    1.1470   17.0339 N   0  0  0  0  0  0  0  0  0  0  0  0
    7.3430    0.7151   18.1778 C   0  0  0  0  0  0  0  0  0  0  0  0
    8.1940    0.0405   18.0692 H   0  0  0  0  0  0  0  0  0  0  0  0
    5.3372    2.3453   16.1866 H   0  0  0  0  0  0  0  0  0  0  0  0
    4.3655    3.0822   18.3582 H   0  0  0  0  0  0  0  0  0  0  0  0
    5.4457    2.3126   20.4992 H   0  0  0  0  0  0  0  0  0  0  0  0
    7.9314   -0.8394   20.8042 C   0  0  0  0  0  0  0  0  0  0  0  0
    8.8233   -1.0472   20.1987 H   0  0  0  0  0  0  0  0  0  0  0  0
    7.1155   -1.4291   20.3778 H   0  0  0  0  0  0  0  0  0  0  0  0
    7.7458    2.5724   21.5169 H   0  0  0  0  0  0  0  0  0  0  0  0
    9.2709    1.7935   23.3147 H   0  0  0  0  0  0  0  0  0  0  0  0
    7.7122    1.1397   23.7746 H   0  0  0  0  0  0  0  0  0  0  0  0
   10.0510   -0.2554   22.3910 H   0  0  0  0  0  0  0  0  0  0  0  0
    9.3431   -0.6686   23.9708 H   0  0  0  0  0  0  0  0  0  0  0  0
    8.7541   -2.2024   22.1375 H   0  0  0  0  0  0  0  0  0  0  0  0
    6.0694   -1.5541   22.3775 H   0  0  0  0  0  0  0  0  0  0  0  0
    6.8110   -0.9150   23.8190 H   0  0  0  0  0  0  0  0  0  0  0  0
    5.6789   -2.7956   25.4021 H   0  0  0  0  0  0  0  0  0  0  0  0
    6.1195   -5.6031   26.2470 H   0  0  0  0  0  0  0  0  0  0  0  0
    8.0927   -5.1540   26.0295 H   0  0  0  0  0  0  0  0  0  0  0  0
    6.3684   -6.3604   23.4514 H   0  0  0  0  0  0  0  0  0  0  0  0
  1  2  1  0
  2  3  1  0
  2  4  1  0
  2  5  1  0
  5  6  2  0
  6  7  1  0
  7  8  2  0
  8  9  1  0
  9 10  2  0
 10 11  1  0
 11 12  1  0
 12 13  1  0
 13 14  1  0
 14 15  1  0
 15 16  2  0
 16 17  1  0
 17 18  2  0
 18 19  1  0
 19 20  2  0
 20 21  1  0
 21 22  2  0
 22 23  1  0
 20 24  1  0
 19 25  1  0
 18 26  1  0
 16 27  1  0
 27 28  1  0
 27 29  1  0
 15 30  1  0
 14 31  1  0
 14 32  1  0
 13 33  1  0
 13 34  1  0
 12 35  1  0
 11 36  1  0
 11 37  1  0
  9 38  1  0
  8 39  1  0
  7 40  1  0
  6 41  1  0
 10  5  1  0
 27 12  1  0
 22 17  1  0
M  CHG  1  12   1
M  END
>  <cnnaffinity>  (1) 
-5.64061

>  <filename>  (1) 
FC(F)(F)c1ccccc1C[NH+]1CCC=C(c2cccnc2)C1

$$$$
