
     RDKit          3D

 30 32  0  0  0  0  0  0  0  0999 V2000
    4.9710    1.8226   16.9713 H   0  0  0  0  0  0  0  0  0  0  0  0
    5.4108    1.3055   17.8207 C   0  0  0  0  0  0  0  0  0  0  0  0
    6.5859    0.6954   17.5968 N   0  0  0  0  0  0  0  0  0  0  0  0
    7.1820    0.0902   18.6319 C   0  0  0  0  0  0  0  0  0  0  0  0
    8.1445   -0.3771   18.4216 H   0  0  0  0  0  0  0  0  0  0  0  0
    6.6336    0.0423   19.9291 C   0  0  0  0  0  0  0  0  0  0  0  0
    7.3070   -0.6648   20.9845 N   0  0  0  0  0  0  0  0  0  0  0  0
    7.6047   -2.0075   21.0002 C   0  0  0  0  0  0  0  0  0  0  0  0
    7.3046   -2.6463   20.1891 H   0  0  0  0  0  0  0  0  0  0  0  0
    8.1431   -2.3987   22.1258 N   0  0  0  0  0  0  0  0  0  0  0  0
    8.1505   -1.2881   22.9198 C   0  0  0  0  0  0  0  0  0  0  0  0
    8.4640   -1.3086   23.9568 H   0  0  0  0  0  0  0  0  0  0  0  0
    7.6403   -0.2125   22.2633 C   0  0  0  0  0  0  0  0  0  0  0  0
    7.4145    1.1062   22.8400 C   0  0  0  0  0  0  0  0  0  0  0  0
    7.0972    1.1245   24.1428 N   0  0  0  0  0  0  0  0  0  0  0  0
    6.7889    2.2985   24.7102 C   0  0  0  0  0  0  0  0  0  0  0  0
    6.3268    2.3133   26.1880 C   0  0  0  0  0  0  0  0  0  0  0  0
    5.1342    2.9381   26.3141 F   0  0  0  0  0  0  0  0  0  0  0  0
    7.1906    3.0213   26.9472 F   0  0  0  0  0  0  0  0  0  0  0  0
    6.2005    1.1040   26.7377 F   0  0  0  0  0  0  0  0  0  0  0  0
    6.8852    3.5220   24.0242 C   0  0  0  0  0  0  0  0  0  0  0  0
    6.6542    4.4565   24.5272 H   0  0  0  0  0  0  0  0  0  0  0  0
    7.2859    3.5052   22.6850 C   0  0  0  0  0  0  0  0  0  0  0  0
    7.3937    4.4267   22.1184 H   0  0  0  0  0  0  0  0  0  0  0  0
    7.5438    2.2782   22.0813 C   0  0  0  0  0  0  0  0  0  0  0  0
    7.8156    2.1684   21.0414 H   0  0  0  0  0  0  0  0  0  0  0  0
    5.3884    0.6577   20.1404 C   0  0  0  0  0  0  0  0  0  0  0  0
    4.9357    0.6445   21.1350 H   0  0  0  0  0  0  0  0  0  0  0  0
    4.7732    1.3072   19.0661 C   0  0  0  0  0  0  0  0  0  0  0  0
    3.8273    1.8291   19.1878 H   0  0  0  0  0  0  0  0  0  0  0  0
  1  2  1  0
  2  3  2  0
  3  4  1  0
  4  5  1  0
  4  6  2  0
  6  7  1  0
  7  8  1  0
  8  9  1  0
  8 10  2  0
 10 11  1  0
 11 12  1  0
 11 13  2  0
 13 14  1  0
 14 15  2  0
 15 16  1  0
 16 17  1  0
 17 18  1  0
 17 19  1  0
 17 20  1  0
 16 21  2  0
 21 22  1  0
 21 23  1  0
 23 24  1  0
 23 25  2  0
 25 26  1  0
  6 27  1  0
 27 28  1  0
 27 29  2  0
 29 30  1  0
 29  2  1  0
 13  7  1  0
 25 14  1  0
M  END
>  <cnnaffinity>  (1) 
-5.31895

>  <filename>  (1) 
FC(F)(F)c1cccc(-c2cncn2-c2cccnc2)n1

$$$$
