
     RDKit          3D

 43 47  0  0  0  0  0  0  0  0999 V2000
    6.5647   -4.3700   24.0229 F   0  0  0  0  0  0  0  0  0  0  0  0
    5.6397   -5.0791   23.3496 C   0  0  0  0  0  0  0  0  0  0  0  0
    5.7586   -6.3561   23.7505 F   0  0  0  0  0  0  0  0  0  0  0  0
    4.4342   -4.6434   23.7716 F   0  0  0  0  0  0  0  0  0  0  0  0
    5.7822   -4.9258   21.8327 C   0  0  0  0  0  0  0  0  0  0  0  0
    5.9189   -6.0597   21.0104 C   0  0  0  0  0  0  0  0  0  0  0  0
    6.0088   -5.8852   19.6317 C   0  0  0  0  0  0  0  0  0  0  0  0
    5.9552   -4.6863   19.0544 N   0  0  0  0  0  0  0  0  0  0  0  0
    5.8433   -3.6092   19.8199 C   0  0  0  0  0  0  0  0  0  0  0  0
    5.7640   -3.6593   21.2179 C   0  0  0  0  0  0  0  0  0  0  0  0
    5.7213   -2.3357   21.9538 C   0  0  0  0  0  0  0  0  0  0  0  0
    6.9973   -1.5644   21.8896 C   0  0  0  0  0  0  0  0  0  0  0  0
    7.9973   -1.8628   22.6723 N   0  0  0  0  0  0  0  0  0  0  0  0
    9.0331   -1.1611   22.1435 C   0  0  0  0  0  0  0  0  0  0  0  0
   10.3256   -1.3384   22.8305 C   0  0  0  0  0  0  0  0  0  0  0  0
   10.3149   -1.0702   24.2967 C   0  0  0  0  0  0  0  0  0  0  0  0
   11.2776   -0.2664   23.4073 C   0  0  0  0  0  0  0  0  0  0  0  0
   12.3852    0.2774   22.5488 C   0  0  0  0  0  0  0  0  0  0  0  0
   12.3466    0.6261   24.0126 C   0  0  0  0  0  0  0  0  0  0  0  0
   12.0427    1.6240   24.3231 H   0  0  0  0  0  0  0  0  0  0  0  0
   13.0473    0.1148   24.6742 H   0  0  0  0  0  0  0  0  0  0  0  0
   12.0932    1.0213   21.8067 H   0  0  0  0  0  0  0  0  0  0  0  0
   13.1267   -0.4491   22.2165 H   0  0  0  0  0  0  0  0  0  0  0  0
   10.6552   -1.8461   24.9712 H   0  0  0  0  0  0  0  0  0  0  0  0
    9.5116   -0.4513   24.6955 H   0  0  0  0  0  0  0  0  0  0  0  0
   10.8237   -2.2552   22.5128 H   0  0  0  0  0  0  0  0  0  0  0  0
    8.7458   -0.4493   21.0738 N   0  0  0  0  0  0  0  0  0  0  0  0
    7.4002   -0.6623   20.9369 N   0  0  0  0  0  0  0  0  0  0  0  0
    6.6699    0.0023   19.9064 C   0  0  0  0  0  0  0  0  0  0  0  0
    5.4433    0.6400   20.1429 C   0  0  0  0  0  0  0  0  0  0  0  0
    4.8268    1.3028   19.0734 C   0  0  0  0  0  0  0  0  0  0  0  0
    5.4406    1.2863   17.8169 C   0  0  0  0  0  0  0  0  0  0  0  0
    6.6117    0.6680   17.5839 N   0  0  0  0  0  0  0  0  0  0  0  0
    7.2148    0.0605   18.6101 C   0  0  0  0  0  0  0  0  0  0  0  0
    8.1722   -0.4129   18.4049 H   0  0  0  0  0  0  0  0  0  0  0  0
    4.9770    1.7827   16.9667 H   0  0  0  0  0  0  0  0  0  0  0  0
    3.8918    1.8370   19.2092 H   0  0  0  0  0  0  0  0  0  0  0  0
    5.0008    0.6443   21.1409 H   0  0  0  0  0  0  0  0  0  0  0  0
    4.9469   -1.7224   21.4967 H   0  0  0  0  0  0  0  0  0  0  0  0
    5.5030   -2.4938   23.0134 H   0  0  0  0  0  0  0  0  0  0  0  0
    5.8019   -2.6439   19.3125 H   0  0  0  0  0  0  0  0  0  0  0  0
    6.1415   -6.7310   18.9625 H   0  0  0  0  0  0  0  0  0  0  0  0
    5.9476   -7.0579   21.4358 H   0  0  0  0  0  0  0  0  0  0  0  0
  1  2  1  0
  2  3  1  0
  2  4  1  0
  2  5  1  0
  5  6  2  0
  6  7  1  0
  7  8  2  0
  8  9  1  0
  9 10  2  0
 10 11  1  0
 11 12  1  0
 12 13  2  0
 13 14  1  0
 14 15  1  0
 15 16  1  0
 16 17  1  0
 17 18  1  0
 18 19  1  0
 19 20  1  0
 19 21  1  0
 18 22  1  0
 18 23  1  0
 16 24  1  0
 16 25  1  0
 15 26  1  0
 14 27  2  0
 27 28  1  0
 28 29  1  0
 29 30  2  0
 30 31  1  0
 31 32  2  0
 32 33  1  0
 33 34  2  0
 34 35  1  0
 32 36  1  0
 31 37  1  0
 30 38  1  0
 11 39  1  0
 11 40  1  0
  9 41  1  0
  7 42  1  0
  6 43  1  0
 10  5  1  0
 28 12  1  0
 34 29  1  0
 17 15  1  0
 19 17  1  0
M  END
>  <cnnaffinity>  (1) 
-6.44133

>  <filename>  (1) 
FC(F)(F)c1ccncc1Cc1nc(C2CC23CC3)nn1-c1cccnc1

$$$$
