
     RDKit          3D

 43 46  0  0  0  0  0  0  0  0999 V2000
    5.0845   -0.3059   27.6671 F   0  0  0  0  0  0  0  0  0  0  0  0
    5.0411   -0.8249   26.4208 C   0  0  0  0  0  0  0  0  0  0  0  0
    5.9873   -1.7666   26.3395 F   0  0  0  0  0  0  0  0  0  0  0  0
    3.8434   -1.4452   26.3256 F   0  0  0  0  0  0  0  0  0  0  0  0
    5.1515    0.2994   25.3670 C   0  0  0  0  0  0  0  0  0  0  0  0
    4.1452    1.2793   25.3267 C   0  0  0  0  0  0  0  0  0  0  0  0
    4.2358    2.2918   24.3683 C   0  0  0  0  0  0  0  0  0  0  0  0
    5.3224    2.2782   23.4905 C   0  0  0  0  0  0  0  0  0  0  0  0
    6.2832    1.2680   23.6155 C   0  0  0  0  0  0  0  0  0  0  0  0
    7.4939    1.2191   22.7301 C   0  0  0  0  0  0  0  0  0  0  0  0
    7.6898   -0.1451   22.1846 C   0  0  0  0  0  0  0  0  0  0  0  0
    8.2815   -1.0961   22.8734 N   0  0  0  0  0  0  0  0  0  0  0  0
    8.3373   -2.1284   22.0016 C   0  0  0  0  0  0  0  0  0  0  0  0
    8.7932   -3.5339   22.3288 C   0  0  0  0  0  0  0  0  0  0  0  0
    7.7996   -4.3923   23.1694 C   0  0  0  0  0  0  0  0  0  0  0  0
    8.7350   -5.2798   24.0056 C   0  0  0  0  0  0  0  0  0  0  0  0
    9.9474   -4.3679   24.1927 C   0  0  0  0  0  0  0  0  0  0  0  0
   10.0404   -3.5921   23.0063 O   0  0  0  0  0  0  0  0  0  0  0  0
    9.8156   -3.6837   25.0433 H   0  0  0  0  0  0  0  0  0  0  0  0
   10.8946   -4.9074   24.3116 H   0  0  0  0  0  0  0  0  0  0  0  0
    9.0047   -6.1953   23.4647 H   0  0  0  0  0  0  0  0  0  0  0  0
    8.3128   -5.5911   24.9671 H   0  0  0  0  0  0  0  0  0  0  0  0
    7.1034   -4.9593   22.5396 H   0  0  0  0  0  0  0  0  0  0  0  0
    7.2016   -3.7370   23.8163 H   0  0  0  0  0  0  0  0  0  0  0  0
    8.8996   -3.9620   21.3316 H   0  0  0  0  0  0  0  0  0  0  0  0
    7.8230   -1.8678   20.8088 N   0  0  0  0  0  0  0  0  0  0  0  0
    7.3719   -0.5930   20.9326 N   0  0  0  0  0  0  0  0  0  0  0  0
    6.6330    0.0302   19.8865 C   0  0  0  0  0  0  0  0  0  0  0  0
    5.4100    0.6716   20.1230 C   0  0  0  0  0  0  0  0  0  0  0  0
    4.7892    1.3180   19.0478 C   0  0  0  0  0  0  0  0  0  0  0  0
    5.4075    1.2955   17.7951 C   0  0  0  0  0  0  0  0  0  0  0  0
    6.5535    0.6327   17.5544 N   0  0  0  0  0  0  0  0  0  0  0  0
    7.1407    0.0034   18.5769 C   0  0  0  0  0  0  0  0  0  0  0  0
    8.0669   -0.5288   18.3652 H   0  0  0  0  0  0  0  0  0  0  0  0
    4.9735    1.8312   16.9526 H   0  0  0  0  0  0  0  0  0  0  0  0
    3.8560    1.8546   19.1792 H   0  0  0  0  0  0  0  0  0  0  0  0
    4.9665    0.6610   21.1188 H   0  0  0  0  0  0  0  0  0  0  0  0
    7.4259    1.9783   21.9498 H   0  0  0  0  0  0  0  0  0  0  0  0
    8.3646    1.4309   23.3524 H   0  0  0  0  0  0  0  0  0  0  0  0
    6.1990    0.3103   24.5360 N   0  0  0  0  0  0  0  0  0  0  0  0
    5.4558    3.0263   22.7181 H   0  0  0  0  0  0  0  0  0  0  0  0
    3.4855    3.0792   24.3103 H   0  0  0  0  0  0  0  0  0  0  0  0
    3.3232    1.2383   26.0316 H   0  0  0  0  0  0  0  0  0  0  0  0
  1  2  1  0
  2  3  1  0
  2  4  1  0
  2  5  1  0
  5  6  2  0
  6  7  1  0
  7  8  2  0
  8  9  1  0
  9 10  1  0
 10 11  1  0
 11 12  2  0
 12 13  1  0
 13 14  1  0
 14 15  1  0
 15 16  1  0
 16 17  1  0
 17 18  1  0
 17 19  1  0
 17 20  1  0
 16 21  1  0
 16 22  1  0
 15 23  1  0
 15 24  1  0
 14 25  1  0
 13 26  2  0
 26 27  1  0
 27 28  1  0
 28 29  2  0
 29 30  1  0
 30 31  2  0
 31 32  1  0
 32 33  2  0
 33 34  1  0
 31 35  1  0
 30 36  1  0
 29 37  1  0
 10 38  1  0
 10 39  1  0
  9 40  2  0
  8 41  1  0
  7 42  1  0
  6 43  1  0
 40  5  1  0
 27 11  1  0
 33 28  1  0
 18 14  1  0
M  END
>  <cnnaffinity>  (1) 
-6.17234

>  <filename>  (1) 
FC(F)(F)c1cccc(Cc2nc(C3CCCO3)nn2-c2cccnc2)n1

$$$$
