
     RDKit          3D

 32 33  0  0  0  0  0  0  0  0999 V2000
    4.9718    1.8187   16.8706 H   0  0  0  0  0  0  0  0  0  0  0  0
    5.4012    1.2853   17.7191 C   0  0  0  0  0  0  0  0  0  0  0  0
    6.5160    0.5797   17.4720 N   0  0  0  0  0  0  0  0  0  0  0  0
    7.0571   -0.0859   18.5011 C   0  0  0  0  0  0  0  0  0  0  0  0
    7.9661   -0.6502   18.2798 H   0  0  0  0  0  0  0  0  0  0  0  0
    6.5427   -0.0876   19.8114 C   0  0  0  0  0  0  0  0  0  0  0  0
    7.2483   -0.7806   20.9570 C   0  0  0  0  0  0  0  0  0  0  0  0
    6.5279   -1.2673   21.6249 H   0  0  0  0  0  0  0  0  0  0  0  0
    7.9131   -1.5624   20.5751 H   0  0  0  0  0  0  0  0  0  0  0  0
    8.0897    0.1594   21.8348 C   0  0  0  0  0  0  0  0  0  0  0  0
    7.2369    0.9583   22.5644 F   0  0  0  0  0  0  0  0  0  0  0  0
    8.7554   -0.6169   22.7427 F   0  0  0  0  0  0  0  0  0  0  0  0
    9.0501    1.0572   21.0083 C   0  0  0  0  0  0  0  0  0  0  0  0
    8.3959    1.7557   20.4774 H   0  0  0  0  0  0  0  0  0  0  0  0
    9.4985    0.4200   20.2281 H   0  0  0  0  0  0  0  0  0  0  0  0
   10.0939    1.8236   21.6548 N   0  0  0  0  0  0  0  0  0  0  0  0
    9.8173    2.6752   22.1299 H   0  0  0  0  0  0  0  0  0  0  0  0
   11.2516    1.2808   22.1923 C   0  0  0  0  0  0  0  0  0  0  0  0
   11.6731   -0.0406   21.9601 C   0  0  0  0  0  0  0  0  0  0  0  0
   11.0470   -0.6956   21.3643 H   0  0  0  0  0  0  0  0  0  0  0  0
   12.8928   -0.4920   22.4736 C   0  0  0  0  0  0  0  0  0  0  0  0
   13.2087   -1.5184   22.2835 H   0  0  0  0  0  0  0  0  0  0  0  0
   13.7160    0.3697   23.2068 C   0  0  0  0  0  0  0  0  0  0  0  0
   14.6947    0.0522   23.5485 H   0  0  0  0  0  0  0  0  0  0  0  0
   13.2657    1.6638   23.4922 C   0  0  0  0  0  0  0  0  0  0  0  0
   13.8682    2.3334   24.0918 H   0  0  0  0  0  0  0  0  0  0  0  0
   12.0473    2.1140   22.9974 C   0  0  0  0  0  0  0  0  0  0  0  0
   11.7142    3.1292   23.1978 H   0  0  0  0  0  0  0  0  0  0  0  0
    5.3877    0.6682   20.0496 C   0  0  0  0  0  0  0  0  0  0  0  0
    4.9758    0.7267   21.0603 H   0  0  0  0  0  0  0  0  0  0  0  0
    4.8029    1.3539   18.9815 C   0  0  0  0  0  0  0  0  0  0  0  0
    3.9079    1.9496   19.1181 H   0  0  0  0  0  0  0  0  0  0  0  0
  1  2  1  0
  2  3  2  0
  3  4  1  0
  4  5  1  0
  4  6  2  0
  6  7  1  0
  7  8  1  0
  7  9  1  0
  7 10  1  0
 10 11  1  0
 10 12  1  0
 10 13  1  0
 13 14  1  0
 13 15  1  0
 13 16  1  0
 16 17  1  0
 16 18  1  0
 18 19  2  0
 19 20  1  0
 19 21  1  0
 21 22  1  0
 21 23  2  0
 23 24  1  0
 23 25  1  0
 25 26  1  0
 25 27  2  0
 27 28  1  0
  6 29  1  0
 29 30  1  0
 29 31  2  0
 31 32  1  0
 31  2  1  0
 27 18  1  0
M  END
>  <cnnaffinity>  (1) 
-4.88368

>  <filename>  (1) 
FC(F)(CNc1ccccc1)Cc1cccnc1

$$$$
