
     RDKit          3D

 43 46  0  0  0  0  0  0  0  0999 V2000
   14.6624    1.0006   22.8748 F   0  0  0  0  0  0  0  0  0  0  0  0
   13.6286    0.2920   23.4109 C   0  0  0  0  0  0  0  0  0  0  0  0
   13.6979    0.4776   24.7604 F   0  0  0  0  0  0  0  0  0  0  0  0
   12.3043    0.7653   22.8641 C   0  0  0  0  0  0  0  0  0  0  0  0
   11.7501    0.0792   21.8720 N   0  0  0  0  0  0  0  0  0  0  0  0
   10.6217    0.7252   21.5638 N   0  0  0  0  0  0  0  0  0  0  0  0
    9.6600    0.1416   20.6476 C   0  0  0  0  0  0  0  0  0  0  0  0
    8.6025   -0.6214   21.3640 C   0  0  0  0  0  0  0  0  0  0  0  0
    8.7984   -1.4230   22.3867 N   0  0  0  0  0  0  0  0  0  0  0  0
    7.5842   -1.9857   22.5801 C   0  0  0  0  0  0  0  0  0  0  0  0
    7.3316   -2.9791   23.6769 C   0  0  0  0  0  0  0  0  0  0  0  0
    6.6784   -4.3024   23.2178 C   0  0  0  0  0  0  0  0  0  0  0  0
    5.9910   -4.8819   24.4688 C   0  0  0  0  0  0  0  0  0  0  0  0
    5.7738   -3.7016   25.4466 C   0  0  0  0  0  0  0  0  0  0  0  0
    6.3805   -2.4555   24.7774 C   0  0  0  0  0  0  0  0  0  0  0  0
    5.5893   -1.8575   24.3169 H   0  0  0  0  0  0  0  0  0  0  0  0
    6.9062   -1.8042   25.4849 H   0  0  0  0  0  0  0  0  0  0  0  0
    6.2556   -3.9101   26.4084 H   0  0  0  0  0  0  0  0  0  0  0  0
    4.7113   -3.5415   25.6599 H   0  0  0  0  0  0  0  0  0  0  0  0
    6.6118   -5.6519   24.9420 H   0  0  0  0  0  0  0  0  0  0  0  0
    5.0460   -5.3678   24.2029 H   0  0  0  0  0  0  0  0  0  0  0  0
    5.9346   -4.0886   22.4401 H   0  0  0  0  0  0  0  0  0  0  0  0
    7.4162   -4.9919   22.7899 H   0  0  0  0  0  0  0  0  0  0  0  0
    8.3169   -3.1837   24.1146 H   0  0  0  0  0  0  0  0  0  0  0  0
    6.6484   -1.5781   21.7362 N   0  0  0  0  0  0  0  0  0  0  0  0
    7.3130   -0.7106   20.9344 N   0  0  0  0  0  0  0  0  0  0  0  0
    6.6384   -0.0342   19.8855 C   0  0  0  0  0  0  0  0  0  0  0  0
    5.4279    0.6151   20.1448 C   0  0  0  0  0  0  0  0  0  0  0  0
    4.8168    1.3038   19.0953 C   0  0  0  0  0  0  0  0  0  0  0  0
    5.4177    1.3000   17.8307 C   0  0  0  0  0  0  0  0  0  0  0  0
    6.5569    0.6423   17.5651 N   0  0  0  0  0  0  0  0  0  0  0  0
    7.1482   -0.0054   18.5749 C   0  0  0  0  0  0  0  0  0  0  0  0
    8.0781   -0.5203   18.3360 H   0  0  0  0  0  0  0  0  0  0  0  0
    4.9683    1.8431   17.0022 H   0  0  0  0  0  0  0  0  0  0  0  0
    3.8891    1.8427   19.2503 H   0  0  0  0  0  0  0  0  0  0  0  0
    4.9970    0.5714   21.1451 H   0  0  0  0  0  0  0  0  0  0  0  0
   10.2018   -0.5600   20.0147 H   0  0  0  0  0  0  0  0  0  0  0  0
    9.2280    0.9344   20.0346 H   0  0  0  0  0  0  0  0  0  0  0  0
   10.4257    1.8064   22.3597 C   0  0  0  0  0  0  0  0  0  0  0  0
   11.4926    1.8661   23.2312 C   0  0  0  0  0  0  0  0  0  0  0  0
   11.6829    2.5882   24.0121 H   0  0  0  0  0  0  0  0  0  0  0  0
    9.5480    2.4354   22.2493 H   0  0  0  0  0  0  0  0  0  0  0  0
   13.7603   -0.7708   23.1849 H   0  0  0  0  0  0  0  0  0  0  0  0
  1  2  1  0
  2  3  1  0
  2  4  1  0
  4  5  2  0
  5  6  1  0
  6  7  1  0
  7  8  1  0
  8  9  2  0
  9 10  1  0
 10 11  1  0
 11 12  1  0
 12 13  1  0
 13 14  1  0
 14 15  1  0
 15 16  1  0
 15 17  1  0
 14 18  1  0
 14 19  1  0
 13 20  1  0
 13 21  1  0
 12 22  1  0
 12 23  1  0
 11 24  1  0
 10 25  2  0
 25 26  1  0
 26 27  1  0
 27 28  2  0
 28 29  1  0
 29 30  2  0
 30 31  1  0
 31 32  2  0
 32 33  1  0
 30 34  1  0
 29 35  1  0
 28 36  1  0
  7 37  1  0
  7 38  1  0
  6 39  1  0
 39 40  2  0
 40 41  1  0
 39 42  1  0
  2 43  1  0
 40  4  1  0
 26  8  1  0
 32 27  1  0
 15 11  1  0
M  END
>  <cnnaffinity>  (1) 
-6.44093

>  <filename>  (1) 
FC(F)c1ccn(Cc2nc(C3CCCC3)nn2-c2cccnc2)n1

$$$$
