
     RDKit          3D

 42 45  0  0  0  0  0  0  0  0999 V2000
    6.1684    0.8520   27.4480 F   0  0  0  0  0  0  0  0  0  0  0  0
    5.1335    0.6599   26.6022 C   0  0  0  0  0  0  0  0  0  0  0  0
    4.0249    1.0494   27.2362 F   0  0  0  0  0  0  0  0  0  0  0  0
    5.0476   -0.6770   26.4300 F   0  0  0  0  0  0  0  0  0  0  0  0
    5.3776    1.3780   25.2610 C   0  0  0  0  0  0  0  0  0  0  0  0
    6.4997    1.0102   24.5014 C   0  0  0  0  0  0  0  0  0  0  0  0
    6.7327    1.6608   23.2875 C   0  0  0  0  0  0  0  0  0  0  0  0
    7.9186    1.2801   22.4318 C   0  0  0  0  0  0  0  0  0  0  0  0
    7.9328   -0.1633   22.0590 C   0  0  0  0  0  0  0  0  0  0  0  0
    8.4929   -1.1253   22.7603 N   0  0  0  0  0  0  0  0  0  0  0  0
    8.2440   -2.2312   22.0124 C   0  0  0  0  0  0  0  0  0  0  0  0
    8.6255   -3.5886   22.4734 C   0  0  0  0  0  0  0  0  0  0  0  0
    7.5641   -4.2345   23.3391 C   0  0  0  0  0  0  0  0  0  0  0  0
    7.4897   -5.7243   23.3953 C   0  0  0  0  0  0  0  0  0  0  0  0
    6.4377   -4.9480   22.6598 C   0  0  0  0  0  0  0  0  0  0  0  0
    5.4416   -4.8934   23.0860 H   0  0  0  0  0  0  0  0  0  0  0  0
    6.4527   -4.9798   21.5744 H   0  0  0  0  0  0  0  0  0  0  0  0
    7.2176   -6.1770   24.3402 H   0  0  0  0  0  0  0  0  0  0  0  0
    8.2120   -6.2918   22.8174 H   0  0  0  0  0  0  0  0  0  0  0  0
    7.3213   -3.6967   24.2513 H   0  0  0  0  0  0  0  0  0  0  0  0
    8.7546   -4.2007   21.5849 H   0  0  0  0  0  0  0  0  0  0  0  0
    9.5787   -3.5270   23.0015 H   0  0  0  0  0  0  0  0  0  0  0  0
    7.5992   -2.0073   20.8887 N   0  0  0  0  0  0  0  0  0  0  0  0
    7.3657   -0.6718   20.9312 N   0  0  0  0  0  0  0  0  0  0  0  0
    6.6513    0.0018   19.8998 C   0  0  0  0  0  0  0  0  0  0  0  0
    5.4414    0.6548   20.1640 C   0  0  0  0  0  0  0  0  0  0  0  0
    4.8067    1.3141   19.1078 C   0  0  0  0  0  0  0  0  0  0  0  0
    5.4023    1.2937   17.8415 C   0  0  0  0  0  0  0  0  0  0  0  0
    6.5673    0.6719   17.5868 N   0  0  0  0  0  0  0  0  0  0  0  0
    7.1717    0.0388   18.5953 C   0  0  0  0  0  0  0  0  0  0  0  0
    8.1218   -0.4410   18.3771 H   0  0  0  0  0  0  0  0  0  0  0  0
    4.9192    1.7813   16.9971 H   0  0  0  0  0  0  0  0  0  0  0  0
    3.8724    1.8441   19.2599 H   0  0  0  0  0  0  0  0  0  0  0  0
    5.0117    0.6275   21.1665 H   0  0  0  0  0  0  0  0  0  0  0  0
    8.8409    1.4730   22.9860 H   0  0  0  0  0  0  0  0  0  0  0  0
    7.9398    1.8951   21.5287 H   0  0  0  0  0  0  0  0  0  0  0  0
    5.8411    2.6543   22.8901 C   0  0  0  0  0  0  0  0  0  0  0  0
    4.7547    2.9542   23.7098 C   0  0  0  0  0  0  0  0  0  0  0  0
    4.5179    2.3349   24.8666 N   0  0  0  0  0  0  0  0  0  0  0  0
    4.0431    3.7234   23.4360 H   0  0  0  0  0  0  0  0  0  0  0  0
    5.9724    3.1710   21.9468 H   0  0  0  0  0  0  0  0  0  0  0  0
    7.1780    0.2270   24.8274 H   0  0  0  0  0  0  0  0  0  0  0  0
  1  2  1  0
  2  3  1  0
  2  4  1  0
  2  5  1  0
  5  6  2  0
  6  7  1  0
  7  8  1  0
  8  9  1  0
  9 10  2  0
 10 11  1  0
 11 12  1  0
 12 13  1  0
 13 14  1  0
 14 15  1  0
 15 16  1  0
 15 17  1  0
 14 18  1  0
 14 19  1  0
 13 20  1  0
 12 21  1  0
 12 22  1  0
 11 23  2  0
 23 24  1  0
 24 25  1  0
 25 26  2  0
 26 27  1  0
 27 28  2  0
 28 29  1  0
 29 30  2  0
 30 31  1  0
 28 32  1  0
 27 33  1  0
 26 34  1  0
  8 35  1  0
  8 36  1  0
  7 37  2  0
 37 38  1  0
 38 39  2  0
 38 40  1  0
 37 41  1  0
  6 42  1  0
 39  5  1  0
 24  9  1  0
 30 25  1  0
 15 13  1  0
M  END
>  <cnnaffinity>  (1) 
-6.24556

>  <filename>  (1) 
FC(F)(F)c1cc(Cc2nc(CC3CC3)nn2-c2cccnc2)ccn1

$$$$
