
     RDKit          3D

 30 32  0  0  0  0  0  0  0  0999 V2000
    5.1099    1.8569   16.2666 H   0  0  0  0  0  0  0  0  0  0  0  0
    5.5069    1.4532   17.1939 C   0  0  0  0  0  0  0  0  0  0  0  0
    6.6912    0.8338   17.1068 N   0  0  0  0  0  0  0  0  0  0  0  0
    7.2108    0.3313   18.2363 C   0  0  0  0  0  0  0  0  0  0  0  0
    8.1700   -0.1755   18.1375 H   0  0  0  0  0  0  0  0  0  0  0  0
    6.5804    0.4009   19.4887 C   0  0  0  0  0  0  0  0  0  0  0  0
    7.1744   -0.2376   20.6838 C   0  0  0  0  0  0  0  0  0  0  0  0
    6.1667   -1.1846   21.7184 S   0  0  0  0  0  0  0  0  0  0  0  0
    7.4384   -1.4917   22.8079 C   0  0  0  0  0  0  0  0  0  0  0  0
    7.2841   -2.0638   23.7131 H   0  0  0  0  0  0  0  0  0  0  0  0
    8.6384   -0.9429   22.3928 C   0  0  0  0  0  0  0  0  0  0  0  0
    9.9111   -1.2110   22.9674 C   0  0  0  0  0  0  0  0  0  0  0  0
   11.0436   -0.6112   22.2513 N   0  0  0  0  0  0  0  0  0  0  0  0
   11.7437   -1.7589   21.7413 C   0  0  0  0  0  0  0  0  0  0  0  0
   11.0011   -1.9486   20.9363 H   0  0  0  0  0  0  0  0  0  0  0  0
   12.0194   -1.7841   22.0034 C   0  0  0  0  0  0  0  0  0  0  0  0
   13.4431   -1.6778   21.4747 C   0  0  0  0  0  0  0  0  0  0  0  0
   13.9824   -0.5534   21.9461 F   0  0  0  0  0  0  0  0  0  0  0  0
   13.6310   -1.6750   20.1379 F   0  0  0  0  0  0  0  0  0  0  0  0
   14.1481   -2.7069   21.9342 F   0  0  0  0  0  0  0  0  0  0  0  0
   11.4172   -3.0395   22.9373 C   0  0  0  0  0  0  0  0  0  0  0  0
   12.2287   -3.5922   23.3887 H   0  0  0  0  0  0  0  0  0  0  0  0
   10.2805   -2.5229   23.6085 C   0  0  0  0  0  0  0  0  0  0  0  0
    9.6994   -2.9895   24.3835 H   0  0  0  0  0  0  0  0  0  0  0  0
    8.4497   -0.2071   21.1552 C   0  0  0  0  0  0  0  0  0  0  0  0
    9.2796    0.3125   20.6756 H   0  0  0  0  0  0  0  0  0  0  0  0
    5.3382    1.0601   19.5541 C   0  0  0  0  0  0  0  0  0  0  0  0
    4.8310    1.1645   20.5121 H   0  0  0  0  0  0  0  0  0  0  0  0
    4.7920    1.5906   18.3885 C   0  0  0  0  0  0  0  0  0  0  0  0
    3.8435    2.1172   18.3883 H   0  0  0  0  0  0  0  0  0  0  0  0
  1  2  1  0
  2  3  2  0
  3  4  1  0
  4  5  1  0
  4  6  2  0
  6  7  1  0
  7  8  1  0
  8  9  1  0
  9 10  1  0
  9 11  2  0
 11 12  1  0
 12 13  2  0
 13 14  1  0
 14 15  1  0
 14 16  2  0
 16 17  1  0
 17 18  1  0
 17 19  1  0
 17 20  1  0
 16 21  1  0
 21 22  1  0
 21 23  2  0
 23 24  1  0
 11 25  1  0
 25 26  1  0
  6 27  1  0
 27 28  1  0
 27 29  2  0
 29 30  1  0
 29  2  1  0
 25  7  2  0
 23 12  1  0
M  END
>  <cnnaffinity>  (1) 
-5.81981

>  <filename>  (1) 
FC(F)(F)c1ccc(-c2csc(-c3cccnc3)c2)nc1

$$$$
