
     RDKit          3D

 36 38  0  0  0  0  0  0  0  0999 V2000
   10.6987   -4.8365   28.1251 F   0  0  0  0  0  0  0  0  0  0  0  0
    9.7057   -5.3446   27.3870 C   0  0  0  0  0  0  0  0  0  0  0  0
    8.8753   -5.9749   28.2367 F   0  0  0  0  0  0  0  0  0  0  0  0
   10.2783   -6.2320   26.5372 F   0  0  0  0  0  0  0  0  0  0  0  0
    9.0005   -4.3358   26.5785 C   0  0  0  0  0  0  0  0  0  0  0  0
    7.6085   -4.2048   26.5814 C   0  0  0  0  0  0  0  0  0  0  0  0
    7.0506   -3.4970   25.5429 C   0  0  0  0  0  0  0  0  0  0  0  0
    7.9093   -2.9188   24.5739 C   0  0  0  0  0  0  0  0  0  0  0  0
    7.3785   -2.3252   23.4737 N   0  0  0  0  0  0  0  0  0  0  0  0
    6.1264   -2.7807   22.8718 C   0  0  0  0  0  0  0  0  0  0  0  0
    6.1153   -2.0874   21.5024 C   0  0  0  0  0  0  0  0  0  0  0  0
    6.9862   -0.8458   21.7317 C   0  0  0  0  0  0  0  0  0  0  0  0
    7.5719   -0.2407   20.5796 O   0  0  0  0  0  0  0  0  0  0  0  0
    6.7688    0.3079   19.6246 C   0  0  0  0  0  0  0  0  0  0  0  0
    5.5230    0.9074   19.8551 C   0  0  0  0  0  0  0  0  0  0  0  0
    4.8129    1.4084   18.7567 C   0  0  0  0  0  0  0  0  0  0  0  0
    5.3707    1.3143   17.4787 C   0  0  0  0  0  0  0  0  0  0  0  0
    6.5815    0.7724   17.2512 N   0  0  0  0  0  0  0  0  0  0  0  0
    7.2641    0.3064   18.3003 C   0  0  0  0  0  0  0  0  0  0  0  0
    8.2569   -0.1020   18.1159 H   0  0  0  0  0  0  0  0  0  0  0  0
    4.8414    1.6755   16.6026 H   0  0  0  0  0  0  0  0  0  0  0  0
    3.8414    1.8755   18.8855 H   0  0  0  0  0  0  0  0  0  0  0  0
    5.1193    0.9913   20.8641 H   0  0  0  0  0  0  0  0  0  0  0  0
    8.0868   -1.3519   22.6501 C   0  0  0  0  0  0  0  0  0  0  0  0
    8.8897   -1.8356   22.0751 H   0  0  0  0  0  0  0  0  0  0  0  0
    8.5299   -0.5239   23.2198 H   0  0  0  0  0  0  0  0  0  0  0  0
    6.3870   -0.1029   22.2792 H   0  0  0  0  0  0  0  0  0  0  0  0
    5.1284   -1.7766   21.1685 H   0  0  0  0  0  0  0  0  0  0  0  0
    6.5475   -2.7669   20.7588 H   0  0  0  0  0  0  0  0  0  0  0  0
    5.2829   -2.5229   23.5223 H   0  0  0  0  0  0  0  0  0  0  0  0
    6.0973   -3.8746   22.7721 H   0  0  0  0  0  0  0  0  0  0  0  0
    9.2459   -2.9257   24.6686 N   0  0  0  0  0  0  0  0  0  0  0  0
    9.7674   -3.6665   25.6323 C   0  0  0  0  0  0  0  0  0  0  0  0
   10.8514   -3.7636   25.6380 H   0  0  0  0  0  0  0  0  0  0  0  0
    5.9806   -3.4024   25.4188 H   0  0  0  0  0  0  0  0  0  0  0  0
    6.9920   -4.6764   27.3549 H   0  0  0  0  0  0  0  0  0  0  0  0
  1  2  1  0
  2  3  1  0
  2  4  1  0
  2  5  1  0
  5  6  2  0
  6  7  1  0
  7  8  2  0
  8  9  1  0
  9 10  1  0
 10 11  1  0
 11 12  1  0
 12 13  1  0
 13 14  1  0
 14 15  2  0
 15 16  1  0
 16 17  2  0
 17 18  1  0
 18 19  2  0
 19 20  1  0
 17 21  1  0
 16 22  1  0
 15 23  1  0
 12 24  1  0
 24 25  1  0
 24 26  1  0
 12 27  1  0
 11 28  1  0
 11 29  1  0
 10 30  1  0
 10 31  1  0
  8 32  1  0
 32 33  2  0
 33 34  1  0
  7 35  1  0
  6 36  1  0
 33  5  1  0
 24  9  1  0
 19 14  1  0
M  END
>  <cnnaffinity>  (1) 
-4.73658

>  <filename>  (1) 
FC(F)(F)c1ccc(N2CCC(Oc3cccnc3)C2)nc1

$$$$
