
     RDKit          3D

 30 31  0  0  0  0  0  0  0  0999 V2000
    5.0061    1.7214   16.9986 H   0  0  0  0  0  0  0  0  0  0  0  0
    5.4698    1.2529   17.8648 C   0  0  0  0  0  0  0  0  0  0  0  0
    6.6126    0.5909   17.6313 N   0  0  0  0  0  0  0  0  0  0  0  0
    7.1869   -0.0143   18.6800 C   0  0  0  0  0  0  0  0  0  0  0  0
    8.0926   -0.5877   18.4635 H   0  0  0  0  0  0  0  0  0  0  0  0
    6.6797    0.0006   19.9910 C   0  0  0  0  0  0  0  0  0  0  0  0
    7.3368   -0.7899   21.1008 C   0  0  0  0  0  0  0  0  0  0  0  0
    6.5604   -1.3557   21.6333 H   0  0  0  0  0  0  0  0  0  0  0  0
    7.9860   -1.5473   20.6494 H   0  0  0  0  0  0  0  0  0  0  0  0
    8.1865   -0.0048   22.1311 C   0  0  0  0  0  0  0  0  0  0  0  0
    9.0539    0.4359   21.6367 H   0  0  0  0  0  0  0  0  0  0  0  0
    8.5929   -0.7478   22.8286 H   0  0  0  0  0  0  0  0  0  0  0  0
    7.4293    1.0237   22.9639 C   0  0  0  0  0  0  0  0  0  0  0  0
    6.5830    0.5566   23.9855 C   0  0  0  0  0  0  0  0  0  0  0  0
    6.5977   -0.5067   24.1965 H   0  0  0  0  0  0  0  0  0  0  0  0
    5.7923    1.4145   24.7550 C   0  0  0  0  0  0  0  0  0  0  0  0
    5.1662    1.0069   25.5491 H   0  0  0  0  0  0  0  0  0  0  0  0
    5.8307    2.7864   24.4992 C   0  0  0  0  0  0  0  0  0  0  0  0
    5.2021    3.4674   25.0627 H   0  0  0  0  0  0  0  0  0  0  0  0
    6.7005    3.2850   23.5308 C   0  0  0  0  0  0  0  0  0  0  0  0
    6.7625    4.3567   23.3606 H   0  0  0  0  0  0  0  0  0  0  0  0
    7.5311    2.4219   22.7964 C   0  0  0  0  0  0  0  0  0  0  0  0
    8.6009    3.0330   21.9214 C   0  0  0  0  0  0  0  0  0  0  0  0
    9.8288    2.8537   22.4538 F   0  0  0  0  0  0  0  0  0  0  0  0
    8.6488    2.4823   20.6922 F   0  0  0  0  0  0  0  0  0  0  0  0
    8.4384    4.3637   21.7722 F   0  0  0  0  0  0  0  0  0  0  0  0
    5.4857    0.7033   20.2026 C   0  0  0  0  0  0  0  0  0  0  0  0
    5.0509    0.7302   21.2057 H   0  0  0  0  0  0  0  0  0  0  0  0
    4.8646    1.3373   19.1234 C   0  0  0  0  0  0  0  0  0  0  0  0
    3.9329    1.8815   19.2400 H   0  0  0  0  0  0  0  0  0  0  0  0
  1  2  1  0
  2  3  2  0
  3  4  1  0
  4  5  1  0
  4  6  2  0
  6  7  1  0
  7  8  1  0
  7  9  1  0
  7 10  1  0
 10 11  1  0
 10 12  1  0
 10 13  1  0
 13 14  2  0
 14 15  1  0
 14 16  1  0
 16 17  1  0
 16 18  2  0
 18 19  1  0
 18 20  1  0
 20 21  1  0
 20 22  2  0
 22 23  1  0
 23 24  1  0
 23 25  1  0
 23 26  1  0
  6 27  1  0
 27 28  1  0
 27 29  2  0
 29 30  1  0
 29  2  1  0
 22 13  1  0
M  END
>  <cnnaffinity>  (1) 
-4.17404

>  <filename>  (1) 
FC(F)(F)c1ccccc1CCc1cccnc1

$$$$
