
     RDKit          3D

 34 36  0  0  0  0  0  0  0  0999 V2000
    4.9608    1.8621   16.8998 H   0  0  0  0  0  0  0  0  0  0  0  0
    5.4275    1.3281   17.7246 C   0  0  0  0  0  0  0  0  0  0  0  0
    6.5899    0.7148   17.4449 N   0  0  0  0  0  0  0  0  0  0  0  0
    7.1968    0.0505   18.4362 C   0  0  0  0  0  0  0  0  0  0  0  0
    8.1347   -0.4375   18.1690 H   0  0  0  0  0  0  0  0  0  0  0  0
    6.6965   -0.0254   19.7503 C   0  0  0  0  0  0  0  0  0  0  0  0
    7.4145   -0.6890   20.8515 C   0  0  0  0  0  0  0  0  0  0  0  0
    7.7367   -0.2233   22.1131 C   0  0  0  0  0  0  0  0  0  0  0  0
    7.4957    1.1314   22.7561 C   0  0  0  0  0  0  0  0  0  0  0  0
    8.4629    1.6377   22.8989 H   0  0  0  0  0  0  0  0  0  0  0  0
    6.9272    1.7721   22.0729 H   0  0  0  0  0  0  0  0  0  0  0  0
    6.7816    1.0449   24.0988 C   0  0  0  0  0  0  0  0  0  0  0  0
    5.3808    1.0141   24.1717 C   0  0  0  0  0  0  0  0  0  0  0  0
    4.8056    1.1347   23.2558 H   0  0  0  0  0  0  0  0  0  0  0  0
    4.7216    0.8447   25.3938 C   0  0  0  0  0  0  0  0  0  0  0  0
    3.6355    0.8335   25.4327 H   0  0  0  0  0  0  0  0  0  0  0  0
    5.4578    0.7143   26.5752 C   0  0  0  0  0  0  0  0  0  0  0  0
    4.9479    0.5547   27.5256 H   0  0  0  0  0  0  0  0  0  0  0  0
    6.8575    0.7894   26.5301 C   0  0  0  0  0  0  0  0  0  0  0  0
    7.6692    0.8167   27.8074 C   0  0  0  0  0  0  0  0  0  0  0  0
    8.1464    2.0584   28.0333 F   0  0  0  0  0  0  0  0  0  0  0  0
    6.9570    0.4749   28.8988 F   0  0  0  0  0  0  0  0  0  0  0  0
    8.7263   -0.0178   27.7434 F   0  0  0  0  0  0  0  0  0  0  0  0
    7.5098    0.9493   25.2929 C   0  0  0  0  0  0  0  0  0  0  0  0
    8.5945    1.0333   25.2506 H   0  0  0  0  0  0  0  0  0  0  0  0
    8.3678   -1.3240   22.7292 C   0  0  0  0  0  0  0  0  0  0  0  0
    8.7537   -1.3492   23.7399 H   0  0  0  0  0  0  0  0  0  0  0  0
    8.4317   -2.3893   21.9411 N   0  0  0  0  0  0  0  0  0  0  0  0
    7.8563   -1.9708   20.8003 N   0  0  0  0  0  0  0  0  0  0  0  0
    7.6586   -2.6270   20.0567 H   0  0  0  0  0  0  0  0  0  0  0  0
    5.4688    0.5994   20.0073 C   0  0  0  0  0  0  0  0  0  0  0  0
    5.0420    0.5315   21.0070 H   0  0  0  0  0  0  0  0  0  0  0  0
    4.8178    1.2851   18.9822 C   0  0  0  0  0  0  0  0  0  0  0  0
    3.8701    1.7838   19.1507 H   0  0  0  0  0  0  0  0  0  0  0  0
  1  2  1  0
  2  3  2  0
  3  4  1  0
  4  5  1  0
  4  6  2  0
  6  7  1  0
  7  8  2  0
  8  9  1  0
  9 10  1  0
  9 11  1  0
  9 12  1  0
 12 13  2  0
 13 14  1  0
 13 15  1  0
 15 16  1  0
 15 17  2  0
 17 18  1  0
 17 19  1  0
 19 20  1  0
 20 21  1  0
 20 22  1  0
 20 23  1  0
 19 24  2  0
 24 25  1  0
  8 26  1  0
 26 27  1  0
 26 28  2  0
 28 29  1  0
 29 30  1  0
  6 31  1  0
 31 32  1  0
 31 33  2  0
 33 34  1  0
 33  2  1  0
 29  7  1  0
 24 12  1  0
M  END
>  <cnnaffinity>  (1) 
-4.61315

>  <filename>  (1) 
FC(F)(F)c1cccc(Cc2cn[nH]c2-c2cccnc2)c1

$$$$
