
     RDKit          3D

 40 42  0  0  0  0  0  0  0  0999 V2000
    5.0661    1.7919   16.8010 H   0  0  0  0  0  0  0  0  0  0  0  0
    5.4701    1.3192   17.6931 C   0  0  0  0  0  0  0  0  0  0  0  0
    6.6563    0.7057   17.5600 N   0  0  0  0  0  0  0  0  0  0  0  0
    7.2049    0.1674   18.6600 C   0  0  0  0  0  0  0  0  0  0  0  0
    8.1498   -0.3536   18.5062 H   0  0  0  0  0  0  0  0  0  0  0  0
    6.6217    0.2111   19.9596 C   0  0  0  0  0  0  0  0  0  0  0  0
    7.2316   -0.2585   21.1501 N   0  0  0  0  0  0  0  0  0  0  0  0
    6.5999   -1.4014   21.8279 C   0  0  0  0  0  0  0  0  0  0  0  0
    5.5314   -1.3982   21.5960 H   0  0  0  0  0  0  0  0  0  0  0  0
    6.6980   -1.2818   22.9149 H   0  0  0  0  0  0  0  0  0  0  0  0
    7.1961   -2.7706   21.4241 C   0  0  0  0  0  0  0  0  0  0  0  0
    7.4750   -2.6797   20.3711 H   0  0  0  0  0  0  0  0  0  0  0  0
    6.4426   -3.5664   21.4736 H   0  0  0  0  0  0  0  0  0  0  0  0
    8.3919   -3.1587   22.1788 N   0  0  0  0  0  0  0  0  0  0  0  0
    8.2830   -3.7055   23.4435 C   0  0  0  0  0  0  0  0  0  0  0  0
    9.4491   -4.0139   24.0290 N   0  0  0  0  0  0  0  0  0  0  0  0
    9.4199   -4.6175   25.1949 C   0  0  0  0  0  0  0  0  0  0  0  0
   10.3773   -4.7915   25.6767 H   0  0  0  0  0  0  0  0  0  0  0  0
    8.2437   -5.0267   25.8136 C   0  0  0  0  0  0  0  0  0  0  0  0
    8.4526   -5.9549   26.9426 C   0  0  0  0  0  0  0  0  0  0  0  0
    9.3134   -5.4343   27.8406 F   0  0  0  0  0  0  0  0  0  0  0  0
    9.0078   -7.0895   26.4690 F   0  0  0  0  0  0  0  0  0  0  0  0
    7.3319   -6.2786   27.6008 F   0  0  0  0  0  0  0  0  0  0  0  0
    7.0132   -4.6303   25.2853 C   0  0  0  0  0  0  0  0  0  0  0  0
    6.0704   -4.8598   25.7880 H   0  0  0  0  0  0  0  0  0  0  0  0
    7.0398   -3.9338   24.0894 C   0  0  0  0  0  0  0  0  0  0  0  0
    6.1405   -3.5347   23.6540 H   0  0  0  0  0  0  0  0  0  0  0  0
    9.5732   -2.3245   21.9024 C   0  0  0  0  0  0  0  0  0  0  0  0
    9.7927   -2.3863   20.8244 H   0  0  0  0  0  0  0  0  0  0  0  0
   10.4270   -2.7707   22.4188 H   0  0  0  0  0  0  0  0  0  0  0  0
    9.3976   -0.8626   22.3472 C   0  0  0  0  0  0  0  0  0  0  0  0
    8.8846   -0.8265   23.3147 H   0  0  0  0  0  0  0  0  0  0  0  0
   10.3887   -0.4258   22.5234 H   0  0  0  0  0  0  0  0  0  0  0  0
    8.6560    0.0344   21.3528 C   0  0  0  0  0  0  0  0  0  0  0  0
    9.1801   -0.0218   20.3857 H   0  0  0  0  0  0  0  0  0  0  0  0
    8.7675    1.0852   21.6716 H   0  0  0  0  0  0  0  0  0  0  0  0
    5.3331    0.7720   20.0379 C   0  0  0  0  0  0  0  0  0  0  0  0
    4.8273    0.7579   21.0035 H   0  0  0  0  0  0  0  0  0  0  0  0
    4.7656    1.3572   18.9034 C   0  0  0  0  0  0  0  0  0  0  0  0
    3.8022    1.8528   18.9496 H   0  0  0  0  0  0  0  0  0  0  0  0
  1  2  1  0
  2  3  2  0
  3  4  1  0
  4  5  1  0
  4  6  2  0
  6  7  1  0
  7  8  1  0
  8  9  1  0
  8 10  1  0
  8 11  1  0
 11 12  1  0
 11 13  1  0
 11 14  1  0
 14 15  1  0
 15 16  2  0
 16 17  1  0
 17 18  1  0
 17 19  2  0
 19 20  1  0
 20 21  1  0
 20 22  1  0
 20 23  1  0
 19 24  1  0
 24 25  1  0
 24 26  2  0
 26 27  1  0
 14 28  1  0
 28 29  1  0
 28 30  1  0
 28 31  1  0
 31 32  1  0
 31 33  1  0
 31 34  1  0
 34 35  1  0
 34 36  1  0
  6 37  1  0
 37 38  1  0
 37 39  2  0
 39 40  1  0
 39  2  1  0
 34  7  1  0
 26 15  1  0
M  END
>  <cnnaffinity>  (1) 
-5.0648

>  <filename>  (1) 
FC(F)(F)c1ccc(N2CCCN(c3cccnc3)CC2)nc1

$$$$
