
     RDKit          3D

 36 38  0  0  0  0  0  0  0  0999 V2000
    3.6295   -8.2589   24.0223 F   0  0  0  0  0  0  0  0  0  0  0  0
    3.1720   -7.1010   23.5218 C   0  0  0  0  0  0  0  0  0  0  0  0
    2.3116   -7.3829   22.5224 F   0  0  0  0  0  0  0  0  0  0  0  0
    2.2116   -6.3213   24.8159 Cl  0  0  0  0  0  0  0  0  0  0  0  0
    4.2641   -6.2024   23.0585 C   0  0  0  0  0  0  0  0  0  0  0  0
    5.6297   -6.5119   23.0798 C   0  0  0  0  0  0  0  0  0  0  0  0
    6.5409   -5.5046   22.8116 C   0  0  0  0  0  0  0  0  0  0  0  0
    6.0494   -4.2101   22.5249 C   0  0  0  0  0  0  0  0  0  0  0  0
    6.8751   -3.1283   22.3760 N   0  0  0  0  0  0  0  0  0  0  0  0
    8.2659   -3.0254   22.8337 C   0  0  0  0  0  0  0  0  0  0  0  0
    8.5610   -1.4959   22.8355 C   0  0  0  0  0  0  0  0  0  0  0  0
    7.4067   -0.8060   22.1046 C   0  0  0  0  0  0  0  0  0  0  0  0
    7.7391   -0.6309   20.7235 O   0  0  0  0  0  0  0  0  0  0  0  0
    6.8672   -0.0197   19.8662 C   0  0  0  0  0  0  0  0  0  0  0  0
    5.6292    0.5611   20.1830 C   0  0  0  0  0  0  0  0  0  0  0  0
    4.9310    1.2190   19.1569 C   0  0  0  0  0  0  0  0  0  0  0  0
    5.4634    1.2458   17.8664 C   0  0  0  0  0  0  0  0  0  0  0  0
    6.6184    0.6360   17.5363 N   0  0  0  0  0  0  0  0  0  0  0  0
    7.2907    0.0245   18.5161 C   0  0  0  0  0  0  0  0  0  0  0  0
    8.2238   -0.4719   18.2582 H   0  0  0  0  0  0  0  0  0  0  0  0
    4.9492    1.7719   17.0662 H   0  0  0  0  0  0  0  0  0  0  0  0
    3.9815    1.7084   19.3550 H   0  0  0  0  0  0  0  0  0  0  0  0
    5.2068    0.4994   21.1850 H   0  0  0  0  0  0  0  0  0  0  0  0
    6.2886   -1.7916   22.3625 C   0  0  0  0  0  0  0  0  0  0  0  0
    5.4647   -1.7241   21.6529 H   0  0  0  0  0  0  0  0  0  0  0  0
    5.9521   -1.5559   23.3808 H   0  0  0  0  0  0  0  0  0  0  0  0
    7.1644    0.1738   22.5433 H   0  0  0  0  0  0  0  0  0  0  0  0
    9.5095   -1.2651   22.3566 H   0  0  0  0  0  0  0  0  0  0  0  0
    8.5916   -1.1172   23.8635 H   0  0  0  0  0  0  0  0  0  0  0  0
    8.9515   -3.5587   22.1633 H   0  0  0  0  0  0  0  0  0  0  0  0
    8.4012   -3.4448   23.8441 H   0  0  0  0  0  0  0  0  0  0  0  0
    4.7326   -3.9718   22.3607 N   0  0  0  0  0  0  0  0  0  0  0  0
    3.8773   -4.9388   22.6372 C   0  0  0  0  0  0  0  0  0  0  0  0
    2.8224   -4.6888   22.5566 H   0  0  0  0  0  0  0  0  0  0  0  0
    7.6084   -5.6852   22.8162 H   0  0  0  0  0  0  0  0  0  0  0  0
    5.9460   -7.5282   23.2893 H   0  0  0  0  0  0  0  0  0  0  0  0
  1  2  1  0
  2  3  1  0
  2  4  1  0
  2  5  1  0
  5  6  2  0
  6  7  1  0
  7  8  2  0
  8  9  1  0
  9 10  1  0
 10 11  1  0
 11 12  1  0
 12 13  1  0
 13 14  1  0
 14 15  2  0
 15 16  1  0
 16 17  2  0
 17 18  1  0
 18 19  2  0
 19 20  1  0
 17 21  1  0
 16 22  1  0
 15 23  1  0
 12 24  1  0
 24 25  1  0
 24 26  1  0
 12 27  1  0
 11 28  1  0
 11 29  1  0
 10 30  1  0
 10 31  1  0
  8 32  1  0
 32 33  2  0
 33 34  1  0
  7 35  1  0
  6 36  1  0
 33  5  1  0
 24  9  1  0
 19 14  1  0
M  END
>  <cnnaffinity>  (1) 
-5.21319

>  <filename>  (1) 
FC(F)(Cl)c1ccc(N2CCC(Oc3cccnc3)C2)nc1

$$$$
