
     RDKit          3D

 37 40  0  0  0  0  0  0  0  0999 V2000
   14.3824    1.9383   22.9005 F   0  0  0  0  0  0  0  0  0  0  0  0
   13.6898    0.8153   23.1110 C   0  0  0  0  0  0  0  0  0  0  0  0
   14.3878   -0.1870   22.5321 F   0  0  0  0  0  0  0  0  0  0  0  0
   13.6814    0.5878   24.4355 F   0  0  0  0  0  0  0  0  0  0  0  0
   12.2984    0.9225   22.5369 C   0  0  0  0  0  0  0  0  0  0  0  0
   11.5156    1.9553   22.8517 N   0  0  0  0  0  0  0  0  0  0  0  0
   10.4081    1.7531   22.1385 N   0  0  0  0  0  0  0  0  0  0  0  0
   10.4583    0.6462   21.3575 C   0  0  0  0  0  0  0  0  0  0  0  0
    9.3259    0.1538   20.5225 C   0  0  0  0  0  0  0  0  0  0  0  0
    8.3441   -0.7243   21.2511 C   0  0  0  0  0  0  0  0  0  0  0  0
    8.5694   -1.5125   22.2733 N   0  0  0  0  0  0  0  0  0  0  0  0
    7.3623   -2.1057   22.5003 C   0  0  0  0  0  0  0  0  0  0  0  0
    7.1074   -3.0716   23.5898 C   0  0  0  0  0  0  0  0  0  0  0  0
    5.9634   -3.6854   24.0286 C   0  0  0  0  0  0  0  0  0  0  0  0
    6.3418   -4.5292   25.1202 C   0  0  0  0  0  0  0  0  0  0  0  0
    7.6831   -4.3665   25.2710 C   0  0  0  0  0  0  0  0  0  0  0  0
    8.1601   -3.4894   24.3601 O   0  0  0  0  0  0  0  0  0  0  0  0
    8.4201   -4.7971   25.9373 H   0  0  0  0  0  0  0  0  0  0  0  0
    5.7028   -5.1772   25.7111 H   0  0  0  0  0  0  0  0  0  0  0  0
    4.9689   -3.5387   23.6196 H   0  0  0  0  0  0  0  0  0  0  0  0
    6.4088   -1.7207   21.6544 N   0  0  0  0  0  0  0  0  0  0  0  0
    7.0456   -0.8519   20.8422 N   0  0  0  0  0  0  0  0  0  0  0  0
    6.3757   -0.1757   19.7857 C   0  0  0  0  0  0  0  0  0  0  0  0
    5.2142    0.5583   20.0431 C   0  0  0  0  0  0  0  0  0  0  0  0
    4.6978    1.3451   19.0088 C   0  0  0  0  0  0  0  0  0  0  0  0
    5.3307    1.3396   17.7583 C   0  0  0  0  0  0  0  0  0  0  0  0
    6.4031    0.5802   17.4873 N   0  0  0  0  0  0  0  0  0  0  0  0
    6.8992   -0.1663   18.4795 C   0  0  0  0  0  0  0  0  0  0  0  0
    7.7721   -0.7682   18.2332 H   0  0  0  0  0  0  0  0  0  0  0  0
    4.9617    1.9569   16.9411 H   0  0  0  0  0  0  0  0  0  0  0  0
    3.8263    1.9747   19.1559 H   0  0  0  0  0  0  0  0  0  0  0  0
    4.7482    0.5088   21.0290 H   0  0  0  0  0  0  0  0  0  0  0  0
    9.7380   -0.4433   19.7010 H   0  0  0  0  0  0  0  0  0  0  0  0
    8.8075    1.0016   20.0659 H   0  0  0  0  0  0  0  0  0  0  0  0
   11.6808    0.0740   21.5942 C   0  0  0  0  0  0  0  0  0  0  0  0
   12.0828   -0.8388   21.1652 H   0  0  0  0  0  0  0  0  0  0  0  0
    9.7066    2.4818   22.1137 H   0  0  0  0  0  0  0  0  0  0  0  0
  1  2  1  0
  2  3  1  0
  2  4  1  0
  2  5  1  0
  5  6  2  0
  6  7  1  0
  7  8  1  0
  8  9  1  0
  9 10  1  0
 10 11  2  0
 11 12  1  0
 12 13  1  0
 13 14  2  0
 14 15  1  0
 15 16  2  0
 16 17  1  0
 16 18  1  0
 15 19  1  0
 14 20  1  0
 12 21  2  0
 21 22  1  0
 22 23  1  0
 23 24  2  0
 24 25  1  0
 25 26  2  0
 26 27  1  0
 27 28  2  0
 28 29  1  0
 26 30  1  0
 25 31  1  0
 24 32  1  0
  9 33  1  0
  9 34  1  0
  8 35  2  0
 35 36  1  0
  7 37  1  0
 35  5  1  0
 22 10  1  0
 28 23  1  0
 17 13  1  0
M  END
>  <cnnaffinity>  (1) 
-6.25385

>  <filename>  (1) 
FC(F)(F)c1cc(Cc2nc(-c3ccco3)nn2-c2cccnc2)[nH]n1

$$$$
