
     RDKit          3D

 30 32  0  0  0  0  0  0  0  0999 V2000
    4.9135    1.9326   16.7295 H   0  0  0  0  0  0  0  0  0  0  0  0
    5.3442    1.4341   17.5936 C   0  0  0  0  0  0  0  0  0  0  0  0
    6.5210    0.8242   17.3790 N   0  0  0  0  0  0  0  0  0  0  0  0
    7.0886    0.2081   18.4220 C   0  0  0  0  0  0  0  0  0  0  0  0
    8.0500   -0.2592   18.2104 H   0  0  0  0  0  0  0  0  0  0  0  0
    6.5318    0.1495   19.7167 C   0  0  0  0  0  0  0  0  0  0  0  0
    7.1951   -0.5674   20.8299 C   0  0  0  0  0  0  0  0  0  0  0  0
    7.0999   -0.4303   22.1929 C   0  0  0  0  0  0  0  0  0  0  0  0
    6.5694    0.3169   22.7631 H   0  0  0  0  0  0  0  0  0  0  0  0
    7.9043   -1.4434   22.7544 C   0  0  0  0  0  0  0  0  0  0  0  0
    8.0984   -1.6591   24.2296 C   0  0  0  0  0  0  0  0  0  0  0  0
    7.2834   -0.9062   24.9946 N   0  0  0  0  0  0  0  0  0  0  0  0
    7.3054   -1.0164   26.3163 C   0  0  0  0  0  0  0  0  0  0  0  0
    6.6309   -0.3546   26.8602 H   0  0  0  0  0  0  0  0  0  0  0  0
    8.1602   -1.8975   26.9759 C   0  0  0  0  0  0  0  0  0  0  0  0
    8.1654   -1.9707   28.0452 H   0  0  0  0  0  0  0  0  0  0  0  0
    9.0153   -2.6841   26.2252 C   0  0  0  0  0  0  0  0  0  0  0  0
    9.6625   -3.4119   26.7162 H   0  0  0  0  0  0  0  0  0  0  0  0
    9.0326   -2.5391   24.8351 C   0  0  0  0  0  0  0  0  0  0  0  0
   10.0199   -3.3565   24.0350 C   0  0  0  0  0  0  0  0  0  0  0  0
   10.7776   -2.5983   23.2312 F   0  0  0  0  0  0  0  0  0  0  0  0
    9.3827   -4.2679   23.2864 F   0  0  0  0  0  0  0  0  0  0  0  0
   10.8845   -4.0381   24.8174 F   0  0  0  0  0  0  0  0  0  0  0  0
    8.4700   -2.1847   21.7913 N   0  0  0  0  0  0  0  0  0  0  0  0
    8.0468   -1.6165   20.6611 N   0  0  0  0  0  0  0  0  0  0  0  0
    8.2834   -2.0585   19.7875 H   0  0  0  0  0  0  0  0  0  0  0  0
    5.2952    0.7962   19.9117 C   0  0  0  0  0  0  0  0  0  0  0  0
    4.8151    0.7743   20.8921 H   0  0  0  0  0  0  0  0  0  0  0  0
    4.6912    1.4429   18.8314 C   0  0  0  0  0  0  0  0  0  0  0  0
    3.7386    1.9542   18.9315 H   0  0  0  0  0  0  0  0  0  0  0  0
  1  2  1  0
  2  3  2  0
  3  4  1  0
  4  5  1  0
  4  6  2  0
  6  7  1  0
  7  8  2  0
  8  9  1  0
  8 10  1  0
 10 11  1  0
 11 12  2  0
 12 13  1  0
 13 14  1  0
 13 15  2  0
 15 16  1  0
 15 17  1  0
 17 18  1  0
 17 19  2  0
 19 20  1  0
 20 21  1  0
 20 22  1  0
 20 23  1  0
 10 24  2  0
 24 25  1  0
 25 26  1  0
  6 27  1  0
 27 28  1  0
 27 29  2  0
 29 30  1  0
 29  2  1  0
 25  7  1  0
 19 11  1  0
M  END
>  <cnnaffinity>  (1) 
-5.38151

>  <filename>  (1) 
FC(F)(F)c1cccnc1-c1cc(-c2cccnc2)[nH]n1

$$$$
