
     RDKit          3D

 41 45  0  0  0  0  0  0  0  0999 V2000
    7.4857    3.8424   25.1725 F   0  0  0  0  0  0  0  0  0  0  0  0
    8.7067    3.8094   24.5671 C   0  0  0  0  0  0  0  0  0  0  0  0
    9.0879    5.1038   24.3933 F   0  0  0  0  0  0  0  0  0  0  0  0
    8.6176    3.1376   23.3042 N   0  0  0  0  0  0  0  0  0  0  0  0
    7.7953    3.4040   22.2451 C   0  0  0  0  0  0  0  0  0  0  0  0
    8.0939    2.4667   21.2915 C   0  0  0  0  0  0  0  0  0  0  0  0
    9.1056    1.6606   21.8496 C   0  0  0  0  0  0  0  0  0  0  0  0
    9.6859    0.4157   21.2520 C   0  0  0  0  0  0  0  0  0  0  0  0
    8.8000   -0.7377   21.5842 C   0  0  0  0  0  0  0  0  0  0  0  0
    8.8299   -1.3641   22.7328 N   0  0  0  0  0  0  0  0  0  0  0  0
    7.7050   -2.1305   22.6959 C   0  0  0  0  0  0  0  0  0  0  0  0
    7.1469   -2.8826   23.8306 C   0  0  0  0  0  0  0  0  0  0  0  0
    8.0138   -3.5384   24.8979 C   0  0  0  0  0  0  0  0  0  0  0  0
    7.2027   -2.3116   25.2155 C   0  0  0  0  0  0  0  0  0  0  0  0
    6.1607   -1.7854   26.1264 C   0  0  0  0  0  0  0  0  0  0  0  0
    7.3868   -0.9428   25.7629 C   0  0  0  0  0  0  0  0  0  0  0  0
    7.3225   -0.1444   25.0211 H   0  0  0  0  0  0  0  0  0  0  0  0
    8.1394   -0.8051   26.5379 H   0  0  0  0  0  0  0  0  0  0  0  0
    6.1257   -2.1978   27.1331 H   0  0  0  0  0  0  0  0  0  0  0  0
    5.1881   -1.5429   25.6924 H   0  0  0  0  0  0  0  0  0  0  0  0
    7.6560   -4.4929   25.2830 H   0  0  0  0  0  0  0  0  0  0  0  0
    9.1001   -3.4386   24.8387 H   0  0  0  0  0  0  0  0  0  0  0  0
    6.2033   -3.3611   23.5730 H   0  0  0  0  0  0  0  0  0  0  0  0
    7.0199   -2.0472   21.5776 N   0  0  0  0  0  0  0  0  0  0  0  0
    7.7235   -1.1431   20.8358 N   0  0  0  0  0  0  0  0  0  0  0  0
    7.0313   -0.4429   19.7984 C   0  0  0  0  0  0  0  0  0  0  0  0
    5.8298    0.2106   20.1114 C   0  0  0  0  0  0  0  0  0  0  0  0
    5.2188    0.9866   19.1331 C   0  0  0  0  0  0  0  0  0  0  0  0
    5.7941    1.0389   17.8574 C   0  0  0  0  0  0  0  0  0  0  0  0
    6.9087    0.3698   17.5312 N   0  0  0  0  0  0  0  0  0  0  0  0
    7.5130   -0.3549   18.4840 C   0  0  0  0  0  0  0  0  0  0  0  0
    8.4131   -0.8881   18.1784 H   0  0  0  0  0  0  0  0  0  0  0  0
    5.3358    1.6363   17.0729 H   0  0  0  0  0  0  0  0  0  0  0  0
    4.3214    1.5554   19.3513 H   0  0  0  0  0  0  0  0  0  0  0  0
    5.4146    0.1100   21.1161 H   0  0  0  0  0  0  0  0  0  0  0  0
   10.6754    0.2241   21.6716 H   0  0  0  0  0  0  0  0  0  0  0  0
    9.7468    0.5212   20.1696 H   0  0  0  0  0  0  0  0  0  0  0  0
    9.4098    2.0683   23.0616 N   0  0  0  0  0  0  0  0  0  0  0  0
    7.6389    2.3082   20.3265 H   0  0  0  0  0  0  0  0  0  0  0  0
    7.0883    4.2247   22.2660 H   0  0  0  0  0  0  0  0  0  0  0  0
    9.4391    3.2638   25.1678 H   0  0  0  0  0  0  0  0  0  0  0  0
  1  2  1  0
  2  3  1  0
  2  4  1  0
  4  5  1  0
  5  6  2  0
  6  7  1  0
  7  8  1  0
  8  9  1  0
  9 10  2  0
 10 11  1  0
 11 12  1  0
 12 13  1  0
 13 14  1  0
 14 15  1  0
 15 16  1  0
 16 17  1  0
 16 18  1  0
 15 19  1  0
 15 20  1  0
 13 21  1  0
 13 22  1  0
 12 23  1  0
 11 24  2  0
 24 25  1  0
 25 26  1  0
 26 27  2  0
 27 28  1  0
 28 29  2  0
 29 30  1  0
 30 31  2  0
 31 32  1  0
 29 33  1  0
 28 34  1  0
 27 35  1  0
  8 36  1  0
  8 37  1  0
  7 38  2  0
  6 39  1  0
  5 40  1  0
  2 41  1  0
 38  4  1  0
 25  9  1  0
 31 26  1  0
 14 12  1  0
 16 14  1  0
M  END
>  <cnnaffinity>  (1) 
-6.13839

>  <filename>  (1) 
FC(F)n1ccc(Cc2nc(C3CC34CC4)nn2-c2cccnc2)n1

$$$$
