
     RDKit          3D

 27 28  0  0  0  0  0  0  0  0999 V2000
    6.9452   -0.6767   21.9765 H   0  0  0  0  0  0  0  0  0  0  0  0
    7.3989   -0.7323   20.9736 C   0  0  0  0  0  0  0  0  0  0  0  0
    8.4912   -1.3511   20.7654 N   0  0  0  0  0  0  0  0  0  0  0  0
    9.2081   -1.9442   21.8321 C   0  0  0  0  0  0  0  0  0  0  0  0
   10.5987   -2.0014   21.6654 C   0  0  0  0  0  0  0  0  0  0  0  0
   11.0197   -1.5119   20.7936 H   0  0  0  0  0  0  0  0  0  0  0  0
   11.3867   -2.6778   22.5967 C   0  0  0  0  0  0  0  0  0  0  0  0
   12.4621   -2.7316   22.4523 H   0  0  0  0  0  0  0  0  0  0  0  0
   10.7950   -3.3076   23.6984 C   0  0  0  0  0  0  0  0  0  0  0  0
   11.4017   -3.8807   24.3961 H   0  0  0  0  0  0  0  0  0  0  0  0
    9.4219   -3.1822   23.9331 C   0  0  0  0  0  0  0  0  0  0  0  0
    8.7961   -3.7686   25.1967 C   0  0  0  0  0  0  0  0  0  0  0  0
    8.2412   -4.9763   24.9805 F   0  0  0  0  0  0  0  0  0  0  0  0
    9.6987   -3.9288   26.1856 F   0  0  0  0  0  0  0  0  0  0  0  0
    7.8134   -2.9858   25.6845 F   0  0  0  0  0  0  0  0  0  0  0  0
    8.6330   -2.4880   22.9951 C   0  0  0  0  0  0  0  0  0  0  0  0
    7.5722   -2.3687   23.1617 H   0  0  0  0  0  0  0  0  0  0  0  0
    6.6786   -0.0197   19.9107 C   0  0  0  0  0  0  0  0  0  0  0  0
    7.1937    0.0327   18.6037 C   0  0  0  0  0  0  0  0  0  0  0  0
    8.1378   -0.4552   18.3780 H   0  0  0  0  0  0  0  0  0  0  0  0
    6.5860    0.6584   17.5942 N   0  0  0  0  0  0  0  0  0  0  0  0
    5.4254    1.2821   17.8502 C   0  0  0  0  0  0  0  0  0  0  0  0
    4.9498    1.7902   17.0109 H   0  0  0  0  0  0  0  0  0  0  0  0
    4.8238    1.2958   19.1137 C   0  0  0  0  0  0  0  0  0  0  0  0
    3.8854    1.8272   19.2546 H   0  0  0  0  0  0  0  0  0  0  0  0
    5.4648    0.6378   20.1616 C   0  0  0  0  0  0  0  0  0  0  0  0
    5.0229    0.6445   21.1602 H   0  0  0  0  0  0  0  0  0  0  0  0
  1  2  1  0
  2  3  2  3
  3  4  1  0
  4  5  2  0
  5  6  1  0
  5  7  1  0
  7  8  1  0
  7  9  2  0
  9 10  1  0
  9 11  1  0
 11 12  1  0
 12 13  1  0
 12 14  1  0
 12 15  1  0
 11 16  2  0
 16 17  1  0
  2 18  1  0
 18 19  2  0
 19 20  1  0
 19 21  1  0
 21 22  2  0
 22 23  1  0
 22 24  1  0
 24 25  1  0
 24 26  2  0
 26 27  1  0
 16  4  1  0
 26 18  1  0
M  END
>  <cnnaffinity>  (1) 
-4.93897

>  <filename>  (1) 
FC(F)(F)c1cccc(N=Cc2cccnc2)c1

$$$$
