
     RDKit          3D

 32 34  0  0  0  0  0  0  0  0999 V2000
    4.9340    1.7948   16.9948 H   0  0  0  0  0  0  0  0  0  0  0  0
    5.3979    1.2898   17.8383 C   0  0  0  0  0  0  0  0  0  0  0  0
    6.5518    0.6596   17.5745 N   0  0  0  0  0  0  0  0  0  0  0  0
    7.1701    0.0423   18.5853 C   0  0  0  0  0  0  0  0  0  0  0  0
    8.1243   -0.4293   18.3571 H   0  0  0  0  0  0  0  0  0  0  0  0
    6.6513   -0.0012   19.8948 C   0  0  0  0  0  0  0  0  0  0  0  0
    7.3343   -0.6830   20.9431 N   0  0  0  0  0  0  0  0  0  0  0  0
    6.7333   -1.5974   21.7951 C   0  0  0  0  0  0  0  0  0  0  0  0
    5.6883   -1.8390   21.7007 H   0  0  0  0  0  0  0  0  0  0  0  0
    7.6730   -2.0587   22.6585 C   0  0  0  0  0  0  0  0  0  0  0  0
    7.5520   -3.0019   23.7748 C   0  0  0  0  0  0  0  0  0  0  0  0
    6.2782   -3.2523   24.3093 C   0  0  0  0  0  0  0  0  0  0  0  0
    5.4320   -2.7039   23.9042 H   0  0  0  0  0  0  0  0  0  0  0  0
    6.0954   -4.1736   25.3424 C   0  0  0  0  0  0  0  0  0  0  0  0
    5.0952   -4.3611   25.7325 H   0  0  0  0  0  0  0  0  0  0  0  0
    7.2021   -4.8497   25.8708 C   0  0  0  0  0  0  0  0  0  0  0  0
    7.0620   -5.5645   26.6807 H   0  0  0  0  0  0  0  0  0  0  0  0
    8.4874   -4.5935   25.3594 C   0  0  0  0  0  0  0  0  0  0  0  0
    9.6859   -5.3477   25.8953 C   0  0  0  0  0  0  0  0  0  0  0  0
    9.5118   -5.6904   27.1827 F   0  0  0  0  0  0  0  0  0  0  0  0
   10.8228   -4.6314   25.8271 F   0  0  0  0  0  0  0  0  0  0  0  0
    9.9018   -6.4781   25.1960 F   0  0  0  0  0  0  0  0  0  0  0  0
    8.6593   -3.6830   24.3089 C   0  0  0  0  0  0  0  0  0  0  0  0
    9.6483   -3.5100   23.8936 H   0  0  0  0  0  0  0  0  0  0  0  0
    8.8456   -1.4146   22.2952 N   0  0  0  0  0  0  0  0  0  0  0  0
    9.7477   -1.4102   22.7449 H   0  0  0  0  0  0  0  0  0  0  0  0
    8.6558   -0.5192   21.2997 C   0  0  0  0  0  0  0  0  0  0  0  0
    9.8209    0.5330   20.7690 S   0  0  0  0  0  0  0  0  0  0  0  0
    5.4419    0.6437   20.1609 C   0  0  0  0  0  0  0  0  0  0  0  0
    5.0371    0.6312   21.1750 H   0  0  0  0  0  0  0  0  0  0  0  0
    4.8111    1.3083   19.1077 C   0  0  0  0  0  0  0  0  0  0  0  0
    3.8825    1.8398   19.2574 H   0  0  0  0  0  0  0  0  0  0  0  0
  1  2  1  0
  2  3  2  0
  3  4  1  0
  4  5  1  0
  4  6  2  0
  6  7  1  0
  7  8  1  0
  8  9  1  0
  8 10  2  0
 10 11  1  0
 11 12  2  0
 12 13  1  0
 12 14  1  0
 14 15  1  0
 14 16  2  0
 16 17  1  0
 16 18  1  0
 18 19  1  0
 19 20  1  0
 19 21  1  0
 19 22  1  0
 18 23  2  0
 23 24  1  0
 10 25  1  0
 25 26  1  0
 25 27  1  0
 27 28  2  0
  6 29  1  0
 29 30  1  0
 29 31  2  0
 31 32  1  0
 31  2  1  0
 27  7  1  0
 23 11  1  0
M  END
>  <cnnaffinity>  (1) 
-5.69073

>  <filename>  (1) 
FC(F)(F)c1cccc(-c2cn(-c3cccnc3)c(=S)[nH]2)c1

$$$$
