
     RDKit          3D

 44 47  0  0  0  0  0  0  0  0999 V2000
   12.8234    3.5657   23.6979 F   0  0  0  0  0  0  0  0  0  0  0  0
   11.7728    2.7171   23.9023 C   0  0  0  0  0  0  0  0  0  0  0  0
   11.9441    2.1546   25.1317 F   0  0  0  0  0  0  0  0  0  0  0  0
   11.6813    1.6006   22.8996 C   0  0  0  0  0  0  0  0  0  0  0  0
   10.6105    1.5608   22.1168 N   0  0  0  0  0  0  0  0  0  0  0  0
   10.7232    0.4457   21.3969 N   0  0  0  0  0  0  0  0  0  0  0  0
    9.6012    0.0482   20.5722 C   0  0  0  0  0  0  0  0  0  0  0  0
    8.5627   -0.7194   21.3157 C   0  0  0  0  0  0  0  0  0  0  0  0
    8.7581   -1.5383   22.3206 N   0  0  0  0  0  0  0  0  0  0  0  0
    7.5106   -2.0201   22.5822 C   0  0  0  0  0  0  0  0  0  0  0  0
    7.3033   -3.0010   23.6949 C   0  0  0  0  0  0  0  0  0  0  0  0
    8.0630   -4.3261   23.4010 C   0  0  0  0  0  0  0  0  0  0  0  0
    8.1030   -5.2444   24.5974 C   0  0  0  0  0  0  0  0  0  0  0  0
    7.8309   -4.8405   25.8420 C   0  0  0  0  0  0  0  0  0  0  0  0
    7.4936   -3.4098   26.1968 C   0  0  0  0  0  0  0  0  0  0  0  0
    7.7960   -2.4309   25.0500 C   0  0  0  0  0  0  0  0  0  0  0  0
    7.3406   -1.4544   25.2539 H   0  0  0  0  0  0  0  0  0  0  0  0
    8.8792   -2.2570   24.9725 H   0  0  0  0  0  0  0  0  0  0  0  0
    6.4265   -3.3525   26.4594 H   0  0  0  0  0  0  0  0  0  0  0  0
    8.0330   -3.1133   27.1066 H   0  0  0  0  0  0  0  0  0  0  0  0
    7.8284   -5.5654   26.6562 H   0  0  0  0  0  0  0  0  0  0  0  0
    8.3882   -6.2796   24.4134 H   0  0  0  0  0  0  0  0  0  0  0  0
    7.6176   -4.8468   22.5435 H   0  0  0  0  0  0  0  0  0  0  0  0
    9.0935   -4.0830   23.0991 H   0  0  0  0  0  0  0  0  0  0  0  0
    6.2263   -3.2062   23.7576 H   0  0  0  0  0  0  0  0  0  0  0  0
    6.5708   -1.5694   21.7784 N   0  0  0  0  0  0  0  0  0  0  0  0
    7.2503   -0.7486   20.9334 N   0  0  0  0  0  0  0  0  0  0  0  0
    6.5866   -0.0543   19.8882 C   0  0  0  0  0  0  0  0  0  0  0  0
    5.3855    0.6205   20.1346 C   0  0  0  0  0  0  0  0  0  0  0  0
    4.7958    1.3215   19.0808 C   0  0  0  0  0  0  0  0  0  0  0  0
    5.4117    1.3148   17.8228 C   0  0  0  0  0  0  0  0  0  0  0  0
    6.5521    0.6539   17.5739 N   0  0  0  0  0  0  0  0  0  0  0  0
    7.1196   -0.0088   18.5861 C   0  0  0  0  0  0  0  0  0  0  0  0
    8.0538   -0.5163   18.3563 H   0  0  0  0  0  0  0  0  0  0  0  0
    4.9727    1.8507   16.9846 H   0  0  0  0  0  0  0  0  0  0  0  0
    3.8746    1.8749   19.2233 H   0  0  0  0  0  0  0  0  0  0  0  0
    4.9487    0.5917   21.1336 H   0  0  0  0  0  0  0  0  0  0  0  0
    9.9795   -0.5686   19.7575 H   0  0  0  0  0  0  0  0  0  0  0  0
    9.1679    0.9670   20.1738 H   0  0  0  0  0  0  0  0  0  0  0  0
   11.8574   -0.2366   21.7047 C   0  0  0  0  0  0  0  0  0  0  0  0
   12.5155    0.4785   22.6816 C   0  0  0  0  0  0  0  0  0  0  0  0
   13.4057    0.2061   23.2349 H   0  0  0  0  0  0  0  0  0  0  0  0
   12.1088   -1.1625   21.2000 H   0  0  0  0  0  0  0  0  0  0  0  0
   10.8538    3.3081   23.8891 H   0  0  0  0  0  0  0  0  0  0  0  0
  1  2  1  0
  2  3  1  0
  2  4  1  0
  4  5  2  0
  5  6  1  0
  6  7  1  0
  7  8  1  0
  8  9  2  0
  9 10  1  0
 10 11  1  0
 11 12  1  0
 12 13  1  0
 13 14  2  0
 14 15  1  0
 15 16  1  0
 16 17  1  0
 16 18  1  0
 15 19  1  0
 15 20  1  0
 14 21  1  0
 13 22  1  0
 12 23  1  0
 12 24  1  0
 11 25  1  0
 10 26  2  0
 26 27  1  0
 27 28  1  0
 28 29  2  0
 29 30  1  0
 30 31  2  0
 31 32  1  0
 32 33  2  0
 33 34  1  0
 31 35  1  0
 30 36  1  0
 29 37  1  0
  7 38  1  0
  7 39  1  0
  6 40  1  0
 40 41  2  0
 41 42  1  0
 40 43  1  0
  2 44  1  0
 41  4  1  0
 27  8  1  0
 33 28  1  0
 16 11  1  0
M  END
>  <cnnaffinity>  (1) 
-6.57823

>  <filename>  (1) 
FC(F)c1ccn(Cc2nc(C3CC=CCC3)nn2-c2cccnc2)n1

$$$$
