
     RDKit          3D

 26 27  0  0  0  0  0  0  0  0999 V2000
    6.6471   -0.4202   21.8295 H   0  0  0  0  0  0  0  0  0  0  0  0
    7.1776   -0.4772   20.8654 C   0  0  0  0  0  0  0  0  0  0  0  0
    8.3214   -1.0441   20.7740 N   0  0  0  0  0  0  0  0  0  0  0  0
    8.8289   -1.7741   21.8834 C   0  0  0  0  0  0  0  0  0  0  0  0
    8.0509   -2.4018   22.8927 C   0  0  0  0  0  0  0  0  0  0  0  0
    6.9731   -2.3185   22.8881 H   0  0  0  0  0  0  0  0  0  0  0  0
    8.5497   -3.1772   23.8463 N   0  0  0  0  0  0  0  0  0  0  0  0
    9.8728   -3.4036   23.8769 C   0  0  0  0  0  0  0  0  0  0  0  0
   10.3205   -4.4135   24.9480 C   0  0  0  0  0  0  0  0  0  0  0  0
   10.1823   -3.9215   26.1909 F   0  0  0  0  0  0  0  0  0  0  0  0
    9.6061   -5.5489   24.8922 F   0  0  0  0  0  0  0  0  0  0  0  0
   11.6086   -4.7667   24.7967 F   0  0  0  0  0  0  0  0  0  0  0  0
   10.7481   -2.7893   22.9605 C   0  0  0  0  0  0  0  0  0  0  0  0
   11.8177   -2.9749   22.9854 H   0  0  0  0  0  0  0  0  0  0  0  0
   10.2190   -1.9651   21.9643 C   0  0  0  0  0  0  0  0  0  0  0  0
   10.8437   -1.4731   21.2205 H   0  0  0  0  0  0  0  0  0  0  0  0
    6.4880    0.1725   19.7572 C   0  0  0  0  0  0  0  0  0  0  0  0
    7.0264    0.1725   18.4606 C   0  0  0  0  0  0  0  0  0  0  0  0
    7.9593   -0.3462   18.2526 H   0  0  0  0  0  0  0  0  0  0  0  0
    6.4443    0.7852   17.4289 N   0  0  0  0  0  0  0  0  0  0  0  0
    5.2900    1.4316   17.6526 C   0  0  0  0  0  0  0  0  0  0  0  0
    4.8520    1.9388   16.7962 H   0  0  0  0  0  0  0  0  0  0  0  0
    4.6537    1.4703   18.8979 C   0  0  0  0  0  0  0  0  0  0  0  0
    3.7180    2.0081   19.0124 H   0  0  0  0  0  0  0  0  0  0  0  0
    5.2625    0.8261   19.9701 C   0  0  0  0  0  0  0  0  0  0  0  0
    4.7986    0.8339   20.9573 H   0  0  0  0  0  0  0  0  0  0  0  0
  1  2  1  0
  2  3  2  3
  3  4  1  0
  4  5  2  0
  5  6  1  0
  5  7  1  0
  7  8  2  0
  8  9  1  0
  9 10  1  0
  9 11  1  0
  9 12  1  0
  8 13  1  0
 13 14  1  0
 13 15  2  0
 15 16  1  0
  2 17  1  0
 17 18  2  0
 18 19  1  0
 18 20  1  0
 20 21  2  0
 21 22  1  0
 21 23  1  0
 23 24  1  0
 23 25  2  0
 25 26  1  0
 15  4  1  0
 25 17  1  0
M  END
>  <cnnaffinity>  (1) 
-5.09294

>  <filename>  (1) 
FC(F)(F)c1ccc(N=Cc2cccnc2)cn1

$$$$
