
     RDKit          3D

 31 32  0  0  0  0  0  0  0  0999 V2000
    6.7889   -2.5545   23.3938 H   0  0  0  0  0  0  0  0  0  0  0  0
    7.3833   -2.0236   22.6594 C   0  0  0  0  0  0  0  0  0  0  0  0
    8.6603   -2.3094   22.4177 C   0  0  0  0  0  0  0  0  0  0  0  0
    9.3640   -3.3775   22.8999 O   0  0  0  0  0  0  0  0  0  0  0  0
    8.8051   -4.2000   23.9054 C   0  0  0  0  0  0  0  0  0  0  0  0
    9.6487   -4.7098   24.3746 H   0  0  0  0  0  0  0  0  0  0  0  0
    8.2842   -3.6173   24.6717 H   0  0  0  0  0  0  0  0  0  0  0  0
    7.8580   -5.3132   23.4347 C   0  0  0  0  0  0  0  0  0  0  0  0
    6.6838   -4.8889   22.9342 F   0  0  0  0  0  0  0  0  0  0  0  0
    7.5767   -6.0582   24.5191 F   0  0  0  0  0  0  0  0  0  0  0  0
    8.4238   -6.0920   22.5060 F   0  0  0  0  0  0  0  0  0  0  0  0
    9.4956   -1.5135   21.4461 C   0  0  0  0  0  0  0  0  0  0  0  0
   10.4702   -1.2894   21.8906 H   0  0  0  0  0  0  0  0  0  0  0  0
    9.6815   -2.1663   20.5863 H   0  0  0  0  0  0  0  0  0  0  0  0
    8.7781   -0.2354   21.0003 C   0  0  0  0  0  0  0  0  0  0  0  0
    9.2782    0.2173   20.1384 H   0  0  0  0  0  0  0  0  0  0  0  0
    8.8163    0.5163   21.8090 H   0  0  0  0  0  0  0  0  0  0  0  0
    7.3837   -0.5616   20.6801 N   0  0  0  0  0  0  0  0  0  0  0  0
    6.6918    0.0927   19.6407 C   0  0  0  0  0  0  0  0  0  0  0  0
    7.2190    0.1954   18.3231 C   0  0  0  0  0  0  0  0  0  0  0  0
    8.1679   -0.2901   18.0847 H   0  0  0  0  0  0  0  0  0  0  0  0
    6.6190    0.8410   17.3116 N   0  0  0  0  0  0  0  0  0  0  0  0
    5.4406    1.4395   17.5645 C   0  0  0  0  0  0  0  0  0  0  0  0
    4.9926    1.9967   16.7450 H   0  0  0  0  0  0  0  0  0  0  0  0
    4.7980    1.3608   18.8008 C   0  0  0  0  0  0  0  0  0  0  0  0
    3.8392    1.8488   18.9549 H   0  0  0  0  0  0  0  0  0  0  0  0
    5.4163    0.6637   19.8440 C   0  0  0  0  0  0  0  0  0  0  0  0
    4.9474    0.5828   20.8188 H   0  0  0  0  0  0  0  0  0  0  0  0
    6.6565   -0.9610   21.8846 C   0  0  0  0  0  0  0  0  0  0  0  0
    6.4671   -0.0935   22.5508 H   0  0  0  0  0  0  0  0  0  0  0  0
    5.6744   -1.3579   21.6013 H   0  0  0  0  0  0  0  0  0  0  0  0
  1  2  1  0
  2  3  2  0
  3  4  1  0
  4  5  1  0
  5  6  1  0
  5  7  1  0
  5  8  1  0
  8  9  1  0
  8 10  1  0
  8 11  1  0
  3 12  1  0
 12 13  1  0
 12 14  1  0
 12 15  1  0
 15 16  1  0
 15 17  1  0
 15 18  1  0
 18 19  1  0
 19 20  2  0
 20 21  1  0
 20 22  1  0
 22 23  2  0
 23 24  1  0
 23 25  1  0
 25 26  1  0
 25 27  2  0
 27 28  1  0
 18 29  1  0
 29 30  1  0
 29 31  1  0
 29  2  1  0
 27 19  1  0
M  END
>  <cnnaffinity>  (1) 
-4.71251

>  <filename>  (1) 
FC(F)(F)COC1=CCN(c2cccnc2)CC1

$$$$
