
     RDKit          3D

 32 34  0  0  0  0  0  0  0  0999 V2000
    4.9365    1.8265   16.9988 H   0  0  0  0  0  0  0  0  0  0  0  0
    5.3972    1.3001   17.8324 C   0  0  0  0  0  0  0  0  0  0  0  0
    6.5433    0.6542   17.5716 N   0  0  0  0  0  0  0  0  0  0  0  0
    7.1474    0.0184   18.5804 C   0  0  0  0  0  0  0  0  0  0  0  0
    8.0871   -0.4843   18.3440 H   0  0  0  0  0  0  0  0  0  0  0  0
    6.6293   -0.0138   19.8900 C   0  0  0  0  0  0  0  0  0  0  0  0
    7.2940   -0.7078   20.9515 N   0  0  0  0  0  0  0  0  0  0  0  0
    6.6360   -1.5948   21.7304 N   0  0  0  0  0  0  0  0  0  0  0  0
    7.4869   -2.0586   22.5702 N   0  0  0  0  0  0  0  0  0  0  0  0
    8.7068   -1.5094   22.3813 N   0  0  0  0  0  0  0  0  0  0  0  0
    8.5831   -0.6630   21.3904 C   0  0  0  0  0  0  0  0  0  0  0  0
    9.6932    0.1031   20.7400 C   0  0  0  0  0  0  0  0  0  0  0  0
    9.2811    0.9089   20.1417 H   0  0  0  0  0  0  0  0  0  0  0  0
   10.1906   -0.5907   20.0560 H   0  0  0  0  0  0  0  0  0  0  0  0
   10.6890    0.6643   21.7244 C   0  0  0  0  0  0  0  0  0  0  0  0
   11.8330   -0.0854   22.0257 C   0  0  0  0  0  0  0  0  0  0  0  0
   12.0102   -1.0206   21.5010 H   0  0  0  0  0  0  0  0  0  0  0  0
   12.7525    0.3608   22.9789 C   0  0  0  0  0  0  0  0  0  0  0  0
   13.6398   -0.2254   23.2065 H   0  0  0  0  0  0  0  0  0  0  0  0
   12.5253    1.5697   23.6344 C   0  0  0  0  0  0  0  0  0  0  0  0
   13.2319    1.9194   24.3790 H   0  0  0  0  0  0  0  0  0  0  0  0
   11.3874    2.3306   23.3513 C   0  0  0  0  0  0  0  0  0  0  0  0
   11.2111    3.2636   23.8833 H   0  0  0  0  0  0  0  0  0  0  0  0
   10.4591    1.8780   22.3986 C   0  0  0  0  0  0  0  0  0  0  0  0
    9.1395    2.6060   22.1908 C   0  0  0  0  0  0  0  0  0  0  0  0
    8.1123    1.8863   22.6803 F   0  0  0  0  0  0  0  0  0  0  0  0
    8.8605    2.8334   20.8891 F   0  0  0  0  0  0  0  0  0  0  0  0
    9.0883    3.8017   22.7948 F   0  0  0  0  0  0  0  0  0  0  0  0
    5.4178    0.6383   20.1466 C   0  0  0  0  0  0  0  0  0  0  0  0
    5.0041    0.5983   21.1536 H   0  0  0  0  0  0  0  0  0  0  0  0
    4.7958    1.3159   19.0955 C   0  0  0  0  0  0  0  0  0  0  0  0
    3.8691    1.8606   19.2480 H   0  0  0  0  0  0  0  0  0  0  0  0
  1  2  1  0
  2  3  2  0
  3  4  1  0
  4  5  1  0
  4  6  2  0
  6  7  1  0
  7  8  1  0
  8  9  2  0
  9 10  1  0
 10 11  2  0
 11 12  1  0
 12 13  1  0
 12 14  1  0
 12 15  1  0
 15 16  2  0
 16 17  1  0
 16 18  1  0
 18 19  1  0
 18 20  2  0
 20 21  1  0
 20 22  1  0
 22 23  1  0
 22 24  2  0
 24 25  1  0
 25 26  1  0
 25 27  1  0
 25 28  1  0
  6 29  1  0
 29 30  1  0
 29 31  2  0
 31 32  1  0
 31  2  1  0
 11  7  1  0
 24 15  1  0
M  END
>  <cnnaffinity>  (1) 
-5.6479

>  <filename>  (1) 
FC(F)(F)c1ccccc1Cc1nnnn1-c1cccnc1

$$$$
