
     RDKit          3D

 40 44  0  0  0  0  0  0  0  0999 V2000
   14.8256    1.1492   22.6236 F   0  0  0  0  0  0  0  0  0  0  0  0
   13.9560    0.2716   23.1471 C   0  0  0  0  0  0  0  0  0  0  0  0
   14.0947    0.3234   24.4805 F   0  0  0  0  0  0  0  0  0  0  0  0
   14.3257   -0.9488   22.7437 F   0  0  0  0  0  0  0  0  0  0  0  0
   12.5401    0.6434   22.7459 C   0  0  0  0  0  0  0  0  0  0  0  0
   11.8378    0.0909   21.8026 N   0  0  0  0  0  0  0  0  0  0  0  0
   10.6373    0.7389   21.6530 C   0  0  0  0  0  0  0  0  0  0  0  0
    9.6542    0.1941   20.6764 C   0  0  0  0  0  0  0  0  0  0  0  0
    8.5991   -0.6053   21.3486 C   0  0  0  0  0  0  0  0  0  0  0  0
    8.8152   -1.4237   22.3575 N   0  0  0  0  0  0  0  0  0  0  0  0
    7.5986   -1.9894   22.5555 C   0  0  0  0  0  0  0  0  0  0  0  0
    7.2374   -3.0367   23.5624 C   0  0  0  0  0  0  0  0  0  0  0  0
    6.3121   -2.5970   24.6568 C   0  0  0  0  0  0  0  0  0  0  0  0
    7.7127   -3.1397   25.0395 C   0  0  0  0  0  0  0  0  0  0  0  0
    8.0554   -3.4921   26.4941 C   0  0  0  0  0  0  0  0  0  0  0  0
    8.9410   -3.9658   25.3847 C   0  0  0  0  0  0  0  0  0  0  0  0
    8.9380   -5.0254   25.1111 H   0  0  0  0  0  0  0  0  0  0  0  0
    9.9059   -3.4670   25.2957 H   0  0  0  0  0  0  0  0  0  0  0  0
    8.4312   -2.6862   27.1217 H   0  0  0  0  0  0  0  0  0  0  0  0
    7.3963   -4.2069   26.9940 H   0  0  0  0  0  0  0  0  0  0  0  0
    5.4258   -3.1946   24.9008 H   0  0  0  0  0  0  0  0  0  0  0  0
    6.1665   -1.5168   24.7595 H   0  0  0  0  0  0  0  0  0  0  0  0
    7.0800   -4.0097   23.0836 H   0  0  0  0  0  0  0  0  0  0  0  0
    6.6508   -1.5706   21.7292 N   0  0  0  0  0  0  0  0  0  0  0  0
    7.3046   -0.6966   20.9269 N   0  0  0  0  0  0  0  0  0  0  0  0
    6.6303   -0.0173   19.8724 C   0  0  0  0  0  0  0  0  0  0  0  0
    5.4205    0.6334   20.1336 C   0  0  0  0  0  0  0  0  0  0  0  0
    4.8016    1.3177   19.0835 C   0  0  0  0  0  0  0  0  0  0  0  0
    5.3956    1.3099   17.8167 C   0  0  0  0  0  0  0  0  0  0  0  0
    6.5422    0.6659   17.5519 N   0  0  0  0  0  0  0  0  0  0  0  0
    7.1398    0.0241   18.5633 C   0  0  0  0  0  0  0  0  0  0  0  0
    8.0774   -0.4742   18.3198 H   0  0  0  0  0  0  0  0  0  0  0  0
    4.9348    1.8322   16.9806 H   0  0  0  0  0  0  0  0  0  0  0  0
    3.8715    1.8553   19.2358 H   0  0  0  0  0  0  0  0  0  0  0  0
    4.9939    0.5953   21.1352 H   0  0  0  0  0  0  0  0  0  0  0  0
    9.1988    0.9892   20.0838 H   0  0  0  0  0  0  0  0  0  0  0  0
   10.1854   -0.5052   20.0272 H   0  0  0  0  0  0  0  0  0  0  0  0
   10.4409    1.8074   22.4689 C   0  0  0  0  0  0  0  0  0  0  0  0
   11.7848    2.0016   23.5255 S   0  0  0  0  0  0  0  0  0  0  0  0
    9.5866    2.4752   22.4918 H   0  0  0  0  0  0  0  0  0  0  0  0
  1  2  1  0
  2  3  1  0
  2  4  1  0
  2  5  1  0
  5  6  2  0
  6  7  1  0
  7  8  1  0
  8  9  1  0
  9 10  2  0
 10 11  1  0
 11 12  1  0
 12 13  1  0
 13 14  1  0
 14 15  1  0
 15 16  1  0
 16 17  1  0
 16 18  1  0
 15 19  1  0
 15 20  1  0
 13 21  1  0
 13 22  1  0
 12 23  1  0
 11 24  2  0
 24 25  1  0
 25 26  1  0
 26 27  2  0
 27 28  1  0
 28 29  2  0
 29 30  1  0
 30 31  2  0
 31 32  1  0
 29 33  1  0
 28 34  1  0
 27 35  1  0
  8 36  1  0
  8 37  1  0
  7 38  2  0
 38 39  1  0
 38 40  1  0
 39  5  1  0
 25  9  1  0
 31 26  1  0
 14 12  1  0
 16 14  1  0
M  END
>  <cnnaffinity>  (1) 
-6.81642

>  <filename>  (1) 
FC(F)(F)c1nc(Cc2nc(C3CC34CC4)nn2-c2cccnc2)cs1

$$$$
