
     RDKit          3D

 46 49  0  0  0  0  0  0  0  0999 V2000
    9.2821    4.5156   25.0703 F   0  0  0  0  0  0  0  0  0  0  0  0
    8.1508    4.2501   24.3567 C   0  0  0  0  0  0  0  0  0  0  0  0
    7.2870    3.6118   25.1931 F   0  0  0  0  0  0  0  0  0  0  0  0
    8.4817    3.4161   23.2467 N   0  0  0  0  0  0  0  0  0  0  0  0
    9.2712    2.3014   23.2605 C   0  0  0  0  0  0  0  0  0  0  0  0
    9.2293    1.7716   22.0030 C   0  0  0  0  0  0  0  0  0  0  0  0
    9.7526    0.4282   21.5457 C   0  0  0  0  0  0  0  0  0  0  0  0
    8.7643   -0.6807   21.7822 C   0  0  0  0  0  0  0  0  0  0  0  0
    8.8592   -1.5572   22.7574 N   0  0  0  0  0  0  0  0  0  0  0  0
    7.7046   -2.2634   22.6663 C   0  0  0  0  0  0  0  0  0  0  0  0
    7.3452   -3.2740   23.7146 C   0  0  0  0  0  0  0  0  0  0  0  0
    6.7864   -4.6065   23.1734 C   0  0  0  0  0  0  0  0  0  0  0  0
    6.5273   -5.5806   24.3347 C   0  0  0  0  0  0  0  0  0  0  0  0
    5.5942   -4.9874   25.4025 C   0  0  0  0  0  0  0  0  0  0  0  0
    6.1256   -3.6396   25.9114 C   0  0  0  0  0  0  0  0  0  0  0  0
    6.3672   -2.6629   24.7550 C   0  0  0  0  0  0  0  0  0  0  0  0
    5.4157   -2.4382   24.2498 H   0  0  0  0  0  0  0  0  0  0  0  0
    6.7615   -1.7076   25.1258 H   0  0  0  0  0  0  0  0  0  0  0  0
    7.0775   -3.8041   26.4405 H   0  0  0  0  0  0  0  0  0  0  0  0
    5.4386   -3.1976   26.6417 H   0  0  0  0  0  0  0  0  0  0  0  0
    4.5921   -4.8441   24.9688 H   0  0  0  0  0  0  0  0  0  0  0  0
    5.4740   -5.6900   26.2381 H   0  0  0  0  0  0  0  0  0  0  0  0
    7.4906   -5.8339   24.8078 H   0  0  0  0  0  0  0  0  0  0  0  0
    6.1070   -6.5112   23.9422 H   0  0  0  0  0  0  0  0  0  0  0  0
    5.8504   -4.4125   22.6265 H   0  0  0  0  0  0  0  0  0  0  0  0
    7.4839   -5.0582   22.4557 H   0  0  0  0  0  0  0  0  0  0  0  0
    8.2935   -3.4847   24.2297 H   0  0  0  0  0  0  0  0  0  0  0  0
    6.9068   -1.8914   21.6848 N   0  0  0  0  0  0  0  0  0  0  0  0
    7.5865   -0.8636   21.1015 N   0  0  0  0  0  0  0  0  0  0  0  0
    6.9362   -0.1373   20.0464 C   0  0  0  0  0  0  0  0  0  0  0  0
    5.7121    0.5077   20.2894 C   0  0  0  0  0  0  0  0  0  0  0  0
    5.1086    1.2146   19.2434 C   0  0  0  0  0  0  0  0  0  0  0  0
    5.7213    1.2256   17.9854 C   0  0  0  0  0  0  0  0  0  0  0  0
    6.8755    0.5860   17.7358 N   0  0  0  0  0  0  0  0  0  0  0  0
    7.4615   -0.0761   18.7441 C   0  0  0  0  0  0  0  0  0  0  0  0
    8.3895   -0.5932   18.4928 H   0  0  0  0  0  0  0  0  0  0  0  0
    5.2606    1.7490   17.1465 H   0  0  0  0  0  0  0  0  0  0  0  0
    4.1723    1.7459   19.3884 H   0  0  0  0  0  0  0  0  0  0  0  0
    5.2550    0.4518   21.2786 H   0  0  0  0  0  0  0  0  0  0  0  0
    9.9975    0.4451   20.4806 H   0  0  0  0  0  0  0  0  0  0  0  0
   10.6543    0.1658   22.1099 H   0  0  0  0  0  0  0  0  0  0  0  0
    8.3822    2.6350   21.2841 C   0  0  0  0  0  0  0  0  0  0  0  0
    7.9245    3.6233   22.0332 N   0  0  0  0  0  0  0  0  0  0  0  0
    8.0933    2.4820   20.2551 H   0  0  0  0  0  0  0  0  0  0  0  0
    9.7932    1.9976   24.1642 H   0  0  0  0  0  0  0  0  0  0  0  0
    7.7010    5.1679   23.9790 H   0  0  0  0  0  0  0  0  0  0  0  0
  1  2  1  0
  2  3  1  0
  2  4  1  0
  4  5  1  0
  5  6  2  0
  6  7  1  0
  7  8  1  0
  8  9  2  0
  9 10  1  0
 10 11  1  0
 11 12  1  0
 12 13  1  0
 13 14  1  0
 14 15  1  0
 15 16  1  0
 16 17  1  0
 16 18  1  0
 15 19  1  0
 15 20  1  0
 14 21  1  0
 14 22  1  0
 13 23  1  0
 13 24  1  0
 12 25  1  0
 12 26  1  0
 11 27  1  0
 10 28  2  0
 28 29  1  0
 29 30  1  0
 30 31  2  0
 31 32  1  0
 32 33  2  0
 33 34  1  0
 34 35  2  0
 35 36  1  0
 33 37  1  0
 32 38  1  0
 31 39  1  0
  7 40  1  0
  7 41  1  0
  6 42  1  0
 42 43  2  0
 42 44  1  0
  5 45  1  0
  2 46  1  0
 43  4  1  0
 29  8  1  0
 35 30  1  0
 16 11  1  0
M  END
>  <cnnaffinity>  (1) 
-6.22752

>  <filename>  (1) 
FC(F)n1cc(Cc2nc(C3CCCCC3)nn2-c2cccnc2)cn1

$$$$
