
     RDKit          3D

 34 36  0  0  0  0  0  0  0  0999 V2000
    4.9470    1.7776   16.9955 H   0  0  0  0  0  0  0  0  0  0  0  0
    5.4135    1.2861   17.8472 C   0  0  0  0  0  0  0  0  0  0  0  0
    6.5770    0.6623   17.6096 N   0  0  0  0  0  0  0  0  0  0  0  0
    7.1702    0.0536   18.6407 C   0  0  0  0  0  0  0  0  0  0  0  0
    8.1079   -0.4431   18.4014 H   0  0  0  0  0  0  0  0  0  0  0  0
    6.6446    0.0452   19.9393 C   0  0  0  0  0  0  0  0  0  0  0  0
    7.3835   -0.6888   20.9769 C   0  0  0  0  0  0  0  0  0  0  0  0
    8.0142   -1.7657   20.7063 N   0  0  0  0  0  0  0  0  0  0  0  0
    8.5123   -2.3203   21.9610 C   0  0  0  0  0  0  0  0  0  0  0  0
    9.6036   -2.3996   21.9126 H   0  0  0  0  0  0  0  0  0  0  0  0
    8.1441   -3.3433   22.1028 H   0  0  0  0  0  0  0  0  0  0  0  0
    8.0365   -1.3681   23.0816 C   0  0  0  0  0  0  0  0  0  0  0  0
    8.8640   -0.9601   23.6753 H   0  0  0  0  0  0  0  0  0  0  0  0
    7.3484   -1.8489   23.7923 H   0  0  0  0  0  0  0  0  0  0  0  0
    7.3741   -0.3117   22.3156 N   0  0  0  0  0  0  0  0  0  0  0  0
    7.1492    0.9716   22.8623 C   0  0  0  0  0  0  0  0  0  0  0  0
    7.5577    2.1218   22.1719 C   0  0  0  0  0  0  0  0  0  0  0  0
    8.0181    2.0057   21.1952 H   0  0  0  0  0  0  0  0  0  0  0  0
    7.3317    3.3808   22.7360 C   0  0  0  0  0  0  0  0  0  0  0  0
    7.6371    4.2648   22.1879 H   0  0  0  0  0  0  0  0  0  0  0  0
    6.7157    3.5098   23.9819 C   0  0  0  0  0  0  0  0  0  0  0  0
    6.5346    4.4827   24.4346 H   0  0  0  0  0  0  0  0  0  0  0  0
    6.3299    2.3499   24.6587 C   0  0  0  0  0  0  0  0  0  0  0  0
    5.7400    2.5930   25.8980 O   0  0  0  0  0  0  0  0  0  0  0  0
    5.3069    1.6018   26.7017 C   0  0  0  0  0  0  0  0  0  0  0  0
    4.3480    0.8446   26.1430 F   0  0  0  0  0  0  0  0  0  0  0  0
    4.8085    2.1882   27.7829 F   0  0  0  0  0  0  0  0  0  0  0  0
    6.2801    0.7560   27.0809 F   0  0  0  0  0  0  0  0  0  0  0  0
    6.5368    1.0804   24.1220 C   0  0  0  0  0  0  0  0  0  0  0  0
    6.2403    0.1822   24.6504 H   0  0  0  0  0  0  0  0  0  0  0  0
    5.4115    0.6662   20.1715 C   0  0  0  0  0  0  0  0  0  0  0  0
    4.9744    0.6618   21.1736 H   0  0  0  0  0  0  0  0  0  0  0  0
    4.7956    1.3078   19.1033 C   0  0  0  0  0  0  0  0  0  0  0  0
    3.8667    1.8434   19.2419 H   0  0  0  0  0  0  0  0  0  0  0  0
  1  2  1  0
  2  3  2  0
  3  4  1  0
  4  5  1  0
  4  6  2  0
  6  7  1  0
  7  8  2  0
  8  9  1  0
  9 10  1  0
  9 11  1  0
  9 12  1  0
 12 13  1  0
 12 14  1  0
 12 15  1  0
 15 16  1  0
 16 17  2  0
 17 18  1  0
 17 19  1  0
 19 20  1  0
 19 21  2  0
 21 22  1  0
 21 23  1  0
 23 24  1  0
 24 25  1  0
 25 26  1  0
 25 27  1  0
 25 28  1  0
 23 29  2  0
 29 30  1  0
  6 31  1  0
 31 32  1  0
 31 33  2  0
 33 34  1  0
 33  2  1  0
 15  7  1  0
 29 16  1  0
M  END
>  <cnnaffinity>  (1) 
-5.16942

>  <filename>  (1) 
FC(F)(F)Oc1cccc(N2CCN=C2c2cccnc2)c1

$$$$
