
     RDKit          3D

 32 34  0  0  0  0  0  0  0  0999 V2000
    4.9168    1.7754   17.0018 H   0  0  0  0  0  0  0  0  0  0  0  0
    5.4070    1.2915   17.8432 C   0  0  0  0  0  0  0  0  0  0  0  0
    6.5732    0.6787   17.5845 N   0  0  0  0  0  0  0  0  0  0  0  0
    7.1734    0.0565   18.6038 C   0  0  0  0  0  0  0  0  0  0  0  0
    8.1215   -0.4285   18.3783 H   0  0  0  0  0  0  0  0  0  0  0  0
    6.6352   -0.0133   19.8915 C   0  0  0  0  0  0  0  0  0  0  0  0
    7.4419   -0.6595   20.9800 C   0  0  0  0  0  0  0  0  0  0  0  0
    6.6002   -1.0591   21.9840 F   0  0  0  0  0  0  0  0  0  0  0  0
    8.0222   -1.8092   20.5248 F   0  0  0  0  0  0  0  0  0  0  0  0
    8.5408    0.2538   21.5612 C   0  0  0  0  0  0  0  0  0  0  0  0
    9.2106    0.4818   20.7242 H   0  0  0  0  0  0  0  0  0  0  0  0
    9.1327   -0.3274   22.2767 H   0  0  0  0  0  0  0  0  0  0  0  0
    8.0111    1.5368   22.1701 C   0  0  0  0  0  0  0  0  0  0  0  0
    7.9090    2.6854   21.4126 C   0  0  0  0  0  0  0  0  0  0  0  0
    8.2550    2.6228   20.3835 H   0  0  0  0  0  0  0  0  0  0  0  0
    7.4003    3.8741   21.8279 N   0  0  0  0  0  0  0  0  0  0  0  0
    6.9652    3.9303   23.0665 C   0  0  0  0  0  0  0  0  0  0  0  0
    6.5649    4.8776   23.4200 H   0  0  0  0  0  0  0  0  0  0  0  0
    6.9901    2.8332   23.9804 C   0  0  0  0  0  0  0  0  0  0  0  0
    6.5092    2.9458   25.3224 C   0  0  0  0  0  0  0  0  0  0  0  0
    6.1097    3.8984   25.6663 H   0  0  0  0  0  0  0  0  0  0  0  0
    6.5550    1.8592   26.1624 C   0  0  0  0  0  0  0  0  0  0  0  0
    6.1887    1.9414   27.1833 H   0  0  0  0  0  0  0  0  0  0  0  0
    7.0789    0.6220   25.7082 C   0  0  0  0  0  0  0  0  0  0  0  0
    7.1070   -0.2295   26.3794 H   0  0  0  0  0  0  0  0  0  0  0  0
    7.5514    0.4892   24.4178 C   0  0  0  0  0  0  0  0  0  0  0  0
    7.9360   -0.4670   24.0800 H   0  0  0  0  0  0  0  0  0  0  0  0
    7.5237    1.5931   23.5163 C   0  0  0  0  0  0  0  0  0  0  0  0
    5.4265    0.6449   20.1591 C   0  0  0  0  0  0  0  0  0  0  0  0
    5.0012    0.6333   21.1675 H   0  0  0  0  0  0  0  0  0  0  0  0
    4.8027    1.3117   19.1069 C   0  0  0  0  0  0  0  0  0  0  0  0
    3.8714    1.8467   19.2615 H   0  0  0  0  0  0  0  0  0  0  0  0
  1  2  1  0
  2  3  2  0
  3  4  1  0
  4  5  1  0
  4  6  2  0
  6  7  1  0
  7  8  1  0
  7  9  1  0
  7 10  1  0
 10 11  1  0
 10 12  1  0
 10 13  1  0
 13 14  2  0
 14 15  1  0
 14 16  1  0
 16 17  2  0
 17 18  1  0
 17 19  1  0
 19 20  2  0
 20 21  1  0
 20 22  1  0
 22 23  1  0
 22 24  2  0
 24 25  1  0
 24 26  1  0
 26 27  1  0
 26 28  2  0
  6 29  1  0
 29 30  1  0
 29 31  2  0
 31 32  1  0
 31  2  1  0
 28 13  1  0
 28 19  1  0
M  END
>  <cnnaffinity>  (1) 
-4.91047

>  <filename>  (1) 
FC(F)(Cc1cncc2ccccc12)c1cccnc1

$$$$
