
     RDKit          3D

 43 46  0  0  0  0  0  0  0  0999 V2000
    5.5523   -6.3105   23.9589 F   0  0  0  0  0  0  0  0  0  0  0  0
    5.6061   -5.0426   23.5206 C   0  0  0  0  0  0  0  0  0  0  0  0
    4.4560   -4.4418   23.9065 F   0  0  0  0  0  0  0  0  0  0  0  0
    6.6050   -4.4398   24.1896 F   0  0  0  0  0  0  0  0  0  0  0  0
    5.7676   -4.9639   21.9966 C   0  0  0  0  0  0  0  0  0  0  0  0
    5.7969   -6.1297   21.2091 C   0  0  0  0  0  0  0  0  0  0  0  0
    5.7156   -6.0104   19.8199 C   0  0  0  0  0  0  0  0  0  0  0  0
    5.6423   -4.8353   19.1818 N   0  0  0  0  0  0  0  0  0  0  0  0
    5.6988   -3.7285   19.9220 C   0  0  0  0  0  0  0  0  0  0  0  0
    5.7848   -3.7220   21.3278 C   0  0  0  0  0  0  0  0  0  0  0  0
    5.8461   -2.3869   22.0514 C   0  0  0  0  0  0  0  0  0  0  0  0
    7.1474   -1.6542   22.0061 C   0  0  0  0  0  0  0  0  0  0  0  0
    8.1654   -1.8654   22.8213 N   0  0  0  0  0  0  0  0  0  0  0  0
    9.1425   -1.0874   22.3014 C   0  0  0  0  0  0  0  0  0  0  0  0
   10.4983   -1.0284   22.9046 C   0  0  0  0  0  0  0  0  0  0  0  0
   10.9735    0.3646   23.3824 C   0  0  0  0  0  0  0  0  0  0  0  0
   12.5077    0.2481   23.3225 C   0  0  0  0  0  0  0  0  0  0  0  0
   12.7969   -0.9079   22.5502 O   0  0  0  0  0  0  0  0  0  0  0  0
   11.6256   -1.4033   21.9382 C   0  0  0  0  0  0  0  0  0  0  0  0
   11.4616   -0.9421   20.9496 H   0  0  0  0  0  0  0  0  0  0  0  0
   11.7533   -2.4820   21.8207 H   0  0  0  0  0  0  0  0  0  0  0  0
   12.9702    1.1269   22.8503 H   0  0  0  0  0  0  0  0  0  0  0  0
   12.9681    0.1154   24.3106 H   0  0  0  0  0  0  0  0  0  0  0  0
   10.6008    0.6289   24.3764 H   0  0  0  0  0  0  0  0  0  0  0  0
   10.6218    1.1290   22.6785 H   0  0  0  0  0  0  0  0  0  0  0  0
   10.4847   -1.7468   23.7265 H   0  0  0  0  0  0  0  0  0  0  0  0
    8.8065   -0.4071   21.2214 N   0  0  0  0  0  0  0  0  0  0  0  0
    7.4987   -0.7426   21.0528 N   0  0  0  0  0  0  0  0  0  0  0  0
    6.7583   -0.1165   20.0121 C   0  0  0  0  0  0  0  0  0  0  0  0
    5.5131    0.5015   20.2136 C   0  0  0  0  0  0  0  0  0  0  0  0
    4.9368    1.1741   19.1301 C   0  0  0  0  0  0  0  0  0  0  0  0
    5.5912    1.1724   17.8974 C   0  0  0  0  0  0  0  0  0  0  0  0
    6.7707    0.5597   17.6935 N   0  0  0  0  0  0  0  0  0  0  0  0
    7.3428   -0.0500   18.7353 C   0  0  0  0  0  0  0  0  0  0  0  0
    8.3061   -0.5212   18.5597 H   0  0  0  0  0  0  0  0  0  0  0  0
    5.1636    1.6912   17.0416 H   0  0  0  0  0  0  0  0  0  0  0  0
    4.0035    1.7164   19.2479 H   0  0  0  0  0  0  0  0  0  0  0  0
    5.0283    0.4885   21.1897 H   0  0  0  0  0  0  0  0  0  0  0  0
    5.5810   -2.5084   23.1040 H   0  0  0  0  0  0  0  0  0  0  0  0
    5.1120   -1.7410   21.5651 H   0  0  0  0  0  0  0  0  0  0  0  0
    5.6405   -2.7737   19.3907 H   0  0  0  0  0  0  0  0  0  0  0  0
    5.6904   -6.8939   19.1903 H   0  0  0  0  0  0  0  0  0  0  0  0
    5.8456   -7.1189   21.6622 H   0  0  0  0  0  0  0  0  0  0  0  0
  1  2  1  0
  2  3  1  0
  2  4  1  0
  2  5  1  0
  5  6  2  0
  6  7  1  0
  7  8  2  0
  8  9  1  0
  9 10  2  0
 10 11  1  0
 11 12  1  0
 12 13  2  0
 13 14  1  0
 14 15  1  0
 15 16  1  0
 16 17  1  0
 17 18  1  0
 18 19  1  0
 19 20  1  0
 19 21  1  0
 17 22  1  0
 17 23  1  0
 16 24  1  0
 16 25  1  0
 15 26  1  0
 14 27  2  0
 27 28  1  0
 28 29  1  0
 29 30  2  0
 30 31  1  0
 31 32  2  0
 32 33  1  0
 33 34  2  0
 34 35  1  0
 32 36  1  0
 31 37  1  0
 30 38  1  0
 11 39  1  0
 11 40  1  0
  9 41  1  0
  7 42  1  0
  6 43  1  0
 10  5  1  0
 28 12  1  0
 34 29  1  0
 19 15  1  0
M  END
>  <cnnaffinity>  (1) 
-5.85385

>  <filename>  (1) 
FC(F)(F)c1ccncc1Cc1nc(C2CCOC2)nn1-c1cccnc1

$$$$
