
     RDKit          3D

 23 25  0  0  0  0  0  0  0  0999 V2000
    5.2246    1.7797   16.8692 H   0  0  0  0  0  0  0  0  0  0  0  0
    5.6426    1.2858   17.7441 C   0  0  0  0  0  0  0  0  0  0  0  0
    6.8082    0.6453   17.5653 N   0  0  0  0  0  0  0  0  0  0  0  0
    7.3296    0.0015   18.6197 C   0  0  0  0  0  0  0  0  0  0  0  0
    8.2794   -0.4924   18.4422 H   0  0  0  0  0  0  0  0  0  0  0  0
    6.7094   -0.0769   19.8917 C   0  0  0  0  0  0  0  0  0  0  0  0
    7.1925   -0.9374   20.9914 C   0  0  0  0  0  0  0  0  0  0  0  0
    6.4937   -1.7737   21.8388 C   0  0  0  0  0  0  0  0  0  0  0  0
    5.4306   -1.9662   21.8120 H   0  0  0  0  0  0  0  0  0  0  0  0
    7.2901   -2.4714   22.7069 N   0  0  0  0  0  0  0  0  0  0  0  0
    8.4864   -2.0565   22.3937 C   0  0  0  0  0  0  0  0  0  0  0  0
   10.0991   -2.3652   22.9426 S   0  0  0  0  0  0  0  0  0  0  0  0
   10.6360   -1.3046   21.6540 C   0  0  0  0  0  0  0  0  0  0  0  0
   12.0918   -1.0874   21.3379 C   0  0  0  0  0  0  0  0  0  0  0  0
   12.1846   -0.8762   20.2708 H   0  0  0  0  0  0  0  0  0  0  0  0
   12.5913   -0.0525   22.0669 F   0  0  0  0  0  0  0  0  0  0  0  0
   12.8288   -2.1789   21.6422 F   0  0  0  0  0  0  0  0  0  0  0  0
    9.7245   -0.7436   20.9260 N   0  0  0  0  0  0  0  0  0  0  0  0
    8.5121   -1.1611   21.3590 N   0  0  0  0  0  0  0  0  0  0  0  0
    5.5090    0.6419   20.0535 C   0  0  0  0  0  0  0  0  0  0  0  0
    5.0117    0.6689   21.0242 H   0  0  0  0  0  0  0  0  0  0  0  0
    4.9677    1.3289   18.9686 C   0  0  0  0  0  0  0  0  0  0  0  0
    4.0347    1.8798   19.0489 H   0  0  0  0  0  0  0  0  0  0  0  0
  1  2  1  0
  2  3  2  0
  3  4  1  0
  4  5  1  0
  4  6  2  0
  6  7  1  0
  7  8  2  0
  8  9  1  0
  8 10  1  0
 10 11  2  0
 11 12  1  0
 12 13  1  0
 13 14  1  0
 14 15  1  0
 14 16  1  0
 14 17  1  0
 13 18  2  0
 18 19  1  0
  6 20  1  0
 20 21  1  0
 20 22  2  0
 22 23  1  0
 22  2  1  0
 19  7  1  0
 19 11  1  0
M  END
>  <cnnaffinity>  (1) 
-5.1027

>  <filename>  (1) 
FC(F)c1nn2c(-c3cccnc3)cnc2s1

$$$$
