
     RDKit          3D

 33 36  0  0  0  0  0  0  0  0999 V2000
    4.9126    1.8124   16.9704 H   0  0  0  0  0  0  0  0  0  0  0  0
    5.3776    1.3056   17.8172 C   0  0  0  0  0  0  0  0  0  0  0  0
    6.5405    0.6859   17.5617 N   0  0  0  0  0  0  0  0  0  0  0  0
    7.1507    0.0766   18.5821 C   0  0  0  0  0  0  0  0  0  0  0  0
    8.1017   -0.3906   18.3350 H   0  0  0  0  0  0  0  0  0  0  0  0
    6.6598    0.0275   19.9084 C   0  0  0  0  0  0  0  0  0  0  0  0
    7.4124   -0.6769   20.9635 C   0  0  0  0  0  0  0  0  0  0  0  0
    8.3280   -1.7032   20.9014 C   0  0  0  0  0  0  0  0  0  0  0  0
    8.7386   -2.1080   19.9984 H   0  0  0  0  0  0  0  0  0  0  0  0
    8.7815   -2.1233   22.1212 N   0  0  0  0  0  0  0  0  0  0  0  0
    8.1700   -1.3153   22.9466 C   0  0  0  0  0  0  0  0  0  0  0  0
    8.2406   -0.9756   24.6341 S   0  0  0  0  0  0  0  0  0  0  0  0
    7.1182    0.3566   24.3190 C   0  0  0  0  0  0  0  0  0  0  0  0
    6.6475    1.2411   25.3960 C   0  0  0  0  0  0  0  0  0  0  0  0
    5.7499    2.2890   25.1041 C   0  0  0  0  0  0  0  0  0  0  0  0
    5.4133    2.4383   24.0787 H   0  0  0  0  0  0  0  0  0  0  0  0
    5.3045    3.1272   26.1226 C   0  0  0  0  0  0  0  0  0  0  0  0
    4.6159    3.9316   25.8789 H   0  0  0  0  0  0  0  0  0  0  0  0
    5.7461    2.9419   27.4451 C   0  0  0  0  0  0  0  0  0  0  0  0
    5.2237    3.8239   28.5572 C   0  0  0  0  0  0  0  0  0  0  0  0
    4.9261    5.0643   28.1208 F   0  0  0  0  0  0  0  0  0  0  0  0
    4.0965    3.3221   29.1024 F   0  0  0  0  0  0  0  0  0  0  0  0
    6.1144    3.9610   29.5607 F   0  0  0  0  0  0  0  0  0  0  0  0
    6.6350    1.8924   27.7310 C   0  0  0  0  0  0  0  0  0  0  0  0
    6.9952    1.7146   28.7394 H   0  0  0  0  0  0  0  0  0  0  0  0
    7.0836    1.0516   26.7200 C   0  0  0  0  0  0  0  0  0  0  0  0
    7.7763    0.2471   26.9662 H   0  0  0  0  0  0  0  0  0  0  0  0
    6.7422    0.5094   23.0871 N   0  0  0  0  0  0  0  0  0  0  0  0
    7.3302   -0.4351   22.3306 N   0  0  0  0  0  0  0  0  0  0  0  0
    5.4291    0.6664   20.1459 C   0  0  0  0  0  0  0  0  0  0  0  0
    5.0170    0.6536   21.1527 H   0  0  0  0  0  0  0  0  0  0  0  0
    4.7890    1.3156   19.0855 C   0  0  0  0  0  0  0  0  0  0  0  0
    3.8579    1.8497   19.2302 H   0  0  0  0  0  0  0  0  0  0  0  0
  1  2  1  0
  2  3  2  0
  3  4  1  0
  4  5  1  0
  4  6  2  0
  6  7  1  0
  7  8  2  0
  8  9  1  0
  8 10  1  0
 10 11  2  0
 11 12  1  0
 12 13  1  0
 13 14  1  0
 14 15  2  0
 15 16  1  0
 15 17  1  0
 17 18  1  0
 17 19  2  0
 19 20  1  0
 20 21  1  0
 20 22  1  0
 20 23  1  0
 19 24  1  0
 24 25  1  0
 24 26  2  0
 26 27  1  0
 13 28  2  0
 28 29  1  0
  6 30  1  0
 30 31  1  0
 30 32  2  0
 32 33  1  0
 32  2  1  0
 29  7  1  0
 29 11  1  0
 26 14  1  0
M  END
>  <cnnaffinity>  (1) 
-5.2482

>  <filename>  (1) 
FC(F)(F)c1ccc(-c2nn3c(-c4cccnc4)cnc3s2)cc1

$$$$
