
     RDKit          3D

 40 44  0  0  0  0  0  0  0  0999 V2000
   13.5104    0.4898   24.8613 F   0  0  0  0  0  0  0  0  0  0  0  0
   13.5857    0.4481   23.5060 C   0  0  0  0  0  0  0  0  0  0  0  0
   14.5467    1.3215   23.1150 F   0  0  0  0  0  0  0  0  0  0  0  0
   12.2615    0.7785   22.8561 C   0  0  0  0  0  0  0  0  0  0  0  0
   11.7359    0.0729   21.9078 N   0  0  0  0  0  0  0  0  0  0  0  0
   10.5392    0.7016   21.6206 C   0  0  0  0  0  0  0  0  0  0  0  0
    9.5836    0.1113   20.6479 C   0  0  0  0  0  0  0  0  0  0  0  0
    8.5118   -0.6838   21.3150 C   0  0  0  0  0  0  0  0  0  0  0  0
    8.6907   -1.4105   22.3979 N   0  0  0  0  0  0  0  0  0  0  0  0
    7.4839   -1.9973   22.5723 C   0  0  0  0  0  0  0  0  0  0  0  0
    7.1198   -2.9452   23.6674 C   0  0  0  0  0  0  0  0  0  0  0  0
    6.6513   -4.3128   23.2873 C   0  0  0  0  0  0  0  0  0  0  0  0
    7.8904   -4.1944   24.2053 C   0  0  0  0  0  0  0  0  0  0  0  0
    8.5155   -5.4176   24.8694 C   0  0  0  0  0  0  0  0  0  0  0  0
    8.9422   -4.0326   25.2700 C   0  0  0  0  0  0  0  0  0  0  0  0
    9.9043   -3.6403   24.9386 H   0  0  0  0  0  0  0  0  0  0  0  0
    8.6114   -3.6494   26.2366 H   0  0  0  0  0  0  0  0  0  0  0  0
    7.8749   -5.9790   25.5523 H   0  0  0  0  0  0  0  0  0  0  0  0
    9.1737   -6.0334   24.2598 H   0  0  0  0  0  0  0  0  0  0  0  0
    5.7124   -4.7034   23.6881 H   0  0  0  0  0  0  0  0  0  0  0  0
    6.8948   -4.6702   22.2861 H   0  0  0  0  0  0  0  0  0  0  0  0
    6.5573   -2.4332   24.4483 H   0  0  0  0  0  0  0  0  0  0  0  0
    6.5579   -1.6433   21.6936 N   0  0  0  0  0  0  0  0  0  0  0  0
    7.2286   -0.8063   20.8622 N   0  0  0  0  0  0  0  0  0  0  0  0
    6.5553   -0.0992   19.8204 C   0  0  0  0  0  0  0  0  0  0  0  0
    5.3683    0.5920   20.0887 C   0  0  0  0  0  0  0  0  0  0  0  0
    4.7793    1.3242   19.0547 C   0  0  0  0  0  0  0  0  0  0  0  0
    5.3789    1.3232   17.7901 C   0  0  0  0  0  0  0  0  0  0  0  0
    6.5025    0.6421   17.5182 N   0  0  0  0  0  0  0  0  0  0  0  0
    7.0710   -0.0482   18.5138 C   0  0  0  0  0  0  0  0  0  0  0  0
    7.9917   -0.5744   18.2629 H   0  0  0  0  0  0  0  0  0  0  0  0
    4.9401    1.8839   16.9661 H   0  0  0  0  0  0  0  0  0  0  0  0
    3.8726    1.8988   19.2162 H   0  0  0  0  0  0  0  0  0  0  0  0
    4.9390    0.5558   21.0901 H   0  0  0  0  0  0  0  0  0  0  0  0
   10.1422   -0.5730   20.0036 H   0  0  0  0  0  0  0  0  0  0  0  0
    9.1447    0.9031   20.0402 H   0  0  0  0  0  0  0  0  0  0  0  0
   10.4314    1.7995   22.4069 C   0  0  0  0  0  0  0  0  0  0  0  0
   11.5334    1.8609   23.2086 O   0  0  0  0  0  0  0  0  0  0  0  0
    9.7038    2.5930   22.4992 H   0  0  0  0  0  0  0  0  0  0  0  0
   13.8732   -0.5517   23.1711 H   0  0  0  0  0  0  0  0  0  0  0  0
  1  2  1  0
  2  3  1  0
  2  4  1  0
  4  5  2  0
  5  6  1  0
  6  7  1  0
  7  8  1  0
  8  9  2  0
  9 10  1  0
 10 11  1  0
 11 12  1  0
 12 13  1  0
 13 14  1  0
 14 15  1  0
 15 16  1  0
 15 17  1  0
 14 18  1  0
 14 19  1  0
 12 20  1  0
 12 21  1  0
 11 22  1  0
 10 23  2  0
 23 24  1  0
 24 25  1  0
 25 26  2  0
 26 27  1  0
 27 28  2  0
 28 29  1  0
 29 30  2  0
 30 31  1  0
 28 32  1  0
 27 33  1  0
 26 34  1  0
  7 35  1  0
  7 36  1  0
  6 37  2  0
 37 38  1  0
 37 39  1  0
  2 40  1  0
 38  4  1  0
 24  8  1  0
 30 25  1  0
 13 11  1  0
 15 13  1  0
M  END
>  <cnnaffinity>  (1) 
-6.44502

>  <filename>  (1) 
FC(F)c1nc(Cc2nc(C3CC34CC4)nn2-c2cccnc2)co1

$$$$
