
     RDKit          3D

 32 34  0  0  0  0  0  0  0  0999 V2000
    4.9321    1.8220   16.9646 H   0  0  0  0  0  0  0  0  0  0  0  0
    5.3840    1.2959   17.8052 C   0  0  0  0  0  0  0  0  0  0  0  0
    6.5476    0.6825   17.5561 N   0  0  0  0  0  0  0  0  0  0  0  0
    7.1502    0.0514   18.5721 C   0  0  0  0  0  0  0  0  0  0  0  0
    8.1115   -0.4037   18.3371 H   0  0  0  0  0  0  0  0  0  0  0  0
    6.6250   -0.0249   19.8743 C   0  0  0  0  0  0  0  0  0  0  0  0
    7.3758   -0.7447   20.9815 C   0  0  0  0  0  0  0  0  0  0  0  0
    7.3971   -1.8309   20.8182 H   0  0  0  0  0  0  0  0  0  0  0  0
    6.8810   -0.5673   21.9422 H   0  0  0  0  0  0  0  0  0  0  0  0
    8.7620   -0.3008   21.1098 N   0  0  0  0  0  0  0  0  0  0  0  0
    9.8813   -1.0128   20.8068 C   0  0  0  0  0  0  0  0  0  0  0  0
    9.8559   -2.0318   20.4441 H   0  0  0  0  0  0  0  0  0  0  0  0
   10.9547   -0.3048   21.0081 N   0  0  0  0  0  0  0  0  0  0  0  0
   10.5552    0.9189   21.4470 N   0  0  0  0  0  0  0  0  0  0  0  0
    9.2429    0.9139   21.5421 C   0  0  0  0  0  0  0  0  0  0  0  0
    8.4590    2.0659   22.0933 C   0  0  0  0  0  0  0  0  0  0  0  0
    7.2219    1.8542   22.5752 N   0  0  0  0  0  0  0  0  0  0  0  0
    6.4980    2.8975   23.0107 C   0  0  0  0  0  0  0  0  0  0  0  0
    5.0755    2.6203   23.5542 C   0  0  0  0  0  0  0  0  0  0  0  0
    4.8393    1.3298   23.8124 F   0  0  0  0  0  0  0  0  0  0  0  0
    4.1171    3.0115   22.6841 F   0  0  0  0  0  0  0  0  0  0  0  0
    4.8464    3.2968   24.6996 F   0  0  0  0  0  0  0  0  0  0  0  0
    6.9849    4.2095   22.9623 C   0  0  0  0  0  0  0  0  0  0  0  0
    6.3765    5.0305   23.3175 H   0  0  0  0  0  0  0  0  0  0  0  0
    8.2855    4.4246   22.4937 C   0  0  0  0  0  0  0  0  0  0  0  0
    8.6806    5.4334   22.4203 H   0  0  0  0  0  0  0  0  0  0  0  0
    9.0608    3.3343   22.1097 C   0  0  0  0  0  0  0  0  0  0  0  0
   10.1107    3.4079   21.8317 H   0  0  0  0  0  0  0  0  0  0  0  0
    5.4083    0.6284   20.1087 C   0  0  0  0  0  0  0  0  0  0  0  0
    4.9934    0.6549   21.1210 H   0  0  0  0  0  0  0  0  0  0  0  0
    4.7685    1.3001   19.0602 C   0  0  0  0  0  0  0  0  0  0  0  0
    3.8405    1.8444   19.2021 H   0  0  0  0  0  0  0  0  0  0  0  0
  1  2  1  0
  2  3  2  0
  3  4  1  0
  4  5  1  0
  4  6  2  0
  6  7  1  0
  7  8  1  0
  7  9  1  0
  7 10  1  0
 10 11  1  0
 11 12  1  0
 11 13  2  0
 13 14  1  0
 14 15  2  0
 15 16  1  0
 16 17  2  0
 17 18  1  0
 18 19  1  0
 19 20  1  0
 19 21  1  0
 19 22  1  0
 18 23  2  0
 23 24  1  0
 23 25  1  0
 25 26  1  0
 25 27  2  0
 27 28  1  0
  6 29  1  0
 29 30  1  0
 29 31  2  0
 31 32  1  0
 31  2  1  0
 15 10  1  0
 27 16  1  0
M  END
>  <cnnaffinity>  (1) 
-4.89362

>  <filename>  (1) 
FC(F)(F)c1cccc(-c2nncn2Cc2cccnc2)n1

$$$$
