
     RDKit          3D

 34 36  0  0  0  0  0  0  0  0999 V2000
    6.6915    0.8230   22.3654 H   0  0  0  0  0  0  0  0  0  0  0  0
    7.0465   -0.1802   22.1921 C   0  0  0  0  0  0  0  0  0  0  0  0
    6.8984   -0.7480   20.9809 C   0  0  0  0  0  0  0  0  0  0  0  0
    6.3385   -0.0408   19.8227 C   0  0  0  0  0  0  0  0  0  0  0  0
    6.9931   -0.1125   18.5837 C   0  0  0  0  0  0  0  0  0  0  0  0
    7.9036   -0.7023   18.4850 H   0  0  0  0  0  0  0  0  0  0  0  0
    6.5901    0.5257   17.4817 N   0  0  0  0  0  0  0  0  0  0  0  0
    5.4937    1.2936   17.5855 C   0  0  0  0  0  0  0  0  0  0  0  0
    5.1869    1.8185   16.6826 H   0  0  0  0  0  0  0  0  0  0  0  0
    4.7705    1.4504   18.7730 C   0  0  0  0  0  0  0  0  0  0  0  0
    3.9220    2.1251   18.8008 H   0  0  0  0  0  0  0  0  0  0  0  0
    5.1967    0.7760   19.9165 C   0  0  0  0  0  0  0  0  0  0  0  0
    4.6576    0.8734   20.8620 H   0  0  0  0  0  0  0  0  0  0  0  0
    7.3520   -2.0502   20.7887 N   0  0  0  0  0  0  0  0  0  0  0  0
    7.2871   -2.5270   19.9044 H   0  0  0  0  0  0  0  0  0  0  0  0
    7.7801   -2.8520   21.7952 C   0  0  0  0  0  0  0  0  0  0  0  0
    8.1360   -4.4512   21.5582 S   0  0  0  0  0  0  0  0  0  0  0  0
    7.8738   -2.2779   23.0181 N   0  0  0  0  0  0  0  0  0  0  0  0
    8.4108   -2.8869   23.6211 H   0  0  0  0  0  0  0  0  0  0  0  0
    7.9169   -0.8028   23.2307 C   0  0  1  0  0  0  0  0  0  0  0  0
    7.4915   -0.6209   24.2301 H   0  0  0  0  0  0  0  0  0  0  0  0
    9.3485   -0.1564   23.2723 C   0  0  0  0  0  0  0  0  0  0  0  0
   10.2017   -0.4731   22.2867 N   0  0  0  0  0  0  0  0  0  0  0  0
   11.4321    0.0262   22.3242 C   0  0  0  0  0  0  0  0  0  0  0  0
   12.1000   -0.2685   21.5136 H   0  0  0  0  0  0  0  0  0  0  0  0
   11.8683    0.8719   23.3424 C   0  0  0  0  0  0  0  0  0  0  0  0
   13.3116    1.2387   23.3979 C   0  0  0  0  0  0  0  0  0  0  0  0
   13.4920    2.5595   23.5694 F   0  0  0  0  0  0  0  0  0  0  0  0
   13.9839    0.8825   22.2902 F   0  0  0  0  0  0  0  0  0  0  0  0
   13.9157    0.6206   24.4319 F   0  0  0  0  0  0  0  0  0  0  0  0
   10.9663    1.2677   24.3475 C   0  0  0  0  0  0  0  0  0  0  0  0
   11.2622    1.9408   25.1534 H   0  0  0  0  0  0  0  0  0  0  0  0
    9.6815    0.7371   24.3061 C   0  0  0  0  0  0  0  0  0  0  0  0
    8.9385    0.9997   25.0551 H   0  0  0  0  0  0  0  0  0  0  0  0
  1  2  1  0
  2  3  2  0
  3  4  1  0
  4  5  2  0
  5  6  1  0
  5  7  1  0
  7  8  2  0
  8  9  1  0
  8 10  1  0
 10 11  1  0
 10 12  2  0
 12 13  1  0
  3 14  1  0
 14 15  1  0
 14 16  1  0
 16 17  2  0
 16 18  1  0
 18 19  1  0
 18 20  1  0
 20 21  1  1
 20 22  1  0
 22 23  2  0
 23 24  1  0
 24 25  1  0
 24 26  2  0
 26 27  1  0
 27 28  1  0
 27 29  1  0
 27 30  1  0
 26 31  1  0
 31 32  1  0
 31 33  2  0
 33 34  1  0
 20  2  1  0
 33 22  1  0
 12  4  1  0
M  END
>  <cnnaffinity>  (1) 
-5.43526

>  <filename>  (1) 
FC(F)(F)c1ccc([C@H]2C=C(c3cccnc3)NC(=S)N2)nc1

$$$$
