
     RDKit          3D

 34 37  0  0  0  0  0  0  0  0999 V2000
    4.9134    2.1187   16.3754 H   0  0  0  0  0  0  0  0  0  0  0  0
    5.3381    1.5526   17.1971 C   0  0  0  0  0  0  0  0  0  0  0  0
    6.4673    0.8853   16.9183 N   0  0  0  0  0  0  0  0  0  0  0  0
    7.0434    0.2117   17.9176 C   0  0  0  0  0  0  0  0  0  0  0  0
    7.9508   -0.3345   17.6607 H   0  0  0  0  0  0  0  0  0  0  0  0
    6.5369    0.1828   19.2321 C   0  0  0  0  0  0  0  0  0  0  0  0
    7.2883   -0.4944   20.3020 C   0  0  0  0  0  0  0  0  0  0  0  0
    8.4917   -1.0289   20.0310 N   0  0  0  0  0  0  0  0  0  0  0  0
    8.8646   -1.5389   21.2162 N   0  0  0  0  0  0  0  0  0  0  0  0
    9.9827   -2.2126   21.6724 C   0  0  0  0  0  0  0  0  0  0  0  0
   10.8192   -2.3133   21.0066 H   0  0  0  0  0  0  0  0  0  0  0  0
    9.7496   -2.5105   22.9775 C   0  0  0  0  0  0  0  0  0  0  0  0
   10.3366   -3.1315   23.6461 H   0  0  0  0  0  0  0  0  0  0  0  0
    8.4954   -1.9523   23.3496 N   0  0  0  0  0  0  0  0  0  0  0  0
    7.9202   -1.8073   24.6372 C   0  0  0  0  0  0  0  0  0  0  0  0
    6.7978   -1.0761   24.7508 N   0  0  0  0  0  0  0  0  0  0  0  0
    6.2575   -0.8967   25.9730 C   0  0  0  0  0  0  0  0  0  0  0  0
    4.9486   -0.0726   26.1987 C   0  0  0  0  0  0  0  0  0  0  0  0
    4.4187    0.4975   25.1147 F   0  0  0  0  0  0  0  0  0  0  0  0
    5.1679    0.9179   27.0952 F   0  0  0  0  0  0  0  0  0  0  0  0
    3.9915   -0.8589   26.7426 F   0  0  0  0  0  0  0  0  0  0  0  0
    6.8268   -1.4410   27.1324 C   0  0  0  0  0  0  0  0  0  0  0  0
    6.3984   -1.2320   28.1070 H   0  0  0  0  0  0  0  0  0  0  0  0
    7.9717   -2.2306   27.0016 C   0  0  0  0  0  0  0  0  0  0  0  0
    8.4038   -2.7190   27.8682 H   0  0  0  0  0  0  0  0  0  0  0  0
    8.5431   -2.4094   25.7480 C   0  0  0  0  0  0  0  0  0  0  0  0
    9.4605   -2.9748   25.6214 H   0  0  0  0  0  0  0  0  0  0  0  0
    7.9672   -1.3645   22.1956 C   0  0  0  0  0  0  0  0  0  0  0  0
    6.9082   -0.6585   21.6533 C   0  0  0  0  0  0  0  0  0  0  0  0
    6.0544   -0.2807   22.1875 H   0  0  0  0  0  0  0  0  0  0  0  0
    5.3192    0.8388   19.4860 C   0  0  0  0  0  0  0  0  0  0  0  0
    4.8514    0.8142   20.4719 H   0  0  0  0  0  0  0  0  0  0  0  0
    4.7140    1.5390   18.4474 C   0  0  0  0  0  0  0  0  0  0  0  0
    3.7843    2.0806   18.5907 H   0  0  0  0  0  0  0  0  0  0  0  0
  1  2  1  0
  2  3  2  0
  3  4  1  0
  4  5  1  0
  4  6  2  0
  6  7  1  0
  7  8  2  0
  8  9  1  0
  9 10  1  0
 10 11  1  0
 10 12  2  0
 12 13  1  0
 12 14  1  0
 14 15  1  0
 15 16  2  0
 16 17  1  0
 17 18  1  0
 18 19  1  0
 18 20  1  0
 18 21  1  0
 17 22  2  0
 22 23  1  0
 22 24  1  0
 24 25  1  0
 24 26  2  0
 26 27  1  0
 14 28  1  0
 28 29  2  0
 29 30  1  0
  6 31  1  0
 31 32  1  0
 31 33  2  0
 33 34  1  0
 33  2  1  0
 29  7  1  0
 28  9  1  0
 26 15  1  0
M  END
>  <cnnaffinity>  (1) 
-5.37022

>  <filename>  (1) 
FC(F)(F)c1cccc(-n2ccn3nc(-c4cccnc4)cc23)n1

$$$$
