
     RDKit          3D

 24 25  0  0  0  0  0  0  0  0999 V2000
    4.9954    1.7859   16.9578 H   0  0  0  0  0  0  0  0  0  0  0  0
    5.4469    1.2840   17.8098 C   0  0  0  0  0  0  0  0  0  0  0  0
    6.6083    0.6458   17.5804 N   0  0  0  0  0  0  0  0  0  0  0  0
    7.1914    0.0221   18.6063 C   0  0  0  0  0  0  0  0  0  0  0  0
    8.1422   -0.4742   18.4208 H   0  0  0  0  0  0  0  0  0  0  0  0
    6.6390   -0.0128   19.8958 C   0  0  0  0  0  0  0  0  0  0  0  0
    7.3199   -0.7183   20.9199 N   0  0  0  0  0  0  0  0  0  0  0  0
    8.6350   -0.9907   20.8112 N   0  0  0  0  0  0  0  0  0  0  0  0
    8.9591   -1.6085   21.9319 C   0  0  0  0  0  0  0  0  0  0  0  0
   10.3773   -1.9613   22.1964 C   0  0  0  0  0  0  0  0  0  0  0  0
   10.8318   -2.2722   21.2558 H   0  0  0  0  0  0  0  0  0  0  0  0
   10.4531   -2.7668   22.9316 H   0  0  0  0  0  0  0  0  0  0  0  0
   11.1845   -0.7751   22.6960 C   0  0  0  0  0  0  0  0  0  0  0  0
   11.1557   -0.6817   24.0364 F   0  0  0  0  0  0  0  0  0  0  0  0
   12.4712   -0.9186   22.3221 F   0  0  0  0  0  0  0  0  0  0  0  0
   10.7547    0.3931   22.2111 F   0  0  0  0  0  0  0  0  0  0  0  0
    7.8428   -1.7747   22.7740 C   0  0  0  0  0  0  0  0  0  0  0  0
    7.8258   -2.2446   23.7460 H   0  0  0  0  0  0  0  0  0  0  0  0
    6.8120   -1.1857   22.0852 C   0  0  0  0  0  0  0  0  0  0  0  0
    5.7704   -1.0726   22.2930 H   0  0  0  0  0  0  0  0  0  0  0  0
    5.4342    0.6640   20.1375 C   0  0  0  0  0  0  0  0  0  0  0  0
    5.0006    0.7094   21.1374 H   0  0  0  0  0  0  0  0  0  0  0  0
    4.8304    1.3188   19.0644 C   0  0  0  0  0  0  0  0  0  0  0  0
    3.9006    1.8631   19.1956 H   0  0  0  0  0  0  0  0  0  0  0  0
  1  2  1  0
  2  3  2  0
  3  4  1  0
  4  5  1  0
  4  6  2  0
  6  7  1  0
  7  8  1  0
  8  9  2  0
  9 10  1  0
 10 11  1  0
 10 12  1  0
 10 13  1  0
 13 14  1  0
 13 15  1  0
 13 16  1  0
  9 17  1  0
 17 18  1  0
 17 19  2  0
 19 20  1  0
  6 21  1  0
 21 22  1  0
 21 23  2  0
 23 24  1  0
 23  2  1  0
 19  7  1  0
M  END
>  <cnnaffinity>  (1) 
-4.97071

>  <filename>  (1) 
FC(F)(F)Cc1ccn(-c2cccnc2)n1

$$$$
