
     RDKit          3D

 30 31  0  0  0  0  0  0  0  0999 V2000
    5.3074    1.9676   17.4134 H   0  0  0  0  0  0  0  0  0  0  0  0
    5.7334    1.2923   18.1514 C   0  0  0  0  0  0  0  0  0  0  0  0
    6.8397    0.5964   17.8371 N   0  0  0  0  0  0  0  0  0  0  0  0
    7.3347   -0.2536   18.7578 C   0  0  0  0  0  0  0  0  0  0  0  0
    8.2266   -0.8148   18.4928 H   0  0  0  0  0  0  0  0  0  0  0  0
    6.7483   -0.4531   20.0243 C   0  0  0  0  0  0  0  0  0  0  0  0
    7.3186   -1.4736   20.9963 C   0  0  2  0  0  0  0  0  0  0  0  0
    8.1791   -1.9758   20.5393 H   0  0  0  0  0  0  0  0  0  0  0  0
    5.9338   -2.8397   21.4141 Br  0  0  0  0  0  0  0  0  0  0  0  0
    7.7813   -0.8426   22.3168 C   0  0  0  0  0  0  0  0  0  0  0  0
    6.9313   -0.4030   22.8523 H   0  0  0  0  0  0  0  0  0  0  0  0
    8.2206   -1.6166   22.9546 H   0  0  0  0  0  0  0  0  0  0  0  0
    8.7990    0.2355   22.0573 C   0  0  0  0  0  0  0  0  0  0  0  0
    8.3261    1.4974   21.7223 C   0  0  0  0  0  0  0  0  0  0  0  0
    7.2539    1.6578   21.6668 H   0  0  0  0  0  0  0  0  0  0  0  0
    9.2043    2.5480   21.4870 C   0  0  0  0  0  0  0  0  0  0  0  0
    8.8030    3.5325   21.2716 H   0  0  0  0  0  0  0  0  0  0  0  0
   10.5820    2.3244   21.5337 C   0  0  0  0  0  0  0  0  0  0  0  0
   11.2693    3.1407   21.3230 H   0  0  0  0  0  0  0  0  0  0  0  0
   11.0805    1.0677   21.8880 C   0  0  0  0  0  0  0  0  0  0  0  0
   12.1616    0.9450   21.9729 H   0  0  0  0  0  0  0  0  0  0  0  0
   10.1834    0.0074   22.1729 C   0  0  0  0  0  0  0  0  0  0  0  0
   10.6479   -1.3488   22.6645 C   0  0  0  0  0  0  0  0  0  0  0  0
   11.9712   -1.5343   22.4180 F   0  0  0  0  0  0  0  0  0  0  0  0
    9.9656   -2.3510   22.0416 F   0  0  0  0  0  0  0  0  0  0  0  0
   10.4094   -1.4300   24.0039 F   0  0  0  0  0  0  0  0  0  0  0  0
    5.6156    0.2976   20.3537 C   0  0  0  0  0  0  0  0  0  0  0  0
    5.1406    0.1993   21.3298 H   0  0  0  0  0  0  0  0  0  0  0  0
    5.1033    1.1700   19.3931 C   0  0  0  0  0  0  0  0  0  0  0  0
    4.2191    1.7627   19.5933 H   0  0  0  0  0  0  0  0  0  0  0  0
  1  2  1  0
  2  3  2  0
  3  4  1  0
  4  5  1  0
  4  6  2  0
  6  7  1  0
  7  8  1  6
  7  9  1  0
  7 10  1  0
 10 11  1  0
 10 12  1  0
 10 13  1  0
 13 14  2  0
 14 15  1  0
 14 16  1  0
 16 17  1  0
 16 18  2  0
 18 19  1  0
 18 20  1  0
 20 21  1  0
 20 22  2  0
 22 23  1  0
 23 24  1  0
 23 25  1  0
 23 26  1  0
  6 27  1  0
 27 28  1  0
 27 29  2  0
 29 30  1  0
 29  2  1  0
 22 13  1  0
M  END
>  <cnnaffinity>  (1) 
-5.06794

>  <filename>  (1) 
FC(F)(F)c1ccccc1C[C@@H](Br)c1cccnc1

$$$$
