
     RDKit          3D

 43 46  0  0  0  0  0  0  0  0999 V2000
   11.2461    3.9412   22.1187 F   0  0  0  0  0  0  0  0  0  0  0  0
   11.4959    3.3422   23.2919 C   0  0  0  0  0  0  0  0  0  0  0  0
   12.5140    2.4907   23.0849 F   0  0  0  0  0  0  0  0  0  0  0  0
   11.9436    4.2996   24.1191 F   0  0  0  0  0  0  0  0  0  0  0  0
   10.2599    2.6113   23.8384 C   0  0  0  0  0  0  0  0  0  0  0  0
    9.1461    2.3015   23.0387 C   0  0  0  0  0  0  0  0  0  0  0  0
    8.0590    1.6601   23.6406 C   0  0  0  0  0  0  0  0  0  0  0  0
    6.9182    1.1355   22.7971 C   0  0  0  0  0  0  0  0  0  0  0  0
    7.2461   -0.2214   22.2308 C   0  0  0  0  0  0  0  0  0  0  0  0
    7.7470   -1.2135   22.9412 N   0  0  0  0  0  0  0  0  0  0  0  0
    8.0512   -2.1491   22.0085 C   0  0  0  0  0  0  0  0  0  0  0  0
    8.6143   -3.5210   22.3159 C   0  0  0  0  0  0  0  0  0  0  0  0
    7.6583   -4.4316   23.1346 C   0  0  0  0  0  0  0  0  0  0  0  0
    8.6330   -5.2826   23.9607 C   0  0  0  0  0  0  0  0  0  0  0  0
    9.7511   -4.2730   24.2288 C   0  0  0  0  0  0  0  0  0  0  0  0
    9.8436   -3.4928   23.0414 O   0  0  0  0  0  0  0  0  0  0  0  0
    9.4994   -3.6170   25.0787 H   0  0  0  0  0  0  0  0  0  0  0  0
   10.7372   -4.7131   24.4160 H   0  0  0  0  0  0  0  0  0  0  0  0
    9.0024   -6.1350   23.3738 H   0  0  0  0  0  0  0  0  0  0  0  0
    8.1928   -5.6815   24.8809 H   0  0  0  0  0  0  0  0  0  0  0  0
    6.9796   -5.0046   22.4930 H   0  0  0  0  0  0  0  0  0  0  0  0
    7.0436   -3.7975   23.7899 H   0  0  0  0  0  0  0  0  0  0  0  0
    8.8030   -3.9329   21.3189 H   0  0  0  0  0  0  0  0  0  0  0  0
    7.7317   -1.8149   20.7706 N   0  0  0  0  0  0  0  0  0  0  0  0
    7.1704   -0.5886   20.9160 N   0  0  0  0  0  0  0  0  0  0  0  0
    6.5255    0.0540   19.8258 C   0  0  0  0  0  0  0  0  0  0  0  0
    5.3096    0.7285   19.9910 C   0  0  0  0  0  0  0  0  0  0  0  0
    4.7578    1.3803   18.8856 C   0  0  0  0  0  0  0  0  0  0  0  0
    5.4342    1.3259   17.6617 C   0  0  0  0  0  0  0  0  0  0  0  0
    6.5712    0.6314   17.4865 N   0  0  0  0  0  0  0  0  0  0  0  0
    7.0927   -0.0030   18.5389 C   0  0  0  0  0  0  0  0  0  0  0  0
    7.9914   -0.5878   18.3681 H   0  0  0  0  0  0  0  0  0  0  0  0
    5.0509    1.8524   16.7892 H   0  0  0  0  0  0  0  0  0  0  0  0
    3.8346    1.9424   18.9703 H   0  0  0  0  0  0  0  0  0  0  0  0
    4.8020    0.7291   20.9566 H   0  0  0  0  0  0  0  0  0  0  0  0
    6.7081    1.8369   21.9871 H   0  0  0  0  0  0  0  0  0  0  0  0
    6.0079    1.0425   23.4009 H   0  0  0  0  0  0  0  0  0  0  0  0
    8.1176    1.3775   25.0076 C   0  0  0  0  0  0  0  0  0  0  0  0
    9.3071    1.6328   25.6891 C   0  0  0  0  0  0  0  0  0  0  0  0
   10.3527    2.2275   25.1227 N   0  0  0  0  0  0  0  0  0  0  0  0
    9.4321    1.3384   26.7225 H   0  0  0  0  0  0  0  0  0  0  0  0
    7.2811    0.9393   25.5400 H   0  0  0  0  0  0  0  0  0  0  0  0
    9.1207    2.5218   21.9723 H   0  0  0  0  0  0  0  0  0  0  0  0
  1  2  1  0
  2  3  1  0
  2  4  1  0
  2  5  1  0
  5  6  2  0
  6  7  1  0
  7  8  1  0
  8  9  1  0
  9 10  2  0
 10 11  1  0
 11 12  1  0
 12 13  1  0
 13 14  1  0
 14 15  1  0
 15 16  1  0
 15 17  1  0
 15 18  1  0
 14 19  1  0
 14 20  1  0
 13 21  1  0
 13 22  1  0
 12 23  1  0
 11 24  2  0
 24 25  1  0
 25 26  1  0
 26 27  2  0
 27 28  1  0
 28 29  2  0
 29 30  1  0
 30 31  2  0
 31 32  1  0
 29 33  1  0
 28 34  1  0
 27 35  1  0
  8 36  1  0
  8 37  1  0
  7 38  2  0
 38 39  1  0
 39 40  2  0
 39 41  1  0
 38 42  1  0
  6 43  1  0
 40  5  1  0
 25  9  1  0
 31 26  1  0
 16 12  1  0
M  END
>  <cnnaffinity>  (1) 
-6.39649

>  <filename>  (1) 
FC(F)(F)c1cc(Cc2nc(C3CCCO3)nn2-c2cccnc2)ccn1

$$$$
