
     RDKit          3D

 43 46  0  0  0  0  0  0  0  0999 V2000
    6.0567   -2.3474   26.5119 F   0  0  0  0  0  0  0  0  0  0  0  0
    5.3155   -1.2197   26.3501 C   0  0  0  0  0  0  0  0  0  0  0  0
    4.7315   -0.9578   27.5500 F   0  0  0  0  0  0  0  0  0  0  0  0
    6.1335   -0.1139   25.9482 N   0  0  0  0  0  0  0  0  0  0  0  0
    7.0832    0.5878   26.6364 C   0  0  0  0  0  0  0  0  0  0  0  0
    7.5747    1.5357   25.7710 C   0  0  0  0  0  0  0  0  0  0  0  0
    6.8710    1.3357   24.5626 C   0  0  0  0  0  0  0  0  0  0  0  0
    7.1136    1.9370   23.2126 C   0  0  0  0  0  0  0  0  0  0  0  0
    8.0940    1.0572   22.5181 C   0  0  0  0  0  0  0  0  0  0  0  0
    9.3991    1.1598   22.6410 N   0  0  0  0  0  0  0  0  0  0  0  0
    9.8539    0.0216   22.0545 C   0  0  0  0  0  0  0  0  0  0  0  0
   11.2779   -0.3177   21.9058 C   0  0  0  0  0  0  0  0  0  0  0  0
   11.6153   -1.4852   21.2017 C   0  0  0  0  0  0  0  0  0  0  0  0
   12.9485   -1.8355   21.0228 C   0  0  0  0  0  0  0  0  0  0  0  0
   13.9435   -1.0900   21.6455 C   0  0  0  0  0  0  0  0  0  0  0  0
   13.6322    0.0851   22.3336 C   0  0  0  0  0  0  0  0  0  0  0  0
   12.3041    0.4924   22.4352 C   0  0  0  0  0  0  0  0  0  0  0  0
   12.0718    1.4509   22.8944 H   0  0  0  0  0  0  0  0  0  0  0  0
   14.4193    0.7041   22.7593 H   0  0  0  0  0  0  0  0  0  0  0  0
   14.9554   -1.4521   21.5889 H   0  0  0  0  0  0  0  0  0  0  0  0
   13.2373   -2.6489   20.3659 H   0  0  0  0  0  0  0  0  0  0  0  0
   10.8100   -2.1021   20.8097 H   0  0  0  0  0  0  0  0  0  0  0  0
    8.8906   -0.7663   21.5919 N   0  0  0  0  0  0  0  0  0  0  0  0
    7.7613   -0.0974   21.9021 N   0  0  0  0  0  0  0  0  0  0  0  0
    6.4717   -0.5742   21.3984 C   0  0  0  0  0  0  0  0  0  0  0  0
    6.0590    0.0807   20.0929 C   0  0  0  0  0  0  0  0  0  0  0  0
    4.8668    0.7927   19.9335 C   0  0  0  0  0  0  0  0  0  0  0  0
    4.6320    1.4694   18.7336 C   0  0  0  0  0  0  0  0  0  0  0  0
    5.5862    1.3819   17.7201 C   0  0  0  0  0  0  0  0  0  0  0  0
    6.7029    0.6467   17.8215 N   0  0  0  0  0  0  0  0  0  0  0  0
    6.9183    0.0185   18.9819 C   0  0  0  0  0  0  0  0  0  0  0  0
    7.8256   -0.5791   19.0396 H   0  0  0  0  0  0  0  0  0  0  0  0
    5.4595    1.9260   16.7870 H   0  0  0  0  0  0  0  0  0  0  0  0
    3.7455    2.0745   18.5785 H   0  0  0  0  0  0  0  0  0  0  0  0
    4.1244    0.8262   20.7297 H   0  0  0  0  0  0  0  0  0  0  0  0
    6.5732   -1.6596   21.2860 H   0  0  0  0  0  0  0  0  0  0  0  0
    5.7450   -0.3757   22.1881 H   0  0  0  0  0  0  0  0  0  0  0  0
    7.5418    2.9370   23.2833 H   0  0  0  0  0  0  0  0  0  0  0  0
    6.1724    1.9924   22.6594 H   0  0  0  0  0  0  0  0  0  0  0  0
    6.0094    0.3464   24.6840 N   0  0  0  0  0  0  0  0  0  0  0  0
    8.3602    2.2572   25.9531 H   0  0  0  0  0  0  0  0  0  0  0  0
    7.3146    0.3437   27.6645 H   0  0  0  0  0  0  0  0  0  0  0  0
    4.5681   -1.3667   25.5666 H   0  0  0  0  0  0  0  0  0  0  0  0
  1  2  1  0
  2  3  1  0
  2  4  1  0
  4  5  1  0
  5  6  2  0
  6  7  1  0
  7  8  1  0
  8  9  1  0
  9 10  2  0
 10 11  1  0
 11 12  1  0
 12 13  2  0
 13 14  1  0
 14 15  2  0
 15 16  1  0
 16 17  2  0
 17 18  1  0
 16 19  1  0
 15 20  1  0
 14 21  1  0
 13 22  1  0
 11 23  2  0
 23 24  1  0
 24 25  1  0
 25 26  1  0
 26 27  2  0
 27 28  1  0
 28 29  2  0
 29 30  1  0
 30 31  2  0
 31 32  1  0
 29 33  1  0
 28 34  1  0
 27 35  1  0
 25 36  1  0
 25 37  1  0
  8 38  1  0
  8 39  1  0
  7 40  2  0
  6 41  1  0
  5 42  1  0
  2 43  1  0
 40  4  1  0
 24  9  1  0
 31 26  1  0
 17 12  1  0
M  END
>  <cnnaffinity>  (1) 
-6.51557

>  <filename>  (1) 
FC(F)n1ccc(Cc2nc(-c3ccccc3)nn2Cc2cccnc2)n1

$$$$
