
     RDKit          3D

 42 45  0  0  0  0  0  0  0  0999 V2000
    3.8852   -0.9259   27.2316 F   0  0  0  0  0  0  0  0  0  0  0  0
    5.1394   -1.2007   26.7735 C   0  0  0  0  0  0  0  0  0  0  0  0
    5.0873   -2.3675   26.0897 F   0  0  0  0  0  0  0  0  0  0  0  0
    5.6742   -0.0566   25.9263 C   0  0  0  0  0  0  0  0  0  0  0  0
    5.7269    0.1341   24.6451 N   0  0  0  0  0  0  0  0  0  0  0  0
    6.3654    1.3543   24.4928 C   0  0  0  0  0  0  0  0  0  0  0  0
    6.6883    1.8225   23.1124 C   0  0  0  0  0  0  0  0  0  0  0  0
    7.7555    0.9521   22.5401 C   0  0  0  0  0  0  0  0  0  0  0  0
    9.0201    1.0987   22.8509 N   0  0  0  0  0  0  0  0  0  0  0  0
    9.6180    0.0504   22.2223 C   0  0  0  0  0  0  0  0  0  0  0  0
   11.0696   -0.1997   22.3030 C   0  0  0  0  0  0  0  0  0  0  0  0
   11.9269    0.7704   22.8584 C   0  0  0  0  0  0  0  0  0  0  0  0
   13.2925    0.5225   22.9825 C   0  0  0  0  0  0  0  0  0  0  0  0
   13.8276   -0.6844   22.5258 C   0  0  0  0  0  0  0  0  0  0  0  0
   12.9889   -1.6438   21.9546 C   0  0  0  0  0  0  0  0  0  0  0  0
   11.6190   -1.4100   21.8397 C   0  0  0  0  0  0  0  0  0  0  0  0
   10.9707   -2.1530   21.3812 H   0  0  0  0  0  0  0  0  0  0  0  0
   13.4022   -2.5842   21.6091 H   0  0  0  0  0  0  0  0  0  0  0  0
   14.8916   -0.8803   22.6102 H   0  0  0  0  0  0  0  0  0  0  0  0
   13.9326    1.2845   23.4201 H   0  0  0  0  0  0  0  0  0  0  0  0
   11.5272    1.7141   23.2180 H   0  0  0  0  0  0  0  0  0  0  0  0
    8.7792   -0.7273   21.5509 N   0  0  0  0  0  0  0  0  0  0  0  0
    7.5807   -0.1505   21.7844 N   0  0  0  0  0  0  0  0  0  0  0  0
    6.3512   -0.6589   21.1906 C   0  0  0  0  0  0  0  0  0  0  0  0
    5.9996    0.0321   19.8900 C   0  0  0  0  0  0  0  0  0  0  0  0
    4.8283    0.7759   19.7160 C   0  0  0  0  0  0  0  0  0  0  0  0
    4.6650    1.5046   18.5349 C   0  0  0  0  0  0  0  0  0  0  0  0
    5.6752    1.4520   17.5714 C   0  0  0  0  0  0  0  0  0  0  0  0
    6.7808    0.7027   17.6913 N   0  0  0  0  0  0  0  0  0  0  0  0
    6.9209    0.0139   18.8283 C   0  0  0  0  0  0  0  0  0  0  0  0
    7.8240   -0.5850   18.9260 H   0  0  0  0  0  0  0  0  0  0  0  0
    5.6102    2.0475   16.6648 H   0  0  0  0  0  0  0  0  0  0  0  0
    3.7911    2.1230   18.3577 H   0  0  0  0  0  0  0  0  0  0  0  0
    4.0634    0.8052   20.4962 H   0  0  0  0  0  0  0  0  0  0  0  0
    6.4697   -1.7413   21.0714 H   0  0  0  0  0  0  0  0  0  0  0  0
    5.5754   -0.4922   21.9385 H   0  0  0  0  0  0  0  0  0  0  0  0
    7.0721    2.8435   23.1193 H   0  0  0  0  0  0  0  0  0  0  0  0
    5.7829    1.7931   22.5036 H   0  0  0  0  0  0  0  0  0  0  0  0
    6.6906    1.8322   25.7154 C   0  0  0  0  0  0  0  0  0  0  0  0
    6.2469    0.9396   26.6490 O   0  0  0  0  0  0  0  0  0  0  0  0
    7.2079    2.7040   26.0783 H   0  0  0  0  0  0  0  0  0  0  0  0
    5.7922   -1.3221   27.6413 H   0  0  0  0  0  0  0  0  0  0  0  0
  1  2  1  0
  2  3  1  0
  2  4  1  0
  4  5  2  0
  5  6  1  0
  6  7  1  0
  7  8  1  0
  8  9  2  0
  9 10  1  0
 10 11  1  0
 11 12  2  0
 12 13  1  0
 13 14  2  0
 14 15  1  0
 15 16  2  0
 16 17  1  0
 15 18  1  0
 14 19  1  0
 13 20  1  0
 12 21  1  0
 10 22  2  0
 22 23  1  0
 23 24  1  0
 24 25  1  0
 25 26  2  0
 26 27  1  0
 27 28  2  0
 28 29  1  0
 29 30  2  0
 30 31  1  0
 28 32  1  0
 27 33  1  0
 26 34  1  0
 24 35  1  0
 24 36  1  0
  7 37  1  0
  7 38  1  0
  6 39  2  0
 39 40  1  0
 39 41  1  0
  2 42  1  0
 40  4  1  0
 23  8  1  0
 30 25  1  0
 16 11  1  0
M  END
>  <cnnaffinity>  (1) 
-6.07803

>  <filename>  (1) 
FC(F)c1nc(Cc2nc(-c3ccccc3)nn2Cc2cccnc2)co1

$$$$
