
     RDKit          3D

 47 50  0  0  0  0  0  0  0  0999 V2000
    6.4089    2.2350   27.6002 F   0  0  0  0  0  0  0  0  0  0  0  0
    7.0821    1.9277   26.4799 C   0  0  0  0  0  0  0  0  0  0  0  0
    8.2002    1.2738   26.8630 F   0  0  0  0  0  0  0  0  0  0  0  0
    6.3276    1.0161   25.8188 F   0  0  0  0  0  0  0  0  0  0  0  0
    7.3969    3.1370   25.6158 C   0  0  0  0  0  0  0  0  0  0  0  0
    7.0550    4.4331   26.0438 C   0  0  0  0  0  0  0  0  0  0  0  0
    7.3295    5.5383   25.2346 C   0  0  0  0  0  0  0  0  0  0  0  0
    7.9436    5.3665   23.9909 C   0  0  0  0  0  0  0  0  0  0  0  0
    8.2848    4.0824   23.5671 C   0  0  0  0  0  0  0  0  0  0  0  0
    8.0321    2.9585   24.3686 C   0  0  0  0  0  0  0  0  0  0  0  0
    8.3554    1.6020   23.7918 C   0  0  0  0  0  0  0  0  0  0  0  0
    7.2494    1.1621   22.8079 C   0  0  0  0  0  0  0  0  0  0  0  0
    7.5231   -0.1715   22.2166 C   0  0  0  0  0  0  0  0  0  0  0  0
    8.0863   -1.1270   22.9200 N   0  0  0  0  0  0  0  0  0  0  0  0
    8.2543   -2.1256   22.0210 C   0  0  0  0  0  0  0  0  0  0  0  0
    8.8763   -3.3869   22.4846 C   0  0  0  0  0  0  0  0  0  0  0  0
    8.0930   -4.1404   23.5806 C   0  0  0  0  0  0  0  0  0  0  0  0
    9.1940   -4.8898   24.3284 C   0  0  0  0  0  0  0  0  0  0  0  0
   10.3802   -4.1258   24.1700 O   0  0  0  0  0  0  0  0  0  0  0  0
   10.2258   -3.1122   23.1922 C   0  0  0  0  0  0  0  0  0  0  0  0
   10.2276   -2.1322   23.7008 H   0  0  0  0  0  0  0  0  0  0  0  0
   11.0779   -3.1239   22.4974 H   0  0  0  0  0  0  0  0  0  0  0  0
    8.9782   -4.9859   25.3962 H   0  0  0  0  0  0  0  0  0  0  0  0
    9.3326   -5.9125   23.9414 H   0  0  0  0  0  0  0  0  0  0  0  0
    7.6135   -3.4067   24.2412 H   0  0  0  0  0  0  0  0  0  0  0  0
    7.3317   -4.8137   23.1717 H   0  0  0  0  0  0  0  0  0  0  0  0
    8.9401   -4.0249   21.6061 H   0  0  0  0  0  0  0  0  0  0  0  0
    7.8392   -1.8587   20.8028 N   0  0  0  0  0  0  0  0  0  0  0  0
    7.3154   -0.6050   20.9370 N   0  0  0  0  0  0  0  0  0  0  0  0
    6.6134    0.0252   19.8755 C   0  0  0  0  0  0  0  0  0  0  0  0
    5.3965    0.6806   20.1013 C   0  0  0  0  0  0  0  0  0  0  0  0
    4.7959    1.3319   19.0207 C   0  0  0  0  0  0  0  0  0  0  0  0
    5.4216    1.3038   17.7719 C   0  0  0  0  0  0  0  0  0  0  0  0
    6.5681    0.6384   17.5424 N   0  0  0  0  0  0  0  0  0  0  0  0
    7.1380    0.0012   18.5717 C   0  0  0  0  0  0  0  0  0  0  0  0
    8.0540   -0.5455   18.3625 H   0  0  0  0  0  0  0  0  0  0  0  0
    4.9857    1.8272   16.9233 H   0  0  0  0  0  0  0  0  0  0  0  0
    3.8616    1.8651   19.1437 H   0  0  0  0  0  0  0  0  0  0  0  0
    4.9216    0.6682   21.0840 H   0  0  0  0  0  0  0  0  0  0  0  0
    7.1074    1.9184   22.0290 H   0  0  0  0  0  0  0  0  0  0  0  0
    6.3023    1.0982   23.3550 H   0  0  0  0  0  0  0  0  0  0  0  0
    9.3171    1.6712   23.2632 H   0  0  0  0  0  0  0  0  0  0  0  0
    8.4843    0.8449   24.5724 H   0  0  0  0  0  0  0  0  0  0  0  0
    8.7369    3.9306   22.5871 H   0  0  0  0  0  0  0  0  0  0  0  0
    8.1426    6.2185   23.3447 H   0  0  0  0  0  0  0  0  0  0  0  0
    7.0604    6.5343   25.5717 H   0  0  0  0  0  0  0  0  0  0  0  0
    6.5654    4.5769   27.0064 H   0  0  0  0  0  0  0  0  0  0  0  0
  1  2  1  0
  2  3  1  0
  2  4  1  0
  2  5  1  0
  5  6  2  0
  6  7  1  0
  7  8  2  0
  8  9  1  0
  9 10  2  0
 10 11  1  0
 11 12  1  0
 12 13  1  0
 13 14  2  0
 14 15  1  0
 15 16  1  0
 16 17  1  0
 17 18  1  0
 18 19  1  0
 19 20  1  0
 20 21  1  0
 20 22  1  0
 18 23  1  0
 18 24  1  0
 17 25  1  0
 17 26  1  0
 16 27  1  0
 15 28  2  0
 28 29  1  0
 29 30  1  0
 30 31  2  0
 31 32  1  0
 32 33  2  0
 33 34  1  0
 34 35  2  0
 35 36  1  0
 33 37  1  0
 32 38  1  0
 31 39  1  0
 12 40  1  0
 12 41  1  0
 11 42  1  0
 11 43  1  0
  9 44  1  0
  8 45  1  0
  7 46  1  0
  6 47  1  0
 10  5  1  0
 29 13  1  0
 35 30  1  0
 20 16  1  0
M  END
>  <cnnaffinity>  (1) 
-6.10873

>  <filename>  (1) 
FC(F)(F)c1ccccc1CCc1nc(C2CCOC2)nn1-c1cccnc1

$$$$
