
     RDKit          3D

 26 28  0  0  0  0  0  0  0  0999 V2000
    4.9636    1.8332   16.9483 H   0  0  0  0  0  0  0  0  0  0  0  0
    5.4106    1.3015   17.7850 C   0  0  0  0  0  0  0  0  0  0  0  0
    6.5630    0.6644   17.5328 N   0  0  0  0  0  0  0  0  0  0  0  0
    7.1467    0.0085   18.5405 C   0  0  0  0  0  0  0  0  0  0  0  0
    8.1003   -0.4630   18.3091 H   0  0  0  0  0  0  0  0  0  0  0  0
    6.6141   -0.0554   19.8426 C   0  0  0  0  0  0  0  0  0  0  0  0
    7.3740   -0.6905   20.9379 C   0  0  0  0  0  0  0  0  0  0  0  0
    8.4915   -1.3977   20.7010 N   0  0  0  0  0  0  0  0  0  0  0  0
    8.9342   -1.6663   21.9472 N   0  0  0  0  0  0  0  0  0  0  0  0
   10.0990   -2.2049   22.4556 C   0  0  0  0  0  0  0  0  0  0  0  0
   10.8238   -2.6371   21.7904 H   0  0  0  0  0  0  0  0  0  0  0  0
   10.0470   -2.0117   23.7937 C   0  0  0  0  0  0  0  0  0  0  0  0
   10.7384   -2.2610   24.5820 H   0  0  0  0  0  0  0  0  0  0  0  0
    8.8504   -1.3633   24.1156 N   0  0  0  0  0  0  0  0  0  0  0  0
    8.3499   -0.8739   25.6575 S   0  0  0  0  0  0  0  0  0  0  0  0
    7.3114   -2.2853   26.2597 C   0  0  0  0  0  0  0  0  0  0  0  0
    6.3571   -2.6059   25.3940 F   0  0  0  0  0  0  0  0  0  0  0  0
    8.0498   -3.3646   26.4963 F   0  0  0  0  0  0  0  0  0  0  0  0
    6.7579   -1.8673   27.3996 F   0  0  0  0  0  0  0  0  0  0  0  0
    8.1607   -1.1596   22.9354 C   0  0  0  0  0  0  0  0  0  0  0  0
    7.0928   -0.5351   22.3202 C   0  0  0  0  0  0  0  0  0  0  0  0
    6.2648   -0.0346   22.7859 H   0  0  0  0  0  0  0  0  0  0  0  0
    5.4029    0.6182   20.0821 C   0  0  0  0  0  0  0  0  0  0  0  0
    4.9574    0.6412   21.0773 H   0  0  0  0  0  0  0  0  0  0  0  0
    4.7912    1.3041   19.0380 C   0  0  0  0  0  0  0  0  0  0  0  0
    3.8697    1.8568   19.1875 H   0  0  0  0  0  0  0  0  0  0  0  0
  1  2  1  0
  2  3  2  0
  3  4  1  0
  4  5  1  0
  4  6  2  0
  6  7  1  0
  7  8  2  0
  8  9  1  0
  9 10  1  0
 10 11  1  0
 10 12  2  0
 12 13  1  0
 12 14  1  0
 14 15  1  0
 15 16  1  0
 16 17  1  0
 16 18  1  0
 16 19  1  0
 14 20  1  0
 20 21  2  0
 21 22  1  0
  6 23  1  0
 23 24  1  0
 23 25  2  0
 25 26  1  0
 25  2  1  0
 21  7  1  0
 20  9  1  0
M  END
>  <cnnaffinity>  (1) 
-5.27259

>  <filename>  (1) 
FC(F)(F)Sn1ccn2nc(-c3cccnc3)cc12

$$$$
