
     RDKit          3D

 32 33  0  0  0  0  0  0  0  0999 V2000
    4.9440    1.7902   16.9864 H   0  0  0  0  0  0  0  0  0  0  0  0
    5.4047    1.2946   17.8400 C   0  0  0  0  0  0  0  0  0  0  0  0
    6.5632    0.6680   17.5928 N   0  0  0  0  0  0  0  0  0  0  0  0
    7.1606    0.0509   18.6185 C   0  0  0  0  0  0  0  0  0  0  0  0
    8.1079   -0.4356   18.3815 H   0  0  0  0  0  0  0  0  0  0  0  0
    6.6353    0.0113   19.9185 C   0  0  0  0  0  0  0  0  0  0  0  0
    7.4431   -0.6540   21.0041 C   0  0  0  0  0  0  0  0  0  0  0  0
    6.6389   -0.9776   22.0588 F   0  0  0  0  0  0  0  0  0  0  0  0
    7.9510   -1.8445   20.5370 F   0  0  0  0  0  0  0  0  0  0  0  0
    8.6333    0.1558   21.4826 C   0  0  0  0  0  0  0  0  0  0  0  0
    9.1443   -0.4494   22.2390 H   0  0  0  0  0  0  0  0  0  0  0  0
    9.2985    0.2780   20.6237 H   0  0  0  0  0  0  0  0  0  0  0  0
    8.2607    1.5257   22.0588 C   0  0  0  0  0  0  0  0  0  0  0  0
    9.1820    2.0861   22.2859 H   0  0  0  0  0  0  0  0  0  0  0  0
    7.7232    2.1138   21.3012 H   0  0  0  0  0  0  0  0  0  0  0  0
    7.4273    1.4626   23.2322 N   0  0  0  0  0  0  0  0  0  0  0  0
    6.4402    1.6140   23.1352 H   0  0  0  0  0  0  0  0  0  0  0  0
    7.7973    0.9613   24.4582 C   0  0  0  0  0  0  0  0  0  0  0  0
    6.8019    0.6965   25.4202 C   0  0  0  0  0  0  0  0  0  0  0  0
    5.7575    0.8609   25.1585 H   0  0  0  0  0  0  0  0  0  0  0  0
    7.1543    0.2222   26.6838 C   0  0  0  0  0  0  0  0  0  0  0  0
    6.3814    0.0195   27.4188 H   0  0  0  0  0  0  0  0  0  0  0  0
    8.4987    0.0106   27.0126 C   0  0  0  0  0  0  0  0  0  0  0  0
    8.7819   -0.3492   27.9955 H   0  0  0  0  0  0  0  0  0  0  0  0
    9.4871    0.2793   26.0616 C   0  0  0  0  0  0  0  0  0  0  0  0
   10.5358    0.1288   26.3013 H   0  0  0  0  0  0  0  0  0  0  0  0
    9.1446    0.7496   24.7952 C   0  0  0  0  0  0  0  0  0  0  0  0
    9.9047    0.9692   24.0521 H   0  0  0  0  0  0  0  0  0  0  0  0
    5.4187    0.6603   20.1620 C   0  0  0  0  0  0  0  0  0  0  0  0
    4.9662    0.6386   21.1564 H   0  0  0  0  0  0  0  0  0  0  0  0
    4.7989    1.3179   19.0997 C   0  0  0  0  0  0  0  0  0  0  0  0
    3.8682    1.8485   19.2359 H   0  0  0  0  0  0  0  0  0  0  0  0
  1  2  1  0
  2  3  2  0
  3  4  1  0
  4  5  1  0
  4  6  2  0
  6  7  1  0
  7  8  1  0
  7  9  1  0
  7 10  1  0
 10 11  1  0
 10 12  1  0
 10 13  1  0
 13 14  1  0
 13 15  1  0
 13 16  1  0
 16 17  1  0
 16 18  1  0
 18 19  2  0
 19 20  1  0
 19 21  1  0
 21 22  1  0
 21 23  2  0
 23 24  1  0
 23 25  1  0
 25 26  1  0
 25 27  2  0
 27 28  1  0
  6 29  1  0
 29 30  1  0
 29 31  2  0
 31 32  1  0
 31  2  1  0
 27 18  1  0
M  END
>  <cnnaffinity>  (1) 
-4.53912

>  <filename>  (1) 
FC(F)(CCNc1ccccc1)c1cccnc1

$$$$
