
     RDKit          3D

 36 39  0  0  0  0  0  0  0  0999 V2000
    4.9902    1.8691   16.8768 H   0  0  0  0  0  0  0  0  0  0  0  0
    5.4156    1.3083   17.7091 C   0  0  0  0  0  0  0  0  0  0  0  0
    6.5575    0.6448   17.4711 N   0  0  0  0  0  0  0  0  0  0  0  0
    7.1261   -0.0097   18.4889 C   0  0  0  0  0  0  0  0  0  0  0  0
    8.0550   -0.5264   18.2570 H   0  0  0  0  0  0  0  0  0  0  0  0
    6.5973   -0.0414   19.7923 C   0  0  0  0  0  0  0  0  0  0  0  0
    7.3609   -0.6415   20.9049 C   0  0  0  0  0  0  0  0  0  0  0  0
    8.5035   -1.3144   20.6892 N   0  0  0  0  0  0  0  0  0  0  0  0
    8.9343   -1.5758   21.9397 N   0  0  0  0  0  0  0  0  0  0  0  0
   10.0372   -2.2190   22.4815 C   0  0  0  0  0  0  0  0  0  0  0  0
   10.7726   -2.6856   21.8560 H   0  0  0  0  0  0  0  0  0  0  0  0
    9.9079   -2.1000   23.8262 C   0  0  0  0  0  0  0  0  0  0  0  0
   10.5181   -2.4920   24.6203 H   0  0  0  0  0  0  0  0  0  0  0  0
    8.7449   -1.3881   24.1250 N   0  0  0  0  0  0  0  0  0  0  0  0
    8.2560   -1.0105   25.4053 C   0  0  0  0  0  0  0  0  0  0  0  0
    9.1327   -0.6657   26.4477 C   0  0  0  0  0  0  0  0  0  0  0  0
   10.2075   -0.6969   26.3067 H   0  0  0  0  0  0  0  0  0  0  0  0
    8.6157   -0.2235   27.6703 C   0  0  0  0  0  0  0  0  0  0  0  0
    9.2909    0.0190   28.4869 H   0  0  0  0  0  0  0  0  0  0  0  0
    7.2418   -0.0881   27.8490 C   0  0  0  0  0  0  0  0  0  0  0  0
    6.8179    0.3185   28.7615 H   0  0  0  0  0  0  0  0  0  0  0  0
    6.3841   -0.4494   26.8119 C   0  0  0  0  0  0  0  0  0  0  0  0
    5.0422   -0.1960   27.0783 O   0  0  0  0  0  0  0  0  0  0  0  0
    4.0390   -0.6709   26.3172 C   0  0  0  0  0  0  0  0  0  0  0  0
    3.9273   -0.0196   25.1450 F   0  0  0  0  0  0  0  0  0  0  0  0
    4.1466   -1.9810   26.0419 F   0  0  0  0  0  0  0  0  0  0  0  0
    2.9142   -0.4805   26.9977 F   0  0  0  0  0  0  0  0  0  0  0  0
    6.8635   -0.9462   25.6034 C   0  0  0  0  0  0  0  0  0  0  0  0
    6.1884   -1.2588   24.8140 H   0  0  0  0  0  0  0  0  0  0  0  0
    8.1391   -1.0886   22.9106 C   0  0  0  0  0  0  0  0  0  0  0  0
    7.0593   -0.4956   22.2797 C   0  0  0  0  0  0  0  0  0  0  0  0
    6.1732   -0.0579   22.7073 H   0  0  0  0  0  0  0  0  0  0  0  0
    5.3770    0.6218   20.0087 C   0  0  0  0  0  0  0  0  0  0  0  0
    4.9052    0.6132   20.9922 H   0  0  0  0  0  0  0  0  0  0  0  0
    4.7823    1.3098   18.9554 C   0  0  0  0  0  0  0  0  0  0  0  0
    3.8645    1.8697   19.0978 H   0  0  0  0  0  0  0  0  0  0  0  0
  1  2  1  0
  2  3  2  0
  3  4  1  0
  4  5  1  0
  4  6  2  0
  6  7  1  0
  7  8  2  0
  8  9  1  0
  9 10  1  0
 10 11  1  0
 10 12  2  0
 12 13  1  0
 12 14  1  0
 14 15  1  0
 15 16  2  0
 16 17  1  0
 16 18  1  0
 18 19  1  0
 18 20  2  0
 20 21  1  0
 20 22  1  0
 22 23  1  0
 23 24  1  0
 24 25  1  0
 24 26  1  0
 24 27  1  0
 22 28  2  0
 28 29  1  0
 14 30  1  0
 30 31  2  0
 31 32  1  0
  6 33  1  0
 33 34  1  0
 33 35  2  0
 35 36  1  0
 35  2  1  0
 31  7  1  0
 30  9  1  0
 28 15  1  0
M  END
>  <cnnaffinity>  (1) 
-5.46037

>  <filename>  (1) 
FC(F)(F)Oc1cccc(-n2ccn3nc(-c4cccnc4)cc23)c1

$$$$
