
     RDKit          3D

 46 49  0  0  0  0  0  0  0  0999 V2000
   11.5199    4.2087   24.3463 F   0  0  0  0  0  0  0  0  0  0  0  0
   11.4881    2.8557   24.2187 C   0  0  0  0  0  0  0  0  0  0  0  0
   11.9896    2.5202   23.0175 F   0  0  0  0  0  0  0  0  0  0  0  0
   10.1379    2.3587   24.3504 N   0  0  0  0  0  0  0  0  0  0  0  0
    9.5580    1.8858   25.4924 C   0  0  0  0  0  0  0  0  0  0  0  0
    8.2991    1.4633   25.1548 C   0  0  0  0  0  0  0  0  0  0  0  0
    8.2055    1.6803   23.7630 C   0  0  0  0  0  0  0  0  0  0  0  0
    7.1005    1.2859   22.8332 C   0  0  0  0  0  0  0  0  0  0  0  0
    7.3955   -0.0262   22.1951 C   0  0  0  0  0  0  0  0  0  0  0  0
    7.9698   -1.0502   22.8031 N   0  0  0  0  0  0  0  0  0  0  0  0
    8.0720   -1.9754   21.8195 C   0  0  0  0  0  0  0  0  0  0  0  0
    8.6384   -3.3394   22.0011 C   0  0  0  0  0  0  0  0  0  0  0  0
    7.5751   -4.4321   22.2737 C   0  0  0  0  0  0  0  0  0  0  0  0
    6.7705   -4.1465   23.5578 C   0  0  0  0  0  0  0  0  0  0  0  0
    7.6668   -4.6444   24.7192 C   0  0  0  0  0  0  0  0  0  0  0  0
    8.7104   -5.5896   24.0743 C   0  0  0  0  0  0  0  0  0  0  0  0
    8.2382   -5.7730   22.6211 C   0  0  0  0  0  0  0  0  0  0  0  0
    7.4899   -6.5749   22.5649 H   0  0  0  0  0  0  0  0  0  0  0  0
    9.0440   -6.0496   21.9365 H   0  0  0  0  0  0  0  0  0  0  0  0
    8.8099   -6.5398   24.6016 H   0  0  0  0  0  0  0  0  0  0  0  0
    9.7054   -5.1315   24.0992 H   0  0  0  0  0  0  0  0  0  0  0  0
    8.1412   -3.7960   25.2263 H   0  0  0  0  0  0  0  0  0  0  0  0
    7.0708   -5.1604   25.4768 H   0  0  0  0  0  0  0  0  0  0  0  0
    6.5013   -3.0891   23.6486 H   0  0  0  0  0  0  0  0  0  0  0  0
    5.8261   -4.7017   23.5425 H   0  0  0  0  0  0  0  0  0  0  0  0
    6.9181   -4.5160   21.3932 H   0  0  0  0  0  0  0  0  0  0  0  0
    9.3704   -3.2967   22.8147 H   0  0  0  0  0  0  0  0  0  0  0  0
    9.1630   -3.5540   21.0721 H   0  0  0  0  0  0  0  0  0  0  0  0
    7.5978   -1.5971   20.6533 N   0  0  0  0  0  0  0  0  0  0  0  0
    7.1162   -0.3527   20.9007 N   0  0  0  0  0  0  0  0  0  0  0  0
    6.4497    0.3221   19.8471 C   0  0  0  0  0  0  0  0  0  0  0  0
    5.2537    1.0359   19.9894 C   0  0  0  0  0  0  0  0  0  0  0  0
    4.6897    1.5885   18.8301 C   0  0  0  0  0  0  0  0  0  0  0  0
    5.3339    1.4180   17.6004 C   0  0  0  0  0  0  0  0  0  0  0  0
    6.4789    0.7257   17.4623 N   0  0  0  0  0  0  0  0  0  0  0  0
    7.0112    0.1924   18.5619 C   0  0  0  0  0  0  0  0  0  0  0  0
    7.9485   -0.3491   18.4550 H   0  0  0  0  0  0  0  0  0  0  0  0
    4.9219    1.8426   16.6870 H   0  0  0  0  0  0  0  0  0  0  0  0
    3.7650    2.1523   18.8712 H   0  0  0  0  0  0  0  0  0  0  0  0
    4.7623    1.1523   20.9583 H   0  0  0  0  0  0  0  0  0  0  0  0
    6.9784    2.0567   22.0632 H   0  0  0  0  0  0  0  0  0  0  0  0
    6.1724    1.1710   23.4023 H   0  0  0  0  0  0  0  0  0  0  0  0
    9.3041    2.2201   23.2883 N   0  0  0  0  0  0  0  0  0  0  0  0
    7.5402    1.0399   25.7922 H   0  0  0  0  0  0  0  0  0  0  0  0
   10.1024    1.8371   26.4266 H   0  0  0  0  0  0  0  0  0  0  0  0
   12.1109    2.4130   25.0002 H   0  0  0  0  0  0  0  0  0  0  0  0
  1  2  1  0
  2  3  1  0
  2  4  1  0
  4  5  1  0
  5  6  2  0
  6  7  1  0
  7  8  1  0
  8  9  1  0
  9 10  2  0
 10 11  1  0
 11 12  1  0
 12 13  1  0
 13 14  1  0
 14 15  1  0
 15 16  1  0
 16 17  1  0
 17 18  1  0
 17 19  1  0
 16 20  1  0
 16 21  1  0
 15 22  1  0
 15 23  1  0
 14 24  1  0
 14 25  1  0
 13 26  1  0
 12 27  1  0
 12 28  1  0
 11 29  2  0
 29 30  1  0
 30 31  1  0
 31 32  2  0
 32 33  1  0
 33 34  2  0
 34 35  1  0
 35 36  2  0
 36 37  1  0
 34 38  1  0
 33 39  1  0
 32 40  1  0
  8 41  1  0
  8 42  1  0
  7 43  2  0
  6 44  1  0
  5 45  1  0
  2 46  1  0
 43  4  1  0
 30  9  1  0
 36 31  1  0
 17 13  1  0
M  END
>  <cnnaffinity>  (1) 
-6.42736

>  <filename>  (1) 
FC(F)n1ccc(Cc2nc(CC3CCCC3)nn2-c2cccnc2)n1

$$$$
