
     RDKit          3D

 26 27  0  0  0  0  0  0  0  0999 V2000
    7.0298    1.7857   22.1088 H   0  0  0  0  0  0  0  0  0  0  0  0
    7.3737    0.9880   22.7738 C   0  0  0  0  0  0  0  0  0  0  0  0
    7.5377    1.4663   24.4690 S   0  0  0  0  0  0  0  0  0  0  0  0
    5.8634    1.0888   25.1203 C   0  0  0  0  0  0  0  0  0  0  0  0
    5.8936    1.3643   26.4222 F   0  0  0  0  0  0  0  0  0  0  0  0
    4.9429    1.8431   24.5227 F   0  0  0  0  0  0  0  0  0  0  0  0
    5.5531   -0.1932   24.9464 F   0  0  0  0  0  0  0  0  0  0  0  0
    7.6475   -0.2472   22.3098 C   0  0  0  0  0  0  0  0  0  0  0  0
    7.4071   -0.7409   20.9353 C   0  0  0  0  0  0  0  0  0  0  0  0
    6.6421    0.0069   19.9082 C   0  0  0  0  0  0  0  0  0  0  0  0
    7.1584    0.0357   18.6075 C   0  0  0  0  0  0  0  0  0  0  0  0
    8.1012   -0.4593   18.3771 H   0  0  0  0  0  0  0  0  0  0  0  0
    6.5674    0.6710   17.5909 N   0  0  0  0  0  0  0  0  0  0  0  0
    5.4059    1.2976   17.8384 C   0  0  0  0  0  0  0  0  0  0  0  0
    4.9561    1.8031   16.9876 H   0  0  0  0  0  0  0  0  0  0  0  0
    4.7970    1.3155   19.0953 C   0  0  0  0  0  0  0  0  0  0  0  0
    3.8623    1.8446   19.2251 H   0  0  0  0  0  0  0  0  0  0  0  0
    5.4238    0.6582   20.1530 C   0  0  0  0  0  0  0  0  0  0  0  0
    4.9712    0.6574   21.1490 H   0  0  0  0  0  0  0  0  0  0  0  0
    7.8907   -1.9040   20.7086 N   0  0  0  0  0  0  0  0  0  0  0  0
    8.4879   -2.4577   21.9303 C   0  0  0  0  0  0  0  0  0  0  0  0
    9.5540   -2.6479   21.7395 H   0  0  0  0  0  0  0  0  0  0  0  0
    8.0225   -3.4324   22.1385 H   0  0  0  0  0  0  0  0  0  0  0  0
    8.2746   -1.4147   23.0709 C   0  0  0  0  0  0  0  0  0  0  0  0
    7.6015   -1.7703   23.8627 H   0  0  0  0  0  0  0  0  0  0  0  0
    9.2109   -1.1341   23.5665 H   0  0  0  0  0  0  0  0  0  0  0  0
  1  2  1  0
  2  3  1  0
  3  4  1  0
  4  5  1  0
  4  6  1  0
  4  7  1  0
  2  8  2  3
  8  9  1  0
  9 10  1  0
 10 11  2  0
 11 12  1  0
 11 13  1  0
 13 14  2  0
 14 15  1  0
 14 16  1  0
 16 17  1  0
 16 18  2  0
 18 19  1  0
  9 20  2  0
 20 21  1  0
 21 22  1  0
 21 23  1  0
 21 24  1  0
 24 25  1  0
 24 26  1  0
 24  8  1  0
 18 10  1  0
M  END
>  <cnnaffinity>  (1) 
-4.78882

>  <filename>  (1) 
FC(F)(F)SC=C1CCN=C1c1cccnc1

$$$$
