
     RDKit          3D

 26 27  0  0  0  0  0  0  0  0999 V2000
    4.9156    1.8019   16.9827 H   0  0  0  0  0  0  0  0  0  0  0  0
    5.3927    1.3037   17.8251 C   0  0  0  0  0  0  0  0  0  0  0  0
    6.5529    0.6829   17.5585 N   0  0  0  0  0  0  0  0  0  0  0  0
    7.1687    0.0677   18.5777 C   0  0  0  0  0  0  0  0  0  0  0  0
    8.1081   -0.4300   18.3461 H   0  0  0  0  0  0  0  0  0  0  0  0
    6.6669    0.0157   19.8991 C   0  0  0  0  0  0  0  0  0  0  0  0
    7.3433   -0.6764   20.9643 N   0  0  0  0  0  0  0  0  0  0  0  0
    6.8216   -1.6541   21.7799 C   0  0  0  0  0  0  0  0  0  0  0  0
    5.8135   -2.0199   21.6697 H   0  0  0  0  0  0  0  0  0  0  0  0
    7.7110   -2.0949   22.6266 N   0  0  0  0  0  0  0  0  0  0  0  0
    8.8640   -1.3803   22.4028 N   0  0  0  0  0  0  0  0  0  0  0  0
    8.6338   -0.5289   21.4424 C   0  0  0  0  0  0  0  0  0  0  0  0
    9.5599    0.5415   20.9474 C   0  0  0  0  0  0  0  0  0  0  0  0
   10.5560    0.3242   21.3463 H   0  0  0  0  0  0  0  0  0  0  0  0
    9.6145    0.4626   19.8568 H   0  0  0  0  0  0  0  0  0  0  0  0
    9.1265    1.9877   21.3120 C   0  0  0  0  0  0  0  0  0  0  0  0
    9.8247    2.7164   20.8900 H   0  0  0  0  0  0  0  0  0  0  0  0
    8.1295    2.2047   20.9117 H   0  0  0  0  0  0  0  0  0  0  0  0
    9.0938    2.2768   22.8028 C   0  0  0  0  0  0  0  0  0  0  0  0
    8.1433    1.5599   23.4240 F   0  0  0  0  0  0  0  0  0  0  0  0
    8.8421    3.5749   23.0439 F   0  0  0  0  0  0  0  0  0  0  0  0
   10.2778    1.9786   23.3783 F   0  0  0  0  0  0  0  0  0  0  0  0
    5.4479    0.6496   20.1558 C   0  0  0  0  0  0  0  0  0  0  0  0
    5.0379    0.6268   21.1707 H   0  0  0  0  0  0  0  0  0  0  0  0
    4.8112    1.3111   19.0984 C   0  0  0  0  0  0  0  0  0  0  0  0
    3.8793    1.8390   19.2508 H   0  0  0  0  0  0  0  0  0  0  0  0
  1  2  1  0
  2  3  2  0
  3  4  1  0
  4  5  1  0
  4  6  2  0
  6  7  1  0
  7  8  1  0
  8  9  1  0
  8 10  2  0
 10 11  1  0
 11 12  2  0
 12 13  1  0
 13 14  1  0
 13 15  1  0
 13 16  1  0
 16 17  1  0
 16 18  1  0
 16 19  1  0
 19 20  1  0
 19 21  1  0
 19 22  1  0
  6 23  1  0
 23 24  1  0
 23 25  2  0
 25 26  1  0
 25  2  1  0
 12  7  1  0
M  END
>  <cnnaffinity>  (1) 
-5.02584

>  <filename>  (1) 
FC(F)(F)CCc1nncn1-c1cccnc1

$$$$
