
     RDKit          3D

 37 39  0  0  0  0  0  0  0  0999 V2000
    6.8813   -4.2939   26.9063 F   0  0  0  0  0  0  0  0  0  0  0  0
    7.8610   -5.0918   26.4627 C   0  0  0  0  0  0  0  0  0  0  0  0
    8.5174   -5.5439   27.5539 F   0  0  0  0  0  0  0  0  0  0  0  0
    7.2936   -6.1749   25.9022 F   0  0  0  0  0  0  0  0  0  0  0  0
    8.8016   -4.3895   25.4515 C   0  0  0  0  0  0  0  0  0  0  0  0
   10.1737   -4.5936   25.5691 C   0  0  0  0  0  0  0  0  0  0  0  0
   10.9953   -4.0596   24.5794 C   0  0  0  0  0  0  0  0  0  0  0  0
   10.4486   -3.3043   23.5597 C   0  0  0  0  0  0  0  0  0  0  0  0
    9.0515   -3.1078   23.5416 C   0  0  0  0  0  0  0  0  0  0  0  0
    8.4415   -2.2998   22.6040 N   0  0  0  0  0  0  0  0  0  0  0  0
    7.0725   -2.6088   22.1532 C   0  0  0  0  0  0  0  0  0  0  0  0
    6.3396   -1.3516   21.6387 C   0  0  0  0  0  0  0  0  0  0  0  0
    7.1046   -0.7334   20.5423 N   0  0  0  0  0  0  0  0  0  0  0  0
    6.4720    0.0845   19.5679 C   0  0  0  0  0  0  0  0  0  0  0  0
    5.2499    0.7574   19.7884 C   0  0  0  0  0  0  0  0  0  0  0  0
    4.6873    1.5137   18.7520 C   0  0  0  0  0  0  0  0  0  0  0  0
    5.3403    1.5830   17.5181 C   0  0  0  0  0  0  0  0  0  0  0  0
    6.4983    0.9459   17.2698 N   0  0  0  0  0  0  0  0  0  0  0  0
    7.0423    0.2403   18.2716 C   0  0  0  0  0  0  0  0  0  0  0  0
    7.9837   -0.2620   18.0482 H   0  0  0  0  0  0  0  0  0  0  0  0
    4.9208    2.1673   16.7012 H   0  0  0  0  0  0  0  0  0  0  0  0
    3.7605    2.0609   18.8967 H   0  0  0  0  0  0  0  0  0  0  0  0
    4.7780    0.7060   20.7668 H   0  0  0  0  0  0  0  0  0  0  0  0
    8.4275   -0.3346   21.0599 C   0  0  0  0  0  0  0  0  0  0  0  0
    9.2117   -1.5461   21.5995 C   0  0  0  0  0  0  0  0  0  0  0  0
    9.5096   -2.1955   20.7597 H   0  0  0  0  0  0  0  0  0  0  0  0
   10.1243   -1.1444   22.0523 H   0  0  0  0  0  0  0  0  0  0  0  0
    9.0207    0.1470   20.2738 H   0  0  0  0  0  0  0  0  0  0  0  0
    8.3316    0.4026   21.8778 H   0  0  0  0  0  0  0  0  0  0  0  0
    6.1983   -0.6409   22.4753 H   0  0  0  0  0  0  0  0  0  0  0  0
    5.3440   -1.6506   21.2901 H   0  0  0  0  0  0  0  0  0  0  0  0
    7.1057   -3.3458   21.3312 H   0  0  0  0  0  0  0  0  0  0  0  0
    6.5094   -3.0514   22.9804 H   0  0  0  0  0  0  0  0  0  0  0  0
    8.2459   -3.6938   24.4440 N   0  0  0  0  0  0  0  0  0  0  0  0
   11.0570   -2.9035   22.7641 H   0  0  0  0  0  0  0  0  0  0  0  0
   12.0580   -4.2485   24.5842 H   0  0  0  0  0  0  0  0  0  0  0  0
   10.5853   -5.1719   26.3879 H   0  0  0  0  0  0  0  0  0  0  0  0
  1  2  1  0
  2  3  1  0
  2  4  1  0
  2  5  1  0
  5  6  2  0
  6  7  1  0
  7  8  2  0
  8  9  1  0
  9 10  1  0
 10 11  1  0
 11 12  1  0
 12 13  1  0
 13 14  1  0
 14 15  2  0
 15 16  1  0
 16 17  2  0
 17 18  1  0
 18 19  2  0
 19 20  1  0
 17 21  1  0
 16 22  1  0
 15 23  1  0
 13 24  1  0
 24 25  1  0
 25 26  1  0
 25 27  1  0
 24 28  1  0
 24 29  1  0
 12 30  1  0
 12 31  1  0
 11 32  1  0
 11 33  1  0
  9 34  2  0
  8 35  1  0
  7 36  1  0
  6 37  1  0
 34  5  1  0
 25 10  1  0
 19 14  1  0
M  END
>  <cnnaffinity>  (1) 
-5.19995

>  <filename>  (1) 
FC(F)(F)c1cccc(N2CCN(c3cccnc3)CC2)n1

$$$$
