
     RDKit          3D

 32 34  0  0  0  0  0  0  0  0999 V2000
    4.9479    1.8343   16.9682 H   0  0  0  0  0  0  0  0  0  0  0  0
    5.4022    1.3023   17.8025 C   0  0  0  0  0  0  0  0  0  0  0  0
    6.5578    0.6678   17.5498 N   0  0  0  0  0  0  0  0  0  0  0  0
    7.1503    0.0264   18.5632 C   0  0  0  0  0  0  0  0  0  0  0  0
    8.0932   -0.4697   18.3308 H   0  0  0  0  0  0  0  0  0  0  0  0
    6.6200   -0.0172   19.8681 C   0  0  0  0  0  0  0  0  0  0  0  0
    7.3193   -0.7015   20.9637 C   0  0  0  0  0  0  0  0  0  0  0  0
    8.0432   -1.8068   20.7725 N   0  0  0  0  0  0  0  0  0  0  0  0
    8.5017   -2.0919   21.9864 N   0  0  0  0  0  0  0  0  0  0  0  0
    8.1867   -1.2215   22.9605 C   0  0  0  0  0  0  0  0  0  0  0  0
    7.3800   -0.2909   22.3429 C   0  0  0  0  0  0  0  0  0  0  0  0
    6.8086    0.8089   22.9244 O   0  0  0  0  0  0  0  0  0  0  0  0
    7.3644    2.0511   22.5135 C   0  0  0  0  0  0  0  0  0  0  0  0
    7.2677    2.2121   21.4330 H   0  0  0  0  0  0  0  0  0  0  0  0
    6.8033    2.8236   23.0396 H   0  0  0  0  0  0  0  0  0  0  0  0
    8.8393    2.3000   22.8381 C   0  0  0  0  0  0  0  0  0  0  0  0
    9.1515    2.1282   24.1302 F   0  0  0  0  0  0  0  0  0  0  0  0
    9.6768    1.5332   22.1178 F   0  0  0  0  0  0  0  0  0  0  0  0
    9.0892    3.5855   22.5188 F   0  0  0  0  0  0  0  0  0  0  0  0
    8.9451   -1.5608   24.2103 C   0  0  0  0  0  0  0  0  0  0  0  0
    8.2577   -1.7641   25.0322 H   0  0  0  0  0  0  0  0  0  0  0  0
    9.5832   -0.7318   24.5353 H   0  0  0  0  0  0  0  0  0  0  0  0
    9.7601   -2.8280   23.8073 C   0  0  0  0  0  0  0  0  0  0  0  0
   10.8288   -2.6705   23.9439 H   0  0  0  0  0  0  0  0  0  0  0  0
    9.4625   -3.6824   24.4108 H   0  0  0  0  0  0  0  0  0  0  0  0
    9.4574   -3.1068   22.3158 C   0  0  0  0  0  0  0  0  0  0  0  0
    9.0219   -4.0898   22.1176 H   0  0  0  0  0  0  0  0  0  0  0  0
   10.3332   -2.9712   21.6797 H   0  0  0  0  0  0  0  0  0  0  0  0
    5.4123    0.6539   20.1112 C   0  0  0  0  0  0  0  0  0  0  0  0
    4.9933    0.6651   21.1192 H   0  0  0  0  0  0  0  0  0  0  0  0
    4.7856    1.3159   19.0588 C   0  0  0  0  0  0  0  0  0  0  0  0
    3.8586    1.8597   19.2069 H   0  0  0  0  0  0  0  0  0  0  0  0
  1  2  1  0
  2  3  2  0
  3  4  1  0
  4  5  1  0
  4  6  2  0
  6  7  1  0
  7  8  2  0
  8  9  1  0
  9 10  1  0
 10 11  2  0
 11 12  1  0
 12 13  1  0
 13 14  1  0
 13 15  1  0
 13 16  1  0
 16 17  1  0
 16 18  1  0
 16 19  1  0
 10 20  1  0
 20 21  1  0
 20 22  1  0
 20 23  1  0
 23 24  1  0
 23 25  1  0
 23 26  1  0
 26 27  1  0
 26 28  1  0
  6 29  1  0
 29 30  1  0
 29 31  2  0
 31 32  1  0
 31  2  1  0
 11  7  1  0
 26  9  1  0
M  END
>  <cnnaffinity>  (1) 
-5.48671

>  <filename>  (1) 
FC(F)(F)COc1c(-c2cccnc2)nn2c1CCC2

$$$$
