
     RDKit          3D

 45 48  0  0  0  0  0  0  0  0999 V2000
    1.9936    1.7802   26.6289 F   0  0  0  0  0  0  0  0  0  0  0  0
    3.3006    1.6783   26.8740 C   0  0  0  0  0  0  0  0  0  0  0  0
    3.6936    2.7796   27.5581 F   0  0  0  0  0  0  0  0  0  0  0  0
    3.9117    1.6382   25.6495 O   0  0  0  0  0  0  0  0  0  0  0  0
    5.2729    1.4742   25.5741 C   0  0  0  0  0  0  0  0  0  0  0  0
    6.1287    1.3298   26.6743 C   0  0  0  0  0  0  0  0  0  0  0  0
    7.4984    1.1537   26.4401 C   0  0  0  0  0  0  0  0  0  0  0  0
    8.0046    1.1477   25.1411 C   0  0  0  0  0  0  0  0  0  0  0  0
    7.1389    1.3291   24.0486 C   0  0  0  0  0  0  0  0  0  0  0  0
    7.6750    1.2616   22.6368 C   0  0  0  0  0  0  0  0  0  0  0  0
    7.7414   -0.1526   22.1456 C   0  0  0  0  0  0  0  0  0  0  0  0
    8.3215   -1.1168   22.8340 N   0  0  0  0  0  0  0  0  0  0  0  0
    8.2936   -2.1712   21.9895 C   0  0  0  0  0  0  0  0  0  0  0  0
    8.7390   -3.5714   22.3402 C   0  0  0  0  0  0  0  0  0  0  0  0
    7.7623   -4.3985   23.2257 C   0  0  0  0  0  0  0  0  0  0  0  0
    8.7149   -5.2879   24.0335 C   0  0  0  0  0  0  0  0  0  0  0  0
    9.9236   -4.3705   24.1990 C   0  0  0  0  0  0  0  0  0  0  0  0
    9.9961   -3.6017   23.0064 O   0  0  0  0  0  0  0  0  0  0  0  0
   10.8665   -4.9153   24.3129 H   0  0  0  0  0  0  0  0  0  0  0  0
    9.7995   -3.6815   25.0481 H   0  0  0  0  0  0  0  0  0  0  0  0
    8.9820   -6.2018   23.4834 H   0  0  0  0  0  0  0  0  0  0  0  0
    8.3072   -5.5937   25.0017 H   0  0  0  0  0  0  0  0  0  0  0  0
    7.2101   -3.7190   23.8880 H   0  0  0  0  0  0  0  0  0  0  0  0
    7.0405   -4.9703   22.6301 H   0  0  0  0  0  0  0  0  0  0  0  0
    8.8244   -4.0433   21.3603 H   0  0  0  0  0  0  0  0  0  0  0  0
    7.7501   -1.9172   20.8099 N   0  0  0  0  0  0  0  0  0  0  0  0
    7.3638   -0.6217   20.9196 N   0  0  0  0  0  0  0  0  0  0  0  0
    6.6327    0.0161   19.8763 C   0  0  0  0  0  0  0  0  0  0  0  0
    5.4173    0.6651   20.1191 C   0  0  0  0  0  0  0  0  0  0  0  0
    4.7934    1.3161   19.0518 C   0  0  0  0  0  0  0  0  0  0  0  0
    5.4032    1.2989   17.7931 C   0  0  0  0  0  0  0  0  0  0  0  0
    6.5510    0.6394   17.5477 N   0  0  0  0  0  0  0  0  0  0  0  0
    7.1389    0.0016   18.5644 C   0  0  0  0  0  0  0  0  0  0  0  0
    8.0631   -0.5285   18.3449 H   0  0  0  0  0  0  0  0  0  0  0  0
    4.9616    1.8333   16.9563 H   0  0  0  0  0  0  0  0  0  0  0  0
    3.8641    1.8535   19.1908 H   0  0  0  0  0  0  0  0  0  0  0  0
    4.9649    0.6465   21.1137 H   0  0  0  0  0  0  0  0  0  0  0  0
    7.0928    1.8860   21.9575 H   0  0  0  0  0  0  0  0  0  0  0  0
    8.6918    1.6658   22.6207 H   0  0  0  0  0  0  0  0  0  0  0  0
    5.7733    1.4689   24.2723 C   0  0  0  0  0  0  0  0  0  0  0  0
    5.0396    1.5764   23.4757 H   0  0  0  0  0  0  0  0  0  0  0  0
    9.0580    0.9528   24.9483 H   0  0  0  0  0  0  0  0  0  0  0  0
    8.1764    1.0193   27.2820 H   0  0  0  0  0  0  0  0  0  0  0  0
    5.7507    1.3606   27.6898 H   0  0  0  0  0  0  0  0  0  0  0  0
    3.5165    0.7777   27.4698 H   0  0  0  0  0  0  0  0  0  0  0  0
  1  2  1  0
  2  3  1  0
  2  4  1  0
  4  5  1  0
  5  6  2  0
  6  7  1  0
  7  8  2  0
  8  9  1  0
  9 10  1  0
 10 11  1  0
 11 12  2  0
 12 13  1  0
 13 14  1  0
 14 15  1  0
 15 16  1  0
 16 17  1  0
 17 18  1  0
 17 19  1  0
 17 20  1  0
 16 21  1  0
 16 22  1  0
 15 23  1  0
 15 24  1  0
 14 25  1  0
 13 26  2  0
 26 27  1  0
 27 28  1  0
 28 29  2  0
 29 30  1  0
 30 31  2  0
 31 32  1  0
 32 33  2  0
 33 34  1  0
 31 35  1  0
 30 36  1  0
 29 37  1  0
 10 38  1  0
 10 39  1  0
  9 40  2  0
 40 41  1  0
  8 42  1  0
  7 43  1  0
  6 44  1  0
  2 45  1  0
 40  5  1  0
 27 11  1  0
 33 28  1  0
 18 14  1  0
M  END
>  <cnnaffinity>  (1) 
-6.23385

>  <filename>  (1) 
FC(F)Oc1cccc(Cc2nc(C3CCCO3)nn2-c2cccnc2)c1

$$$$
