
     RDKit          3D

 31 33  0  0  0  0  0  0  0  0999 V2000
    5.0476    1.8691   16.8771 H   0  0  0  0  0  0  0  0  0  0  0  0
    5.4786    1.3324   17.7199 C   0  0  0  0  0  0  0  0  0  0  0  0
    6.6231    0.6728   17.4800 N   0  0  0  0  0  0  0  0  0  0  0  0
    7.1838    0.0152   18.4990 C   0  0  0  0  0  0  0  0  0  0  0  0
    8.0935   -0.5443   18.2783 H   0  0  0  0  0  0  0  0  0  0  0  0
    6.6572    0.0179   19.7957 C   0  0  0  0  0  0  0  0  0  0  0  0
    7.3806   -0.6974   20.8388 C   0  0  0  0  0  0  0  0  0  0  0  0
    8.0366   -1.8246   20.6978 N   0  0  0  0  0  0  0  0  0  0  0  0
    8.4531   -2.1722   21.9331 N   0  0  0  0  0  0  0  0  0  0  0  0
    8.1011   -1.2931   22.7997 N   0  0  0  0  0  0  0  0  0  0  0  0
    7.4356   -0.3262   22.1431 N   0  0  0  0  0  0  0  0  0  0  0  0
    7.0521    0.9336   22.8242 C   0  0  0  0  0  0  0  0  0  0  0  0
    6.1373    0.7677   23.3996 H   0  0  0  0  0  0  0  0  0  0  0  0
    6.9007    1.7214   22.0816 H   0  0  0  0  0  0  0  0  0  0  0  0
    8.1152    1.3542   23.8147 C   0  0  0  0  0  0  0  0  0  0  0  0
    7.8475    1.0584   25.0871 N   0  0  0  0  0  0  0  0  0  0  0  0
    8.8485    1.1033   25.9727 C   0  0  0  0  0  0  0  0  0  0  0  0
    8.6262    0.7684   26.9805 H   0  0  0  0  0  0  0  0  0  0  0  0
   10.1499    1.4788   25.6352 C   0  0  0  0  0  0  0  0  0  0  0  0
   10.9203    1.4241   26.3878 H   0  0  0  0  0  0  0  0  0  0  0  0
   10.4194    1.9138   24.3413 C   0  0  0  0  0  0  0  0  0  0  0  0
   11.4172    2.2686   24.0567 H   0  0  0  0  0  0  0  0  0  0  0  0
    9.3570    1.8970   23.4268 C   0  0  0  0  0  0  0  0  0  0  0  0
    9.4799    2.4295   22.0288 C   0  0  0  0  0  0  0  0  0  0  0  0
   10.6930    2.9492   21.8037 F   0  0  0  0  0  0  0  0  0  0  0  0
    8.5739    3.4005   21.7733 F   0  0  0  0  0  0  0  0  0  0  0  0
    9.2791    1.4837   21.0851 F   0  0  0  0  0  0  0  0  0  0  0  0
    5.4427    0.6769   20.0285 C   0  0  0  0  0  0  0  0  0  0  0  0
    4.9809    0.6617   21.0169 H   0  0  0  0  0  0  0  0  0  0  0  0
    4.8409    1.3424   18.9647 C   0  0  0  0  0  0  0  0  0  0  0  0
    3.9030    1.8673   19.0958 H   0  0  0  0  0  0  0  0  0  0  0  0
  1  2  1  0
  2  3  2  0
  3  4  1  0
  4  5  1  0
  4  6  2  0
  6  7  1  0
  7  8  2  0
  8  9  1  0
  9 10  2  0
 10 11  1  0
 11 12  1  0
 12 13  1  0
 12 14  1  0
 12 15  1  0
 15 16  2  0
 16 17  1  0
 17 18  1  0
 17 19  2  0
 19 20  1  0
 19 21  1  0
 21 22  1  0
 21 23  2  0
 23 24  1  0
 24 25  1  0
 24 26  1  0
 24 27  1  0
  6 28  1  0
 28 29  1  0
 28 30  2  0
 30 31  1  0
 30  2  1  0
 11  7  1  0
 23 15  1  0
M  END
>  <cnnaffinity>  (1) 
-5.04516

>  <filename>  (1) 
FC(F)(F)c1cccnc1Cn1nnnc1-c1cccnc1

$$$$
