
     RDKit          3D

 31 33  0  0  0  0  0  0  0  0999 V2000
    4.9864    1.8118   16.9882 H   0  0  0  0  0  0  0  0  0  0  0  0
    5.4339    1.2833   17.8307 C   0  0  0  0  0  0  0  0  0  0  0  0
    6.5891    0.6467   17.5868 N   0  0  0  0  0  0  0  0  0  0  0  0
    7.1790    0.0140   18.6074 C   0  0  0  0  0  0  0  0  0  0  0  0
    8.1073   -0.5037   18.3782 H   0  0  0  0  0  0  0  0  0  0  0  0
    6.6660    0.0032   19.9171 C   0  0  0  0  0  0  0  0  0  0  0  0
    7.4086   -0.6621   21.0172 C   0  0  0  0  0  0  0  0  0  0  0  0
    8.1108   -1.7633   20.7096 N   0  0  0  0  0  0  0  0  0  0  0  0
    8.7655   -2.4390   21.6581 N   0  0  0  0  0  0  0  0  0  0  0  0
    8.7625   -2.0154   22.9266 C   0  0  0  0  0  0  0  0  0  0  0  0
    9.3504   -2.6193   23.6129 H   0  0  0  0  0  0  0  0  0  0  0  0
    8.0541   -0.8793   23.3457 C   0  0  0  0  0  0  0  0  0  0  0  0
    8.1316   -0.5635   24.8151 C   0  0  0  0  0  0  0  0  0  0  0  0
    9.3690   -0.3686   25.2860 N   0  0  0  0  0  0  0  0  0  0  0  0
    9.5036    0.1160   26.5266 C   0  0  0  0  0  0  0  0  0  0  0  0
   10.5202    0.3494   26.8465 H   0  0  0  0  0  0  0  0  0  0  0  0
    8.4246    0.3544   27.3835 C   0  0  0  0  0  0  0  0  0  0  0  0
    8.5838    0.7997   28.3570 H   0  0  0  0  0  0  0  0  0  0  0  0
    7.1453    0.0219   26.9580 C   0  0  0  0  0  0  0  0  0  0  0  0
    6.2889    0.1797   27.6198 H   0  0  0  0  0  0  0  0  0  0  0  0
    7.0153   -0.5050   25.6760 C   0  0  0  0  0  0  0  0  0  0  0  0
    5.6909   -0.8523   25.1020 C   0  0  0  0  0  0  0  0  0  0  0  0
    5.2829    0.2031   24.3525 F   0  0  0  0  0  0  0  0  0  0  0  0
    4.7206   -1.0814   26.0007 F   0  0  0  0  0  0  0  0  0  0  0  0
    5.7729   -1.9491   24.3295 F   0  0  0  0  0  0  0  0  0  0  0  0
    7.3747   -0.1754   22.3428 C   0  0  0  0  0  0  0  0  0  0  0  0
    6.8518    0.7568   22.5397 H   0  0  0  0  0  0  0  0  0  0  0  0
    5.4403    0.6381   20.1474 C   0  0  0  0  0  0  0  0  0  0  0  0
    4.9833    0.6118   21.1385 H   0  0  0  0  0  0  0  0  0  0  0  0
    4.8153    1.2878   19.0831 C   0  0  0  0  0  0  0  0  0  0  0  0
    3.8794    1.8139   19.2136 H   0  0  0  0  0  0  0  0  0  0  0  0
  1  2  1  0
  2  3  2  0
  3  4  1  0
  4  5  1  0
  4  6  2  0
  6  7  1  0
  7  8  2  0
  8  9  1  0
  9 10  2  0
 10 11  1  0
 10 12  1  0
 12 13  1  0
 13 14  2  0
 14 15  1  0
 15 16  1  0
 15 17  2  0
 17 18  1  0
 17 19  1  0
 19 20  1  0
 19 21  2  0
 21 22  1  0
 22 23  1  0
 22 24  1  0
 22 25  1  0
 12 26  2  0
 26 27  1  0
  6 28  1  0
 28 29  1  0
 28 30  2  0
 30 31  1  0
 30  2  1  0
 26  7  1  0
 21 13  1  0
M  END
>  <cnnaffinity>  (1) 
-6.0833

>  <filename>  (1) 
FC(F)(F)c1cccnc1-c1cnnc(-c2cccnc2)c1

$$$$
