
     RDKit          3D

 49 52  0  0  0  0  0  0  0  0999 V2000
   12.2013    3.7222   20.2472 F   0  0  0  0  0  0  0  0  0  0  0  0
   12.1423    2.8416   21.2135 C   0  0  0  0  0  0  0  0  0  0  0  0
   12.5314    3.3572   22.3797 F   0  0  0  0  0  0  0  0  0  0  0  0
   10.2371    2.3658   21.6566 N   0  0  0  0  0  0  0  0  0  0  0  0
   10.1524    2.0435   22.9105 C   0  0  0  0  0  0  0  0  0  0  0  0
    7.9290    2.6418   21.9875 C   0  0  0  0  0  0  0  0  0  0  0  0
    7.4072    1.5514   22.7709 C   0  0  0  0  0  0  0  0  0  0  0  0
    7.6474    0.1056   22.2879 C   0  0  0  0  0  0  0  0  0  0  0  0
    8.2645   -0.8656   22.9140 N   0  0  0  0  0  0  0  0  0  0  0  0
    8.2395   -1.8881   22.0088 C   0  0  0  0  0  0  0  0  0  0  0  0
    8.7514   -3.2607   22.2915 C   0  0  0  0  0  0  0  0  0  0  0  0
    7.7932   -4.1125   23.1535 C   0  0  0  0  0  0  0  0  0  0  0  0
    7.5016   -3.4554   24.5159 C   0  0  0  0  0  0  0  0  0  0  0  0
    6.6563   -4.3507   25.4492 C   0  0  0  0  0  0  0  0  0  0  0  0
    5.7702   -5.3574   24.6793 C   0  0  0  0  0  0  0  0  0  0  0  0
    5.2948   -4.8211   23.3196 C   0  0  0  0  0  0  0  0  0  0  0  0
    6.4753   -4.4241   22.3943 C   0  0  0  0  0  0  0  0  0  0  0  0
    6.6827   -5.2321   21.6793 H   0  0  0  0  0  0  0  0  0  0  0  0
    6.1823   -3.5563   21.7876 H   0  0  0  0  0  0  0  0  0  0  0  0
    4.6697   -5.5719   22.8210 H   0  0  0  0  0  0  0  0  0  0  0  0
    4.6502   -3.9460   23.4819 H   0  0  0  0  0  0  0  0  0  0  0  0
    4.9174   -5.6611   25.2972 H   0  0  0  0  0  0  0  0  0  0  0  0
    6.3562   -6.2650   24.5006 H   0  0  0  0  0  0  0  0  0  0  0  0
    7.3089   -4.9093   26.1324 H   0  0  0  0  0  0  0  0  0  0  0  0
    6.0363   -3.7006   26.0800 H   0  0  0  0  0  0  0  0  0  0  0  0
    8.4479   -3.1724   24.9942 H   0  0  0  0  0  0  0  0  0  0  0  0
    6.9635   -2.5143   24.3434 H   0  0  0  0  0  0  0  0  0  0  0  0
    8.3068   -5.0698   23.3450 H   0  0  0  0  0  0  0  0  0  0  0  0
    9.7221   -3.1654   22.7861 H   0  0  0  0  0  0  0  0  0  0  0  0
    8.8970   -3.7323   21.3190 H   0  0  0  0  0  0  0  0  0  0  0  0
    7.6792   -1.5849   20.8551 N   0  0  0  0  0  0  0  0  0  0  0  0
    7.2670   -0.3016   21.0477 N   0  0  0  0  0  0  0  0  0  0  0  0
    6.6608    0.4406   20.0082 C   0  0  0  0  0  0  0  0  0  0  0  0
    5.4762    1.1709   20.1684 C   0  0  0  0  0  0  0  0  0  0  0  0
    4.9360    1.7984   19.0359 C   0  0  0  0  0  0  0  0  0  0  0  0
    5.5784    1.6594   17.8027 C   0  0  0  0  0  0  0  0  0  0  0  0
    6.7044    0.9396   17.6368 N   0  0  0  0  0  0  0  0  0  0  0  0
    7.2147    0.3398   18.7142 C   0  0  0  0  0  0  0  0  0  0  0  0
    8.1025   -0.2727   18.5528 H   0  0  0  0  0  0  0  0  0  0  0  0
    5.1728    2.1273   16.9101 H   0  0  0  0  0  0  0  0  0  0  0  0
    4.0030    2.3533   19.0796 H   0  0  0  0  0  0  0  0  0  0  0  0
    4.9263    1.1776   21.1125 H   0  0  0  0  0  0  0  0  0  0  0  0
    6.3299    1.5659   22.9836 H   0  0  0  0  0  0  0  0  0  0  0  0
    7.9655    1.6175   23.6815 H   0  0  0  0  0  0  0  0  0  0  0  0
    7.8047    2.7102   21.7007 C   0  0  0  0  0  0  0  0  0  0  0  0
    9.0981    2.4883   20.9543 N   0  0  0  0  0  0  0  0  0  0  0  0
    7.0742    2.9275   20.9047 H   0  0  0  0  0  0  0  0  0  0  0  0
   11.0040    1.7988   23.5341 H   0  0  0  0  0  0  0  0  0  0  0  0
   12.5879    1.8810   20.9797 H   0  0  0  0  0  0  0  0  0  0  0  0
  1  2  1  0
  2  3  1  0
  2  4  1  0
  4  5  1  0
  5  6  2  0
  6  7  1  0
  7  8  1  0
  8  9  2  0
  9 10  1  0
 10 11  1  0
 11 12  1  0
 12 13  1  0
 13 14  1  0
 14 15  1  0
 15 16  1  0
 16 17  1  0
 17 18  1  0
 17 19  1  0
 16 20  1  0
 16 21  1  0
 15 22  1  0
 15 23  1  0
 14 24  1  0
 14 25  1  0
 13 26  1  0
 13 27  1  0
 12 28  1  0
 11 29  1  0
 11 30  1  0
 10 31  2  0
 31 32  1  0
 32 33  1  0
 33 34  2  0
 34 35  1  0
 35 36  2  0
 36 37  1  0
 37 38  2  0
 38 39  1  0
 36 40  1  0
 35 41  1  0
 34 42  1  0
  7 43  1  0
  7 44  1  0
  6 45  1  0
 45 46  2  0
 45 47  1  0
  5 48  1  0
  2 49  1  0
 46  4  1  0
 32  8  1  0
 38 33  1  0
 17 12  1  0
M  END
>  <cnnaffinity>  (1) 
-6.56208

>  <filename>  (1) 
FC(F)n1cc(Cc2nc(CC3CCCCC3)nn2-c2cccnc2)cn1

$$$$
