
     RDKit          3D

 33 36  0  0  0  0  0  0  0  0999 V2000
    4.9198    1.7727   17.0038 H   0  0  0  0  0  0  0  0  0  0  0  0
    5.4069    1.2873   17.8480 C   0  0  0  0  0  0  0  0  0  0  0  0
    6.5728    0.6705   17.5957 N   0  0  0  0  0  0  0  0  0  0  0  0
    7.1791    0.0556   18.6146 C   0  0  0  0  0  0  0  0  0  0  0  0
    8.1253   -0.4301   18.3753 H   0  0  0  0  0  0  0  0  0  0  0  0
    6.6542    0.0082   19.9179 C   0  0  0  0  0  0  0  0  0  0  0  0
    7.3498   -0.6929   21.0027 C   0  0  0  0  0  0  0  0  0  0  0  0
    6.8690   -0.7479   22.2046 N   0  0  0  0  0  0  0  0  0  0  0  0
    7.7161   -1.4534   22.9864 N   0  0  0  0  0  0  0  0  0  0  0  0
    7.6809   -1.9134   24.2953 C   0  0  0  0  0  0  0  0  0  0  0  0
    6.6376   -1.6445   25.2825 C   0  0  0  0  0  0  0  0  0  0  0  0
    6.4676   -2.5327   26.3618 C   0  0  0  0  0  0  0  0  0  0  0  0
    7.1005   -3.4131   26.4416 H   0  0  0  0  0  0  0  0  0  0  0  0
    5.4904   -2.2998   27.3246 C   0  0  0  0  0  0  0  0  0  0  0  0
    5.3747   -2.9865   28.1555 H   0  0  0  0  0  0  0  0  0  0  0  0
    4.6586   -1.1836   27.2262 C   0  0  0  0  0  0  0  0  0  0  0  0
    3.9042   -1.0059   27.9873 H   0  0  0  0  0  0  0  0  0  0  0  0
    4.8105   -0.3007   26.1467 C   0  0  0  0  0  0  0  0  0  0  0  0
    3.9495    0.9374   26.0552 C   0  0  0  0  0  0  0  0  0  0  0  0
    4.5351    1.9845   26.6668 F   0  0  0  0  0  0  0  0  0  0  0  0
    2.7464    0.7761   26.6360 F   0  0  0  0  0  0  0  0  0  0  0  0
    3.7192    1.3180   24.7838 F   0  0  0  0  0  0  0  0  0  0  0  0
    5.8123   -0.5120   25.1927 C   0  0  0  0  0  0  0  0  0  0  0  0
    5.9654    0.1777   24.3668 H   0  0  0  0  0  0  0  0  0  0  0  0
    8.8292   -2.6653   24.3934 C   0  0  0  0  0  0  0  0  0  0  0  0
    9.1901   -3.1923   25.2664 H   0  0  0  0  0  0  0  0  0  0  0  0
    9.5506   -2.6957   23.2290 N   0  0  0  0  0  0  0  0  0  0  0  0
    8.8397   -1.9659   22.4131 C   0  0  0  0  0  0  0  0  0  0  0  0
    8.8984   -1.5140   20.7460 S   0  0  0  0  0  0  0  0  0  0  0  0
    5.4317    0.6556   20.1661 C   0  0  0  0  0  0  0  0  0  0  0  0
    5.0004    0.6328   21.1692 H   0  0  0  0  0  0  0  0  0  0  0  0
    4.8048    1.3104   19.1105 C   0  0  0  0  0  0  0  0  0  0  0  0
    3.8729    1.8445   19.2614 H   0  0  0  0  0  0  0  0  0  0  0  0
  1  2  1  0
  2  3  2  0
  3  4  1  0
  4  5  1  0
  4  6  2  0
  6  7  1  0
  7  8  2  0
  8  9  1  0
  9 10  1  0
 10 11  1  0
 11 12  2  0
 12 13  1  0
 12 14  1  0
 14 15  1  0
 14 16  2  0
 16 17  1  0
 16 18  1  0
 18 19  1  0
 19 20  1  0
 19 21  1  0
 19 22  1  0
 18 23  2  0
 23 24  1  0
 10 25  2  0
 25 26  1  0
 25 27  1  0
 27 28  2  0
 28 29  1  0
  6 30  1  0
 30 31  1  0
 30 32  2  0
 32 33  1  0
 32  2  1  0
 29  7  1  0
 28  9  1  0
 23 11  1  0
M  END
>  <cnnaffinity>  (1) 
-5.25986

>  <filename>  (1) 
FC(F)(F)c1cccc(-c2cnc3sc(-c4cccnc4)nn23)c1

$$$$
