
     RDKit          3D

 41 44  0  0  0  0  0  0  0  0999 V2000
    2.3478    1.5521   25.7315 F   0  0  0  0  0  0  0  0  0  0  0  0
    3.1265    2.4721   25.1270 C   0  0  0  0  0  0  0  0  0  0  0  0
    3.3928    3.4247   26.0436 F   0  0  0  0  0  0  0  0  0  0  0  0
    2.4080    3.0458   24.1441 F   0  0  0  0  0  0  0  0  0  0  0  0
    4.3624    1.8493   24.5854 C   0  0  0  0  0  0  0  0  0  0  0  0
    4.9573    0.7545   25.1220 C   0  0  0  0  0  0  0  0  0  0  0  0
    6.1138    0.4975   24.4814 O   0  0  0  0  0  0  0  0  0  0  0  0
    6.2723    1.4310   23.5129 C   0  0  0  0  0  0  0  0  0  0  0  0
    7.5099    1.3075   22.6941 C   0  0  0  0  0  0  0  0  0  0  0  0
    7.6659   -0.0770   22.1773 C   0  0  0  0  0  0  0  0  0  0  0  0
    8.2276   -1.0038   22.9122 N   0  0  0  0  0  0  0  0  0  0  0  0
    8.2907   -2.0705   22.0797 C   0  0  0  0  0  0  0  0  0  0  0  0
    8.8902   -3.3342   22.5842 C   0  0  0  0  0  0  0  0  0  0  0  0
    8.1254   -4.0369   23.7329 C   0  0  0  0  0  0  0  0  0  0  0  0
    9.2312   -4.8463   24.4204 C   0  0  0  0  0  0  0  0  0  0  0  0
   10.4451   -4.1511   24.1629 O   0  0  0  0  0  0  0  0  0  0  0  0
   10.2704   -3.0981   23.2297 C   0  0  0  0  0  0  0  0  0  0  0  0
   10.3001   -2.1233   23.7456 H   0  0  0  0  0  0  0  0  0  0  0  0
   11.1034   -3.1064   22.5093 H   0  0  0  0  0  0  0  0  0  0  0  0
    9.3175   -5.8789   24.0367 H   0  0  0  0  0  0  0  0  0  0  0  0
    9.0799   -4.9229   25.5062 H   0  0  0  0  0  0  0  0  0  0  0  0
    7.3160   -4.6725   23.3671 H   0  0  0  0  0  0  0  0  0  0  0  0
    7.6916   -3.2948   24.4212 H   0  0  0  0  0  0  0  0  0  0  0  0
    8.9581   -4.0061   21.7302 H   0  0  0  0  0  0  0  0  0  0  0  0
    7.8099   -1.8673   20.8716 N   0  0  0  0  0  0  0  0  0  0  0  0
    7.3655   -0.5756   20.9414 N   0  0  0  0  0  0  0  0  0  0  0  0
    6.6300    0.0220   19.8768 C   0  0  0  0  0  0  0  0  0  0  0  0
    5.4252    0.6985   20.1174 C   0  0  0  0  0  0  0  0  0  0  0  0
    4.8121    1.3419   19.0367 C   0  0  0  0  0  0  0  0  0  0  0  0
    5.4206    1.2879   17.7791 C   0  0  0  0  0  0  0  0  0  0  0  0
    6.5521    0.6018   17.5370 N   0  0  0  0  0  0  0  0  0  0  0  0
    7.1276   -0.0349   18.5615 C   0  0  0  0  0  0  0  0  0  0  0  0
    8.0325   -0.5981   18.3415 H   0  0  0  0  0  0  0  0  0  0  0  0
    4.9822    1.8019   16.9267 H   0  0  0  0  0  0  0  0  0  0  0  0
    3.8826    1.8877   19.1585 H   0  0  0  0  0  0  0  0  0  0  0  0
    4.9876    0.7197   21.1186 H   0  0  0  0  0  0  0  0  0  0  0  0
    8.3783    1.4916   23.3391 H   0  0  0  0  0  0  0  0  0  0  0  0
    7.4923    2.0418   21.8910 H   0  0  0  0  0  0  0  0  0  0  0  0
    5.2197    2.2868   23.5108 C   0  0  0  0  0  0  0  0  0  0  0  0
    5.0634    3.1345   22.8496 H   0  0  0  0  0  0  0  0  0  0  0  0
    4.6828    0.0626   25.9066 H   0  0  0  0  0  0  0  0  0  0  0  0
  1  2  1  0
  2  3  1  0
  2  4  1  0
  2  5  1  0
  5  6  2  0
  6  7  1  0
  7  8  1  0
  8  9  1  0
  9 10  1  0
 10 11  2  0
 11 12  1  0
 12 13  1  0
 13 14  1  0
 14 15  1  0
 15 16  1  0
 16 17  1  0
 17 18  1  0
 17 19  1  0
 15 20  1  0
 15 21  1  0
 14 22  1  0
 14 23  1  0
 13 24  1  0
 12 25  2  0
 25 26  1  0
 26 27  1  0
 27 28  2  0
 28 29  1  0
 29 30  2  0
 30 31  1  0
 31 32  2  0
 32 33  1  0
 30 34  1  0
 29 35  1  0
 28 36  1  0
  9 37  1  0
  9 38  1  0
  8 39  2  0
 39 40  1  0
  6 41  1  0
 39  5  1  0
 26 10  1  0
 32 27  1  0
 17 13  1  0
M  END
>  <cnnaffinity>  (1) 
-5.88166

>  <filename>  (1) 
FC(F)(F)c1coc(Cc2nc(C3CCOC3)nn2-c2cccnc2)c1

$$$$
