
     RDKit          3D

 35 37  0  0  0  0  0  0  0  0999 V2000
    5.0566    1.8030   16.9859 H   0  0  0  0  0  0  0  0  0  0  0  0
    5.4487    1.2684   17.8472 C   0  0  0  0  0  0  0  0  0  0  0  0
    6.5425    0.5211   17.6277 N   0  0  0  0  0  0  0  0  0  0  0  0
    7.0417   -0.1715   18.6565 C   0  0  0  0  0  0  0  0  0  0  0  0
    7.9363   -0.7639   18.4601 H   0  0  0  0  0  0  0  0  0  0  0  0
    6.4906   -0.1523   19.9519 C   0  0  0  0  0  0  0  0  0  0  0  0
    7.1016   -0.9052   21.0013 N   0  0  0  0  0  0  0  0  0  0  0  0
    6.4693   -1.8852   21.7381 C   0  0  0  0  0  0  0  0  0  0  0  0
    5.4268   -2.0946   21.5526 H   0  0  0  0  0  0  0  0  0  0  0  0
    7.3467   -2.3791   22.6737 C   0  0  0  0  0  0  0  0  0  0  0  0
    7.1361   -3.1433   23.4157 H   0  0  0  0  0  0  0  0  0  0  0  0
    8.5613   -1.6563   22.5099 C   0  0  0  0  0  0  0  0  0  0  0  0
    9.4536   -1.7241   23.1240 H   0  0  0  0  0  0  0  0  0  0  0  0
    8.4079   -0.7696   21.4703 C   0  0  0  0  0  0  0  0  0  0  0  0
    9.4371    0.1436   20.8428 C   0  0  0  0  0  0  0  0  0  0  0  0
   10.0178   -0.4373   20.1124 H   0  0  0  0  0  0  0  0  0  0  0  0
    8.9554    0.9432   20.2806 H   0  0  0  0  0  0  0  0  0  0  0  0
   10.3789    0.7992   21.8401 C   0  0  0  0  0  0  0  0  0  0  0  0
   11.6830    0.3061   21.9926 C   0  0  0  0  0  0  0  0  0  0  0  0
   12.0325   -0.4777   21.3261 H   0  0  0  0  0  0  0  0  0  0  0  0
   12.5442    0.8048   22.9743 C   0  0  0  0  0  0  0  0  0  0  0  0
   13.5508    0.4042   23.0815 H   0  0  0  0  0  0  0  0  0  0  0  0
   12.1048    1.8283   23.8087 C   0  0  0  0  0  0  0  0  0  0  0  0
   12.7544    2.1987   24.5901 H   0  0  0  0  0  0  0  0  0  0  0  0
   10.8358    2.3834   23.6317 C   0  0  0  0  0  0  0  0  0  0  0  0
   10.5423    3.2380   24.2365 H   0  0  0  0  0  0  0  0  0  0  0  0
    9.9643    1.8770   22.6512 C   0  0  0  0  0  0  0  0  0  0  0  0
    8.5594    2.4578   22.5236 C   0  0  0  0  0  0  0  0  0  0  0  0
    7.6144    1.5947   22.9461 F   0  0  0  0  0  0  0  0  0  0  0  0
    8.2304    2.7768   21.2529 F   0  0  0  0  0  0  0  0  0  0  0  0
    8.4041    3.5870   23.2410 F   0  0  0  0  0  0  0  0  0  0  0  0
    5.3456    0.6315   20.1677 C   0  0  0  0  0  0  0  0  0  0  0  0
    4.9187    0.7061   21.1702 H   0  0  0  0  0  0  0  0  0  0  0  0
    4.8149    1.3500   19.0917 C   0  0  0  0  0  0  0  0  0  0  0  0
    3.9296    1.9682   19.2045 H   0  0  0  0  0  0  0  0  0  0  0  0
  1  2  1  0
  2  3  2  0
  3  4  1  0
  4  5  1  0
  4  6  2  0
  6  7  1  0
  7  8  1  0
  8  9  1  0
  8 10  2  0
 10 11  1  0
 10 12  1  0
 12 13  1  0
 12 14  2  0
 14 15  1  0
 15 16  1  0
 15 17  1  0
 15 18  1  0
 18 19  2  0
 19 20  1  0
 19 21  1  0
 21 22  1  0
 21 23  2  0
 23 24  1  0
 23 25  1  0
 25 26  1  0
 25 27  2  0
 27 28  1  0
 28 29  1  0
 28 30  1  0
 28 31  1  0
  6 32  1  0
 32 33  1  0
 32 34  2  0
 34 35  1  0
 34  2  1  0
 14  7  1  0
 27 18  1  0
M  END
>  <cnnaffinity>  (1) 
-5.63282

>  <filename>  (1) 
FC(F)(F)c1ccccc1Cc1cccn1-c1cccnc1

$$$$
