
     RDKit          3D

 34 37  0  0  0  0  0  0  0  0999 V2000
    4.9696    1.8305   16.9489 H   0  0  0  0  0  0  0  0  0  0  0  0
    5.4145    1.2972   17.7836 C   0  0  0  0  0  0  0  0  0  0  0  0
    6.5657    0.6590   17.5287 N   0  0  0  0  0  0  0  0  0  0  0  0
    7.1472    0.0056   18.5398 C   0  0  0  0  0  0  0  0  0  0  0  0
    8.0993   -0.4724   18.3169 H   0  0  0  0  0  0  0  0  0  0  0  0
    6.6095   -0.0491   19.8398 C   0  0  0  0  0  0  0  0  0  0  0  0
    7.3570   -0.6804   20.9382 C   0  0  0  0  0  0  0  0  0  0  0  0
    8.4669   -1.4008   20.7155 N   0  0  0  0  0  0  0  0  0  0  0  0
    8.9010   -1.6673   21.9646 N   0  0  0  0  0  0  0  0  0  0  0  0
   10.0737   -2.1848   22.4986 C   0  0  0  0  0  0  0  0  0  0  0  0
   10.8166   -2.6043   21.8481 H   0  0  0  0  0  0  0  0  0  0  0  0
   10.0143   -1.9790   23.8335 C   0  0  0  0  0  0  0  0  0  0  0  0
   10.7244   -2.1925   24.6210 H   0  0  0  0  0  0  0  0  0  0  0  0
    8.7889   -1.3632   24.1368 N   0  0  0  0  0  0  0  0  0  0  0  0
    8.3209   -0.9417   25.3861 C   0  0  0  0  0  0  0  0  0  0  0  0
    9.2431   -0.7600   26.3364 N   0  0  0  0  0  0  0  0  0  0  0  0
    8.8377   -0.2150   27.4765 C   0  0  0  0  0  0  0  0  0  0  0  0
    9.5827   -0.0890   28.2570 H   0  0  0  0  0  0  0  0  0  0  0  0
    7.5212    0.1596   27.7224 C   0  0  0  0  0  0  0  0  0  0  0  0
    7.2419    0.9021   28.9783 C   0  0  0  0  0  0  0  0  0  0  0  0
    8.2085    0.7251   29.8996 F   0  0  0  0  0  0  0  0  0  0  0  0
    7.1527    2.2319   28.7771 F   0  0  0  0  0  0  0  0  0  0  0  0
    6.0845    0.5063   29.5377 F   0  0  0  0  0  0  0  0  0  0  0  0
    6.5213   -0.1679   26.7859 C   0  0  0  0  0  0  0  0  0  0  0  0
    5.4551   -0.0102   26.9753 H   0  0  0  0  0  0  0  0  0  0  0  0
    6.9408   -0.7428   25.6025 C   0  0  0  0  0  0  0  0  0  0  0  0
    6.2417   -1.0472   24.8319 H   0  0  0  0  0  0  0  0  0  0  0  0
    8.1217   -1.1579   22.9326 C   0  0  0  0  0  0  0  0  0  0  0  0
    7.0654   -0.5126   22.3145 C   0  0  0  0  0  0  0  0  0  0  0  0
    6.2593    0.0516   22.7466 H   0  0  0  0  0  0  0  0  0  0  0  0
    5.3975    0.6187   20.0821 C   0  0  0  0  0  0  0  0  0  0  0  0
    4.9501    0.6407   21.0782 H   0  0  0  0  0  0  0  0  0  0  0  0
    4.7909    1.3017   19.0358 C   0  0  0  0  0  0  0  0  0  0  0  0
    3.8715    1.8556   19.1865 H   0  0  0  0  0  0  0  0  0  0  0  0
  1  2  1  0
  2  3  2  0
  3  4  1  0
  4  5  1  0
  4  6  2  0
  6  7  1  0
  7  8  2  0
  8  9  1  0
  9 10  1  0
 10 11  1  0
 10 12  2  0
 12 13  1  0
 12 14  1  0
 14 15  1  0
 15 16  2  0
 16 17  1  0
 17 18  1  0
 17 19  2  0
 19 20  1  0
 20 21  1  0
 20 22  1  0
 20 23  1  0
 19 24  1  0
 24 25  1  0
 24 26  2  0
 26 27  1  0
 14 28  1  0
 28 29  2  0
 29 30  1  0
  6 31  1  0
 31 32  1  0
 31 33  2  0
 33 34  1  0
 33  2  1  0
 29  7  1  0
 28  9  1  0
 26 15  1  0
M  END
>  <cnnaffinity>  (1) 
-5.39535

>  <filename>  (1) 
FC(F)(F)c1ccc(-n2ccn3nc(-c4cccnc4)cc23)nc1

$$$$
