
     RDKit          3D

 39 43  0  0  0  0  0  0  0  0999 V2000
    8.5006    5.6593   22.9572 F   0  0  0  0  0  0  0  0  0  0  0  0
    7.2764    5.1133   22.8478 C   0  0  0  0  0  0  0  0  0  0  0  0
    6.4973    5.7250   23.7679 F   0  0  0  0  0  0  0  0  0  0  0  0
    6.8023    5.4314   21.6341 F   0  0  0  0  0  0  0  0  0  0  0  0
    7.3013    3.6208   23.0449 C   0  0  0  0  0  0  0  0  0  0  0  0
    7.4432    2.6218   22.1185 C   0  0  0  0  0  0  0  0  0  0  0  0
    7.4579    1.3752   22.8182 C   0  0  0  0  0  0  0  0  0  0  0  0
    7.5174    0.0091   22.2933 C   0  0  0  0  0  0  0  0  0  0  0  0
    7.8467   -1.0697   22.9951 N   0  0  0  0  0  0  0  0  0  0  0  0
    7.8650   -2.0605   22.0714 C   0  0  0  0  0  0  0  0  0  0  0  0
    8.1684   -3.4921   22.2975 C   0  0  0  0  0  0  0  0  0  0  0  0
    8.8486   -4.0393   23.5583 C   0  0  0  0  0  0  0  0  0  0  0  0
    7.4200   -4.3766   23.2538 C   0  0  0  0  0  0  0  0  0  0  0  0
    6.5120   -5.5322   23.0328 C   0  0  0  0  0  0  0  0  0  0  0  0
    6.1185   -4.3903   23.9732 C   0  0  0  0  0  0  0  0  0  0  0  0
    5.3571   -3.6773   23.6644 H   0  0  0  0  0  0  0  0  0  0  0  0
    6.1621   -4.6066   25.0377 H   0  0  0  0  0  0  0  0  0  0  0  0
    6.0037   -5.5808   22.0722 H   0  0  0  0  0  0  0  0  0  0  0  0
    6.7875   -6.4860   23.4696 H   0  0  0  0  0  0  0  0  0  0  0  0
    9.0411   -3.3444   24.3791 H   0  0  0  0  0  0  0  0  0  0  0  0
    9.5914   -4.8197   23.4224 H   0  0  0  0  0  0  0  0  0  0  0  0
    8.3938   -3.9704   21.3448 H   0  0  0  0  0  0  0  0  0  0  0  0
    7.5684   -1.6739   20.8461 N   0  0  0  0  0  0  0  0  0  0  0  0
    7.2928   -0.3514   20.9846 N   0  0  0  0  0  0  0  0  0  0  0  0
    6.6645    0.3202   19.8899 C   0  0  0  0  0  0  0  0  0  0  0  0
    5.4664    1.0299   20.0272 C   0  0  0  0  0  0  0  0  0  0  0  0
    4.8561    1.5291   18.8694 C   0  0  0  0  0  0  0  0  0  0  0  0
    5.4759    1.3162   17.6348 C   0  0  0  0  0  0  0  0  0  0  0  0
    6.6346    0.6478   17.5002 N   0  0  0  0  0  0  0  0  0  0  0  0
    7.2063    0.1559   18.6018 C   0  0  0  0  0  0  0  0  0  0  0  0
    8.1352   -0.3956   18.4725 H   0  0  0  0  0  0  0  0  0  0  0  0
    5.0257    1.6859   16.7159 H   0  0  0  0  0  0  0  0  0  0  0  0
    3.9145    2.0666   18.9164 H   0  0  0  0  0  0  0  0  0  0  0  0
    5.0222    1.1724   21.0123 H   0  0  0  0  0  0  0  0  0  0  0  0
    7.3464    1.6844   24.1561 C   0  0  0  0  0  0  0  0  0  0  0  0
    7.2535    3.0350   24.2926 N   0  0  0  0  0  0  0  0  0  0  0  0
    7.0398    3.5036   25.1613 H   0  0  0  0  0  0  0  0  0  0  0  0
    7.3520    1.0201   25.0116 H   0  0  0  0  0  0  0  0  0  0  0  0
    7.5064    2.7524   21.0446 H   0  0  0  0  0  0  0  0  0  0  0  0
  1  2  1  0
  2  3  1  0
  2  4  1  0
  2  5  1  0
  5  6  2  0
  6  7  1  0
  7  8  1  0
  8  9  2  0
  9 10  1  0
 10 11  1  0
 11 12  1  0
 12 13  1  0
 13 14  1  0
 14 15  1  0
 15 16  1  0
 15 17  1  0
 14 18  1  0
 14 19  1  0
 12 20  1  0
 12 21  1  0
 11 22  1  0
 10 23  2  0
 23 24  1  0
 24 25  1  0
 25 26  2  0
 26 27  1  0
 27 28  2  0
 28 29  1  0
 29 30  2  0
 30 31  1  0
 28 32  1  0
 27 33  1  0
 26 34  1  0
  7 35  2  0
 35 36  1  0
 36 37  1  0
 35 38  1  0
  6 39  1  0
 36  5  1  0
 24  8  1  0
 30 25  1  0
 13 11  1  0
 15 13  1  0
M  END
>  <cnnaffinity>  (1) 
-6.12395

>  <filename>  (1) 
FC(F)(F)c1cc(-c2nc(C3CC34CC4)nn2-c2cccnc2)c[nH]1

$$$$
