
     RDKit          3D

 49 52  0  0  0  0  0  0  0  0999 V2000
    9.4402   -3.8011   26.4857 F   0  0  0  0  0  0  0  0  0  0  0  0
    8.2050   -4.3244   26.1727 C   0  0  0  0  0  0  0  0  0  0  0  0
    7.9099   -5.2306   27.1565 F   0  0  0  0  0  0  0  0  0  0  0  0
    7.1743   -3.2056   26.1921 C   0  0  0  0  0  0  0  0  0  0  0  0
    7.3909   -2.2095   25.0375 C   0  0  0  0  0  0  0  0  0  0  0  0
    7.4332   -2.9492   23.6645 C   0  0  0  0  0  0  0  0  0  0  0  0
    7.6620   -1.9879   22.5364 C   0  0  0  0  0  0  0  0  0  0  0  0
    6.7159   -1.5873   21.7136 N   0  0  0  0  0  0  0  0  0  0  0  0
    7.3497   -0.6539   20.9526 N   0  0  0  0  0  0  0  0  0  0  0  0
    6.6618    0.0115   19.8993 C   0  0  0  0  0  0  0  0  0  0  0  0
    5.4435    0.6471   20.1564 C   0  0  0  0  0  0  0  0  0  0  0  0
    4.8088    1.3127   19.1035 C   0  0  0  0  0  0  0  0  0  0  0  0
    5.4004    1.2969   17.8344 C   0  0  0  0  0  0  0  0  0  0  0  0
    6.5570    0.6677   17.5739 N   0  0  0  0  0  0  0  0  0  0  0  0
    7.1697    0.0482   18.5893 C   0  0  0  0  0  0  0  0  0  0  0  0
    8.1090   -0.4496   18.3517 H   0  0  0  0  0  0  0  0  0  0  0  0
    4.9301    1.8034   16.9942 H   0  0  0  0  0  0  0  0  0  0  0  0
    3.8725    1.8428   19.2541 H   0  0  0  0  0  0  0  0  0  0  0  0
    5.0212    0.5979   21.1599 H   0  0  0  0  0  0  0  0  0  0  0  0
    8.6308   -0.5069   21.4015 C   0  0  0  0  0  0  0  0  0  0  0  0
    9.5329    0.5949   20.9488 C   0  0  0  0  0  0  0  0  0  0  0  0
    9.0591    2.0008   21.3604 C   0  0  0  0  0  0  0  0  0  0  0  0
    8.8942    2.1780   22.8836 C   0  0  0  0  0  0  0  0  0  0  0  0
   10.1146    1.9428   23.6452 N   0  0  0  0  0  0  0  0  0  0  0  0
   11.2494    2.6742   23.5894 C   0  0  0  0  0  0  0  0  0  0  0  0
   12.2163    1.9711   24.2757 C   0  0  0  0  0  0  0  0  0  0  0  0
   11.5365    0.8261   24.7522 C   0  0  0  0  0  0  0  0  0  0  0  0
   10.2741    0.8256   24.3616 N   0  0  0  0  0  0  0  0  0  0  0  0
   11.8923    0.0001   25.3595 H   0  0  0  0  0  0  0  0  0  0  0  0
   13.2726    2.1836   24.3464 H   0  0  0  0  0  0  0  0  0  0  0  0
   11.2299    3.6291   23.0798 H   0  0  0  0  0  0  0  0  0  0  0  0
    8.5500    3.1958   23.1068 H   0  0  0  0  0  0  0  0  0  0  0  0
    8.1698    1.4578   23.2769 H   0  0  0  0  0  0  0  0  0  0  0  0
    8.1023    2.2303   20.8745 H   0  0  0  0  0  0  0  0  0  0  0  0
    9.7798    2.7351   20.9861 H   0  0  0  0  0  0  0  0  0  0  0  0
    9.5900    0.5313   19.8591 H   0  0  0  0  0  0  0  0  0  0  0  0
   10.5315    0.3909   21.3440 H   0  0  0  0  0  0  0  0  0  0  0  0
    8.8684   -1.3855   22.3500 N   0  0  0  0  0  0  0  0  0  0  0  0
    8.5161   -4.0586   23.6752 C   0  0  0  0  0  0  0  0  0  0  0  0
    8.2923   -5.0434   24.8343 C   0  0  0  0  0  0  0  0  0  0  0  0
    9.0919   -5.7887   24.9035 H   0  0  0  0  0  0  0  0  0  0  0  0
    7.3452   -5.5828   24.6972 H   0  0  0  0  0  0  0  0  0  0  0  0
    8.5151   -4.5913   22.7166 H   0  0  0  0  0  0  0  0  0  0  0  0
    9.5063   -3.5882   23.7666 H   0  0  0  0  0  0  0  0  0  0  0  0
    6.4454   -3.3982   23.4846 H   0  0  0  0  0  0  0  0  0  0  0  0
    6.5906   -1.4569   25.0421 H   0  0  0  0  0  0  0  0  0  0  0  0
    8.3360   -1.6608   25.1838 H   0  0  0  0  0  0  0  0  0  0  0  0
    6.1864   -3.6786   26.1061 H   0  0  0  0  0  0  0  0  0  0  0  0
    7.2229   -2.7220   27.1739 H   0  0  0  0  0  0  0  0  0  0  0  0
  1  2  1  0
  2  3  1  0
  2  4  1  0
  4  5  1  0
  5  6  1  0
  6  7  1  0
  7  8  2  0
  8  9  1  0
  9 10  1  0
 10 11  2  0
 11 12  1  0
 12 13  2  0
 13 14  1  0
 14 15  2  0
 15 16  1  0
 13 17  1  0
 12 18  1  0
 11 19  1  0
  9 20  1  0
 20 21  1  0
 21 22  1  0
 22 23  1  0
 23 24  1  0
 24 25  1  0
 25 26  2  0
 26 27  1  0
 27 28  2  0
 27 29  1  0
 26 30  1  0
 25 31  1  0
 23 32  1  0
 23 33  1  0
 22 34  1  0
 22 35  1  0
 21 36  1  0
 21 37  1  0
 20 38  2  0
  6 39  1  0
 39 40  1  0
 40 41  1  0
 40 42  1  0
 39 43  1  0
 39 44  1  0
  6 45  1  0
  5 46  1  0
  5 47  1  0
  4 48  1  0
  4 49  1  0
 40  2  1  0
 38  7  1  0
 15 10  1  0
 28 24  1  0
M  END
>  <cnnaffinity>  (1) 
-6.47361

>  <filename>  (1) 
FC1(F)CCC(c2nc(CCCn3cccn3)n(-c3cccnc3)n2)CC1

$$$$
