
     RDKit          3D

 46 49  0  0  0  0  0  0  0  0999 V2000
    5.4284   -5.5616   26.3890 F   0  0  0  0  0  0  0  0  0  0  0  0
    5.6046   -4.6797   25.3567 C   0  0  0  0  0  0  0  0  0  0  0  0
    4.3488   -4.4359   24.8488 F   0  0  0  0  0  0  0  0  0  0  0  0
    6.1804   -3.3747   25.8856 C   0  0  0  0  0  0  0  0  0  0  0  0
    6.4707   -2.3849   24.7496 C   0  0  0  0  0  0  0  0  0  0  0  0
    7.3433   -3.0240   23.6337 C   0  0  0  0  0  0  0  0  0  0  0  0
    7.6253   -2.0408   22.5362 C   0  0  0  0  0  0  0  0  0  0  0  0
    6.7362   -1.6804   21.6254 N   0  0  0  0  0  0  0  0  0  0  0  0
    7.3908   -0.7246   20.9110 N   0  0  0  0  0  0  0  0  0  0  0  0
    6.6928   -0.0351   19.8688 C   0  0  0  0  0  0  0  0  0  0  0  0
    5.4678    0.5915   20.1327 C   0  0  0  0  0  0  0  0  0  0  0  0
    4.8449    1.3068   19.1031 C   0  0  0  0  0  0  0  0  0  0  0  0
    5.4499    1.3268   17.8407 C   0  0  0  0  0  0  0  0  0  0  0  0
    6.5864    0.6720   17.5606 N   0  0  0  0  0  0  0  0  0  0  0  0
    7.1873    0.0020   18.5525 C   0  0  0  0  0  0  0  0  0  0  0  0
    8.0903   -0.5507   18.2883 H   0  0  0  0  0  0  0  0  0  0  0  0
    4.9989    1.8748   17.0170 H   0  0  0  0  0  0  0  0  0  0  0  0
    3.9113    1.8397   19.2607 H   0  0  0  0  0  0  0  0  0  0  0  0
    5.0119    0.4731   21.1153 H   0  0  0  0  0  0  0  0  0  0  0  0
    8.6344   -0.5457   21.4581 C   0  0  0  0  0  0  0  0  0  0  0  0
    9.6349    0.5161   21.1194 C   0  0  0  0  0  0  0  0  0  0  0  0
    9.7094    1.6413   22.1939 C   0  0  0  0  0  0  0  0  0  0  0  0
    8.4340    2.4141   22.3142 C   0  0  0  0  0  0  0  0  0  0  0  0
    8.1486    3.5263   21.6993 N   0  0  0  0  0  0  0  0  0  0  0  0
    6.8360    3.7931   21.9925 C   0  0  0  0  0  0  0  0  0  0  0  0
    6.3163    2.8258   22.8120 C   0  0  0  0  0  0  0  0  0  0  0  0
    7.3624    1.9383   23.0051 N   0  0  0  0  0  0  0  0  0  0  0  0
    7.4072    1.0973   23.5566 H   0  0  0  0  0  0  0  0  0  0  0  0
    5.3345    2.7095   23.2483 H   0  0  0  0  0  0  0  0  0  0  0  0
    6.3499    4.6726   21.5835 H   0  0  0  0  0  0  0  0  0  0  0  0
    9.9586    1.2240   23.1766 H   0  0  0  0  0  0  0  0  0  0  0  0
   10.4960    2.3505   21.9270 H   0  0  0  0  0  0  0  0  0  0  0  0
   10.6095    0.0236   21.0339 H   0  0  0  0  0  0  0  0  0  0  0  0
    9.4024    0.9512   20.1447 H   0  0  0  0  0  0  0  0  0  0  0  0
    8.7998   -1.3700   22.4760 N   0  0  0  0  0  0  0  0  0  0  0  0
    6.7345   -4.3475   23.1140 C   0  0  0  0  0  0  0  0  0  0  0  0
    6.4537   -5.3216   24.2689 C   0  0  0  0  0  0  0  0  0  0  0  0
    7.3916   -5.6387   24.7400 H   0  0  0  0  0  0  0  0  0  0  0  0
    5.9427   -6.2237   23.9190 H   0  0  0  0  0  0  0  0  0  0  0  0
    5.8060   -4.1339   22.5697 H   0  0  0  0  0  0  0  0  0  0  0  0
    7.4169   -4.8179   22.3967 H   0  0  0  0  0  0  0  0  0  0  0  0
    8.3251   -3.2441   24.0686 H   0  0  0  0  0  0  0  0  0  0  0  0
    6.9717   -1.4979   25.1570 H   0  0  0  0  0  0  0  0  0  0  0  0
    5.5222   -2.0428   24.3233 H   0  0  0  0  0  0  0  0  0  0  0  0
    7.0997   -3.6185   26.4294 H   0  0  0  0  0  0  0  0  0  0  0  0
    5.4762   -2.9543   26.6109 H   0  0  0  0  0  0  0  0  0  0  0  0
  1  2  1  0
  2  3  1  0
  2  4  1  0
  4  5  1  0
  5  6  1  0
  6  7  1  0
  7  8  2  0
  8  9  1  0
  9 10  1  0
 10 11  2  0
 11 12  1  0
 12 13  2  0
 13 14  1  0
 14 15  2  0
 15 16  1  0
 13 17  1  0
 12 18  1  0
 11 19  1  0
  9 20  1  0
 20 21  1  0
 21 22  1  0
 22 23  1  0
 23 24  2  0
 24 25  1  0
 25 26  2  0
 26 27  1  0
 27 28  1  0
 26 29  1  0
 25 30  1  0
 22 31  1  0
 22 32  1  0
 21 33  1  0
 21 34  1  0
 20 35  2  0
  6 36  1  0
 36 37  1  0
 37 38  1  0
 37 39  1  0
 36 40  1  0
 36 41  1  0
  6 42  1  0
  5 43  1  0
  5 44  1  0
  4 45  1  0
  4 46  1  0
 37  2  1  0
 35  7  1  0
 15 10  1  0
 27 23  1  0
M  END
>  <cnnaffinity>  (1) 
-6.22738

>  <filename>  (1) 
FC1(F)CCC(c2nc(CCc3ncc[nH]3)n(-c3cccnc3)n2)CC1

$$$$
