
     RDKit          3D

 49 52  0  0  0  0  0  0  0  0999 V2000
    4.6989   -4.2110   25.4746 F   0  0  0  0  0  0  0  0  0  0  0  0
    4.7156   -3.1869   24.5479 C   0  0  0  0  0  0  0  0  0  0  0  0
    3.4306   -2.7196   24.4873 F   0  0  0  0  0  0  0  0  0  0  0  0
    5.6514   -2.1011   25.0744 C   0  0  0  0  0  0  0  0  0  0  0  0
    7.1244   -2.5377   25.0298 C   0  0  0  0  0  0  0  0  0  0  0  0
    7.5275   -3.0987   23.6370 C   0  0  0  0  0  0  0  0  0  0  0  0
    7.6412   -2.0218   22.5829 C   0  0  0  0  0  0  0  0  0  0  0  0
    6.7113   -1.6168   21.7282 N   0  0  0  0  0  0  0  0  0  0  0  0
    7.3522   -0.6794   20.9815 N   0  0  0  0  0  0  0  0  0  0  0  0
    6.6665   -0.0215   19.9201 C   0  0  0  0  0  0  0  0  0  0  0  0
    5.4577    0.6225   20.1836 C   0  0  0  0  0  0  0  0  0  0  0  0
    4.8342    1.3031   19.1315 C   0  0  0  0  0  0  0  0  0  0  0  0
    5.4232    1.3017   17.8618 C   0  0  0  0  0  0  0  0  0  0  0  0
    6.5591    0.6419   17.5894 N   0  0  0  0  0  0  0  0  0  0  0  0
    7.1549   -0.0086   18.5975 C   0  0  0  0  0  0  0  0  0  0  0  0
    8.0652   -0.5474   18.3438 H   0  0  0  0  0  0  0  0  0  0  0  0
    4.9616    1.8346   17.0302 H   0  0  0  0  0  0  0  0  0  0  0  0
    3.9059    1.8359   19.2906 H   0  0  0  0  0  0  0  0  0  0  0  0
    5.0376    0.5815   21.1921 H   0  0  0  0  0  0  0  0  0  0  0  0
    8.6193   -0.5220   21.4654 C   0  0  0  0  0  0  0  0  0  0  0  0
    9.5579    0.5309   20.9976 C   0  0  0  0  0  0  0  0  0  0  0  0
    9.2545    1.9257   21.5522 C   0  0  0  0  0  0  0  0  0  0  0  0
    9.4860    1.9859   22.9505 O   0  0  0  0  0  0  0  0  0  0  0  0
    8.5038    1.7041   23.8517 C   0  0  0  0  0  0  0  0  0  0  0  0
    8.9449    1.5791   25.1778 C   0  0  0  0  0  0  0  0  0  0  0  0
    8.0034    1.3367   26.1732 C   0  0  0  0  0  0  0  0  0  0  0  0
    6.6526    1.2296   25.8270 C   0  0  0  0  0  0  0  0  0  0  0  0
    6.2081    1.3416   24.5684 N   0  0  0  0  0  0  0  0  0  0  0  0
    7.1224    1.5570   23.6004 C   0  0  0  0  0  0  0  0  0  0  0  0
    6.7267    1.6084   22.5871 H   0  0  0  0  0  0  0  0  0  0  0  0
    5.8918    1.0748   26.5885 H   0  0  0  0  0  0  0  0  0  0  0  0
    8.3061    1.2461   27.2101 H   0  0  0  0  0  0  0  0  0  0  0  0
   10.0109    1.6902   25.3737 H   0  0  0  0  0  0  0  0  0  0  0  0
    8.2333    2.2522   21.3147 H   0  0  0  0  0  0  0  0  0  0  0  0
    9.9490    2.6513   21.1241 H   0  0  0  0  0  0  0  0  0  0  0  0
    9.5471    0.5799   19.9068 H   0  0  0  0  0  0  0  0  0  0  0  0
   10.5571    0.2293   21.3168 H   0  0  0  0  0  0  0  0  0  0  0  0
    8.8352   -1.3842   22.4372 N   0  0  0  0  0  0  0  0  0  0  0  0
    6.5810   -4.2546   23.2372 C   0  0  0  0  0  0  0  0  0  0  0  0
    5.1126   -3.7906   23.2068 C   0  0  0  0  0  0  0  0  0  0  0  0
    4.9845   -3.0308   22.4293 H   0  0  0  0  0  0  0  0  0  0  0  0
    4.4357   -4.6270   23.0022 H   0  0  0  0  0  0  0  0  0  0  0  0
    6.8812   -4.6780   22.2713 H   0  0  0  0  0  0  0  0  0  0  0  0
    6.6866   -5.0620   23.9768 H   0  0  0  0  0  0  0  0  0  0  0  0
    8.5499   -3.4795   23.7148 H   0  0  0  0  0  0  0  0  0  0  0  0
    7.7827   -1.7074   25.3170 H   0  0  0  0  0  0  0  0  0  0  0  0
    7.2887   -3.3304   25.7723 H   0  0  0  0  0  0  0  0  0  0  0  0
    5.3416   -1.8873   26.1014 H   0  0  0  0  0  0  0  0  0  0  0  0
    5.4995   -1.1847   24.4986 H   0  0  0  0  0  0  0  0  0  0  0  0
  1  2  1  0
  2  3  1  0
  2  4  1  0
  4  5  1  0
  5  6  1  0
  6  7  1  0
  7  8  2  0
  8  9  1  0
  9 10  1  0
 10 11  2  0
 11 12  1  0
 12 13  2  0
 13 14  1  0
 14 15  2  0
 15 16  1  0
 13 17  1  0
 12 18  1  0
 11 19  1  0
  9 20  1  0
 20 21  1  0
 21 22  1  0
 22 23  1  0
 23 24  1  0
 24 25  2  0
 25 26  1  0
 26 27  2  0
 27 28  1  0
 28 29  2  0
 29 30  1  0
 27 31  1  0
 26 32  1  0
 25 33  1  0
 22 34  1  0
 22 35  1  0
 21 36  1  0
 21 37  1  0
 20 38  2  0
  6 39  1  0
 39 40  1  0
 40 41  1  0
 40 42  1  0
 39 43  1  0
 39 44  1  0
  6 45  1  0
  5 46  1  0
  5 47  1  0
  4 48  1  0
  4 49  1  0
 40  2  1  0
 38  7  1  0
 15 10  1  0
 29 24  1  0
M  END
>  <cnnaffinity>  (1) 
-6.13742

>  <filename>  (1) 
FC1(F)CCC(c2nc(CCOc3cccnc3)n(-c3cccnc3)n2)CC1

$$$$
