
     RDKit          3D

 45 48  0  0  0  0  0  0  0  0999 V2000
    5.4358   -5.2690   26.5602 F   0  0  0  0  0  0  0  0  0  0  0  0
    5.6251   -4.4136   25.5082 C   0  0  0  0  0  0  0  0  0  0  0  0
    4.3666   -4.1090   25.0464 F   0  0  0  0  0  0  0  0  0  0  0  0
    6.3943   -5.1184   24.3999 C   0  0  0  0  0  0  0  0  0  0  0  0
    6.6924   -4.1739   23.2297 C   0  0  0  0  0  0  0  0  0  0  0  0
    7.4000   -2.8878   23.7084 C   0  0  0  0  0  0  0  0  0  0  0  0
    7.6704   -1.9489   22.5718 C   0  0  0  0  0  0  0  0  0  0  0  0
    6.7368   -1.5917   21.7084 N   0  0  0  0  0  0  0  0  0  0  0  0
    7.3669   -0.6757   20.9327 N   0  0  0  0  0  0  0  0  0  0  0  0
    6.6569   -0.0001   19.8986 C   0  0  0  0  0  0  0  0  0  0  0  0
    5.4387    0.6375   20.1673 C   0  0  0  0  0  0  0  0  0  0  0  0
    4.8131    1.3084   19.1099 C   0  0  0  0  0  0  0  0  0  0  0  0
    5.4012    1.2959   17.8379 C   0  0  0  0  0  0  0  0  0  0  0  0
    6.5600    0.6733   17.5760 N   0  0  0  0  0  0  0  0  0  0  0  0
    7.1673    0.0513   18.5913 C   0  0  0  0  0  0  0  0  0  0  0  0
    8.1126   -0.4336   18.3668 H   0  0  0  0  0  0  0  0  0  0  0  0
    4.9197    1.7859   16.9933 H   0  0  0  0  0  0  0  0  0  0  0  0
    3.8807    1.8397   19.2607 H   0  0  0  0  0  0  0  0  0  0  0  0
    5.0177    0.6107   21.1772 H   0  0  0  0  0  0  0  0  0  0  0  0
    8.6408   -0.5202   21.3923 C   0  0  0  0  0  0  0  0  0  0  0  0
    9.5192    0.6030   20.9415 C   0  0  0  0  0  0  0  0  0  0  0  0
    9.0371    1.9988   21.4479 C   0  0  0  0  0  0  0  0  0  0  0  0
    8.9471    2.0703   22.9531 C   0  0  0  0  0  0  0  0  0  0  0  0
    7.8268    1.8946   23.6075 N   0  0  0  0  0  0  0  0  0  0  0  0
    8.1601    1.8635   24.9452 O   0  0  0  0  0  0  0  0  0  0  0  0
    9.4834    2.0374   25.0695 C   0  0  0  0  0  0  0  0  0  0  0  0
   10.0524    2.1697   23.8505 C   0  0  0  0  0  0  0  0  0  0  0  0
   11.0918    2.3050   23.6012 H   0  0  0  0  0  0  0  0  0  0  0  0
    9.8567    2.0703   26.0840 H   0  0  0  0  0  0  0  0  0  0  0  0
    9.7512    2.7579   21.1191 H   0  0  0  0  0  0  0  0  0  0  0  0
    8.0663    2.2458   21.0049 H   0  0  0  0  0  0  0  0  0  0  0  0
    9.5798    0.6096   19.8512 H   0  0  0  0  0  0  0  0  0  0  0  0
   10.5222    0.3823   21.3179 H   0  0  0  0  0  0  0  0  0  0  0  0
    8.8684   -1.3366   22.4050 N   0  0  0  0  0  0  0  0  0  0  0  0
    6.5990   -2.1804   24.8319 C   0  0  0  0  0  0  0  0  0  0  0  0
    6.2948   -3.1354   25.9926 C   0  0  0  0  0  0  0  0  0  0  0  0
    5.6512   -2.6627   26.7412 H   0  0  0  0  0  0  0  0  0  0  0  0
    7.2211   -3.4317   26.4957 H   0  0  0  0  0  0  0  0  0  0  0  0
    7.1499   -1.3067   25.2006 H   0  0  0  0  0  0  0  0  0  0  0  0
    5.6594   -1.8060   24.4137 H   0  0  0  0  0  0  0  0  0  0  0  0
    8.3824   -3.1500   24.1103 H   0  0  0  0  0  0  0  0  0  0  0  0
    7.3084   -4.6889   22.4837 H   0  0  0  0  0  0  0  0  0  0  0  0
    5.7584   -3.8913   22.7289 H   0  0  0  0  0  0  0  0  0  0  0  0
    5.8196   -5.9903   24.0732 H   0  0  0  0  0  0  0  0  0  0  0  0
    7.3264   -5.4855   24.8434 H   0  0  0  0  0  0  0  0  0  0  0  0
  1  2  1  0
  2  3  1  0
  2  4  1  0
  4  5  1  0
  5  6  1  0
  6  7  1  0
  7  8  2  0
  8  9  1  0
  9 10  1  0
 10 11  2  0
 11 12  1  0
 12 13  2  0
 13 14  1  0
 14 15  2  0
 15 16  1  0
 13 17  1  0
 12 18  1  0
 11 19  1  0
  9 20  1  0
 20 21  1  0
 21 22  1  0
 22 23  1  0
 23 24  2  0
 24 25  1  0
 25 26  1  0
 26 27  2  0
 27 28  1  0
 26 29  1  0
 22 30  1  0
 22 31  1  0
 21 32  1  0
 21 33  1  0
 20 34  2  0
  6 35  1  0
 35 36  1  0
 36 37  1  0
 36 38  1  0
 35 39  1  0
 35 40  1  0
  6 41  1  0
  5 42  1  0
  5 43  1  0
  4 44  1  0
  4 45  1  0
 36  2  1  0
 34  7  1  0
 15 10  1  0
 27 23  1  0
M  END
>  <cnnaffinity>  (1) 
-5.90175

>  <filename>  (1) 
FC1(F)CCC(c2nc(CCc3ccon3)n(-c3cccnc3)n2)CC1

$$$$
