
     RDKit          3D

 55 58  0  0  0  0  0  0  0  0999 V2000
    4.7179   -5.1877   25.5070 F   0  0  0  0  0  0  0  0  0  0  0  0
    4.8798   -3.9531   24.9278 C   0  0  0  0  0  0  0  0  0  0  0  0
    3.6549   -3.3420   25.0107 F   0  0  0  0  0  0  0  0  0  0  0  0
    5.2371   -4.1349   23.4465 C   0  0  0  0  0  0  0  0  0  0  0  0
    6.7573   -4.1903   23.2440 C   0  0  0  0  0  0  0  0  0  0  0  0
    7.4435   -2.8740   23.7231 C   0  0  0  0  0  0  0  0  0  0  0  0
    7.6832   -1.9157   22.5905 C   0  0  0  0  0  0  0  0  0  0  0  0
    6.7498   -1.5754   21.7206 N   0  0  0  0  0  0  0  0  0  0  0  0
    7.3768   -0.6567   20.9417 N   0  0  0  0  0  0  0  0  0  0  0  0
    6.6631    0.0093   19.9058 C   0  0  0  0  0  0  0  0  0  0  0  0
    5.4421    0.6422   20.1677 C   0  0  0  0  0  0  0  0  0  0  0  0
    4.8133    1.3103   19.1118 C   0  0  0  0  0  0  0  0  0  0  0  0
    5.4000    1.2968   17.8393 C   0  0  0  0  0  0  0  0  0  0  0  0
    6.5610    0.6761   17.5805 N   0  0  0  0  0  0  0  0  0  0  0  0
    7.1712    0.0539   18.5951 C   0  0  0  0  0  0  0  0  0  0  0  0
    8.1147   -0.4364   18.3670 H   0  0  0  0  0  0  0  0  0  0  0  0
    4.9196    1.7857   16.9946 H   0  0  0  0  0  0  0  0  0  0  0  0
    3.8782    1.8376   19.2577 H   0  0  0  0  0  0  0  0  0  0  0  0
    5.0119    0.6049   21.1725 H   0  0  0  0  0  0  0  0  0  0  0  0
    8.6398   -0.4652   21.4203 C   0  0  0  0  0  0  0  0  0  0  0  0
    9.5370    0.6198   20.9225 C   0  0  0  0  0  0  0  0  0  0  0  0
    9.0213    2.0410   21.2266 C   0  0  0  0  0  0  0  0  0  0  0  0
    8.8458    2.2689   22.7194 C   0  0  0  0  0  0  0  0  0  0  0  0
    8.3303    3.6235   23.0238 N   0  0  0  0  0  4  0  0  0  0  0  0
    6.9170    3.8764   22.5348 C   0  0  0  0  0  0  0  0  0  0  0  0
    6.3204    4.9117   23.4945 C   0  0  0  0  0  0  0  0  0  0  0  0
    7.2989    5.0302   24.6841 C   0  0  0  0  0  0  0  0  0  0  0  0
    8.3352    3.9253   24.4920 C   0  0  0  0  0  0  0  0  0  0  0  0
    9.3389    4.2023   24.8284 H   0  0  0  0  0  0  0  0  0  0  0  0
    8.0462    3.0135   25.0272 H   0  0  0  0  0  0  0  0  0  0  0  0
    6.7940    4.9168   25.6479 H   0  0  0  0  0  0  0  0  0  0  0  0
    7.7860    6.0094   24.6936 H   0  0  0  0  0  0  0  0  0  0  0  0
    6.1929    5.8746   22.9921 H   0  0  0  0  0  0  0  0  0  0  0  0
    5.3259    4.5870   23.8121 H   0  0  0  0  0  0  0  0  0  0  0  0
    6.3761    2.9254   22.5735 H   0  0  0  0  0  0  0  0  0  0  0  0
    6.9258    4.2131   21.4939 H   0  0  0  0  0  0  0  0  0  0  0  0
    8.9626    4.3018   22.5384 H   0  0  0  0  0  0  0  0  0  0  0  0
    9.7986    2.0924   23.2405 H   0  0  0  0  0  0  0  0  0  0  0  0
    8.1441    1.5326   23.1317 H   0  0  0  0  0  0  0  0  0  0  0  0
    9.7336    2.7838   20.8550 H   0  0  0  0  0  0  0  0  0  0  0  0
    8.0725    2.2115   20.7011 H   0  0  0  0  0  0  0  0  0  0  0  0
    9.6523    0.4959   19.8438 H   0  0  0  0  0  0  0  0  0  0  0  0
   10.5168    0.4589   21.3829 H   0  0  0  0  0  0  0  0  0  0  0  0
    8.8626   -1.2619   22.4506 N   0  0  0  0  0  0  0  0  0  0  0  0
    6.6579   -2.1526   24.8687 C   0  0  0  0  0  0  0  0  0  0  0  0
    5.9069   -3.1572   25.7480 C   0  0  0  0  0  0  0  0  0  0  0  0
    5.3933   -2.6664   26.5794 H   0  0  0  0  0  0  0  0  0  0  0  0
    6.6111   -3.8742   26.1852 H   0  0  0  0  0  0  0  0  0  0  0  0
    7.3497   -1.5544   25.4700 H   0  0  0  0  0  0  0  0  0  0  0  0
    5.9338   -1.4451   24.4421 H   0  0  0  0  0  0  0  0  0  0  0  0
    8.4375   -3.1264   24.1007 H   0  0  0  0  0  0  0  0  0  0  0  0
    6.9893   -4.3805   22.1907 H   0  0  0  0  0  0  0  0  0  0  0  0
    7.1667   -5.0419   23.8033 H   0  0  0  0  0  0  0  0  0  0  0  0
    4.7470   -5.0406   23.0773 H   0  0  0  0  0  0  0  0  0  0  0  0
    4.8286   -3.2843   22.8892 H   0  0  0  0  0  0  0  0  0  0  0  0
  1  2  1  0
  2  3  1  0
  2  4  1  0
  4  5  1  0
  5  6  1  0
  6  7  1  0
  7  8  2  0
  8  9  1  0
  9 10  1  0
 10 11  2  0
 11 12  1  0
 12 13  2  0
 13 14  1  0
 14 15  2  0
 15 16  1  0
 13 17  1  0
 12 18  1  0
 11 19  1  0
  9 20  1  0
 20 21  1  0
 21 22  1  0
 22 23  1  0
 23 24  1  0
 24 25  1  0
 25 26  1  0
 26 27  1  0
 27 28  1  0
 28 29  1  0
 28 30  1  0
 27 31  1  0
 27 32  1  0
 26 33  1  0
 26 34  1  0
 25 35  1  0
 25 36  1  0
 24 37  1  0
 23 38  1  0
 23 39  1  0
 22 40  1  0
 22 41  1  0
 21 42  1  0
 21 43  1  0
 20 44  2  0
  6 45  1  0
 45 46  1  0
 46 47  1  0
 46 48  1  0
 45 49  1  0
 45 50  1  0
  6 51  1  0
  5 52  1  0
  5 53  1  0
  4 54  1  0
  4 55  1  0
 46  2  1  0
 44  7  1  0
 15 10  1  0
 28 24  1  0
M  CHG  1  24   1
M  END
>  <cnnaffinity>  (1) 
-5.99181

>  <filename>  (1) 
FC1(F)CCC(c2nc(CCC[NH+]3CCCC3)n(-c3cccnc3)n2)CC1

$$$$
