
     RDKit          3D

 42 45  0  0  0  0  0  0  0  0999 V2000
   13.1561    1.1821   21.9988 F   0  0  0  0  0  0  0  0  0  0  0  0
   13.1573    0.0581   22.7959 C   0  0  0  0  0  0  0  0  0  0  0  0
   14.4428   -0.1039   23.2331 F   0  0  0  0  0  0  0  0  0  0  0  0
   12.7651   -1.1312   21.9225 C   0  0  0  0  0  0  0  0  0  0  0  0
   11.2819   -1.1003   21.5430 C   0  0  0  0  0  0  0  0  0  0  0  0
   10.3583   -0.8425   22.7656 C   0  0  0  0  0  0  0  0  0  0  0  0
    8.9475   -0.7719   22.2738 C   0  0  0  0  0  0  0  0  0  0  0  0
    8.5615    0.1819   21.4450 N   0  0  0  0  0  0  0  0  0  0  0  0
    7.2778   -0.1585   21.1574 N   0  0  0  0  0  0  0  0  0  0  0  0
    6.6386    0.4527   20.0370 C   0  0  0  0  0  0  0  0  0  0  0  0
    5.3711    1.0438   20.0912 C   0  0  0  0  0  0  0  0  0  0  0  0
    4.8406    1.5574   18.9002 C   0  0  0  0  0  0  0  0  0  0  0  0
    5.5769    1.4382   17.7172 C   0  0  0  0  0  0  0  0  0  0  0  0
    6.7925    0.8652   17.6603 N   0  0  0  0  0  0  0  0  0  0  0  0
    7.3134    0.4102   18.8024 C   0  0  0  0  0  0  0  0  0  0  0  0
    8.2962   -0.0517   18.7544 H   0  0  0  0  0  0  0  0  0  0  0  0
    5.1757    1.8020   16.7738 H   0  0  0  0  0  0  0  0  0  0  0  0
    3.8765    2.0546   18.8818 H   0  0  0  0  0  0  0  0  0  0  0  0
    4.8222    1.1134   21.0330 H   0  0  0  0  0  0  0  0  0  0  0  0
    6.9944   -1.3337   21.7926 C   0  0  0  0  0  0  0  0  0  0  0  0
    5.7218   -2.0574   21.6138 C   0  0  0  0  0  0  0  0  0  0  0  0
    5.6867   -2.8684   20.3805 C   0  0  0  0  0  0  0  0  0  0  0  0
    5.9899   -4.1304   20.3319 N   0  0  0  0  0  0  0  0  0  0  0  0
    5.8111   -4.5000   19.0247 O   0  0  0  0  0  0  0  0  0  0  0  0
    5.3917   -3.4361   18.3270 C   0  0  0  0  0  0  0  0  0  0  0  0
    5.2633   -2.3694   19.1273 C   0  0  0  0  0  0  0  0  0  0  0  0
    4.8604   -1.3915   18.9313 H   0  0  0  0  0  0  0  0  0  0  0  0
    5.2181   -3.5647   17.2783 H   0  0  0  0  0  0  0  0  0  0  0  0
    5.5189   -2.6711   22.4930 H   0  0  0  0  0  0  0  0  0  0  0  0
    4.9571   -1.2987   21.4552 H   0  0  0  0  0  0  0  0  0  0  0  0
    8.0174   -1.7318   22.5139 N   0  0  0  0  0  0  0  0  0  0  0  0
   10.7699    0.4357   23.5380 C   0  0  0  0  0  0  0  0  0  0  0  0
   12.2421    0.3831   23.9731 C   0  0  0  0  0  0  0  0  0  0  0  0
   12.5637    1.3544   24.3600 H   0  0  0  0  0  0  0  0  0  0  0  0
   12.3859   -0.3282   24.7914 H   0  0  0  0  0  0  0  0  0  0  0  0
   10.6052    1.3046   22.8861 H   0  0  0  0  0  0  0  0  0  0  0  0
   10.1265    0.5796   24.4164 H   0  0  0  0  0  0  0  0  0  0  0  0
   10.3994   -1.7064   23.4399 H   0  0  0  0  0  0  0  0  0  0  0  0
   11.0919   -0.3131   20.8004 H   0  0  0  0  0  0  0  0  0  0  0  0
   10.9902   -2.0481   21.0726 H   0  0  0  0  0  0  0  0  0  0  0  0
   13.3934   -1.1071   21.0271 H   0  0  0  0  0  0  0  0  0  0  0  0
   13.0118   -2.0633   22.4376 H   0  0  0  0  0  0  0  0  0  0  0  0
  1  2  1  0
  2  3  1  0
  2  4  1  0
  4  5  1  0
  5  6  1  0
  6  7  1  0
  7  8  2  0
  8  9  1  0
  9 10  1  0
 10 11  2  0
 11 12  1  0
 12 13  2  0
 13 14  1  0
 14 15  2  0
 15 16  1  0
 13 17  1  0
 12 18  1  0
 11 19  1  0
  9 20  1  0
 20 21  1  0
 21 22  1  0
 22 23  2  0
 23 24  1  0
 24 25  1  0
 25 26  2  0
 26 27  1  0
 25 28  1  0
 21 29  1  0
 21 30  1  0
 20 31  2  0
  6 32  1  0
 32 33  1  0
 33 34  1  0
 33 35  1  0
 32 36  1  0
 32 37  1  0
  6 38  1  0
  5 39  1  0
  5 40  1  0
  4 41  1  0
  4 42  1  0
 33  2  1  0
 31  7  1  0
 15 10  1  0
 26 22  1  0
M  END
>  <cnnaffinity>  (1) 
-5.82353

>  <filename>  (1) 
FC1(F)CCC(c2nc(Cc3ccon3)n(-c3cccnc3)n2)CC1

$$$$
