
     RDKit          3D

 45 48  0  0  0  0  0  0  0  0999 V2000
    5.4155   -5.0845   26.6940 F   0  0  0  0  0  0  0  0  0  0  0  0
    5.6092   -4.2581   25.6204 C   0  0  0  0  0  0  0  0  0  0  0  0
    4.3513   -3.9170   25.1805 F   0  0  0  0  0  0  0  0  0  0  0  0
    6.3289   -5.0115   24.5093 C   0  0  0  0  0  0  0  0  0  0  0  0
    6.6322   -4.1007   23.3137 C   0  0  0  0  0  0  0  0  0  0  0  0
    7.3971   -2.8327   23.7502 C   0  0  0  0  0  0  0  0  0  0  0  0
    7.6709   -1.9205   22.5909 C   0  0  0  0  0  0  0  0  0  0  0  0
    6.7366   -1.5754   21.7216 N   0  0  0  0  0  0  0  0  0  0  0  0
    7.3684   -0.6644   20.9370 N   0  0  0  0  0  0  0  0  0  0  0  0
    6.6597    0.0046   19.9015 C   0  0  0  0  0  0  0  0  0  0  0  0
    5.4408    0.6417   20.1642 C   0  0  0  0  0  0  0  0  0  0  0  0
    4.8115    1.3101   19.1096 C   0  0  0  0  0  0  0  0  0  0  0  0
    5.4004    1.2956   17.8388 C   0  0  0  0  0  0  0  0  0  0  0  0
    6.5610    0.6743   17.5787 N   0  0  0  0  0  0  0  0  0  0  0  0
    7.1705    0.0534   18.5939 C   0  0  0  0  0  0  0  0  0  0  0  0
    8.1158   -0.4344   18.3700 H   0  0  0  0  0  0  0  0  0  0  0  0
    4.9170    1.7834   16.9949 H   0  0  0  0  0  0  0  0  0  0  0  0
    3.8788    1.8400   19.2627 H   0  0  0  0  0  0  0  0  0  0  0  0
    5.0104    0.6101   21.1679 H   0  0  0  0  0  0  0  0  0  0  0  0
    8.6415   -0.4997   21.3969 C   0  0  0  0  0  0  0  0  0  0  0  0
    9.5267    0.6161   20.9415 C   0  0  0  0  0  0  0  0  0  0  0  0
    9.0498    2.0154   21.4278 C   0  0  0  0  0  0  0  0  0  0  0  0
    8.9014    2.0871   22.9224 C   0  0  0  0  0  0  0  0  0  0  0  0
    7.7786    1.7999   23.6496 C   0  0  0  0  0  0  0  0  0  0  0  0
    8.1946    1.8594   24.9306 N   0  0  0  0  0  0  0  0  0  0  0  0
    9.4931    2.1658   25.0116 N   0  0  0  0  0  0  0  0  0  0  0  0
    9.9292    2.2956   23.7995 N   0  0  0  0  0  0  0  0  0  0  0  0
    7.6887    1.7278   25.7925 H   0  0  0  0  0  0  0  0  0  0  0  0
    6.7807    1.5278   23.3460 H   0  0  0  0  0  0  0  0  0  0  0  0
    9.7541    2.7781   21.0948 H   0  0  0  0  0  0  0  0  0  0  0  0
    8.0804    2.2387   20.9646 H   0  0  0  0  0  0  0  0  0  0  0  0
    9.5944    0.6101   19.8510 H   0  0  0  0  0  0  0  0  0  0  0  0
   10.5245    0.4100   21.3350 H   0  0  0  0  0  0  0  0  0  0  0  0
    8.8663   -1.3025   22.4213 N   0  0  0  0  0  0  0  0  0  0  0  0
    6.6446   -2.0746   24.8752 C   0  0  0  0  0  0  0  0  0  0  0  0
    6.3354   -2.9942   26.0625 C   0  0  0  0  0  0  0  0  0  0  0  0
    7.2641   -3.3116   26.5493 H   0  0  0  0  0  0  0  0  0  0  0  0
    5.7280   -2.4819   26.8153 H   0  0  0  0  0  0  0  0  0  0  0  0
    5.7074   -1.6769   24.4699 H   0  0  0  0  0  0  0  0  0  0  0  0
    7.2378   -1.2184   25.2145 H   0  0  0  0  0  0  0  0  0  0  0  0
    8.3773   -3.1265   24.1400 H   0  0  0  0  0  0  0  0  0  0  0  0
    7.2138   -4.6515   22.5662 H   0  0  0  0  0  0  0  0  0  0  0  0
    5.6957   -3.7958   22.8304 H   0  0  0  0  0  0  0  0  0  0  0  0
    5.7190   -5.8687   24.2088 H   0  0  0  0  0  0  0  0  0  0  0  0
    7.2599   -5.4016   24.9366 H   0  0  0  0  0  0  0  0  0  0  0  0
  1  2  1  0
  2  3  1  0
  2  4  1  0
  4  5  1  0
  5  6  1  0
  6  7  1  0
  7  8  2  0
  8  9  1  0
  9 10  1  0
 10 11  2  0
 11 12  1  0
 12 13  2  0
 13 14  1  0
 14 15  2  0
 15 16  1  0
 13 17  1  0
 12 18  1  0
 11 19  1  0
  9 20  1  0
 20 21  1  0
 21 22  1  0
 22 23  1  0
 23 24  2  0
 24 25  1  0
 25 26  1  0
 26 27  2  0
 25 28  1  0
 24 29  1  0
 22 30  1  0
 22 31  1  0
 21 32  1  0
 21 33  1  0
 20 34  2  0
  6 35  1  0
 35 36  1  0
 36 37  1  0
 36 38  1  0
 35 39  1  0
 35 40  1  0
  6 41  1  0
  5 42  1  0
  5 43  1  0
  4 44  1  0
  4 45  1  0
 36  2  1  0
 34  7  1  0
 15 10  1  0
 27 23  1  0
M  END
>  <cnnaffinity>  (1) 
-5.86131

>  <filename>  (1) 
FC1(F)CCC(c2nc(CCc3c[nH]nn3)n(-c3cccnc3)n2)CC1

$$$$
