
     RDKit          3D

 48 51  0  0  0  0  0  0  0  0999 V2000
    7.8023   -5.1705   25.7807 F   0  0  0  0  0  0  0  0  0  0  0  0
    6.4916   -4.9090   25.4658 C   0  0  0  0  0  0  0  0  0  0  0  0
    5.7528   -5.7517   26.2511 F   0  0  0  0  0  0  0  0  0  0  0  0
    6.2695   -5.2465   23.9998 C   0  0  0  0  0  0  0  0  0  0  0  0
    7.1219   -4.3718   23.0584 C   0  0  0  0  0  0  0  0  0  0  0  0
    7.4454   -2.9684   23.6473 C   0  0  0  0  0  0  0  0  0  0  0  0
    7.6891   -1.9577   22.5670 C   0  0  0  0  0  0  0  0  0  0  0  0
    6.7532   -1.6053   21.7007 N   0  0  0  0  0  0  0  0  0  0  0  0
    7.3728   -0.6668   20.9421 N   0  0  0  0  0  0  0  0  0  0  0  0
    6.6622    0.0055   19.9034 C   0  0  0  0  0  0  0  0  0  0  0  0
    5.4420    0.6409   20.1687 C   0  0  0  0  0  0  0  0  0  0  0  0
    4.8121    1.3091   19.1109 C   0  0  0  0  0  0  0  0  0  0  0  0
    5.4024    1.2946   17.8397 C   0  0  0  0  0  0  0  0  0  0  0  0
    6.5633    0.6757   17.5789 N   0  0  0  0  0  0  0  0  0  0  0  0
    7.1723    0.0571   18.5956 C   0  0  0  0  0  0  0  0  0  0  0  0
    8.1165   -0.4339   18.3730 H   0  0  0  0  0  0  0  0  0  0  0  0
    4.9142    1.7814   16.9960 H   0  0  0  0  0  0  0  0  0  0  0  0
    3.8772    1.8415   19.2635 H   0  0  0  0  0  0  0  0  0  0  0  0
    5.0154    0.6136   21.1738 H   0  0  0  0  0  0  0  0  0  0  0  0
    8.6374   -0.4817   21.4160 C   0  0  0  0  0  0  0  0  0  0  0  0
    9.5432    0.5975   20.9318 C   0  0  0  0  0  0  0  0  0  0  0  0
    9.0595    2.0071   21.3102 C   0  0  0  0  0  0  0  0  0  0  0  0
    8.8829    2.2056   22.8235 C   0  0  0  0  0  0  0  0  0  0  0  0
   10.1416    1.9863   23.6059 C   0  0  0  0  0  0  0  0  0  0  0  0
   10.4359    0.9516   24.4517 C   0  0  0  0  0  0  0  0  0  0  0  0
   11.7010    1.2072   24.8535 N   0  0  0  0  0  0  0  0  0  0  0  0
   12.1689    2.3265   24.3061 N   0  0  0  0  0  0  0  0  0  0  0  0
   11.2327    2.8041   23.5510 N   0  0  0  0  0  0  0  0  0  0  0  0
   12.2928    0.6985   25.4860 H   0  0  0  0  0  0  0  0  0  0  0  0
    9.8527    0.0890   24.7216 H   0  0  0  0  0  0  0  0  0  0  0  0
    8.1226    1.5071   23.1969 H   0  0  0  0  0  0  0  0  0  0  0  0
    8.5016    3.2112   23.0207 H   0  0  0  0  0  0  0  0  0  0  0  0
    8.1126    2.2190   20.7958 H   0  0  0  0  0  0  0  0  0  0  0  0
    9.7932    2.7321   20.9517 H   0  0  0  0  0  0  0  0  0  0  0  0
    9.6333    0.5261   19.8455 H   0  0  0  0  0  0  0  0  0  0  0  0
   10.5315    0.3934   21.3532 H   0  0  0  0  0  0  0  0  0  0  0  0
    8.8679   -1.2970   22.4310 N   0  0  0  0  0  0  0  0  0  0  0  0
    6.3482   -2.4881   24.6225 C   0  0  0  0  0  0  0  0  0  0  0  0
    6.1699   -3.4502   25.8126 C   0  0  0  0  0  0  0  0  0  0  0  0
    5.1354   -3.4082   26.1668 H   0  0  0  0  0  0  0  0  0  0  0  0
    6.8101   -3.1595   26.6526 H   0  0  0  0  0  0  0  0  0  0  0  0
    5.4086   -2.4122   24.0667 H   0  0  0  0  0  0  0  0  0  0  0  0
    6.5766   -1.4823   24.9896 H   0  0  0  0  0  0  0  0  0  0  0  0
    8.3799   -3.0411   24.2087 H   0  0  0  0  0  0  0  0  0  0  0  0
    6.5852   -4.2628   22.1090 H   0  0  0  0  0  0  0  0  0  0  0  0
    8.0665   -4.8802   22.8303 H   0  0  0  0  0  0  0  0  0  0  0  0
    6.4722   -6.3064   23.8367 H   0  0  0  0  0  0  0  0  0  0  0  0
    5.2038   -5.0948   23.8053 H   0  0  0  0  0  0  0  0  0  0  0  0
  1  2  1  0
  2  3  1  0
  2  4  1  0
  4  5  1  0
  5  6  1  0
  6  7  1  0
  7  8  2  0
  8  9  1  0
  9 10  1  0
 10 11  2  0
 11 12  1  0
 12 13  2  0
 13 14  1  0
 14 15  2  0
 15 16  1  0
 13 17  1  0
 12 18  1  0
 11 19  1  0
  9 20  1  0
 20 21  1  0
 21 22  1  0
 22 23  1  0
 23 24  1  0
 24 25  2  0
 25 26  1  0
 26 27  1  0
 27 28  2  0
 26 29  1  0
 25 30  1  0
 23 31  1  0
 23 32  1  0
 22 33  1  0
 22 34  1  0
 21 35  1  0
 21 36  1  0
 20 37  2  0
  6 38  1  0
 38 39  1  0
 39 40  1  0
 39 41  1  0
 38 42  1  0
 38 43  1  0
  6 44  1  0
  5 45  1  0
  5 46  1  0
  4 47  1  0
  4 48  1  0
 39  2  1  0
 37  7  1  0
 15 10  1  0
 28 24  1  0
M  END
>  <cnnaffinity>  (1) 
-6.5082

>  <filename>  (1) 
FC1(F)CCC(c2nc(CCCc3c[nH]nn3)n(-c3cccnc3)n2)CC1

$$$$
