
     RDKit          3D

 45 48  0  0  0  0  0  0  0  0999 V2000
   13.9696   -2.1703   21.1125 F   0  0  0  0  0  0  0  0  0  0  0  0
   13.1610   -1.3590   21.8074 C   0  0  0  0  0  0  0  0  0  0  0  0
   13.7179   -0.4036   22.6713 C   0  0  0  0  0  0  0  0  0  0  0  0
   12.9680    0.4253   23.4040 N   0  0  0  0  0  0  0  0  0  0  0  0
   11.6420    0.3545   23.2703 C   0  0  0  0  0  0  0  0  0  0  0  0
   11.0033   -0.5464   22.4078 C   0  0  0  0  0  0  0  0  0  0  0  0
    9.5581   -0.3720   22.2834 C   0  0  0  0  0  0  0  0  0  0  0  0
    8.7404   -1.1620   21.6213 N   0  0  0  0  0  0  0  0  0  0  0  0
    7.5403   -0.5370   21.7534 N   0  0  0  0  0  0  0  0  0  0  0  0
    6.3801   -0.9905   20.9947 C   0  0  0  0  0  0  0  0  0  0  0  0
    6.0432   -0.0926   19.8224 C   0  0  0  0  0  0  0  0  0  0  0  0
    4.8611    0.6495   19.7294 C   0  0  0  0  0  0  0  0  0  0  0  0
    4.6829    1.4853   18.6216 C   0  0  0  0  0  0  0  0  0  0  0  0
    5.6812    1.5295   17.6443 C   0  0  0  0  0  0  0  0  0  0  0  0
    6.8063    0.8013   17.7023 N   0  0  0  0  0  0  0  0  0  0  0  0
    6.9742    0.0166   18.7730 C   0  0  0  0  0  0  0  0  0  0  0  0
    7.8995   -0.5644   18.8020 H   0  0  0  0  0  0  0  0  0  0  0  0
    5.5637    2.1570   16.7600 H   0  0  0  0  0  0  0  0  0  0  0  0
    3.7964    2.0986   18.5078 H   0  0  0  0  0  0  0  0  0  0  0  0
    4.0821    0.5635   20.4940 H   0  0  0  0  0  0  0  0  0  0  0  0
    6.6200   -1.9980   20.6499 H   0  0  0  0  0  0  0  0  0  0  0  0
    5.5317   -1.0950   21.6726 H   0  0  0  0  0  0  0  0  0  0  0  0
    7.6987    0.5917   22.4862 C   0  0  0  0  0  0  0  0  0  0  0  0
    6.6422    1.5106   23.0251 C   0  0  0  0  0  0  0  0  0  0  0  0
    6.6387    1.4910   24.5748 C   0  0  0  0  0  0  0  0  0  0  0  0
    5.6161    2.3596   25.2759 C   0  0  0  0  0  0  0  0  0  0  0  0
    6.0042    3.4141   26.1179 C   0  0  0  0  0  0  0  0  0  0  0  0
    5.0661    4.0941   26.9099 C   0  0  0  0  0  0  0  0  0  0  0  0
    3.7272    3.7233   26.8444 C   0  0  0  0  0  0  0  0  0  0  0  0
    2.8196    4.3288   27.6243 F   0  0  0  0  0  0  0  0  0  0  0  0
    3.3204    2.7041   25.9746 C   0  0  0  0  0  0  0  0  0  0  0  0
    2.0263    2.3562   25.9184 F   0  0  0  0  0  0  0  0  0  0  0  0
    4.2532    2.0324   25.1937 C   0  0  0  0  0  0  0  0  0  0  0  0
    3.8998    1.2138   24.5733 H   0  0  0  0  0  0  0  0  0  0  0  0
    5.3486    4.8880   27.5978 H   0  0  0  0  0  0  0  0  0  0  0  0
    7.0563    3.6888   26.1758 H   0  0  0  0  0  0  0  0  0  0  0  0
    7.6402    1.7742   24.9228 H   0  0  0  0  0  0  0  0  0  0  0  0
    6.4760    0.4546   24.9041 H   0  0  0  0  0  0  0  0  0  0  0  0
    5.6640    1.2503   22.6091 H   0  0  0  0  0  0  0  0  0  0  0  0
    6.8801    2.5238   22.6839 H   0  0  0  0  0  0  0  0  0  0  0  0
    8.9652    0.7215   22.8209 N   0  0  0  0  0  0  0  0  0  0  0  0
   11.7817   -1.4501   21.6615 C   0  0  0  0  0  0  0  0  0  0  0  0
   11.3406   -2.1704   20.9785 H   0  0  0  0  0  0  0  0  0  0  0  0
   11.0369    1.0374   23.8564 H   0  0  0  0  0  0  0  0  0  0  0  0
   14.7950   -0.3329   22.7919 H   0  0  0  0  0  0  0  0  0  0  0  0
  1  2  1  0
  2  3  2  0
  3  4  1  0
  4  5  2  0
  5  6  1  0
  6  7  1  0
  7  8  2  0
  8  9  1  0
  9 10  1  0
 10 11  1  0
 11 12  2  0
 12 13  1  0
 13 14  2  0
 14 15  1  0
 15 16  2  0
 16 17  1  0
 14 18  1  0
 13 19  1  0
 12 20  1  0
 10 21  1  0
 10 22  1  0
  9 23  1  0
 23 24  1  0
 24 25  1  0
 25 26  1  0
 26 27  2  0
 27 28  1  0
 28 29  2  0
 29 30  1  0
 29 31  1  0
 31 32  1  0
 31 33  2  0
 33 34  1  0
 28 35  1  0
 27 36  1  0
 25 37  1  0
 25 38  1  0
 24 39  1  0
 24 40  1  0
 23 41  2  0
  6 42  2  0
 42 43  1  0
  5 44  1  0
  3 45  1  0
 42  2  1  0
 41  7  1  0
 16 11  1  0
 33 26  1  0
M  END
>  <cnnaffinity>  (1) 
-6.67841

>  <filename>  (1) 
Fc1cncc(-c2nc(CCc3ccc(F)c(F)c3)n(Cc3cccnc3)n2)c1

$$$$
