
     RDKit          3D

 41 44  0  0  0  0  0  0  0  0999 V2000
    7.5746    4.9143   27.7206 F   0  0  0  0  0  0  0  0  0  0  0  0
    7.0711    3.8084   27.1563 C   0  0  0  0  0  0  0  0  0  0  0  0
    6.0434    3.1107   27.8034 C   0  0  0  0  0  0  0  0  0  0  0  0
    5.4876    2.0110   27.2814 N   0  0  0  0  0  0  0  0  0  0  0  0
    5.9453    1.5618   26.1081 C   0  0  0  0  0  0  0  0  0  0  0  0
    6.9814    2.1972   25.4016 C   0  0  0  0  0  0  0  0  0  0  0  0
    7.3974    1.6391   24.1140 C   0  0  0  0  0  0  0  0  0  0  0  0
    6.7427    0.6645   23.5028 N   0  0  0  0  0  0  0  0  0  0  0  0
    7.4368    0.5044   22.3542 N   0  0  0  0  0  0  0  0  0  0  0  0
    7.0326   -0.4635   21.3403 C   0  0  0  0  0  0  0  0  0  0  0  0
    6.5044    0.1591   20.0601 C   0  0  0  0  0  0  0  0  0  0  0  0
    5.3434    0.9362   20.1000 C   0  0  0  0  0  0  0  0  0  0  0  0
    4.8663    1.4923   18.9111 C   0  0  0  0  0  0  0  0  0  0  0  0
    5.5688    1.2571   17.7254 C   0  0  0  0  0  0  0  0  0  0  0  0
    6.6862    0.5179   17.6652 N   0  0  0  0  0  0  0  0  0  0  0  0
    7.1332   -0.0064   18.8143 C   0  0  0  0  0  0  0  0  0  0  0  0
    8.0571   -0.5838   18.7405 H   0  0  0  0  0  0  0  0  0  0  0  0
    5.2239    1.6762   16.7813 H   0  0  0  0  0  0  0  0  0  0  0  0
    3.9723    2.1050   18.8931 H   0  0  0  0  0  0  0  0  0  0  0  0
    4.8328    1.0889   21.0530 H   0  0  0  0  0  0  0  0  0  0  0  0
    6.2730   -1.0885   21.8191 H   0  0  0  0  0  0  0  0  0  0  0  0
    7.8906   -1.1047   21.1144 H   0  0  0  0  0  0  0  0  0  0  0  0
    8.4809    1.3642   22.3394 C   0  0  0  0  0  0  0  0  0  0  0  0
    9.5016    1.4607   21.2428 C   0  0  0  0  0  0  0  0  0  0  0  0
   10.7710    0.6583   21.4662 C   0  0  0  0  0  0  0  0  0  0  0  0
   11.9093    1.2345   22.0490 C   0  0  0  0  0  0  0  0  0  0  0  0
   13.0206    0.4364   22.3076 C   0  0  0  0  0  0  0  0  0  0  0  0
   12.9630   -0.8969   21.8923 C   0  0  0  0  0  0  0  0  0  0  0  0
   14.3754   -1.8711   22.0897 Cl  0  0  0  0  0  0  0  0  0  0  0  0
   11.9077   -1.4802   21.3472 N   0  0  0  0  0  0  0  0  0  0  0  0
   10.8322   -0.7080   21.1592 C   0  0  0  0  0  0  0  0  0  0  0  0
    9.9729   -1.2028   20.7049 H   0  0  0  0  0  0  0  0  0  0  0  0
   13.9204    0.8100   22.7805 H   0  0  0  0  0  0  0  0  0  0  0  0
   11.9209    2.3041   22.2664 H   0  0  0  0  0  0  0  0  0  0  0  0
    9.0308    1.1410   20.3110 H   0  0  0  0  0  0  0  0  0  0  0  0
    9.7280    2.5251   21.1240 H   0  0  0  0  0  0  0  0  0  0  0  0
    8.4748    2.0987   23.4322 N   0  0  0  0  0  0  0  0  0  0  0  0
    7.5615    3.3660   25.9384 C   0  0  0  0  0  0  0  0  0  0  0  0
    8.3480    3.9273   25.4298 H   0  0  0  0  0  0  0  0  0  0  0  0
    5.4633    0.6679   25.7179 H   0  0  0  0  0  0  0  0  0  0  0  0
    5.6696    3.4644   28.7607 H   0  0  0  0  0  0  0  0  0  0  0  0
  1  2  1  0
  2  3  2  0
  3  4  1  0
  4  5  2  0
  5  6  1  0
  6  7  1  0
  7  8  2  0
  8  9  1  0
  9 10  1  0
 10 11  1  0
 11 12  2  0
 12 13  1  0
 13 14  2  0
 14 15  1  0
 15 16  2  0
 16 17  1  0
 14 18  1  0
 13 19  1  0
 12 20  1  0
 10 21  1  0
 10 22  1  0
  9 23  1  0
 23 24  1  0
 24 25  1  0
 25 26  2  0
 26 27  1  0
 27 28  2  0
 28 29  1  0
 28 30  1  0
 30 31  2  0
 31 32  1  0
 27 33  1  0
 26 34  1  0
 24 35  1  0
 24 36  1  0
 23 37  2  0
  6 38  2  0
 38 39  1  0
  5 40  1  0
  3 41  1  0
 38  2  1  0
 37  7  1  0
 16 11  1  0
 31 25  1  0
M  END
>  <cnnaffinity>  (1) 
-6.63575

>  <filename>  (1) 
Fc1cncc(-c2nc(Cc3ccc(Cl)nc3)n(Cc3cccnc3)n2)c1

$$$$
