
     RDKit          3D

 49 52  0  0  0  0  0  0  0  0999 V2000
    9.4552    4.3478   24.9641 F   0  0  0  0  0  0  0  0  0  0  0  0
    8.9934    3.1014   25.0658 C   0  0  0  0  0  0  0  0  0  0  0  0
    7.6729    2.9175   25.4936 C   0  0  0  0  0  0  0  0  0  0  0  0
    7.2103    1.6091   25.5978 C   0  0  0  0  0  0  0  0  0  0  0  0
    8.0733    0.5526   25.2666 C   0  0  0  0  0  0  0  0  0  0  0  0
    7.6182   -0.8027   25.3403 N   0  0  0  0  0  0  0  0  0  0  0  0
    7.0080   -1.2701   26.4645 N   0  0  0  0  0  0  0  0  0  0  0  0
    6.6953   -2.5085   26.1499 C   0  0  0  0  0  0  0  0  0  0  0  0
    5.9606   -3.4502   27.0699 C   0  0  0  0  0  0  0  0  0  0  0  0
    6.7226   -4.7816   27.2774 C   0  0  0  0  0  0  0  0  0  0  0  0
    5.9611   -5.7347   28.2074 C   0  0  0  0  0  0  0  0  0  0  0  0
    4.5308   -5.9882   27.7160 C   0  0  0  0  0  0  0  0  0  0  0  0
    3.7643   -4.6760   27.5129 C   0  0  0  0  0  0  0  0  0  0  0  0
    4.5135   -3.7165   26.5803 C   0  0  0  0  0  0  0  0  0  0  0  0
    3.9656   -2.7692   26.4980 H   0  0  0  0  0  0  0  0  0  0  0  0
    4.5581   -4.1452   25.5700 H   0  0  0  0  0  0  0  0  0  0  0  0
    3.6180   -4.1892   28.4877 H   0  0  0  0  0  0  0  0  0  0  0  0
    2.7631   -4.8780   27.1136 H   0  0  0  0  0  0  0  0  0  0  0  0
    3.9955   -6.6377   28.4190 H   0  0  0  0  0  0  0  0  0  0  0  0
    4.5726   -6.5290   26.7604 H   0  0  0  0  0  0  0  0  0  0  0  0
    6.5053   -6.6830   28.2968 H   0  0  0  0  0  0  0  0  0  0  0  0
    5.9243   -5.3004   29.2167 H   0  0  0  0  0  0  0  0  0  0  0  0
    7.7230   -4.5829   27.6820 H   0  0  0  0  0  0  0  0  0  0  0  0
    6.8680   -5.2615   26.2999 H   0  0  0  0  0  0  0  0  0  0  0  0
    5.8913   -2.9415   28.0372 H   0  0  0  0  0  0  0  0  0  0  0  0
    7.0374   -2.8724   24.8797 N   0  0  0  0  0  0  0  0  0  0  0  0
    7.6026   -1.7890   24.3951 C   0  0  0  0  0  0  0  0  0  0  0  0
    8.0104   -1.5945   22.9733 C   0  0  0  0  0  0  0  0  0  0  0  0
    6.9674   -0.7795   22.2066 C   0  0  0  0  0  0  0  0  0  0  0  0
    7.4109   -0.6812   20.8560 O   0  0  0  0  0  0  0  0  0  0  0  0
    6.6671   -0.0011   19.9346 C   0  0  0  0  0  0  0  0  0  0  0  0
    5.4461    0.6435   20.1785 C   0  0  0  0  0  0  0  0  0  0  0  0
    4.8136    1.3048   19.1117 C   0  0  0  0  0  0  0  0  0  0  0  0
    5.4008    1.2912   17.8445 C   0  0  0  0  0  0  0  0  0  0  0  0
    6.5705    0.6710   17.5956 N   0  0  0  0  0  0  0  0  0  0  0  0
    7.1796    0.0558   18.6133 C   0  0  0  0  0  0  0  0  0  0  0  0
    8.1262   -0.4361   18.3954 H   0  0  0  0  0  0  0  0  0  0  0  0
    4.9139    1.7783   16.9987 H   0  0  0  0  0  0  0  0  0  0  0  0
    3.8792    1.8392   19.2642 H   0  0  0  0  0  0  0  0  0  0  0  0
    5.0025    0.6298   21.1748 H   0  0  0  0  0  0  0  0  0  0  0  0
    6.0011   -1.2973   22.2501 H   0  0  0  0  0  0  0  0  0  0  0  0
    6.8533    0.2186   22.6564 H   0  0  0  0  0  0  0  0  0  0  0  0
    8.1245   -2.5774   22.5135 H   0  0  0  0  0  0  0  0  0  0  0  0
    8.9796   -1.0935   22.9084 H   0  0  0  0  0  0  0  0  0  0  0  0
    9.3766    0.8793   24.8702 C   0  0  0  0  0  0  0  0  0  0  0  0
    9.8330    2.1396   24.7641 N   0  0  0  0  0  0  0  0  0  0  0  0
   10.0797    0.0920   24.6312 H   0  0  0  0  0  0  0  0  0  0  0  0
    6.2002    1.4009   25.9379 H   0  0  0  0  0  0  0  0  0  0  0  0
    7.0558    3.7716   25.7384 H   0  0  0  0  0  0  0  0  0  0  0  0
  1  2  1  0
  2  3  2  0
  3  4  1  0
  4  5  2  0
  5  6  1  0
  6  7  1  0
  7  8  2  0
  8  9  1  0
  9 10  1  0
 10 11  1  0
 11 12  1  0
 12 13  1  0
 13 14  1  0
 14 15  1  0
 14 16  1  0
 13 17  1  0
 13 18  1  0
 12 19  1  0
 12 20  1  0
 11 21  1  0
 11 22  1  0
 10 23  1  0
 10 24  1  0
  9 25  1  0
  8 26  1  0
 26 27  2  0
 27 28  1  0
 28 29  1  0
 29 30  1  0
 30 31  1  0
 31 32  2  0
 32 33  1  0
 33 34  2  0
 34 35  1  0
 35 36  2  0
 36 37  1  0
 34 38  1  0
 33 39  1  0
 32 40  1  0
 29 41  1  0
 29 42  1  0
 28 43  1  0
 28 44  1  0
  5 45  1  0
 45 46  2  0
 45 47  1  0
  4 48  1  0
  3 49  1  0
 46  2  1  0
 27  6  1  0
 36 31  1  0
 14  9  1  0
M  END
>  <cnnaffinity>  (1) 
-5.98631

>  <filename>  (1) 
Fc1ccc(-n2nc(C3CCCCC3)nc2CCOc2cccnc2)cn1

$$$$
