
     RDKit          3D

 42 45  0  0  0  0  0  0  0  0999 V2000
    7.7380    5.6892   26.7528 F   0  0  0  0  0  0  0  0  0  0  0  0
    8.0753    4.7712   25.8344 C   0  0  0  0  0  0  0  0  0  0  0  0
    7.9625    5.0729   24.4853 C   0  0  0  0  0  0  0  0  0  0  0  0
    8.3178    4.1045   23.5375 C   0  0  0  0  0  0  0  0  0  0  0  0
    8.7861    2.8373   23.9246 C   0  0  0  0  0  0  0  0  0  0  0  0
    9.1521    1.8485   23.0739 O   0  0  0  0  0  0  0  0  0  0  0  0
    9.0652    2.0027   21.6599 C   0  0  0  0  0  0  0  0  0  0  0  0
    9.4847    0.6687   21.0345 C   0  0  0  0  0  0  0  0  0  0  0  0
    8.6023   -0.4523   21.4586 C   0  0  0  0  0  0  0  0  0  0  0  0
    8.8377   -1.2791   22.4518 N   0  0  0  0  0  0  0  0  0  0  0  0
    7.6696   -1.9624   22.5717 C   0  0  0  0  0  0  0  0  0  0  0  0
    7.4342   -2.9149   23.6932 C   0  0  0  0  0  0  0  0  0  0  0  0
    8.6527   -3.7936   24.0801 C   0  0  0  0  0  0  0  0  0  0  0  0
    8.7078   -3.0972   25.7676 S   0  0  0  0  0  0  0  0  0  0  0  0
    7.2654   -2.2162   25.0795 C   0  0  0  0  0  0  0  0  0  0  0  0
    7.4047   -1.1282   25.0681 H   0  0  0  0  0  0  0  0  0  0  0  0
    6.3316   -2.4576   25.5954 H   0  0  0  0  0  0  0  0  0  0  0  0
    9.5664   -3.5930   23.5109 H   0  0  0  0  0  0  0  0  0  0  0  0
    8.4487   -4.8681   24.0843 H   0  0  0  0  0  0  0  0  0  0  0  0
    6.5584   -3.5035   23.4233 H   0  0  0  0  0  0  0  0  0  0  0  0
    6.7443   -1.6417   21.6936 N   0  0  0  0  0  0  0  0  0  0  0  0
    7.3532   -0.6753   20.9462 N   0  0  0  0  0  0  0  0  0  0  0  0
    6.6560    0.0042   19.9038 C   0  0  0  0  0  0  0  0  0  0  0  0
    5.4389    0.6442   20.1661 C   0  0  0  0  0  0  0  0  0  0  0  0
    4.8131    1.3107   19.1088 C   0  0  0  0  0  0  0  0  0  0  0  0
    5.4006    1.2958   17.8375 C   0  0  0  0  0  0  0  0  0  0  0  0
    6.5587    0.6703   17.5767 N   0  0  0  0  0  0  0  0  0  0  0  0
    7.1669    0.0484   18.5929 C   0  0  0  0  0  0  0  0  0  0  0  0
    8.1118   -0.4387   18.3642 H   0  0  0  0  0  0  0  0  0  0  0  0
    4.9212    1.7866   16.9930 H   0  0  0  0  0  0  0  0  0  0  0  0
    3.8805    1.8395   19.2591 H   0  0  0  0  0  0  0  0  0  0  0  0
    5.0131    0.6089   21.1726 H   0  0  0  0  0  0  0  0  0  0  0  0
    9.4732    0.7722   19.9487 H   0  0  0  0  0  0  0  0  0  0  0  0
   10.5106    0.4248   21.3153 H   0  0  0  0  0  0  0  0  0  0  0  0
    9.7304    2.8080   21.3189 H   0  0  0  0  0  0  0  0  0  0  0  0
    8.0371    2.2544   21.3609 H   0  0  0  0  0  0  0  0  0  0  0  0
    8.8856    2.5742   25.3153 C   0  0  0  0  0  0  0  0  0  0  0  0
    9.4535    1.0408   25.8965 Cl  0  0  0  0  0  0  0  0  0  0  0  0
    8.5297    3.5312   26.2651 C   0  0  0  0  0  0  0  0  0  0  0  0
    8.5829    3.3178   27.3252 H   0  0  0  0  0  0  0  0  0  0  0  0
    8.2338    4.3380   22.4807 H   0  0  0  0  0  0  0  0  0  0  0  0
    7.5978    6.0503   24.1902 H   0  0  0  0  0  0  0  0  0  0  0  0
  1  2  1  0
  2  3  2  0
  3  4  1  0
  4  5  2  0
  5  6  1  0
  6  7  1  0
  7  8  1  0
  8  9  1  0
  9 10  2  0
 10 11  1  0
 11 12  1  0
 12 13  1  0
 13 14  1  0
 14 15  1  0
 15 16  1  0
 15 17  1  0
 13 18  1  0
 13 19  1  0
 12 20  1  0
 11 21  2  0
 21 22  1  0
 22 23  1  0
 23 24  2  0
 24 25  1  0
 25 26  2  0
 26 27  1  0
 27 28  2  0
 28 29  1  0
 26 30  1  0
 25 31  1  0
 24 32  1  0
  8 33  1  0
  8 34  1  0
  7 35  1  0
  7 36  1  0
  5 37  1  0
 37 38  1  0
 37 39  2  0
 39 40  1  0
  4 41  1  0
  3 42  1  0
 39  2  1  0
 22  9  1  0
 28 23  1  0
 15 12  1  0
M  END
>  <cnnaffinity>  (1) 
-6.30062

>  <filename>  (1) 
Fc1ccc(OCCc2nc(C3CSC3)nn2-c2cccnc2)c(Cl)c1

$$$$
