
     RDKit          3D

 45 48  0  0  0  0  0  0  0  0999 V2000
    4.6017    1.5178   27.3727 F   0  0  0  0  0  0  0  0  0  0  0  0
    5.2950    2.5008   26.7743 C   0  0  0  0  0  0  0  0  0  0  0  0
    4.9973    3.8247   27.0694 C   0  0  0  0  0  0  0  0  0  0  0  0
    5.7234    4.8341   26.4247 C   0  0  0  0  0  0  0  0  0  0  0  0
    6.7301    4.5160   25.5165 C   0  0  0  0  0  0  0  0  0  0  0  0
    7.0161    3.1693   25.2431 C   0  0  0  0  0  0  0  0  0  0  0  0
    8.0437    2.9709   24.3699 O   0  0  0  0  0  0  0  0  0  0  0  0
    8.2898    1.6673   23.8619 C   0  0  0  0  0  0  0  0  0  0  0  0
    7.2256    1.2590   22.8387 C   0  0  0  0  0  0  0  0  0  0  0  0
    7.4776   -0.0957   22.2778 C   0  0  0  0  0  0  0  0  0  0  0  0
    8.0323   -1.0728   22.9732 N   0  0  0  0  0  0  0  0  0  0  0  0
    8.1597   -2.0749   22.0692 C   0  0  0  0  0  0  0  0  0  0  0  0
    8.6660   -3.4800   22.3337 C   0  0  0  0  0  0  0  0  0  0  0  0
    7.6842   -4.4337   23.0783 C   0  0  0  0  0  0  0  0  0  0  0  0
    8.6320   -5.3129   23.9026 C   0  0  0  0  0  0  0  0  0  0  0  0
    9.7383   -4.3216   24.2345 C   0  0  0  0  0  0  0  0  0  0  0  0
    9.8920   -3.5374   23.0586 O   0  0  0  0  0  0  0  0  0  0  0  0
   10.7041   -4.7812   24.4758 H   0  0  0  0  0  0  0  0  0  0  0  0
    9.4382   -3.6751   25.0736 H   0  0  0  0  0  0  0  0  0  0  0  0
    8.1765   -5.7325   24.8045 H   0  0  0  0  0  0  0  0  0  0  0  0
    9.0179   -6.1426   23.3009 H   0  0  0  0  0  0  0  0  0  0  0  0
    7.0527   -4.9958   22.3836 H   0  0  0  0  0  0  0  0  0  0  0  0
    7.0304   -3.8632   23.7488 H   0  0  0  0  0  0  0  0  0  0  0  0
    8.8410   -3.8558   21.3232 H   0  0  0  0  0  0  0  0  0  0  0  0
    7.7185   -1.7739   20.8610 N   0  0  0  0  0  0  0  0  0  0  0  0
    7.2446   -0.5125   20.9981 N   0  0  0  0  0  0  0  0  0  0  0  0
    6.5679    0.1081   19.9162 C   0  0  0  0  0  0  0  0  0  0  0  0
    5.3474    0.7747   20.0804 C   0  0  0  0  0  0  0  0  0  0  0  0
    4.7802    1.3830   18.9574 C   0  0  0  0  0  0  0  0  0  0  0  0
    5.4522    1.3084   17.7344 C   0  0  0  0  0  0  0  0  0  0  0  0
    6.5888    0.6068   17.5627 N   0  0  0  0  0  0  0  0  0  0  0  0
    7.1146   -0.0016   18.6275 C   0  0  0  0  0  0  0  0  0  0  0  0
    8.0019   -0.6134   18.4622 H   0  0  0  0  0  0  0  0  0  0  0  0
    5.0509    1.8005   16.8523 H   0  0  0  0  0  0  0  0  0  0  0  0
    3.8359    1.9114   19.0227 H   0  0  0  0  0  0  0  0  0  0  0  0
    4.8456    0.7951   21.0485 H   0  0  0  0  0  0  0  0  0  0  0  0
    7.1680    2.0181   22.0581 H   0  0  0  0  0  0  0  0  0  0  0  0
    6.2457    1.2549   23.3254 H   0  0  0  0  0  0  0  0  0  0  0  0
    8.3579    0.9393   24.6760 H   0  0  0  0  0  0  0  0  0  0  0  0
    9.2794    1.7050   23.3973 H   0  0  0  0  0  0  0  0  0  0  0  0
    6.2858    2.1445   25.8630 C   0  0  0  0  0  0  0  0  0  0  0  0
    6.4453    1.0963   25.6407 H   0  0  0  0  0  0  0  0  0  0  0  0
    7.3101    5.2744   24.9978 H   0  0  0  0  0  0  0  0  0  0  0  0
    5.4987    5.8784   26.6331 H   0  0  0  0  0  0  0  0  0  0  0  0
    4.2148    4.0429   27.7839 H   0  0  0  0  0  0  0  0  0  0  0  0
  1  2  1  0
  2  3  2  0
  3  4  1  0
  4  5  2  0
  5  6  1  0
  6  7  1  0
  7  8  1  0
  8  9  1  0
  9 10  1  0
 10 11  2  0
 11 12  1  0
 12 13  1  0
 13 14  1  0
 14 15  1  0
 15 16  1  0
 16 17  1  0
 16 18  1  0
 16 19  1  0
 15 20  1  0
 15 21  1  0
 14 22  1  0
 14 23  1  0
 13 24  1  0
 12 25  2  0
 25 26  1  0
 26 27  1  0
 27 28  2  0
 28 29  1  0
 29 30  2  0
 30 31  1  0
 31 32  2  0
 32 33  1  0
 30 34  1  0
 29 35  1  0
 28 36  1  0
  9 37  1  0
  9 38  1  0
  8 39  1  0
  8 40  1  0
  6 41  2  0
 41 42  1  0
  5 43  1  0
  4 44  1  0
  3 45  1  0
 41  2  1  0
 26 10  1  0
 32 27  1  0
 17 13  1  0
M  END
>  <cnnaffinity>  (1) 
-6.02458

>  <filename>  (1) 
Fc1cccc(OCCc2nc(C3CCCO3)nn2-c2cccnc2)c1

$$$$
