
     RDKit          3D

 40 43  0  0  0  0  0  0  0  0999 V2000
   12.2948   -0.2661   21.8679 F   0  0  0  0  0  0  0  0  0  0  0  0
   11.6125    0.7654   22.3902 C   0  0  0  0  0  0  0  0  0  0  0  0
   12.1727    1.4576   23.4673 C   0  0  0  0  0  0  0  0  0  0  0  0
   11.5721    2.5095   24.0340 N   0  0  0  0  0  0  0  0  0  0  0  0
   10.3833    2.8856   23.5460 C   0  0  0  0  0  0  0  0  0  0  0  0
    9.7563    2.2245   22.4793 C   0  0  0  0  0  0  0  0  0  0  0  0
    8.1950    2.7763   21.9617 Cl  0  0  0  0  0  0  0  0  0  0  0  0
   10.3642    1.1184   21.8660 C   0  0  0  0  0  0  0  0  0  0  0  0
    9.6624    0.2810   20.8193 C   0  0  0  0  0  0  0  0  0  0  0  0
    8.5686   -0.5563   21.3956 C   0  0  0  0  0  0  0  0  0  0  0  0
    8.7471   -1.3738   22.4113 N   0  0  0  0  0  0  0  0  0  0  0  0
    7.5424   -1.9904   22.5415 C   0  0  0  0  0  0  0  0  0  0  0  0
    7.4139   -3.1206   23.5371 C   0  0  0  0  0  0  0  0  0  0  0  0
    7.5287   -4.5393   22.9013 C   0  0  0  0  0  0  0  0  0  0  0  0
    6.5839   -5.3813   23.7671 C   0  0  0  0  0  0  0  0  0  0  0  0
    5.5400   -4.3605   24.2198 C   0  0  0  0  0  0  0  0  0  0  0  0
    6.2071   -3.1090   24.2821 O   0  0  0  0  0  0  0  0  0  0  0  0
    5.1459   -4.5591   25.2219 H   0  0  0  0  0  0  0  0  0  0  0  0
    4.6981   -4.2880   23.5146 H   0  0  0  0  0  0  0  0  0  0  0  0
    7.1073   -5.7993   24.6346 H   0  0  0  0  0  0  0  0  0  0  0  0
    6.1275   -6.2108   23.2196 H   0  0  0  0  0  0  0  0  0  0  0  0
    8.5622   -4.9073   22.9044 H   0  0  0  0  0  0  0  0  0  0  0  0
    7.1835   -4.5139   21.8597 H   0  0  0  0  0  0  0  0  0  0  0  0
    8.2445   -2.9347   24.2284 H   0  0  0  0  0  0  0  0  0  0  0  0
    6.6332   -1.6177   21.6617 N   0  0  0  0  0  0  0  0  0  0  0  0
    7.2946   -0.6957   20.9144 N   0  0  0  0  0  0  0  0  0  0  0  0
    6.6203   -0.0195   19.8571 C   0  0  0  0  0  0  0  0  0  0  0  0
    5.4077    0.6239   20.1208 C   0  0  0  0  0  0  0  0  0  0  0  0
    4.7888    1.3175   19.0786 C   0  0  0  0  0  0  0  0  0  0  0  0
    5.3855    1.3104   17.8130 C   0  0  0  0  0  0  0  0  0  0  0  0
    6.5259    0.6578   17.5402 N   0  0  0  0  0  0  0  0  0  0  0  0
    7.1303    0.0136   18.5458 C   0  0  0  0  0  0  0  0  0  0  0  0
    8.0667   -0.4929   18.3036 H   0  0  0  0  0  0  0  0  0  0  0  0
    4.9288    1.8477   16.9862 H   0  0  0  0  0  0  0  0  0  0  0  0
    3.8687    1.8661   19.2426 H   0  0  0  0  0  0  0  0  0  0  0  0
    4.9915    0.5715   21.1273 H   0  0  0  0  0  0  0  0  0  0  0  0
    9.2648    0.9146   20.0285 H   0  0  0  0  0  0  0  0  0  0  0  0
   10.3767   -0.4113   20.3705 H   0  0  0  0  0  0  0  0  0  0  0  0
    9.9037    3.7309   24.0283 H   0  0  0  0  0  0  0  0  0  0  0  0
   13.1287    1.1354   23.8699 H   0  0  0  0  0  0  0  0  0  0  0  0
  1  2  1  0
  2  3  2  0
  3  4  1  0
  4  5  2  0
  5  6  1  0
  6  7  1  0
  6  8  2  0
  8  9  1  0
  9 10  1  0
 10 11  2  0
 11 12  1  0
 12 13  1  0
 13 14  1  0
 14 15  1  0
 15 16  1  0
 16 17  1  0
 16 18  1  0
 16 19  1  0
 15 20  1  0
 15 21  1  0
 14 22  1  0
 14 23  1  0
 13 24  1  0
 12 25  2  0
 25 26  1  0
 26 27  1  0
 27 28  2  0
 28 29  1  0
 29 30  2  0
 30 31  1  0
 31 32  2  0
 32 33  1  0
 30 34  1  0
 29 35  1  0
 28 36  1  0
  9 37  1  0
  9 38  1  0
  5 39  1  0
  3 40  1  0
  8  2  1  0
 26 10  1  0
 32 27  1  0
 17 13  1  0
M  END
>  <cnnaffinity>  (1) 
-6.49281

>  <filename>  (1) 
Fc1cncc(Cl)c1Cc1nc(C2CCCO2)nn1-c1cccnc1

$$$$
