
     RDKit          3D

 45 48  0  0  0  0  0  0  0  0999 V2000
    7.3559    5.8862   26.3977 F   0  0  0  0  0  0  0  0  0  0  0  0
    7.7600    4.9287   25.5436 C   0  0  0  0  0  0  0  0  0  0  0  0
    7.7712    5.1908   24.1798 C   0  0  0  0  0  0  0  0  0  0  0  0
    8.1919    4.1910   23.2880 C   0  0  0  0  0  0  0  0  0  0  0  0
    8.5968    2.9358   23.7677 C   0  0  0  0  0  0  0  0  0  0  0  0
    9.0273    1.9000   22.9908 O   0  0  0  0  0  0  0  0  0  0  0  0
    9.0465    2.0018   21.5701 C   0  0  0  0  0  0  0  0  0  0  0  0
    9.4980    0.6459   21.0193 C   0  0  0  0  0  0  0  0  0  0  0  0
    8.6080   -0.4643   21.4532 C   0  0  0  0  0  0  0  0  0  0  0  0
    8.8289   -1.2933   22.4479 N   0  0  0  0  0  0  0  0  0  0  0  0
    7.6467   -1.9565   22.5615 C   0  0  0  0  0  0  0  0  0  0  0  0
    7.4240   -2.9370   23.6556 C   0  0  0  0  0  0  0  0  0  0  0  0
    8.5171   -4.0187   23.7957 C   0  0  0  0  0  0  0  0  0  0  0  0
    8.4671   -4.3738   25.2860 C   0  0  0  0  0  0  0  0  0  0  0  0
    7.8483   -3.2795   25.9463 O   0  0  0  0  0  0  0  0  0  0  0  0
    7.4253   -2.2747   25.0471 C   0  0  0  0  0  0  0  0  0  0  0  0
    6.4269   -1.9411   25.3610 H   0  0  0  0  0  0  0  0  0  0  0  0
    8.1024   -1.4014   25.0950 H   0  0  0  0  0  0  0  0  0  0  0  0
    7.8775   -5.2827   25.4811 H   0  0  0  0  0  0  0  0  0  0  0  0
    9.4655   -4.5384   25.7161 H   0  0  0  0  0  0  0  0  0  0  0  0
    8.3369   -4.8890   23.1588 H   0  0  0  0  0  0  0  0  0  0  0  0
    9.4948   -3.6012   23.5282 H   0  0  0  0  0  0  0  0  0  0  0  0
    6.4490   -3.3943   23.4763 H   0  0  0  0  0  0  0  0  0  0  0  0
    6.7252   -1.6116   21.6918 N   0  0  0  0  0  0  0  0  0  0  0  0
    7.3545   -0.6616   20.9448 N   0  0  0  0  0  0  0  0  0  0  0  0
    6.6598    0.0130   19.9017 C   0  0  0  0  0  0  0  0  0  0  0  0
    5.4393    0.6457   20.1650 C   0  0  0  0  0  0  0  0  0  0  0  0
    4.8126    1.3113   19.1082 C   0  0  0  0  0  0  0  0  0  0  0  0
    5.4007    1.2967   17.8367 C   0  0  0  0  0  0  0  0  0  0  0  0
    6.5584    0.6715   17.5752 N   0  0  0  0  0  0  0  0  0  0  0  0
    7.1685    0.0520   18.5912 C   0  0  0  0  0  0  0  0  0  0  0  0
    8.1120   -0.4369   18.3631 H   0  0  0  0  0  0  0  0  0  0  0  0
    4.9223    1.7874   16.9920 H   0  0  0  0  0  0  0  0  0  0  0  0
    3.8801    1.8396   19.2582 H   0  0  0  0  0  0  0  0  0  0  0  0
    5.0156    0.6062   21.1731 H   0  0  0  0  0  0  0  0  0  0  0  0
    9.5260    0.7020   19.9297 H   0  0  0  0  0  0  0  0  0  0  0  0
   10.5123    0.4188   21.3491 H   0  0  0  0  0  0  0  0  0  0  0  0
    8.0479    2.2525   21.1827 H   0  0  0  0  0  0  0  0  0  0  0  0
    9.7442    2.7874   21.2486 H   0  0  0  0  0  0  0  0  0  0  0  0
    8.5762    2.6969   25.1584 C   0  0  0  0  0  0  0  0  0  0  0  0
    8.1596    3.6915   26.0474 C   0  0  0  0  0  0  0  0  0  0  0  0
    8.1316    3.5321   27.1217 H   0  0  0  0  0  0  0  0  0  0  0  0
    8.8868    1.7251   25.5297 H   0  0  0  0  0  0  0  0  0  0  0  0
    8.2059    4.3963   22.2212 H   0  0  0  0  0  0  0  0  0  0  0  0
    7.4505    6.1667   23.8264 H   0  0  0  0  0  0  0  0  0  0  0  0
  1  2  1  0
  2  3  2  0
  3  4  1  0
  4  5  2  0
  5  6  1  0
  6  7  1  0
  7  8  1  0
  8  9  1  0
  9 10  2  0
 10 11  1  0
 11 12  1  0
 12 13  1  0
 13 14  1  0
 14 15  1  0
 15 16  1  0
 16 17  1  0
 16 18  1  0
 14 19  1  0
 14 20  1  0
 13 21  1  0
 13 22  1  0
 12 23  1  0
 11 24  2  0
 24 25  1  0
 25 26  1  0
 26 27  2  0
 27 28  1  0
 28 29  2  0
 29 30  1  0
 30 31  2  0
 31 32  1  0
 29 33  1  0
 28 34  1  0
 27 35  1  0
  8 36  1  0
  8 37  1  0
  7 38  1  0
  7 39  1  0
  5 40  1  0
 40 41  2  0
 41 42  1  0
 40 43  1  0
  4 44  1  0
  3 45  1  0
 41  2  1  0
 25  9  1  0
 31 26  1  0
 16 12  1  0
M  END
>  <cnnaffinity>  (1) 
-5.93457

>  <filename>  (1) 
Fc1ccc(OCCc2nc(C3CCOC3)nn2-c2cccnc2)cc1

$$$$
