
     RDKit          3D

 32 34  0  0  0  0  0  0  0  0999 V2000
    9.4271    0.9001   20.2072 H   0  0  0  0  0  0  0  0  0  0  0  0
    9.6908    0.0603   20.8483 C   0  0  0  0  0  0  0  0  0  0  0  0
    8.7430   -0.7929   21.2694 C   0  0  0  0  0  0  0  0  0  0  0  0
    7.2788   -0.8069   20.9928 C   0  0  0  0  0  0  0  0  0  0  0  0
    6.6116   -0.0268   19.9206 C   0  0  0  0  0  0  0  0  0  0  0  0
    7.1772    0.0278   18.6411 C   0  0  0  0  0  0  0  0  0  0  0  0
    8.1276   -0.4676   18.4508 H   0  0  0  0  0  0  0  0  0  0  0  0
    6.6286    0.6628   17.5981 N   0  0  0  0  0  0  0  0  0  0  0  0
    5.4675    1.3001   17.8130 C   0  0  0  0  0  0  0  0  0  0  0  0
    5.0317    1.8148   16.9579 H   0  0  0  0  0  0  0  0  0  0  0  0
    4.8203    1.3207   19.0552 C   0  0  0  0  0  0  0  0  0  0  0  0
    3.8922    1.8743   19.1619 H   0  0  0  0  0  0  0  0  0  0  0  0
    5.3907    0.6369   20.1283 C   0  0  0  0  0  0  0  0  0  0  0  0
    4.9120    0.6255   21.1098 H   0  0  0  0  0  0  0  0  0  0  0  0
    6.6146   -1.5724   21.7764 N   0  0  0  0  0  0  0  0  0  0  0  0
    7.5219   -2.1711   22.7611 C   0  0  0  0  0  0  0  0  0  0  0  0
    7.3480   -3.2455   22.8252 H   0  0  0  0  0  0  0  0  0  0  0  0
    7.3013   -1.7429   23.7440 H   0  0  0  0  0  0  0  0  0  0  0  0
    8.9664   -1.8360   22.3375 C   0  0  0  0  0  0  0  0  0  0  0  0
    9.4804   -2.7177   21.9381 H   0  0  0  0  0  0  0  0  0  0  0  0
    9.5754   -1.4271   23.1487 H   0  0  0  0  0  0  0  0  0  0  0  0
   11.1030    0.0780   21.3177 C   0  0  0  0  0  0  0  0  0  0  0  0
   11.6460    1.2848   21.7890 C   0  0  0  0  0  0  0  0  0  0  0  0
   11.0663    2.1988   21.7775 H   0  0  0  0  0  0  0  0  0  0  0  0
   12.9249    1.2872   22.3392 C   0  0  0  0  0  0  0  0  0  0  0  0
   13.3856    2.4192   22.8900 F   0  0  0  0  0  0  0  0  0  0  0  0
   13.7420    0.1566   22.3758 C   0  0  0  0  0  0  0  0  0  0  0  0
   14.7219    0.1747   22.8343 H   0  0  0  0  0  0  0  0  0  0  0  0
   13.2183   -0.9995   21.8081 C   0  0  0  0  0  0  0  0  0  0  0  0
   14.0059   -2.0818   21.7323 F   0  0  0  0  0  0  0  0  0  0  0  0
   11.9116   -1.0692   21.3335 C   0  0  0  0  0  0  0  0  0  0  0  0
   11.5229   -2.0186   21.0091 H   0  0  0  0  0  0  0  0  0  0  0  0
  1  2  1  0
  2  3  2  3
  3  4  1  0
  4  5  1  0
  5  6  2  0
  6  7  1  0
  6  8  1  0
  8  9  2  0
  9 10  1  0
  9 11  1  0
 11 12  1  0
 11 13  2  0
 13 14  1  0
  4 15  2  0
 15 16  1  0
 16 17  1  0
 16 18  1  0
 16 19  1  0
 19 20  1  0
 19 21  1  0
  2 22  1  0
 22 23  2  0
 23 24  1  0
 23 25  1  0
 25 26  1  0
 25 27  2  0
 27 28  1  0
 27 29  1  0
 29 30  1  0
 29 31  2  0
 31 32  1  0
 19  3  1  0
 31 22  1  0
 13  5  1  0
M  END
>  <cnnaffinity>  (1) 
-6.03056

>  <filename>  (1) 
Fc1cc(F)cc(C=C2CCN=C2c2cccnc2)c1

$$$$
