
     RDKit          3D

 42 45  0  0  0  0  0  0  0  0999 V2000
    5.1096   -1.2083   25.6612 F   0  0  0  0  0  0  0  0  0  0  0  0
    4.1413   -2.0509   25.2546 C   0  0  0  0  0  0  0  0  0  0  0  0
    2.8445   -1.7762   25.6772 C   0  0  0  0  0  0  0  0  0  0  0  0
    1.8184   -2.6487   25.3137 C   0  0  0  0  0  0  0  0  0  0  0  0
    2.0962   -3.7571   24.5084 C   0  0  0  0  0  0  0  0  0  0  0  0
    3.4076   -3.9491   24.0702 C   0  0  0  0  0  0  0  0  0  0  0  0
    3.6358   -4.9781   23.2285 F   0  0  0  0  0  0  0  0  0  0  0  0
    4.4877   -3.1289   24.4263 C   0  0  0  0  0  0  0  0  0  0  0  0
    5.9025   -3.3775   23.9215 C   0  0  0  0  0  0  0  0  0  0  0  0
    6.0029   -3.2174   22.3825 C   0  0  0  0  0  0  0  0  0  0  0  0
    7.3567   -3.0677   21.7562 C   0  0  0  0  0  0  0  0  0  0  0  0
    8.1052   -4.0678   21.3318 N   0  0  0  0  0  0  0  0  0  0  0  0
    9.1264   -3.4584   20.6687 C   0  0  0  0  0  0  0  0  0  0  0  0
    9.8814   -4.5180   19.4084 C   0  0  0  0  0  0  0  0  0  0  0  0
   10.6300   -4.3061   18.3511 N   0  0  0  0  0  0  0  0  0  0  0  0
   11.3326   -5.4642   18.2258 C   0  0  0  0  0  0  0  0  0  0  0  0
   10.7912   -6.5044   18.9578 C   0  0  0  0  0  0  0  0  0  0  0  0
    9.4799   -6.0963   19.8321 S   0  0  0  0  0  0  0  0  0  0  0  0
   10.8832   -7.5610   18.7843 H   0  0  0  0  0  0  0  0  0  0  0  0
   12.1149   -5.5098   17.4837 H   0  0  0  0  0  0  0  0  0  0  0  0
    9.0857   -2.1423   20.7013 N   0  0  0  0  0  0  0  0  0  0  0  0
    7.9201   -1.8951   21.3656 N   0  0  0  0  0  0  0  0  0  0  0  0
    7.4061   -0.5273   21.4289 C   0  0  0  0  0  0  0  0  0  0  0  0
    6.6645   -0.0286   20.1906 C   0  0  0  0  0  0  0  0  0  0  0  0
    5.4432    0.6461   20.2990 C   0  0  0  0  0  0  0  0  0  0  0  0
    4.8491    1.1698   19.1460 C   0  0  0  0  0  0  0  0  0  0  0  0
    5.5001    1.0012   17.9224 C   0  0  0  0  0  0  0  0  0  0  0  0
    6.6662    0.3510   17.7919 N   0  0  0  0  0  0  0  0  0  0  0  0
    7.2260   -0.1418   18.9037 C   0  0  0  0  0  0  0  0  0  0  0  0
    8.1840   -0.6425   18.7772 H   0  0  0  0  0  0  0  0  0  0  0  0
    5.0701    1.3956   17.0023 H   0  0  0  0  0  0  0  0  0  0  0  0
    3.9081    1.7086   19.1836 H   0  0  0  0  0  0  0  0  0  0  0  0
    4.9733    0.7726   21.2764 H   0  0  0  0  0  0  0  0  0  0  0  0
    8.2722    0.1060   21.6421 H   0  0  0  0  0  0  0  0  0  0  0  0
    6.7452   -0.4598   22.2988 H   0  0  0  0  0  0  0  0  0  0  0  0
    5.3974   -2.3657   22.0638 H   0  0  0  0  0  0  0  0  0  0  0  0
    5.5446   -4.0887   21.9094 H   0  0  0  0  0  0  0  0  0  0  0  0
    6.5955   -2.6983   24.4389 H   0  0  0  0  0  0  0  0  0  0  0  0
    6.1801   -4.4037   24.1935 H   0  0  0  0  0  0  0  0  0  0  0  0
    1.3296   -4.4655   24.2127 H   0  0  0  0  0  0  0  0  0  0  0  0
    0.8078   -2.4750   25.6720 H   0  0  0  0  0  0  0  0  0  0  0  0
    2.6831   -0.8875   26.2758 H   0  0  0  0  0  0  0  0  0  0  0  0
  1  2  1  0
  2  3  2  0
  3  4  1  0
  4  5  2  0
  5  6  1  0
  6  7  1  0
  6  8  2  0
  8  9  1  0
  9 10  1  0
 10 11  1  0
 11 12  2  0
 12 13  1  0
 13 14  1  0
 14 15  2  0
 15 16  1  0
 16 17  2  0
 17 18  1  0
 17 19  1  0
 16 20  1  0
 13 21  2  0
 21 22  1  0
 22 23  1  0
 23 24  1  0
 24 25  2  0
 25 26  1  0
 26 27  2  0
 27 28  1  0
 28 29  2  0
 29 30  1  0
 27 31  1  0
 26 32  1  0
 25 33  1  0
 23 34  1  0
 23 35  1  0
 10 36  1  0
 10 37  1  0
  9 38  1  0
  9 39  1  0
  5 40  1  0
  4 41  1  0
  3 42  1  0
  8  2  1  0
 22 11  1  0
 29 24  1  0
 18 14  1  0
M  END
>  <cnnaffinity>  (1) 
-5.26346

>  <filename>  (1) 
Fc1cccc(F)c1CCc1nc(-c2nccs2)nn1Cc1cccnc1

$$$$
