
     RDKit          3D

 44 47  0  0  0  0  0  0  0  0999 V2000
    7.4783    5.7817   26.5446 F   0  0  0  0  0  0  0  0  0  0  0  0
    7.8606    4.8450   25.6629 C   0  0  0  0  0  0  0  0  0  0  0  0
    7.8462    5.1324   24.3071 C   0  0  0  0  0  0  0  0  0  0  0  0
    8.2474    4.1443   23.3937 C   0  0  0  0  0  0  0  0  0  0  0  0
    8.6591    2.8744   23.8245 C   0  0  0  0  0  0  0  0  0  0  0  0
    9.0673    1.8580   23.0191 O   0  0  0  0  0  0  0  0  0  0  0  0
    9.0594    1.9912   21.5991 C   0  0  0  0  0  0  0  0  0  0  0  0
    9.4979    0.6460   21.0153 C   0  0  0  0  0  0  0  0  0  0  0  0
    8.6063   -0.4649   21.4432 C   0  0  0  0  0  0  0  0  0  0  0  0
    8.8339   -1.2972   22.4306 N   0  0  0  0  0  0  0  0  0  0  0  0
    7.6528   -1.9649   22.5543 C   0  0  0  0  0  0  0  0  0  0  0  0
    7.4222   -2.9331   23.6596 C   0  0  0  0  0  0  0  0  0  0  0  0
    7.5298   -2.3275   25.1001 C   0  0  0  0  0  0  0  0  0  0  0  0
    8.7191   -3.2721   25.3971 C   0  0  0  0  0  0  0  0  0  0  0  0
    8.6041   -3.8942   23.9858 C   0  0  0  0  0  0  0  0  0  0  0  0
    9.4825   -3.7570   23.3461 H   0  0  0  0  0  0  0  0  0  0  0  0
    8.3398   -4.9547   23.9712 H   0  0  0  0  0  0  0  0  0  0  0  0
    9.6634   -2.7539   25.5815 H   0  0  0  0  0  0  0  0  0  0  0  0
    8.5631   -3.9691   26.2265 H   0  0  0  0  0  0  0  0  0  0  0  0
    6.6456   -2.4920   25.7215 H   0  0  0  0  0  0  0  0  0  0  0  0
    7.7658   -1.2544   25.1221 H   0  0  0  0  0  0  0  0  0  0  0  0
    6.4746   -3.4366   23.4571 H   0  0  0  0  0  0  0  0  0  0  0  0
    6.7310   -1.6252   21.6785 N   0  0  0  0  0  0  0  0  0  0  0  0
    7.3520   -0.6656   20.9384 N   0  0  0  0  0  0  0  0  0  0  0  0
    6.6574    0.0124   19.8995 C   0  0  0  0  0  0  0  0  0  0  0  0
    5.4389    0.6474   20.1646 C   0  0  0  0  0  0  0  0  0  0  0  0
    4.8124    1.3119   19.1079 C   0  0  0  0  0  0  0  0  0  0  0  0
    5.4007    1.2965   17.8367 C   0  0  0  0  0  0  0  0  0  0  0  0
    6.5593    0.6724   17.5743 N   0  0  0  0  0  0  0  0  0  0  0  0
    7.1679    0.0518   18.5903 C   0  0  0  0  0  0  0  0  0  0  0  0
    8.1127   -0.4380   18.3654 H   0  0  0  0  0  0  0  0  0  0  0  0
    4.9200    1.7860   16.9931 H   0  0  0  0  0  0  0  0  0  0  0  0
    3.8795    1.8398   19.2597 H   0  0  0  0  0  0  0  0  0  0  0  0
    5.0135    0.6100   21.1714 H   0  0  0  0  0  0  0  0  0  0  0  0
    9.5131    0.7224   19.9266 H   0  0  0  0  0  0  0  0  0  0  0  0
   10.5156    0.4089   21.3303 H   0  0  0  0  0  0  0  0  0  0  0  0
    8.0518    2.2507   21.2420 H   0  0  0  0  0  0  0  0  0  0  0  0
    9.7527    2.7832   21.2836 H   0  0  0  0  0  0  0  0  0  0  0  0
    8.6509    2.6370   25.2221 C   0  0  0  0  0  0  0  0  0  0  0  0
    9.0248    1.4325   25.6936 F   0  0  0  0  0  0  0  0  0  0  0  0
    8.2630    3.6007   26.1442 C   0  0  0  0  0  0  0  0  0  0  0  0
    8.2653    3.3878   27.2079 H   0  0  0  0  0  0  0  0  0  0  0  0
    8.2398    4.3701   22.3313 H   0  0  0  0  0  0  0  0  0  0  0  0
    7.5228    6.1129   23.9748 H   0  0  0  0  0  0  0  0  0  0  0  0
  1  2  1  0
  2  3  2  0
  3  4  1  0
  4  5  2  0
  5  6  1  0
  6  7  1  0
  7  8  1  0
  8  9  1  0
  9 10  2  0
 10 11  1  0
 11 12  1  0
 12 13  1  0
 13 14  1  0
 14 15  1  0
 15 16  1  0
 15 17  1  0
 14 18  1  0
 14 19  1  0
 13 20  1  0
 13 21  1  0
 12 22  1  0
 11 23  2  0
 23 24  1  0
 24 25  1  0
 25 26  2  0
 26 27  1  0
 27 28  2  0
 28 29  1  0
 29 30  2  0
 30 31  1  0
 28 32  1  0
 27 33  1  0
 26 34  1  0
  8 35  1  0
  8 36  1  0
  7 37  1  0
  7 38  1  0
  5 39  1  0
 39 40  1  0
 39 41  2  0
 41 42  1  0
  4 43  1  0
  3 44  1  0
 41  2  1  0
 24  9  1  0
 30 25  1  0
 15 12  1  0
M  END
>  <cnnaffinity>  (1) 
-6.30246

>  <filename>  (1) 
Fc1ccc(OCCc2nc(C3CCC3)nn2-c2cccnc2)c(F)c1

$$$$
