
     RDKit          3D

 44 47  0  0  0  0  0  0  0  0999 V2000
    2.9052    1.7865   25.4232 F   0  0  0  0  0  0  0  0  0  0  0  0
    4.1926    2.1455   25.5455 C   0  0  0  0  0  0  0  0  0  0  0  0
    4.5436    3.2020   26.3918 C   0  0  0  0  0  0  0  0  0  0  0  0
    5.8115    3.5994   26.5497 N   0  0  0  0  0  0  0  0  0  0  0  0
    6.7648    2.9474   25.8670 C   0  0  0  0  0  0  0  0  0  0  0  0
    6.5094    1.8786   24.9890 C   0  0  0  0  0  0  0  0  0  0  0  0
    7.6151    1.1867   24.2407 C   0  0  0  0  0  0  0  0  0  0  0  0
    7.9016    1.7477   22.8252 C   0  0  0  0  0  0  0  0  0  0  0  0
    8.9107    0.8911   22.1342 C   0  0  0  0  0  0  0  0  0  0  0  0
   10.2220    0.9467   22.3165 N   0  0  0  0  0  0  0  0  0  0  0  0
   10.6636   -0.2156   21.7816 C   0  0  0  0  0  0  0  0  0  0  0  0
   12.0832   -0.5878   21.6879 C   0  0  0  0  0  0  0  0  0  0  0  0
   12.4516   -1.6967   20.9119 C   0  0  0  0  0  0  0  0  0  0  0  0
   13.7516   -1.8419   20.4311 C   0  0  0  0  0  0  0  0  0  0  0  0
   14.6100   -0.7893   20.7313 C   0  0  0  0  0  0  0  0  0  0  0  0
   16.0409   -0.3260   19.6400 Cl  0  0  0  0  0  0  0  0  0  0  0  0
   14.3711    0.0963   21.6992 N   0  0  0  0  0  0  0  0  0  0  0  0
   13.1277    0.2050   22.1863 C   0  0  0  0  0  0  0  0  0  0  0  0
   12.9717    0.9828   22.9382 H   0  0  0  0  0  0  0  0  0  0  0  0
   14.0683   -2.6638   19.8045 H   0  0  0  0  0  0  0  0  0  0  0  0
   11.6282   -2.3551   20.6845 H   0  0  0  0  0  0  0  0  0  0  0  0
    9.7013   -0.9624   21.2522 N   0  0  0  0  0  0  0  0  0  0  0  0
    8.5813   -0.2434   21.4737 N   0  0  0  0  0  0  0  0  0  0  0  0
    7.2806   -0.7420   21.0223 C   0  0  0  0  0  0  0  0  0  0  0  0
    6.6021    0.0542   19.9202 C   0  0  0  0  0  0  0  0  0  0  0  0
    5.3712    0.7024   20.0936 C   0  0  0  0  0  0  0  0  0  0  0  0
    4.7881    1.3589   19.0053 C   0  0  0  0  0  0  0  0  0  0  0  0
    5.4600    1.3491   17.7803 C   0  0  0  0  0  0  0  0  0  0  0  0
    6.6377    0.7339   17.5925 N   0  0  0  0  0  0  0  0  0  0  0  0
    7.1861    0.1126   18.6433 C   0  0  0  0  0  0  0  0  0  0  0  0
    8.1381   -0.3823   18.4551 H   0  0  0  0  0  0  0  0  0  0  0  0
    5.0375    1.8492   16.9096 H   0  0  0  0  0  0  0  0  0  0  0  0
    3.8413    1.8806   19.0891 H   0  0  0  0  0  0  0  0  0  0  0  0
    4.8645    0.6919   21.0625 H   0  0  0  0  0  0  0  0  0  0  0  0
    6.6119   -0.8091   21.8873 H   0  0  0  0  0  0  0  0  0  0  0  0
    7.4665   -1.7687   20.6982 H   0  0  0  0  0  0  0  0  0  0  0  0
    8.2908    2.7657   22.8867 H   0  0  0  0  0  0  0  0  0  0  0  0
    6.9848    1.7991   22.2306 H   0  0  0  0  0  0  0  0  0  0  0  0
    8.5519    1.2284   24.8097 H   0  0  0  0  0  0  0  0  0  0  0  0
    7.3676    0.1200   24.1480 H   0  0  0  0  0  0  0  0  0  0  0  0
    5.1740    1.4691   24.8326 C   0  0  0  0  0  0  0  0  0  0  0  0
    4.8941    0.6293   24.1959 H   0  0  0  0  0  0  0  0  0  0  0  0
    7.7882    3.2834   26.0408 H   0  0  0  0  0  0  0  0  0  0  0  0
    3.7708    3.7356   26.9444 H   0  0  0  0  0  0  0  0  0  0  0  0
  1  2  1  0
  2  3  2  0
  3  4  1  0
  4  5  2  0
  5  6  1  0
  6  7  1  0
  7  8  1  0
  8  9  1  0
  9 10  2  0
 10 11  1  0
 11 12  1  0
 12 13  2  0
 13 14  1  0
 14 15  2  0
 15 16  1  0
 15 17  1  0
 17 18  2  0
 18 19  1  0
 14 20  1  0
 13 21  1  0
 11 22  2  0
 22 23  1  0
 23 24  1  0
 24 25  1  0
 25 26  2  0
 26 27  1  0
 27 28  2  0
 28 29  1  0
 29 30  2  0
 30 31  1  0
 28 32  1  0
 27 33  1  0
 26 34  1  0
 24 35  1  0
 24 36  1  0
  8 37  1  0
  8 38  1  0
  7 39  1  0
  7 40  1  0
  6 41  2  0
 41 42  1  0
  5 43  1  0
  3 44  1  0
 41  2  1  0
 23  9  1  0
 30 25  1  0
 18 12  1  0
M  END
>  <cnnaffinity>  (1) 
-6.65679

>  <filename>  (1) 
Fc1cncc(CCc2nc(-c3ccc(Cl)nc3)nn2Cc2cccnc2)c1

$$$$
