
     RDKit          3D

 43 47  0  0  0  0  0  0  0  0999 V2000
    8.5006    6.5088   23.5082 F   0  0  0  0  0  0  0  0  0  0  0  0
    8.0917    5.3907   24.1291 C   0  0  0  0  0  0  0  0  0  0  0  0
    7.2704    5.4816   25.2557 C   0  0  0  0  0  0  0  0  0  0  0  0
    6.8510    4.4000   25.9258 N   0  0  0  0  0  0  0  0  0  0  0  0
    7.2262    3.1946   25.4720 C   0  0  0  0  0  0  0  0  0  0  0  0
    8.0319    3.0040   24.3340 C   0  0  0  0  0  0  0  0  0  0  0  0
    8.3367    1.6300   23.8028 C   0  0  0  0  0  0  0  0  0  0  0  0
    7.2731    1.1686   22.7889 C   0  0  0  0  0  0  0  0  0  0  0  0
    7.5335   -0.1910   22.2370 C   0  0  0  0  0  0  0  0  0  0  0  0
    8.1463   -1.1504   22.9041 N   0  0  0  0  0  0  0  0  0  0  0  0
    8.1584   -2.1749   22.0250 C   0  0  0  0  0  0  0  0  0  0  0  0
    8.9221   -3.4297   22.2374 C   0  0  0  0  0  0  0  0  0  0  0  0
    8.2610   -4.7568   21.9778 C   0  0  0  0  0  0  0  0  0  0  0  0
    8.9516   -4.5313   23.3291 C   0  0  0  0  0  0  0  0  0  0  0  0
    9.9427   -4.4511   24.4653 C   0  0  0  0  0  0  0  0  0  0  0  0
    8.9255   -5.5681   24.4475 C   0  0  0  0  0  0  0  0  0  0  0  0
    8.0772   -5.5984   25.1280 H   0  0  0  0  0  0  0  0  0  0  0  0
    9.3214   -6.5476   24.1641 H   0  0  0  0  0  0  0  0  0  0  0  0
    9.7957   -3.5949   25.1307 H   0  0  0  0  0  0  0  0  0  0  0  0
   10.9876   -4.7053   24.2713 H   0  0  0  0  0  0  0  0  0  0  0  0
    7.1748   -4.7434   22.0760 H   0  0  0  0  0  0  0  0  0  0  0  0
    8.6176   -5.5160   21.2796 H   0  0  0  0  0  0  0  0  0  0  0  0
    9.9480   -3.2215   21.9328 H   0  0  0  0  0  0  0  0  0  0  0  0
    7.6103   -1.9174   20.8480 N   0  0  0  0  0  0  0  0  0  0  0  0
    7.1633   -0.6441   21.0014 N   0  0  0  0  0  0  0  0  0  0  0  0
    6.5287    0.0363   19.9256 C   0  0  0  0  0  0  0  0  0  0  0  0
    5.3306    0.7380   20.0999 C   0  0  0  0  0  0  0  0  0  0  0  0
    4.7705    1.3766   18.9902 C   0  0  0  0  0  0  0  0  0  0  0  0
    5.4324    1.3061   17.7609 C   0  0  0  0  0  0  0  0  0  0  0  0
    6.5729    0.6116   17.5856 N   0  0  0  0  0  0  0  0  0  0  0  0
    7.0951   -0.0161   18.6415 C   0  0  0  0  0  0  0  0  0  0  0  0
    8.0051   -0.5911   18.4786 H   0  0  0  0  0  0  0  0  0  0  0  0
    5.0334    1.8192   16.8873 H   0  0  0  0  0  0  0  0  0  0  0  0
    3.8457    1.9365   19.0786 H   0  0  0  0  0  0  0  0  0  0  0  0
    4.8477    0.7539   21.0763 H   0  0  0  0  0  0  0  0  0  0  0  0
    6.2893    1.1422   23.2735 H   0  0  0  0  0  0  0  0  0  0  0  0
    7.1954    1.8996   21.9788 H   0  0  0  0  0  0  0  0  0  0  0  0
    8.3997    0.9059   24.6224 H   0  0  0  0  0  0  0  0  0  0  0  0
    9.3238    1.6322   23.3236 H   0  0  0  0  0  0  0  0  0  0  0  0
    8.4839    4.1476   23.6506 C   0  0  0  0  0  0  0  0  0  0  0  0
    9.1208    4.0860   22.7685 H   0  0  0  0  0  0  0  0  0  0  0  0
    6.8646    2.3409   26.0467 H   0  0  0  0  0  0  0  0  0  0  0  0
    6.9578    6.4563   25.6209 H   0  0  0  0  0  0  0  0  0  0  0  0
  1  2  1  0
  2  3  2  0
  3  4  1  0
  4  5  2  0
  5  6  1  0
  6  7  1  0
  7  8  1  0
  8  9  1  0
  9 10  2  0
 10 11  1  0
 11 12  1  0
 12 13  1  0
 13 14  1  0
 14 15  1  0
 15 16  1  0
 16 17  1  0
 16 18  1  0
 15 19  1  0
 15 20  1  0
 13 21  1  0
 13 22  1  0
 12 23  1  0
 11 24  2  0
 24 25  1  0
 25 26  1  0
 26 27  2  0
 27 28  1  0
 28 29  2  0
 29 30  1  0
 30 31  2  0
 31 32  1  0
 29 33  1  0
 28 34  1  0
 27 35  1  0
  8 36  1  0
  8 37  1  0
  7 38  1  0
  7 39  1  0
  6 40  2  0
 40 41  1  0
  5 42  1  0
  3 43  1  0
 40  2  1  0
 25  9  1  0
 31 26  1  0
 14 12  1  0
 16 14  1  0
M  END
>  <cnnaffinity>  (1) 
-6.34728

>  <filename>  (1) 
Fc1cncc(CCc2nc(C3CC34CC4)nn2-c2cccnc2)c1

$$$$
