
     RDKit          3D

 42 45  0  0  0  0  0  0  0  0999 V2000
    7.4277    6.3183   23.8137 F   0  0  0  0  0  0  0  0  0  0  0  0
    7.8150    5.1197   24.2724 C   0  0  0  0  0  0  0  0  0  0  0  0
    7.7973    4.8927   25.6399 C   0  0  0  0  0  0  0  0  0  0  0  0
    8.2050    3.6350   26.1013 C   0  0  0  0  0  0  0  0  0  0  0  0
    8.6075    2.6566   25.2005 C   0  0  0  0  0  0  0  0  0  0  0  0
    8.9802    1.4536   25.6796 F   0  0  0  0  0  0  0  0  0  0  0  0
    8.6261    2.8956   23.8020 C   0  0  0  0  0  0  0  0  0  0  0  0
    9.0425    1.8813   23.0067 O   0  0  0  0  0  0  0  0  0  0  0  0
    9.0493    2.0024   21.5864 C   0  0  0  0  0  0  0  0  0  0  0  0
    9.4947    0.6507   21.0198 C   0  0  0  0  0  0  0  0  0  0  0  0
    8.6068   -0.4640   21.4516 C   0  0  0  0  0  0  0  0  0  0  0  0
    8.8403   -1.2946   22.4408 N   0  0  0  0  0  0  0  0  0  0  0  0
    7.6643   -1.9611   22.5713 C   0  0  0  0  0  0  0  0  0  0  0  0
    7.4433   -2.9270   23.6836 C   0  0  0  0  0  0  0  0  0  0  0  0
    7.4940   -2.2774   25.1024 C   0  0  0  0  0  0  0  0  0  0  0  0
    8.8890   -3.3400   25.6054 S   0  0  0  0  0  0  0  0  0  0  0  0
    8.5978   -3.9407   23.9072 C   0  0  0  0  0  0  0  0  0  0  0  0
    9.4662   -3.7985   23.2552 H   0  0  0  0  0  0  0  0  0  0  0  0
    8.2883   -4.9897   23.8839 H   0  0  0  0  0  0  0  0  0  0  0  0
    6.5963   -2.4509   25.7032 H   0  0  0  0  0  0  0  0  0  0  0  0
    7.7466   -1.2085   25.1194 H   0  0  0  0  0  0  0  0  0  0  0  0
    6.4900   -3.4154   23.4855 H   0  0  0  0  0  0  0  0  0  0  0  0
    6.7366   -1.6308   21.7001 N   0  0  0  0  0  0  0  0  0  0  0  0
    7.3521   -0.6715   20.9478 N   0  0  0  0  0  0  0  0  0  0  0  0
    6.6572    0.0069   19.9041 C   0  0  0  0  0  0  0  0  0  0  0  0
    5.4392    0.6455   20.1663 C   0  0  0  0  0  0  0  0  0  0  0  0
    4.8132    1.3110   19.1089 C   0  0  0  0  0  0  0  0  0  0  0  0
    5.4012    1.2960   17.8376 C   0  0  0  0  0  0  0  0  0  0  0  0
    6.5598    0.6713   17.5771 N   0  0  0  0  0  0  0  0  0  0  0  0
    7.1682    0.0502   18.5934 C   0  0  0  0  0  0  0  0  0  0  0  0
    8.1126   -0.4378   18.3657 H   0  0  0  0  0  0  0  0  0  0  0  0
    4.9207    1.7861   16.9933 H   0  0  0  0  0  0  0  0  0  0  0  0
    3.8804    1.8396   19.2594 H   0  0  0  0  0  0  0  0  0  0  0  0
    5.0134    0.6096   21.1727 H   0  0  0  0  0  0  0  0  0  0  0  0
   10.5122    0.4181   21.3396 H   0  0  0  0  0  0  0  0  0  0  0  0
    9.5170    0.7184   19.9309 H   0  0  0  0  0  0  0  0  0  0  0  0
    8.0453    2.2563   21.2160 H   0  0  0  0  0  0  0  0  0  0  0  0
    9.7464    2.7913   21.2715 H   0  0  0  0  0  0  0  0  0  0  0  0
    8.2194    4.1569   23.3442 C   0  0  0  0  0  0  0  0  0  0  0  0
    8.2127    4.4061   22.2883 H   0  0  0  0  0  0  0  0  0  0  0  0
    8.2076    3.4022   27.1613 H   0  0  0  0  0  0  0  0  0  0  0  0
    7.4681    5.6802   26.3132 H   0  0  0  0  0  0  0  0  0  0  0  0
  1  2  1  0
  2  3  2  0
  3  4  1  0
  4  5  2  0
  5  6  1  0
  5  7  1  0
  7  8  1  0
  8  9  1  0
  9 10  1  0
 10 11  1  0
 11 12  2  0
 12 13  1  0
 13 14  1  0
 14 15  1  0
 15 16  1  0
 16 17  1  0
 17 18  1  0
 17 19  1  0
 15 20  1  0
 15 21  1  0
 14 22  1  0
 13 23  2  0
 23 24  1  0
 24 25  1  0
 25 26  2  0
 26 27  1  0
 27 28  2  0
 28 29  1  0
 29 30  2  0
 30 31  1  0
 28 32  1  0
 27 33  1  0
 26 34  1  0
 10 35  1  0
 10 36  1  0
  9 37  1  0
  9 38  1  0
  7 39  2  0
 39 40  1  0
  4 41  1  0
  3 42  1  0
 39  2  1  0
 24 11  1  0
 30 25  1  0
 17 14  1  0
M  END
>  <cnnaffinity>  (1) 
-6.12421

>  <filename>  (1) 
Fc1ccc(F)c(OCCc2nc(C3CSC3)nn2-c2cccnc2)c1

$$$$
