
     RDKit          3D

 42 45  0  0  0  0  0  0  0  0999 V2000
    5.7235   -4.2265   27.8865 F   0  0  0  0  0  0  0  0  0  0  0  0
    5.6339   -4.0269   26.5620 C   0  0  0  0  0  0  0  0  0  0  0  0
    5.7023   -2.7370   26.0564 C   0  0  0  0  0  0  0  0  0  0  0  0
    5.6359   -2.5405   24.6644 C   0  0  0  0  0  0  0  0  0  0  0  0
    5.4926   -3.6205   23.7790 C   0  0  0  0  0  0  0  0  0  0  0  0
    5.4191   -3.5615   22.4165 O   0  0  0  0  0  0  0  0  0  0  0  0
    5.7698   -2.4469   21.6062 C   0  0  0  0  0  0  0  0  0  0  0  0
    7.0884   -1.7531   21.8204 C   0  0  0  0  0  0  0  0  0  0  0  0
    8.1028   -2.0569   22.6079 N   0  0  0  0  0  0  0  0  0  0  0  0
    9.0323   -1.1241   22.2976 C   0  0  0  0  0  0  0  0  0  0  0  0
   10.3935   -1.1918   22.8945 C   0  0  0  0  0  0  0  0  0  0  0  0
   11.4466   -1.7980   21.9342 C   0  0  0  0  0  0  0  0  0  0  0  0
   12.7451   -1.0680   22.3016 C   0  0  0  0  0  0  0  0  0  0  0  0
   12.4312   -0.1884   23.3676 O   0  0  0  0  0  0  0  0  0  0  0  0
   11.0560    0.1317   23.2854 C   0  0  0  0  0  0  0  0  0  0  0  0
   10.8623    0.9058   22.5260 H   0  0  0  0  0  0  0  0  0  0  0  0
   10.7543    0.5150   24.2650 H   0  0  0  0  0  0  0  0  0  0  0  0
   13.1421   -0.5000   21.4624 H   0  0  0  0  0  0  0  0  0  0  0  0
   13.5433   -1.7369   22.6196 H   0  0  0  0  0  0  0  0  0  0  0  0
   11.1815   -1.5895   20.8943 H   0  0  0  0  0  0  0  0  0  0  0  0
   11.5122   -2.8787   22.0579 H   0  0  0  0  0  0  0  0  0  0  0  0
   10.3014   -1.8170   23.7852 H   0  0  0  0  0  0  0  0  0  0  0  0
    8.6826   -0.2817   21.3446 N   0  0  0  0  0  0  0  0  0  0  0  0
    7.4151   -0.6690   21.0544 N   0  0  0  0  0  0  0  0  0  0  0  0
    6.7124   -0.0053   20.0088 C   0  0  0  0  0  0  0  0  0  0  0  0
    5.4732    0.6150   20.2117 C   0  0  0  0  0  0  0  0  0  0  0  0
    4.8779    1.2634   19.1247 C   0  0  0  0  0  0  0  0  0  0  0  0
    5.5239    1.2462   17.8870 C   0  0  0  0  0  0  0  0  0  0  0  0
    6.7134    0.6498   17.6876 N   0  0  0  0  0  0  0  0  0  0  0  0
    7.2984    0.0613   18.7338 C   0  0  0  0  0  0  0  0  0  0  0  0
    8.2611   -0.4124   18.5535 H   0  0  0  0  0  0  0  0  0  0  0  0
    5.0674    1.7191   17.0200 H   0  0  0  0  0  0  0  0  0  0  0  0
    3.9246    1.7687   19.2361 H   0  0  0  0  0  0  0  0  0  0  0  0
    5.0019    0.6008   21.1946 H   0  0  0  0  0  0  0  0  0  0  0  0
    4.9815   -1.6960   21.5921 H   0  0  0  0  0  0  0  0  0  0  0  0
    5.7638   -2.8574   20.5943 H   0  0  0  0  0  0  0  0  0  0  0  0
    5.4153   -4.9106   24.3560 C   0  0  0  0  0  0  0  0  0  0  0  0
    5.2713   -5.9721   23.5499 F   0  0  0  0  0  0  0  0  0  0  0  0
    5.4976   -5.1363   25.7258 C   0  0  0  0  0  0  0  0  0  0  0  0
    5.4834   -6.1474   26.1225 H   0  0  0  0  0  0  0  0  0  0  0  0
    5.7608   -1.5410   24.2611 H   0  0  0  0  0  0  0  0  0  0  0  0
    5.8376   -1.9069   26.7459 H   0  0  0  0  0  0  0  0  0  0  0  0
  1  2  1  0
  2  3  2  0
  3  4  1  0
  4  5  2  0
  5  6  1  0
  6  7  1  0
  7  8  1  0
  8  9  2  0
  9 10  1  0
 10 11  1  0
 11 12  1  0
 12 13  1  0
 13 14  1  0
 14 15  1  0
 15 16  1  0
 15 17  1  0
 13 18  1  0
 13 19  1  0
 12 20  1  0
 12 21  1  0
 11 22  1  0
 10 23  2  0
 23 24  1  0
 24 25  1  0
 25 26  2  0
 26 27  1  0
 27 28  2  0
 28 29  1  0
 29 30  2  0
 30 31  1  0
 28 32  1  0
 27 33  1  0
 26 34  1  0
  7 35  1  0
  7 36  1  0
  5 37  1  0
 37 38  1  0
 37 39  2  0
 39 40  1  0
  4 41  1  0
  3 42  1  0
 39  2  1  0
 24  8  1  0
 30 25  1  0
 15 11  1  0
M  END
>  <cnnaffinity>  (1) 
-5.9524

>  <filename>  (1) 
Fc1ccc(OCc2nc(C3CCOC3)nn2-c2cccnc2)c(F)c1

$$$$
