
     RDKit          3D

 41 45  0  0  0  0  0  0  0  0999 V2000
   13.5725    1.6324   24.1208 F   0  0  0  0  0  0  0  0  0  0  0  0
   12.5805    1.2993   23.2852 C   0  0  0  0  0  0  0  0  0  0  0  0
   11.4423    2.0939   23.2032 C   0  0  0  0  0  0  0  0  0  0  0  0
   10.4164    1.7274   22.3223 C   0  0  0  0  0  0  0  0  0  0  0  0
   10.5146    0.5791   21.5301 C   0  0  0  0  0  0  0  0  0  0  0  0
    9.3724    0.1839   20.6147 C   0  0  0  0  0  0  0  0  0  0  0  0
    8.2518   -0.5273   21.3128 C   0  0  0  0  0  0  0  0  0  0  0  0
    8.4218   -1.3482   22.3190 N   0  0  0  0  0  0  0  0  0  0  0  0
    7.2036   -1.9260   22.4774 C   0  0  0  0  0  0  0  0  0  0  0  0
    7.1318   -2.9980   23.4913 C   0  0  0  0  0  0  0  0  0  0  0  0
    5.9113   -3.7747   23.9640 C   0  0  0  0  0  0  0  0  0  0  0  0
    6.9766   -4.4524   23.1348 C   0  0  0  0  0  0  0  0  0  0  0  0
    7.9728   -5.5528   23.0206 C   0  0  0  0  0  0  0  0  0  0  0  0
    7.0334   -5.2257   21.8616 C   0  0  0  0  0  0  0  0  0  0  0  0
    6.2379   -5.9586   21.7179 H   0  0  0  0  0  0  0  0  0  0  0  0
    7.3833   -4.7333   20.9523 H   0  0  0  0  0  0  0  0  0  0  0  0
    9.0180   -5.2428   22.9702 H   0  0  0  0  0  0  0  0  0  0  0  0
    7.7790   -6.4895   23.5340 H   0  0  0  0  0  0  0  0  0  0  0  0
    5.8417   -3.9428   25.0405 H   0  0  0  0  0  0  0  0  0  0  0  0
    4.9588   -3.6599   23.4439 H   0  0  0  0  0  0  0  0  0  0  0  0
    7.9047   -2.8205   24.2445 H   0  0  0  0  0  0  0  0  0  0  0  0
    6.2726   -1.4891   21.6475 N   0  0  0  0  0  0  0  0  0  0  0  0
    6.9515   -0.5917   20.8751 N   0  0  0  0  0  0  0  0  0  0  0  0
    6.3355    0.0539   19.7589 C   0  0  0  0  0  0  0  0  0  0  0  0
    5.1541    0.7908   19.9051 C   0  0  0  0  0  0  0  0  0  0  0  0
    4.6695    1.4837   18.7898 C   0  0  0  0  0  0  0  0  0  0  0  0
    5.3597    1.3983   17.5754 C   0  0  0  0  0  0  0  0  0  0  0  0
    6.4611    0.6513   17.4111 N   0  0  0  0  0  0  0  0  0  0  0  0
    6.9212   -0.0076   18.4794 C   0  0  0  0  0  0  0  0  0  0  0  0
    7.8179   -0.6025   18.3188 H   0  0  0  0  0  0  0  0  0  0  0  0
    5.0138    1.9351   16.6967 H   0  0  0  0  0  0  0  0  0  0  0  0
    3.7843    2.1086   18.8547 H   0  0  0  0  0  0  0  0  0  0  0  0
    4.6550    0.8329   20.8718 H   0  0  0  0  0  0  0  0  0  0  0  0
    8.9802    1.0654   20.1011 H   0  0  0  0  0  0  0  0  0  0  0  0
    9.7377   -0.5145   19.8508 H   0  0  0  0  0  0  0  0  0  0  0  0
   11.6664   -0.2209   21.6407 C   0  0  0  0  0  0  0  0  0  0  0  0
   12.6935    0.1438   22.5097 C   0  0  0  0  0  0  0  0  0  0  0  0
   13.8081   -0.6004   22.5924 F   0  0  0  0  0  0  0  0  0  0  0  0
   11.8032   -1.1227   21.0537 H   0  0  0  0  0  0  0  0  0  0  0  0
    9.5308    2.3541   22.2427 H   0  0  0  0  0  0  0  0  0  0  0  0
   11.3842    2.9885   23.8182 H   0  0  0  0  0  0  0  0  0  0  0  0
  1  2  1  0
  2  3  2  0
  3  4  1  0
  4  5  2  0
  5  6  1  0
  6  7  1  0
  7  8  2  0
  8  9  1  0
  9 10  1  0
 10 11  1  0
 11 12  1  0
 12 13  1  0
 13 14  1  0
 14 15  1  0
 14 16  1  0
 13 17  1  0
 13 18  1  0
 11 19  1  0
 11 20  1  0
 10 21  1  0
  9 22  2  0
 22 23  1  0
 23 24  1  0
 24 25  2  0
 25 26  1  0
 26 27  2  0
 27 28  1  0
 28 29  2  0
 29 30  1  0
 27 31  1  0
 26 32  1  0
 25 33  1  0
  6 34  1  0
  6 35  1  0
  5 36  1  0
 36 37  2  0
 37 38  1  0
 36 39  1  0
  4 40  1  0
  3 41  1  0
 37  2  1  0
 23  7  1  0
 29 24  1  0
 12 10  1  0
 14 12  1  0
M  END
>  <cnnaffinity>  (1) 
-7.0534

>  <filename>  (1) 
Fc1ccc(Cc2nc(C3CC34CC4)nn2-c2cccnc2)cc1F

$$$$
