
     RDKit          3D

 45 48  0  0  0  0  0  0  0  0999 V2000
   12.4937    1.4500   24.7034 F   0  0  0  0  0  0  0  0  0  0  0  0
   11.1541    1.5352   24.7262 C   0  0  0  0  0  0  0  0  0  0  0  0
   10.4644    1.2096   25.8845 C   0  0  0  0  0  0  0  0  0  0  0  0
    9.0761    1.3754   25.9132 C   0  0  0  0  0  0  0  0  0  0  0  0
    8.3987    1.7491   24.7589 C   0  0  0  0  0  0  0  0  0  0  0  0
    7.0589    1.8749   24.8179 F   0  0  0  0  0  0  0  0  0  0  0  0
    9.0891    1.9670   23.5429 C   0  0  0  0  0  0  0  0  0  0  0  0
    8.3607    2.1830   22.4184 O   0  0  0  0  0  0  0  0  0  0  0  0
    8.9799    2.0180   21.1425 C   0  0  0  0  0  0  0  0  0  0  0  0
    9.5135    0.5939   20.8915 C   0  0  0  0  0  0  0  0  0  0  0  0
    8.6080   -0.4683   21.4155 C   0  0  0  0  0  0  0  0  0  0  0  0
    8.8414   -1.3042   22.4052 N   0  0  0  0  0  0  0  0  0  0  0  0
    7.6302   -1.9085   22.6003 C   0  0  0  0  0  0  0  0  0  0  0  0
    7.4511   -2.8823   23.7520 C   0  0  0  0  0  0  0  0  0  0  0  0
    7.1216   -2.1930   25.1042 C   0  0  0  0  0  0  0  0  0  0  0  0
    5.5969   -2.3033   25.1957 C   0  0  0  0  0  0  0  0  0  0  0  0
    5.2707   -3.5439   24.3543 C   0  0  0  0  0  0  0  0  0  0  0  0
    6.4228   -3.8435   23.5682 O   0  0  0  0  0  0  0  0  0  0  0  0
    5.0377   -4.4185   24.9755 H   0  0  0  0  0  0  0  0  0  0  0  0
    4.4240   -3.3655   23.6823 H   0  0  0  0  0  0  0  0  0  0  0  0
    5.1181   -1.4167   24.7753 H   0  0  0  0  0  0  0  0  0  0  0  0
    5.2564   -2.4071   26.2313 H   0  0  0  0  0  0  0  0  0  0  0  0
    7.5923   -2.7655   25.9110 H   0  0  0  0  0  0  0  0  0  0  0  0
    7.4860   -1.1591   25.1556 H   0  0  0  0  0  0  0  0  0  0  0  0
    8.4001   -3.4265   23.8103 H   0  0  0  0  0  0  0  0  0  0  0  0
    6.6788   -1.5051   21.7791 N   0  0  0  0  0  0  0  0  0  0  0  0
    7.3240   -0.6125   20.9823 N   0  0  0  0  0  0  0  0  0  0  0  0
    6.6543    0.0153   19.8996 C   0  0  0  0  0  0  0  0  0  0  0  0
    5.4349    0.6531   20.1460 C   0  0  0  0  0  0  0  0  0  0  0  0
    4.8160    1.3201   19.0862 C   0  0  0  0  0  0  0  0  0  0  0  0
    5.4220    1.3096   17.8241 C   0  0  0  0  0  0  0  0  0  0  0  0
    6.5741    0.6694   17.5711 N   0  0  0  0  0  0  0  0  0  0  0  0
    7.1682    0.0360   18.5908 C   0  0  0  0  0  0  0  0  0  0  0  0
    8.0941   -0.4843   18.3527 H   0  0  0  0  0  0  0  0  0  0  0  0
    4.9540    1.8184   16.9823 H   0  0  0  0  0  0  0  0  0  0  0  0
    3.8758    1.8419   19.2339 H   0  0  0  0  0  0  0  0  0  0  0  0
    5.0059    0.6141   21.1472 H   0  0  0  0  0  0  0  0  0  0  0  0
    9.6377    0.4550   19.8178 H   0  0  0  0  0  0  0  0  0  0  0  0
   10.4908    0.4475   21.3599 H   0  0  0  0  0  0  0  0  0  0  0  0
    8.1921    2.2615   20.4259 H   0  0  0  0  0  0  0  0  0  0  0  0
    9.7883    2.7515   21.0229 H   0  0  0  0  0  0  0  0  0  0  0  0
   10.4923    1.9530   23.5744 C   0  0  0  0  0  0  0  0  0  0  0  0
   11.0731    2.2414   22.7095 H   0  0  0  0  0  0  0  0  0  0  0  0
    8.5032    1.2136   26.8250 H   0  0  0  0  0  0  0  0  0  0  0  0
   10.9965    0.8089   26.7372 H   0  0  0  0  0  0  0  0  0  0  0  0
  1  2  1  0
  2  3  2  0
  3  4  1  0
  4  5  2  0
  5  6  1  0
  5  7  1  0
  7  8  1  0
  8  9  1  0
  9 10  1  0
 10 11  1  0
 11 12  2  0
 12 13  1  0
 13 14  1  0
 14 15  1  0
 15 16  1  0
 16 17  1  0
 17 18  1  0
 17 19  1  0
 17 20  1  0
 16 21  1  0
 16 22  1  0
 15 23  1  0
 15 24  1  0
 14 25  1  0
 13 26  2  0
 26 27  1  0
 27 28  1  0
 28 29  2  0
 29 30  1  0
 30 31  2  0
 31 32  1  0
 32 33  2  0
 33 34  1  0
 31 35  1  0
 30 36  1  0
 29 37  1  0
 10 38  1  0
 10 39  1  0
  9 40  1  0
  9 41  1  0
  7 42  2  0
 42 43  1  0
  4 44  1  0
  3 45  1  0
 42  2  1  0
 27 11  1  0
 33 28  1  0
 18 14  1  0
M  END
>  <cnnaffinity>  (1) 
-6.16455

>  <filename>  (1) 
Fc1ccc(F)c(OCCc2nc(C3CCCO3)nn2-c2cccnc2)c1

$$$$
