
     RDKit          3D

 45 48  0  0  0  0  0  0  0  0999 V2000
    8.7174    4.7284   27.2037 F   0  0  0  0  0  0  0  0  0  0  0  0
    7.9524    3.7397   26.7219 C   0  0  0  0  0  0  0  0  0  0  0  0
    6.7564    3.4314   27.3623 C   0  0  0  0  0  0  0  0  0  0  0  0
    5.9184    2.5079   26.7444 C   0  0  0  0  0  0  0  0  0  0  0  0
    4.7321    2.2368   27.3050 F   0  0  0  0  0  0  0  0  0  0  0  0
    6.2472    1.8793   25.5512 C   0  0  0  0  0  0  0  0  0  0  0  0
    7.4903    2.1720   24.9522 C   0  0  0  0  0  0  0  0  0  0  0  0
    7.8671    1.5328   23.6653 C   0  0  0  0  0  0  0  0  0  0  0  0
    7.1759    0.5500   23.1079 N   0  0  0  0  0  0  0  0  0  0  0  0
    7.9097    0.2380   22.0199 N   0  0  0  0  0  0  0  0  0  0  0  0
    7.3913   -0.6897   21.0227 C   0  0  0  0  0  0  0  0  0  0  0  0
    6.6547   -0.0036   19.8830 C   0  0  0  0  0  0  0  0  0  0  0  0
    5.4413    0.6491   20.1359 C   0  0  0  0  0  0  0  0  0  0  0  0
    4.7988    1.3075   19.0839 C   0  0  0  0  0  0  0  0  0  0  0  0
    5.3930    1.2985   17.8192 C   0  0  0  0  0  0  0  0  0  0  0  0
    6.5523    0.6757   17.5568 N   0  0  0  0  0  0  0  0  0  0  0  0
    7.1587    0.0531   18.5748 C   0  0  0  0  0  0  0  0  0  0  0  0
    8.1046   -0.4315   18.3235 H   0  0  0  0  0  0  0  0  0  0  0  0
    4.9257    1.8108   16.9778 H   0  0  0  0  0  0  0  0  0  0  0  0
    3.8678    1.8457   19.2328 H   0  0  0  0  0  0  0  0  0  0  0  0
    5.0301    0.6466   21.1472 H   0  0  0  0  0  0  0  0  0  0  0  0
    6.7271   -1.3527   21.5842 H   0  0  0  0  0  0  0  0  0  0  0  0
    8.2280   -1.2877   20.6447 H   0  0  0  0  0  0  0  0  0  0  0  0
    8.9954    1.0366   21.9656 C   0  0  0  0  0  0  0  0  0  0  0  0
   10.0984    0.8331   20.9819 C   0  0  0  0  0  0  0  0  0  0  0  0
   11.0632   -0.3244   21.3512 C   0  0  0  0  0  0  0  0  0  0  0  0
   11.7559   -0.0470   22.6653 C   0  0  0  0  0  0  0  0  0  0  0  0
   11.2072   -0.5174   23.8689 C   0  0  0  0  0  0  0  0  0  0  0  0
   11.8203   -0.1711   25.0736 C   0  0  0  0  0  0  0  0  0  0  0  0
   12.9832    0.5905   25.0336 C   0  0  0  0  0  0  0  0  0  0  0  0
   13.5007    1.0964   23.9084 N   0  0  0  0  0  0  0  0  0  0  0  0
   12.8801    0.7984   22.7578 C   0  0  0  0  0  0  0  0  0  0  0  0
   13.3157    1.2579   21.8679 H   0  0  0  0  0  0  0  0  0  0  0  0
   13.5307    0.7564   25.9540 H   0  0  0  0  0  0  0  0  0  0  0  0
   11.4476   -0.5069   26.0320 H   0  0  0  0  0  0  0  0  0  0  0  0
   10.3299   -1.1680   23.8566 H   0  0  0  0  0  0  0  0  0  0  0  0
   10.5103   -1.2721   21.4237 H   0  0  0  0  0  0  0  0  0  0  0  0
   11.7967   -0.4881   20.5559 H   0  0  0  0  0  0  0  0  0  0  0  0
    9.6367    0.6622   20.0068 H   0  0  0  0  0  0  0  0  0  0  0  0
   10.6495    1.7759   20.9256 H   0  0  0  0  0  0  0  0  0  0  0  0
    8.9784    1.8910   22.9663 N   0  0  0  0  0  0  0  0  0  0  0  0
    8.3633    3.0958   25.5638 C   0  0  0  0  0  0  0  0  0  0  0  0
    9.3376    3.3410   25.1498 H   0  0  0  0  0  0  0  0  0  0  0  0
    5.5418    1.1876   25.0986 H   0  0  0  0  0  0  0  0  0  0  0  0
    6.4764    3.9021   28.2917 H   0  0  0  0  0  0  0  0  0  0  0  0
  1  2  1  0
  2  3  2  0
  3  4  1  0
  4  5  1  0
  4  6  2  0
  6  7  1  0
  7  8  1  0
  8  9  2  0
  9 10  1  0
 10 11  1  0
 11 12  1  0
 12 13  2  0
 13 14  1  0
 14 15  2  0
 15 16  1  0
 16 17  2  0
 17 18  1  0
 15 19  1  0
 14 20  1  0
 13 21  1  0
 11 22  1  0
 11 23  1  0
 10 24  1  0
 24 25  1  0
 25 26  1  0
 26 27  1  0
 27 28  2  0
 28 29  1  0
 29 30  2  0
 30 31  1  0
 31 32  2  0
 32 33  1  0
 30 34  1  0
 29 35  1  0
 28 36  1  0
 26 37  1  0
 26 38  1  0
 25 39  1  0
 25 40  1  0
 24 41  2  0
  7 42  2  0
 42 43  1  0
  6 44  1  0
  3 45  1  0
 42  2  1  0
 41  8  1  0
 17 12  1  0
 32 27  1  0
M  END
>  <cnnaffinity>  (1) 
-6.11394

>  <filename>  (1) 
Fc1cc(F)cc(-c2nc(CCc3cccnc3)n(Cc3cccnc3)n2)c1

$$$$
