
     RDKit          3D

 45 48  0  0  0  0  0  0  0  0999 V2000
   13.9926   -2.2003   21.0948 F   0  0  0  0  0  0  0  0  0  0  0  0
   13.1924   -1.3521   21.7524 C   0  0  0  0  0  0  0  0  0  0  0  0
   13.7654   -0.4147   22.6196 C   0  0  0  0  0  0  0  0  0  0  0  0
   13.0343    0.4369   23.3465 N   0  0  0  0  0  0  0  0  0  0  0  0
   11.7072    0.4082   23.1984 C   0  0  0  0  0  0  0  0  0  0  0  0
   11.0564   -0.4712   22.3227 C   0  0  0  0  0  0  0  0  0  0  0  0
    9.6119   -0.2955   22.2086 C   0  0  0  0  0  0  0  0  0  0  0  0
    8.7799   -1.1116   21.5941 N   0  0  0  0  0  0  0  0  0  0  0  0
    7.5775   -0.4951   21.7496 N   0  0  0  0  0  0  0  0  0  0  0  0
    6.4116   -0.9524   20.9977 C   0  0  0  0  0  0  0  0  0  0  0  0
    6.0556   -0.0683   19.8161 C   0  0  0  0  0  0  0  0  0  0  0  0
    4.8742    0.6787   19.7396 C   0  0  0  0  0  0  0  0  0  0  0  0
    4.6671    1.4993   18.6276 C   0  0  0  0  0  0  0  0  0  0  0  0
    5.6324    1.5147   17.6187 C   0  0  0  0  0  0  0  0  0  0  0  0
    6.7620    0.7938   17.6613 N   0  0  0  0  0  0  0  0  0  0  0  0
    6.9601    0.0367   18.7457 C   0  0  0  0  0  0  0  0  0  0  0  0
    7.8917   -0.5271   18.7653 H   0  0  0  0  0  0  0  0  0  0  0  0
    5.4954    2.1275   16.7311 H   0  0  0  0  0  0  0  0  0  0  0  0
    3.7893    2.1292   18.5319 H   0  0  0  0  0  0  0  0  0  0  0  0
    4.1167    0.6146   20.5232 H   0  0  0  0  0  0  0  0  0  0  0  0
    5.5682   -1.0349   21.6833 H   0  0  0  0  0  0  0  0  0  0  0  0
    6.6464   -1.9674   20.6663 H   0  0  0  0  0  0  0  0  0  0  0  0
    7.7487    0.6488   22.4582 C   0  0  0  0  0  0  0  0  0  0  0  0
    6.7172    1.5497   23.0576 C   0  0  0  0  0  0  0  0  0  0  0  0
    6.6059    1.3598   24.5886 C   0  0  0  0  0  0  0  0  0  0  0  0
    5.6096    2.2584   25.2904 C   0  0  0  0  0  0  0  0  0  0  0  0
    4.2530    1.8996   25.3618 C   0  0  0  0  0  0  0  0  0  0  0  0
    3.3384    2.5999   26.1531 C   0  0  0  0  0  0  0  0  0  0  0  0
    3.7939    3.6935   26.8800 C   0  0  0  0  0  0  0  0  0  0  0  0
    2.9422    4.3414   27.6898 F   0  0  0  0  0  0  0  0  0  0  0  0
    5.1041    4.1461   26.7850 C   0  0  0  0  0  0  0  0  0  0  0  0
    5.9789    3.4271   25.9724 C   0  0  0  0  0  0  0  0  0  0  0  0
    7.2430    3.8791   25.8752 F   0  0  0  0  0  0  0  0  0  0  0  0
    5.4393    5.0126   27.3392 H   0  0  0  0  0  0  0  0  0  0  0  0
    2.3009    2.3035   26.2402 H   0  0  0  0  0  0  0  0  0  0  0  0
    3.9167    1.0236   24.8110 H   0  0  0  0  0  0  0  0  0  0  0  0
    6.3269    0.3177   24.7958 H   0  0  0  0  0  0  0  0  0  0  0  0
    7.6090    1.4935   25.0111 H   0  0  0  0  0  0  0  0  0  0  0  0
    5.7528    1.4163   22.5639 H   0  0  0  0  0  0  0  0  0  0  0  0
    7.0522    2.5724   22.8626 H   0  0  0  0  0  0  0  0  0  0  0  0
    9.0279    0.8100   22.7318 N   0  0  0  0  0  0  0  0  0  0  0  0
   11.8151   -1.3953   21.5825 C   0  0  0  0  0  0  0  0  0  0  0  0
   11.3570   -2.0868   20.8817 H   0  0  0  0  0  0  0  0  0  0  0  0
   11.1290    1.1008   23.8030 H   0  0  0  0  0  0  0  0  0  0  0  0
   14.8438   -0.3574   22.7106 H   0  0  0  0  0  0  0  0  0  0  0  0
  1  2  1  0
  2  3  2  0
  3  4  1  0
  4  5  2  0
  5  6  1  0
  6  7  1  0
  7  8  2  0
  8  9  1  0
  9 10  1  0
 10 11  1  0
 11 12  2  0
 12 13  1  0
 13 14  2  0
 14 15  1  0
 15 16  2  0
 16 17  1  0
 14 18  1  0
 13 19  1  0
 12 20  1  0
 10 21  1  0
 10 22  1  0
  9 23  1  0
 23 24  1  0
 24 25  1  0
 25 26  1  0
 26 27  2  0
 27 28  1  0
 28 29  2  0
 29 30  1  0
 29 31  1  0
 31 32  2  0
 32 33  1  0
 31 34  1  0
 28 35  1  0
 27 36  1  0
 25 37  1  0
 25 38  1  0
 24 39  1  0
 24 40  1  0
 23 41  2  0
  6 42  2  0
 42 43  1  0
  5 44  1  0
  3 45  1  0
 42  2  1  0
 41  7  1  0
 16 11  1  0
 32 26  1  0
M  END
>  <cnnaffinity>  (1) 
-6.70431

>  <filename>  (1) 
Fc1cncc(-c2nc(CCc3ccc(F)cc3F)n(Cc3cccnc3)n2)c1

$$$$
