
     RDKit          3D

 41 44  0  0  0  0  0  0  0  0999 V2000
   11.7570    3.2541   24.5172 F   0  0  0  0  0  0  0  0  0  0  0  0
   11.2470    2.4825   23.5514 C   0  0  0  0  0  0  0  0  0  0  0  0
   11.9944    1.4061   23.0756 C   0  0  0  0  0  0  0  0  0  0  0  0
   11.4446    0.6314   22.0514 C   0  0  0  0  0  0  0  0  0  0  0  0
   10.1713    0.8963   21.5249 C   0  0  0  0  0  0  0  0  0  0  0  0
    9.5384   -0.0614   20.5353 C   0  0  0  0  0  0  0  0  0  0  0  0
    8.4548   -0.8851   21.1627 C   0  0  0  0  0  0  0  0  0  0  0  0
    8.6759   -1.6669   22.1994 N   0  0  0  0  0  0  0  0  0  0  0  0
    7.4566   -2.2051   22.4624 C   0  0  0  0  0  0  0  0  0  0  0  0
    7.1678   -3.0634   23.6845 C   0  0  0  0  0  0  0  0  0  0  0  0
    7.0898   -2.2741   25.0303 C   0  0  0  0  0  0  0  0  0  0  0  0
    7.6097   -3.3078   26.0413 C   0  0  0  0  0  0  0  0  0  0  0  0
    8.7033   -3.9720   25.2120 C   0  0  0  0  0  0  0  0  0  0  0  0
    8.1412   -4.0872   23.9069 O   0  0  0  0  0  0  0  0  0  0  0  0
    9.6108   -3.3407   25.1870 H   0  0  0  0  0  0  0  0  0  0  0  0
    8.9888   -4.9795   25.5291 H   0  0  0  0  0  0  0  0  0  0  0  0
    7.9970   -2.8688   26.9651 H   0  0  0  0  0  0  0  0  0  0  0  0
    6.8320   -4.0328   26.3205 H   0  0  0  0  0  0  0  0  0  0  0  0
    7.7761   -1.4142   24.9929 H   0  0  0  0  0  0  0  0  0  0  0  0
    6.0848   -1.8901   25.2428 H   0  0  0  0  0  0  0  0  0  0  0  0
    6.2075   -3.5467   23.4656 H   0  0  0  0  0  0  0  0  0  0  0  0
    6.4957   -1.8014   21.6447 N   0  0  0  0  0  0  0  0  0  0  0  0
    7.1432   -0.9760   20.7789 N   0  0  0  0  0  0  0  0  0  0  0  0
    6.4535   -0.2492   19.7662 C   0  0  0  0  0  0  0  0  0  0  0  0
    5.2849    0.4659   20.0562 C   0  0  0  0  0  0  0  0  0  0  0  0
    4.7523    1.2818   19.0491 C   0  0  0  0  0  0  0  0  0  0  0  0
    5.3754    1.3205   17.7955 C   0  0  0  0  0  0  0  0  0  0  0  0
    6.4529    0.5808   17.4915 N   0  0  0  0  0  0  0  0  0  0  0  0
    6.9637   -0.1910   18.4563 C   0  0  0  0  0  0  0  0  0  0  0  0
    7.8358   -0.7871   18.1887 H   0  0  0  0  0  0  0  0  0  0  0  0
    4.9880    1.9507   16.9976 H   0  0  0  0  0  0  0  0  0  0  0  0
    3.8806    1.9032   19.2318 H   0  0  0  0  0  0  0  0  0  0  0  0
    4.8327    0.3900   21.0463 H   0  0  0  0  0  0  0  0  0  0  0  0
   10.2989   -0.7670   20.1998 H   0  0  0  0  0  0  0  0  0  0  0  0
    9.1769    0.4803   19.6580 H   0  0  0  0  0  0  0  0  0  0  0  0
    9.4787    2.0125   22.0225 C   0  0  0  0  0  0  0  0  0  0  0  0
    7.9424    2.4656   21.3572 Cl  0  0  0  0  0  0  0  0  0  0  0  0
    9.9878    2.8007   23.0528 C   0  0  0  0  0  0  0  0  0  0  0  0
    9.4170    3.6198   23.4786 H   0  0  0  0  0  0  0  0  0  0  0  0
   12.0122   -0.2057   21.6462 H   0  0  0  0  0  0  0  0  0  0  0  0
   12.9653    1.1864   23.5068 H   0  0  0  0  0  0  0  0  0  0  0  0
  1  2  1  0
  2  3  2  0
  3  4  1  0
  4  5  2  0
  5  6  1  0
  6  7  1  0
  7  8  2  0
  8  9  1  0
  9 10  1  0
 10 11  1  0
 11 12  1  0
 12 13  1  0
 13 14  1  0
 13 15  1  0
 13 16  1  0
 12 17  1  0
 12 18  1  0
 11 19  1  0
 11 20  1  0
 10 21  1  0
  9 22  2  0
 22 23  1  0
 23 24  1  0
 24 25  2  0
 25 26  1  0
 26 27  2  0
 27 28  1  0
 28 29  2  0
 29 30  1  0
 27 31  1  0
 26 32  1  0
 25 33  1  0
  6 34  1  0
  6 35  1  0
  5 36  1  0
 36 37  1  0
 36 38  2  0
 38 39  1  0
  4 40  1  0
  3 41  1  0
 38  2  1  0
 23  7  1  0
 29 24  1  0
 14 10  1  0
M  END
>  <cnnaffinity>  (1) 
-6.26348

>  <filename>  (1) 
Fc1ccc(Cc2nc(C3CCCO3)nn2-c2cccnc2)c(Cl)c1

$$$$
