
     RDKit          3D

 43 46  0  0  0  0  0  0  0  0999 V2000
   14.2997   -1.9768   21.3944 F   0  0  0  0  0  0  0  0  0  0  0  0
   13.5252   -1.0033   21.8963 C   0  0  0  0  0  0  0  0  0  0  0  0
   14.1477    0.0368   22.5838 C   0  0  0  0  0  0  0  0  0  0  0  0
   13.3695    1.0572   23.1252 C   0  0  0  0  0  0  0  0  0  0  0  0
   11.9900    1.0310   22.9600 C   0  0  0  0  0  0  0  0  0  0  0  0
   11.3677   -0.0091   22.2364 C   0  0  0  0  0  0  0  0  0  0  0  0
    9.9005    0.0917   22.0492 C   0  0  0  0  0  0  0  0  0  0  0  0
    9.0801   -0.8541   21.6193 N   0  0  0  0  0  0  0  0  0  0  0  0
    7.8575   -0.2789   21.7676 N   0  0  0  0  0  0  0  0  0  0  0  0
    6.6358   -0.8545   21.2213 C   0  0  0  0  0  0  0  0  0  0  0  0
    6.1405   -0.0978   19.9997 C   0  0  0  0  0  0  0  0  0  0  0  0
    4.9364    0.6153   19.9476 C   0  0  0  0  0  0  0  0  0  0  0  0
    4.6531    1.3716   18.8047 C   0  0  0  0  0  0  0  0  0  0  0  0
    5.5663    1.3645   17.7490 C   0  0  0  0  0  0  0  0  0  0  0  0
    6.7076    0.6624   17.7630 N   0  0  0  0  0  0  0  0  0  0  0  0
    6.9803   -0.0331   18.8734 C   0  0  0  0  0  0  0  0  0  0  0  0
    7.9324   -0.5639   18.8842 H   0  0  0  0  0  0  0  0  0  0  0  0
    5.3733    1.9369   16.8431 H   0  0  0  0  0  0  0  0  0  0  0  0
    3.7640    1.9880   18.7311 H   0  0  0  0  0  0  0  0  0  0  0  0
    4.2225    0.5990   20.7763 H   0  0  0  0  0  0  0  0  0  0  0  0
    5.9017   -0.8422   22.0318 H   0  0  0  0  0  0  0  0  0  0  0  0
    6.8692   -1.8997   21.0040 H   0  0  0  0  0  0  0  0  0  0  0  0
    8.0052    0.9687   22.2553 C   0  0  0  0  0  0  0  0  0  0  0  0
    6.9335    1.7439   22.9393 C   0  0  0  0  0  0  0  0  0  0  0  0
    6.8310    1.2020   24.3341 C   0  0  0  0  0  0  0  0  0  0  0  0
    5.9784    0.2358   24.6032 N   0  0  0  0  0  0  0  0  0  0  0  0
    6.2426   -0.1625   25.8717 N   0  0  0  0  0  0  0  0  0  0  0  0
    5.5202   -1.2842   26.3998 C   0  0  0  0  0  0  0  0  0  0  0  0
    6.3365   -2.3644   26.5369 F   0  0  0  0  0  0  0  0  0  0  0  0
    5.0345   -1.0028   27.6377 F   0  0  0  0  0  0  0  0  0  0  0  0
    4.7133   -1.5018   25.6970 H   0  0  0  0  0  0  0  0  0  0  0  0
    7.2899    0.5411   26.3983 C   0  0  0  0  0  0  0  0  0  0  0  0
    7.6853    1.4372   25.4389 C   0  0  0  0  0  0  0  0  0  0  0  0
    8.5179    2.1275   25.4623 H   0  0  0  0  0  0  0  0  0  0  0  0
    7.6792    0.3347   27.3881 H   0  0  0  0  0  0  0  0  0  0  0  0
    5.9850    1.6410   22.4135 H   0  0  0  0  0  0  0  0  0  0  0  0
    7.2366    2.7899   22.9409 H   0  0  0  0  0  0  0  0  0  0  0  0
    9.2717    1.2486   22.4043 N   0  0  0  0  0  0  0  0  0  0  0  0
   12.1472   -1.0529   21.6994 C   0  0  0  0  0  0  0  0  0  0  0  0
   11.7016   -1.8817   21.1494 H   0  0  0  0  0  0  0  0  0  0  0  0
   11.3652    1.8226   23.3635 H   0  0  0  0  0  0  0  0  0  0  0  0
   13.8387    1.8788   23.6569 H   0  0  0  0  0  0  0  0  0  0  0  0
   15.2185    0.0833   22.6347 H   0  0  0  0  0  0  0  0  0  0  0  0
  1  2  1  0
  2  3  2  0
  3  4  1  0
  4  5  2  0
  5  6  1  0
  6  7  1  0
  7  8  2  0
  8  9  1  0
  9 10  1  0
 10 11  1  0
 11 12  2  0
 12 13  1  0
 13 14  2  0
 14 15  1  0
 15 16  2  0
 16 17  1  0
 14 18  1  0
 13 19  1  0
 12 20  1  0
 10 21  1  0
 10 22  1  0
  9 23  1  0
 23 24  1  0
 24 25  1  0
 25 26  2  0
 26 27  1  0
 27 28  1  0
 28 29  1  0
 28 30  1  0
 28 31  1  0
 27 32  1  0
 32 33  2  0
 33 34  1  0
 32 35  1  0
 24 36  1  0
 24 37  1  0
 23 38  2  0
  6 39  2  0
 39 40  1  0
  5 41  1  0
  4 42  1  0
  3 43  1  0
 39  2  1  0
 38  7  1  0
 16 11  1  0
 33 25  1  0
M  END
>  <cnnaffinity>  (1) 
-6.6822

>  <filename>  (1) 
Fc1cccc(-c2nc(Cc3ccn(C(F)F)n3)n(Cc3cccnc3)n2)c1

$$$$
