
     RDKit          3D

 42 45  0  0  0  0  0  0  0  0999 V2000
    7.1406    5.4979   26.1546 F   0  0  0  0  0  0  0  0  0  0  0  0
    6.4345    4.8722   25.1979 C   0  0  0  0  0  0  0  0  0  0  0  0
    5.6558    5.6323   24.3233 C   0  0  0  0  0  0  0  0  0  0  0  0
    4.9341    4.9804   23.3172 C   0  0  0  0  0  0  0  0  0  0  0  0
    5.0000    3.5909   23.1995 C   0  0  0  0  0  0  0  0  0  0  0  0
    5.7881    2.8486   24.0881 C   0  0  0  0  0  0  0  0  0  0  0  0
    5.9647    1.1110   23.8283 S   0  0  0  0  0  0  0  0  0  0  0  0
    7.4062    1.2268   22.7133 C   0  0  0  0  0  0  0  0  0  0  0  0
    7.6276   -0.1223   22.1627 C   0  0  0  0  0  0  0  0  0  0  0  0
    8.2127   -1.0480   22.8852 N   0  0  0  0  0  0  0  0  0  0  0  0
    8.3228   -2.0865   22.0244 C   0  0  0  0  0  0  0  0  0  0  0  0
    8.9537   -3.3403   22.5046 C   0  0  0  0  0  0  0  0  0  0  0  0
    8.2119   -4.0417   23.6597 C   0  0  0  0  0  0  0  0  0  0  0  0
    9.3458   -4.7700   24.3832 C   0  0  0  0  0  0  0  0  0  0  0  0
   10.5364   -4.0398   24.1379 O   0  0  0  0  0  0  0  0  0  0  0  0
   10.3280   -3.0439   23.1561 C   0  0  0  0  0  0  0  0  0  0  0  0
   10.3181   -2.0563   23.6474 H   0  0  0  0  0  0  0  0  0  0  0  0
   11.1535   -3.0607   22.4363 H   0  0  0  0  0  0  0  0  0  0  0  0
    9.1724   -4.8192   25.4624 H   0  0  0  0  0  0  0  0  0  0  0  0
    9.4651   -5.8005   24.0232 H   0  0  0  0  0  0  0  0  0  0  0  0
    7.7615   -3.2800   24.3090 H   0  0  0  0  0  0  0  0  0  0  0  0
    7.4292   -4.7267   23.3068 H   0  0  0  0  0  0  0  0  0  0  0  0
    8.9926   -4.0106   21.6501 H   0  0  0  0  0  0  0  0  0  0  0  0
    7.8551   -1.8665   20.8133 N   0  0  0  0  0  0  0  0  0  0  0  0
    7.3550   -0.6011   20.9215 N   0  0  0  0  0  0  0  0  0  0  0  0
    6.6310    0.0180   19.8665 C   0  0  0  0  0  0  0  0  0  0  0  0
    5.4200    0.6776   20.1143 C   0  0  0  0  0  0  0  0  0  0  0  0
    4.7992    1.3254   19.0444 C   0  0  0  0  0  0  0  0  0  0  0  0
    5.4089    1.2974   17.7880 C   0  0  0  0  0  0  0  0  0  0  0  0
    6.5545    0.6374   17.5429 N   0  0  0  0  0  0  0  0  0  0  0  0
    7.1405    0.0007   18.5594 C   0  0  0  0  0  0  0  0  0  0  0  0
    8.0604   -0.5387   18.3453 H   0  0  0  0  0  0  0  0  0  0  0  0
    4.9619    1.8217   16.9450 H   0  0  0  0  0  0  0  0  0  0  0  0
    3.8632    1.8567   19.1753 H   0  0  0  0  0  0  0  0  0  0  0  0
    4.9807    0.6767   21.1132 H   0  0  0  0  0  0  0  0  0  0  0  0
    7.2544    1.9807   21.9383 H   0  0  0  0  0  0  0  0  0  0  0  0
    8.2884    1.5050   23.2957 H   0  0  0  0  0  0  0  0  0  0  0  0
    6.5152    3.4863   25.1017 C   0  0  0  0  0  0  0  0  0  0  0  0
    7.1478    2.9269   25.7839 H   0  0  0  0  0  0  0  0  0  0  0  0
    4.4692    3.0786   22.4028 H   0  0  0  0  0  0  0  0  0  0  0  0
    4.3369    5.5518   22.6094 H   0  0  0  0  0  0  0  0  0  0  0  0
    5.6256    6.7093   24.4335 H   0  0  0  0  0  0  0  0  0  0  0  0
  1  2  1  0
  2  3  2  0
  3  4  1  0
  4  5  2  0
  5  6  1  0
  6  7  1  0
  7  8  1  0
  8  9  1  0
  9 10  2  0
 10 11  1  0
 11 12  1  0
 12 13  1  0
 13 14  1  0
 14 15  1  0
 15 16  1  0
 16 17  1  0
 16 18  1  0
 14 19  1  0
 14 20  1  0
 13 21  1  0
 13 22  1  0
 12 23  1  0
 11 24  2  0
 24 25  1  0
 25 26  1  0
 26 27  2  0
 27 28  1  0
 28 29  2  0
 29 30  1  0
 30 31  2  0
 31 32  1  0
 29 33  1  0
 28 34  1  0
 27 35  1  0
  8 36  1  0
  8 37  1  0
  6 38  2  0
 38 39  1  0
  5 40  1  0
  4 41  1  0
  3 42  1  0
 38  2  1  0
 25  9  1  0
 31 26  1  0
 16 12  1  0
M  END
>  <cnnaffinity>  (1) 
-5.88774

>  <filename>  (1) 
Fc1cccc(SCc2nc(C3CCOC3)nn2-c2cccnc2)c1

$$$$
