
     RDKit          3D

 43 46  0  0  0  0  0  0  0  0999 V2000
    6.4719    5.2541   25.0098 F   0  0  0  0  0  0  0  0  0  0  0  0
    6.6752    3.9270   24.9428 C   0  0  0  0  0  0  0  0  0  0  0  0
    7.9618    3.4313   25.1283 C   0  0  0  0  0  0  0  0  0  0  0  0
    8.1710    2.0496   25.0589 C   0  0  0  0  0  0  0  0  0  0  0  0
    7.0979    1.1779   24.8069 C   0  0  0  0  0  0  0  0  0  0  0  0
    7.3022   -0.2368   24.7092 N   0  0  0  0  0  0  0  0  0  0  0  0
    6.5080   -1.1177   25.3777 N   0  0  0  0  0  0  0  0  0  0  0  0
    6.9809   -2.2895   24.9982 C   0  0  0  0  0  0  0  0  0  0  0  0
    6.4709   -3.5776   25.5342 C   0  0  0  0  0  0  0  0  0  0  0  0
    7.4310   -4.5656   26.1515 C   0  0  0  0  0  0  0  0  0  0  0  0
    6.4710   -3.8086   27.0226 C   0  0  0  0  0  0  0  0  0  0  0  0
    5.6341   -4.3338   27.4767 H   0  0  0  0  0  0  0  0  0  0  0  0
    6.8594   -2.9884   27.6190 H   0  0  0  0  0  0  0  0  0  0  0  0
    7.2679   -5.6293   25.9925 H   0  0  0  0  0  0  0  0  0  0  0  0
    8.4820   -4.2824   26.1672 H   0  0  0  0  0  0  0  0  0  0  0  0
    5.6432   -3.9824   24.9576 H   0  0  0  0  0  0  0  0  0  0  0  0
    7.9924   -2.2328   24.0908 N   0  0  0  0  0  0  0  0  0  0  0  0
    8.1723   -0.9367   23.9246 C   0  0  0  0  0  0  0  0  0  0  0  0
    9.0713   -0.3184   22.9032 C   0  0  0  0  0  0  0  0  0  0  0  0
    8.2918    0.3332   21.7479 C   0  0  0  0  0  0  0  0  0  0  0  0
    7.4059   -0.6750   20.9987 C   0  0  0  0  0  0  0  0  0  0  0  0
    6.6425   -0.0112   19.8882 C   0  0  0  0  0  0  0  0  0  0  0  0
    5.4322    0.6456   20.1423 C   0  0  0  0  0  0  0  0  0  0  0  0
    4.7984    1.3137   19.0945 C   0  0  0  0  0  0  0  0  0  0  0  0
    5.3950    1.3003   17.8286 C   0  0  0  0  0  0  0  0  0  0  0  0
    6.5592    0.6884   17.5630 N   0  0  0  0  0  0  0  0  0  0  0  0
    7.1588    0.0611   18.5845 C   0  0  0  0  0  0  0  0  0  0  0  0
    8.1100   -0.4187   18.3542 H   0  0  0  0  0  0  0  0  0  0  0  0
    4.9152    1.7918   16.9863 H   0  0  0  0  0  0  0  0  0  0  0  0
    3.8696    1.8477   19.2494 H   0  0  0  0  0  0  0  0  0  0  0  0
    5.0126    0.6354   21.1536 H   0  0  0  0  0  0  0  0  0  0  0  0
    6.7065   -1.1467   21.7043 H   0  0  0  0  0  0  0  0  0  0  0  0
    8.0309   -1.4878   20.6029 H   0  0  0  0  0  0  0  0  0  0  0  0
    8.9957    0.7880   21.0407 H   0  0  0  0  0  0  0  0  0  0  0  0
    7.6713    1.1557   22.1302 H   0  0  0  0  0  0  0  0  0  0  0  0
    9.7095   -1.1186   22.5146 H   0  0  0  0  0  0  0  0  0  0  0  0
    9.7329    0.4164   23.3715 H   0  0  0  0  0  0  0  0  0  0  0  0
    5.8074    1.7044   24.6355 C   0  0  0  0  0  0  0  0  0  0  0  0
    5.5910    3.0858   24.6974 C   0  0  0  0  0  0  0  0  0  0  0  0
    4.6049    3.5244   24.5729 H   0  0  0  0  0  0  0  0  0  0  0  0
    4.9800    1.0213   24.4622 H   0  0  0  0  0  0  0  0  0  0  0  0
    9.1653    1.6471   25.2247 H   0  0  0  0  0  0  0  0  0  0  0  0
    8.7764    4.1225   25.3201 H   0  0  0  0  0  0  0  0  0  0  0  0
  1  2  1  0
  2  3  2  0
  3  4  1  0
  4  5  2  0
  5  6  1  0
  6  7  1  0
  7  8  2  0
  8  9  1  0
  9 10  1  0
 10 11  1  0
 11 12  1  0
 11 13  1  0
 10 14  1  0
 10 15  1  0
  9 16  1  0
  8 17  1  0
 17 18  2  0
 18 19  1  0
 19 20  1  0
 20 21  1  0
 21 22  1  0
 22 23  2  0
 23 24  1  0
 24 25  2  0
 25 26  1  0
 26 27  2  0
 27 28  1  0
 25 29  1  0
 24 30  1  0
 23 31  1  0
 21 32  1  0
 21 33  1  0
 20 34  1  0
 20 35  1  0
 19 36  1  0
 19 37  1  0
  5 38  1  0
 38 39  2  0
 39 40  1  0
 38 41  1  0
  4 42  1  0
  3 43  1  0
 39  2  1  0
 18  6  1  0
 27 22  1  0
 11  9  1  0
M  END
>  <cnnaffinity>  (1) 
-5.69683

>  <filename>  (1) 
Fc1ccc(-n2nc(C3CC3)nc2CCCc2cccnc2)cc1

$$$$
