
     RDKit          3D

 38 41  0  0  0  0  0  0  0  0999 V2000
   10.2302    1.3739   24.2203 F   0  0  0  0  0  0  0  0  0  0  0  0
    9.3912    2.1918   23.5477 C   0  0  0  0  0  0  0  0  0  0  0  0
    8.8351    3.4148   24.1270 C   0  0  0  0  0  0  0  0  0  0  0  0
    7.9085    4.0345   23.1511 C   0  0  0  0  0  0  0  0  0  0  0  0
    7.9699    4.0840   22.9685 C   0  0  0  0  0  0  0  0  0  0  0  0
    7.9628    2.9849   21.8128 C   0  0  0  0  0  0  0  0  0  0  0  0
    6.8730    2.4225   20.9903 F   0  0  0  0  0  0  0  0  0  0  0  0
    8.9327    1.9144   22.2768 C   0  0  0  0  0  0  0  0  0  0  0  0
    9.3843    0.7170   21.4320 C   0  0  0  0  0  0  0  0  0  0  0  0
    8.5742   -0.5497   21.6066 C   0  0  0  0  0  0  0  0  0  0  0  0
    8.8149   -1.4376   22.5482 N   0  0  0  0  0  0  0  0  0  0  0  0
    7.7086   -2.2205   22.5302 C   0  0  0  0  0  0  0  0  0  0  0  0
    7.4933   -3.2783   23.5538 C   0  0  0  0  0  0  0  0  0  0  0  0
    8.6724   -4.2741   23.7135 C   0  0  0  0  0  0  0  0  0  0  0  0
    8.8372   -3.9039   25.4922 S   0  0  0  0  0  0  0  0  0  0  0  0
    7.5172   -2.7404   25.0167 C   0  0  0  0  0  0  0  0  0  0  0  0
    6.5882   -2.8727   25.5790 H   0  0  0  0  0  0  0  0  0  0  0  0
    7.8444   -1.6975   25.1042 H   0  0  0  0  0  0  0  0  0  0  0  0
    8.4135   -5.3187   23.5195 H   0  0  0  0  0  0  0  0  0  0  0  0
    9.5682   -4.0045   23.1427 H   0  0  0  0  0  0  0  0  0  0  0  0
    6.5534   -3.7797   23.3115 H   0  0  0  0  0  0  0  0  0  0  0  0
    6.8268   -1.9117   21.6077 N   0  0  0  0  0  0  0  0  0  0  0  0
    7.3943   -0.8394   20.9871 N   0  0  0  0  0  0  0  0  0  0  0  0
    6.7233   -0.2115   19.8965 C   0  0  0  0  0  0  0  0  0  0  0  0
    5.4355    0.2931   20.0821 C   0  0  0  0  0  0  0  0  0  0  0  0
    4.8244    0.9278   19.0006 C   0  0  0  0  0  0  0  0  0  0  0  0
    5.4994    0.9969   17.7742 C   0  0  0  0  0  0  0  0  0  0  0  0
    6.7154    0.4692   17.5788 N   0  0  0  0  0  0  0  0  0  0  0  0
    7.3071   -0.1302   18.6203 C   0  0  0  0  0  0  0  0  0  0  0  0
    8.2830   -0.5756   18.4259 H   0  0  0  0  0  0  0  0  0  0  0  0
    5.0360    1.4884   16.9204 H   0  0  0  0  0  0  0  0  0  0  0  0
    3.8529    1.3965   19.1016 H   0  0  0  0  0  0  0  0  0  0  0  0
    4.9770    0.2673   21.0713 H   0  0  0  0  0  0  0  0  0  0  0  0
    9.3787    0.9819   20.3657 H   0  0  0  0  0  0  0  0  0  0  0  0
   10.4227    0.4227   21.6727 H   0  0  0  0  0  0  0  0  0  0  0  0
    8.4205    3.8541   21.2592 H   0  0  0  0  0  0  0  0  0  0  0  0
    7.3081    5.0606   23.1411 H   0  0  0  0  0  0  0  0  0  0  0  0
    8.0537    3.3785   24.8583 H   0  0  0  0  0  0  0  0  0  0  0  0
  1  2  1  0
  2  3  2  0
  3  4  1  0
  4  5  2  0
  5  6  1  0
  6  7  1  0
  6  8  2  0
  8  9  1  0
  9 10  1  0
 10 11  2  0
 11 12  1  0
 12 13  1  0
 13 14  1  0
 14 15  1  0
 15 16  1  0
 16 17  1  0
 16 18  1  0
 14 19  1  0
 14 20  1  0
 13 21  1  0
 12 22  2  0
 22 23  1  0
 23 24  1  0
 24 25  2  0
 25 26  1  0
 26 27  2  0
 27 28  1  0
 28 29  2  0
 29 30  1  0
 27 31  1  0
 26 32  1  0
 25 33  1  0
  9 34  1  0
  9 35  1  0
  5 36  1  0
  4 37  1  0
  3 38  1  0
  8  2  1  0
 23 10  1  0
 29 24  1  0
 16 13  1  0
M  END
>  <cnnaffinity>  (1) 
-5.91228

>  <filename>  (1) 
Fc1cccc(F)c1Cc1nc(C2CSC2)nn1-c1cccnc1

$$$$
