
     RDKit          3D

 27 29  0  0  0  0  0  0  0  0999 V2000
    4.9196    1.8002   16.9567 H   0  0  0  0  0  0  0  0  0  0  0  0
    5.3944    1.3210   17.8138 C   0  0  0  0  0  0  0  0  0  0  0  0
    6.5654    0.7074   17.5832 N   0  0  0  0  0  0  0  0  0  0  0  0
    7.1545    0.1025   18.6250 C   0  0  0  0  0  0  0  0  0  0  0  0
    8.1072   -0.3839   18.4170 H   0  0  0  0  0  0  0  0  0  0  0  0
    6.6406    0.0765   19.9435 C   0  0  0  0  0  0  0  0  0  0  0  0
    7.3264   -0.6390   21.0575 C   0  0  0  0  0  0  0  0  0  0  0  0
    7.6708   -2.0368   21.0143 C   0  0  0  0  0  0  0  0  0  0  0  0
    7.3962   -2.6921   20.1963 H   0  0  0  0  0  0  0  0  0  0  0  0
    8.2536   -2.5538   22.0560 N   0  0  0  0  0  0  0  0  0  0  0  0
    8.4079   -1.3796   23.2257 S   0  0  0  0  0  0  0  0  0  0  0  0
    7.6178   -0.1426   22.3153 C   0  0  0  0  0  0  0  0  0  0  0  0
    7.2744    1.1628   22.9152 C   0  0  0  0  0  0  0  0  0  0  0  0
    6.6120    1.2555   24.1606 C   0  0  0  0  0  0  0  0  0  0  0  0
    6.3685    0.3429   24.6983 H   0  0  0  0  0  0  0  0  0  0  0  0
    6.2438    2.4883   24.6987 C   0  0  0  0  0  0  0  0  0  0  0  0
    5.7113    2.5630   25.6359 H   0  0  0  0  0  0  0  0  0  0  0  0
    6.5454    3.6441   23.9846 C   0  0  0  0  0  0  0  0  0  0  0  0
    6.1805    4.8310   24.4925 F   0  0  0  0  0  0  0  0  0  0  0  0
    7.1968    3.6080   22.7606 C   0  0  0  0  0  0  0  0  0  0  0  0
    7.3988    4.5046   22.1935 H   0  0  0  0  0  0  0  0  0  0  0  0
    7.5572    2.3654   22.2515 C   0  0  0  0  0  0  0  0  0  0  0  0
    8.2081    2.3416   21.0747 F   0  0  0  0  0  0  0  0  0  0  0  0
    5.4136    0.7253   20.1506 C   0  0  0  0  0  0  0  0  0  0  0  0
    4.9742    0.7348   21.1503 H   0  0  0  0  0  0  0  0  0  0  0  0
    4.7782    1.3459   19.0704 C   0  0  0  0  0  0  0  0  0  0  0  0
    3.8197    1.8405   19.1845 H   0  0  0  0  0  0  0  0  0  0  0  0
  1  2  1  0
  2  3  2  0
  3  4  1  0
  4  5  1  0
  4  6  2  0
  6  7  1  0
  7  8  1  0
  8  9  1  0
  8 10  2  0
 10 11  1  0
 11 12  1  0
 12 13  1  0
 13 14  2  0
 14 15  1  0
 14 16  1  0
 16 17  1  0
 16 18  2  0
 18 19  1  0
 18 20  1  0
 20 21  1  0
 20 22  2  0
 22 23  1  0
  6 24  1  0
 24 25  1  0
 24 26  2  0
 26 27  1  0
 26  2  1  0
 12  7  2  0
 22 13  1  0
M  END
>  <cnnaffinity>  (1) 
-5.10234

>  <filename>  (1) 
Fc1ccc(-c2sncc2-c2cccnc2)c(F)c1

$$$$
