
     RDKit          3D

 43 46  0  0  0  0  0  0  0  0999 V2000
    5.0400    1.8586   16.9843 H   0  0  0  0  0  0  0  0  0  0  0  0
    5.4691    1.3191   17.8246 C   0  0  0  0  0  0  0  0  0  0  0  0
    6.6014    0.6443   17.5782 N   0  0  0  0  0  0  0  0  0  0  0  0
    7.1572   -0.0266   18.5969 C   0  0  0  0  0  0  0  0  0  0  0  0
    8.0802   -0.5533   18.3638 H   0  0  0  0  0  0  0  0  0  0  0  0
    6.6321   -0.0705   19.9237 C   0  0  0  0  0  0  0  0  0  0  0  0
    7.2164   -0.8138   20.9614 N   0  0  0  0  0  0  0  0  0  0  0  0
    7.1340   -0.3940   22.3756 C   0  0  1  0  0  0  0  0  0  0  0  0
    6.1001   -0.1960   22.6734 H   0  0  0  0  0  0  0  0  0  0  0  0
    7.6729   -1.6500   23.0930 C   0  0  0  0  0  0  0  0  0  0  0  0
    6.8423   -2.3120   23.3449 H   0  0  0  0  0  0  0  0  0  0  0  0
    8.1665   -1.4089   24.0374 H   0  0  0  0  0  0  0  0  0  0  0  0
    8.5993   -2.3176   22.0440 C   0  0  0  0  0  0  0  0  0  0  0  0
    9.6070   -2.5498   22.3978 H   0  0  0  0  0  0  0  0  0  0  0  0
    8.1610   -3.2632   21.7143 H   0  0  0  0  0  0  0  0  0  0  0  0
    8.5877   -1.3344   20.8612 C   0  0  2  0  0  0  0  0  0  0  0  0
    8.7358   -1.8579   19.9188 H   0  0  0  0  0  0  0  0  0  0  0  0
    9.6054   -0.1747   20.9279 C   0  0  0  0  0  0  0  0  0  0  0  0
   10.6157   -0.5845   20.8233 H   0  0  0  0  0  0  0  0  0  0  0  0
    9.4379    0.4595   20.0482 H   0  0  0  0  0  0  0  0  0  0  0  0
    9.4750    0.6953   22.2032 C   0  0  2  0  0  0  0  0  0  0  0  0
    9.8766    1.6927   21.9727 H   0  0  0  0  0  0  0  0  0  0  0  0
   10.3343    0.1635   23.3750 C   0  0  0  0  0  0  0  0  0  0  0  0
   10.1753   -0.9035   23.5492 H   0  0  0  0  0  0  0  0  0  0  0  0
   10.0529    0.6790   24.3010 H   0  0  0  0  0  0  0  0  0  0  0  0
   11.8031    0.3811   23.1278 C   0  0  0  0  0  0  0  0  0  0  0  0
   12.3893    1.6358   23.3621 C   0  0  0  0  0  0  0  0  0  0  0  0
   11.7867    2.4496   23.7670 H   0  0  0  0  0  0  0  0  0  0  0  0
   13.7260    1.8585   23.0312 C   0  0  0  0  0  0  0  0  0  0  0  0
   14.1319    2.8537   23.1620 H   0  0  0  0  0  0  0  0  0  0  0  0
   14.5162    0.8367   22.4828 C   0  0  0  0  0  0  0  0  0  0  0  0
   15.5407    1.0108   22.1735 H   0  0  0  0  0  0  0  0  0  0  0  0
   13.9076   -0.3949   22.2560 C   0  0  0  0  0  0  0  0  0  0  0  0
   14.6019   -1.4018   21.7055 F   0  0  0  0  0  0  0  0  0  0  0  0
   12.5783   -0.6409   22.5624 C   0  0  0  0  0  0  0  0  0  0  0  0
   12.1780   -1.6234   22.3075 H   0  0  0  0  0  0  0  0  0  0  0  0
    7.9862    0.8795   22.5861 C   0  0  0  0  0  0  0  0  0  0  0  0
    7.9019    1.2236   23.6249 H   0  0  0  0  0  0  0  0  0  0  0  0
    7.5503    1.6678   21.9579 H   0  0  0  0  0  0  0  0  0  0  0  0
    5.4265    0.6299   20.1349 C   0  0  0  0  0  0  0  0  0  0  0  0
    4.9575    0.6133   21.1166 H   0  0  0  0  0  0  0  0  0  0  0  0
    4.8474    1.3319   19.0762 C   0  0  0  0  0  0  0  0  0  0  0  0
    3.9252    1.8890   19.2150 H   0  0  0  0  0  0  0  0  0  0  0  0
  1  2  1  0
  2  3  2  0
  3  4  1  0
  4  5  1  0
  4  6  2  0
  6  7  1  0
  7  8  1  0
  8  9  1  1
  8 10  1  0
 10 11  1  0
 10 12  1  0
 10 13  1  0
 13 14  1  0
 13 15  1  0
 13 16  1  0
 16 17  1  6
 16 18  1  0
 18 19  1  0
 18 20  1  0
 18 21  1  0
 21 22  1  6
 21 23  1  0
 23 24  1  0
 23 25  1  0
 23 26  1  0
 26 27  2  0
 27 28  1  0
 27 29  1  0
 29 30  1  0
 29 31  2  0
 31 32  1  0
 31 33  1  0
 33 34  1  0
 33 35  2  0
 35 36  1  0
 21 37  1  0
 37 38  1  0
 37 39  1  0
  6 40  1  0
 40 41  1  0
 40 42  2  0
 42 43  1  0
 42  2  1  0
 16  7  1  0
 35 26  1  0
 37  8  1  0
M  END
>  <cnnaffinity>  (1) 
-6.32972

>  <filename>  (1) 
Fc1cccc(C[C@H]2C[C@H]3CC[C@@H](C2)N3c2cccnc2)c1

$$$$
