
     RDKit          3D

 44 47  0  0  0  0  0  0  0  0999 V2000
   13.4585    0.8972   23.7275 F   0  0  0  0  0  0  0  0  0  0  0  0
   12.2471    1.3161   23.3349 C   0  0  0  0  0  0  0  0  0  0  0  0
   11.6481    2.3839   23.9914 C   0  0  0  0  0  0  0  0  0  0  0  0
   10.3867    2.8166   23.5903 C   0  0  0  0  0  0  0  0  0  0  0  0
    9.7499    2.1731   22.5282 C   0  0  0  0  0  0  0  0  0  0  0  0
    8.1575    2.7106   22.0833 Cl  0  0  0  0  0  0  0  0  0  0  0  0
   10.3614    1.1042   21.8517 C   0  0  0  0  0  0  0  0  0  0  0  0
    9.6267    0.3335   20.7833 C   0  0  0  0  0  0  0  0  0  0  0  0
    8.6104   -0.5832   21.3590 C   0  0  0  0  0  0  0  0  0  0  0  0
    8.8521   -1.4453   22.3200 N   0  0  0  0  0  0  0  0  0  0  0  0
    7.6364   -2.0200   22.5223 C   0  0  0  0  0  0  0  0  0  0  0  0
    7.4139   -3.0028   23.6278 C   0  0  0  0  0  0  0  0  0  0  0  0
    7.4426   -2.3169   25.0229 C   0  0  0  0  0  0  0  0  0  0  0  0
    7.6644   -3.3437   26.1551 C   0  0  0  0  0  0  0  0  0  0  0  0
    7.2991   -4.6484   25.7550 O   0  0  0  0  0  0  0  0  0  0  0  0
    8.1726   -5.1600   24.7629 C   0  0  0  0  0  0  0  0  0  0  0  0
    8.4192   -4.1743   23.5929 C   0  0  0  0  0  0  0  0  0  0  0  0
    9.4404   -3.7752   23.6502 H   0  0  0  0  0  0  0  0  0  0  0  0
    8.3505   -4.7091   22.6398 H   0  0  0  0  0  0  0  0  0  0  0  0
    7.6958   -6.0803   24.4141 H   0  0  0  0  0  0  0  0  0  0  0  0
    9.1308   -5.4382   25.2343 H   0  0  0  0  0  0  0  0  0  0  0  0
    8.7207   -3.3406   26.4734 H   0  0  0  0  0  0  0  0  0  0  0  0
    7.0611   -3.1041   27.0356 H   0  0  0  0  0  0  0  0  0  0  0  0
    6.4952   -1.7882   25.1789 H   0  0  0  0  0  0  0  0  0  0  0  0
    8.2408   -1.5645   25.0612 H   0  0  0  0  0  0  0  0  0  0  0  0
    6.4095   -3.3978   23.4632 H   0  0  0  0  0  0  0  0  0  0  0  0
    6.6831   -1.5963   21.7184 N   0  0  0  0  0  0  0  0  0  0  0  0
    7.3229   -0.6947   20.9299 N   0  0  0  0  0  0  0  0  0  0  0  0
    6.6445    0.0014   19.8958 C   0  0  0  0  0  0  0  0  0  0  0  0
    5.4336    0.6454   20.1653 C   0  0  0  0  0  0  0  0  0  0  0  0
    4.8127    1.3130   19.1085 C   0  0  0  0  0  0  0  0  0  0  0  0
    5.4012    1.2959   17.8358 C   0  0  0  0  0  0  0  0  0  0  0  0
    6.5560    0.6697   17.5736 N   0  0  0  0  0  0  0  0  0  0  0  0
    7.1624    0.0494   18.5869 C   0  0  0  0  0  0  0  0  0  0  0  0
    8.1108   -0.4304   18.3638 H   0  0  0  0  0  0  0  0  0  0  0  0
    4.9196    1.7860   16.9920 H   0  0  0  0  0  0  0  0  0  0  0  0
    3.8805    1.8410   19.2602 H   0  0  0  0  0  0  0  0  0  0  0  0
    5.0146    0.6060   21.1751 H   0  0  0  0  0  0  0  0  0  0  0  0
   10.3054   -0.3330   20.2492 H   0  0  0  0  0  0  0  0  0  0  0  0
    9.1651    1.0346   20.0880 H   0  0  0  0  0  0  0  0  0  0  0  0
   11.6193    0.6688   22.2774 C   0  0  0  0  0  0  0  0  0  0  0  0
   12.1068   -0.1792   21.8073 H   0  0  0  0  0  0  0  0  0  0  0  0
    9.8958    3.6450   24.0886 H   0  0  0  0  0  0  0  0  0  0  0  0
   12.1528    2.8647   24.8092 H   0  0  0  0  0  0  0  0  0  0  0  0
  1  2  1  0
  2  3  2  0
  3  4  1  0
  4  5  2  0
  5  6  1  0
  5  7  1  0
  7  8  1  0
  8  9  1  0
  9 10  2  0
 10 11  1  0
 11 12  1  0
 12 13  1  0
 13 14  1  0
 14 15  1  0
 15 16  1  0
 16 17  1  0
 17 18  1  0
 17 19  1  0
 16 20  1  0
 16 21  1  0
 14 22  1  0
 14 23  1  0
 13 24  1  0
 13 25  1  0
 12 26  1  0
 11 27  2  0
 27 28  1  0
 28 29  1  0
 29 30  2  0
 30 31  1  0
 31 32  2  0
 32 33  1  0
 33 34  2  0
 34 35  1  0
 32 36  1  0
 31 37  1  0
 30 38  1  0
  8 39  1  0
  8 40  1  0
  7 41  2  0
 41 42  1  0
  4 43  1  0
  3 44  1  0
 41  2  1  0
 28  9  1  0
 34 29  1  0
 17 12  1  0
M  END
>  <cnnaffinity>  (1) 
-6.53431

>  <filename>  (1) 
Fc1ccc(Cl)c(Cc2nc(C3CCOCC3)nn2-c2cccnc2)c1

$$$$
