
     RDKit          3D

 41 44  0  0  0  0  0  0  0  0999 V2000
    7.2904    1.0707   24.4257 F   0  0  0  0  0  0  0  0  0  0  0  0
    7.2338    2.0523   23.4781 C   0  0  0  0  0  0  0  0  0  0  0  0
    5.8699    2.4466   23.3115 C   0  0  0  0  0  0  0  0  0  0  0  0
    5.5790    3.7392   22.5484 C   0  0  0  0  0  0  0  0  0  0  0  0
    6.6103    4.3083   22.0126 C   0  0  0  0  0  0  0  0  0  0  0  0
    8.4369    2.6850   22.8110 C   0  0  0  0  0  0  0  0  0  0  0  0
    7.2054    2.2058   20.5367 F   0  0  0  0  0  0  0  0  0  0  0  0
    8.2532    2.6623   22.7112 C   0  0  0  0  0  0  0  0  0  0  0  0
    9.5447    1.7350   22.3858 C   0  0  0  0  0  0  0  0  0  0  0  0
    9.5685    0.5255   21.2324 C   0  0  0  0  0  0  0  0  0  0  0  0
    8.5984   -0.5721   21.5490 C   0  0  0  0  0  0  0  0  0  0  0  0
    8.7488   -1.4329   22.5399 N   0  0  0  0  0  0  0  0  0  0  0  0
    7.6269   -2.1942   22.4812 C   0  0  0  0  0  0  0  0  0  0  0  0
    7.3102   -3.1184   23.6073 C   0  0  0  0  0  0  0  0  0  0  0  0
    6.3204   -2.4940   24.6463 C   0  0  0  0  0  0  0  0  0  0  0  0
    5.0823   -3.7955   24.3284 S   0  0  0  0  0  0  0  0  0  0  0  0
    6.4530   -4.3554   23.2605 C   0  0  0  0  0  0  0  0  0  0  0  0
    6.1672   -4.4416   22.2069 H   0  0  0  0  0  0  0  0  0  0  0  0
    6.8899   -5.2981   23.6030 H   0  0  0  0  0  0  0  0  0  0  0  0
    5.9635   -1.4842   24.4093 H   0  0  0  0  0  0  0  0  0  0  0  0
    6.6948   -2.5037   25.6746 H   0  0  0  0  0  0  0  0  0  0  0  0
    8.2711   -3.3688   24.0633 H   0  0  0  0  0  0  0  0  0  0  0  0
    6.8074   -1.8949   21.4938 N   0  0  0  0  0  0  0  0  0  0  0  0
    7.4332   -0.8522   20.8797 N   0  0  0  0  0  0  0  0  0  0  0  0
    6.7626   -0.1588   19.8244 C   0  0  0  0  0  0  0  0  0  0  0  0
    5.6831    0.6869   20.0883 C   0  0  0  0  0  0  0  0  0  0  0  0
    5.0073    1.2620   19.0217 C   0  0  0  0  0  0  0  0  0  0  0  0
    5.4839    1.0362   17.7239 C   0  0  0  0  0  0  0  0  0  0  0  0
    6.5424    0.2575   17.4581 N   0  0  0  0  0  0  0  0  0  0  0  0
    7.1579   -0.3335   18.4922 C   0  0  0  0  0  0  0  0  0  0  0  0
    8.0053   -0.9728   18.2561 H   0  0  0  0  0  0  0  0  0  0  0  0
    4.9986    1.5049   16.8717 H   0  0  0  0  0  0  0  0  0  0  0  0
    4.1900    1.9556   19.1873 H   0  0  0  0  0  0  0  0  0  0  0  0
    5.4890    1.0211   21.0971 H   0  0  0  0  0  0  0  0  0  0  0  0
    9.2568    0.9863   20.2863 H   0  0  0  0  0  0  0  0  0  0  0  0
   10.5754    0.1085   21.1554 H   0  0  0  0  0  0  0  0  0  0  0  0
   10.0351    1.2234   23.2304 H   0  0  0  0  0  0  0  0  0  0  0  0
   10.5171    2.2380   22.2218 H   0  0  0  0  0  0  0  0  0  0  0  0
    7.3751    4.4862   21.2964 H   0  0  0  0  0  0  0  0  0  0  0  0
    4.5298    4.0776   22.4930 H   0  0  0  0  0  0  0  0  0  0  0  0
    5.1034    1.8924   23.8219 H   0  0  0  0  0  0  0  0  0  0  0  0
  1  2  1  0
  2  3  2  0
  3  4  1  0
  4  5  2  0
  5  6  1  0
  6  7  1  0
  6  8  2  0
  8  9  1  0
  9 10  1  0
 10 11  1  0
 11 12  2  0
 12 13  1  0
 13 14  1  0
 14 15  1  0
 15 16  1  0
 16 17  1  0
 17 18  1  0
 17 19  1  0
 15 20  1  0
 15 21  1  0
 14 22  1  0
 13 23  2  0
 23 24  1  0
 24 25  1  0
 25 26  2  0
 26 27  1  0
 27 28  2  0
 28 29  1  0
 29 30  2  0
 30 31  1  0
 28 32  1  0
 27 33  1  0
 26 34  1  0
 10 35  1  0
 10 36  1  0
  9 37  1  0
  9 38  1  0
  5 39  1  0
  4 40  1  0
  3 41  1  0
  8  2  1  0
 24 11  1  0
 30 25  1  0
 17 14  1  0
M  END
>  <cnnaffinity>  (1) 
-5.96779

>  <filename>  (1) 
Fc1cccc(F)c1CCc1nc(C2CSC2)nn1-c1cccnc1

$$$$
