
     RDKit          3D

 38 41  0  0  0  0  0  0  0  0999 V2000
    7.4110   -1.3231   27.2533 F   0  0  0  0  0  0  0  0  0  0  0  0
    6.4783   -0.6443   26.5619 C   0  0  0  0  0  0  0  0  0  0  0  0
    5.1632   -0.6702   26.9950 C   0  0  0  0  0  0  0  0  0  0  0  0
    4.2101    0.0737   26.2897 C   0  0  0  0  0  0  0  0  0  0  0  0
    4.5864    0.7867   25.1584 C   0  0  0  0  0  0  0  0  0  0  0  0
    3.6703    1.5495   24.5402 F   0  0  0  0  0  0  0  0  0  0  0  0
    5.9009    0.7128   24.6460 C   0  0  0  0  0  0  0  0  0  0  0  0
    6.1128    1.2883   23.4226 O   0  0  0  0  0  0  0  0  0  0  0  0
    7.4035    1.2263   22.8007 C   0  0  0  0  0  0  0  0  0  0  0  0
    7.7324   -0.1188   22.2159 C   0  0  0  0  0  0  0  0  0  0  0  0
    8.4461   -1.0434   22.8340 N   0  0  0  0  0  0  0  0  0  0  0  0
    8.3786   -2.1076   21.9991 C   0  0  0  0  0  0  0  0  0  0  0  0
    8.9912   -3.4027   22.3721 C   0  0  0  0  0  0  0  0  0  0  0  0
    8.2641   -4.7118   22.1580 C   0  0  0  0  0  0  0  0  0  0  0  0
    8.5275   -4.2335   23.5491 C   0  0  0  0  0  0  0  0  0  0  0  0
    9.3146   -4.7242   24.1155 H   0  0  0  0  0  0  0  0  0  0  0  0
    7.6793   -3.8998   24.1402 H   0  0  0  0  0  0  0  0  0  0  0  0
    8.7926   -5.5800   21.7775 H   0  0  0  0  0  0  0  0  0  0  0  0
    7.2365   -4.6358   21.8085 H   0  0  0  0  0  0  0  0  0  0  0  0
   10.0719   -3.3385   22.2626 H   0  0  0  0  0  0  0  0  0  0  0  0
    7.7456   -1.8776   20.8661 N   0  0  0  0  0  0  0  0  0  0  0  0
    7.3102   -0.5990   21.0096 N   0  0  0  0  0  0  0  0  0  0  0  0
    6.6152    0.0415   19.9437 C   0  0  0  0  0  0  0  0  0  0  0  0
    5.4315    0.7511   20.1755 C   0  0  0  0  0  0  0  0  0  0  0  0
    4.8144    1.3643   19.0787 C   0  0  0  0  0  0  0  0  0  0  0  0
    5.4213    1.2882   17.8220 C   0  0  0  0  0  0  0  0  0  0  0  0
    6.5572    0.6039   17.5951 N   0  0  0  0  0  0  0  0  0  0  0  0
    7.1234   -0.0221   18.6315 C   0  0  0  0  0  0  0  0  0  0  0  0
    8.0293   -0.5866   18.4211 H   0  0  0  0  0  0  0  0  0  0  0  0
    4.9751    1.7836   16.9603 H   0  0  0  0  0  0  0  0  0  0  0  0
    3.8782    1.9005   19.1895 H   0  0  0  0  0  0  0  0  0  0  0  0
    5.0203    0.8266   21.1833 H   0  0  0  0  0  0  0  0  0  0  0  0
    8.1820    1.4826   23.5300 H   0  0  0  0  0  0  0  0  0  0  0  0
    7.4010    2.0000   22.0284 H   0  0  0  0  0  0  0  0  0  0  0  0
    6.8649    0.0288   25.4030 C   0  0  0  0  0  0  0  0  0  0  0  0
    7.8719   -0.0882   25.0381 H   0  0  0  0  0  0  0  0  0  0  0  0
    3.1672    0.1043   26.5844 H   0  0  0  0  0  0  0  0  0  0  0  0
    4.8836   -1.3006   27.8268 H   0  0  0  0  0  0  0  0  0  0  0  0
  1  2  1  0
  2  3  2  0
  3  4  1  0
  4  5  2  0
  5  6  1  0
  5  7  1  0
  7  8  1  0
  8  9  1  0
  9 10  1  0
 10 11  2  0
 11 12  1  0
 12 13  1  0
 13 14  1  0
 14 15  1  0
 15 16  1  0
 15 17  1  0
 14 18  1  0
 14 19  1  0
 13 20  1  0
 12 21  2  0
 21 22  1  0
 22 23  1  0
 23 24  2  0
 24 25  1  0
 25 26  2  0
 26 27  1  0
 27 28  2  0
 28 29  1  0
 26 30  1  0
 25 31  1  0
 24 32  1  0
  9 33  1  0
  9 34  1  0
  7 35  2  0
 35 36  1  0
  4 37  1  0
  3 38  1  0
 35  2  1  0
 22 10  1  0
 28 23  1  0
 15 13  1  0
M  END
>  <cnnaffinity>  (1) 
-5.6375

>  <filename>  (1) 
Fc1ccc(F)c(OCc2nc(C3CC3)nn2-c2cccnc2)c1

$$$$
