
     RDKit          3D

 42 46  0  0  0  0  0  0  0  0999 V2000
    3.8053    5.5154   26.6859 F   0  0  0  0  0  0  0  0  0  0  0  0
    4.2493    4.6062   25.8032 C   0  0  0  0  0  0  0  0  0  0  0  0
    5.2043    4.9693   24.8606 C   0  0  0  0  0  0  0  0  0  0  0  0
    5.6539    4.0096   23.9433 C   0  0  0  0  0  0  0  0  0  0  0  0
    5.1374    2.7057   23.9506 C   0  0  0  0  0  0  0  0  0  0  0  0
    5.4779    1.7618   23.0165 O   0  0  0  0  0  0  0  0  0  0  0  0
    6.8618    1.3889   22.9319 C   0  0  0  0  0  0  0  0  0  0  0  0
    7.0498   -0.0415   22.5280 C   0  0  0  0  0  0  0  0  0  0  0  0
    7.8116   -0.8918   23.1886 N   0  0  0  0  0  0  0  0  0  0  0  0
    7.7309   -2.0257   22.4463 C   0  0  0  0  0  0  0  0  0  0  0  0
    8.5744   -3.2120   22.7391 C   0  0  0  0  0  0  0  0  0  0  0  0
    8.0995   -4.6481   22.5394 C   0  0  0  0  0  0  0  0  0  0  0  0
    8.4107   -4.1273   23.9147 C   0  0  0  0  0  0  0  0  0  0  0  0
    9.3060   -4.4707   25.0522 C   0  0  0  0  0  0  0  0  0  0  0  0
    7.8379   -4.0956   25.2900 C   0  0  0  0  0  0  0  0  0  0  0  0
    7.1633   -4.9061   25.5720 H   0  0  0  0  0  0  0  0  0  0  0  0
    7.6185   -3.1096   25.7008 H   0  0  0  0  0  0  0  0  0  0  0  0
    9.5969   -5.5116   25.1834 H   0  0  0  0  0  0  0  0  0  0  0  0
   10.0747   -3.7525   25.3386 H   0  0  0  0  0  0  0  0  0  0  0  0
    7.0566   -4.8200   22.2844 H   0  0  0  0  0  0  0  0  0  0  0  0
    8.7971   -5.3732   22.1197 H   0  0  0  0  0  0  0  0  0  0  0  0
    9.6126   -2.9864   22.4927 H   0  0  0  0  0  0  0  0  0  0  0  0
    7.0308   -1.9069   21.3361 N   0  0  0  0  0  0  0  0  0  0  0  0
    6.5909   -0.6148   21.3733 N   0  0  0  0  0  0  0  0  0  0  0  0
    6.1238   -0.0134   20.1648 C   0  0  0  0  0  0  0  0  0  0  0  0
    5.2274    1.0610   20.1345 C   0  0  0  0  0  0  0  0  0  0  0  0
    4.9347    1.6345   18.8899 C   0  0  0  0  0  0  0  0  0  0  0  0
    5.5362    1.1234   17.7363 C   0  0  0  0  0  0  0  0  0  0  0  0
    6.3660    0.0687   17.7615 N   0  0  0  0  0  0  0  0  0  0  0  0
    6.6391   -0.4881   18.9421 C   0  0  0  0  0  0  0  0  0  0  0  0
    7.3147   -1.3416   18.9526 H   0  0  0  0  0  0  0  0  0  0  0  0
    5.3524    1.5700   16.7583 H   0  0  0  0  0  0  0  0  0  0  0  0
    4.2586    2.4776   18.8129 H   0  0  0  0  0  0  0  0  0  0  0  0
    4.7881    1.4437   21.0487 H   0  0  0  0  0  0  0  0  0  0  0  0
    7.3639    2.0486   22.2138 H   0  0  0  0  0  0  0  0  0  0  0  0
    7.3569    1.4956   23.9025 H   0  0  0  0  0  0  0  0  0  0  0  0
    4.1772    2.3821   24.9293 C   0  0  0  0  0  0  0  0  0  0  0  0
    3.6740    1.1398   24.9788 F   0  0  0  0  0  0  0  0  0  0  0  0
    3.7314    3.3127   25.8593 C   0  0  0  0  0  0  0  0  0  0  0  0
    3.0065    3.0226   26.6117 H   0  0  0  0  0  0  0  0  0  0  0  0
    6.4083    4.2659   23.2019 H   0  0  0  0  0  0  0  0  0  0  0  0
    5.5943    5.9830   24.8631 H   0  0  0  0  0  0  0  0  0  0  0  0
  1  2  1  0
  2  3  2  0
  3  4  1  0
  4  5  2  0
  5  6  1  0
  6  7  1  0
  7  8  1  0
  8  9  2  0
  9 10  1  0
 10 11  1  0
 11 12  1  0
 12 13  1  0
 13 14  1  0
 14 15  1  0
 15 16  1  0
 15 17  1  0
 14 18  1  0
 14 19  1  0
 12 20  1  0
 12 21  1  0
 11 22  1  0
 10 23  2  0
 23 24  1  0
 24 25  1  0
 25 26  2  0
 26 27  1  0
 27 28  2  0
 28 29  1  0
 29 30  2  0
 30 31  1  0
 28 32  1  0
 27 33  1  0
 26 34  1  0
  7 35  1  0
  7 36  1  0
  5 37  1  0
 37 38  1  0
 37 39  2  0
 39 40  1  0
  4 41  1  0
  3 42  1  0
 39  2  1  0
 24  8  1  0
 30 25  1  0
 13 11  1  0
 15 13  1  0
M  END
>  <cnnaffinity>  (1) 
-5.85813

>  <filename>  (1) 
Fc1ccc(OCc2nc(C3CC34CC4)nn2-c2cccnc2)c(F)c1

$$$$
