
     RDKit          3D

 50 53  0  0  0  0  0  0  0  0999 V2000
    8.3365    7.0304   25.3350 F   0  0  0  0  0  0  0  0  0  0  0  0
    8.2788    5.9602   24.5196 C   0  0  0  0  0  0  0  0  0  0  0  0
    7.8775    4.7315   25.0433 C   0  0  0  0  0  0  0  0  0  0  0  0
    7.8136    3.6243   24.1842 C   0  0  0  0  0  0  0  0  0  0  0  0
    8.1085    3.7400   22.8131 C   0  0  0  0  0  0  0  0  0  0  0  0
    8.1376    2.5056   21.9303 C   0  0  0  0  0  0  0  0  0  0  0  0
    9.5030    1.7924   21.9444 C   0  0  0  0  0  0  0  0  0  0  0  0
    9.5573    0.5760   20.9946 C   0  0  0  0  0  0  0  0  0  0  0  0
    8.6185   -0.5077   21.4039 C   0  0  0  0  0  0  0  0  0  0  0  0
    8.8422   -1.3490   22.3931 N   0  0  0  0  0  0  0  0  0  0  0  0
    7.6587   -2.0071   22.5201 C   0  0  0  0  0  0  0  0  0  0  0  0
    7.4253   -3.0235   23.6049 C   0  0  0  0  0  0  0  0  0  0  0  0
    7.3589   -2.3508   25.0103 C   0  0  0  0  0  0  0  0  0  0  0  0
    7.2543   -3.4135   26.1075 C   0  0  0  0  0  0  0  0  0  0  0  0
    8.3147   -4.3482   26.0293 O   0  0  0  0  0  0  0  0  0  0  0  0
    8.3279   -5.0628   24.8070 C   0  0  0  0  0  0  0  0  0  0  0  0
    8.5175   -4.1284   23.6092 C   0  0  0  0  0  0  0  0  0  0  0  0
    9.5107   -3.6591   23.6651 H   0  0  0  0  0  0  0  0  0  0  0  0
    8.4837   -4.7095   22.6790 H   0  0  0  0  0  0  0  0  0  0  0  0
    9.1476   -5.7812   24.8924 H   0  0  0  0  0  0  0  0  0  0  0  0
    7.3851   -5.6312   24.6892 H   0  0  0  0  0  0  0  0  0  0  0  0
    6.2806   -3.9348   26.0294 H   0  0  0  0  0  0  0  0  0  0  0  0
    7.3215   -2.9715   27.1052 H   0  0  0  0  0  0  0  0  0  0  0  0
    8.2669   -1.7500   25.1713 H   0  0  0  0  0  0  0  0  0  0  0  0
    6.4986   -1.6710   25.0745 H   0  0  0  0  0  0  0  0  0  0  0  0
    6.4441   -3.4685   23.3743 H   0  0  0  0  0  0  0  0  0  0  0  0
    6.7245   -1.6352   21.6682 N   0  0  0  0  0  0  0  0  0  0  0  0
    7.3506   -0.6834   20.9252 N   0  0  0  0  0  0  0  0  0  0  0  0
    6.6551    0.0003   19.8911 C   0  0  0  0  0  0  0  0  0  0  0  0
    5.4407    0.6426   20.1544 C   0  0  0  0  0  0  0  0  0  0  0  0
    4.8071    1.3134   19.1023 C   0  0  0  0  0  0  0  0  0  0  0  0
    5.3934    1.2981   17.8321 C   0  0  0  0  0  0  0  0  0  0  0  0
    6.5469    0.6648   17.5667 N   0  0  0  0  0  0  0  0  0  0  0  0
    7.1597    0.0397   18.5804 C   0  0  0  0  0  0  0  0  0  0  0  0
    8.1024   -0.4506   18.3429 H   0  0  0  0  0  0  0  0  0  0  0  0
    4.9277    1.8056   16.9911 H   0  0  0  0  0  0  0  0  0  0  0  0
    3.8734    1.8448   19.2521 H   0  0  0  0  0  0  0  0  0  0  0  0
    5.0163    0.5991   21.1588 H   0  0  0  0  0  0  0  0  0  0  0  0
   10.5649    0.1499   20.9832 H   0  0  0  0  0  0  0  0  0  0  0  0
    9.3207    0.8704   19.9700 H   0  0  0  0  0  0  0  0  0  0  0  0
   10.2883    2.5040   21.6592 H   0  0  0  0  0  0  0  0  0  0  0  0
    9.7347    1.4576   22.9663 H   0  0  0  0  0  0  0  0  0  0  0  0
    7.8932    2.7641   20.8957 H   0  0  0  0  0  0  0  0  0  0  0  0
    7.3480    1.8091   22.2478 H   0  0  0  0  0  0  0  0  0  0  0  0
    8.4385    5.0136   22.3137 C   0  0  0  0  0  0  0  0  0  0  0  0
    8.5804    6.1145   23.1694 C   0  0  0  0  0  0  0  0  0  0  0  0
    8.9044    7.0819   22.8005 H   0  0  0  0  0  0  0  0  0  0  0  0
    8.5282    5.1721   21.2403 H   0  0  0  0  0  0  0  0  0  0  0  0
    7.5097    2.6534   24.5816 H   0  0  0  0  0  0  0  0  0  0  0  0
    7.6157    4.6700   26.0951 H   0  0  0  0  0  0  0  0  0  0  0  0
  1  2  1  0
  2  3  2  0
  3  4  1  0
  4  5  2  0
  5  6  1  0
  6  7  1  0
  7  8  1  0
  8  9  1  0
  9 10  2  0
 10 11  1  0
 11 12  1  0
 12 13  1  0
 13 14  1  0
 14 15  1  0
 15 16  1  0
 16 17  1  0
 17 18  1  0
 17 19  1  0
 16 20  1  0
 16 21  1  0
 14 22  1  0
 14 23  1  0
 13 24  1  0
 13 25  1  0
 12 26  1  0
 11 27  2  0
 27 28  1  0
 28 29  1  0
 29 30  2  0
 30 31  1  0
 31 32  2  0
 32 33  1  0
 33 34  2  0
 34 35  1  0
 32 36  1  0
 31 37  1  0
 30 38  1  0
  8 39  1  0
  8 40  1  0
  7 41  1  0
  7 42  1  0
  6 43  1  0
  6 44  1  0
  5 45  1  0
 45 46  2  0
 46 47  1  0
 45 48  1  0
  4 49  1  0
  3 50  1  0
 46  2  1  0
 28  9  1  0
 34 29  1  0
 17 12  1  0
M  END
>  <cnnaffinity>  (1) 
-6.14165

>  <filename>  (1) 
Fc1ccc(CCCc2nc(C3CCOCC3)nn2-c2cccnc2)cc1

$$$$
