
     RDKit          3D

 42 45  0  0  0  0  0  0  0  0999 V2000
    5.9856    7.6034   23.3437 F   0  0  0  0  0  0  0  0  0  0  0  0
    6.4986    6.4204   22.9639 C   0  0  0  0  0  0  0  0  0  0  0  0
    5.8050    5.6449   22.0359 C   0  0  0  0  0  0  0  0  0  0  0  0
    6.3688    4.4346   21.6209 C   0  0  0  0  0  0  0  0  0  0  0  0
    7.5966    3.9976   22.1420 C   0  0  0  0  0  0  0  0  0  0  0  0
    8.3124    2.4718   21.5807 S   0  0  0  0  0  0  0  0  0  0  0  0
    7.5205    1.3074   22.7489 C   0  0  0  0  0  0  0  0  0  0  0  0
    7.6553   -0.0939   22.2576 C   0  0  0  0  0  0  0  0  0  0  0  0
    8.1445   -1.0774   22.9849 N   0  0  0  0  0  0  0  0  0  0  0  0
    8.2149   -2.1088   22.1041 C   0  0  0  0  0  0  0  0  0  0  0  0
    8.6973   -3.4967   22.4559 C   0  0  0  0  0  0  0  0  0  0  0  0
    7.7861   -4.2748   23.4460 C   0  0  0  0  0  0  0  0  0  0  0  0
    8.8053   -5.1160   24.2286 C   0  0  0  0  0  0  0  0  0  0  0  0
    9.9708   -4.1311   24.3169 C   0  0  0  0  0  0  0  0  0  0  0  0
    9.9959   -3.4914   23.0475 O   0  0  0  0  0  0  0  0  0  0  0  0
   10.9581   -4.5782   24.4776 H   0  0  0  0  0  0  0  0  0  0  0  0
    9.7915   -3.3803   25.1054 H   0  0  0  0  0  0  0  0  0  0  0  0
    8.4447   -5.4415   25.2107 H   0  0  0  0  0  0  0  0  0  0  0  0
    9.0938   -6.0105   23.6589 H   0  0  0  0  0  0  0  0  0  0  0  0
    7.2871   -3.5542   24.1103 H   0  0  0  0  0  0  0  0  0  0  0  0
    7.0079   -4.8520   22.9324 H   0  0  0  0  0  0  0  0  0  0  0  0
    8.7528   -4.0082   21.4882 H   0  0  0  0  0  0  0  0  0  0  0  0
    7.7663   -1.8320   20.8954 N   0  0  0  0  0  0  0  0  0  0  0  0
    7.3710   -0.5372   20.9998 N   0  0  0  0  0  0  0  0  0  0  0  0
    6.6781    0.0912   19.9269 C   0  0  0  0  0  0  0  0  0  0  0  0
    5.4750    0.7758   20.1322 C   0  0  0  0  0  0  0  0  0  0  0  0
    4.8655    1.3761   19.0276 C   0  0  0  0  0  0  0  0  0  0  0  0
    5.4772    1.2718   17.7734 C   0  0  0  0  0  0  0  0  0  0  0  0
    6.6133    0.5819   17.5683 N   0  0  0  0  0  0  0  0  0  0  0  0
    7.1870   -0.0067   18.6214 C   0  0  0  0  0  0  0  0  0  0  0  0
    8.0806   -0.5983   18.4356 H   0  0  0  0  0  0  0  0  0  0  0  0
    5.0423    1.7510   16.8978 H   0  0  0  0  0  0  0  0  0  0  0  0
    3.9309    1.9195   19.1271 H   0  0  0  0  0  0  0  0  0  0  0  0
    4.9999    0.7947   21.1144 H   0  0  0  0  0  0  0  0  0  0  0  0
    8.0130    1.3666   23.7218 H   0  0  0  0  0  0  0  0  0  0  0  0
    6.4694    1.5734   22.8849 H   0  0  0  0  0  0  0  0  0  0  0  0
    8.2630    4.7901   23.0909 C   0  0  0  0  0  0  0  0  0  0  0  0
    7.7188    6.0113   23.5040 C   0  0  0  0  0  0  0  0  0  0  0  0
    8.2128    6.6409   24.2372 H   0  0  0  0  0  0  0  0  0  0  0  0
    9.2060    4.4409   23.5042 H   0  0  0  0  0  0  0  0  0  0  0  0
    5.8635    3.8243   20.8730 H   0  0  0  0  0  0  0  0  0  0  0  0
    4.8441    5.9838   21.6579 H   0  0  0  0  0  0  0  0  0  0  0  0
  1  2  1  0
  2  3  2  0
  3  4  1  0
  4  5  2  0
  5  6  1  0
  6  7  1  0
  7  8  1  0
  8  9  2  0
  9 10  1  0
 10 11  1  0
 11 12  1  0
 12 13  1  0
 13 14  1  0
 14 15  1  0
 14 16  1  0
 14 17  1  0
 13 18  1  0
 13 19  1  0
 12 20  1  0
 12 21  1  0
 11 22  1  0
 10 23  2  0
 23 24  1  0
 24 25  1  0
 25 26  2  0
 26 27  1  0
 27 28  2  0
 28 29  1  0
 29 30  2  0
 30 31  1  0
 28 32  1  0
 27 33  1  0
 26 34  1  0
  7 35  1  0
  7 36  1  0
  5 37  1  0
 37 38  2  0
 38 39  1  0
 37 40  1  0
  4 41  1  0
  3 42  1  0
 38  2  1  0
 24  8  1  0
 30 25  1  0
 15 11  1  0
M  END
>  <cnnaffinity>  (1) 
-5.96586

>  <filename>  (1) 
Fc1ccc(SCc2nc(C3CCCO3)nn2-c2cccnc2)cc1

$$$$
