
     RDKit          3D

 28 30  0  0  0  0  0  0  0  0999 V2000
    8.4689   -1.9999   19.8866 H   0  0  0  0  0  0  0  0  0  0  0  0
    8.2246   -1.6694   20.8717 C   0  0  0  0  0  0  0  0  0  0  0  0
    8.7593   -2.3420   21.8834 N   0  0  0  0  0  0  0  0  0  0  0  0
    8.5375   -1.8839   23.1183 N   0  0  0  0  0  0  0  0  0  0  0  0
    7.8107   -0.7650   23.3025 C   0  0  0  0  0  0  0  0  0  0  0  0
    7.7226   -0.2765   24.6912 C   0  0  0  0  0  0  0  0  0  0  0  0
    8.4201   -0.9188   25.7397 C   0  0  0  0  0  0  0  0  0  0  0  0
    9.0284   -1.7933   25.5065 H   0  0  0  0  0  0  0  0  0  0  0  0
    8.3367   -0.4560   27.0505 C   0  0  0  0  0  0  0  0  0  0  0  0
    8.8662   -0.9298   27.8765 H   0  0  0  0  0  0  0  0  0  0  0  0
    7.5446    0.6630   27.3021 C   0  0  0  0  0  0  0  0  0  0  0  0
    7.4464    1.1170   28.5587 F   0  0  0  0  0  0  0  0  0  0  0  0
    6.8457    1.3315   26.3026 C   0  0  0  0  0  0  0  0  0  0  0  0
    6.2330    2.2016   26.4992 H   0  0  0  0  0  0  0  0  0  0  0  0
    6.9491    0.8473   25.0021 C   0  0  0  0  0  0  0  0  0  0  0  0
    6.2612    1.5146   24.0751 F   0  0  0  0  0  0  0  0  0  0  0  0
    7.1809   -0.0945   22.3115 N   0  0  0  0  0  0  0  0  0  0  0  0
    7.3697   -0.5580   21.0846 C   0  0  0  0  0  0  0  0  0  0  0  0
    6.6397    0.0929   19.9751 C   0  0  0  0  0  0  0  0  0  0  0  0
    7.1718    0.0863   18.6771 C   0  0  0  0  0  0  0  0  0  0  0  0
    8.1271   -0.3953   18.4572 H   0  0  0  0  0  0  0  0  0  0  0  0
    6.5756    0.6590   17.6322 N   0  0  0  0  0  0  0  0  0  0  0  0
    5.4068    1.2782   17.8520 C   0  0  0  0  0  0  0  0  0  0  0  0
    4.9728    1.7753   16.9913 H   0  0  0  0  0  0  0  0  0  0  0  0
    4.7718    1.3183   19.0982 C   0  0  0  0  0  0  0  0  0  0  0  0
    3.8289    1.8433   19.2041 H   0  0  0  0  0  0  0  0  0  0  0  0
    5.3996    0.7155   20.1848 C   0  0  0  0  0  0  0  0  0  0  0  0
    4.9630    0.7197   21.1865 H   0  0  0  0  0  0  0  0  0  0  0  0
  1  2  1  0
  2  3  2  0
  3  4  1  0
  4  5  2  0
  5  6  1  0
  6  7  2  0
  7  8  1  0
  7  9  1  0
  9 10  1  0
  9 11  2  0
 11 12  1  0
 11 13  1  0
 13 14  1  0
 13 15  2  0
 15 16  1  0
  5 17  1  0
 17 18  2  0
 18 19  1  0
 19 20  2  0
 20 21  1  0
 20 22  1  0
 22 23  2  0
 23 24  1  0
 23 25  1  0
 25 26  1  0
 25 27  2  0
 27 28  1  0
 18  2  1  0
 27 19  1  0
 15  6  1  0
M  END
>  <cnnaffinity>  (1) 
-5.19752

>  <filename>  (1) 
Fc1ccc(-c2nncc(-c3cccnc3)n2)c(F)c1

$$$$
