
     RDKit          3D

 42 45  0  0  0  0  0  0  0  0999 V2000
   14.7393    0.6502   22.6068 F   0  0  0  0  0  0  0  0  0  0  0  0
   13.7385   -0.0999   22.1282 C   0  0  0  0  0  0  0  0  0  0  0  0
   14.0336   -1.2140   21.3402 C   0  0  0  0  0  0  0  0  0  0  0  0
   12.9910   -1.9566   20.8038 C   0  0  0  0  0  0  0  0  0  0  0  0
   11.6725   -1.6498   21.1126 C   0  0  0  0  0  0  0  0  0  0  0  0
   11.3676   -0.5150   21.8775 C   0  0  0  0  0  0  0  0  0  0  0  0
    9.9327   -0.1795   22.0397 C   0  0  0  0  0  0  0  0  0  0  0  0
    8.9832   -0.9171   21.4759 N   0  0  0  0  0  0  0  0  0  0  0  0
    7.8437   -0.2624   21.7693 N   0  0  0  0  0  0  0  0  0  0  0  0
    6.5990   -0.7133   21.1403 C   0  0  0  0  0  0  0  0  0  0  0  0
    6.1688    0.0998   19.9330 C   0  0  0  0  0  0  0  0  0  0  0  0
    4.9635    0.8093   19.8908 C   0  0  0  0  0  0  0  0  0  0  0  0
    4.6303    1.5098   18.7283 C   0  0  0  0  0  0  0  0  0  0  0  0
    5.5145    1.4692   17.6464 C   0  0  0  0  0  0  0  0  0  0  0  0
    6.6742    0.7944   17.6643 N   0  0  0  0  0  0  0  0  0  0  0  0
    6.9882    0.1425   18.7905 C   0  0  0  0  0  0  0  0  0  0  0  0
    7.9408   -0.3878   18.7812 H   0  0  0  0  0  0  0  0  0  0  0  0
    5.2744    1.9869   16.7189 H   0  0  0  0  0  0  0  0  0  0  0  0
    3.7179    2.0926   18.6587 H   0  0  0  0  0  0  0  0  0  0  0  0
    4.2985    0.8155   20.7585 H   0  0  0  0  0  0  0  0  0  0  0  0
    6.7777   -1.7580   20.8604 H   0  0  0  0  0  0  0  0  0  0  0  0
    5.8092   -0.7259   21.8944 H   0  0  0  0  0  0  0  0  0  0  0  0
    8.1541    0.8521   22.4750 C   0  0  0  0  0  0  0  0  0  0  0  0
    7.1602    1.7287   23.1617 C   0  0  0  0  0  0  0  0  0  0  0  0
    6.8169    1.1673   24.5694 C   0  0  0  0  0  0  0  0  0  0  0  0
    5.9137    1.9753   25.4330 C   0  0  0  0  0  0  0  0  0  0  0  0
    4.6418    1.7669   25.6311 N   0  0  0  0  0  0  0  0  0  0  0  0
    4.1941    2.7101   26.5246 N   0  0  0  0  0  0  0  0  0  0  0  0
    5.2108    3.4537   26.8445 C   0  0  0  0  0  0  0  0  0  0  0  0
    6.3245    3.0460   26.1747 N   0  0  0  0  0  0  0  0  0  0  0  0
    7.2550    3.4171   26.2390 H   0  0  0  0  0  0  0  0  0  0  0  0
    5.1865    4.2774   27.5413 H   0  0  0  0  0  0  0  0  0  0  0  0
    7.7476    1.0013   25.1237 H   0  0  0  0  0  0  0  0  0  0  0  0
    6.3505    0.1871   24.4485 H   0  0  0  0  0  0  0  0  0  0  0  0
    7.6263    2.7108   23.2463 H   0  0  0  0  0  0  0  0  0  0  0  0
    6.2651    1.8479   22.5387 H   0  0  0  0  0  0  0  0  0  0  0  0
    9.4608    0.9256   22.6643 N   0  0  0  0  0  0  0  0  0  0  0  0
   12.4197    0.2802   22.3832 C   0  0  0  0  0  0  0  0  0  0  0  0
   12.2397    1.1965   22.9343 H   0  0  0  0  0  0  0  0  0  0  0  0
   10.8550   -2.2716   20.7620 H   0  0  0  0  0  0  0  0  0  0  0  0
   13.2219   -2.7585   20.1105 H   0  0  0  0  0  0  0  0  0  0  0  0
   15.0323   -1.5192   21.1030 H   0  0  0  0  0  0  0  0  0  0  0  0
  1  2  1  0
  2  3  2  0
  3  4  1  0
  4  5  2  0
  5  6  1  0
  6  7  1  0
  7  8  2  0
  8  9  1  0
  9 10  1  0
 10 11  1  0
 11 12  2  0
 12 13  1  0
 13 14  2  0
 14 15  1  0
 15 16  2  0
 16 17  1  0
 14 18  1  0
 13 19  1  0
 12 20  1  0
 10 21  1  0
 10 22  1  0
  9 23  1  0
 23 24  1  0
 24 25  1  0
 25 26  1  0
 26 27  2  0
 27 28  1  0
 28 29  2  0
 29 30  1  0
 30 31  1  0
 29 32  1  0
 25 33  1  0
 25 34  1  0
 24 35  1  0
 24 36  1  0
 23 37  2  0
  6 38  2  0
 38 39  1  0
  5 40  1  0
  4 41  1  0
  3 42  1  0
 38  2  1  0
 37  7  1  0
 16 11  1  0
 30 26  1  0
M  END
>  <cnnaffinity>  (1) 
-6.2972

>  <filename>  (1) 
Fc1cccc(-c2nc(CCc3nnc[nH]3)n(Cc3cccnc3)n2)c1

$$$$
