
     RDKit          3D

 39 42  0  0  0  0  0  0  0  0999 V2000
   11.9448    2.1548   25.0650 F   0  0  0  0  0  0  0  0  0  0  0  0
   10.9476    2.1644   24.1719 C   0  0  0  0  0  0  0  0  0  0  0  0
    9.7698    2.8610   24.4538 C   0  0  0  0  0  0  0  0  0  0  0  0
    8.7796    2.8973   23.4674 C   0  0  0  0  0  0  0  0  0  0  0  0
    8.9528    2.2247   22.2471 C   0  0  0  0  0  0  0  0  0  0  0  0
   10.1186    1.4711   22.0464 C   0  0  0  0  0  0  0  0  0  0  0  0
   10.3845    0.6845   20.9634 O   0  0  0  0  0  0  0  0  0  0  0  0
    9.3437    0.0102   20.2851 C   0  0  0  0  0  0  0  0  0  0  0  0
    8.4083   -0.8230   21.1268 C   0  0  0  0  0  0  0  0  0  0  0  0
    8.6977   -1.5683   22.1719 N   0  0  0  0  0  0  0  0  0  0  0  0
    7.4858   -2.0580   22.5448 C   0  0  0  0  0  0  0  0  0  0  0  0
    7.3200   -2.9250   23.7466 C   0  0  0  0  0  0  0  0  0  0  0  0
    7.7075   -2.2793   25.1127 C   0  0  0  0  0  0  0  0  0  0  0  0
    8.8941   -3.6165   25.4843 S   0  0  0  0  0  0  0  0  0  0  0  0
    8.3166   -4.1144   23.8269 C   0  0  0  0  0  0  0  0  0  0  0  0
    7.8435   -5.1007   23.8079 H   0  0  0  0  0  0  0  0  0  0  0  0
    9.1201   -4.0820   23.0825 H   0  0  0  0  0  0  0  0  0  0  0  0
    8.1805   -1.2913   25.0461 H   0  0  0  0  0  0  0  0  0  0  0  0
    6.8853   -2.2353   25.8340 H   0  0  0  0  0  0  0  0  0  0  0  0
    6.2763   -3.2502   23.7417 H   0  0  0  0  0  0  0  0  0  0  0  0
    6.4800   -1.6969   21.7752 N   0  0  0  0  0  0  0  0  0  0  0  0
    7.0801   -0.9283   20.8304 N   0  0  0  0  0  0  0  0  0  0  0  0
    6.3628   -0.2683   19.7972 C   0  0  0  0  0  0  0  0  0  0  0  0
    5.2302    0.5016   20.0756 C   0  0  0  0  0  0  0  0  0  0  0  0
    4.7250    1.3079   19.0482 C   0  0  0  0  0  0  0  0  0  0  0  0
    5.3437    1.3007   17.7907 C   0  0  0  0  0  0  0  0  0  0  0  0
    6.3860    0.5059   17.5015 N   0  0  0  0  0  0  0  0  0  0  0  0
    6.8588   -0.2710   18.4793 C   0  0  0  0  0  0  0  0  0  0  0  0
    7.7039   -0.8991   18.2126 H   0  0  0  0  0  0  0  0  0  0  0  0
    4.9899    1.9478   16.9889 H   0  0  0  0  0  0  0  0  0  0  0  0
    3.8760    1.9619   19.2156 H   0  0  0  0  0  0  0  0  0  0  0  0
    4.7912    0.4753   21.0746 H   0  0  0  0  0  0  0  0  0  0  0  0
    8.7811    0.7315   19.6837 H   0  0  0  0  0  0  0  0  0  0  0  0
    9.8637   -0.6587   19.5993 H   0  0  0  0  0  0  0  0  0  0  0  0
   11.1396    1.4709   22.9927 C   0  0  0  0  0  0  0  0  0  0  0  0
   12.0450    0.9090   22.8009 H   0  0  0  0  0  0  0  0  0  0  0  0
    8.2027    2.2822   21.4655 H   0  0  0  0  0  0  0  0  0  0  0  0
    7.8569    3.4446   23.6483 H   0  0  0  0  0  0  0  0  0  0  0  0
    9.6401    3.3320   25.4214 H   0  0  0  0  0  0  0  0  0  0  0  0
  1  2  1  0
  2  3  2  0
  3  4  1  0
  4  5  2  0
  5  6  1  0
  6  7  1  0
  7  8  1  0
  8  9  1  0
  9 10  2  0
 10 11  1  0
 11 12  1  0
 12 13  1  0
 13 14  1  0
 14 15  1  0
 15 16  1  0
 15 17  1  0
 13 18  1  0
 13 19  1  0
 12 20  1  0
 11 21  2  0
 21 22  1  0
 22 23  1  0
 23 24  2  0
 24 25  1  0
 25 26  2  0
 26 27  1  0
 27 28  2  0
 28 29  1  0
 26 30  1  0
 25 31  1  0
 24 32  1  0
  8 33  1  0
  8 34  1  0
  6 35  2  0
 35 36  1  0
  5 37  1  0
  4 38  1  0
  3 39  1  0
 35  2  1  0
 22  9  1  0
 28 23  1  0
 15 12  1  0
M  END
>  <cnnaffinity>  (1) 
-5.9941

>  <filename>  (1) 
Fc1cccc(OCc2nc(C3CSC3)nn2-c2cccnc2)c1

$$$$
