
     RDKit          3D

 42 45  0  0  0  0  0  0  0  0999 V2000
   13.5573   -0.2745   22.4884 F   0  0  0  0  0  0  0  0  0  0  0  0
   12.5014    0.4406   22.8805 C   0  0  0  0  0  0  0  0  0  0  0  0
   11.5396    0.7899   21.9464 C   0  0  0  0  0  0  0  0  0  0  0  0
   10.4278    1.5427   22.3455 C   0  0  0  0  0  0  0  0  0  0  0  0
    9.5302    1.7836   21.3603 O   0  0  0  0  0  0  0  0  0  0  0  0
    8.2748    2.4008   21.6332 C   0  0  0  0  0  0  0  0  0  0  0  0
    7.3288    1.5959   22.5520 C   0  0  0  0  0  0  0  0  0  0  0  0
    7.4361    0.1339   22.2798 C   0  0  0  0  0  0  0  0  0  0  0  0
    8.0359   -0.7236   23.0801 N   0  0  0  0  0  0  0  0  0  0  0  0
    8.2790   -1.7878   22.2667 C   0  0  0  0  0  0  0  0  0  0  0  0
    9.0968   -2.9435   22.7459 C   0  0  0  0  0  0  0  0  0  0  0  0
    8.6127   -3.6068   24.0524 C   0  0  0  0  0  0  0  0  0  0  0  0
   10.3255   -3.9085   24.5972 S   0  0  0  0  0  0  0  0  0  0  0  0
   10.5072   -2.6149   23.3220 C   0  0  0  0  0  0  0  0  0  0  0  0
   11.3813   -2.7192   22.6750 H   0  0  0  0  0  0  0  0  0  0  0  0
   10.5358   -1.6231   23.7867 H   0  0  0  0  0  0  0  0  0  0  0  0
    8.0042   -4.5105   23.9613 H   0  0  0  0  0  0  0  0  0  0  0  0
    8.1296   -2.8811   24.7120 H   0  0  0  0  0  0  0  0  0  0  0  0
    9.1663   -3.6787   21.9432 H   0  0  0  0  0  0  0  0  0  0  0  0
    7.8266   -1.6611   21.0368 N   0  0  0  0  0  0  0  0  0  0  0  0
    7.2510   -0.4222   21.0479 N   0  0  0  0  0  0  0  0  0  0  0  0
    6.6081    0.1171   19.8971 C   0  0  0  0  0  0  0  0  0  0  0  0
    5.4377    0.8888   19.9919 C   0  0  0  0  0  0  0  0  0  0  0  0
    4.9218    1.4511   18.8200 C   0  0  0  0  0  0  0  0  0  0  0  0
    5.5620    1.2071   17.6038 C   0  0  0  0  0  0  0  0  0  0  0  0
    6.6642    0.4441   17.5001 N   0  0  0  0  0  0  0  0  0  0  0  0
    7.1675   -0.0900   18.6181 C   0  0  0  0  0  0  0  0  0  0  0  0
    8.0712   -0.6858   18.5045 H   0  0  0  0  0  0  0  0  0  0  0  0
    5.1721    1.6220   16.6782 H   0  0  0  0  0  0  0  0  0  0  0  0
    4.0466    2.0910   18.8428 H   0  0  0  0  0  0  0  0  0  0  0  0
    4.9320    1.0423   20.9447 H   0  0  0  0  0  0  0  0  0  0  0  0
    7.5601    1.7407   23.6086 H   0  0  0  0  0  0  0  0  0  0  0  0
    6.3126    1.9675   22.4094 H   0  0  0  0  0  0  0  0  0  0  0  0
    7.8164    2.4498   20.6475 H   0  0  0  0  0  0  0  0  0  0  0  0
    8.4217    3.4256   22.0046 H   0  0  0  0  0  0  0  0  0  0  0  0
   10.3154    1.9762   23.6743 C   0  0  0  0  0  0  0  0  0  0  0  0
   11.2732    1.5795   24.6132 C   0  0  0  0  0  0  0  0  0  0  0  0
   12.3616    0.8030   24.2288 C   0  0  0  0  0  0  0  0  0  0  0  0
   13.4822    0.2389   25.4087 Cl  0  0  0  0  0  0  0  0  0  0  0  0
   11.1669    1.8434   25.6612 H   0  0  0  0  0  0  0  0  0  0  0  0
    9.4708    2.5788   23.9810 H   0  0  0  0  0  0  0  0  0  0  0  0
   11.6383    0.4817   20.9150 H   0  0  0  0  0  0  0  0  0  0  0  0
  1  2  1  0
  2  3  2  0
  3  4  1  0
  4  5  1  0
  5  6  1  0
  6  7  1  0
  7  8  1  0
  8  9  2  0
  9 10  1  0
 10 11  1  0
 11 12  1  0
 12 13  1  0
 13 14  1  0
 14 15  1  0
 14 16  1  0
 12 17  1  0
 12 18  1  0
 11 19  1  0
 10 20  2  0
 20 21  1  0
 21 22  1  0
 22 23  2  0
 23 24  1  0
 24 25  2  0
 25 26  1  0
 26 27  2  0
 27 28  1  0
 25 29  1  0
 24 30  1  0
 23 31  1  0
  7 32  1  0
  7 33  1  0
  6 34  1  0
  6 35  1  0
  4 36  2  0
 36 37  1  0
 37 38  2  0
 38 39  1  0
 37 40  1  0
 36 41  1  0
  3 42  1  0
 38  2  1  0
 21  8  1  0
 27 22  1  0
 14 11  1  0
M  END
>  <cnnaffinity>  (1) 
-6.46675

>  <filename>  (1) 
Fc1cc(OCCc2nc(C3CSC3)nn2-c2cccnc2)ccc1Cl

$$$$
