
     RDKit          3D

 42 45  0  0  0  0  0  0  0  0999 V2000
    7.4847   -1.3980   27.1856 F   0  0  0  0  0  0  0  0  0  0  0  0
    6.5143   -0.7258   26.5381 C   0  0  0  0  0  0  0  0  0  0  0  0
    5.2164   -0.7719   27.0267 C   0  0  0  0  0  0  0  0  0  0  0  0
    4.2338   -0.0214   26.3664 C   0  0  0  0  0  0  0  0  0  0  0  0
    4.5581    0.6986   25.2279 C   0  0  0  0  0  0  0  0  0  0  0  0
    3.5964    1.4133   24.6198 F   0  0  0  0  0  0  0  0  0  0  0  0
    5.8660    0.6869   24.6948 C   0  0  0  0  0  0  0  0  0  0  0  0
    6.0519    1.3446   23.5104 O   0  0  0  0  0  0  0  0  0  0  0  0
    7.3099    1.2967   22.8284 C   0  0  0  0  0  0  0  0  0  0  0  0
    7.6448   -0.0430   22.2465 C   0  0  0  0  0  0  0  0  0  0  0  0
    8.3085   -0.9570   22.9236 N   0  0  0  0  0  0  0  0  0  0  0  0
    8.3484   -2.0126   22.0818 C   0  0  0  0  0  0  0  0  0  0  0  0
    8.9239   -3.2917   22.5731 C   0  0  0  0  0  0  0  0  0  0  0  0
    8.1283   -4.0008   23.7013 C   0  0  0  0  0  0  0  0  0  0  0  0
    9.2147   -4.8072   24.4287 C   0  0  0  0  0  0  0  0  0  0  0  0
   10.4475   -4.1525   24.1621 O   0  0  0  0  0  0  0  0  0  0  0  0
   10.2967   -3.0917   23.2358 C   0  0  0  0  0  0  0  0  0  0  0  0
   10.3357   -2.1196   23.7534 H   0  0  0  0  0  0  0  0  0  0  0  0
   11.1376   -3.1319   22.5301 H   0  0  0  0  0  0  0  0  0  0  0  0
    9.0417   -4.8580   25.5156 H   0  0  0  0  0  0  0  0  0  0  0  0
    9.2857   -5.8465   24.0726 H   0  0  0  0  0  0  0  0  0  0  0  0
    7.3155   -4.6312   23.3219 H   0  0  0  0  0  0  0  0  0  0  0  0
    7.6860   -3.2634   24.3882 H   0  0  0  0  0  0  0  0  0  0  0  0
    8.9858   -3.9478   21.7097 H   0  0  0  0  0  0  0  0  0  0  0  0
    7.8216   -1.7976   20.8977 N   0  0  0  0  0  0  0  0  0  0  0  0
    7.3383   -0.5256   21.0078 N   0  0  0  0  0  0  0  0  0  0  0  0
    6.6255    0.0741   19.9311 C   0  0  0  0  0  0  0  0  0  0  0  0
    5.4319    0.7720   20.1581 C   0  0  0  0  0  0  0  0  0  0  0  0
    4.8134    1.3788   19.0585 C   0  0  0  0  0  0  0  0  0  0  0  0
    5.4140    1.2814   17.8009 C   0  0  0  0  0  0  0  0  0  0  0  0
    6.5420    0.5830   17.5768 N   0  0  0  0  0  0  0  0  0  0  0  0
    7.1183   -0.0262   18.6169 C   0  0  0  0  0  0  0  0  0  0  0  0
    8.0169   -0.6046   18.4055 H   0  0  0  0  0  0  0  0  0  0  0  0
    4.9757    1.7743   16.9352 H   0  0  0  0  0  0  0  0  0  0  0  0
    3.8892    1.9342   19.1719 H   0  0  0  0  0  0  0  0  0  0  0  0
    5.0172    0.8393   21.1661 H   0  0  0  0  0  0  0  0  0  0  0  0
    8.1187    1.5782   23.5170 H   0  0  0  0  0  0  0  0  0  0  0  0
    7.2395    2.0539   22.0479 H   0  0  0  0  0  0  0  0  0  0  0  0
    6.8617   -0.0035   25.3997 C   0  0  0  0  0  0  0  0  0  0  0  0
    7.8737   -0.0742   25.0304 H   0  0  0  0  0  0  0  0  0  0  0  0
    3.2055    0.0140   26.7152 H   0  0  0  0  0  0  0  0  0  0  0  0
    4.9990   -1.3878   27.8895 H   0  0  0  0  0  0  0  0  0  0  0  0
  1  2  1  0
  2  3  2  0
  3  4  1  0
  4  5  2  0
  5  6  1  0
  5  7  1  0
  7  8  1  0
  8  9  1  0
  9 10  1  0
 10 11  2  0
 11 12  1  0
 12 13  1  0
 13 14  1  0
 14 15  1  0
 15 16  1  0
 16 17  1  0
 17 18  1  0
 17 19  1  0
 15 20  1  0
 15 21  1  0
 14 22  1  0
 14 23  1  0
 13 24  1  0
 12 25  2  0
 25 26  1  0
 26 27  1  0
 27 28  2  0
 28 29  1  0
 29 30  2  0
 30 31  1  0
 31 32  2  0
 32 33  1  0
 30 34  1  0
 29 35  1  0
 28 36  1  0
  9 37  1  0
  9 38  1  0
  7 39  2  0
 39 40  1  0
  4 41  1  0
  3 42  1  0
 39  2  1  0
 26 10  1  0
 32 27  1  0
 17 13  1  0
M  END
>  <cnnaffinity>  (1) 
-6.07598

>  <filename>  (1) 
Fc1ccc(F)c(OCc2nc(C3CCOC3)nn2-c2cccnc2)c1

$$$$
