
     RDKit          3D

 42 45  0  0  0  0  0  0  0  0999 V2000
    4.5017    1.5653   27.7839 F   0  0  0  0  0  0  0  0  0  0  0  0
    5.5965    2.0429   27.1693 C   0  0  0  0  0  0  0  0  0  0  0  0
    6.3491    3.0265   27.8105 C   0  0  0  0  0  0  0  0  0  0  0  0
    7.5011    3.5088   27.1797 C   0  0  0  0  0  0  0  0  0  0  0  0
    7.8808    3.0147   25.9315 C   0  0  0  0  0  0  0  0  0  0  0  0
    7.1084    2.0232   25.2896 C   0  0  0  0  0  0  0  0  0  0  0  0
    7.5515    1.4940   23.9708 C   0  0  0  0  0  0  0  0  0  0  0  0
    6.8965    0.5694   23.2860 N   0  0  0  0  0  0  0  0  0  0  0  0
    7.6789    0.3741   22.2007 N   0  0  0  0  0  0  0  0  0  0  0  0
    7.3041   -0.5604   21.1471 C   0  0  0  0  0  0  0  0  0  0  0  0
    6.6432    0.0983   19.9484 C   0  0  0  0  0  0  0  0  0  0  0  0
    5.4330    0.7856   20.1171 C   0  0  0  0  0  0  0  0  0  0  0  0
    4.8464    1.3853   19.0007 C   0  0  0  0  0  0  0  0  0  0  0  0
    5.4863    1.2812   17.7621 C   0  0  0  0  0  0  0  0  0  0  0  0
    6.6399    0.6246   17.5777 N   0  0  0  0  0  0  0  0  0  0  0  0
    7.1962    0.0582   18.6580 C   0  0  0  0  0  0  0  0  0  0  0  0
    8.1397   -0.4580   18.4791 H   0  0  0  0  0  0  0  0  0  0  0  0
    5.0537    1.7424   16.8763 H   0  0  0  0  0  0  0  0  0  0  0  0
    3.9203    1.9444   19.0753 H   0  0  0  0  0  0  0  0  0  0  0  0
    4.9703    0.8612   21.1048 H   0  0  0  0  0  0  0  0  0  0  0  0
    6.6219   -1.2661   21.6250 H   0  0  0  0  0  0  0  0  0  0  0  0
    8.1917   -1.1309   20.8460 H   0  0  0  0  0  0  0  0  0  0  0  0
    8.7482    1.1956   22.2644 C   0  0  0  0  0  0  0  0  0  0  0  0
    9.8679    1.2180   21.2638 C   0  0  0  0  0  0  0  0  0  0  0  0
   11.0478    0.3105   21.6068 C   0  0  0  0  0  0  0  0  0  0  0  0
   12.0868    0.7838   22.4224 C   0  0  0  0  0  0  0  0  0  0  0  0
   13.1282   -0.0802   22.7602 C   0  0  0  0  0  0  0  0  0  0  0  0
   13.1356   -1.3642   22.2123 C   0  0  0  0  0  0  0  0  0  0  0  0
   12.1557   -1.8433   21.4450 N   0  0  0  0  0  0  0  0  0  0  0  0
   11.1310   -1.0256   21.1841 C   0  0  0  0  0  0  0  0  0  0  0  0
   10.3234   -1.4550   20.5942 H   0  0  0  0  0  0  0  0  0  0  0  0
   13.9746   -2.0305   22.3839 H   0  0  0  0  0  0  0  0  0  0  0  0
   13.9322    0.2104   23.4218 H   0  0  0  0  0  0  0  0  0  0  0  0
   12.0997    1.8149   22.7823 H   0  0  0  0  0  0  0  0  0  0  0  0
   10.2172    2.2553   21.2201 H   0  0  0  0  0  0  0  0  0  0  0  0
    9.4577    0.9829   20.2753 H   0  0  0  0  0  0  0  0  0  0  0  0
    8.7005    1.9110   23.3667 N   0  0  0  0  0  0  0  0  0  0  0  0
    5.9462    1.5300   25.9237 C   0  0  0  0  0  0  0  0  0  0  0  0
    5.3348    0.7508   25.4711 H   0  0  0  0  0  0  0  0  0  0  0  0
    8.7823    3.3776   25.4412 H   0  0  0  0  0  0  0  0  0  0  0  0
    8.1145    4.2651   27.6642 H   0  0  0  0  0  0  0  0  0  0  0  0
    6.0338    3.3889   28.7825 H   0  0  0  0  0  0  0  0  0  0  0  0
  1  2  1  0
  2  3  2  0
  3  4  1  0
  4  5  2  0
  5  6  1  0
  6  7  1  0
  7  8  2  0
  8  9  1  0
  9 10  1  0
 10 11  1  0
 11 12  2  0
 12 13  1  0
 13 14  2  0
 14 15  1  0
 15 16  2  0
 16 17  1  0
 14 18  1  0
 13 19  1  0
 12 20  1  0
 10 21  1  0
 10 22  1  0
  9 23  1  0
 23 24  1  0
 24 25  1  0
 25 26  2  0
 26 27  1  0
 27 28  2  0
 28 29  1  0
 29 30  2  0
 30 31  1  0
 28 32  1  0
 27 33  1  0
 26 34  1  0
 24 35  1  0
 24 36  1  0
 23 37  2  0
  6 38  2  0
 38 39  1  0
  5 40  1  0
  4 41  1  0
  3 42  1  0
 38  2  1  0
 37  7  1  0
 16 11  1  0
 30 25  1  0
M  END
>  <cnnaffinity>  (1) 
-6.32081

>  <filename>  (1) 
Fc1cccc(-c2nc(Cc3cccnc3)n(Cc3cccnc3)n2)c1

$$$$
