
     RDKit          3D

 41 44  0  0  0  0  0  0  0  0999 V2000
   11.0804    3.4798   23.9931 F   0  0  0  0  0  0  0  0  0  0  0  0
   11.3368    2.3411   23.3335 C   0  0  0  0  0  0  0  0  0  0  0  0
   12.4896    1.6253   23.6423 C   0  0  0  0  0  0  0  0  0  0  0  0
   12.7475    0.4387   22.9593 C   0  0  0  0  0  0  0  0  0  0  0  0
   11.8587   -0.0015   21.9727 C   0  0  0  0  0  0  0  0  0  0  0  0
   12.1956   -1.5201   21.1987 Cl  0  0  0  0  0  0  0  0  0  0  0  0
   10.7077    0.7345   21.6437 C   0  0  0  0  0  0  0  0  0  0  0  0
    9.6627    0.2371   20.6738 C   0  0  0  0  0  0  0  0  0  0  0  0
    8.6431   -0.6094   21.3362 C   0  0  0  0  0  0  0  0  0  0  0  0
    8.8690   -1.4762   22.3012 N   0  0  0  0  0  0  0  0  0  0  0  0
    7.6446   -2.0134   22.5161 C   0  0  0  0  0  0  0  0  0  0  0  0
    7.4007   -2.9262   23.6842 C   0  0  0  0  0  0  0  0  0  0  0  0
    6.9309   -2.1693   24.9573 C   0  0  0  0  0  0  0  0  0  0  0  0
    6.0043   -3.1882   25.6287 C   0  0  0  0  0  0  0  0  0  0  0  0
    5.4674   -4.0171   24.4529 C   0  0  0  0  0  0  0  0  0  0  0  0
    6.4077   -3.8955   23.3970 O   0  0  0  0  0  0  0  0  0  0  0  0
    4.4893   -3.6598   24.0992 H   0  0  0  0  0  0  0  0  0  0  0  0
    5.3819   -5.0844   24.6859 H   0  0  0  0  0  0  0  0  0  0  0  0
    5.1920   -2.7145   26.1859 H   0  0  0  0  0  0  0  0  0  0  0  0
    6.5600   -3.8235   26.3270 H   0  0  0  0  0  0  0  0  0  0  0  0
    6.3836   -1.2598   24.6771 H   0  0  0  0  0  0  0  0  0  0  0  0
    7.7748   -1.8606   25.5842 H   0  0  0  0  0  0  0  0  0  0  0  0
    8.3571   -3.4335   23.8676 H   0  0  0  0  0  0  0  0  0  0  0  0
    6.6830   -1.5472   21.7393 N   0  0  0  0  0  0  0  0  0  0  0  0
    7.3374   -0.6761   20.9379 N   0  0  0  0  0  0  0  0  0  0  0  0
    6.6510    0.0084   19.8992 C   0  0  0  0  0  0  0  0  0  0  0  0
    5.4357    0.6445   20.1649 C   0  0  0  0  0  0  0  0  0  0  0  0
    4.8116    1.3111   19.1088 C   0  0  0  0  0  0  0  0  0  0  0  0
    5.3993    1.2962   17.8365 C   0  0  0  0  0  0  0  0  0  0  0  0
    6.5572    0.6718   17.5742 N   0  0  0  0  0  0  0  0  0  0  0  0
    7.1647    0.0512   18.5904 C   0  0  0  0  0  0  0  0  0  0  0  0
    8.1125   -0.4295   18.3614 H   0  0  0  0  0  0  0  0  0  0  0  0
    4.9222    1.7866   16.9928 H   0  0  0  0  0  0  0  0  0  0  0  0
    3.8804    1.8401   19.2594 H   0  0  0  0  0  0  0  0  0  0  0  0
    5.0177    0.6064   21.1745 H   0  0  0  0  0  0  0  0  0  0  0  0
   10.0841   -0.4148   19.9048 H   0  0  0  0  0  0  0  0  0  0  0  0
    9.1751    1.0904   20.1983 H   0  0  0  0  0  0  0  0  0  0  0  0
   10.4455    1.9121   22.3566 C   0  0  0  0  0  0  0  0  0  0  0  0
    9.5456    2.4918   22.1704 H   0  0  0  0  0  0  0  0  0  0  0  0
   13.6286   -0.1557   23.1782 H   0  0  0  0  0  0  0  0  0  0  0  0
   13.1661    1.9973   24.3992 H   0  0  0  0  0  0  0  0  0  0  0  0
  1  2  1  0
  2  3  2  0
  3  4  1  0
  4  5  2  0
  5  6  1  0
  5  7  1  0
  7  8  1  0
  8  9  1  0
  9 10  2  0
 10 11  1  0
 11 12  1  0
 12 13  1  0
 13 14  1  0
 14 15  1  0
 15 16  1  0
 15 17  1  0
 15 18  1  0
 14 19  1  0
 14 20  1  0
 13 21  1  0
 13 22  1  0
 12 23  1  0
 11 24  2  0
 24 25  1  0
 25 26  1  0
 26 27  2  0
 27 28  1  0
 28 29  2  0
 29 30  1  0
 30 31  2  0
 31 32  1  0
 29 33  1  0
 28 34  1  0
 27 35  1  0
  8 36  1  0
  8 37  1  0
  7 38  2  0
 38 39  1  0
  4 40  1  0
  3 41  1  0
 38  2  1  0
 25  9  1  0
 31 26  1  0
 16 12  1  0
M  END
>  <cnnaffinity>  (1) 
-6.57866

>  <filename>  (1) 
Fc1ccc(Cl)c(Cc2nc(C3CCCO3)nn2-c2cccnc2)c1

$$$$
