
     RDKit          3D

 41 44  0  0  0  0  0  0  0  0999 V2000
   11.1958    3.4492   23.9696 F   0  0  0  0  0  0  0  0  0  0  0  0
   11.4152    2.3021   23.3108 C   0  0  0  0  0  0  0  0  0  0  0  0
   12.5517    1.5573   23.6113 C   0  0  0  0  0  0  0  0  0  0  0  0
   12.7718    0.3623   22.9291 C   0  0  0  0  0  0  0  0  0  0  0  0
   11.8625   -0.0576   21.9527 C   0  0  0  0  0  0  0  0  0  0  0  0
   12.1539   -1.5874   21.1829 Cl  0  0  0  0  0  0  0  0  0  0  0  0
   10.7263    0.7056   21.6324 C   0  0  0  0  0  0  0  0  0  0  0  0
    9.6606    0.2274   20.6729 C   0  0  0  0  0  0  0  0  0  0  0  0
    8.6407   -0.6193   21.3413 C   0  0  0  0  0  0  0  0  0  0  0  0
    8.8543   -1.4499   22.3396 N   0  0  0  0  0  0  0  0  0  0  0  0
    7.6267   -1.9605   22.5767 C   0  0  0  0  0  0  0  0  0  0  0  0
    7.3788   -2.9099   23.7011 C   0  0  0  0  0  0  0  0  0  0  0  0
    6.2765   -3.9494   23.4220 C   0  0  0  0  0  0  0  0  0  0  0  0
    6.6702   -5.1259   24.3191 C   0  0  0  0  0  0  0  0  0  0  0  0
    8.0451   -4.9623   24.6341 O   0  0  0  0  0  0  0  0  0  0  0  0
    8.5903   -3.7890   24.0578 C   0  0  0  0  0  0  0  0  0  0  0  0
    9.2597   -3.3321   24.7971 H   0  0  0  0  0  0  0  0  0  0  0  0
    9.1941   -4.0331   23.1689 H   0  0  0  0  0  0  0  0  0  0  0  0
    6.0936   -5.1402   25.2552 H   0  0  0  0  0  0  0  0  0  0  0  0
    6.5204   -6.0940   23.8219 H   0  0  0  0  0  0  0  0  0  0  0  0
    6.3019   -4.2357   22.3644 H   0  0  0  0  0  0  0  0  0  0  0  0
    5.2765   -3.5689   23.6413 H   0  0  0  0  0  0  0  0  0  0  0  0
    7.1213   -2.3059   24.5794 H   0  0  0  0  0  0  0  0  0  0  0  0
    6.6761   -1.5329   21.7646 N   0  0  0  0  0  0  0  0  0  0  0  0
    7.3394   -0.6902   20.9343 N   0  0  0  0  0  0  0  0  0  0  0  0
    6.6509   -0.0016   19.9016 C   0  0  0  0  0  0  0  0  0  0  0  0
    5.4368    0.6416   20.1661 C   0  0  0  0  0  0  0  0  0  0  0  0
    4.8125    1.3101   19.1106 C   0  0  0  0  0  0  0  0  0  0  0  0
    5.4000    1.2951   17.8387 C   0  0  0  0  0  0  0  0  0  0  0  0
    6.5588    0.6718   17.5785 N   0  0  0  0  0  0  0  0  0  0  0  0
    7.1659    0.0489   18.5937 C   0  0  0  0  0  0  0  0  0  0  0  0
    8.1142   -0.4299   18.3634 H   0  0  0  0  0  0  0  0  0  0  0  0
    4.9221    1.7851   16.9943 H   0  0  0  0  0  0  0  0  0  0  0  0
    3.8812    1.8401   19.2602 H   0  0  0  0  0  0  0  0  0  0  0  0
    5.0168    0.6097   21.1749 H   0  0  0  0  0  0  0  0  0  0  0  0
    9.1763    1.0932   20.2153 H   0  0  0  0  0  0  0  0  0  0  0  0
   10.0694   -0.4073   19.8827 H   0  0  0  0  0  0  0  0  0  0  0  0
   10.5031    1.8928   22.3434 C   0  0  0  0  0  0  0  0  0  0  0  0
    9.6187    2.4976   22.1622 H   0  0  0  0  0  0  0  0  0  0  0  0
   13.6385   -0.2549   23.1419 H   0  0  0  0  0  0  0  0  0  0  0  0
   13.2445    1.9143   24.3619 H   0  0  0  0  0  0  0  0  0  0  0  0
  1  2  1  0
  2  3  2  0
  3  4  1  0
  4  5  2  0
  5  6  1  0
  5  7  1  0
  7  8  1  0
  8  9  1  0
  9 10  2  0
 10 11  1  0
 11 12  1  0
 12 13  1  0
 13 14  1  0
 14 15  1  0
 15 16  1  0
 16 17  1  0
 16 18  1  0
 14 19  1  0
 14 20  1  0
 13 21  1  0
 13 22  1  0
 12 23  1  0
 11 24  2  0
 24 25  1  0
 25 26  1  0
 26 27  2  0
 27 28  1  0
 28 29  2  0
 29 30  1  0
 30 31  2  0
 31 32  1  0
 29 33  1  0
 28 34  1  0
 27 35  1  0
  8 36  1  0
  8 37  1  0
  7 38  2  0
 38 39  1  0
  4 40  1  0
  3 41  1  0
 38  2  1  0
 25  9  1  0
 31 26  1  0
 16 12  1  0
M  END
>  <cnnaffinity>  (1) 
-6.78411

>  <filename>  (1) 
Fc1ccc(Cl)c(Cc2nc(C3CCOC3)nn2-c2cccnc2)c1

$$$$
