
     RDKit          3D

 43 46  0  0  0  0  0  0  0  0999 V2000
    4.7058    2.2050   27.3038 F   0  0  0  0  0  0  0  0  0  0  0  0
    5.8881    2.4924   26.7431 C   0  0  0  0  0  0  0  0  0  0  0  0
    6.7119    3.4249   27.3663 C   0  0  0  0  0  0  0  0  0  0  0  0
    7.9110    3.7355   26.7322 C   0  0  0  0  0  0  0  0  0  0  0  0
    8.6746    4.7135   27.2351 F   0  0  0  0  0  0  0  0  0  0  0  0
    8.3288    3.1071   25.5674 C   0  0  0  0  0  0  0  0  0  0  0  0
    7.4699    2.1705   24.9540 C   0  0  0  0  0  0  0  0  0  0  0  0
    7.8567    1.5257   23.6734 C   0  0  0  0  0  0  0  0  0  0  0  0
    7.1587    0.5514   23.1101 N   0  0  0  0  0  0  0  0  0  0  0  0
    7.8893    0.2407   22.0192 N   0  0  0  0  0  0  0  0  0  0  0  0
    7.3832   -0.6899   21.0197 C   0  0  0  0  0  0  0  0  0  0  0  0
    6.6503   -0.0033   19.8829 C   0  0  0  0  0  0  0  0  0  0  0  0
    5.4383    0.6476   20.1378 C   0  0  0  0  0  0  0  0  0  0  0  0
    4.7987    1.3083   19.0864 C   0  0  0  0  0  0  0  0  0  0  0  0
    5.3933    1.2989   17.8207 C   0  0  0  0  0  0  0  0  0  0  0  0
    6.5529    0.6782   17.5576 N   0  0  0  0  0  0  0  0  0  0  0  0
    7.1581    0.0537   18.5756 C   0  0  0  0  0  0  0  0  0  0  0  0
    8.1051   -0.4301   18.3290 H   0  0  0  0  0  0  0  0  0  0  0  0
    4.9228    1.8064   16.9794 H   0  0  0  0  0  0  0  0  0  0  0  0
    3.8704    1.8452   19.2369 H   0  0  0  0  0  0  0  0  0  0  0  0
    5.0301    0.6433   21.1511 H   0  0  0  0  0  0  0  0  0  0  0  0
    6.7233   -1.3632   21.5736 H   0  0  0  0  0  0  0  0  0  0  0  0
    8.2259   -1.2793   20.6409 H   0  0  0  0  0  0  0  0  0  0  0  0
    8.9792    1.0364   21.9682 C   0  0  0  0  0  0  0  0  0  0  0  0
   10.0655    0.8469   20.9696 C   0  0  0  0  0  0  0  0  0  0  0  0
   11.0382   -0.3108   21.3350 C   0  0  0  0  0  0  0  0  0  0  0  0
   11.8083   -0.0135   22.5931 C   0  0  0  0  0  0  0  0  0  0  0  0
   12.9095    0.7986   22.7930 C   0  0  0  0  0  0  0  0  0  0  0  0
   13.0839    0.8414   24.1857 C   0  0  0  0  0  0  0  0  0  0  0  0
   12.1675    0.1222   24.8255 N   0  0  0  0  0  0  0  0  0  0  0  0
   11.4097   -0.3824   23.8399 N   0  0  0  0  0  0  0  0  0  0  0  0
   10.5896   -0.9276   24.0831 H   0  0  0  0  0  0  0  0  0  0  0  0
   13.8376    1.3645   24.7427 H   0  0  0  0  0  0  0  0  0  0  0  0
   13.4881    1.3331   22.0511 H   0  0  0  0  0  0  0  0  0  0  0  0
   11.7573   -0.4760   20.5315 H   0  0  0  0  0  0  0  0  0  0  0  0
   10.4962   -1.2614   21.4328 H   0  0  0  0  0  0  0  0  0  0  0  0
    9.6046    0.6845   19.9918 H   0  0  0  0  0  0  0  0  0  0  0  0
   10.6093    1.7934   20.9095 H   0  0  0  0  0  0  0  0  0  0  0  0
    8.9781    1.8726   22.9844 N   0  0  0  0  0  0  0  0  0  0  0  0
    6.2295    1.8647   25.5534 C   0  0  0  0  0  0  0  0  0  0  0  0
    5.5392    1.1561   25.1057 H   0  0  0  0  0  0  0  0  0  0  0  0
    9.2955    3.3748   25.1518 H   0  0  0  0  0  0  0  0  0  0  0  0
    6.4212    3.8995   28.2914 H   0  0  0  0  0  0  0  0  0  0  0  0
  1  2  1  0
  2  3  2  0
  3  4  1  0
  4  5  1  0
  4  6  2  0
  6  7  1  0
  7  8  1  0
  8  9  2  0
  9 10  1  0
 10 11  1  0
 11 12  1  0
 12 13  2  0
 13 14  1  0
 14 15  2  0
 15 16  1  0
 16 17  2  0
 17 18  1  0
 15 19  1  0
 14 20  1  0
 13 21  1  0
 11 22  1  0
 11 23  1  0
 10 24  1  0
 24 25  1  0
 25 26  1  0
 26 27  1  0
 27 28  2  0
 28 29  1  0
 29 30  2  0
 30 31  1  0
 31 32  1  0
 29 33  1  0
 28 34  1  0
 26 35  1  0
 26 36  1  0
 25 37  1  0
 25 38  1  0
 24 39  2  0
  7 40  2  0
 40 41  1  0
  6 42  1  0
  3 43  1  0
 40  2  1  0
 39  8  1  0
 17 12  1  0
 31 27  1  0
M  END
>  <cnnaffinity>  (1) 
-5.6982

>  <filename>  (1) 
Fc1cc(F)cc(-c2nc(CCc3ccn[nH]3)n(Cc3cccnc3)n2)c1

$$$$
