
     RDKit          3D

 33 35  0  0  0  0  0  0  0  0999 V2000
    4.9148    1.7881   16.9935 H   0  0  0  0  0  0  0  0  0  0  0  0
    5.3955    1.2975   17.8366 C   0  0  0  0  0  0  0  0  0  0  0  0
    6.5587    0.6817   17.5707 N   0  0  0  0  0  0  0  0  0  0  0  0
    7.1707    0.0589   18.5883 C   0  0  0  0  0  0  0  0  0  0  0  0
    8.1199   -0.4283   18.3729 H   0  0  0  0  0  0  0  0  0  0  0  0
    6.6621   -0.0155   19.9097 C   0  0  0  0  0  0  0  0  0  0  0  0
    7.3271   -0.7153   20.9230 N   0  0  0  0  0  0  0  0  0  0  0  0
    6.7727   -1.1247   21.6630 H   0  0  0  0  0  0  0  0  0  0  0  0
    8.7080   -0.6917   21.1448 C   0  0  0  0  0  0  0  0  0  0  0  0
    9.6826    0.2129   20.6652 C   0  0  0  0  0  0  0  0  0  0  0  0
    9.5113    1.0341   19.9926 H   0  0  0  0  0  0  0  0  0  0  0  0
   10.8963   -0.0596   21.1290 N   0  0  0  0  0  0  0  0  0  0  0  0
   10.7039   -1.1429   21.8956 N   0  0  0  0  0  0  0  0  0  0  0  0
   11.5016   -1.5259   22.3782 H   0  0  0  0  0  0  0  0  0  0  0  0
    9.4149   -1.5734   21.9381 C   0  0  0  0  0  0  0  0  0  0  0  0
    8.9355   -2.6703   22.8253 C   0  0  0  0  0  0  0  0  0  0  0  0
    8.0842   -3.1584   22.3394 H   0  0  0  0  0  0  0  0  0  0  0  0
    9.7138   -3.4362   22.9334 H   0  0  0  0  0  0  0  0  0  0  0  0
    8.5262   -2.1348   24.1879 C   0  0  0  0  0  0  0  0  0  0  0  0
    9.5138   -1.7760   25.1155 C   0  0  0  0  0  0  0  0  0  0  0  0
   10.5574   -1.9072   24.8461 H   0  0  0  0  0  0  0  0  0  0  0  0
    9.1671   -1.2543   26.3653 C   0  0  0  0  0  0  0  0  0  0  0  0
    9.9410   -0.9883   27.0811 H   0  0  0  0  0  0  0  0  0  0  0  0
    7.8225   -1.0760   26.7011 C   0  0  0  0  0  0  0  0  0  0  0  0
    7.5162   -0.6776   27.6637 H   0  0  0  0  0  0  0  0  0  0  0  0
    6.8537   -1.4182   25.7612 C   0  0  0  0  0  0  0  0  0  0  0  0
    5.5575   -1.2525   26.0742 F   0  0  0  0  0  0  0  0  0  0  0  0
    7.1798   -1.9354   24.5084 C   0  0  0  0  0  0  0  0  0  0  0  0
    6.3764   -2.1856   23.8191 H   0  0  0  0  0  0  0  0  0  0  0  0
    5.4411    0.6296   20.1626 C   0  0  0  0  0  0  0  0  0  0  0  0
    5.0210    0.6224   21.1692 H   0  0  0  0  0  0  0  0  0  0  0  0
    4.8122    1.3046   19.1083 C   0  0  0  0  0  0  0  0  0  0  0  0
    3.8835    1.8366   19.2634 H   0  0  0  0  0  0  0  0  0  0  0  0
  1  2  1  0
  2  3  2  0
  3  4  1  0
  4  5  1  0
  4  6  2  0
  6  7  1  0
  7  8  1  0
  7  9  1  0
  9 10  1  0
 10 11  1  0
 10 12  2  0
 12 13  1  0
 13 14  1  0
 13 15  1  0
 15 16  1  0
 16 17  1  0
 16 18  1  0
 16 19  1  0
 19 20  2  0
 20 21  1  0
 20 22  1  0
 22 23  1  0
 22 24  2  0
 24 25  1  0
 24 26  1  0
 26 27  1  0
 26 28  2  0
 28 29  1  0
  6 30  1  0
 30 31  1  0
 30 32  2  0
 32 33  1  0
 32  2  1  0
 15  9  2  0
 28 19  1  0
M  END
>  <cnnaffinity>  (1) 
-5.63964

>  <filename>  (1) 
Fc1cccc(Cc2[nH]ncc2Nc2cccnc2)c1

$$$$
