
     RDKit          3D

 45 49  0  0  0  0  0  0  0  0999 V2000
    5.9942    7.0301   23.5514 F   0  0  0  0  0  0  0  0  0  0  0  0
    6.5190    5.8983   23.0490 C   0  0  0  0  0  0  0  0  0  0  0  0
    7.7564    5.4628   23.5077 C   0  0  0  0  0  0  0  0  0  0  0  0
    8.3050    4.2858   22.9813 C   0  0  0  0  0  0  0  0  0  0  0  0
    7.6071    3.5533   22.0076 C   0  0  0  0  0  0  0  0  0  0  0  0
    8.0537    2.4000   21.4349 O   0  0  0  0  0  0  0  0  0  0  0  0
    9.3405    1.9156   21.7796 C   0  0  0  0  0  0  0  0  0  0  0  0
    9.5429    0.6216   21.0023 C   0  0  0  0  0  0  0  0  0  0  0  0
    8.5989   -0.4446   21.4331 C   0  0  0  0  0  0  0  0  0  0  0  0
    8.8227   -1.2695   22.4389 N   0  0  0  0  0  0  0  0  0  0  0  0
    7.6655   -1.9759   22.5122 C   0  0  0  0  0  0  0  0  0  0  0  0
    7.3089   -2.9945   23.5381 C   0  0  0  0  0  0  0  0  0  0  0  0
    6.9425   -4.3587   23.0618 C   0  0  0  0  0  0  0  0  0  0  0  0
    8.1372   -4.2098   24.0477 C   0  0  0  0  0  0  0  0  0  0  0  0
    8.6795   -5.4243   24.7993 C   0  0  0  0  0  0  0  0  0  0  0  0
    8.9606   -4.0476   25.3163 C   0  0  0  0  0  0  0  0  0  0  0  0
    8.4542   -3.6869   26.2177 H   0  0  0  0  0  0  0  0  0  0  0  0
    9.9875   -3.6952   25.2138 H   0  0  0  0  0  0  0  0  0  0  0  0
    9.5197   -5.9612   24.3660 H   0  0  0  0  0  0  0  0  0  0  0  0
    7.9487   -6.0491   25.3196 H   0  0  0  0  0  0  0  0  0  0  0  0
    6.0471   -4.8770   23.4230 H   0  0  0  0  0  0  0  0  0  0  0  0
    7.1629   -4.5629   22.0156 H   0  0  0  0  0  0  0  0  0  0  0  0
    6.6889   -2.5439   24.3133 H   0  0  0  0  0  0  0  0  0  0  0  0
    6.7436   -1.6307   21.6267 N   0  0  0  0  0  0  0  0  0  0  0  0
    7.3543   -0.6508   20.9185 N   0  0  0  0  0  0  0  0  0  0  0  0
    6.6606    0.0207   19.8708 C   0  0  0  0  0  0  0  0  0  0  0  0
    5.4359    0.6435   20.1331 C   0  0  0  0  0  0  0  0  0  0  0  0
    4.7957    1.3083   19.0825 C   0  0  0  0  0  0  0  0  0  0  0  0
    5.3868    1.3008   17.8148 C   0  0  0  0  0  0  0  0  0  0  0  0
    6.5386    0.6662   17.5447 N   0  0  0  0  0  0  0  0  0  0  0  0
    7.1582    0.0475   18.5587 C   0  0  0  0  0  0  0  0  0  0  0  0
    8.0951   -0.4574   18.3177 H   0  0  0  0  0  0  0  0  0  0  0  0
    4.9169    1.8219   16.9840 H   0  0  0  0  0  0  0  0  0  0  0  0
    3.8649    1.8462   19.2388 H   0  0  0  0  0  0  0  0  0  0  0  0
    5.0219    0.6077   21.1415 H   0  0  0  0  0  0  0  0  0  0  0  0
   10.5551    0.2544   21.1748 H   0  0  0  0  0  0  0  0  0  0  0  0
    9.4307    0.8222   19.9372 H   0  0  0  0  0  0  0  0  0  0  0  0
   10.1074    2.6617   21.5230 H   0  0  0  0  0  0  0  0  0  0  0  0
    9.3880    1.7194   22.8606 H   0  0  0  0  0  0  0  0  0  0  0  0
    6.3576    4.0131   21.5624 C   0  0  0  0  0  0  0  0  0  0  0  0
    5.8121    5.1910   22.0780 C   0  0  0  0  0  0  0  0  0  0  0  0
    4.8589    5.5775   21.7287 H   0  0  0  0  0  0  0  0  0  0  0  0
    5.8515    3.4409   20.7916 H   0  0  0  0  0  0  0  0  0  0  0  0
    9.2786    3.9449   23.3167 H   0  0  0  0  0  0  0  0  0  0  0  0
    8.2783    6.0481   24.2589 H   0  0  0  0  0  0  0  0  0  0  0  0
  1  2  1  0
  2  3  2  0
  3  4  1  0
  4  5  2  0
  5  6  1  0
  6  7  1  0
  7  8  1  0
  8  9  1  0
  9 10  2  0
 10 11  1  0
 11 12  1  0
 12 13  1  0
 13 14  1  0
 14 15  1  0
 15 16  1  0
 16 17  1  0
 16 18  1  0
 15 19  1  0
 15 20  1  0
 13 21  1  0
 13 22  1  0
 12 23  1  0
 11 24  2  0
 24 25  1  0
 25 26  1  0
 26 27  2  0
 27 28  1  0
 28 29  2  0
 29 30  1  0
 30 31  2  0
 31 32  1  0
 29 33  1  0
 28 34  1  0
 27 35  1  0
  8 36  1  0
  8 37  1  0
  7 38  1  0
  7 39  1  0
  5 40  1  0
 40 41  2  0
 41 42  1  0
 40 43  1  0
  4 44  1  0
  3 45  1  0
 41  2  1  0
 25  9  1  0
 31 26  1  0
 14 12  1  0
 16 14  1  0
M  END
>  <cnnaffinity>  (1) 
-6.13684

>  <filename>  (1) 
Fc1ccc(OCCc2nc(C3CC34CC4)nn2-c2cccnc2)cc1

$$$$
