
     RDKit          3D

 45 49  0  0  0  0  0  0  0  0999 V2000
    7.2408    6.1157   26.1419 F   0  0  0  0  0  0  0  0  0  0  0  0
    7.6983    5.1694   25.3097 C   0  0  0  0  0  0  0  0  0  0  0  0
    7.7897    5.4113   23.9472 C   0  0  0  0  0  0  0  0  0  0  0  0
    8.2740    4.4170   23.0815 C   0  0  0  0  0  0  0  0  0  0  0  0
    8.6578    3.1768   23.6048 C   0  0  0  0  0  0  0  0  0  0  0  0
    9.1426    2.1349   22.8872 O   0  0  0  0  0  0  0  0  0  0  0  0
    9.0769    2.1144   21.4704 C   0  0  0  0  0  0  0  0  0  0  0  0
    9.3266    0.6679   21.0393 C   0  0  0  0  0  0  0  0  0  0  0  0
    8.2932   -0.3140   21.4795 C   0  0  0  0  0  0  0  0  0  0  0  0
    8.4725   -1.1657   22.4581 N   0  0  0  0  0  0  0  0  0  0  0  0
    7.3059   -1.8627   22.4926 C   0  0  0  0  0  0  0  0  0  0  0  0
    7.1840   -2.9130   23.5199 C   0  0  0  0  0  0  0  0  0  0  0  0
    5.9724   -3.7917   23.7806 C   0  0  0  0  0  0  0  0  0  0  0  0
    7.2344   -4.3819   23.2002 C   0  0  0  0  0  0  0  0  0  0  0  0
    7.6034   -5.1745   21.9980 C   0  0  0  0  0  0  0  0  0  0  0  0
    8.3307   -5.3750   23.3287 C   0  0  0  0  0  0  0  0  0  0  0  0
    9.3418   -4.9789   23.4633 H   0  0  0  0  0  0  0  0  0  0  0  0
    8.1413   -6.3018   23.8610 H   0  0  0  0  0  0  0  0  0  0  0  0
    8.0678   -4.6297   21.1765 H   0  0  0  0  0  0  0  0  0  0  0  0
    6.9170   -5.9663   21.6897 H   0  0  0  0  0  0  0  0  0  0  0  0
    5.7066   -3.9895   24.8192 H   0  0  0  0  0  0  0  0  0  0  0  0
    5.1307   -3.7425   23.0897 H   0  0  0  0  0  0  0  0  0  0  0  0
    7.8005   -2.6523   24.3803 H   0  0  0  0  0  0  0  0  0  0  0  0
    6.4163   -1.4973   21.5886 N   0  0  0  0  0  0  0  0  0  0  0  0
    7.0556   -0.4929   20.9230 N   0  0  0  0  0  0  0  0  0  0  0  0
    6.4555    0.1639   19.7974 C   0  0  0  0  0  0  0  0  0  0  0  0
    5.2563    0.8780   19.9205 C   0  0  0  0  0  0  0  0  0  0  0  0
    4.7697    1.5390   18.7847 C   0  0  0  0  0  0  0  0  0  0  0  0
    5.4705    1.4444   17.5791 C   0  0  0  0  0  0  0  0  0  0  0  0
    6.5977    0.7319   17.4419 N   0  0  0  0  0  0  0  0  0  0  0  0
    7.0659    0.1096   18.5289 C   0  0  0  0  0  0  0  0  0  0  0  0
    7.9834   -0.4577   18.3886 H   0  0  0  0  0  0  0  0  0  0  0  0
    5.1140    1.9429   16.6812 H   0  0  0  0  0  0  0  0  0  0  0  0
    3.8654    2.1356   18.8246 H   0  0  0  0  0  0  0  0  0  0  0  0
    4.7335    0.9204   20.8763 H   0  0  0  0  0  0  0  0  0  0  0  0
   10.2584    0.3253   21.4954 H   0  0  0  0  0  0  0  0  0  0  0  0
    9.4382    0.6267   19.9534 H   0  0  0  0  0  0  0  0  0  0  0  0
    9.8630    2.7667   21.0675 H   0  0  0  0  0  0  0  0  0  0  0  0
    8.0993    2.4772   21.1205 H   0  0  0  0  0  0  0  0  0  0  0  0
    8.5691    2.9308   24.9846 C   0  0  0  0  0  0  0  0  0  0  0  0
    8.0883    3.9210   25.8208 C   0  0  0  0  0  0  0  0  0  0  0  0
    7.9908    3.6848   27.1343 F   0  0  0  0  0  0  0  0  0  0  0  0
    8.8720    1.9719   25.3902 H   0  0  0  0  0  0  0  0  0  0  0  0
    8.3573    4.6057   22.0152 H   0  0  0  0  0  0  0  0  0  0  0  0
    7.4714    6.3789   23.5724 H   0  0  0  0  0  0  0  0  0  0  0  0
  1  2  1  0
  2  3  2  0
  3  4  1  0
  4  5  2  0
  5  6  1  0
  6  7  1  0
  7  8  1  0
  8  9  1  0
  9 10  2  0
 10 11  1  0
 11 12  1  0
 12 13  1  0
 13 14  1  0
 14 15  1  0
 15 16  1  0
 16 17  1  0
 16 18  1  0
 15 19  1  0
 15 20  1  0
 13 21  1  0
 13 22  1  0
 12 23  1  0
 11 24  2  0
 24 25  1  0
 25 26  1  0
 26 27  2  0
 27 28  1  0
 28 29  2  0
 29 30  1  0
 30 31  2  0
 31 32  1  0
 29 33  1  0
 28 34  1  0
 27 35  1  0
  8 36  1  0
  8 37  1  0
  7 38  1  0
  7 39  1  0
  5 40  1  0
 40 41  2  0
 41 42  1  0
 40 43  1  0
  4 44  1  0
  3 45  1  0
 41  2  1  0
 25  9  1  0
 31 26  1  0
 14 12  1  0
 16 14  1  0
M  END
>  <cnnaffinity>  (1) 
-6.05154

>  <filename>  (1) 
Fc1ccc(OCCc2nc(C3CC34CC4)nn2-c2cccnc2)cc1F

$$$$
