
     RDKit          3D

 39 42  0  0  0  0  0  0  0  0999 V2000
   12.9614    1.9616   24.1584 F   0  0  0  0  0  0  0  0  0  0  0  0
   12.1322    1.5138   23.2061 C   0  0  0  0  0  0  0  0  0  0  0  0
   12.5084    0.3941   22.4713 C   0  0  0  0  0  0  0  0  0  0  0  0
   11.6211   -0.0902   21.5061 C   0  0  0  0  0  0  0  0  0  0  0  0
   10.4093    0.5585   21.2694 C   0  0  0  0  0  0  0  0  0  0  0  0
   10.0516    1.6878   22.0192 C   0  0  0  0  0  0  0  0  0  0  0  0
    8.4679    2.4748   21.7538 S   0  0  0  0  0  0  0  0  0  0  0  0
    7.3753    1.3653   22.7319 C   0  0  0  0  0  0  0  0  0  0  0  0
    7.4405   -0.0681   22.2945 C   0  0  0  0  0  0  0  0  0  0  0  0
    7.9567   -1.0199   23.0476 N   0  0  0  0  0  0  0  0  0  0  0  0
    8.2438   -1.9904   22.1477 C   0  0  0  0  0  0  0  0  0  0  0  0
    9.0757   -3.1723   22.4871 C   0  0  0  0  0  0  0  0  0  0  0  0
    8.6571   -4.0072   23.7217 C   0  0  0  0  0  0  0  0  0  0  0  0
   10.3144   -3.8333   24.4696 S   0  0  0  0  0  0  0  0  0  0  0  0
   10.5001   -2.7919   22.9889 C   0  0  0  0  0  0  0  0  0  0  0  0
   11.3414   -3.0722   22.3432 H   0  0  0  0  0  0  0  0  0  0  0  0
   10.5794   -1.7353   23.2656 H   0  0  0  0  0  0  0  0  0  0  0  0
    8.3951   -5.0447   23.4893 H   0  0  0  0  0  0  0  0  0  0  0  0
    7.8679   -3.5667   24.3416 H   0  0  0  0  0  0  0  0  0  0  0  0
    9.0689   -3.7635   21.5766 H   0  0  0  0  0  0  0  0  0  0  0  0
    7.8934   -1.7338   20.9083 N   0  0  0  0  0  0  0  0  0  0  0  0
    7.3234   -0.5030   21.0080 N   0  0  0  0  0  0  0  0  0  0  0  0
    6.6261    0.0613   19.9067 C   0  0  0  0  0  0  0  0  0  0  0  0
    5.3972    0.6936   20.1101 C   0  0  0  0  0  0  0  0  0  0  0  0
    4.8015    1.3266   19.0189 C   0  0  0  0  0  0  0  0  0  0  0  0
    5.4363    1.2792   17.7738 C   0  0  0  0  0  0  0  0  0  0  0  0
    6.5753    0.5941   17.5583 N   0  0  0  0  0  0  0  0  0  0  0  0
    7.1447   -0.0199   18.6026 C   0  0  0  0  0  0  0  0  0  0  0  0
    8.0475   -0.5982   18.4005 H   0  0  0  0  0  0  0  0  0  0  0  0
    5.0124    1.8017   16.9192 H   0  0  0  0  0  0  0  0  0  0  0  0
    3.8703    1.8671   19.1396 H   0  0  0  0  0  0  0  0  0  0  0  0
    4.9263    0.6680   21.0936 H   0  0  0  0  0  0  0  0  0  0  0  0
    6.3694    1.7861   22.6901 H   0  0  0  0  0  0  0  0  0  0  0  0
    7.7110    1.3820   23.7680 H   0  0  0  0  0  0  0  0  0  0  0  0
   10.9221    2.1731   23.0034 C   0  0  0  0  0  0  0  0  0  0  0  0
   10.6706    3.0375   23.6071 H   0  0  0  0  0  0  0  0  0  0  0  0
    9.7145    0.1707   20.5322 H   0  0  0  0  0  0  0  0  0  0  0  0
   11.8650   -0.9940   20.9508 H   0  0  0  0  0  0  0  0  0  0  0  0
   13.4603   -0.0803   22.6821 H   0  0  0  0  0  0  0  0  0  0  0  0
  1  2  1  0
  2  3  2  0
  3  4  1  0
  4  5  2  0
  5  6  1  0
  6  7  1  0
  7  8  1  0
  8  9  1  0
  9 10  2  0
 10 11  1  0
 11 12  1  0
 12 13  1  0
 13 14  1  0
 14 15  1  0
 15 16  1  0
 15 17  1  0
 13 18  1  0
 13 19  1  0
 12 20  1  0
 11 21  2  0
 21 22  1  0
 22 23  1  0
 23 24  2  0
 24 25  1  0
 25 26  2  0
 26 27  1  0
 27 28  2  0
 28 29  1  0
 26 30  1  0
 25 31  1  0
 24 32  1  0
  8 33  1  0
  8 34  1  0
  6 35  2  0
 35 36  1  0
  5 37  1  0
  4 38  1  0
  3 39  1  0
 35  2  1  0
 22  9  1  0
 28 23  1  0
 15 12  1  0
M  END
>  <cnnaffinity>  (1) 
-6.37085

>  <filename>  (1) 
Fc1cccc(SCc2nc(C3CSC3)nn2-c2cccnc2)c1

$$$$
