
     RDKit          3D

 50 53  0  0  0  0  0  0  0  0999 V2000
    8.6160    3.3616   21.0875 F   0  0  0  0  0  0  0  0  0  0  0  0
    8.4403    2.4793   22.1448 C   0  0  0  0  0  0  0  0  0  0  0  0
    8.1822    3.3185   23.3961 C   0  0  0  0  0  0  0  0  0  0  0  0
    9.5214    3.8005   23.9559 C   0  0  0  0  0  0  0  0  0  0  0  0
   10.4060    2.6187   24.4158 C   0  0  0  0  0  0  0  0  0  0  0  0
   10.1674    1.3032   23.6103 C   0  0  0  0  0  0  0  0  0  0  0  0
    9.7270    1.6273   22.1667 C   0  0  0  0  0  0  0  0  0  0  0  0
    9.6374    0.4795   21.1201 C   0  0  0  0  0  0  0  0  0  0  0  0
    8.6446   -0.5953   21.4150 C   0  0  0  0  0  0  0  0  0  0  0  0
    8.8590   -1.5108   22.3394 N   0  0  0  0  0  0  0  0  0  0  0  0
    7.6598   -2.1324   22.4676 C   0  0  0  0  0  0  0  0  0  0  0  0
    7.4039   -3.1707   23.5398 C   0  0  0  0  0  0  0  0  0  0  0  0
    8.5396   -4.2239   23.6497 C   0  0  0  0  0  0  0  0  0  0  0  0
    9.7575   -3.7097   24.4328 C   0  0  0  0  0  0  0  0  0  0  0  0
    9.3824   -3.2039   25.7089 O   0  0  0  0  0  0  0  0  0  0  0  0
    8.4686   -2.1192   25.6314 C   0  0  0  0  0  0  0  0  0  0  0  0
    7.1629   -2.5366   24.9439 C   0  0  0  0  0  0  0  0  0  0  0  0
    6.4795   -1.6806   24.8710 H   0  0  0  0  0  0  0  0  0  0  0  0
    6.6780   -3.2862   25.5822 H   0  0  0  0  0  0  0  0  0  0  0  0
    8.9252   -1.2644   25.1018 H   0  0  0  0  0  0  0  0  0  0  0  0
    8.2703   -1.8124   26.6644 H   0  0  0  0  0  0  0  0  0  0  0  0
   10.4529   -4.5344   24.6270 H   0  0  0  0  0  0  0  0  0  0  0  0
   10.2814   -2.9346   23.8542 H   0  0  0  0  0  0  0  0  0  0  0  0
    8.8527   -4.5565   22.6533 H   0  0  0  0  0  0  0  0  0  0  0  0
    8.1489   -5.1032   24.1792 H   0  0  0  0  0  0  0  0  0  0  0  0
    6.4804   -3.6664   23.2284 H   0  0  0  0  0  0  0  0  0  0  0  0
    6.7275   -1.6982   21.6454 N   0  0  0  0  0  0  0  0  0  0  0  0
    7.3694   -0.7253   20.9330 N   0  0  0  0  0  0  0  0  0  0  0  0
    6.6762   -0.0485   19.8807 C   0  0  0  0  0  0  0  0  0  0  0  0
    5.4629    0.5969   20.1448 C   0  0  0  0  0  0  0  0  0  0  0  0
    4.8402    1.2963   19.1068 C   0  0  0  0  0  0  0  0  0  0  0  0
    5.4292    1.3017   17.8375 C   0  0  0  0  0  0  0  0  0  0  0  0
    6.5674    0.6475   17.5620 N   0  0  0  0  0  0  0  0  0  0  0  0
    7.1683   -0.0121   18.5620 C   0  0  0  0  0  0  0  0  0  0  0  0
    8.0758   -0.5486   18.2950 H   0  0  0  0  0  0  0  0  0  0  0  0
    4.9650    1.8399   17.0122 H   0  0  0  0  0  0  0  0  0  0  0  0
    3.9145    1.8374   19.2692 H   0  0  0  0  0  0  0  0  0  0  0  0
    5.0245    0.5403   21.1422 H   0  0  0  0  0  0  0  0  0  0  0  0
    9.4046    0.9257   20.1499 H   0  0  0  0  0  0  0  0  0  0  0  0
   10.6143   -0.0040   21.0182 H   0  0  0  0  0  0  0  0  0  0  0  0
   10.5038    2.2973   21.7769 H   0  0  0  0  0  0  0  0  0  0  0  0
   11.0958    0.7196   23.6222 H   0  0  0  0  0  0  0  0  0  0  0  0
    9.3975    0.6952   24.1119 H   0  0  0  0  0  0  0  0  0  0  0  0
   10.2135    2.4200   25.4758 H   0  0  0  0  0  0  0  0  0  0  0  0
   11.4556    2.9301   24.3209 H   0  0  0  0  0  0  0  0  0  0  0  0
   10.0301    4.3238   23.1388 H   0  0  0  0  0  0  0  0  0  0  0  0
    9.3820    4.5456   24.7435 H   0  0  0  0  0  0  0  0  0  0  0  0
    7.5384    4.1605   23.1230 H   0  0  0  0  0  0  0  0  0  0  0  0
    7.6204    2.7267   24.1296 H   0  0  0  0  0  0  0  0  0  0  0  0
    7.5579    1.8794   21.8895 H   0  0  0  0  0  0  0  0  0  0  0  0
  1  2  1  0
  2  3  1  0
  3  4  1  0
  4  5  1  0
  5  6  1  0
  6  7  1  0
  7  8  1  0
  8  9  1  0
  9 10  2  0
 10 11  1  0
 11 12  1  0
 12 13  1  0
 13 14  1  0
 14 15  1  0
 15 16  1  0
 16 17  1  0
 17 18  1  0
 17 19  1  0
 16 20  1  0
 16 21  1  0
 14 22  1  0
 14 23  1  0
 13 24  1  0
 13 25  1  0
 12 26  1  0
 11 27  2  0
 27 28  1  0
 28 29  1  0
 29 30  2  0
 30 31  1  0
 31 32  2  0
 32 33  1  0
 33 34  2  0
 34 35  1  0
 32 36  1  0
 31 37  1  0
 30 38  1  0
  8 39  1  0
  8 40  1  0
  7 41  1  0
  6 42  1  0
  6 43  1  0
  5 44  1  0
  5 45  1  0
  4 46  1  0
  4 47  1  0
  3 48  1  0
  3 49  1  0
  2 50  1  0
  7  2  1  0
 28  9  1  0
 34 29  1  0
 17 12  1  0
M  END
>  <cnnaffinity>  (1) 
-6.14379

>  <filename>  (1) 
FC1CCCCC1Cc1nc(C2CCOCC2)nn1-c1cccnc1

$$$$
