
     RDKit          3D

 47 50  0  0  0  0  0  0  0  0999 V2000
    7.1732   -5.3287   27.3998 F   0  0  0  0  0  0  0  0  0  0  0  0
    7.5744   -4.2672   26.6992 C   0  0  0  0  0  0  0  0  0  0  0  0
    8.6125   -4.4360   25.7804 C   0  0  0  0  0  0  0  0  0  0  0  0
    9.0152   -3.3159   25.0623 C   0  0  0  0  0  0  0  0  0  0  0  0
    8.3677   -2.0901   25.2914 C   0  0  0  0  0  0  0  0  0  0  0  0
    8.7349   -0.9161   24.5752 N   0  0  0  0  0  0  0  0  0  0  0  0
    8.8487    0.2912   25.1934 N   0  0  0  0  0  0  0  0  0  0  0  0
    9.2533    1.0910   24.2253 C   0  0  0  0  0  0  0  0  0  0  0  0
    9.5276    2.5603   24.4063 C   0  0  0  0  0  0  0  0  0  0  0  0
   11.0179    2.9128   24.1500 C   0  0  0  0  0  0  0  0  0  0  0  0
   11.2724    4.4022   24.1175 C   0  0  0  0  0  0  0  0  0  0  0  0
   10.3075    5.3073   23.9343 C   0  0  0  0  0  0  0  0  0  0  0  0
    8.8469    4.9387   23.8152 C   0  0  0  0  0  0  0  0  0  0  0  0
    8.6244    3.4456   23.5131 C   0  0  0  0  0  0  0  0  0  0  0  0
    8.8518    3.2389   22.4585 H   0  0  0  0  0  0  0  0  0  0  0  0
    7.5682    3.1930   23.6624 H   0  0  0  0  0  0  0  0  0  0  0  0
    8.3499    5.1996   24.7606 H   0  0  0  0  0  0  0  0  0  0  0  0
    8.3585    5.5545   23.0493 H   0  0  0  0  0  0  0  0  0  0  0  0
   10.5617    6.3655   23.8725 H   0  0  0  0  0  0  0  0  0  0  0  0
   12.3052    4.7311   24.2300 H   0  0  0  0  0  0  0  0  0  0  0  0
   11.3299    2.4878   23.1865 H   0  0  0  0  0  0  0  0  0  0  0  0
   11.6554    2.4370   24.9050 H   0  0  0  0  0  0  0  0  0  0  0  0
    9.2938    2.7783   25.4528 H   0  0  0  0  0  0  0  0  0  0  0  0
    9.3891    0.4883   23.0144 N   0  0  0  0  0  0  0  0  0  0  0  0
    9.0214   -0.7513   23.2503 C   0  0  0  0  0  0  0  0  0  0  0  0
    8.9335   -1.8144   22.2122 C   0  0  0  0  0  0  0  0  0  0  0  0
    8.5481   -1.2667   20.8471 C   0  0  0  0  0  0  0  0  0  0  0  0
    7.2658   -0.6439   20.9726 O   0  0  0  0  0  0  0  0  0  0  0  0
    6.6852   -0.0081   19.9169 C   0  0  0  0  0  0  0  0  0  0  0  0
    5.4584    0.6399   20.1693 C   0  0  0  0  0  0  0  0  0  0  0  0
    4.8220    1.2995   19.1150 C   0  0  0  0  0  0  0  0  0  0  0  0
    5.4053    1.2892   17.8406 C   0  0  0  0  0  0  0  0  0  0  0  0
    6.5677    0.6732   17.5854 N   0  0  0  0  0  0  0  0  0  0  0  0
    7.1906    0.0522   18.6016 C   0  0  0  0  0  0  0  0  0  0  0  0
    8.1349   -0.4318   18.3591 H   0  0  0  0  0  0  0  0  0  0  0  0
    4.9162    1.7797   16.9991 H   0  0  0  0  0  0  0  0  0  0  0  0
    3.8884    1.8322   19.2666 H   0  0  0  0  0  0  0  0  0  0  0  0
    5.0335    0.6143   21.1731 H   0  0  0  0  0  0  0  0  0  0  0  0
    8.4823   -2.0897   20.1408 H   0  0  0  0  0  0  0  0  0  0  0  0
    9.3034   -0.5632   20.4753 H   0  0  0  0  0  0  0  0  0  0  0  0
    8.2064   -2.5737   22.5128 H   0  0  0  0  0  0  0  0  0  0  0  0
    9.9021   -2.3214   22.1289 H   0  0  0  0  0  0  0  0  0  0  0  0
    7.3469   -2.0562   26.2500 C   0  0  0  0  0  0  0  0  0  0  0  0
    6.9499   -3.1343   26.9379 N   0  0  0  0  0  0  0  0  0  0  0  0
    6.8234   -1.1315   26.4609 H   0  0  0  0  0  0  0  0  0  0  0  0
    9.8319   -3.3942   24.3503 H   0  0  0  0  0  0  0  0  0  0  0  0
    9.0745   -5.4058   25.6538 H   0  0  0  0  0  0  0  0  0  0  0  0
  1  2  1  0
  2  3  2  0
  3  4  1  0
  4  5  2  0
  5  6  1  0
  6  7  1  0
  7  8  2  0
  8  9  1  0
  9 10  1  0
 10 11  1  0
 11 12  2  0
 12 13  1  0
 13 14  1  0
 14 15  1  0
 14 16  1  0
 13 17  1  0
 13 18  1  0
 12 19  1  0
 11 20  1  0
 10 21  1  0
 10 22  1  0
  9 23  1  0
  8 24  1  0
 24 25  2  0
 25 26  1  0
 26 27  1  0
 27 28  1  0
 28 29  1  0
 29 30  2  0
 30 31  1  0
 31 32  2  0
 32 33  1  0
 33 34  2  0
 34 35  1  0
 32 36  1  0
 31 37  1  0
 30 38  1  0
 27 39  1  0
 27 40  1  0
 26 41  1  0
 26 42  1  0
  5 43  1  0
 43 44  2  0
 43 45  1  0
  4 46  1  0
  3 47  1  0
 44  2  1  0
 25  6  1  0
 34 29  1  0
 14  9  1  0
M  END
>  <cnnaffinity>  (1) 
-6.08557

>  <filename>  (1) 
Fc1ccc(-n2nc(C3CC=CCC3)nc2CCOc2cccnc2)cn1

$$$$
