
     RDKit          3D

 42 45  0  0  0  0  0  0  0  0999 V2000
   14.2481   -1.8418   21.3694 F   0  0  0  0  0  0  0  0  0  0  0  0
   13.4751   -0.8917   21.9097 C   0  0  0  0  0  0  0  0  0  0  0  0
   14.0834    0.1033   22.6689 C   0  0  0  0  0  0  0  0  0  0  0  0
   13.3003    1.0987   23.2448 C   0  0  0  0  0  0  0  0  0  0  0  0
   11.9341    1.1292   22.9934 C   0  0  0  0  0  0  0  0  0  0  0  0
   11.3156    0.1128   22.2415 C   0  0  0  0  0  0  0  0  0  0  0  0
    9.8473    0.1584   22.0849 C   0  0  0  0  0  0  0  0  0  0  0  0
    9.1457   -0.7067   21.3738 N   0  0  0  0  0  0  0  0  0  0  0  0
    7.8679   -0.3260   21.6010 N   0  0  0  0  0  0  0  0  0  0  0  0
    6.7734   -1.0060   20.9236 C   0  0  0  0  0  0  0  0  0  0  0  0
    6.2477   -0.1981   19.7591 C   0  0  0  0  0  0  0  0  0  0  0  0
    5.0242    0.4771   19.7685 C   0  0  0  0  0  0  0  0  0  0  0  0
    4.7178    1.3283   18.7031 C   0  0  0  0  0  0  0  0  0  0  0  0
    5.6300    1.4427   17.6505 C   0  0  0  0  0  0  0  0  0  0  0  0
    6.7940    0.7761   17.6072 N   0  0  0  0  0  0  0  0  0  0  0  0
    7.0843   -0.0122   18.6462 C   0  0  0  0  0  0  0  0  0  0  0  0
    8.0456   -0.5273   18.6057 H   0  0  0  0  0  0  0  0  0  0  0  0
    5.4168    2.0907   16.8010 H   0  0  0  0  0  0  0  0  0  0  0  0
    3.8072    1.9166   18.6927 H   0  0  0  0  0  0  0  0  0  0  0  0
    4.3242    0.3495   20.5974 H   0  0  0  0  0  0  0  0  0  0  0  0
    7.1851   -1.9590   20.5757 H   0  0  0  0  0  0  0  0  0  0  0  0
    5.9832   -1.2283   21.6510 H   0  0  0  0  0  0  0  0  0  0  0  0
    7.8549    0.7648   22.4008 C   0  0  0  0  0  0  0  0  0  0  0  0
    6.6704    1.4361   23.0170 C   0  0  0  0  0  0  0  0  0  0  0  0
    6.6092    1.1549   24.5376 C   0  0  0  0  0  0  0  0  0  0  0  0
    5.6184    1.9888   25.2940 C   0  0  0  0  0  0  0  0  0  0  0  0
    4.3013    1.7508   25.5384 C   0  0  0  0  0  0  0  0  0  0  0  0
    3.6292    2.6790   26.3057 N   0  0  0  0  0  0  0  0  0  0  0  0
    4.4380    3.6338   26.6411 C   0  0  0  0  0  0  0  0  0  0  0  0
    6.0516    3.4851   26.0424 S   0  0  0  0  0  0  0  0  0  0  0  0
    4.1634    4.4725   27.2744 H   0  0  0  0  0  0  0  0  0  0  0  0
    3.7544    0.8906   25.1673 H   0  0  0  0  0  0  0  0  0  0  0  0
    7.6119    1.3062   24.9597 H   0  0  0  0  0  0  0  0  0  0  0  0
    6.3745    0.0947   24.6873 H   0  0  0  0  0  0  0  0  0  0  0  0
    5.7396    1.1441   22.5234 H   0  0  0  0  0  0  0  0  0  0  0  0
    6.7851    2.5114   22.8583 H   0  0  0  0  0  0  0  0  0  0  0  0
    9.0908    1.0845   22.7310 N   0  0  0  0  0  0  0  0  0  0  0  0
   12.1015   -0.9220   21.6917 C   0  0  0  0  0  0  0  0  0  0  0  0
   11.6830   -1.7348   21.1037 H   0  0  0  0  0  0  0  0  0  0  0  0
   11.3259    1.9349   23.3908 H   0  0  0  0  0  0  0  0  0  0  0  0
   13.7611    1.8439   23.8873 H   0  0  0  0  0  0  0  0  0  0  0  0
   15.1477    0.1024   22.7926 H   0  0  0  0  0  0  0  0  0  0  0  0
  1  2  1  0
  2  3  2  0
  3  4  1  0
  4  5  2  0
  5  6  1  0
  6  7  1  0
  7  8  2  0
  8  9  1  0
  9 10  1  0
 10 11  1  0
 11 12  2  0
 12 13  1  0
 13 14  2  0
 14 15  1  0
 15 16  2  0
 16 17  1  0
 14 18  1  0
 13 19  1  0
 12 20  1  0
 10 21  1  0
 10 22  1  0
  9 23  1  0
 23 24  1  0
 24 25  1  0
 25 26  1  0
 26 27  2  0
 27 28  1  0
 28 29  2  0
 29 30  1  0
 29 31  1  0
 27 32  1  0
 25 33  1  0
 25 34  1  0
 24 35  1  0
 24 36  1  0
 23 37  2  0
  6 38  2  0
 38 39  1  0
  5 40  1  0
  4 41  1  0
  3 42  1  0
 38  2  1  0
 37  7  1  0
 16 11  1  0
 30 26  1  0
M  END
>  <cnnaffinity>  (1) 
-6.48372

>  <filename>  (1) 
Fc1cccc(-c2nc(CCc3cncs3)n(Cc3cccnc3)n2)c1

$$$$
