
     RDKit          3D

 44 47  0  0  0  0  0  0  0  0999 V2000
    6.9678    7.4766   23.6648 F   0  0  0  0  0  0  0  0  0  0  0  0
    7.4266    6.2316   23.4554 C   0  0  0  0  0  0  0  0  0  0  0  0
    8.8030    6.0144   23.4581 C   0  0  0  0  0  0  0  0  0  0  0  0
    9.2689    4.7137   23.2496 C   0  0  0  0  0  0  0  0  0  0  0  0
    8.3793    3.6480   23.0511 C   0  0  0  0  0  0  0  0  0  0  0  0
    8.8890    2.2620   22.7598 C   0  0  0  0  0  0  0  0  0  0  0  0
    9.0352    2.0161   21.2521 C   0  0  0  0  0  0  0  0  0  0  0  0
    9.5395    0.6008   20.9262 C   0  0  0  0  0  0  0  0  0  0  0  0
    8.6420   -0.4742   21.4327 C   0  0  0  0  0  0  0  0  0  0  0  0
    8.8695   -1.2927   22.4470 N   0  0  0  0  0  0  0  0  0  0  0  0
    7.6886   -1.9434   22.5783 C   0  0  0  0  0  0  0  0  0  0  0  0
    7.4384   -2.9403   23.6622 C   0  0  0  0  0  0  0  0  0  0  0  0
    6.2817   -2.5542   24.6302 C   0  0  0  0  0  0  0  0  0  0  0  0
    5.3257   -4.0414   24.1760 S   0  0  0  0  0  0  0  0  0  0  0  0
    6.8315   -4.2836   23.1742 C   0  0  0  0  0  0  0  0  0  0  0  0
    7.4011   -5.1701   23.4681 H   0  0  0  0  0  0  0  0  0  0  0  0
    6.6211   -4.3164   22.1004 H   0  0  0  0  0  0  0  0  0  0  0  0
    5.7710   -1.6220   24.3712 H   0  0  0  0  0  0  0  0  0  0  0  0
    6.5612   -2.5272   25.6876 H   0  0  0  0  0  0  0  0  0  0  0  0
    8.3853   -3.0726   24.1842 H   0  0  0  0  0  0  0  0  0  0  0  0
    6.7602   -1.6003   21.7081 N   0  0  0  0  0  0  0  0  0  0  0  0
    7.3789   -0.6634   20.9463 N   0  0  0  0  0  0  0  0  0  0  0  0
    6.6641    0.0064   19.9077 C   0  0  0  0  0  0  0  0  0  0  0  0
    5.4422    0.6380   20.1685 C   0  0  0  0  0  0  0  0  0  0  0  0
    4.8138    1.3065   19.1116 C   0  0  0  0  0  0  0  0  0  0  0  0
    5.4004    1.2955   17.8392 C   0  0  0  0  0  0  0  0  0  0  0  0
    6.5605    0.6733   17.5785 N   0  0  0  0  0  0  0  0  0  0  0  0
    7.1700    0.0537   18.5962 C   0  0  0  0  0  0  0  0  0  0  0  0
    8.1134   -0.4359   18.3691 H   0  0  0  0  0  0  0  0  0  0  0  0
    4.9197    1.7861   16.9951 H   0  0  0  0  0  0  0  0  0  0  0  0
    3.8813    1.8375   19.2605 H   0  0  0  0  0  0  0  0  0  0  0  0
    5.0148    0.6073   21.1746 H   0  0  0  0  0  0  0  0  0  0  0  0
    9.6398    0.4959   19.8440 H   0  0  0  0  0  0  0  0  0  0  0  0
   10.5224    0.4311   21.3743 H   0  0  0  0  0  0  0  0  0  0  0  0
    9.7402    2.7462   20.8447 H   0  0  0  0  0  0  0  0  0  0  0  0
    8.0752    2.1966   20.7493 H   0  0  0  0  0  0  0  0  0  0  0  0
    8.2114    1.5124   23.1888 H   0  0  0  0  0  0  0  0  0  0  0  0
    9.8592    2.1002   23.2471 H   0  0  0  0  0  0  0  0  0  0  0  0
    7.0018    3.9122   23.0392 C   0  0  0  0  0  0  0  0  0  0  0  0
    6.5101    5.2031   23.2457 C   0  0  0  0  0  0  0  0  0  0  0  0
    5.4468    5.4223   23.2402 H   0  0  0  0  0  0  0  0  0  0  0  0
    6.3057    3.0961   22.8502 H   0  0  0  0  0  0  0  0  0  0  0  0
   10.3405    4.5244   23.2285 H   0  0  0  0  0  0  0  0  0  0  0  0
    9.4785    6.8483   23.6195 H   0  0  0  0  0  0  0  0  0  0  0  0
  1  2  1  0
  2  3  2  0
  3  4  1  0
  4  5  2  0
  5  6  1  0
  6  7  1  0
  7  8  1  0
  8  9  1  0
  9 10  2  0
 10 11  1  0
 11 12  1  0
 12 13  1  0
 13 14  1  0
 14 15  1  0
 15 16  1  0
 15 17  1  0
 13 18  1  0
 13 19  1  0
 12 20  1  0
 11 21  2  0
 21 22  1  0
 22 23  1  0
 23 24  2  0
 24 25  1  0
 25 26  2  0
 26 27  1  0
 27 28  2  0
 28 29  1  0
 26 30  1  0
 25 31  1  0
 24 32  1  0
  8 33  1  0
  8 34  1  0
  7 35  1  0
  7 36  1  0
  6 37  1  0
  6 38  1  0
  5 39  1  0
 39 40  2  0
 40 41  1  0
 39 42  1  0
  4 43  1  0
  3 44  1  0
 40  2  1  0
 22  9  1  0
 28 23  1  0
 15 12  1  0
M  END
>  <cnnaffinity>  (1) 
-5.90472

>  <filename>  (1) 
Fc1ccc(CCCc2nc(C3CSC3)nn2-c2cccnc2)cc1

$$$$
