
     RDKit          3D

 42 45  0  0  0  0  0  0  0  0999 V2000
    3.6031    3.9713   26.9363 F   0  0  0  0  0  0  0  0  0  0  0  0
    4.5697    3.2926   26.3035 C   0  0  0  0  0  0  0  0  0  0  0  0
    4.2407    2.2069   25.4979 C   0  0  0  0  0  0  0  0  0  0  0  0
    5.2596    1.5143   24.8387 C   0  0  0  0  0  0  0  0  0  0  0  0
    6.5994    1.9023   24.9741 C   0  0  0  0  0  0  0  0  0  0  0  0
    7.6591    1.2232   24.1560 C   0  0  0  0  0  0  0  0  0  0  0  0
    7.8016    1.8232   22.7291 C   0  0  0  0  0  0  0  0  0  0  0  0
    8.7636    0.9945   21.9533 C   0  0  0  0  0  0  0  0  0  0  0  0
   10.0733    1.0951   22.0859 N   0  0  0  0  0  0  0  0  0  0  0  0
   10.5413   -0.0898   21.5850 C   0  0  0  0  0  0  0  0  0  0  0  0
   11.9805   -0.4498   21.7116 C   0  0  0  0  0  0  0  0  0  0  0  0
   12.8522    0.2881   22.4646 C   0  0  0  0  0  0  0  0  0  0  0  0
   14.4141   -0.3867   22.4234 S   0  0  0  0  0  0  0  0  0  0  0  0
   13.8016   -1.6661   21.4306 C   0  0  0  0  0  0  0  0  0  0  0  0
   12.5540   -1.5684   21.1159 N   0  0  0  0  0  0  0  0  0  0  0  0
   14.4394   -2.4870   21.1279 H   0  0  0  0  0  0  0  0  0  0  0  0
   12.6341    1.2026   23.0001 H   0  0  0  0  0  0  0  0  0  0  0  0
    9.5832   -0.8799   21.1227 N   0  0  0  0  0  0  0  0  0  0  0  0
    8.4562   -0.1846   21.3604 N   0  0  0  0  0  0  0  0  0  0  0  0
    7.1653   -0.7527   20.9837 C   0  0  0  0  0  0  0  0  0  0  0  0
    6.4660    0.0037   19.8754 C   0  0  0  0  0  0  0  0  0  0  0  0
    5.2555    0.6774   20.0634 C   0  0  0  0  0  0  0  0  0  0  0  0
    4.6911    1.3675   18.9873 C   0  0  0  0  0  0  0  0  0  0  0  0
    5.3538    1.3482   17.7577 C   0  0  0  0  0  0  0  0  0  0  0  0
    6.5079    0.6942   17.5515 N   0  0  0  0  0  0  0  0  0  0  0  0
    7.0457    0.0530   18.5960 C   0  0  0  0  0  0  0  0  0  0  0  0
    7.9924   -0.4548   18.4082 H   0  0  0  0  0  0  0  0  0  0  0  0
    4.9483    1.8876   16.9031 H   0  0  0  0  0  0  0  0  0  0  0  0
    3.7739    1.9342   19.0953 H   0  0  0  0  0  0  0  0  0  0  0  0
    4.7671    0.6674   21.0398 H   0  0  0  0  0  0  0  0  0  0  0  0
    6.5273   -0.8149   21.8759 H   0  0  0  0  0  0  0  0  0  0  0  0
    7.3914   -1.7771   20.6719 H   0  0  0  0  0  0  0  0  0  0  0  0
    6.8334    1.8807   22.2176 H   0  0  0  0  0  0  0  0  0  0  0  0
    8.2003    2.8395   22.7947 H   0  0  0  0  0  0  0  0  0  0  0  0
    7.4264    0.1523   24.0623 H   0  0  0  0  0  0  0  0  0  0  0  0
    8.6366    1.2781   24.6548 H   0  0  0  0  0  0  0  0  0  0  0  0
    6.9194    2.9869   25.8074 C   0  0  0  0  0  0  0  0  0  0  0  0
    5.9067    3.6792   26.4600 C   0  0  0  0  0  0  0  0  0  0  0  0
    6.2098    4.7278   27.2395 F   0  0  0  0  0  0  0  0  0  0  0  0
    7.9450    3.3152   25.9587 H   0  0  0  0  0  0  0  0  0  0  0  0
    5.0158    0.6648   24.2017 H   0  0  0  0  0  0  0  0  0  0  0  0
    3.1958    1.9331   25.3984 H   0  0  0  0  0  0  0  0  0  0  0  0
  1  2  1  0
  2  3  2  0
  3  4  1  0
  4  5  2  0
  5  6  1  0
  6  7  1  0
  7  8  1  0
  8  9  2  0
  9 10  1  0
 10 11  1  0
 11 12  2  0
 12 13  1  0
 13 14  1  0
 14 15  2  0
 14 16  1  0
 12 17  1  0
 10 18  2  0
 18 19  1  0
 19 20  1  0
 20 21  1  0
 21 22  2  0
 22 23  1  0
 23 24  2  0
 24 25  1  0
 25 26  2  0
 26 27  1  0
 24 28  1  0
 23 29  1  0
 22 30  1  0
 20 31  1  0
 20 32  1  0
  7 33  1  0
  7 34  1  0
  6 35  1  0
  6 36  1  0
  5 37  1  0
 37 38  2  0
 38 39  1  0
 37 40  1  0
  4 41  1  0
  3 42  1  0
 38  2  1  0
 19  8  1  0
 26 21  1  0
 15 11  1  0
M  END
>  <cnnaffinity>  (1) 
-6.67383

>  <filename>  (1) 
Fc1ccc(CCc2nc(-c3cscn3)nn2Cc2cccnc2)cc1F

$$$$
