
     RDKit          3D

 41 44  0  0  0  0  0  0  0  0999 V2000
    6.7877   -5.7176   26.6417 F   0  0  0  0  0  0  0  0  0  0  0  0
    7.0033   -4.8159   25.6726 C   0  0  0  0  0  0  0  0  0  0  0  0
    8.2388   -4.1739   25.6070 C   0  0  0  0  0  0  0  0  0  0  0  0
    8.4548   -3.2377   24.5965 C   0  0  0  0  0  0  0  0  0  0  0  0
    7.4452   -2.9428   23.6559 C   0  0  0  0  0  0  0  0  0  0  0  0
    7.6696   -1.9488   22.5811 C   0  0  0  0  0  0  0  0  0  0  0  0
    6.7418   -1.6013   21.7029 N   0  0  0  0  0  0  0  0  0  0  0  0
    7.3630   -0.6696   20.9413 N   0  0  0  0  0  0  0  0  0  0  0  0
    6.6603    0.0058   19.9025 C   0  0  0  0  0  0  0  0  0  0  0  0
    5.4427    0.6443   20.1652 C   0  0  0  0  0  0  0  0  0  0  0  0
    4.8117    1.3109   19.1106 C   0  0  0  0  0  0  0  0  0  0  0  0
    5.4015    1.2949   17.8400 C   0  0  0  0  0  0  0  0  0  0  0  0
    6.5638    0.6759   17.5800 N   0  0  0  0  0  0  0  0  0  0  0  0
    7.1725    0.0551   18.5958 C   0  0  0  0  0  0  0  0  0  0  0  0
    8.1176   -0.4353   18.3744 H   0  0  0  0  0  0  0  0  0  0  0  0
    4.9134    1.7804   16.9972 H   0  0  0  0  0  0  0  0  0  0  0  0
    3.8774    1.8413   19.2649 H   0  0  0  0  0  0  0  0  0  0  0  0
    5.0093    0.6126   21.1679 H   0  0  0  0  0  0  0  0  0  0  0  0
    8.6302   -0.4842   21.4156 C   0  0  0  0  0  0  0  0  0  0  0  0
    9.5235    0.6167   20.9433 C   0  0  0  0  0  0  0  0  0  0  0  0
    9.0524    2.0150   21.4071 C   0  0  0  0  0  0  0  0  0  0  0  0
    8.9533    2.1012   22.9108 C   0  0  0  0  0  0  0  0  0  0  0  0
   10.0702    2.2886   23.7247 C   0  0  0  0  0  0  0  0  0  0  0  0
   10.0260    2.3123   25.0565 N   0  0  0  0  0  0  0  0  0  0  0  0
    8.8268    2.1176   25.6021 C   0  0  0  0  0  0  0  0  0  0  0  0
    7.6872    1.9070   24.9528 N   0  0  0  0  0  0  0  0  0  0  0  0
    7.7745    1.8874   23.6205 C   0  0  0  0  0  0  0  0  0  0  0  0
    6.8550    1.6911   23.0699 H   0  0  0  0  0  0  0  0  0  0  0  0
    8.7712    2.1416   26.6860 H   0  0  0  0  0  0  0  0  0  0  0  0
   11.0518    2.4388   23.2740 H   0  0  0  0  0  0  0  0  0  0  0  0
    9.7591    2.7637   21.0356 H   0  0  0  0  0  0  0  0  0  0  0  0
    8.0827    2.2405   20.9454 H   0  0  0  0  0  0  0  0  0  0  0  0
    9.5976    0.5977   19.8530 H   0  0  0  0  0  0  0  0  0  0  0  0
   10.5205    0.4066   21.3387 H   0  0  0  0  0  0  0  0  0  0  0  0
    8.8550   -1.2937   22.4262 N   0  0  0  0  0  0  0  0  0  0  0  0
    6.2079   -3.6131   23.7570 C   0  0  0  0  0  0  0  0  0  0  0  0
    5.9831   -4.5504   24.7619 C   0  0  0  0  0  0  0  0  0  0  0  0
    5.0346   -5.0697   24.8491 H   0  0  0  0  0  0  0  0  0  0  0  0
    5.4183   -3.3908   23.0434 H   0  0  0  0  0  0  0  0  0  0  0  0
    9.4172   -2.7326   24.5432 H   0  0  0  0  0  0  0  0  0  0  0  0
    9.0054   -4.4119   26.3382 H   0  0  0  0  0  0  0  0  0  0  0  0
  1  2  1  0
  2  3  2  0
  3  4  1  0
  4  5  2  0
  5  6  1  0
  6  7  2  0
  7  8  1  0
  8  9  1  0
  9 10  2  0
 10 11  1  0
 11 12  2  0
 12 13  1  0
 13 14  2  0
 14 15  1  0
 12 16  1  0
 11 17  1  0
 10 18  1  0
  8 19  1  0
 19 20  1  0
 20 21  1  0
 21 22  1  0
 22 23  2  0
 23 24  1  0
 24 25  2  0
 25 26  1  0
 26 27  2  0
 27 28  1  0
 25 29  1  0
 23 30  1  0
 21 31  1  0
 21 32  1  0
 20 33  1  0
 20 34  1  0
 19 35  2  0
  5 36  1  0
 36 37  2  0
 37 38  1  0
 36 39  1  0
  4 40  1  0
  3 41  1  0
 37  2  1  0
 35  6  1  0
 14  9  1  0
 27 22  1  0
M  END
>  <cnnaffinity>  (1) 
-5.87694

>  <filename>  (1) 
Fc1ccc(-c2nc(CCc3cncnc3)n(-c3cccnc3)n2)cc1

$$$$
