
     RDKit          3D

 45 48  0  0  0  0  0  0  0  0999 V2000
    4.7090    2.2053   27.3072 F   0  0  0  0  0  0  0  0  0  0  0  0
    5.8940    2.4932   26.7475 C   0  0  0  0  0  0  0  0  0  0  0  0
    6.7351    3.4045   27.3795 C   0  0  0  0  0  0  0  0  0  0  0  0
    7.9673    3.7018   26.7877 C   0  0  0  0  0  0  0  0  0  0  0  0
    8.3437    3.0901   25.5897 C   0  0  0  0  0  0  0  0  0  0  0  0
    7.4719    2.1771   24.9569 C   0  0  0  0  0  0  0  0  0  0  0  0
    7.8538    1.5414   23.6748 C   0  0  0  0  0  0  0  0  0  0  0  0
    7.1685    0.5489   23.1243 N   0  0  0  0  0  0  0  0  0  0  0  0
    7.8986    0.2431   22.0303 N   0  0  0  0  0  0  0  0  0  0  0  0
    7.3888   -0.6852   21.0280 C   0  0  0  0  0  0  0  0  0  0  0  0
    6.6534   -0.0026   19.8851 C   0  0  0  0  0  0  0  0  0  0  0  0
    5.4396    0.6482   20.1354 C   0  0  0  0  0  0  0  0  0  0  0  0
    4.7980    1.3070   19.0829 C   0  0  0  0  0  0  0  0  0  0  0  0
    5.3919    1.2994   17.8174 C   0  0  0  0  0  0  0  0  0  0  0  0
    6.5511    0.6761   17.5560 N   0  0  0  0  0  0  0  0  0  0  0  0
    7.1571    0.0524   18.5751 C   0  0  0  0  0  0  0  0  0  0  0  0
    8.1032   -0.4298   18.3220 H   0  0  0  0  0  0  0  0  0  0  0  0
    4.9261    1.8120   16.9755 H   0  0  0  0  0  0  0  0  0  0  0  0
    3.8694    1.8449   19.2315 H   0  0  0  0  0  0  0  0  0  0  0  0
    5.0310    0.6459   21.1477 H   0  0  0  0  0  0  0  0  0  0  0  0
    8.2313   -1.2770   20.6499 H   0  0  0  0  0  0  0  0  0  0  0  0
    6.7303   -1.3538   21.5883 H   0  0  0  0  0  0  0  0  0  0  0  0
    8.9774    1.0500   21.9685 C   0  0  0  0  0  0  0  0  0  0  0  0
   10.0736    0.8483   20.9780 C   0  0  0  0  0  0  0  0  0  0  0  0
   11.0416   -0.3178   21.3399 C   0  0  0  0  0  0  0  0  0  0  0  0
   11.7520   -0.0398   22.6454 C   0  0  0  0  0  0  0  0  0  0  0  0
   11.2518   -0.4996   23.8707 C   0  0  0  0  0  0  0  0  0  0  0  0
   11.8942   -0.1302   25.0581 C   0  0  0  0  0  0  0  0  0  0  0  0
   12.9754    0.6559   25.0957 N   0  0  0  0  0  0  0  0  0  0  0  0
   13.4232    1.1261   23.9277 C   0  0  0  0  0  0  0  0  0  0  0  0
   12.8575    0.8156   22.6959 C   0  0  0  0  0  0  0  0  0  0  0  0
   13.2602    1.2925   21.8137 H   0  0  0  0  0  0  0  0  0  0  0  0
   14.2563    1.8159   23.9576 H   0  0  0  0  0  0  0  0  0  0  0  0
   11.5324   -0.4979   26.0191 H   0  0  0  0  0  0  0  0  0  0  0  0
   10.3870   -1.1524   23.9099 H   0  0  0  0  0  0  0  0  0  0  0  0
   10.4931   -1.2680   21.4088 H   0  0  0  0  0  0  0  0  0  0  0  0
   11.7754   -0.4724   20.5432 H   0  0  0  0  0  0  0  0  0  0  0  0
    9.6120    0.6912   19.9983 H   0  0  0  0  0  0  0  0  0  0  0  0
   10.6257    1.7922   20.9287 H   0  0  0  0  0  0  0  0  0  0  0  0
    8.9600    1.9059   22.9705 N   0  0  0  0  0  0  0  0  0  0  0  0
    6.2331    1.8719   25.5550 C   0  0  0  0  0  0  0  0  0  0  0  0
    5.5397    1.1652   25.1072 H   0  0  0  0  0  0  0  0  0  0  0  0
    9.3027    3.3210   25.1322 H   0  0  0  0  0  0  0  0  0  0  0  0
    8.6338    4.4226   27.2545 H   0  0  0  0  0  0  0  0  0  0  0  0
    6.4046    3.8513   28.3088 H   0  0  0  0  0  0  0  0  0  0  0  0
  1  2  1  0
  2  3  2  0
  3  4  1  0
  4  5  2  0
  5  6  1  0
  6  7  1  0
  7  8  2  0
  8  9  1  0
  9 10  1  0
 10 11  1  0
 11 12  2  0
 12 13  1  0
 13 14  2  0
 14 15  1  0
 15 16  2  0
 16 17  1  0
 14 18  1  0
 13 19  1  0
 12 20  1  0
 10 21  1  0
 10 22  1  0
  9 23  1  0
 23 24  1  0
 24 25  1  0
 25 26  1  0
 26 27  2  0
 27 28  1  0
 28 29  2  0
 29 30  1  0
 30 31  2  0
 31 32  1  0
 30 33  1  0
 28 34  1  0
 27 35  1  0
 25 36  1  0
 25 37  1  0
 24 38  1  0
 24 39  1  0
 23 40  2  0
  6 41  2  0
 41 42  1  0
  5 43  1  0
  4 44  1  0
  3 45  1  0
 41  2  1  0
 40  7  1  0
 16 11  1  0
 31 26  1  0
M  END
>  <cnnaffinity>  (1) 
-6.04733

>  <filename>  (1) 
Fc1cccc(-c2nc(CCc3ccncc3)n(Cc3cccnc3)n2)c1

$$$$
