
     RDKit          3D

 38 41  0  0  0  0  0  0  0  0999 V2000
    4.7925   -5.4887   24.9756 F   0  0  0  0  0  0  0  0  0  0  0  0
    5.9636   -4.8513   24.8495 C   0  0  0  0  0  0  0  0  0  0  0  0
    6.9667   -5.1453   25.7712 C   0  0  0  0  0  0  0  0  0  0  0  0
    8.1697   -4.4623   25.6248 C   0  0  0  0  0  0  0  0  0  0  0  0
    9.1550   -4.6925   26.5008 F   0  0  0  0  0  0  0  0  0  0  0  0
    8.3916   -3.5475   24.6078 C   0  0  0  0  0  0  0  0  0  0  0  0
    7.3633   -3.2759   23.6834 C   0  0  0  0  0  0  0  0  0  0  0  0
    7.6316   -2.2493   22.6358 C   0  0  0  0  0  0  0  0  0  0  0  0
    6.7847   -1.8434   21.7096 N   0  0  0  0  0  0  0  0  0  0  0  0
    7.4734   -0.8543   21.0716 N   0  0  0  0  0  0  0  0  0  0  0  0
    6.8426   -0.1286   20.0062 C   0  0  0  0  0  0  0  0  0  0  0  0
    5.6379    0.5479   20.2510 C   0  0  0  0  0  0  0  0  0  0  0  0
    5.0448    1.2407   19.1929 C   0  0  0  0  0  0  0  0  0  0  0  0
    5.6496    1.2087   17.9302 C   0  0  0  0  0  0  0  0  0  0  0  0
    6.7937    0.5514   17.6791 N   0  0  0  0  0  0  0  0  0  0  0  0
    7.3771   -0.0895   18.7028 C   0  0  0  0  0  0  0  0  0  0  0  0
    8.3110   -0.6072   18.4745 H   0  0  0  0  0  0  0  0  0  0  0  0
    5.1919    1.7226   17.0878 H   0  0  0  0  0  0  0  0  0  0  0  0
    4.1200    1.7934   19.3325 H   0  0  0  0  0  0  0  0  0  0  0  0
    5.1907    0.5282   21.2488 H   0  0  0  0  0  0  0  0  0  0  0  0
    8.6946   -0.7138   21.6738 C   0  0  0  0  0  0  0  0  0  0  0  0
    9.7017    0.3558   21.3801 C   0  0  0  0  0  0  0  0  0  0  0  0
    9.2571    1.6742   21.9290 C   0  0  0  0  0  0  0  0  0  0  0  0
    8.3786    2.5616   21.3727 C   0  0  0  0  0  0  0  0  0  0  0  0
    8.0491    3.5320   22.3563 C   0  0  0  0  0  0  0  0  0  0  0  0
    8.7504    3.2039   23.4883 C   0  0  0  0  0  0  0  0  0  0  0  0
    9.4955    2.0815   23.2122 N   0  0  0  0  0  0  0  0  0  0  0  0
    9.9725    1.5160   23.8951 H   0  0  0  0  0  0  0  0  0  0  0  0
    8.7860    3.6684   24.4594 H   0  0  0  0  0  0  0  0  0  0  0  0
    7.3826    4.3798   22.2594 H   0  0  0  0  0  0  0  0  0  0  0  0
    7.9793    2.4161   20.3800 H   0  0  0  0  0  0  0  0  0  0  0  0
   10.6541    0.0282   21.8123 H   0  0  0  0  0  0  0  0  0  0  0  0
    9.8113    0.4194   20.2964 H   0  0  0  0  0  0  0  0  0  0  0  0
    8.8256   -1.5885   22.6322 N   0  0  0  0  0  0  0  0  0  0  0  0
    6.1197   -3.9325   23.8121 C   0  0  0  0  0  0  0  0  0  0  0  0
    5.2886   -3.7284   23.1408 H   0  0  0  0  0  0  0  0  0  0  0  0
    9.3507   -3.0383   24.5411 H   0  0  0  0  0  0  0  0  0  0  0  0
    6.8235   -5.8676   26.5662 H   0  0  0  0  0  0  0  0  0  0  0  0
  1  2  1  0
  2  3  2  0
  3  4  1  0
  4  5  1  0
  4  6  2  0
  6  7  1  0
  7  8  1  0
  8  9  2  0
  9 10  1  0
 10 11  1  0
 11 12  2  0
 12 13  1  0
 13 14  2  0
 14 15  1  0
 15 16  2  0
 16 17  1  0
 14 18  1  0
 13 19  1  0
 12 20  1  0
 10 21  1  0
 21 22  1  0
 22 23  1  0
 23 24  2  0
 24 25  1  0
 25 26  2  0
 26 27  1  0
 27 28  1  0
 26 29  1  0
 25 30  1  0
 24 31  1  0
 22 32  1  0
 22 33  1  0
 21 34  2  0
  7 35  2  0
 35 36  1  0
  6 37  1  0
  3 38  1  0
 35  2  1  0
 34  8  1  0
 16 11  1  0
 27 23  1  0
M  END
>  <cnnaffinity>  (1) 
-6.00345

>  <filename>  (1) 
Fc1cc(F)cc(-c2nc(Cc3ccc[nH]3)n(-c3cccnc3)n2)c1

$$$$
