
     RDKit          3D

 30 33  0  0  0  0  0  0  0  0999 V2000
    4.9125    1.8148   16.9691 H   0  0  0  0  0  0  0  0  0  0  0  0
    5.3758    1.3058   17.8165 C   0  0  0  0  0  0  0  0  0  0  0  0
    6.5387    0.6850   17.5634 N   0  0  0  0  0  0  0  0  0  0  0  0
    7.1507    0.0769   18.5832 C   0  0  0  0  0  0  0  0  0  0  0  0
    8.1012   -0.3894   18.3325 H   0  0  0  0  0  0  0  0  0  0  0  0
    6.6614    0.0286   19.9100 C   0  0  0  0  0  0  0  0  0  0  0  0
    7.4167   -0.6744   20.9665 C   0  0  0  0  0  0  0  0  0  0  0  0
    8.3306   -1.6991   20.9075 C   0  0  0  0  0  0  0  0  0  0  0  0
    8.7435   -2.1095   20.0037 H   0  0  0  0  0  0  0  0  0  0  0  0
    8.7829   -2.1175   22.1277 N   0  0  0  0  0  0  0  0  0  0  0  0
    8.1704   -1.3084   22.9507 C   0  0  0  0  0  0  0  0  0  0  0  0
    8.2495   -0.9643   24.6377 S   0  0  0  0  0  0  0  0  0  0  0  0
    7.1327    0.3730   24.3206 C   0  0  0  0  0  0  0  0  0  0  0  0
    6.6703    1.2711   25.3939 C   0  0  0  0  0  0  0  0  0  0  0  0
    7.1150    1.0882   26.7165 C   0  0  0  0  0  0  0  0  0  0  0  0
    7.8095    0.2869   26.9580 H   0  0  0  0  0  0  0  0  0  0  0  0
    6.6673    1.9354   27.7284 C   0  0  0  0  0  0  0  0  0  0  0  0
    7.0226    1.7717   28.7426 H   0  0  0  0  0  0  0  0  0  0  0  0
    5.7768    2.9732   27.4386 C   0  0  0  0  0  0  0  0  0  0  0  0
    5.4058    3.6512   28.1957 H   0  0  0  0  0  0  0  0  0  0  0  0
    5.3483    3.1434   26.1241 C   0  0  0  0  0  0  0  0  0  0  0  0
    4.4932    4.1404   25.8483 F   0  0  0  0  0  0  0  0  0  0  0  0
    5.7750    2.3179   25.0927 C   0  0  0  0  0  0  0  0  0  0  0  0
    5.4133    2.4986   24.0838 H   0  0  0  0  0  0  0  0  0  0  0  0
    6.7508    0.5224   23.0899 N   0  0  0  0  0  0  0  0  0  0  0  0
    7.3321   -0.4280   22.3337 N   0  0  0  0  0  0  0  0  0  0  0  0
    5.4303    0.6680   20.1448 C   0  0  0  0  0  0  0  0  0  0  0  0
    5.0171    0.6580   21.1513 H   0  0  0  0  0  0  0  0  0  0  0  0
    4.7874    1.3157   19.0853 C   0  0  0  0  0  0  0  0  0  0  0  0
    3.8553    1.8506   19.2274 H   0  0  0  0  0  0  0  0  0  0  0  0
  1  2  1  0
  2  3  2  0
  3  4  1  0
  4  5  1  0
  4  6  2  0
  6  7  1  0
  7  8  2  0
  8  9  1  0
  8 10  1  0
 10 11  2  0
 11 12  1  0
 12 13  1  0
 13 14  1  0
 14 15  2  0
 15 16  1  0
 15 17  1  0
 17 18  1  0
 17 19  2  0
 19 20  1  0
 19 21  1  0
 21 22  1  0
 21 23  2  0
 23 24  1  0
 13 25  2  0
 25 26  1  0
  6 27  1  0
 27 28  1  0
 27 29  2  0
 29 30  1  0
 29  2  1  0
 26  7  1  0
 26 11  1  0
 23 14  1  0
M  END
>  <cnnaffinity>  (1) 
-5.18715

>  <filename>  (1) 
Fc1cccc(-c2nn3c(-c4cccnc4)cnc3s2)c1

$$$$
