
     RDKit          3D

 37 40  0  0  0  0  0  0  0  0999 V2000
    4.9453    1.8662   16.9267 H   0  0  0  0  0  0  0  0  0  0  0  0
    5.3834    1.3168   17.7571 C   0  0  0  0  0  0  0  0  0  0  0  0
    6.5292    0.6655   17.4983 N   0  0  0  0  0  0  0  0  0  0  0  0
    7.1142    0.0241   18.5139 C   0  0  0  0  0  0  0  0  0  0  0  0
    8.0433   -0.4969   18.2845 H   0  0  0  0  0  0  0  0  0  0  0  0
    6.6074    0.0182   19.8272 C   0  0  0  0  0  0  0  0  0  0  0  0
    7.3726   -0.5804   20.9230 C   0  0  0  0  0  0  0  0  0  0  0  0
    8.1791   -1.6257   20.7329 N   0  0  0  0  0  0  0  0  0  0  0  0
    8.7056   -1.8270   21.9369 N   0  0  0  0  0  0  0  0  0  0  0  0
    8.3250   -0.9766   22.8958 C   0  0  0  0  0  0  0  0  0  0  0  0
    7.4091   -0.1355   22.2930 C   0  0  0  0  0  0  0  0  0  0  0  0
    6.6863    0.9235   22.8783 N   0  0  0  0  0  0  0  0  0  0  0  0
    6.9173    1.8242   22.4814 H   0  0  0  0  0  0  0  0  0  0  0  0
    6.5314    1.0165   24.2701 C   0  0  0  0  0  0  0  0  0  0  0  0
    6.7596    2.2470   24.8961 C   0  0  0  0  0  0  0  0  0  0  0  0
    7.1571    3.0680   24.3051 H   0  0  0  0  0  0  0  0  0  0  0  0
    6.5011    2.4140   26.2602 C   0  0  0  0  0  0  0  0  0  0  0  0
    6.6422    3.3699   26.7528 H   0  0  0  0  0  0  0  0  0  0  0  0
    6.0168    1.3274   26.9883 C   0  0  0  0  0  0  0  0  0  0  0  0
    5.7022    1.4908   28.2868 F   0  0  0  0  0  0  0  0  0  0  0  0
    5.8244    0.0802   26.3995 C   0  0  0  0  0  0  0  0  0  0  0  0
    5.4536   -0.7437   27.0013 H   0  0  0  0  0  0  0  0  0  0  0  0
    6.0939   -0.0732   25.0349 C   0  0  0  0  0  0  0  0  0  0  0  0
    5.9994   -1.0391   24.5477 H   0  0  0  0  0  0  0  0  0  0  0  0
    9.1092   -1.2233   24.1583 C   0  0  0  0  0  0  0  0  0  0  0  0
    9.5833   -0.3080   24.5263 H   0  0  0  0  0  0  0  0  0  0  0  0
    8.4619   -1.6034   24.9552 H   0  0  0  0  0  0  0  0  0  0  0  0
   10.1628   -2.2668   23.6903 C   0  0  0  0  0  0  0  0  0  0  0  0
   11.0982   -1.7448   23.5071 H   0  0  0  0  0  0  0  0  0  0  0  0
   10.3482   -3.0557   24.4213 H   0  0  0  0  0  0  0  0  0  0  0  0
    9.6877   -2.8044   22.3152 C   0  0  0  0  0  0  0  0  0  0  0  0
   10.4852   -2.7952   21.5742 H   0  0  0  0  0  0  0  0  0  0  0  0
    9.2306   -3.7969   22.3394 H   0  0  0  0  0  0  0  0  0  0  0  0
    5.3823    0.6618   20.0682 C   0  0  0  0  0  0  0  0  0  0  0  0
    4.9466    0.6499   21.0699 H   0  0  0  0  0  0  0  0  0  0  0  0
    4.7641    1.3214   19.0119 C   0  0  0  0  0  0  0  0  0  0  0  0
    3.8375    1.8672   19.1537 H   0  0  0  0  0  0  0  0  0  0  0  0
  1  2  1  0
  2  3  2  0
  3  4  1  0
  4  5  1  0
  4  6  2  0
  6  7  1  0
  7  8  2  0
  8  9  1  0
  9 10  1  0
 10 11  2  0
 11 12  1  0
 12 13  1  0
 12 14  1  0
 14 15  2  0
 15 16  1  0
 15 17  1  0
 17 18  1  0
 17 19  2  0
 19 20  1  0
 19 21  1  0
 21 22  1  0
 21 23  2  0
 23 24  1  0
 10 25  1  0
 25 26  1  0
 25 27  1  0
 25 28  1  0
 28 29  1  0
 28 30  1  0
 28 31  1  0
 31 32  1  0
 31 33  1  0
  6 34  1  0
 34 35  1  0
 34 36  2  0
 36 37  1  0
 36  2  1  0
 11  7  1  0
 23 14  1  0
 31  9  1  0
M  END
>  <cnnaffinity>  (1) 
-5.82438

>  <filename>  (1) 
Fc1ccc(Nc2c(-c3cccnc3)nn3c2CCC3)cc1

$$$$
