
     RDKit          3D

 45 48  0  0  0  0  0  0  0  0999 V2000
    3.5217    1.9387   24.3060 F   0  0  0  0  0  0  0  0  0  0  0  0
    4.8043    2.0317   23.9098 C   0  0  0  0  0  0  0  0  0  0  0  0
    5.1854    3.1030   23.1024 C   0  0  0  0  0  0  0  0  0  0  0  0
    6.5338    3.2275   22.7474 C   0  0  0  0  0  0  0  0  0  0  0  0
    7.4774    2.3017   23.2091 C   0  0  0  0  0  0  0  0  0  0  0  0
    9.2000    2.5253   22.8452 S   0  0  0  0  0  0  0  0  0  0  0  0
    9.2131    2.0111   21.1056 C   0  0  0  0  0  0  0  0  0  0  0  0
    9.5904    0.5435   20.8682 C   0  0  0  0  0  0  0  0  0  0  0  0
    8.6421   -0.4726   21.4102 C   0  0  0  0  0  0  0  0  0  0  0  0
    8.8846   -1.3185   22.3887 N   0  0  0  0  0  0  0  0  0  0  0  0
    7.6854   -1.9401   22.5764 C   0  0  0  0  0  0  0  0  0  0  0  0
    7.4206   -2.9456   23.6881 C   0  0  0  0  0  0  0  0  0  0  0  0
    8.5487   -3.9870   23.8619 C   0  0  0  0  0  0  0  0  0  0  0  0
    9.3763   -3.4111   25.0182 C   0  0  0  0  0  0  0  0  0  0  0  0
    8.3372   -2.6593   25.8496 C   0  0  0  0  0  0  0  0  0  0  0  0
    7.2799   -2.3098   24.9615 O   0  0  0  0  0  0  0  0  0  0  0  0
    8.7247   -1.7325   26.2922 H   0  0  0  0  0  0  0  0  0  0  0  0
    7.9367   -3.2738   26.6688 H   0  0  0  0  0  0  0  0  0  0  0  0
    9.9097   -4.1725   25.5984 H   0  0  0  0  0  0  0  0  0  0  0  0
   10.1184   -2.7080   24.6298 H   0  0  0  0  0  0  0  0  0  0  0  0
    8.1188   -4.9650   24.1159 H   0  0  0  0  0  0  0  0  0  0  0  0
    9.1346   -4.1125   22.9445 H   0  0  0  0  0  0  0  0  0  0  0  0
    6.4507   -3.3855   23.4409 H   0  0  0  0  0  0  0  0  0  0  0  0
    6.7505   -1.5787   21.7199 N   0  0  0  0  0  0  0  0  0  0  0  0
    7.3630   -0.6417   20.9503 N   0  0  0  0  0  0  0  0  0  0  0  0
    6.6679    0.0169   19.8918 C   0  0  0  0  0  0  0  0  0  0  0  0
    5.4541    0.6595   20.1480 C   0  0  0  0  0  0  0  0  0  0  0  0
    4.8098    1.3247   19.1008 C   0  0  0  0  0  0  0  0  0  0  0  0
    5.4004    1.3085   17.8304 C   0  0  0  0  0  0  0  0  0  0  0  0
    6.5517    0.6718   17.5688 N   0  0  0  0  0  0  0  0  0  0  0  0
    7.1670    0.0453   18.5775 C   0  0  0  0  0  0  0  0  0  0  0  0
    8.0952   -0.4693   18.3287 H   0  0  0  0  0  0  0  0  0  0  0  0
    4.9267    1.8214   16.9973 H   0  0  0  0  0  0  0  0  0  0  0  0
    3.8684    1.8503   19.2525 H   0  0  0  0  0  0  0  0  0  0  0  0
    5.0304    0.6069   21.1500 H   0  0  0  0  0  0  0  0  0  0  0  0
    9.6495    0.3737   19.7904 H   0  0  0  0  0  0  0  0  0  0  0  0
   10.5804    0.3361   21.2826 H   0  0  0  0  0  0  0  0  0  0  0  0
    8.2453    2.2433   20.6447 H   0  0  0  0  0  0  0  0  0  0  0  0
    9.9624    2.6470   20.6345 H   0  0  0  0  0  0  0  0  0  0  0  0
    7.0564    1.2024   23.9630 C   0  0  0  0  0  0  0  0  0  0  0  0
    5.7089    1.0476   24.3021 C   0  0  0  0  0  0  0  0  0  0  0  0
    5.3531    0.1612   24.8177 H   0  0  0  0  0  0  0  0  0  0  0  0
    7.7912    0.4562   24.2473 H   0  0  0  0  0  0  0  0  0  0  0  0
    6.8652    4.0402   22.1070 H   0  0  0  0  0  0  0  0  0  0  0  0
    4.4300    3.7869   22.7308 H   0  0  0  0  0  0  0  0  0  0  0  0
  1  2  1  0
  2  3  2  0
  3  4  1  0
  4  5  2  0
  5  6  1  0
  6  7  1  0
  7  8  1  0
  8  9  1  0
  9 10  2  0
 10 11  1  0
 11 12  1  0
 12 13  1  0
 13 14  1  0
 14 15  1  0
 15 16  1  0
 15 17  1  0
 15 18  1  0
 14 19  1  0
 14 20  1  0
 13 21  1  0
 13 22  1  0
 12 23  1  0
 11 24  2  0
 24 25  1  0
 25 26  1  0
 26 27  2  0
 27 28  1  0
 28 29  2  0
 29 30  1  0
 30 31  2  0
 31 32  1  0
 29 33  1  0
 28 34  1  0
 27 35  1  0
  8 36  1  0
  8 37  1  0
  7 38  1  0
  7 39  1  0
  5 40  1  0
 40 41  2  0
 41 42  1  0
 40 43  1  0
  4 44  1  0
  3 45  1  0
 41  2  1  0
 25  9  1  0
 31 26  1  0
 16 12  1  0
M  END
>  <cnnaffinity>  (1) 
-5.72912

>  <filename>  (1) 
Fc1ccc(SCCc2nc(C3CCCO3)nn2-c2cccnc2)cc1

$$$$
