
     RDKit          3D

 40 43  0  0  0  0  0  0  0  0999 V2000
    6.1072    3.5689   28.9390 F   0  0  0  0  0  0  0  0  0  0  0  0
    6.4400    3.0643   27.7428 C   0  0  0  0  0  0  0  0  0  0  0  0
    7.5809    3.5476   27.1093 C   0  0  0  0  0  0  0  0  0  0  0  0
    7.9253    3.0224   25.8695 C   0  0  0  0  0  0  0  0  0  0  0  0
    7.1441    2.0233   25.2581 C   0  0  0  0  0  0  0  0  0  0  0  0
    7.5732    1.4840   23.9496 C   0  0  0  0  0  0  0  0  0  0  0  0
    6.9268    0.5498   23.2705 N   0  0  0  0  0  0  0  0  0  0  0  0
    7.7109    0.3509   22.1865 N   0  0  0  0  0  0  0  0  0  0  0  0
    7.3469   -0.5919   21.1319 C   0  0  0  0  0  0  0  0  0  0  0  0
    6.6779    0.0607   19.9345 C   0  0  0  0  0  0  0  0  0  0  0  0
    5.4733    0.7529   20.1130 C   0  0  0  0  0  0  0  0  0  0  0  0
    4.8827    1.3629   19.0056 C   0  0  0  0  0  0  0  0  0  0  0  0
    5.5167    1.2596   17.7644 C   0  0  0  0  0  0  0  0  0  0  0  0
    6.6679    0.6015   17.5688 N   0  0  0  0  0  0  0  0  0  0  0  0
    7.2253    0.0223   18.6410 C   0  0  0  0  0  0  0  0  0  0  0  0
    8.1662   -0.4997   18.4577 H   0  0  0  0  0  0  0  0  0  0  0  0
    5.0833    1.7321   16.8874 H   0  0  0  0  0  0  0  0  0  0  0  0
    3.9623    1.9283   19.0936 H   0  0  0  0  0  0  0  0  0  0  0  0
    5.0298    0.8260   21.1081 H   0  0  0  0  0  0  0  0  0  0  0  0
    8.2620   -1.1142   20.8292 H   0  0  0  0  0  0  0  0  0  0  0  0
    6.6868   -1.3207   21.6138 H   0  0  0  0  0  0  0  0  0  0  0  0
    8.7671    1.1840   22.2465 C   0  0  0  0  0  0  0  0  0  0  0  0
    9.8788    1.2117   21.2494 C   0  0  0  0  0  0  0  0  0  0  0  0
   10.9822    0.2273   21.5525 C   0  0  0  0  0  0  0  0  0  0  0  0
   12.0579    0.3727   22.3943 C   0  0  0  0  0  0  0  0  0  0  0  0
   12.7424   -0.8574   22.3360 C   0  0  0  0  0  0  0  0  0  0  0  0
   12.1435   -1.7151   21.5289 N   0  0  0  0  0  0  0  0  0  0  0  0
   11.0597   -1.0490   21.0847 N   0  0  0  0  0  0  0  0  0  0  0  0
   10.5652   -1.4556   20.2998 H   0  0  0  0  0  0  0  0  0  0  0  0
   13.6742   -1.1142   22.8208 H   0  0  0  0  0  0  0  0  0  0  0  0
   12.3167    1.2338   22.9952 H   0  0  0  0  0  0  0  0  0  0  0  0
    9.4730    1.0661   20.2471 H   0  0  0  0  0  0  0  0  0  0  0  0
   10.2819    2.2256   21.2863 H   0  0  0  0  0  0  0  0  0  0  0  0
    8.7169    1.9090   23.3386 N   0  0  0  0  0  0  0  0  0  0  0  0
    5.9970    1.5510   25.9312 C   0  0  0  0  0  0  0  0  0  0  0  0
    5.6444    2.0719   27.1768 C   0  0  0  0  0  0  0  0  0  0  0  0
    4.7793    1.7188   27.7273 H   0  0  0  0  0  0  0  0  0  0  0  0
    5.3910    0.7706   25.4774 H   0  0  0  0  0  0  0  0  0  0  0  0
    8.8143    3.3746   25.3529 H   0  0  0  0  0  0  0  0  0  0  0  0
    8.1792    4.3074   27.5950 H   0  0  0  0  0  0  0  0  0  0  0  0
  1  2  1  0
  2  3  2  0
  3  4  1  0
  4  5  2  0
  5  6  1  0
  6  7  2  0
  7  8  1  0
  8  9  1  0
  9 10  1  0
 10 11  2  0
 11 12  1  0
 12 13  2  0
 13 14  1  0
 14 15  2  0
 15 16  1  0
 13 17  1  0
 12 18  1  0
 11 19  1  0
  9 20  1  0
  9 21  1  0
  8 22  1  0
 22 23  1  0
 23 24  1  0
 24 25  2  0
 25 26  1  0
 26 27  2  0
 27 28  1  0
 28 29  1  0
 26 30  1  0
 25 31  1  0
 23 32  1  0
 23 33  1  0
 22 34  2  0
  5 35  1  0
 35 36  2  0
 36 37  1  0
 35 38  1  0
  4 39  1  0
  3 40  1  0
 36  2  1  0
 34  6  1  0
 15 10  1  0
 28 24  1  0
M  END
>  <cnnaffinity>  (1) 
-6.10273

>  <filename>  (1) 
Fc1ccc(-c2nc(Cc3ccn[nH]3)n(Cc3cccnc3)n2)cc1

$$$$
