
     RDKit          3D

 40 43  0  0  0  0  0  0  0  0999 V2000
    8.0964    4.8418   27.4037 F   0  0  0  0  0  0  0  0  0  0  0  0
    7.4231    3.7807   26.9315 C   0  0  0  0  0  0  0  0  0  0  0  0
    6.3464    3.2793   27.6601 C   0  0  0  0  0  0  0  0  0  0  0  0
    5.6615    2.1664   27.1589 C   0  0  0  0  0  0  0  0  0  0  0  0
    6.0398    1.5668   25.9537 C   0  0  0  0  0  0  0  0  0  0  0  0
    7.1241    2.0982   25.2213 C   0  0  0  0  0  0  0  0  0  0  0  0
    7.5689    1.5022   23.9344 C   0  0  0  0  0  0  0  0  0  0  0  0
    6.9165    0.5639   23.2681 N   0  0  0  0  0  0  0  0  0  0  0  0
    7.7025    0.3496   22.1889 N   0  0  0  0  0  0  0  0  0  0  0  0
    7.3365   -0.5924   21.1373 C   0  0  0  0  0  0  0  0  0  0  0  0
    6.6809    0.0592   19.9340 C   0  0  0  0  0  0  0  0  0  0  0  0
    5.4797    0.7593   20.1030 C   0  0  0  0  0  0  0  0  0  0  0  0
    4.8905    1.3705   18.9938 C   0  0  0  0  0  0  0  0  0  0  0  0
    5.5308    1.2638   17.7549 C   0  0  0  0  0  0  0  0  0  0  0  0
    6.6772    0.5922   17.5695 N   0  0  0  0  0  0  0  0  0  0  0  0
    7.2330    0.0137   18.6437 C   0  0  0  0  0  0  0  0  0  0  0  0
    8.1741   -0.5121   18.4608 H   0  0  0  0  0  0  0  0  0  0  0  0
    5.0988    1.7298   16.8700 H   0  0  0  0  0  0  0  0  0  0  0  0
    3.9698    1.9418   19.0782 H   0  0  0  0  0  0  0  0  0  0  0  0
    5.0335    0.8355   21.0966 H   0  0  0  0  0  0  0  0  0  0  0  0
    8.2456   -1.1223   20.8372 H   0  0  0  0  0  0  0  0  0  0  0  0
    6.6687   -1.3221   21.6031 H   0  0  0  0  0  0  0  0  0  0  0  0
    8.7674    1.1711   22.2444 C   0  0  0  0  0  0  0  0  0  0  0  0
    9.8690    1.1906   21.2332 C   0  0  0  0  0  0  0  0  0  0  0  0
   10.9817    0.2316   21.5433 C   0  0  0  0  0  0  0  0  0  0  0  0
   12.0899    0.4103   22.3416 C   0  0  0  0  0  0  0  0  0  0  0  0
   12.7668   -0.8265   22.3134 C   0  0  0  0  0  0  0  0  0  0  0  0
   12.1268   -1.7185   21.5770 N   0  0  0  0  0  0  0  0  0  0  0  0
   11.0410   -1.0629   21.1305 N   0  0  0  0  0  0  0  0  0  0  0  0
   10.5109   -1.4986   20.3900 H   0  0  0  0  0  0  0  0  0  0  0  0
   13.6987   -1.1042   22.7857 H   0  0  0  0  0  0  0  0  0  0  0  0
   12.3885    1.2993   22.8744 H   0  0  0  0  0  0  0  0  0  0  0  0
    9.4567    1.0131   20.2366 H   0  0  0  0  0  0  0  0  0  0  0  0
   10.2821    2.2014   21.2561 H   0  0  0  0  0  0  0  0  0  0  0  0
    8.7221    1.9070   23.3278 N   0  0  0  0  0  0  0  0  0  0  0  0
    7.8173    3.2168   25.7265 C   0  0  0  0  0  0  0  0  0  0  0  0
    8.6583    3.6471   25.1879 H   0  0  0  0  0  0  0  0  0  0  0  0
    5.5098    0.6879   25.5892 H   0  0  0  0  0  0  0  0  0  0  0  0
    4.8212    1.7629   27.7191 H   0  0  0  0  0  0  0  0  0  0  0  0
    6.0648    3.7684   28.5856 H   0  0  0  0  0  0  0  0  0  0  0  0
  1  2  1  0
  2  3  2  0
  3  4  1  0
  4  5  2  0
  5  6  1  0
  6  7  1  0
  7  8  2  0
  8  9  1  0
  9 10  1  0
 10 11  1  0
 11 12  2  0
 12 13  1  0
 13 14  2  0
 14 15  1  0
 15 16  2  0
 16 17  1  0
 14 18  1  0
 13 19  1  0
 12 20  1  0
 10 21  1  0
 10 22  1  0
  9 23  1  0
 23 24  1  0
 24 25  1  0
 25 26  2  0
 26 27  1  0
 27 28  2  0
 28 29  1  0
 29 30  1  0
 27 31  1  0
 26 32  1  0
 24 33  1  0
 24 34  1  0
 23 35  2  0
  6 36  2  0
 36 37  1  0
  5 38  1  0
  4 39  1  0
  3 40  1  0
 36  2  1  0
 35  7  1  0
 16 11  1  0
 29 25  1  0
M  END
>  <cnnaffinity>  (1) 
-6.16237

>  <filename>  (1) 
Fc1cccc(-c2nc(Cc3ccn[nH]3)n(Cc3cccnc3)n2)c1

$$$$
