
     RDKit          3D

 42 45  0  0  0  0  0  0  0  0999 V2000
    8.7698    1.7168   25.5805 F   0  0  0  0  0  0  0  0  0  0  0  0
    8.4173    2.8834   25.0093 C   0  0  0  0  0  0  0  0  0  0  0  0
    7.9731    3.9116   25.8323 C   0  0  0  0  0  0  0  0  0  0  0  0
    7.5976    5.1380   25.2703 C   0  0  0  0  0  0  0  0  0  0  0  0
    7.6766    5.3126   23.8913 C   0  0  0  0  0  0  0  0  0  0  0  0
    8.1273    4.2747   23.0611 C   0  0  0  0  0  0  0  0  0  0  0  0
    8.5068    3.0372   23.6017 C   0  0  0  0  0  0  0  0  0  0  0  0
    8.9612    1.9752   22.8874 O   0  0  0  0  0  0  0  0  0  0  0  0
    9.0395    2.0141   21.4635 C   0  0  0  0  0  0  0  0  0  0  0  0
    9.5136    0.6358   20.9955 C   0  0  0  0  0  0  0  0  0  0  0  0
    8.6267   -0.4646   21.4532 C   0  0  0  0  0  0  0  0  0  0  0  0
    8.8623   -1.3080   22.4404 N   0  0  0  0  0  0  0  0  0  0  0  0
    7.6813   -1.9592   22.5684 C   0  0  0  0  0  0  0  0  0  0  0  0
    7.4216   -2.9484   23.6572 C   0  0  0  0  0  0  0  0  0  0  0  0
    6.2878   -2.5336   24.6429 C   0  0  0  0  0  0  0  0  0  0  0  0
    5.2934   -4.0007   24.2044 S   0  0  0  0  0  0  0  0  0  0  0  0
    6.7784   -4.2779   23.1810 C   0  0  0  0  0  0  0  0  0  0  0  0
    6.5515   -4.3075   22.1104 H   0  0  0  0  0  0  0  0  0  0  0  0
    7.3311   -5.1779   23.4671 H   0  0  0  0  0  0  0  0  0  0  0  0
    5.7952   -1.5892   24.3916 H   0  0  0  0  0  0  0  0  0  0  0  0
    6.5823   -2.5104   25.6970 H   0  0  0  0  0  0  0  0  0  0  0  0
    8.3734   -3.0961   24.1636 H   0  0  0  0  0  0  0  0  0  0  0  0
    6.7545   -1.6124   21.6986 N   0  0  0  0  0  0  0  0  0  0  0  0
    7.3709   -0.6597   20.9528 N   0  0  0  0  0  0  0  0  0  0  0  0
    6.6623    0.0075   19.9074 C   0  0  0  0  0  0  0  0  0  0  0  0
    5.4407    0.6390   20.1697 C   0  0  0  0  0  0  0  0  0  0  0  0
    4.8137    1.3075   19.1119 C   0  0  0  0  0  0  0  0  0  0  0  0
    5.4014    1.2955   17.8396 C   0  0  0  0  0  0  0  0  0  0  0  0
    6.5606    0.6723   17.5795 N   0  0  0  0  0  0  0  0  0  0  0  0
    7.1697    0.0521   18.5960 C   0  0  0  0  0  0  0  0  0  0  0  0
    8.1123   -0.4362   18.3656 H   0  0  0  0  0  0  0  0  0  0  0  0
    4.9211    1.7858   16.9945 H   0  0  0  0  0  0  0  0  0  0  0  0
    3.8810    1.8383   19.2605 H   0  0  0  0  0  0  0  0  0  0  0  0
    5.0140    0.6069   21.1768 H   0  0  0  0  0  0  0  0  0  0  0  0
    9.5694    0.6393   19.9053 H   0  0  0  0  0  0  0  0  0  0  0  0
   10.5135    0.4204   21.3717 H   0  0  0  0  0  0  0  0  0  0  0  0
    8.0570    2.2472   21.0264 H   0  0  0  0  0  0  0  0  0  0  0  0
    9.7570    2.7816   21.1441 H   0  0  0  0  0  0  0  0  0  0  0  0
    8.1884    4.4257   21.9867 H   0  0  0  0  0  0  0  0  0  0  0  0
    7.3855    6.2585   23.4442 H   0  0  0  0  0  0  0  0  0  0  0  0
    7.2446    5.9434   25.9115 H   0  0  0  0  0  0  0  0  0  0  0  0
    7.9248    3.7339   26.9033 H   0  0  0  0  0  0  0  0  0  0  0  0
  1  2  1  0
  2  3  2  0
  3  4  1  0
  4  5  2  0
  5  6  1  0
  6  7  2  0
  7  8  1  0
  8  9  1  0
  9 10  1  0
 10 11  1  0
 11 12  2  0
 12 13  1  0
 13 14  1  0
 14 15  1  0
 15 16  1  0
 16 17  1  0
 17 18  1  0
 17 19  1  0
 15 20  1  0
 15 21  1  0
 14 22  1  0
 13 23  2  0
 23 24  1  0
 24 25  1  0
 25 26  2  0
 26 27  1  0
 27 28  2  0
 28 29  1  0
 29 30  2  0
 30 31  1  0
 28 32  1  0
 27 33  1  0
 26 34  1  0
 10 35  1  0
 10 36  1  0
  9 37  1  0
  9 38  1  0
  6 39  1  0
  5 40  1  0
  4 41  1  0
  3 42  1  0
  7  2  1  0
 24 11  1  0
 30 25  1  0
 17 14  1  0
M  END
>  <cnnaffinity>  (1) 
-5.94423

>  <filename>  (1) 
Fc1ccccc1OCCc1nc(C2CSC2)nn1-c1cccnc1

$$$$
