
     RDKit          3D

 42 45  0  0  0  0  0  0  0  0999 V2000
    2.3453   -6.7602   24.4799 F   0  0  0  0  0  0  0  0  0  0  0  0
    2.7987   -5.5041   24.6288 C   0  0  0  0  0  0  0  0  0  0  0  0
    2.3102   -4.7220   25.6722 C   0  0  0  0  0  0  0  0  0  0  0  0
    2.8131   -3.4262   25.8317 C   0  0  0  0  0  0  0  0  0  0  0  0
    3.7796   -2.9193   24.9575 C   0  0  0  0  0  0  0  0  0  0  0  0
    4.2101   -3.6982   23.8651 C   0  0  0  0  0  0  0  0  0  0  0  0
    5.0352   -3.1166   22.7580 C   0  0  0  0  0  0  0  0  0  0  0  0
    6.0554   -2.2709   22.9405 N   0  0  0  0  0  0  0  0  0  0  0  0
    6.3513   -1.8487   21.6966 N   0  0  0  0  0  0  0  0  0  0  0  0
    7.0954   -0.6141   21.4488 C   0  0  0  0  0  0  0  0  0  0  0  0
    6.6102    0.1365   20.2203 C   0  0  0  0  0  0  0  0  0  0  0  0
    5.4297    0.8925   20.2696 C   0  0  0  0  0  0  0  0  0  0  0  0
    4.9652    1.4900   19.0946 C   0  0  0  0  0  0  0  0  0  0  0  0
    5.6962    1.3171   17.9163 C   0  0  0  0  0  0  0  0  0  0  0  0
    6.8332    0.6094   17.8504 N   0  0  0  0  0  0  0  0  0  0  0  0
    7.2698    0.0420   18.9841 C   0  0  0  0  0  0  0  0  0  0  0  0
    8.1967   -0.5313   18.9054 H   0  0  0  0  0  0  0  0  0  0  0  0
    5.3562    1.7659   16.9836 H   0  0  0  0  0  0  0  0  0  0  0  0
    4.0570    2.0809   19.0790 H   0  0  0  0  0  0  0  0  0  0  0  0
    4.8888    1.0076   21.2132 H   0  0  0  0  0  0  0  0  0  0  0  0
    6.9574   -0.0042   22.3485 H   0  0  0  0  0  0  0  0  0  0  0  0
    8.1674   -0.8432   21.3837 H   0  0  0  0  0  0  0  0  0  0  0  0
    5.6775   -2.7264   20.7163 C   0  0  0  0  0  0  0  0  0  0  0  0
    6.4259   -3.8687   20.2141 C   0  0  0  0  0  0  0  0  0  0  0  0
    7.5055   -4.4124   20.9848 C   0  0  0  0  0  0  0  0  0  0  0  0
    7.8948   -5.7386   20.8564 C   0  0  0  0  0  0  0  0  0  0  0  0
    8.2254   -5.8506   20.7621 C   0  0  0  0  0  0  0  0  0  0  0  0
    6.1332   -6.9652   22.0068 N   0  0  0  0  0  0  0  0  0  0  0  0
    7.2726   -7.1003   22.6215 N   0  0  0  0  0  0  0  0  0  0  0  0
    8.3242   -6.5419   22.1899 N   0  0  0  0  0  0  0  0  0  0  0  0
    5.5172   -7.5587   22.5621 H   0  0  0  0  0  0  0  0  0  0  0  0
    9.1901   -5.9020   20.2546 H   0  0  0  0  0  0  0  0  0  0  0  0
    7.0390   -4.4702   21.9915 H   0  0  0  0  0  0  0  0  0  0  0  0
    8.3141   -3.6097   21.0478 H   0  0  0  0  0  0  0  0  0  0  0  0
    5.2798   -2.1667   19.8064 H   0  0  0  0  0  0  0  0  0  0  0  0
    6.0711   -4.1922   19.2526 H   0  0  0  0  0  0  0  0  0  0  0  0
    4.6565   -3.3688   21.5245 N   0  0  0  0  0  0  0  0  0  0  0  0
    3.7196   -5.0097   23.7111 C   0  0  0  0  0  0  0  0  0  0  0  0
    4.0059   -5.6293   22.8681 H   0  0  0  0  0  0  0  0  0  0  0  0
    4.1770   -1.9147   25.1017 H   0  0  0  0  0  0  0  0  0  0  0  0
    2.4333   -2.7999   26.6357 H   0  0  0  0  0  0  0  0  0  0  0  0
    1.5474   -5.1324   26.3257 H   0  0  0  0  0  0  0  0  0  0  0  0
  1  2  1  0
  2  3  2  0
  3  4  1  0
  4  5  2  0
  5  6  1  0
  6  7  1  0
  7  8  2  0
  8  9  1  0
  9 10  1  0
 10 11  1  0
 11 12  2  0
 12 13  1  0
 13 14  2  0
 14 15  1  0
 15 16  2  0
 16 17  1  0
 14 18  1  0
 13 19  1  0
 12 20  1  0
 10 21  1  0
 10 22  1  0
  9 23  1  0
 23 24  1  0
 24 25  1  0
 25 26  1  0
 26 27  2  0
 27 28  1  0
 28 29  1  0
 29 30  2  0
 28 31  1  0
 27 32  1  0
 25 33  1  0
 25 34  1  0
 24 35  1  0
 24 36  1  0
 23 37  2  0
  6 38  2  0
 38 39  1  0
  5 40  1  0
  4 41  1  0
  3 42  1  0
 38  2  1  0
 37  7  1  0
 16 11  1  0
 30 26  1  0
M  END
>  <cnnaffinity>  (1) 
-5.66094

>  <filename>  (1) 
Fc1cccc(-c2nc(CCc3c[nH]nn3)n(Cc3cccnc3)n2)c1

$$$$
