
     RDKit          3D

 42 45  0  0  0  0  0  0  0  0999 V2000
   14.9106    0.6560   22.5634 F   0  0  0  0  0  0  0  0  0  0  0  0
   13.9233   -0.0835   22.0507 C   0  0  0  0  0  0  0  0  0  0  0  0
   14.2243   -1.1647   21.2234 C   0  0  0  0  0  0  0  0  0  0  0  0
   13.1726   -1.8968   20.7135 C   0  0  0  0  0  0  0  0  0  0  0  0
   13.4978   -2.8547   19.8416 F   0  0  0  0  0  0  0  0  0  0  0  0
   11.8592   -1.6402   21.0452 C   0  0  0  0  0  0  0  0  0  0  0  0
   11.5598   -0.4693   21.7584 C   0  0  0  0  0  0  0  0  0  0  0  0
   10.1288   -0.0674   21.8372 C   0  0  0  0  0  0  0  0  0  0  0  0
    9.1673   -0.8265   21.3171 N   0  0  0  0  0  0  0  0  0  0  0  0
    8.0345   -0.1703   21.6390 N   0  0  0  0  0  0  0  0  0  0  0  0
    6.7438   -0.6802   21.1877 C   0  0  0  0  0  0  0  0  0  0  0  0
    6.2191    0.0600   19.9765 C   0  0  0  0  0  0  0  0  0  0  0  0
    5.0221    0.7803   20.0012 C   0  0  0  0  0  0  0  0  0  0  0  0
    4.6229    1.4585   18.8472 C   0  0  0  0  0  0  0  0  0  0  0  0
    5.4421    1.3937   17.7159 C   0  0  0  0  0  0  0  0  0  0  0  0
    6.5946    0.7083   17.6709 N   0  0  0  0  0  0  0  0  0  0  0  0
    6.9736    0.0760   18.7881 C   0  0  0  0  0  0  0  0  0  0  0  0
    7.9357   -0.4363   18.7463 H   0  0  0  0  0  0  0  0  0  0  0  0
    5.1581    1.9152   16.8037 H   0  0  0  0  0  0  0  0  0  0  0  0
    3.7096    2.0425   18.8223 H   0  0  0  0  0  0  0  0  0  0  0  0
    4.4238    0.8274   20.9166 H   0  0  0  0  0  0  0  0  0  0  0  0
    6.8977   -1.7459   20.9791 H   0  0  0  0  0  0  0  0  0  0  0  0
    6.0330   -0.6233   22.0179 H   0  0  0  0  0  0  0  0  0  0  0  0
    8.3547    0.9550   22.3211 C   0  0  0  0  0  0  0  0  0  0  0  0
    7.3911    1.8868   22.9900 C   0  0  0  0  0  0  0  0  0  0  0  0
    7.3760    1.7239   24.5381 C   0  0  0  0  0  0  0  0  0  0  0  0
    7.1267    0.2988   24.9385 C   0  0  0  0  0  0  0  0  0  0  0  0
    5.9684   -0.4097   24.8035 C   0  0  0  0  0  0  0  0  0  0  0  0
    6.0609   -1.7762   24.8976 N   0  0  0  0  0  0  0  0  0  0  0  0
    7.2872   -2.1174   25.1479 C   0  0  0  0  0  0  0  0  0  0  0  0
    8.3959   -0.8060   25.3193 S   0  0  0  0  0  0  0  0  0  0  0  0
    7.6269   -3.1404   25.2493 H   0  0  0  0  0  0  0  0  0  0  0  0
    4.9962    0.0369   24.6190 H   0  0  0  0  0  0  0  0  0  0  0  0
    8.3269    2.0824   24.9543 H   0  0  0  0  0  0  0  0  0  0  0  0
    6.5911    2.3650   24.9512 H   0  0  0  0  0  0  0  0  0  0  0  0
    6.3841    1.7566   22.5744 H   0  0  0  0  0  0  0  0  0  0  0  0
    7.7054    2.9039   22.7421 H   0  0  0  0  0  0  0  0  0  0  0  0
    9.6680    1.0514   22.4444 N   0  0  0  0  0  0  0  0  0  0  0  0
   12.6073    0.2872   22.3238 C   0  0  0  0  0  0  0  0  0  0  0  0
   12.4174    1.1479   22.9588 H   0  0  0  0  0  0  0  0  0  0  0  0
   11.0548   -2.2995   20.7527 H   0  0  0  0  0  0  0  0  0  0  0  0
   15.1691   -1.4856   20.8416 H   0  0  0  0  0  0  0  0  0  0  0  0
  1  2  1  0
  2  3  2  0
  3  4  1  0
  4  5  1  0
  4  6  2  0
  6  7  1  0
  7  8  1  0
  8  9  2  0
  9 10  1  0
 10 11  1  0
 11 12  1  0
 12 13  2  0
 13 14  1  0
 14 15  2  0
 15 16  1  0
 16 17  2  0
 17 18  1  0
 15 19  1  0
 14 20  1  0
 13 21  1  0
 11 22  1  0
 11 23  1  0
 10 24  1  0
 24 25  1  0
 25 26  1  0
 26 27  1  0
 27 28  2  0
 28 29  1  0
 29 30  2  0
 30 31  1  0
 30 32  1  0
 28 33  1  0
 26 34  1  0
 26 35  1  0
 25 36  1  0
 25 37  1  0
 24 38  2  0
  7 39  2  0
 39 40  1  0
  6 41  1  0
  3 42  1  0
 39  2  1  0
 38  8  1  0
 17 12  1  0
 31 27  1  0
M  END
>  <cnnaffinity>  (1) 
-6.71204

>  <filename>  (1) 
Fc1cc(F)cc(-c2nc(CCc3cncs3)n(Cc3cccnc3)n2)c1

$$$$
