
     RDKit          3D

 46 50  0  0  0  0  0  0  0  0999 V2000
   15.4167   -1.2168   19.8962 F   0  0  0  0  0  0  0  0  0  0  0  0
   14.4068   -1.1755   20.7708 C   0  0  0  0  0  0  0  0  0  0  0  0
   13.3902   -2.0917   20.5825 C   0  0  0  0  0  0  0  0  0  0  0  0
   12.1576   -1.7909   21.1435 C   0  0  0  0  0  0  0  0  0  0  0  0
   11.9455   -0.5752   21.8216 C   0  0  0  0  0  0  0  0  0  0  0  0
   10.5451   -0.1161   21.8577 C   0  0  0  0  0  0  0  0  0  0  0  0
    9.5824   -0.8695   21.3402 N   0  0  0  0  0  0  0  0  0  0  0  0
    8.4802   -0.1150   21.4593 N   0  0  0  0  0  0  0  0  0  0  0  0
    7.2016   -0.6860   21.0425 C   0  0  0  0  0  0  0  0  0  0  0  0
    6.5238    0.0490   19.9110 C   0  0  0  0  0  0  0  0  0  0  0  0
    5.3021    0.7064   20.0792 C   0  0  0  0  0  0  0  0  0  0  0  0
    4.7354    1.3713   18.9905 C   0  0  0  0  0  0  0  0  0  0  0  0
    5.4140    1.3487   17.7688 C   0  0  0  0  0  0  0  0  0  0  0  0
    6.5818    0.7134   17.5819 N   0  0  0  0  0  0  0  0  0  0  0  0
    7.1177    0.0884   18.6367 C   0  0  0  0  0  0  0  0  0  0  0  0
    8.0650   -0.4212   18.4573 H   0  0  0  0  0  0  0  0  0  0  0  0
    5.0000    1.8535   16.8988 H   0  0  0  0  0  0  0  0  0  0  0  0
    3.7974    1.9068   19.0776 H   0  0  0  0  0  0  0  0  0  0  0  0
    4.8057    0.7022   21.0529 H   0  0  0  0  0  0  0  0  0  0  0  0
    7.4393   -1.7119   20.7443 H   0  0  0  0  0  0  0  0  0  0  0  0
    6.5414   -0.7591   21.9128 H   0  0  0  0  0  0  0  0  0  0  0  0
    8.8181    1.0463   22.0665 C   0  0  0  0  0  0  0  0  0  0  0  0
    7.8294    1.9500   22.7123 C   0  0  0  0  0  0  0  0  0  0  0  0
    7.3463    1.2775   23.9662 C   0  0  0  0  0  0  0  0  0  0  0  0
    6.1629    0.7289   24.3358 C   0  0  0  0  0  0  0  0  0  0  0  0
    6.4205    0.1868   25.6311 C   0  0  0  0  0  0  0  0  0  0  0  0
    5.4960   -0.4764   26.5696 C   0  0  0  0  0  0  0  0  0  0  0  0
    4.0351   -0.0958   26.5673 C   0  0  0  0  0  0  0  0  0  0  0  0
    4.4472   -1.4572   26.1039 C   0  0  0  0  0  0  0  0  0  0  0  0
    4.3983   -1.6794   25.0420 H   0  0  0  0  0  0  0  0  0  0  0  0
    4.2386   -2.3115   26.7407 H   0  0  0  0  0  0  0  0  0  0  0  0
    3.5338    0.0214   27.5223 H   0  0  0  0  0  0  0  0  0  0  0  0
    3.7189    0.6143   25.8044 H   0  0  0  0  0  0  0  0  0  0  0  0
    5.9605   -0.6834   27.5311 H   0  0  0  0  0  0  0  0  0  0  0  0
    7.6659    0.3931   25.9814 N   0  0  0  0  0  0  0  0  0  0  0  0
    8.2461    1.0691   24.9344 O   0  0  0  0  0  0  0  0  0  0  0  0
    5.2481    0.6852   23.7733 H   0  0  0  0  0  0  0  0  0  0  0  0
    6.9789    2.1516   22.0597 H   0  0  0  0  0  0  0  0  0  0  0  0
    8.3278    2.8896   22.9534 H   0  0  0  0  0  0  0  0  0  0  0  0
   10.1140    1.0893   22.3017 N   0  0  0  0  0  0  0  0  0  0  0  0
   13.0583    0.1925   22.2219 C   0  0  0  0  0  0  0  0  0  0  0  0
   14.3109   -0.1196   21.6918 C   0  0  0  0  0  0  0  0  0  0  0  0
   15.1386    0.5674   21.8211 H   0  0  0  0  0  0  0  0  0  0  0  0
   12.9583    1.0742   22.8581 H   0  0  0  0  0  0  0  0  0  0  0  0
   11.2734   -2.3947   20.9764 H   0  0  0  0  0  0  0  0  0  0  0  0
   13.5734   -2.9450   19.9340 H   0  0  0  0  0  0  0  0  0  0  0  0
  1  2  1  0
  2  3  2  0
  3  4  1  0
  4  5  2  0
  5  6  1  0
  6  7  2  0
  7  8  1  0
  8  9  1  0
  9 10  1  0
 10 11  2  0
 11 12  1  0
 12 13  2  0
 13 14  1  0
 14 15  2  0
 15 16  1  0
 13 17  1  0
 12 18  1  0
 11 19  1  0
  9 20  1  0
  9 21  1  0
  8 22  1  0
 22 23  1  0
 23 24  1  0
 24 25  2  0
 25 26  1  0
 26 27  1  0
 27 28  1  0
 28 29  1  0
 29 30  1  0
 29 31  1  0
 28 32  1  0
 28 33  1  0
 27 34  1  0
 26 35  2  0
 35 36  1  0
 25 37  1  0
 23 38  1  0
 23 39  1  0
 22 40  2  0
  5 41  1  0
 41 42  2  0
 42 43  1  0
 41 44  1  0
  4 45  1  0
  3 46  1  0
 42  2  1  0
 40  6  1  0
 15 10  1  0
 36 24  1  0
 29 27  1  0
M  END
>  <cnnaffinity>  (1) 
-6.7635

>  <filename>  (1) 
Fc1ccc(-c2nc(Cc3cc(C4CC4)no3)n(Cc3cccnc3)n2)cc1

$$$$
