
     RDKit          3D

 40 43  0  0  0  0  0  0  0  0999 V2000
    6.1613    3.7306   28.7680 F   0  0  0  0  0  0  0  0  0  0  0  0
    6.5124    3.1670   27.6023 C   0  0  0  0  0  0  0  0  0  0  0  0
    5.6878    2.1940   27.0426 C   0  0  0  0  0  0  0  0  0  0  0  0
    6.0484    1.6133   25.8239 C   0  0  0  0  0  0  0  0  0  0  0  0
    7.2330    2.0157   25.1664 C   0  0  0  0  0  0  0  0  0  0  0  0
    7.6689    1.4427   23.8698 C   0  0  0  0  0  0  0  0  0  0  0  0
    7.0583    0.4715   23.2087 N   0  0  0  0  0  0  0  0  0  0  0  0
    7.8342    0.2924   22.1122 N   0  0  0  0  0  0  0  0  0  0  0  0
    7.4282   -0.6390   21.0596 C   0  0  0  0  0  0  0  0  0  0  0  0
    6.7130    0.0343   19.9046 C   0  0  0  0  0  0  0  0  0  0  0  0
    5.4938    0.6927   20.1246 C   0  0  0  0  0  0  0  0  0  0  0  0
    4.8704    1.3243   19.0460 C   0  0  0  0  0  0  0  0  0  0  0  0
    5.4844    1.2756   17.7909 C   0  0  0  0  0  0  0  0  0  0  0  0
    6.6374    0.6301   17.5570 N   0  0  0  0  0  0  0  0  0  0  0  0
    7.2242    0.0273   18.5984 C   0  0  0  0  0  0  0  0  0  0  0  0
    8.1500   -0.5100   18.3737 H   0  0  0  0  0  0  0  0  0  0  0  0
    5.0282    1.7644   16.9304 H   0  0  0  0  0  0  0  0  0  0  0  0
    3.9304    1.8557   19.1612 H   0  0  0  0  0  0  0  0  0  0  0  0
    5.0514    0.7041   21.1239 H   0  0  0  0  0  0  0  0  0  0  0  0
    8.3104   -1.1872   20.7068 H   0  0  0  0  0  0  0  0  0  0  0  0
    6.7713   -1.3655   21.5476 H   0  0  0  0  0  0  0  0  0  0  0  0
    8.8525    1.1762   22.1536 C   0  0  0  0  0  0  0  0  0  0  0  0
    9.9557    1.2958   21.1704 C   0  0  0  0  0  0  0  0  0  0  0  0
   11.0258    0.3817   21.4989 N   0  0  0  0  0  0  0  0  0  0  0  0
   12.0046    0.5382   22.4107 C   0  0  0  0  0  0  0  0  0  0  0  0
   12.8277   -0.5616   22.3005 C   0  0  0  0  0  0  0  0  0  0  0  0
   12.2142   -1.3606   21.3171 C   0  0  0  0  0  0  0  0  0  0  0  0
   11.1103   -0.7828   20.8578 N   0  0  0  0  0  0  0  0  0  0  0  0
   12.5477   -2.2938   20.8770 H   0  0  0  0  0  0  0  0  0  0  0  0
   13.7481   -0.7961   22.8110 H   0  0  0  0  0  0  0  0  0  0  0  0
   11.9948    1.4110   23.0550 H   0  0  0  0  0  0  0  0  0  0  0  0
    9.6222    1.0438   20.1642 H   0  0  0  0  0  0  0  0  0  0  0  0
   10.3177    2.3303   21.1974 H   0  0  0  0  0  0  0  0  0  0  0  0
    8.7881    1.9025   23.2409 N   0  0  0  0  0  0  0  0  0  0  0  0
    8.0480    2.9973   25.7763 C   0  0  0  0  0  0  0  0  0  0  0  0
    7.6911    3.5774   26.9892 C   0  0  0  0  0  0  0  0  0  0  0  0
    8.2988    4.3384   27.4660 H   0  0  0  0  0  0  0  0  0  0  0  0
    8.9755    3.2947   25.2899 H   0  0  0  0  0  0  0  0  0  0  0  0
    5.4153    0.8364   25.3951 H   0  0  0  0  0  0  0  0  0  0  0  0
    4.7848    1.9161   27.5755 H   0  0  0  0  0  0  0  0  0  0  0  0
  1  2  1  0
  2  3  2  0
  3  4  1  0
  4  5  2  0
  5  6  1  0
  6  7  2  0
  7  8  1  0
  8  9  1  0
  9 10  1  0
 10 11  2  0
 11 12  1  0
 12 13  2  0
 13 14  1  0
 14 15  2  0
 15 16  1  0
 13 17  1  0
 12 18  1  0
 11 19  1  0
  9 20  1  0
  9 21  1  0
  8 22  1  0
 22 23  1  0
 23 24  1  0
 24 25  1  0
 25 26  2  0
 26 27  1  0
 27 28  2  0
 27 29  1  0
 26 30  1  0
 25 31  1  0
 23 32  1  0
 23 33  1  0
 22 34  2  0
  5 35  1  0
 35 36  2  0
 36 37  1  0
 35 38  1  0
  4 39  1  0
  3 40  1  0
 36  2  1  0
 34  6  1  0
 15 10  1  0
 28 24  1  0
M  END
>  <cnnaffinity>  (1) 
-5.99898

>  <filename>  (1) 
Fc1ccc(-c2nc(Cn3cccn3)n(Cc3cccnc3)n2)cc1

$$$$
