
     RDKit          3D

 42 45  0  0  0  0  0  0  0  0999 V2000
   13.9830    0.7006   23.9206 F   0  0  0  0  0  0  0  0  0  0  0  0
   13.1569    0.2684   22.9537 C   0  0  0  0  0  0  0  0  0  0  0  0
   13.4745   -0.9084   22.2757 C   0  0  0  0  0  0  0  0  0  0  0  0
   12.5541   -1.4300   21.3659 C   0  0  0  0  0  0  0  0  0  0  0  0
   11.3492   -0.7539   21.1240 C   0  0  0  0  0  0  0  0  0  0  0  0
   11.1166    0.4983   21.7059 C   0  0  0  0  0  0  0  0  0  0  0  0
    9.8849    1.3157   21.3449 C   0  0  0  0  0  0  0  0  0  0  0  0
    8.7600    1.1704   22.3159 C   0  0  0  0  0  0  0  0  0  0  0  0
    8.6558    1.8550   23.4321 N   0  0  0  0  0  0  0  0  0  0  0  0
    7.4931    1.3959   23.9988 C   0  0  0  0  0  0  0  0  0  0  0  0
    7.0356    1.9293   25.3363 C   0  0  0  0  0  0  0  0  0  0  0  0
    7.8365    2.9178   25.9576 C   0  0  0  0  0  0  0  0  0  0  0  0
    7.4754    3.4208   27.2030 C   0  0  0  0  0  0  0  0  0  0  0  0
    6.3232    2.9131   27.8022 C   0  0  0  0  0  0  0  0  0  0  0  0
    5.5865    1.9357   27.1263 C   0  0  0  0  0  0  0  0  0  0  0  0
    5.9118    1.4559   25.9217 N   0  0  0  0  0  0  0  0  0  0  0  0
    4.6935    1.5059   27.5748 H   0  0  0  0  0  0  0  0  0  0  0  0
    5.9928    3.2550   28.7743 H   0  0  0  0  0  0  0  0  0  0  0  0
    8.0812    4.1833   27.6929 H   0  0  0  0  0  0  0  0  0  0  0  0
    8.7330    3.2584   25.4528 H   0  0  0  0  0  0  0  0  0  0  0  0
    6.8883    0.4730   23.2608 N   0  0  0  0  0  0  0  0  0  0  0  0
    7.7110    0.3255   22.2012 N   0  0  0  0  0  0  0  0  0  0  0  0
    7.3687   -0.5925   21.1144 C   0  0  0  0  0  0  0  0  0  0  0  0
    6.6765    0.0692   19.9350 C   0  0  0  0  0  0  0  0  0  0  0  0
    5.4664    0.7453   20.1306 C   0  0  0  0  0  0  0  0  0  0  0  0
    4.8581    1.3592   19.0336 C   0  0  0  0  0  0  0  0  0  0  0  0
    5.4737    1.2770   17.7813 C   0  0  0  0  0  0  0  0  0  0  0  0
    6.6272    0.6266   17.5719 N   0  0  0  0  0  0  0  0  0  0  0  0
    7.2012    0.0445   18.6335 C   0  0  0  0  0  0  0  0  0  0  0  0
    8.1414   -0.4660   18.4248 H   0  0  0  0  0  0  0  0  0  0  0  0
    5.0210    1.7485   16.9092 H   0  0  0  0  0  0  0  0  0  0  0  0
    3.9306    1.9094   19.1344 H   0  0  0  0  0  0  0  0  0  0  0  0
    5.0360    0.7979   21.1338 H   0  0  0  0  0  0  0  0  0  0  0  0
    8.2768   -1.1091   20.7833 H   0  0  0  0  0  0  0  0  0  0  0  0
    6.7149   -1.3429   21.5664 H   0  0  0  0  0  0  0  0  0  0  0  0
    9.5279    1.0801   20.3384 H   0  0  0  0  0  0  0  0  0  0  0  0
   10.1424    2.3804   21.3464 H   0  0  0  0  0  0  0  0  0  0  0  0
   12.0172    1.0088   22.6489 C   0  0  0  0  0  0  0  0  0  0  0  0
   11.8303    1.9590   23.1426 H   0  0  0  0  0  0  0  0  0  0  0  0
   10.5775   -1.1807   20.4927 H   0  0  0  0  0  0  0  0  0  0  0  0
   12.7978   -2.3495   20.8400 H   0  0  0  0  0  0  0  0  0  0  0  0
   14.4223   -1.3973   22.4756 H   0  0  0  0  0  0  0  0  0  0  0  0
  1  2  1  0
  2  3  2  0
  3  4  1  0
  4  5  2  0
  5  6  1  0
  6  7  1  0
  7  8  1  0
  8  9  2  0
  9 10  1  0
 10 11  1  0
 11 12  2  0
 12 13  1  0
 13 14  2  0
 14 15  1  0
 15 16  2  0
 15 17  1  0
 14 18  1  0
 13 19  1  0
 12 20  1  0
 10 21  2  0
 21 22  1  0
 22 23  1  0
 23 24  1  0
 24 25  2  0
 25 26  1  0
 26 27  2  0
 27 28  1  0
 28 29  2  0
 29 30  1  0
 27 31  1  0
 26 32  1  0
 25 33  1  0
 23 34  1  0
 23 35  1  0
  7 36  1  0
  7 37  1  0
  6 38  2  0
 38 39  1  0
  5 40  1  0
  4 41  1  0
  3 42  1  0
 38  2  1  0
 22  8  1  0
 29 24  1  0
 16 11  1  0
M  END
>  <cnnaffinity>  (1) 
-6.07112

>  <filename>  (1) 
Fc1cccc(Cc2nc(-c3ccccn3)nn2Cc2cccnc2)c1

$$$$
