
     RDKit          3D

 43 46  0  0  0  0  0  0  0  0999 V2000
    8.5705    1.9079   27.0639 F   0  0  0  0  0  0  0  0  0  0  0  0
    8.7058    1.9383   25.7322 C   0  0  0  0  0  0  0  0  0  0  0  0
    9.9476    2.1299   25.1392 C   0  0  0  0  0  0  0  0  0  0  0  0
   10.0419    2.2088   23.7473 C   0  0  0  0  0  0  0  0  0  0  0  0
    8.9076    2.0653   22.9412 C   0  0  0  0  0  0  0  0  0  0  0  0
    9.0461    2.0082   21.4367 C   0  0  0  0  0  0  0  0  0  0  0  0
    9.5256    0.6137   20.9458 C   0  0  0  0  0  0  0  0  0  0  0  0
    8.6504   -0.5037   21.4009 C   0  0  0  0  0  0  0  0  0  0  0  0
    8.8832   -1.3256   22.4100 N   0  0  0  0  0  0  0  0  0  0  0  0
    7.6791   -1.9276   22.5891 C   0  0  0  0  0  0  0  0  0  0  0  0
    7.4029   -2.8210   23.7492 C   0  0  0  0  0  0  0  0  0  0  0  0
    6.4092   -2.2348   24.8113 C   0  0  0  0  0  0  0  0  0  0  0  0
    5.4247   -3.3890   24.5024 C   0  0  0  0  0  0  0  0  0  0  0  0
    6.4206   -3.9988   23.4859 C   0  0  0  0  0  0  0  0  0  0  0  0
    6.0612   -4.0489   22.4522 H   0  0  0  0  0  0  0  0  0  0  0  0
    6.8120   -4.9856   23.7491 H   0  0  0  0  0  0  0  0  0  0  0  0
    4.4770   -3.0674   24.0619 H   0  0  0  0  0  0  0  0  0  0  0  0
    5.1779   -4.0282   25.3546 H   0  0  0  0  0  0  0  0  0  0  0  0
    6.7978   -2.2110   25.8336 H   0  0  0  0  0  0  0  0  0  0  0  0
    6.0490   -1.2222   24.5842 H   0  0  0  0  0  0  0  0  0  0  0  0
    8.3742   -3.1085   24.1554 H   0  0  0  0  0  0  0  0  0  0  0  0
    6.7460   -1.5753   21.7237 N   0  0  0  0  0  0  0  0  0  0  0  0
    7.3758   -0.6676   20.9390 N   0  0  0  0  0  0  0  0  0  0  0  0
    6.6617    0.0037   19.9041 C   0  0  0  0  0  0  0  0  0  0  0  0
    5.4438    0.6404   20.1679 C   0  0  0  0  0  0  0  0  0  0  0  0
    4.8149    1.3089   19.1114 C   0  0  0  0  0  0  0  0  0  0  0  0
    5.4001    1.2964   17.8385 C   0  0  0  0  0  0  0  0  0  0  0  0
    6.5585    0.6718   17.5760 N   0  0  0  0  0  0  0  0  0  0  0  0
    7.1671    0.0505   18.5933 C   0  0  0  0  0  0  0  0  0  0  0  0
    8.1122   -0.4354   18.3660 H   0  0  0  0  0  0  0  0  0  0  0  0
    4.9214    1.7876   16.9936 H   0  0  0  0  0  0  0  0  0  0  0  0
    3.8821    1.8376   19.2624 H   0  0  0  0  0  0  0  0  0  0  0  0
    5.0138    0.6069   21.1740 H   0  0  0  0  0  0  0  0  0  0  0  0
   10.5258    0.3960   21.3261 H   0  0  0  0  0  0  0  0  0  0  0  0
    9.5817    0.6104   19.8562 H   0  0  0  0  0  0  0  0  0  0  0  0
    8.0861    2.2494   20.9662 H   0  0  0  0  0  0  0  0  0  0  0  0
    9.7630    2.7654   21.1044 H   0  0  0  0  0  0  0  0  0  0  0  0
    7.6693    1.8139   23.5575 C   0  0  0  0  0  0  0  0  0  0  0  0
    7.5729    1.7574   24.9395 C   0  0  0  0  0  0  0  0  0  0  0  0
    6.3922    1.5039   25.5269 F   0  0  0  0  0  0  0  0  0  0  0  0
    6.7746    1.6181   22.9770 H   0  0  0  0  0  0  0  0  0  0  0  0
   11.0165    2.3624   23.2873 H   0  0  0  0  0  0  0  0  0  0  0  0
   10.8325    2.1352   25.7570 H   0  0  0  0  0  0  0  0  0  0  0  0
  1  2  1  0
  2  3  2  0
  3  4  1  0
  4  5  2  0
  5  6  1  0
  6  7  1  0
  7  8  1  0
  8  9  2  0
  9 10  1  0
 10 11  1  0
 11 12  1  0
 12 13  1  0
 13 14  1  0
 14 15  1  0
 14 16  1  0
 13 17  1  0
 13 18  1  0
 12 19  1  0
 12 20  1  0
 11 21  1  0
 10 22  2  0
 22 23  1  0
 23 24  1  0
 24 25  2  0
 25 26  1  0
 26 27  2  0
 27 28  1  0
 28 29  2  0
 29 30  1  0
 27 31  1  0
 26 32  1  0
 25 33  1  0
  7 34  1  0
  7 35  1  0
  6 36  1  0
  6 37  1  0
  5 38  1  0
 38 39  2  0
 39 40  1  0
 38 41  1  0
  4 42  1  0
  3 43  1  0
 39  2  1  0
 23  8  1  0
 29 24  1  0
 14 11  1  0
M  END
>  <cnnaffinity>  (1) 
-6.17443

>  <filename>  (1) 
Fc1ccc(CCc2nc(C3CCC3)nn2-c2cccnc2)cc1F

$$$$
