
     RDKit          3D

 42 45  0  0  0  0  0  0  0  0999 V2000
   14.0251    0.7786   23.9072 F   0  0  0  0  0  0  0  0  0  0  0  0
   13.1807    0.3168   22.9710 C   0  0  0  0  0  0  0  0  0  0  0  0
   13.4968   -0.8765   22.3218 C   0  0  0  0  0  0  0  0  0  0  0  0
   12.5798   -1.4063   21.4104 C   0  0  0  0  0  0  0  0  0  0  0  0
   11.3787   -0.7300   21.1515 C   0  0  0  0  0  0  0  0  0  0  0  0
   11.1315    0.5212   21.7247 C   0  0  0  0  0  0  0  0  0  0  0  0
    9.8956    1.3276   21.3590 C   0  0  0  0  0  0  0  0  0  0  0  0
    8.7742    1.1881   22.3335 C   0  0  0  0  0  0  0  0  0  0  0  0
    8.6811    1.8723   23.4521 N   0  0  0  0  0  0  0  0  0  0  0  0
    7.5268    1.4163   24.0056 C   0  0  0  0  0  0  0  0  0  0  0  0
    7.0672    1.9178   25.3001 C   0  0  0  0  0  0  0  0  0  0  0  0
    5.9014    1.4704   25.9549 C   0  0  0  0  0  0  0  0  0  0  0  0
    5.6303    2.0379   27.1906 C   0  0  0  0  0  0  0  0  0  0  0  0
    4.5463    1.6537   27.8770 F   0  0  0  0  0  0  0  0  0  0  0  0
    6.4836    3.0071   27.7365 C   0  0  0  0  0  0  0  0  0  0  0  0
    7.5859    3.4288   27.1050 N   0  0  0  0  0  0  0  0  0  0  0  0
    7.8726    2.8886   25.9165 C   0  0  0  0  0  0  0  0  0  0  0  0
    8.7804    3.2311   25.4271 H   0  0  0  0  0  0  0  0  0  0  0  0
    6.2616    3.4403   28.7078 H   0  0  0  0  0  0  0  0  0  0  0  0
    5.2371    0.7093   25.5406 H   0  0  0  0  0  0  0  0  0  0  0  0
    6.9054    0.5042   23.2844 N   0  0  0  0  0  0  0  0  0  0  0  0
    7.7184    0.3534   22.2099 N   0  0  0  0  0  0  0  0  0  0  0  0
    7.3721   -0.5672   21.1290 C   0  0  0  0  0  0  0  0  0  0  0  0
    6.6814    0.0859   19.9419 C   0  0  0  0  0  0  0  0  0  0  0  0
    5.4642    0.7528   20.1265 C   0  0  0  0  0  0  0  0  0  0  0  0
    4.8577    1.3592   19.0237 C   0  0  0  0  0  0  0  0  0  0  0  0
    5.4819    1.2749   17.7759 C   0  0  0  0  0  0  0  0  0  0  0  0
    6.6392    0.6289   17.5736 N   0  0  0  0  0  0  0  0  0  0  0  0
    7.2129    0.0577   18.6423 C   0  0  0  0  0  0  0  0  0  0  0  0
    8.1584   -0.4480   18.4443 H   0  0  0  0  0  0  0  0  0  0  0  0
    5.0307    1.7399   16.8994 H   0  0  0  0  0  0  0  0  0  0  0  0
    3.9278    1.9086   19.1185 H   0  0  0  0  0  0  0  0  0  0  0  0
    5.0189    0.8094   21.1220 H   0  0  0  0  0  0  0  0  0  0  0  0
    6.7173   -1.3144   21.5850 H   0  0  0  0  0  0  0  0  0  0  0  0
    8.2742   -1.0982   20.8027 H   0  0  0  0  0  0  0  0  0  0  0  0
   10.1512    2.3914   21.3454 H   0  0  0  0  0  0  0  0  0  0  0  0
    9.5448    1.0831   20.3533 H   0  0  0  0  0  0  0  0  0  0  0  0
   12.0285    1.0409   22.6676 C   0  0  0  0  0  0  0  0  0  0  0  0
   11.8310    1.9880   23.1622 H   0  0  0  0  0  0  0  0  0  0  0  0
   10.6143   -1.1598   20.5127 H   0  0  0  0  0  0  0  0  0  0  0  0
   12.8141   -2.3351   20.8989 H   0  0  0  0  0  0  0  0  0  0  0  0
   14.4375   -1.3743   22.5414 H   0  0  0  0  0  0  0  0  0  0  0  0
  1  2  1  0
  2  3  2  0
  3  4  1  0
  4  5  2  0
  5  6  1  0
  6  7  1  0
  7  8  1  0
  8  9  2  0
  9 10  1  0
 10 11  1  0
 11 12  2  0
 12 13  1  0
 13 14  1  0
 13 15  2  0
 15 16  1  0
 16 17  2  0
 17 18  1  0
 15 19  1  0
 12 20  1  0
 10 21  2  0
 21 22  1  0
 22 23  1  0
 23 24  1  0
 24 25  2  0
 25 26  1  0
 26 27  2  0
 27 28  1  0
 28 29  2  0
 29 30  1  0
 27 31  1  0
 26 32  1  0
 25 33  1  0
 23 34  1  0
 23 35  1  0
  7 36  1  0
  7 37  1  0
  6 38  2  0
 38 39  1  0
  5 40  1  0
  4 41  1  0
  3 42  1  0
 38  2  1  0
 22  8  1  0
 29 24  1  0
 17 11  1  0
M  END
>  <cnnaffinity>  (1) 
-6.19447

>  <filename>  (1) 
Fc1cccc(Cc2nc(-c3cncc(F)c3)nn2Cc2cccnc2)c1

$$$$
