
     RDKit          3D

 23 24  0  0  0  0  0  0  0  0999 V2000
    5.3761    1.8363   16.9456 H   0  0  0  0  0  0  0  0  0  0  0  0
    5.6507    1.2622   17.8290 C   0  0  0  0  0  0  0  0  0  0  0  0
    6.7461    0.4934   17.7295 N   0  0  0  0  0  0  0  0  0  0  0  0
    7.1256   -0.2115   18.8100 C   0  0  0  0  0  0  0  0  0  0  0  0
    7.9941   -0.8556   18.6712 H   0  0  0  0  0  0  0  0  0  0  0  0
    6.4501   -0.1742   20.0625 C   0  0  0  0  0  0  0  0  0  0  0  0
    6.8557   -0.8421   21.2364 N   0  0  0  0  0  0  0  0  0  0  0  0
    6.3008   -0.6202   22.0547 H   0  0  0  0  0  0  0  0  0  0  0  0
    8.3972   -1.4402   21.5762 S   0  0  0  0  0  0  0  0  0  0  0  0
    9.3172    0.0260   22.0232 C   0  0  0  0  0  0  0  0  0  0  0  0
    9.5753    0.3251   23.3702 C   0  0  0  0  0  0  0  0  0  0  0  0
    9.0698   -0.2299   24.1627 H   0  0  0  0  0  0  0  0  0  0  0  0
   10.4225    1.2962   23.7424 N   0  0  0  0  0  0  0  0  0  0  0  0
   11.0484    2.0106   22.7898 C   0  0  0  0  0  0  0  0  0  0  0  0
   11.7604    2.7713   23.1079 H   0  0  0  0  0  0  0  0  0  0  0  0
   10.7969    1.8062   21.4292 C   0  0  0  0  0  0  0  0  0  0  0  0
   11.4244    2.5334   20.4955 F   0  0  0  0  0  0  0  0  0  0  0  0
    9.9040    0.8221   21.0314 C   0  0  0  0  0  0  0  0  0  0  0  0
    9.6771    0.6965   19.9796 H   0  0  0  0  0  0  0  0  0  0  0  0
    5.2707    0.5855   20.1123 C   0  0  0  0  0  0  0  0  0  0  0  0
    4.6872    0.5946   21.0342 H   0  0  0  0  0  0  0  0  0  0  0  0
    4.8776    1.3251   18.9948 C   0  0  0  0  0  0  0  0  0  0  0  0
    4.0038    1.9680   19.0138 H   0  0  0  0  0  0  0  0  0  0  0  0
  1  2  1  0
  2  3  2  0
  3  4  1  0
  4  5  1  0
  4  6  2  0
  6  7  1  0
  7  8  1  0
  7  9  1  0
  9 10  1  0
 10 11  2  0
 11 12  1  0
 11 13  1  0
 13 14  2  0
 14 15  1  0
 14 16  1  0
 16 17  1  0
 16 18  2  0
 18 19  1  0
  6 20  1  0
 20 21  1  0
 20 22  2  0
 22 23  1  0
 22  2  1  0
 18 10  1  0
M  END
>  <cnnaffinity>  (1) 
-5.04974

>  <filename>  (1) 
Fc1cncc(SNc2cccnc2)c1

$$$$
