
     RDKit          3D

 43 46  0  0  0  0  0  0  0  0999 V2000
    6.3996    1.5288   25.5147 F   0  0  0  0  0  0  0  0  0  0  0  0
    7.5916    1.7826   24.9463 C   0  0  0  0  0  0  0  0  0  0  0  0
    8.7069    1.9635   25.7593 C   0  0  0  0  0  0  0  0  0  0  0  0
    9.9457    2.1499   25.1400 C   0  0  0  0  0  0  0  0  0  0  0  0
   10.0249    2.2211   23.7544 C   0  0  0  0  0  0  0  0  0  0  0  0
   11.2396    2.4076   23.1977 F   0  0  0  0  0  0  0  0  0  0  0  0
    8.9070    2.0797   22.9270 C   0  0  0  0  0  0  0  0  0  0  0  0
    9.0520    2.0145   21.4239 C   0  0  0  0  0  0  0  0  0  0  0  0
    9.5307    0.6163   20.9424 C   0  0  0  0  0  0  0  0  0  0  0  0
    8.6523   -0.4970   21.4021 C   0  0  0  0  0  0  0  0  0  0  0  0
    8.8826   -1.3120   22.4170 N   0  0  0  0  0  0  0  0  0  0  0  0
    7.6805   -1.9168   22.5960 C   0  0  0  0  0  0  0  0  0  0  0  0
    7.4048   -2.8063   23.7599 C   0  0  0  0  0  0  0  0  0  0  0  0
    6.4154   -2.2127   24.8213 C   0  0  0  0  0  0  0  0  0  0  0  0
    5.4265   -3.3643   24.5200 C   0  0  0  0  0  0  0  0  0  0  0  0
    6.4175   -3.9813   23.5037 C   0  0  0  0  0  0  0  0  0  0  0  0
    6.0544   -4.0334   22.4715 H   0  0  0  0  0  0  0  0  0  0  0  0
    6.8061   -4.9678   23.7721 H   0  0  0  0  0  0  0  0  0  0  0  0
    4.4792   -3.0404   24.0798 H   0  0  0  0  0  0  0  0  0  0  0  0
    5.1817   -3.9987   25.3763 H   0  0  0  0  0  0  0  0  0  0  0  0
    6.0563   -1.2015   24.5883 H   0  0  0  0  0  0  0  0  0  0  0  0
    6.8063   -2.1868   25.8424 H   0  0  0  0  0  0  0  0  0  0  0  0
    8.3749   -3.0969   24.1671 H   0  0  0  0  0  0  0  0  0  0  0  0
    6.7480   -1.5698   21.7278 N   0  0  0  0  0  0  0  0  0  0  0  0
    7.3775   -0.6647   20.9391 N   0  0  0  0  0  0  0  0  0  0  0  0
    6.6622    0.0042   19.9040 C   0  0  0  0  0  0  0  0  0  0  0  0
    5.4437    0.6409   20.1677 C   0  0  0  0  0  0  0  0  0  0  0  0
    4.8147    1.3089   19.1114 C   0  0  0  0  0  0  0  0  0  0  0  0
    5.3998    1.2961   17.8387 C   0  0  0  0  0  0  0  0  0  0  0  0
    6.5583    0.6717   17.5765 N   0  0  0  0  0  0  0  0  0  0  0  0
    7.1675    0.0505   18.5933 C   0  0  0  0  0  0  0  0  0  0  0  0
    8.1127   -0.4355   18.3663 H   0  0  0  0  0  0  0  0  0  0  0  0
    4.9208    1.7871   16.9940 H   0  0  0  0  0  0  0  0  0  0  0  0
    3.8819    1.8376   19.2625 H   0  0  0  0  0  0  0  0  0  0  0  0
    5.0140    0.6075   21.1735 H   0  0  0  0  0  0  0  0  0  0  0  0
    9.5831    0.6089   19.8525 H   0  0  0  0  0  0  0  0  0  0  0  0
   10.5314    0.4059   21.3249 H   0  0  0  0  0  0  0  0  0  0  0  0
    9.7675    2.7707   21.0873 H   0  0  0  0  0  0  0  0  0  0  0  0
    8.0856    2.2502   20.9624 H   0  0  0  0  0  0  0  0  0  0  0  0
    7.6778    1.8281   23.5574 C   0  0  0  0  0  0  0  0  0  0  0  0
    6.7910    1.6275   22.9659 H   0  0  0  0  0  0  0  0  0  0  0  0
   10.8745    2.1577   25.6896 H   0  0  0  0  0  0  0  0  0  0  0  0
    8.6038    1.9308   26.8411 H   0  0  0  0  0  0  0  0  0  0  0  0
  1  2  1  0
  2  3  2  0
  3  4  1  0
  4  5  2  0
  5  6  1  0
  5  7  1  0
  7  8  1  0
  8  9  1  0
  9 10  1  0
 10 11  2  0
 11 12  1  0
 12 13  1  0
 13 14  1  0
 14 15  1  0
 15 16  1  0
 16 17  1  0
 16 18  1  0
 15 19  1  0
 15 20  1  0
 14 21  1  0
 14 22  1  0
 13 23  1  0
 12 24  2  0
 24 25  1  0
 25 26  1  0
 26 27  2  0
 27 28  1  0
 28 29  2  0
 29 30  1  0
 30 31  2  0
 31 32  1  0
 29 33  1  0
 28 34  1  0
 27 35  1  0
  9 36  1  0
  9 37  1  0
  8 38  1  0
  8 39  1  0
  7 40  2  0
 40 41  1  0
  4 42  1  0
  3 43  1  0
 40  2  1  0
 25 10  1  0
 31 26  1  0
 16 13  1  0
M  END
>  <cnnaffinity>  (1) 
-6.24881

>  <filename>  (1) 
Fc1ccc(F)c(CCc2nc(C3CCC3)nn2-c2cccnc2)c1

$$$$
