
     RDKit          3D

 41 44  0  0  0  0  0  0  0  0999 V2000
    8.5142    1.4466   26.9441 F   0  0  0  0  0  0  0  0  0  0  0  0
    8.6732    1.6413   25.6255 C   0  0  0  0  0  0  0  0  0  0  0  0
    9.9554    1.8325   25.1141 C   0  0  0  0  0  0  0  0  0  0  0  0
   10.0967    2.0352   23.7370 C   0  0  0  0  0  0  0  0  0  0  0  0
    8.9971    2.0300   22.8574 C   0  0  0  0  0  0  0  0  0  0  0  0
    9.1514    1.9640   21.3483 C   0  0  0  0  0  0  0  0  0  0  0  0
    9.5555    0.5368   20.8772 C   0  0  0  0  0  0  0  0  0  0  0  0
    8.6360   -0.5502   21.3488 C   0  0  0  0  0  0  0  0  0  0  0  0
    8.8395   -1.3673   22.3679 N   0  0  0  0  0  0  0  0  0  0  0  0
    7.6289   -1.9606   22.5352 C   0  0  0  0  0  0  0  0  0  0  0  0
    7.3564   -2.8540   23.6982 C   0  0  0  0  0  0  0  0  0  0  0  0
    6.4682   -2.2102   24.8075 C   0  0  0  0  0  0  0  0  0  0  0  0
    5.1971   -3.5093   24.6513 S   0  0  0  0  0  0  0  0  0  0  0  0
    6.4333   -4.0691   23.4279 C   0  0  0  0  0  0  0  0  0  0  0  0
    6.8908   -5.0210   23.7030 H   0  0  0  0  0  0  0  0  0  0  0  0
    6.0378   -4.1310   22.4089 H   0  0  0  0  0  0  0  0  0  0  0  0
    6.0895   -1.2098   24.5733 H   0  0  0  0  0  0  0  0  0  0  0  0
    6.9463   -2.1866   25.7892 H   0  0  0  0  0  0  0  0  0  0  0  0
    8.3424   -3.1363   24.0784 H   0  0  0  0  0  0  0  0  0  0  0  0
    6.7097   -1.6041   21.6614 N   0  0  0  0  0  0  0  0  0  0  0  0
    7.3687   -0.7132   20.8729 N   0  0  0  0  0  0  0  0  0  0  0  0
    6.6688   -0.0422   19.8367 C   0  0  0  0  0  0  0  0  0  0  0  0
    5.4708    0.6129   20.1221 C   0  0  0  0  0  0  0  0  0  0  0  0
    4.8326    1.3066   19.0913 C   0  0  0  0  0  0  0  0  0  0  0  0
    5.4094    1.3129   17.8153 C   0  0  0  0  0  0  0  0  0  0  0  0
    6.5398    0.6520   17.5265 N   0  0  0  0  0  0  0  0  0  0  0  0
    7.1440   -0.0135   18.5162 C   0  0  0  0  0  0  0  0  0  0  0  0
    8.0463   -0.5585   18.2507 H   0  0  0  0  0  0  0  0  0  0  0  0
    4.9430    1.8523   16.9935 H   0  0  0  0  0  0  0  0  0  0  0  0
    3.9084    1.8431   19.2670 H   0  0  0  0  0  0  0  0  0  0  0  0
    5.0728    0.5772   21.1370 H   0  0  0  0  0  0  0  0  0  0  0  0
   10.5497    0.2864   21.2607 H   0  0  0  0  0  0  0  0  0  0  0  0
    9.5977    0.5073   19.7876 H   0  0  0  0  0  0  0  0  0  0  0  0
    8.2089    2.2558   20.8657 H   0  0  0  0  0  0  0  0  0  0  0  0
    9.9155    2.6732   21.0133 H   0  0  0  0  0  0  0  0  0  0  0  0
    7.7410    1.8629   23.4557 C   0  0  0  0  0  0  0  0  0  0  0  0
    6.6374    1.8884   22.6819 F   0  0  0  0  0  0  0  0  0  0  0  0
    7.5494    1.6570   24.8150 C   0  0  0  0  0  0  0  0  0  0  0  0
    6.5584    1.4821   25.2186 H   0  0  0  0  0  0  0  0  0  0  0  0
   11.0918    2.1994   23.3299 H   0  0  0  0  0  0  0  0  0  0  0  0
   10.7935    1.7729   25.8007 H   0  0  0  0  0  0  0  0  0  0  0  0
  1  2  1  0
  2  3  2  0
  3  4  1  0
  4  5  2  0
  5  6  1  0
  6  7  1  0
  7  8  1  0
  8  9  2  0
  9 10  1  0
 10 11  1  0
 11 12  1  0
 12 13  1  0
 13 14  1  0
 14 15  1  0
 14 16  1  0
 12 17  1  0
 12 18  1  0
 11 19  1  0
 10 20  2  0
 20 21  1  0
 21 22  1  0
 22 23  2  0
 23 24  1  0
 24 25  2  0
 25 26  1  0
 26 27  2  0
 27 28  1  0
 25 29  1  0
 24 30  1  0
 23 31  1  0
  7 32  1  0
  7 33  1  0
  6 34  1  0
  6 35  1  0
  5 36  1  0
 36 37  1  0
 36 38  2  0
 38 39  1  0
  4 40  1  0
  3 41  1  0
 38  2  1  0
 21  8  1  0
 27 22  1  0
 14 11  1  0
M  END
>  <cnnaffinity>  (1) 
-5.95194

>  <filename>  (1) 
Fc1ccc(CCc2nc(C3CSC3)nn2-c2cccnc2)c(F)c1

$$$$
