
     RDKit          3D

 40 43  0  0  0  0  0  0  0  0999 V2000
    8.9895   -3.6788   25.1000 F   0  0  0  0  0  0  0  0  0  0  0  0
    7.9717   -4.3479   24.5285 C   0  0  0  0  0  0  0  0  0  0  0  0
    7.0800   -5.0070   25.3698 C   0  0  0  0  0  0  0  0  0  0  0  0
    6.0502   -5.7600   24.8082 C   0  0  0  0  0  0  0  0  0  0  0  0
    5.9286   -5.8617   23.4215 C   0  0  0  0  0  0  0  0  0  0  0  0
    6.8252   -5.1708   22.6010 C   0  0  0  0  0  0  0  0  0  0  0  0
    6.6192   -5.3606   20.8746 Cl  0  0  0  0  0  0  0  0  0  0  0  0
    7.8558   -4.3618   23.1249 C   0  0  0  0  0  0  0  0  0  0  0  0
    8.7507   -3.5018   22.2438 C   0  0  0  0  0  0  0  0  0  0  0  0
    8.2570   -2.1140   21.9741 C   0  0  0  0  0  0  0  0  0  0  0  0
    7.7743   -1.8074   20.7908 N   0  0  0  0  0  0  0  0  0  0  0  0
    7.3793   -0.5230   20.9368 N   0  0  0  0  0  0  0  0  0  0  0  0
    6.6496    0.1006   19.8917 C   0  0  0  0  0  0  0  0  0  0  0  0
    5.4289    0.7471   20.1153 C   0  0  0  0  0  0  0  0  0  0  0  0
    4.8081    1.3532   19.0182 C   0  0  0  0  0  0  0  0  0  0  0  0
    5.4248    1.2999   17.7633 C   0  0  0  0  0  0  0  0  0  0  0  0
    6.5635    0.6194   17.5378 N   0  0  0  0  0  0  0  0  0  0  0  0
    7.1392    0.0127   18.5773 C   0  0  0  0  0  0  0  0  0  0  0  0
    8.0251   -0.5852   18.3826 H   0  0  0  0  0  0  0  0  0  0  0  0
    4.9940    1.8161   16.9075 H   0  0  0  0  0  0  0  0  0  0  0  0
    3.8559    1.8599   19.1257 H   0  0  0  0  0  0  0  0  0  0  0  0
    4.9604    0.7293   21.1012 H   0  0  0  0  0  0  0  0  0  0  0  0
    7.7160   -0.0971   22.1894 C   0  0  0  0  0  0  0  0  0  0  0  0
    7.6063    1.3261   22.6336 C   0  0  0  0  0  0  0  0  0  0  0  0
    8.5465    2.2805   21.9047 C   0  0  0  0  0  0  0  0  0  0  0  0
    9.1242    3.4015   22.7165 C   0  0  0  0  0  0  0  0  0  0  0  0
   10.0058    2.2737   22.2594 C   0  0  0  0  0  0  0  0  0  0  0  0
   10.7203    2.4764   21.4637 H   0  0  0  0  0  0  0  0  0  0  0  0
   10.3422    1.5680   23.0185 H   0  0  0  0  0  0  0  0  0  0  0  0
    9.2356    4.3806   22.2663 H   0  0  0  0  0  0  0  0  0  0  0  0
    8.8691    3.4405   23.7752 H   0  0  0  0  0  0  0  0  0  0  0  0
    8.3044    2.4852   20.8597 H   0  0  0  0  0  0  0  0  0  0  0  0
    6.5792    1.6855   22.5249 H   0  0  0  0  0  0  0  0  0  0  0  0
    7.8266    1.3419   23.7064 H   0  0  0  0  0  0  0  0  0  0  0  0
    8.2641   -1.0895   22.8666 N   0  0  0  0  0  0  0  0  0  0  0  0
    8.8117   -3.9627   21.2560 H   0  0  0  0  0  0  0  0  0  0  0  0
    9.7521   -3.4091   22.6766 H   0  0  0  0  0  0  0  0  0  0  0  0
    5.1575   -6.4754   22.9698 H   0  0  0  0  0  0  0  0  0  0  0  0
    5.3497   -6.2876   25.4499 H   0  0  0  0  0  0  0  0  0  0  0  0
    7.2099   -4.9273   26.4434 H   0  0  0  0  0  0  0  0  0  0  0  0
  1  2  1  0
  2  3  2  0
  3  4  1  0
  4  5  2  0
  5  6  1  0
  6  7  1  0
  6  8  2  0
  8  9  1  0
  9 10  1  0
 10 11  2  0
 11 12  1  0
 12 13  1  0
 13 14  2  0
 14 15  1  0
 15 16  2  0
 16 17  1  0
 17 18  2  0
 18 19  1  0
 16 20  1  0
 15 21  1  0
 14 22  1  0
 12 23  1  0
 23 24  1  0
 24 25  1  0
 25 26  1  0
 26 27  1  0
 27 28  1  0
 27 29  1  0
 26 30  1  0
 26 31  1  0
 25 32  1  0
 24 33  1  0
 24 34  1  0
 23 35  2  0
  9 36  1  0
  9 37  1  0
  5 38  1  0
  4 39  1  0
  3 40  1  0
  8  2  1  0
 35 10  1  0
 18 13  1  0
 27 25  1  0
M  END
>  <cnnaffinity>  (1) 
-6.31147

>  <filename>  (1) 
Fc1cccc(Cl)c1Cc1nc(CC2CC2)n(-c2cccnc2)n1

$$$$
