
     RDKit          3D

 44 47  0  0  0  0  0  0  0  0999 V2000
   15.3930   -1.2284   19.9173 F   0  0  0  0  0  0  0  0  0  0  0  0
   14.3663   -1.1686   20.7677 C   0  0  0  0  0  0  0  0  0  0  0  0
   13.3336   -2.0649   20.5423 C   0  0  0  0  0  0  0  0  0  0  0  0
   12.1069   -1.7976   21.1249 C   0  0  0  0  0  0  0  0  0  0  0  0
   11.8900   -0.5909   21.8050 C   0  0  0  0  0  0  0  0  0  0  0  0
   10.4952   -0.1394   21.8710 C   0  0  0  0  0  0  0  0  0  0  0  0
    9.5153   -0.9209   21.4451 N   0  0  0  0  0  0  0  0  0  0  0  0
    8.4170   -0.1668   21.5900 N   0  0  0  0  0  0  0  0  0  0  0  0
    7.1339   -0.6848   21.1220 C   0  0  0  0  0  0  0  0  0  0  0  0
    6.5116    0.0683   19.9666 C   0  0  0  0  0  0  0  0  0  0  0  0
    5.2843    0.7262   20.0986 C   0  0  0  0  0  0  0  0  0  0  0  0
    4.7387    1.3757   18.9887 C   0  0  0  0  0  0  0  0  0  0  0  0
    5.4395    1.3400   17.7803 C   0  0  0  0  0  0  0  0  0  0  0  0
    6.6110    0.7030   17.6260 N   0  0  0  0  0  0  0  0  0  0  0  0
    7.1282    0.0938   18.7009 C   0  0  0  0  0  0  0  0  0  0  0  0
    8.0799   -0.4129   18.5403 H   0  0  0  0  0  0  0  0  0  0  0  0
    5.0441    1.8464   16.9007 H   0  0  0  0  0  0  0  0  0  0  0  0
    3.8010    1.9158   19.0530 H   0  0  0  0  0  0  0  0  0  0  0  0
    4.7606    0.7280   21.0579 H   0  0  0  0  0  0  0  0  0  0  0  0
    6.4420   -0.7178   21.9701 H   0  0  0  0  0  0  0  0  0  0  0  0
    7.3568   -1.7165   20.8347 H   0  0  0  0  0  0  0  0  0  0  0  0
    8.7712    1.0169   22.1390 C   0  0  0  0  0  0  0  0  0  0  0  0
    7.8155    1.8972   22.8831 C   0  0  0  0  0  0  0  0  0  0  0  0
    7.7571    1.4896   24.3954 C   0  0  0  0  0  0  0  0  0  0  0  0
    7.3942    0.0437   24.6061 C   0  0  0  0  0  0  0  0  0  0  0  0
    6.1216   -0.2769   24.7477 N   0  0  0  0  0  0  0  0  0  0  0  0
    5.8181   -1.5794   24.8949 C   0  0  0  0  0  0  0  0  0  0  0  0
    6.7961   -2.5560   24.8747 C   0  0  0  0  0  0  0  0  0  0  0  0
    6.4921   -3.8527   25.0180 F   0  0  0  0  0  0  0  0  0  0  0  0
    8.1118   -2.1325   24.6986 C   0  0  0  0  0  0  0  0  0  0  0  0
    8.4136   -0.8468   24.5631 N   0  0  0  0  0  0  0  0  0  0  0  0
    8.9247   -2.8594   24.6773 H   0  0  0  0  0  0  0  0  0  0  0  0
    4.7687   -1.8389   25.0235 H   0  0  0  0  0  0  0  0  0  0  0  0
    7.0324    2.1078   24.9277 H   0  0  0  0  0  0  0  0  0  0  0  0
    8.7476    1.6308   24.8378 H   0  0  0  0  0  0  0  0  0  0  0  0
    8.1689    2.9276   22.7896 H   0  0  0  0  0  0  0  0  0  0  0  0
    6.8219    1.8375   22.4200 H   0  0  0  0  0  0  0  0  0  0  0  0
   10.0863    1.0876   22.2715 N   0  0  0  0  0  0  0  0  0  0  0  0
   12.9908    0.1870   22.1951 C   0  0  0  0  0  0  0  0  0  0  0  0
   14.2626   -0.1397   21.7191 C   0  0  0  0  0  0  0  0  0  0  0  0
   15.1198    0.4697   21.9668 H   0  0  0  0  0  0  0  0  0  0  0  0
   12.8535    1.0947   22.7813 H   0  0  0  0  0  0  0  0  0  0  0  0
   11.2410   -2.4404   21.0178 H   0  0  0  0  0  0  0  0  0  0  0  0
   13.4796   -2.8766   19.8398 H   0  0  0  0  0  0  0  0  0  0  0  0
  1  2  1  0
  2  3  2  0
  3  4  1  0
  4  5  2  0
  5  6  1  0
  6  7  2  0
  7  8  1  0
  8  9  1  0
  9 10  1  0
 10 11  2  0
 11 12  1  0
 12 13  2  0
 13 14  1  0
 14 15  2  0
 15 16  1  0
 13 17  1  0
 12 18  1  0
 11 19  1  0
  9 20  1  0
  9 21  1  0
  8 22  1  0
 22 23  1  0
 23 24  1  0
 24 25  1  0
 25 26  2  0
 26 27  1  0
 27 28  2  0
 28 29  1  0
 28 30  1  0
 30 31  2  0
 30 32  1  0
 27 33  1  0
 24 34  1  0
 24 35  1  0
 23 36  1  0
 23 37  1  0
 22 38  2  0
  5 39  1  0
 39 40  2  0
 40 41  1  0
 39 42  1  0
  4 43  1  0
  3 44  1  0
 40  2  1  0
 38  6  1  0
 15 10  1  0
 31 25  1  0
M  END
>  <cnnaffinity>  (1) 
-6.90214

>  <filename>  (1) 
Fc1ccc(-c2nc(CCc3ncc(F)cn3)n(Cc3cccnc3)n2)cc1

$$$$
