
     RDKit          3D

 36 39  0  0  0  0  0  0  0  0999 V2000
   12.1672   -0.2930   21.9118 F   0  0  0  0  0  0  0  0  0  0  0  0
   11.5212    0.7738   22.4067 C   0  0  0  0  0  0  0  0  0  0  0  0
   12.0799    1.4768   23.4754 C   0  0  0  0  0  0  0  0  0  0  0  0
   11.4836    2.5363   24.0324 N   0  0  0  0  0  0  0  0  0  0  0  0
   10.2989    2.9102   23.5366 C   0  0  0  0  0  0  0  0  0  0  0  0
    9.6795    2.2482   22.4699 C   0  0  0  0  0  0  0  0  0  0  0  0
    8.1198    2.7784   21.9367 Cl  0  0  0  0  0  0  0  0  0  0  0  0
   10.2982    1.1511   21.8572 C   0  0  0  0  0  0  0  0  0  0  0  0
    9.6204    0.3342   20.7874 C   0  0  0  0  0  0  0  0  0  0  0  0
    8.6039   -0.5808   21.3601 C   0  0  0  0  0  0  0  0  0  0  0  0
    8.8384   -1.4181   22.3485 N   0  0  0  0  0  0  0  0  0  0  0  0
    7.6322   -2.0053   22.5377 C   0  0  0  0  0  0  0  0  0  0  0  0
    7.4247   -3.0570   23.5586 C   0  0  0  0  0  0  0  0  0  0  0  0
    6.8787   -4.3921   23.1284 C   0  0  0  0  0  0  0  0  0  0  0  0
    8.3129   -4.2756   23.5677 C   0  0  0  0  0  0  0  0  0  0  0  0
    9.0968   -4.3169   22.8126 H   0  0  0  0  0  0  0  0  0  0  0  0
    8.6042   -4.7031   24.5257 H   0  0  0  0  0  0  0  0  0  0  0  0
    6.1634   -4.8928   23.7769 H   0  0  0  0  0  0  0  0  0  0  0  0
    6.6696   -4.5052   22.0652 H   0  0  0  0  0  0  0  0  0  0  0  0
    7.1130   -2.6551   24.5204 H   0  0  0  0  0  0  0  0  0  0  0  0
    6.6733   -1.5876   21.7305 N   0  0  0  0  0  0  0  0  0  0  0  0
    7.3175   -0.6999   20.9314 N   0  0  0  0  0  0  0  0  0  0  0  0
    6.6412   -0.0048   19.8971 C   0  0  0  0  0  0  0  0  0  0  0  0
    5.4333    0.6429   20.1643 C   0  0  0  0  0  0  0  0  0  0  0  0
    4.8120    1.3137   19.1095 C   0  0  0  0  0  0  0  0  0  0  0  0
    5.3979    1.2965   17.8377 C   0  0  0  0  0  0  0  0  0  0  0  0
    6.5545    0.6692   17.5756 N   0  0  0  0  0  0  0  0  0  0  0  0
    7.1615    0.0456   18.5898 C   0  0  0  0  0  0  0  0  0  0  0  0
    8.1119   -0.4326   18.3612 H   0  0  0  0  0  0  0  0  0  0  0  0
    4.9219    1.7870   16.9934 H   0  0  0  0  0  0  0  0  0  0  0  0
    3.8811    1.8415   19.2594 H   0  0  0  0  0  0  0  0  0  0  0  0
    5.0159    0.6024   21.1742 H   0  0  0  0  0  0  0  0  0  0  0  0
    9.1636    1.0172   20.0705 H   0  0  0  0  0  0  0  0  0  0  0  0
   10.3402   -0.3224   20.2993 H   0  0  0  0  0  0  0  0  0  0  0  0
    9.8128    3.7663   23.9935 H   0  0  0  0  0  0  0  0  0  0  0  0
   13.0398    1.1582   23.8678 H   0  0  0  0  0  0  0  0  0  0  0  0
  1  2  1  0
  2  3  2  0
  3  4  1  0
  4  5  2  0
  5  6  1  0
  6  7  1  0
  6  8  2  0
  8  9  1  0
  9 10  1  0
 10 11  2  0
 11 12  1  0
 12 13  1  0
 13 14  1  0
 14 15  1  0
 15 16  1  0
 15 17  1  0
 14 18  1  0
 14 19  1  0
 13 20  1  0
 12 21  2  0
 21 22  1  0
 22 23  1  0
 23 24  2  0
 24 25  1  0
 25 26  2  0
 26 27  1  0
 27 28  2  0
 28 29  1  0
 26 30  1  0
 25 31  1  0
 24 32  1  0
  9 33  1  0
  9 34  1  0
  5 35  1  0
  3 36  1  0
  8  2  1  0
 22 10  1  0
 28 23  1  0
 15 13  1  0
M  END
>  <cnnaffinity>  (1) 
-6.46479

>  <filename>  (1) 
Fc1cncc(Cl)c1Cc1nc(C2CC2)nn1-c1cccnc1

$$$$
