
     RDKit          3D

 44 47  0  0  0  0  0  0  0  0999 V2000
    9.0395    5.7464   25.0654 F   0  0  0  0  0  0  0  0  0  0  0  0
    8.2361    5.1945   24.1442 C   0  0  0  0  0  0  0  0  0  0  0  0
    6.9935    5.7664   23.9195 C   0  0  0  0  0  0  0  0  0  0  0  0
    6.1713    5.1769   22.9534 C   0  0  0  0  0  0  0  0  0  0  0  0
    6.6047    4.0559   22.2557 C   0  0  0  0  0  0  0  0  0  0  0  0
    5.7729    3.5231   21.3392 F   0  0  0  0  0  0  0  0  0  0  0  0
    7.8731    3.4684   22.4872 C   0  0  0  0  0  0  0  0  0  0  0  0
    8.1983    2.3576   21.7701 O   0  0  0  0  0  0  0  0  0  0  0  0
    9.4872    1.7590   21.9065 C   0  0  0  0  0  0  0  0  0  0  0  0
    9.5392    0.5434   20.9811 C   0  0  0  0  0  0  0  0  0  0  0  0
    8.5931   -0.5237   21.4030 C   0  0  0  0  0  0  0  0  0  0  0  0
    8.8221   -1.3789   22.3751 N   0  0  0  0  0  0  0  0  0  0  0  0
    7.6316   -2.0294   22.5036 C   0  0  0  0  0  0  0  0  0  0  0  0
    7.4019   -3.0572   23.5583 C   0  0  0  0  0  0  0  0  0  0  0  0
    8.5145   -4.1387   23.7181 C   0  0  0  0  0  0  0  0  0  0  0  0
    8.7914   -3.6419   25.1567 C   0  0  0  0  0  0  0  0  0  0  0  0
    7.6677   -2.5874   25.0261 C   0  0  0  0  0  0  0  0  0  0  0  0
    6.8241   -2.7204   25.7081 H   0  0  0  0  0  0  0  0  0  0  0  0
    7.9945   -1.5452   25.1044 H   0  0  0  0  0  0  0  0  0  0  0  0
    9.7897   -3.2180   25.3000 H   0  0  0  0  0  0  0  0  0  0  0  0
    8.6397   -4.3859   25.9447 H   0  0  0  0  0  0  0  0  0  0  0  0
    8.1579   -5.1696   23.6484 H   0  0  0  0  0  0  0  0  0  0  0  0
    9.3486   -4.0241   23.0191 H   0  0  0  0  0  0  0  0  0  0  0  0
    6.4011   -3.4639   23.4006 H   0  0  0  0  0  0  0  0  0  0  0  0
    6.6992   -1.6416   21.6581 N   0  0  0  0  0  0  0  0  0  0  0  0
    7.3274   -0.6798   20.9291 N   0  0  0  0  0  0  0  0  0  0  0  0
    6.6518    0.0085   19.8928 C   0  0  0  0  0  0  0  0  0  0  0  0
    5.4350    0.6385   20.1594 C   0  0  0  0  0  0  0  0  0  0  0  0
    4.8106    1.3051   19.1050 C   0  0  0  0  0  0  0  0  0  0  0  0
    5.3981    1.2926   17.8336 C   0  0  0  0  0  0  0  0  0  0  0  0
    6.5548    0.6680   17.5700 N   0  0  0  0  0  0  0  0  0  0  0  0
    7.1670    0.0508   18.5861 C   0  0  0  0  0  0  0  0  0  0  0  0
    8.1130   -0.4350   18.3602 H   0  0  0  0  0  0  0  0  0  0  0  0
    4.9186    1.7875   16.9941 H   0  0  0  0  0  0  0  0  0  0  0  0
    3.8875    1.8444   19.2646 H   0  0  0  0  0  0  0  0  0  0  0  0
    5.0246    0.6250   21.1729 H   0  0  0  0  0  0  0  0  0  0  0  0
   10.5462    0.1217   21.0027 H   0  0  0  0  0  0  0  0  0  0  0  0
    9.3443    0.8511   19.9555 H   0  0  0  0  0  0  0  0  0  0  0  0
    9.6391    1.4273   22.9414 H   0  0  0  0  0  0  0  0  0  0  0  0
   10.2800    2.4722   21.6389 H   0  0  0  0  0  0  0  0  0  0  0  0
    8.6946    4.0671   23.4572 C   0  0  0  0  0  0  0  0  0  0  0  0
    9.6801    3.6796   23.6858 H   0  0  0  0  0  0  0  0  0  0  0  0
    5.1896    5.5821   22.7291 H   0  0  0  0  0  0  0  0  0  0  0  0
    6.6868    6.6450   24.4821 H   0  0  0  0  0  0  0  0  0  0  0  0
  1  2  1  0
  2  3  2  0
  3  4  1  0
  4  5  2  0
  5  6  1  0
  5  7  1  0
  7  8  1  0
  8  9  1  0
  9 10  1  0
 10 11  1  0
 11 12  2  0
 12 13  1  0
 13 14  1  0
 14 15  1  0
 15 16  1  0
 16 17  1  0
 17 18  1  0
 17 19  1  0
 16 20  1  0
 16 21  1  0
 15 22  1  0
 15 23  1  0
 14 24  1  0
 13 25  2  0
 25 26  1  0
 26 27  1  0
 27 28  2  0
 28 29  1  0
 29 30  2  0
 30 31  1  0
 31 32  2  0
 32 33  1  0
 30 34  1  0
 29 35  1  0
 28 36  1  0
 10 37  1  0
 10 38  1  0
  9 39  1  0
  9 40  1  0
  7 41  2  0
 41 42  1  0
  4 43  1  0
  3 44  1  0
 41  2  1  0
 26 11  1  0
 32 27  1  0
 17 14  1  0
M  END
>  <cnnaffinity>  (1) 
-6.26388

>  <filename>  (1) 
Fc1ccc(F)c(OCCc2nc(C3CCC3)nn2-c2cccnc2)c1

$$$$
