
     RDKit          3D

 43 46  0  0  0  0  0  0  0  0999 V2000
    4.9806    1.8364   17.0149 H   0  0  0  0  0  0  0  0  0  0  0  0
    5.4529    1.2993   17.8336 C   0  0  0  0  0  0  0  0  0  0  0  0
    6.6181    0.6929   17.5590 N   0  0  0  0  0  0  0  0  0  0  0  0
    7.2291    0.0424   18.5605 C   0  0  0  0  0  0  0  0  0  0  0  0
    8.1602   -0.4541   18.3053 H   0  0  0  0  0  0  0  0  0  0  0  0
    6.7368   -0.0594   19.8930 C   0  0  0  0  0  0  0  0  0  0  0  0
    7.3955   -0.8143   20.8704 N   0  0  0  0  0  0  0  0  0  0  0  0
    6.9540   -0.8531   22.2696 C   0  0  1  0  0  0  0  0  0  0  0  0
    5.8824   -1.0290   22.3070 H   0  0  0  0  0  0  0  0  0  0  0  0
    7.7257   -2.0720   22.8075 C   0  0  0  0  0  0  0  0  0  0  0  0
    7.9169   -1.9921   23.8828 H   0  0  0  0  0  0  0  0  0  0  0  0
    7.1284   -2.9739   22.6455 H   0  0  0  0  0  0  0  0  0  0  0  0
    9.0140   -2.1099   21.9463 C   0  0  0  0  0  0  0  0  0  0  0  0
    9.0523   -3.0373   21.3679 H   0  0  0  0  0  0  0  0  0  0  0  0
    9.9297   -2.0398   22.5409 H   0  0  0  0  0  0  0  0  0  0  0  0
    8.8593   -0.9133   20.9822 C   0  0  2  0  0  0  0  0  0  0  0  0
    9.3150   -1.1344   20.0099 H   0  0  0  0  0  0  0  0  0  0  0  0
    9.4257    0.4161   21.5346 C   0  0  0  0  0  0  0  0  0  0  0  0
   10.5158    0.3350   21.6303 H   0  0  0  0  0  0  0  0  0  0  0  0
    9.2409    1.1770   20.7661 H   0  0  0  0  0  0  0  0  0  0  0  0
    8.7927    0.8905   22.8775 C   0  0  2  0  0  0  0  0  0  0  0  0
    8.8172    1.9915   22.8526 H   0  0  0  0  0  0  0  0  0  0  0  0
    9.6216    0.4911   24.1332 C   0  0  0  0  0  0  0  0  0  0  0  0
    9.6153   -0.5987   24.2623 H   0  0  0  0  0  0  0  0  0  0  0  0
   10.6673    0.7754   23.9558 H   0  0  0  0  0  0  0  0  0  0  0  0
    9.1480    1.1909   25.3986 C   0  0  0  0  0  0  0  0  0  0  0  0
    8.4673    0.5062   26.4224 C   0  0  0  0  0  0  0  0  0  0  0  0
    8.4049   -0.5819   26.3881 H   0  0  0  0  0  0  0  0  0  0  0  0
    7.8342    1.1901   27.4701 C   0  0  0  0  0  0  0  0  0  0  0  0
    7.2890    0.6651   28.2475 H   0  0  0  0  0  0  0  0  0  0  0  0
    7.9167    2.5807   27.4935 C   0  0  0  0  0  0  0  0  0  0  0  0
    7.2854    3.2700   28.4613 F   0  0  0  0  0  0  0  0  0  0  0  0
    8.6445    3.2926   26.5401 C   0  0  0  0  0  0  0  0  0  0  0  0
    8.6739    4.3738   26.6158 H   0  0  0  0  0  0  0  0  0  0  0  0
    9.2797    2.5914   25.5114 C   0  0  0  0  0  0  0  0  0  0  0  0
    9.8832    3.1322   24.7778 H   0  0  0  0  0  0  0  0  0  0  0  0
    7.2985    0.4707   22.9857 C   0  0  0  0  0  0  0  0  0  0  0  0
    6.6782    1.2614   22.5512 H   0  0  0  0  0  0  0  0  0  0  0  0
    6.9945    0.3926   24.0364 H   0  0  0  0  0  0  0  0  0  0  0  0
    5.5062    0.5866   20.1410 C   0  0  0  0  0  0  0  0  0  0  0  0
    5.0743    0.5632   21.1384 H   0  0  0  0  0  0  0  0  0  0  0  0
    4.8681    1.2682   19.1028 C   0  0  0  0  0  0  0  0  0  0  0  0
    3.9336    1.7833   19.2745 H   0  0  0  0  0  0  0  0  0  0  0  0
  1  2  1  0
  2  3  2  0
  3  4  1  0
  4  5  1  0
  4  6  2  0
  6  7  1  0
  7  8  1  0
  8  9  1  6
  8 10  1  0
 10 11  1  0
 10 12  1  0
 10 13  1  0
 13 14  1  0
 13 15  1  0
 13 16  1  0
 16 17  1  6
 16 18  1  0
 18 19  1  0
 18 20  1  0
 18 21  1  0
 21 22  1  6
 21 23  1  0
 23 24  1  0
 23 25  1  0
 23 26  1  0
 26 27  2  0
 27 28  1  0
 27 29  1  0
 29 30  1  0
 29 31  2  0
 31 32  1  0
 31 33  1  0
 33 34  1  0
 33 35  2  0
 35 36  1  0
 21 37  1  0
 37 38  1  0
 37 39  1  0
  6 40  1  0
 40 41  1  0
 40 42  2  0
 42 43  1  0
 42  2  1  0
 16  7  1  0
 35 26  1  0
 37  8  1  0
M  END
>  <cnnaffinity>  (1) 
-5.54649

>  <filename>  (1) 
Fc1ccc(C[C@H]2C[C@H]3CC[C@@H](C2)N3c2cccnc2)cc1

$$$$
