
     RDKit          3D

 41 44  0  0  0  0  0  0  0  0999 V2000
   13.8138   -2.2154   21.2470 F   0  0  0  0  0  0  0  0  0  0  0  0
   13.0888   -1.2654   21.8587 C   0  0  0  0  0  0  0  0  0  0  0  0
   13.7753   -0.2703   22.5564 C   0  0  0  0  0  0  0  0  0  0  0  0
   13.0479    0.7277   23.2084 C   0  0  0  0  0  0  0  0  0  0  0  0
   11.6535    0.7141   23.1676 C   0  0  0  0  0  0  0  0  0  0  0  0
   10.9661   -0.2639   22.4131 C   0  0  0  0  0  0  0  0  0  0  0  0
    9.4877   -0.1383   22.2787 C   0  0  0  0  0  0  0  0  0  0  0  0
    8.6661   -1.0300   21.7477 N   0  0  0  0  0  0  0  0  0  0  0  0
    7.4465   -0.4314   21.8483 N   0  0  0  0  0  0  0  0  0  0  0  0
    6.3122   -0.9277   21.0637 C   0  0  0  0  0  0  0  0  0  0  0  0
    5.9795   -0.0621   19.8636 C   0  0  0  0  0  0  0  0  0  0  0  0
    4.7825    0.6548   19.7357 C   0  0  0  0  0  0  0  0  0  0  0  0
    4.6107    1.4767   18.6192 C   0  0  0  0  0  0  0  0  0  0  0  0
    5.6218    1.5234   17.6578 C   0  0  0  0  0  0  0  0  0  0  0  0
    6.7630    0.8260   17.7488 N   0  0  0  0  0  0  0  0  0  0  0  0
    6.9322    0.0703   18.8402 C   0  0  0  0  0  0  0  0  0  0  0  0
    7.8718   -0.4805   18.9084 H   0  0  0  0  0  0  0  0  0  0  0  0
    5.5033    2.1324   16.7636 H   0  0  0  0  0  0  0  0  0  0  0  0
    3.7259    2.0896   18.4935 H   0  0  0  0  0  0  0  0  0  0  0  0
    3.9896    0.5788   20.4846 H   0  0  0  0  0  0  0  0  0  0  0  0
    5.4408   -1.0086   21.7069 H   0  0  0  0  0  0  0  0  0  0  0  0
    6.5915   -1.9437   20.7703 H   0  0  0  0  0  0  0  0  0  0  0  0
    7.5953    0.7794   22.4305 C   0  0  0  0  0  0  0  0  0  0  0  0
    6.5006    1.6043   23.0396 C   0  0  0  0  0  0  0  0  0  0  0  0
    6.2949    1.1944   24.4802 C   0  0  0  0  0  0  0  0  0  0  0  0
    5.2780    0.5268   25.1132 C   0  0  0  0  0  0  0  0  0  0  0  0
    5.7463    0.1718   26.4129 C   0  0  0  0  0  0  0  0  0  0  0  0
    7.0203    0.6611   26.5396 C   0  0  0  0  0  0  0  0  0  0  0  0
    7.3305    1.3121   25.3731 N   0  0  0  0  0  0  0  0  0  0  0  0
    8.2553    1.5729   25.0696 H   0  0  0  0  0  0  0  0  0  0  0  0
    7.7268    0.6075   27.3591 H   0  0  0  0  0  0  0  0  0  0  0  0
    5.2105   -0.3944   27.1610 H   0  0  0  0  0  0  0  0  0  0  0  0
    4.3069    0.3091   24.6896 H   0  0  0  0  0  0  0  0  0  0  0  0
    6.8315    2.6463   22.9810 H   0  0  0  0  0  0  0  0  0  0  0  0
    5.5729    1.5091   22.4683 H   0  0  0  0  0  0  0  0  0  0  0  0
    8.8678    1.0026   22.6889 N   0  0  0  0  0  0  0  0  0  0  0  0
   11.6982   -1.2723   21.7550 C   0  0  0  0  0  0  0  0  0  0  0  0
   11.1933   -2.0375   21.1694 H   0  0  0  0  0  0  0  0  0  0  0  0
   11.0914    1.4818   23.6908 H   0  0  0  0  0  0  0  0  0  0  0  0
   13.5688    1.5423   23.7107 H   0  0  0  0  0  0  0  0  0  0  0  0
   14.8579   -0.2866   22.5609 H   0  0  0  0  0  0  0  0  0  0  0  0
  1  2  1  0
  2  3  2  0
  3  4  1  0
  4  5  2  0
  5  6  1  0
  6  7  1  0
  7  8  2  0
  8  9  1  0
  9 10  1  0
 10 11  1  0
 11 12  2  0
 12 13  1  0
 13 14  2  0
 14 15  1  0
 15 16  2  0
 16 17  1  0
 14 18  1  0
 13 19  1  0
 12 20  1  0
 10 21  1  0
 10 22  1  0
  9 23  1  0
 23 24  1  0
 24 25  1  0
 25 26  2  0
 26 27  1  0
 27 28  2  0
 28 29  1  0
 29 30  1  0
 28 31  1  0
 27 32  1  0
 26 33  1  0
 24 34  1  0
 24 35  1  0
 23 36  2  0
  6 37  2  0
 37 38  1  0
  5 39  1  0
  4 40  1  0
  3 41  1  0
 37  2  1  0
 36  7  1  0
 16 11  1  0
 29 25  1  0
M  END
>  <cnnaffinity>  (1) 
-6.00139

>  <filename>  (1) 
Fc1cccc(-c2nc(Cc3ccc[nH]3)n(Cc3cccnc3)n2)c1

$$$$
