
     RDKit          3D

 42 45  0  0  0  0  0  0  0  0999 V2000
   12.3010   -0.3668   21.8630 F   0  0  0  0  0  0  0  0  0  0  0  0
   11.6397    0.6702   22.4058 C   0  0  0  0  0  0  0  0  0  0  0  0
   12.2454    1.3918   23.4403 C   0  0  0  0  0  0  0  0  0  0  0  0
   11.6553    2.4542   24.0067 N   0  0  0  0  0  0  0  0  0  0  0  0
   10.4541    2.8267   23.5492 C   0  0  0  0  0  0  0  0  0  0  0  0
    9.7913    2.1422   22.5206 C   0  0  0  0  0  0  0  0  0  0  0  0
    8.2508    2.7279   21.9778 Cl  0  0  0  0  0  0  0  0  0  0  0  0
   10.3714    1.0091   21.9272 C   0  0  0  0  0  0  0  0  0  0  0  0
    9.6479    0.1763   20.8886 C   0  0  0  0  0  0  0  0  0  0  0  0
    8.5118   -0.6274   21.4432 C   0  0  0  0  0  0  0  0  0  0  0  0
    8.6076   -1.3889   22.5239 N   0  0  0  0  0  0  0  0  0  0  0  0
    7.3848   -1.9683   22.6179 C   0  0  0  0  0  0  0  0  0  0  0  0
    7.0290   -2.9133   23.7220 C   0  0  0  0  0  0  0  0  0  0  0  0
    7.0829   -4.4028   23.3503 C   0  0  0  0  0  0  0  0  0  0  0  0
    8.4784   -4.8629   22.8644 C   0  0  0  0  0  0  0  0  0  0  0  0
    7.9376   -4.9339   21.4167 C   0  0  0  0  0  0  0  0  0  0  0  0
    6.5008   -4.8047   21.9718 C   0  0  0  0  0  0  0  0  0  0  0  0
    5.8499   -4.0771   21.4803 H   0  0  0  0  0  0  0  0  0  0  0  0
    5.9803   -5.7661   22.0213 H   0  0  0  0  0  0  0  0  0  0  0  0
    8.2255   -4.0459   20.8512 H   0  0  0  0  0  0  0  0  0  0  0  0
    8.1751   -5.8270   20.8255 H   0  0  0  0  0  0  0  0  0  0  0  0
    9.2882   -4.1446   23.0323 H   0  0  0  0  0  0  0  0  0  0  0  0
    8.7853   -5.8323   23.2735 H   0  0  0  0  0  0  0  0  0  0  0  0
    6.6806   -4.9907   24.1836 H   0  0  0  0  0  0  0  0  0  0  0  0
    7.7317   -2.7305   24.5403 H   0  0  0  0  0  0  0  0  0  0  0  0
    6.0308   -2.6690   24.0898 H   0  0  0  0  0  0  0  0  0  0  0  0
    6.5401   -1.6215   21.6648 N   0  0  0  0  0  0  0  0  0  0  0  0
    7.2655   -0.7719   20.8885 N   0  0  0  0  0  0  0  0  0  0  0  0
    6.6004   -0.0648   19.8370 C   0  0  0  0  0  0  0  0  0  0  0  0
    5.4011    0.6121   20.0974 C   0  0  0  0  0  0  0  0  0  0  0  0
    4.8015    1.3290   19.0604 C   0  0  0  0  0  0  0  0  0  0  0  0
    5.4010    1.3234   17.7939 C   0  0  0  0  0  0  0  0  0  0  0  0
    6.5259    0.6434   17.5222 N   0  0  0  0  0  0  0  0  0  0  0  0
    7.1033   -0.0340   18.5226 C   0  0  0  0  0  0  0  0  0  0  0  0
    8.0043   -0.5893   18.2707 H   0  0  0  0  0  0  0  0  0  0  0  0
    4.9515    1.8637   16.9638 H   0  0  0  0  0  0  0  0  0  0  0  0
    3.8817    1.8869   19.2177 H   0  0  0  0  0  0  0  0  0  0  0  0
    4.9631    0.5622   21.0975 H   0  0  0  0  0  0  0  0  0  0  0  0
   10.3525   -0.5358   20.4524 H   0  0  0  0  0  0  0  0  0  0  0  0
    9.2965    0.8357   20.0928 H   0  0  0  0  0  0  0  0  0  0  0  0
    9.9917    3.7039   24.0017 H   0  0  0  0  0  0  0  0  0  0  0  0
   13.2290    1.0912   23.7954 H   0  0  0  0  0  0  0  0  0  0  0  0
  1  2  1  0
  2  3  2  0
  3  4  1  0
  4  5  2  0
  5  6  1  0
  6  7  1  0
  6  8  2  0
  8  9  1  0
  9 10  1  0
 10 11  2  0
 11 12  1  0
 12 13  1  0
 13 14  1  0
 14 15  1  0
 15 16  1  0
 16 17  1  0
 17 18  1  0
 17 19  1  0
 16 20  1  0
 16 21  1  0
 15 22  1  0
 15 23  1  0
 14 24  1  0
 13 25  1  0
 13 26  1  0
 12 27  2  0
 27 28  1  0
 28 29  1  0
 29 30  2  0
 30 31  1  0
 31 32  2  0
 32 33  1  0
 33 34  2  0
 34 35  1  0
 32 36  1  0
 31 37  1  0
 30 38  1  0
  9 39  1  0
  9 40  1  0
  5 41  1  0
  3 42  1  0
  8  2  1  0
 28 10  1  0
 34 29  1  0
 17 14  1  0
M  END
>  <cnnaffinity>  (1) 
-6.53854

>  <filename>  (1) 
Fc1cncc(Cl)c1Cc1nc(CC2CCC2)nn1-c1cccnc1

$$$$
