
     RDKit          3D

 42 45  0  0  0  0  0  0  0  0999 V2000
    3.3051    5.0899   26.2453 F   0  0  0  0  0  0  0  0  0  0  0  0
    3.9858    4.1719   25.5376 C   0  0  0  0  0  0  0  0  0  0  0  0
    3.4934    2.8751   25.4426 C   0  0  0  0  0  0  0  0  0  0  0  0
    4.1792    1.9378   24.6587 C   0  0  0  0  0  0  0  0  0  0  0  0
    5.3507    2.2956   23.9670 C   0  0  0  0  0  0  0  0  0  0  0  0
    5.8600    1.3504   23.1209 O   0  0  0  0  0  0  0  0  0  0  0  0
    7.2588    1.3141   22.7928 C   0  0  0  0  0  0  0  0  0  0  0  0
    7.5793   -0.0503   22.2842 C   0  0  0  0  0  0  0  0  0  0  0  0
    8.2090   -0.9970   22.9526 N   0  0  0  0  0  0  0  0  0  0  0  0
    8.2172   -2.0373   22.0805 C   0  0  0  0  0  0  0  0  0  0  0  0
    8.6473   -3.4453   22.4037 C   0  0  0  0  0  0  0  0  0  0  0  0
    7.6074   -4.2662   23.2342 C   0  0  0  0  0  0  0  0  0  0  0  0
    8.5241   -5.1566   24.0863 C   0  0  0  0  0  0  0  0  0  0  0  0
    9.6657   -4.1827   24.3635 C   0  0  0  0  0  0  0  0  0  0  0  0
    9.8695   -3.5121   23.1272 O   0  0  0  0  0  0  0  0  0  0  0  0
    9.3881   -3.4576   25.1453 H   0  0  0  0  0  0  0  0  0  0  0  0
   10.6182   -4.6333   24.6501 H   0  0  0  0  0  0  0  0  0  0  0  0
    8.0598   -5.5648   24.9919 H   0  0  0  0  0  0  0  0  0  0  0  0
    8.8919   -6.0111   23.5042 H   0  0  0  0  0  0  0  0  0  0  0  0
    7.0210   -3.5896   23.8738 H   0  0  0  0  0  0  0  0  0  0  0  0
    6.8965   -4.8214   22.6127 H   0  0  0  0  0  0  0  0  0  0  0  0
    8.7915   -3.9090   21.4246 H   0  0  0  0  0  0  0  0  0  0  0  0
    7.6515   -1.7817   20.9176 N   0  0  0  0  0  0  0  0  0  0  0  0
    7.2341   -0.5000   21.0413 N   0  0  0  0  0  0  0  0  0  0  0  0
    6.5668    0.1273   19.9581 C   0  0  0  0  0  0  0  0  0  0  0  0
    5.3967    0.8726   20.1314 C   0  0  0  0  0  0  0  0  0  0  0  0
    4.8257    1.4491   18.9912 C   0  0  0  0  0  0  0  0  0  0  0  0
    5.4456    1.2810   17.7500 C   0  0  0  0  0  0  0  0  0  0  0  0
    6.5598    0.5474   17.5822 N   0  0  0  0  0  0  0  0  0  0  0  0
    7.0859   -0.0331   18.6622 C   0  0  0  0  0  0  0  0  0  0  0  0
    7.9709   -0.6475   18.5135 H   0  0  0  0  0  0  0  0  0  0  0  0
    5.0265    1.7317   16.8516 H   0  0  0  0  0  0  0  0  0  0  0  0
    3.9088    2.0215   19.0632 H   0  0  0  0  0  0  0  0  0  0  0  0
    4.9619    0.9909   21.1193 H   0  0  0  0  0  0  0  0  0  0  0  0
    7.8743    1.4887   23.6791 H   0  0  0  0  0  0  0  0  0  0  0  0
    7.4929    2.0740   22.0373 H   0  0  0  0  0  0  0  0  0  0  0  0
    5.8503    3.5944   24.1525 C   0  0  0  0  0  0  0  0  0  0  0  0
    7.0243    3.9479   23.5789 F   0  0  0  0  0  0  0  0  0  0  0  0
    5.1773    4.5439   24.9197 C   0  0  0  0  0  0  0  0  0  0  0  0
    5.5792    5.5425   25.0293 H   0  0  0  0  0  0  0  0  0  0  0  0
    3.8415    0.9057   24.5752 H   0  0  0  0  0  0  0  0  0  0  0  0
    2.5868    2.6230   25.9834 H   0  0  0  0  0  0  0  0  0  0  0  0
  1  2  1  0
  2  3  2  0
  3  4  1  0
  4  5  2  0
  5  6  1  0
  6  7  1  0
  7  8  1  0
  8  9  2  0
  9 10  1  0
 10 11  1  0
 11 12  1  0
 12 13  1  0
 13 14  1  0
 14 15  1  0
 14 16  1  0
 14 17  1  0
 13 18  1  0
 13 19  1  0
 12 20  1  0
 12 21  1  0
 11 22  1  0
 10 23  2  0
 23 24  1  0
 24 25  1  0
 25 26  2  0
 26 27  1  0
 27 28  2  0
 28 29  1  0
 29 30  2  0
 30 31  1  0
 28 32  1  0
 27 33  1  0
 26 34  1  0
  7 35  1  0
  7 36  1  0
  5 37  1  0
 37 38  1  0
 37 39  2  0
 39 40  1  0
  4 41  1  0
  3 42  1  0
 39  2  1  0
 24  8  1  0
 30 25  1  0
 15 11  1  0
M  END
>  <cnnaffinity>  (1) 
-6.27956

>  <filename>  (1) 
Fc1ccc(OCc2nc(C3CCCO3)nn2-c2cccnc2)c(F)c1

$$$$
