
     RDKit          3D

 41 45  0  0  0  0  0  0  0  0999 V2000
   13.8313   -0.2075   22.9723 F   0  0  0  0  0  0  0  0  0  0  0  0
   12.6839    0.4766   22.8328 C   0  0  0  0  0  0  0  0  0  0  0  0
   12.4888    1.6324   23.5857 C   0  0  0  0  0  0  0  0  0  0  0  0
   11.2965    2.3488   23.4210 C   0  0  0  0  0  0  0  0  0  0  0  0
   10.3379    1.8860   22.5234 C   0  0  0  0  0  0  0  0  0  0  0  0
    9.1905    2.5812   22.3886 F   0  0  0  0  0  0  0  0  0  0  0  0
   10.5292    0.7255   21.7609 C   0  0  0  0  0  0  0  0  0  0  0  0
    9.4775    0.2529   20.7826 C   0  0  0  0  0  0  0  0  0  0  0  0
    8.3548   -0.5138   21.4090 C   0  0  0  0  0  0  0  0  0  0  0  0
    8.5061   -1.3513   22.4068 N   0  0  0  0  0  0  0  0  0  0  0  0
    7.2964   -1.9643   22.4953 C   0  0  0  0  0  0  0  0  0  0  0  0
    7.1543   -3.0503   23.4834 C   0  0  0  0  0  0  0  0  0  0  0  0
    5.8693   -3.7509   23.8973 C   0  0  0  0  0  0  0  0  0  0  0  0
    6.9141   -4.4811   23.0895 C   0  0  0  0  0  0  0  0  0  0  0  0
    7.0441   -5.2329   21.8169 C   0  0  0  0  0  0  0  0  0  0  0  0
    7.8433   -5.6416   23.0604 C   0  0  0  0  0  0  0  0  0  0  0  0
    8.9109   -5.4143   23.0879 H   0  0  0  0  0  0  0  0  0  0  0  0
    7.5715   -6.5514   23.5819 H   0  0  0  0  0  0  0  0  0  0  0  0
    7.5425   -4.6839   21.0195 H   0  0  0  0  0  0  0  0  0  0  0  0
    6.2122   -5.8777   21.5268 H   0  0  0  0  0  0  0  0  0  0  0  0
    4.9377   -3.4840   23.3992 H   0  0  0  0  0  0  0  0  0  0  0  0
    5.7813   -4.0294   24.9488 H   0  0  0  0  0  0  0  0  0  0  0  0
    7.9112   -2.9502   24.2571 H   0  0  0  0  0  0  0  0  0  0  0  0
    6.3982   -1.5460   21.6222 N   0  0  0  0  0  0  0  0  0  0  0  0
    7.0829   -0.6122   20.9047 N   0  0  0  0  0  0  0  0  0  0  0  0
    6.4781    0.0681   19.8031 C   0  0  0  0  0  0  0  0  0  0  0  0
    5.3049    0.8205   19.9557 C   0  0  0  0  0  0  0  0  0  0  0  0
    4.7975    1.4910   18.8349 C   0  0  0  0  0  0  0  0  0  0  0  0
    5.4541    1.3670   17.6047 C   0  0  0  0  0  0  0  0  0  0  0  0
    6.5634    0.6289   17.4498 N   0  0  0  0  0  0  0  0  0  0  0  0
    7.0555    0.0016   18.5220 C   0  0  0  0  0  0  0  0  0  0  0  0
    7.9545   -0.5947   18.3624 H   0  0  0  0  0  0  0  0  0  0  0  0
    5.0851    1.8716   16.7118 H   0  0  0  0  0  0  0  0  0  0  0  0
    3.8975    2.0933   18.8856 H   0  0  0  0  0  0  0  0  0  0  0  0
    4.7964    0.8596   20.9184 H   0  0  0  0  0  0  0  0  0  0  0  0
    9.0665    1.0962   20.2268 H   0  0  0  0  0  0  0  0  0  0  0  0
    9.9425   -0.4388   20.0680 H   0  0  0  0  0  0  0  0  0  0  0  0
   11.7185    0.0078   21.9436 C   0  0  0  0  0  0  0  0  0  0  0  0
   11.9085   -0.9137   21.3968 H   0  0  0  0  0  0  0  0  0  0  0  0
   11.0841    3.2651   23.9632 H   0  0  0  0  0  0  0  0  0  0  0  0
   13.2834    1.9628   24.2465 H   0  0  0  0  0  0  0  0  0  0  0  0
  1  2  1  0
  2  3  2  0
  3  4  1  0
  4  5  2  0
  5  6  1  0
  5  7  1  0
  7  8  1  0
  8  9  1  0
  9 10  2  0
 10 11  1  0
 11 12  1  0
 12 13  1  0
 13 14  1  0
 14 15  1  0
 15 16  1  0
 16 17  1  0
 16 18  1  0
 15 19  1  0
 15 20  1  0
 13 21  1  0
 13 22  1  0
 12 23  1  0
 11 24  2  0
 24 25  1  0
 25 26  1  0
 26 27  2  0
 27 28  1  0
 28 29  2  0
 29 30  1  0
 30 31  2  0
 31 32  1  0
 29 33  1  0
 28 34  1  0
 27 35  1  0
  8 36  1  0
  8 37  1  0
  7 38  2  0
 38 39  1  0
  4 40  1  0
  3 41  1  0
 38  2  1  0
 25  9  1  0
 31 26  1  0
 14 12  1  0
 16 14  1  0
M  END
>  <cnnaffinity>  (1) 
-7.00154

>  <filename>  (1) 
Fc1ccc(F)c(Cc2nc(C3CC34CC4)nn2-c2cccnc2)c1

$$$$
