
     RDKit          3D

 39 42  0  0  0  0  0  0  0  0999 V2000
   14.3355   -1.9824   21.3071 F   0  0  0  0  0  0  0  0  0  0  0  0
   13.6003   -0.9679   21.7750 C   0  0  0  0  0  0  0  0  0  0  0  0
   14.2135    0.0688   22.4841 C   0  0  0  0  0  0  0  0  0  0  0  0
   13.5410    1.1028   23.0003 N   0  0  0  0  0  0  0  0  0  0  0  0
   12.2238    1.1569   22.7834 C   0  0  0  0  0  0  0  0  0  0  0  0
   11.5490    0.1917   22.0257 C   0  0  0  0  0  0  0  0  0  0  0  0
   10.1172    0.3623   21.8486 C   0  0  0  0  0  0  0  0  0  0  0  0
    9.3579   -0.5787   21.3246 N   0  0  0  0  0  0  0  0  0  0  0  0
    8.1090   -0.1396   21.5795 N   0  0  0  0  0  0  0  0  0  0  0  0
    6.9624   -0.8611   21.0414 C   0  0  0  0  0  0  0  0  0  0  0  0
    6.3576   -0.1281   19.8660 C   0  0  0  0  0  0  0  0  0  0  0  0
    5.1270    0.5308   19.9252 C   0  0  0  0  0  0  0  0  0  0  0  0
    4.7306    1.3136   18.8375 C   0  0  0  0  0  0  0  0  0  0  0  0
    5.5673    1.3831   17.7212 C   0  0  0  0  0  0  0  0  0  0  0  0
    6.7373    0.7333   17.6323 N   0  0  0  0  0  0  0  0  0  0  0  0
    7.1164    0.0102   18.6912 C   0  0  0  0  0  0  0  0  0  0  0  0
    8.0884   -0.4785   18.6157 H   0  0  0  0  0  0  0  0  0  0  0  0
    5.2931    1.9923   16.8629 H   0  0  0  0  0  0  0  0  0  0  0  0
    3.8090    1.8822   18.8545 H   0  0  0  0  0  0  0  0  0  0  0  0
    4.4978    0.4549   20.8149 H   0  0  0  0  0  0  0  0  0  0  0  0
    7.3497   -1.8431   20.7501 H   0  0  0  0  0  0  0  0  0  0  0  0
    6.2322   -1.0109   21.8456 H   0  0  0  0  0  0  0  0  0  0  0  0
    8.1708    1.0621   22.1905 C   0  0  0  0  0  0  0  0  0  0  0  0
    6.9976    1.6927   22.8816 C   0  0  0  0  0  0  0  0  0  0  0  0
    6.7219    1.0632   24.2367 C   0  0  0  0  0  0  0  0  0  0  0  0
    5.5938    0.5400   24.7836 C   0  0  0  0  0  0  0  0  0  0  0  0
    5.8386    0.0727   26.0363 O   0  0  0  0  0  0  0  0  0  0  0  0
    7.1450    0.3116   26.3035 C   0  0  0  0  0  0  0  0  0  0  0  0
    7.7339    0.9169   25.2480 C   0  0  0  0  0  0  0  0  0  0  0  0
    8.7646    1.2302   25.1481 H   0  0  0  0  0  0  0  0  0  0  0  0
    7.4972    0.0021   27.2763 H   0  0  0  0  0  0  0  0  0  0  0  0
    4.5709    0.4445   24.4527 H   0  0  0  0  0  0  0  0  0  0  0  0
    6.1209    1.6430   22.2321 H   0  0  0  0  0  0  0  0  0  0  0  0
    7.2555    2.7496   23.0073 H   0  0  0  0  0  0  0  0  0  0  0  0
    9.4331    1.4215   22.3512 N   0  0  0  0  0  0  0  0  0  0  0  0
   12.2400   -0.9367   21.5368 C   0  0  0  0  0  0  0  0  0  0  0  0
   11.7444   -1.7394   20.9900 H   0  0  0  0  0  0  0  0  0  0  0  0
   11.6851    1.9752   23.2576 H   0  0  0  0  0  0  0  0  0  0  0  0
   15.2789    0.0319   22.6214 H   0  0  0  0  0  0  0  0  0  0  0  0
  1  2  1  0
  2  3  2  0
  3  4  1  0
  4  5  2  0
  5  6  1  0
  6  7  1  0
  7  8  2  0
  8  9  1  0
  9 10  1  0
 10 11  1  0
 11 12  2  0
 12 13  1  0
 13 14  2  0
 14 15  1  0
 15 16  2  0
 16 17  1  0
 14 18  1  0
 13 19  1  0
 12 20  1  0
 10 21  1  0
 10 22  1  0
  9 23  1  0
 23 24  1  0
 24 25  1  0
 25 26  2  0
 26 27  1  0
 27 28  1  0
 28 29  2  0
 29 30  1  0
 28 31  1  0
 26 32  1  0
 24 33  1  0
 24 34  1  0
 23 35  2  0
  6 36  2  0
 36 37  1  0
  5 38  1  0
  3 39  1  0
 36  2  1  0
 35  7  1  0
 16 11  1  0
 29 25  1  0
M  END
>  <cnnaffinity>  (1) 
-6.41653

>  <filename>  (1) 
Fc1cncc(-c2nc(Cc3ccoc3)n(Cc3cccnc3)n2)c1

$$$$
