
     RDKit          3D

 45 48  0  0  0  0  0  0  0  0999 V2000
    3.4064    2.2581   24.0562 F   0  0  0  0  0  0  0  0  0  0  0  0
    4.7016    2.2742   23.7082 C   0  0  0  0  0  0  0  0  0  0  0  0
    5.2031    3.3236   22.9400 C   0  0  0  0  0  0  0  0  0  0  0  0
    6.5737    3.3782   22.6613 C   0  0  0  0  0  0  0  0  0  0  0  0
    7.4257    2.3762   23.1403 C   0  0  0  0  0  0  0  0  0  0  0  0
    9.1717    2.4851   22.8585 S   0  0  0  0  0  0  0  0  0  0  0  0
    9.1999    1.9892   21.1111 C   0  0  0  0  0  0  0  0  0  0  0  0
    9.5820    0.5214   20.8811 C   0  0  0  0  0  0  0  0  0  0  0  0
    8.6223   -0.4742   21.4366 C   0  0  0  0  0  0  0  0  0  0  0  0
    8.8395   -1.3039   22.4356 N   0  0  0  0  0  0  0  0  0  0  0  0
    7.6498   -1.9563   22.5647 C   0  0  0  0  0  0  0  0  0  0  0  0
    7.4408   -2.9877   23.6183 C   0  0  0  0  0  0  0  0  0  0  0  0
    8.3941   -4.2044   23.5274 C   0  0  0  0  0  0  0  0  0  0  0  0
    8.5061   -4.6653   24.9880 C   0  0  0  0  0  0  0  0  0  0  0  0
    8.0994   -3.5765   25.8038 O   0  0  0  0  0  0  0  0  0  0  0  0
    7.7427   -2.4492   25.0290 C   0  0  0  0  0  0  0  0  0  0  0  0
    6.8806   -1.9560   25.5004 H   0  0  0  0  0  0  0  0  0  0  0  0
    8.5722   -1.7191   25.0153 H   0  0  0  0  0  0  0  0  0  0  0  0
    7.8601   -5.5276   25.2023 H   0  0  0  0  0  0  0  0  0  0  0  0
    9.5292   -4.9551   25.2649 H   0  0  0  0  0  0  0  0  0  0  0  0
    8.0338   -4.9863   22.8485 H   0  0  0  0  0  0  0  0  0  0  0  0
    9.3769   -3.8842   23.1564 H   0  0  0  0  0  0  0  0  0  0  0  0
    6.3879   -3.2887   23.5600 H   0  0  0  0  0  0  0  0  0  0  0  0
    6.7230   -1.5902   21.7089 N   0  0  0  0  0  0  0  0  0  0  0  0
    7.3543   -0.6473   20.9574 N   0  0  0  0  0  0  0  0  0  0  0  0
    6.6683    0.0183   19.9022 C   0  0  0  0  0  0  0  0  0  0  0  0
    5.4543    0.6590   20.1600 C   0  0  0  0  0  0  0  0  0  0  0  0
    4.8152    1.3231   19.1087 C   0  0  0  0  0  0  0  0  0  0  0  0
    5.4057    1.3020   17.8377 C   0  0  0  0  0  0  0  0  0  0  0  0
    6.5559    0.6653   17.5751 N   0  0  0  0  0  0  0  0  0  0  0  0
    7.1684    0.0454   18.5877 C   0  0  0  0  0  0  0  0  0  0  0  0
    8.0990   -0.4661   18.3447 H   0  0  0  0  0  0  0  0  0  0  0  0
    4.9350    1.8110   16.9987 H   0  0  0  0  0  0  0  0  0  0  0  0
    3.8729    1.8464   19.2570 H   0  0  0  0  0  0  0  0  0  0  0  0
    5.0250    0.5954   21.1595 H   0  0  0  0  0  0  0  0  0  0  0  0
    9.6302    0.3184   19.8075 H   0  0  0  0  0  0  0  0  0  0  0  0
   10.5691    0.3131   21.2991 H   0  0  0  0  0  0  0  0  0  0  0  0
    8.2365    2.2103   20.6357 H   0  0  0  0  0  0  0  0  0  0  0  0
    9.9491    2.6404   20.6642 H   0  0  0  0  0  0  0  0  0  0  0  0
    6.9019    1.2844   23.8400 C   0  0  0  0  0  0  0  0  0  0  0  0
    5.5506    1.2433   24.1308 C   0  0  0  0  0  0  0  0  0  0  0  0
    5.0637    0.1967   24.8188 F   0  0  0  0  0  0  0  0  0  0  0  0
    7.5268    0.4526   24.1478 H   0  0  0  0  0  0  0  0  0  0  0  0
    7.0098    4.2077   22.1051 H   0  0  0  0  0  0  0  0  0  0  0  0
    4.5112    4.0764   22.5711 H   0  0  0  0  0  0  0  0  0  0  0  0
  1  2  1  0
  2  3  2  0
  3  4  1  0
  4  5  2  0
  5  6  1  0
  6  7  1  0
  7  8  1  0
  8  9  1  0
  9 10  2  0
 10 11  1  0
 11 12  1  0
 12 13  1  0
 13 14  1  0
 14 15  1  0
 15 16  1  0
 16 17  1  0
 16 18  1  0
 14 19  1  0
 14 20  1  0
 13 21  1  0
 13 22  1  0
 12 23  1  0
 11 24  2  0
 24 25  1  0
 25 26  1  0
 26 27  2  0
 27 28  1  0
 28 29  2  0
 29 30  1  0
 30 31  2  0
 31 32  1  0
 29 33  1  0
 28 34  1  0
 27 35  1  0
  8 36  1  0
  8 37  1  0
  7 38  1  0
  7 39  1  0
  5 40  1  0
 40 41  2  0
 41 42  1  0
 40 43  1  0
  4 44  1  0
  3 45  1  0
 41  2  1  0
 25  9  1  0
 31 26  1  0
 16 12  1  0
M  END
>  <cnnaffinity>  (1) 
-5.83254

>  <filename>  (1) 
Fc1ccc(SCCc2nc(C3CCOC3)nn2-c2cccnc2)cc1F

$$$$
