
     RDKit          3D

 40 43  0  0  0  0  0  0  0  0999 V2000
   14.2444    1.0496   23.4321 F   0  0  0  0  0  0  0  0  0  0  0  0
   13.3789    0.2765   22.7594 C   0  0  0  0  0  0  0  0  0  0  0  0
   13.8487   -0.8668   22.1153 C   0  0  0  0  0  0  0  0  0  0  0  0
   12.9481   -1.6561   21.3973 C   0  0  0  0  0  0  0  0  0  0  0  0
   11.5900   -1.3303   21.3627 C   0  0  0  0  0  0  0  0  0  0  0  0
   11.1178   -0.1814   22.0382 C   0  0  0  0  0  0  0  0  0  0  0  0
    9.6593    0.1313   22.0558 C   0  0  0  0  0  0  0  0  0  0  0  0
    8.7420   -0.6594   21.5143 N   0  0  0  0  0  0  0  0  0  0  0  0
    7.5771   -0.0439   21.8058 N   0  0  0  0  0  0  0  0  0  0  0  0
    6.3232   -0.5190   21.2370 C   0  0  0  0  0  0  0  0  0  0  0  0
    5.9625    0.1429   19.9254 C   0  0  0  0  0  0  0  0  0  0  0  0
    4.8145    0.9254   19.7745 C   0  0  0  0  0  0  0  0  0  0  0  0
    4.6141    1.5965   18.5684 C   0  0  0  0  0  0  0  0  0  0  0  0
    5.5663    1.4543   17.5572 C   0  0  0  0  0  0  0  0  0  0  0  0
    6.6501    0.6710   17.6612 N   0  0  0  0  0  0  0  0  0  0  0  0
    6.8288    0.0339   18.8222 C   0  0  0  0  0  0  0  0  0  0  0  0
    7.7210   -0.5869   18.8988 H   0  0  0  0  0  0  0  0  0  0  0  0
    5.4545    1.9904   16.6195 H   0  0  0  0  0  0  0  0  0  0  0  0
    3.7560    2.2385   18.4070 H   0  0  0  0  0  0  0  0  0  0  0  0
    4.0879    1.0143   20.5861 H   0  0  0  0  0  0  0  0  0  0  0  0
    6.4168   -1.6034   21.1421 H   0  0  0  0  0  0  0  0  0  0  0  0
    5.5596   -0.3363   21.9871 H   0  0  0  0  0  0  0  0  0  0  0  0
    7.8369    1.0846   22.4980 C   0  0  0  0  0  0  0  0  0  0  0  0
    6.8051    1.9311   23.1730 C   0  0  0  0  0  0  0  0  0  0  0  0
    6.5153    1.3496   24.4801 N   0  0  0  0  0  0  0  0  0  0  0  0
    7.1914    1.5220   25.6447 C   0  0  0  0  0  0  0  0  0  0  0  0
    6.8419    0.4621   26.4480 C   0  0  0  0  0  0  0  0  0  0  0  0
    7.4605    0.1215   28.0152 Cl  0  0  0  0  0  0  0  0  0  0  0  0
    5.9465   -0.3136   25.6809 C   0  0  0  0  0  0  0  0  0  0  0  0
    5.7803    0.2329   24.4841 N   0  0  0  0  0  0  0  0  0  0  0  0
    5.4754   -1.2542   25.9298 H   0  0  0  0  0  0  0  0  0  0  0  0
    7.8732    2.3397   25.8283 H   0  0  0  0  0  0  0  0  0  0  0  0
    7.2040    2.9387   23.3033 H   0  0  0  0  0  0  0  0  0  0  0  0
    5.8640    1.9667   22.6184 H   0  0  0  0  0  0  0  0  0  0  0  0
    9.1333    1.2228   22.6777 N   0  0  0  0  0  0  0  0  0  0  0  0
   12.0351    0.6427   22.7301 C   0  0  0  0  0  0  0  0  0  0  0  0
   11.7250    1.5460   23.2521 H   0  0  0  0  0  0  0  0  0  0  0  0
   10.8821   -1.9653   20.8341 H   0  0  0  0  0  0  0  0  0  0  0  0
   13.3238   -2.5240   20.8605 H   0  0  0  0  0  0  0  0  0  0  0  0
   14.8926   -1.1360   22.1911 H   0  0  0  0  0  0  0  0  0  0  0  0
  1  2  1  0
  2  3  2  0
  3  4  1  0
  4  5  2  0
  5  6  1  0
  6  7  1  0
  7  8  2  0
  8  9  1  0
  9 10  1  0
 10 11  1  0
 11 12  2  0
 12 13  1  0
 13 14  2  0
 14 15  1  0
 15 16  2  0
 16 17  1  0
 14 18  1  0
 13 19  1  0
 12 20  1  0
 10 21  1  0
 10 22  1  0
  9 23  1  0
 23 24  1  0
 24 25  1  0
 25 26  1  0
 26 27  2  0
 27 28  1  0
 27 29  1  0
 29 30  2  0
 29 31  1  0
 26 32  1  0
 24 33  1  0
 24 34  1  0
 23 35  2  0
  6 36  2  0
 36 37  1  0
  5 38  1  0
  4 39  1  0
  3 40  1  0
 36  2  1  0
 35  7  1  0
 16 11  1  0
 30 25  1  0
M  END
>  <cnnaffinity>  (1) 
-6.37253

>  <filename>  (1) 
Fc1cccc(-c2nc(Cn3cc(Cl)cn3)n(Cc3cccnc3)n2)c1

$$$$
