
     RDKit          3D

 40 43  0  0  0  0  0  0  0  0999 V2000
    7.9417    1.1531   25.6893 F   0  0  0  0  0  0  0  0  0  0  0  0
    8.8762    1.6366   24.8552 C   0  0  0  0  0  0  0  0  0  0  0  0
   10.0989    1.9911   25.4061 C   0  0  0  0  0  0  0  0  0  0  0  0
   11.0844    2.5228   24.5783 C   0  0  0  0  0  0  0  0  0  0  0  0
   10.8589    2.6805   23.2165 C   0  0  0  0  0  0  0  0  0  0  0  0
    9.6266    2.2750   22.7019 C   0  0  0  0  0  0  0  0  0  0  0  0
    9.3990    2.3714   20.9976 Cl  0  0  0  0  0  0  0  0  0  0  0  0
    8.5961    1.7426   23.4892 C   0  0  0  0  0  0  0  0  0  0  0  0
    7.3393    1.1707   22.8530 C   0  0  0  0  0  0  0  0  0  0  0  0
    7.5837   -0.1788   22.2369 C   0  0  0  0  0  0  0  0  0  0  0  0
    8.1270   -1.1915   22.8909 N   0  0  0  0  0  0  0  0  0  0  0  0
    8.1576   -2.1839   21.9691 C   0  0  0  0  0  0  0  0  0  0  0  0
    8.7159   -3.5383   22.2045 C   0  0  0  0  0  0  0  0  0  0  0  0
    7.7522   -4.5297   22.8334 C   0  0  0  0  0  0  0  0  0  0  0  0
    6.9099   -5.3233   21.8805 C   0  0  0  0  0  0  0  0  0  0  0  0
    8.0131   -5.9923   22.6536 C   0  0  0  0  0  0  0  0  0  0  0  0
    7.7386   -6.6404   23.4763 H   0  0  0  0  0  0  0  0  0  0  0  0
    8.9222   -6.2911   22.1435 H   0  0  0  0  0  0  0  0  0  0  0  0
    5.8728   -5.5387   22.1177 H   0  0  0  0  0  0  0  0  0  0  0  0
    7.0905   -5.1096   20.8294 H   0  0  0  0  0  0  0  0  0  0  0  0
    7.3107   -4.2475   23.7876 H   0  0  0  0  0  0  0  0  0  0  0  0
    8.9693   -3.8900   21.2025 H   0  0  0  0  0  0  0  0  0  0  0  0
    9.6296   -3.4279   22.7916 H   0  0  0  0  0  0  0  0  0  0  0  0
    7.7048   -1.8474   20.7836 N   0  0  0  0  0  0  0  0  0  0  0  0
    7.3069   -0.5669   20.9553 N   0  0  0  0  0  0  0  0  0  0  0  0
    6.6254    0.0794   19.8977 C   0  0  0  0  0  0  0  0  0  0  0  0
    5.3945    0.7016   20.1182 C   0  0  0  0  0  0  0  0  0  0  0  0
    4.7783    1.3258   19.0319 C   0  0  0  0  0  0  0  0  0  0  0  0
    5.4122    1.2947   17.7859 C   0  0  0  0  0  0  0  0  0  0  0  0
    6.5607    0.6286   17.5566 N   0  0  0  0  0  0  0  0  0  0  0  0
    7.1450    0.0210   18.5931 C   0  0  0  0  0  0  0  0  0  0  0  0
    8.0656   -0.5312   18.3967 H   0  0  0  0  0  0  0  0  0  0  0  0
    4.9934    1.8345   16.9404 H   0  0  0  0  0  0  0  0  0  0  0  0
    3.8455    1.8627   19.1622 H   0  0  0  0  0  0  0  0  0  0  0  0
    4.9380    0.6698   21.1082 H   0  0  0  0  0  0  0  0  0  0  0  0
    6.9862    1.8733   22.0950 H   0  0  0  0  0  0  0  0  0  0  0  0
    6.5500    1.0648   23.6017 H   0  0  0  0  0  0  0  0  0  0  0  0
   11.6247    3.0802   22.5604 H   0  0  0  0  0  0  0  0  0  0  0  0
   12.0375    2.8122   24.9920 H   0  0  0  0  0  0  0  0  0  0  0  0
   10.2429    1.8191   26.4598 H   0  0  0  0  0  0  0  0  0  0  0  0
  1  2  1  0
  2  3  2  0
  3  4  1  0
  4  5  2  0
  5  6  1  0
  6  7  1  0
  6  8  2  0
  8  9  1  0
  9 10  1  0
 10 11  2  0
 11 12  1  0
 12 13  1  0
 13 14  1  0
 14 15  1  0
 15 16  1  0
 16 17  1  0
 16 18  1  0
 15 19  1  0
 15 20  1  0
 14 21  1  0
 13 22  1  0
 13 23  1  0
 12 24  2  0
 24 25  1  0
 25 26  1  0
 26 27  2  0
 27 28  1  0
 28 29  2  0
 29 30  1  0
 30 31  2  0
 31 32  1  0
 29 33  1  0
 28 34  1  0
 27 35  1  0
  9 36  1  0
  9 37  1  0
  5 38  1  0
  4 39  1  0
  3 40  1  0
  8  2  1  0
 25 10  1  0
 31 26  1  0
 16 14  1  0
M  END
>  <cnnaffinity>  (1) 
-6.59507

>  <filename>  (1) 
Fc1cccc(Cl)c1Cc1nc(CC2CC2)nn1-c1cccnc1

$$$$
