
     RDKit          3D

 41 44  0  0  0  0  0  0  0  0999 V2000
    4.1367    4.2335   22.9084 F   0  0  0  0  0  0  0  0  0  0  0  0
    4.9516    3.2808   23.3951 C   0  0  0  0  0  0  0  0  0  0  0  0
    4.6619    2.7238   24.6366 C   0  0  0  0  0  0  0  0  0  0  0  0
    5.4984    1.7152   25.1245 C   0  0  0  0  0  0  0  0  0  0  0  0
    6.6046    1.2900   24.3833 C   0  0  0  0  0  0  0  0  0  0  0  0
    6.9012    1.8855   23.1474 C   0  0  0  0  0  0  0  0  0  0  0  0
    8.1183    1.4093   22.3621 C   0  0  0  0  0  0  0  0  0  0  0  0
    8.0462   -0.0516   22.0361 C   0  0  0  0  0  0  0  0  0  0  0  0
    8.5313   -1.0575   22.7498 N   0  0  0  0  0  0  0  0  0  0  0  0
    8.1237   -2.1571   22.0493 C   0  0  0  0  0  0  0  0  0  0  0  0
    8.3565   -3.5799   22.4980 C   0  0  0  0  0  0  0  0  0  0  0  0
    7.2652   -4.1935   23.4191 C   0  0  0  0  0  0  0  0  0  0  0  0
    7.4263   -5.7017   23.1573 C   0  0  0  0  0  0  0  0  0  0  0  0
    8.0711   -5.7718   21.7603 C   0  0  0  0  0  0  0  0  0  0  0  0
    8.3671   -4.4446   21.3698 O   0  0  0  0  0  0  0  0  0  0  0  0
    9.0081   -6.3407   21.7808 H   0  0  0  0  0  0  0  0  0  0  0  0
    7.4149   -6.1989   20.9933 H   0  0  0  0  0  0  0  0  0  0  0  0
    8.0922   -6.1734   23.8915 H   0  0  0  0  0  0  0  0  0  0  0  0
    6.4643   -6.2222   23.1930 H   0  0  0  0  0  0  0  0  0  0  0  0
    7.3822   -3.9337   24.4787 H   0  0  0  0  0  0  0  0  0  0  0  0
    6.2766   -3.8425   23.0912 H   0  0  0  0  0  0  0  0  0  0  0  0
    9.3320   -3.5912   23.0072 H   0  0  0  0  0  0  0  0  0  0  0  0
    7.4383   -1.8888   20.9578 N   0  0  0  0  0  0  0  0  0  0  0  0
    7.3740   -0.5432   20.9572 N   0  0  0  0  0  0  0  0  0  0  0  0
    6.6538    0.0943   19.9056 C   0  0  0  0  0  0  0  0  0  0  0  0
    5.4193    0.6995   20.1403 C   0  0  0  0  0  0  0  0  0  0  0  0
    4.7882    1.3330   19.0664 C   0  0  0  0  0  0  0  0  0  0  0  0
    5.4044    1.2974   17.8112 C   0  0  0  0  0  0  0  0  0  0  0  0
    6.5557    0.6446   17.5677 N   0  0  0  0  0  0  0  0  0  0  0  0
    7.1556    0.0386   18.5962 C   0  0  0  0  0  0  0  0  0  0  0  0
    8.0750   -0.5067   18.3875 H   0  0  0  0  0  0  0  0  0  0  0  0
    4.9571    1.8125   16.9651 H   0  0  0  0  0  0  0  0  0  0  0  0
    3.8480    1.8584   19.1977 H   0  0  0  0  0  0  0  0  0  0  0  0
    4.9672    0.6522   21.1328 H   0  0  0  0  0  0  0  0  0  0  0  0
    8.2184    1.9834   21.4360 H   0  0  0  0  0  0  0  0  0  0  0  0
    9.0345    1.5779   22.9368 H   0  0  0  0  0  0  0  0  0  0  0  0
    6.0532    2.8791   22.6411 C   0  0  0  0  0  0  0  0  0  0  0  0
    6.1989    3.3050   21.6521 H   0  0  0  0  0  0  0  0  0  0  0  0
    7.2325    0.4760   24.7420 H   0  0  0  0  0  0  0  0  0  0  0  0
    5.2828    1.2519   26.0829 H   0  0  0  0  0  0  0  0  0  0  0  0
    3.7940    3.0764   25.1845 H   0  0  0  0  0  0  0  0  0  0  0  0
  1  2  1  0
  2  3  2  0
  3  4  1  0
  4  5  2  0
  5  6  1  0
  6  7  1  0
  7  8  1  0
  8  9  2  0
  9 10  1  0
 10 11  1  0
 11 12  1  0
 12 13  1  0
 13 14  1  0
 14 15  1  0
 14 16  1  0
 14 17  1  0
 13 18  1  0
 13 19  1  0
 12 20  1  0
 12 21  1  0
 11 22  1  0
 10 23  2  0
 23 24  1  0
 24 25  1  0
 25 26  2  0
 26 27  1  0
 27 28  2  0
 28 29  1  0
 29 30  2  0
 30 31  1  0
 28 32  1  0
 27 33  1  0
 26 34  1  0
  7 35  1  0
  7 36  1  0
  6 37  2  0
 37 38  1  0
  5 39  1  0
  4 40  1  0
  3 41  1  0
 37  2  1  0
 24  8  1  0
 30 25  1  0
 15 11  1  0
M  END
>  <cnnaffinity>  (1) 
-5.8264

>  <filename>  (1) 
Fc1cccc(Cc2nc(C3CCCO3)nn2-c2cccnc2)c1

$$$$
