
     RDKit          3D

 38 41  0  0  0  0  0  0  0  0999 V2000
    4.7495   -5.1485   24.9199 F   0  0  0  0  0  0  0  0  0  0  0  0
    5.9379   -4.5668   24.7126 C   0  0  0  0  0  0  0  0  0  0  0  0
    7.0370   -4.9148   25.5088 C   0  0  0  0  0  0  0  0  0  0  0  0
    8.2482   -4.3666   25.3473 N   0  0  0  0  0  0  0  0  0  0  0  0
    8.4178   -3.4498   24.3870 C   0  0  0  0  0  0  0  0  0  0  0  0
    7.3611   -3.0592   23.5496 C   0  0  0  0  0  0  0  0  0  0  0  0
    7.5981   -2.0511   22.5314 C   0  0  0  0  0  0  0  0  0  0  0  0
    6.6591   -1.6350   21.7034 N   0  0  0  0  0  0  0  0  0  0  0  0
    7.3047   -0.7152   20.9522 N   0  0  0  0  0  0  0  0  0  0  0  0
    6.6341   -0.0330   19.9008 C   0  0  0  0  0  0  0  0  0  0  0  0
    5.4269    0.6217   20.1604 C   0  0  0  0  0  0  0  0  0  0  0  0
    4.8051    1.3071   19.1118 C   0  0  0  0  0  0  0  0  0  0  0  0
    5.3989    1.2900   17.8424 C   0  0  0  0  0  0  0  0  0  0  0  0
    6.5441    0.6442   17.5823 N   0  0  0  0  0  0  0  0  0  0  0  0
    7.1468    0.0105   18.5907 C   0  0  0  0  0  0  0  0  0  0  0  0
    8.0951   -0.4646   18.3480 H   0  0  0  0  0  0  0  0  0  0  0  0
    4.9425    1.8113   17.0026 H   0  0  0  0  0  0  0  0  0  0  0  0
    3.8767    1.8516   19.2584 H   0  0  0  0  0  0  0  0  0  0  0  0
    5.0092    0.5865   21.1671 H   0  0  0  0  0  0  0  0  0  0  0  0
    8.5891   -0.6056   21.4010 C   0  0  0  0  0  0  0  0  0  0  0  0
    9.6368    0.2778   20.8234 C   0  0  0  0  0  0  0  0  0  0  0  0
   10.3351    1.1169   21.8714 C   0  0  0  0  0  0  0  0  0  0  0  0
    9.7314    2.2354   22.4751 C   0  0  0  0  0  0  0  0  0  0  0  0
    8.1608    2.7704   21.9530 Cl  0  0  0  0  0  0  0  0  0  0  0  0
   10.3589    2.8975   23.5426 C   0  0  0  0  0  0  0  0  0  0  0  0
   11.5434    2.4973   24.0325 N   0  0  0  0  0  0  0  0  0  0  0  0
   12.1488    1.4446   23.4633 C   0  0  0  0  0  0  0  0  0  0  0  0
   11.5788    0.7493   22.3951 C   0  0  0  0  0  0  0  0  0  0  0  0
   12.2331   -0.3085   21.8825 F   0  0  0  0  0  0  0  0  0  0  0  0
   13.1056    1.1114   23.8643 H   0  0  0  0  0  0  0  0  0  0  0  0
    9.8778    3.7501   24.0251 H   0  0  0  0  0  0  0  0  0  0  0  0
    9.1743    0.9165   20.0734 H   0  0  0  0  0  0  0  0  0  0  0  0
   10.3403   -0.3964   20.3277 H   0  0  0  0  0  0  0  0  0  0  0  0
    8.8034   -1.4555   22.3785 N   0  0  0  0  0  0  0  0  0  0  0  0
    6.0796   -3.6204   23.7125 C   0  0  0  0  0  0  0  0  0  0  0  0
    5.2336   -3.3200   23.0922 H   0  0  0  0  0  0  0  0  0  0  0  0
    9.4205   -3.0277   24.3003 H   0  0  0  0  0  0  0  0  0  0  0  0
    6.9218   -5.6548   26.2934 H   0  0  0  0  0  0  0  0  0  0  0  0
  1  2  1  0
  2  3  2  0
  3  4  1  0
  4  5  2  0
  5  6  1  0
  6  7  1  0
  7  8  2  0
  8  9  1  0
  9 10  1  0
 10 11  2  0
 11 12  1  0
 12 13  2  0
 13 14  1  0
 14 15  2  0
 15 16  1  0
 13 17  1  0
 12 18  1  0
 11 19  1  0
  9 20  1  0
 20 21  1  0
 21 22  1  0
 22 23  2  0
 23 24  1  0
 23 25  1  0
 25 26  2  0
 26 27  1  0
 27 28  2  0
 28 29  1  0
 27 30  1  0
 25 31  1  0
 21 32  1  0
 21 33  1  0
 20 34  2  0
  6 35  2  0
 35 36  1  0
  5 37  1  0
  3 38  1  0
 35  2  1  0
 34  7  1  0
 15 10  1  0
 28 22  1  0
M  END
>  <cnnaffinity>  (1) 
-6.74954

>  <filename>  (1) 
Fc1cncc(-c2nc(Cc3c(F)cncc3Cl)n(-c3cccnc3)n2)c1

$$$$
