
     RDKit          3D

 47 50  0  0  0  0  0  0  0  0999 V2000
   13.4016    3.2693   23.5304 F   0  0  0  0  0  0  0  0  0  0  0  0
   12.2963    2.5673   23.8359 C   0  0  0  0  0  0  0  0  0  0  0  0
   12.3867    1.5236   24.7496 C   0  0  0  0  0  0  0  0  0  0  0  0
   11.2248    0.8511   25.1434 C   0  0  0  0  0  0  0  0  0  0  0  0
   10.0235    1.1595   24.5050 C   0  0  0  0  0  0  0  0  0  0  0  0
    8.9255    0.4571   24.8460 F   0  0  0  0  0  0  0  0  0  0  0  0
    9.9266    2.1427   23.5125 C   0  0  0  0  0  0  0  0  0  0  0  0
    8.6945    2.3171   22.6455 C   0  0  0  0  0  0  0  0  0  0  0  0
    9.0131    1.9944   21.1688 C   0  0  0  0  0  0  0  0  0  0  0  0
    9.5417    0.5668   20.9084 C   0  0  0  0  0  0  0  0  0  0  0  0
    8.6446   -0.5087   21.4126 C   0  0  0  0  0  0  0  0  0  0  0  0
    8.8878   -1.3820   22.3683 N   0  0  0  0  0  0  0  0  0  0  0  0
    7.6848   -1.9820   22.5366 C   0  0  0  0  0  0  0  0  0  0  0  0
    7.4514   -2.9700   23.6266 C   0  0  0  0  0  0  0  0  0  0  0  0
    6.7895   -4.2949   23.1910 C   0  0  0  0  0  0  0  0  0  0  0  0
    6.0303   -4.7420   24.4442 C   0  0  0  0  0  0  0  0  0  0  0  0
    5.8619   -3.5923   25.2570 O   0  0  0  0  0  0  0  0  0  0  0  0
    6.4754   -2.4499   24.7003 C   0  0  0  0  0  0  0  0  0  0  0  0
    5.7120   -1.7893   24.2647 H   0  0  0  0  0  0  0  0  0  0  0  0
    6.9814   -1.8983   25.5040 H   0  0  0  0  0  0  0  0  0  0  0  0
    6.5834   -5.4994   25.0180 H   0  0  0  0  0  0  0  0  0  0  0  0
    5.0390   -5.1560   24.2084 H   0  0  0  0  0  0  0  0  0  0  0  0
    7.5113   -5.0394   22.8410 H   0  0  0  0  0  0  0  0  0  0  0  0
    6.0848   -4.0996   22.3754 H   0  0  0  0  0  0  0  0  0  0  0  0
    8.4282   -3.1443   24.0869 H   0  0  0  0  0  0  0  0  0  0  0  0
    6.7306   -1.5758   21.7179 N   0  0  0  0  0  0  0  0  0  0  0  0
    7.3650   -0.6448   20.9596 N   0  0  0  0  0  0  0  0  0  0  0  0
    6.6712    0.0112   19.9004 C   0  0  0  0  0  0  0  0  0  0  0  0
    5.4493    0.6389   20.1617 C   0  0  0  0  0  0  0  0  0  0  0  0
    4.8177    1.3057   19.1092 C   0  0  0  0  0  0  0  0  0  0  0  0
    5.4103    1.2938   17.8415 C   0  0  0  0  0  0  0  0  0  0  0  0
    6.5593    0.6551   17.5723 N   0  0  0  0  0  0  0  0  0  0  0  0
    7.1726    0.0306   18.5853 C   0  0  0  0  0  0  0  0  0  0  0  0
    8.1050   -0.4852   18.3448 H   0  0  0  0  0  0  0  0  0  0  0  0
    4.9427    1.8134   17.0098 H   0  0  0  0  0  0  0  0  0  0  0  0
    3.8826    1.8305   19.2641 H   0  0  0  0  0  0  0  0  0  0  0  0
    5.0279    0.5910   21.1664 H   0  0  0  0  0  0  0  0  0  0  0  0
    9.6523    0.4178   19.8331 H   0  0  0  0  0  0  0  0  0  0  0  0
   10.5293    0.4233   21.3556 H   0  0  0  0  0  0  0  0  0  0  0  0
    9.7848    2.6945   20.8323 H   0  0  0  0  0  0  0  0  0  0  0  0
    8.1293    2.1798   20.5503 H   0  0  0  0  0  0  0  0  0  0  0  0
    7.8780    1.6831   23.0093 H   0  0  0  0  0  0  0  0  0  0  0  0
    8.3255    3.3497   22.7132 H   0  0  0  0  0  0  0  0  0  0  0  0
   11.0852    2.8900   23.2339 C   0  0  0  0  0  0  0  0  0  0  0  0
   11.0439    3.7068   22.5217 H   0  0  0  0  0  0  0  0  0  0  0  0
   11.2089    0.1215   25.9483 H   0  0  0  0  0  0  0  0  0  0  0  0
   13.3620    1.2619   25.1289 H   0  0  0  0  0  0  0  0  0  0  0  0
  1  2  1  0
  2  3  2  0
  3  4  1  0
  4  5  2  0
  5  6  1  0
  5  7  1  0
  7  8  1  0
  8  9  1  0
  9 10  1  0
 10 11  1  0
 11 12  2  0
 12 13  1  0
 13 14  1  0
 14 15  1  0
 15 16  1  0
 16 17  1  0
 17 18  1  0
 18 19  1  0
 18 20  1  0
 16 21  1  0
 16 22  1  0
 15 23  1  0
 15 24  1  0
 14 25  1  0
 13 26  2  0
 26 27  1  0
 27 28  1  0
 28 29  2  0
 29 30  1  0
 30 31  2  0
 31 32  1  0
 32 33  2  0
 33 34  1  0
 31 35  1  0
 30 36  1  0
 29 37  1  0
 10 38  1  0
 10 39  1  0
  9 40  1  0
  9 41  1  0
  8 42  1  0
  8 43  1  0
  7 44  2  0
 44 45  1  0
  4 46  1  0
  3 47  1  0
 44  2  1  0
 27 11  1  0
 33 28  1  0
 18 14  1  0
M  END
>  <cnnaffinity>  (1) 
-6.29288

>  <filename>  (1) 
Fc1ccc(F)c(CCCc2nc(C3CCOC3)nn2-c2cccnc2)c1

$$$$
