
     RDKit          3D

 42 45  0  0  0  0  0  0  0  0999 V2000
   10.1094    5.9230   24.5686 F   0  0  0  0  0  0  0  0  0  0  0  0
    9.2008    5.4229   23.7184 C   0  0  0  0  0  0  0  0  0  0  0  0
    8.5787    6.2917   22.8288 C   0  0  0  0  0  0  0  0  0  0  0  0
    7.6451    5.7393   21.9588 C   0  0  0  0  0  0  0  0  0  0  0  0
    7.0321    6.5503   21.0855 F   0  0  0  0  0  0  0  0  0  0  0  0
    7.3189    4.3866   21.9687 C   0  0  0  0  0  0  0  0  0  0  0  0
    7.9519    3.5423   22.8903 C   0  0  0  0  0  0  0  0  0  0  0  0
    7.6600    2.0684   22.8833 C   0  0  0  0  0  0  0  0  0  0  0  0
    8.5812    1.3063   21.9036 C   0  0  0  0  0  0  0  0  0  0  0  0
    8.2653   -0.1469   21.8379 C   0  0  0  0  0  0  0  0  0  0  0  0
    8.6962   -1.0880   22.6541 N   0  0  0  0  0  0  0  0  0  0  0  0
    8.0512   -2.1945   22.2072 C   0  0  0  0  0  0  0  0  0  0  0  0
    8.2145   -3.5179   22.8038 C   0  0  0  0  0  0  0  0  0  0  0  0
    7.5250   -4.6335   22.2841 C   0  0  0  0  0  0  0  0  0  0  0  0
    7.7367   -5.8499   22.9072 C   0  0  0  0  0  0  0  0  0  0  0  0
    7.1113   -6.9441   22.4563 F   0  0  0  0  0  0  0  0  0  0  0  0
    8.6016   -5.9274   24.0058 C   0  0  0  0  0  0  0  0  0  0  0  0
    9.2566   -4.8705   24.4883 N   0  0  0  0  0  0  0  0  0  0  0  0
    9.0683   -3.6854   23.9043 C   0  0  0  0  0  0  0  0  0  0  0  0
    9.6239   -2.8664   24.3508 H   0  0  0  0  0  0  0  0  0  0  0  0
    8.7760   -6.8566   24.5185 H   0  0  0  0  0  0  0  0  0  0  0  0
    6.8466   -4.5530   21.4330 H   0  0  0  0  0  0  0  0  0  0  0  0
    7.2576   -1.9962   21.1702 N   0  0  0  0  0  0  0  0  0  0  0  0
    7.3842   -0.6705   20.9394 N   0  0  0  0  0  0  0  0  0  0  0  0
    6.6548   -0.0013   19.9012 C   0  0  0  0  0  0  0  0  0  0  0  0
    5.4426    0.6498   20.1638 C   0  0  0  0  0  0  0  0  0  0  0  0
    4.8084    1.3126   19.1064 C   0  0  0  0  0  0  0  0  0  0  0  0
    5.4000    1.2948   17.8392 C   0  0  0  0  0  0  0  0  0  0  0  0
    6.5637    0.6733   17.5833 N   0  0  0  0  0  0  0  0  0  0  0  0
    7.1715    0.0437   18.5967 C   0  0  0  0  0  0  0  0  0  0  0  0
    8.1227   -0.4341   18.3761 H   0  0  0  0  0  0  0  0  0  0  0  0
    4.9185    1.7842   16.9940 H   0  0  0  0  0  0  0  0  0  0  0  0
    3.8755    1.8414   19.2605 H   0  0  0  0  0  0  0  0  0  0  0  0
    5.0043    0.6259   21.1647 H   0  0  0  0  0  0  0  0  0  0  0  0
    9.6213    1.4103   22.2217 H   0  0  0  0  0  0  0  0  0  0  0  0
    8.5081    1.7589   20.9076 H   0  0  0  0  0  0  0  0  0  0  0  0
    6.6125    1.9067   22.6053 H   0  0  0  0  0  0  0  0  0  0  0  0
    7.7859    1.6524   23.8872 H   0  0  0  0  0  0  0  0  0  0  0  0
    8.9137    4.0623   23.7659 C   0  0  0  0  0  0  0  0  0  0  0  0
    9.4402    3.4314   24.4743 H   0  0  0  0  0  0  0  0  0  0  0  0
    6.5867    4.0125   21.2585 H   0  0  0  0  0  0  0  0  0  0  0  0
    8.8095    7.3489   22.8134 H   0  0  0  0  0  0  0  0  0  0  0  0
  1  2  1  0
  2  3  2  0
  3  4  1  0
  4  5  1  0
  4  6  2  0
  6  7  1  0
  7  8  1  0
  8  9  1  0
  9 10  1  0
 10 11  2  0
 11 12  1  0
 12 13  1  0
 13 14  2  0
 14 15  1  0
 15 16  1  0
 15 17  2  0
 17 18  1  0
 18 19  2  0
 19 20  1  0
 17 21  1  0
 14 22  1  0
 12 23  2  0
 23 24  1  0
 24 25  1  0
 25 26  2  0
 26 27  1  0
 27 28  2  0
 28 29  1  0
 29 30  2  0
 30 31  1  0
 28 32  1  0
 27 33  1  0
 26 34  1  0
  9 35  1  0
  9 36  1  0
  8 37  1  0
  8 38  1  0
  7 39  2  0
 39 40  1  0
  6 41  1  0
  3 42  1  0
 39  2  1  0
 24 10  1  0
 30 25  1  0
 19 13  1  0
M  END
>  <cnnaffinity>  (1) 
-6.46001

>  <filename>  (1) 
Fc1cc(F)cc(CCc2nc(-c3cncc(F)c3)nn2-c2cccnc2)c1

$$$$
