
     RDKit          3D

 41 44  0  0  0  0  0  0  0  0999 V2000
    6.0527    3.4648   29.0153 F   0  0  0  0  0  0  0  0  0  0  0  0
    6.3791    2.9760   27.8087 C   0  0  0  0  0  0  0  0  0  0  0  0
    5.5919    1.9762   27.2410 C   0  0  0  0  0  0  0  0  0  0  0  0
    5.9383    1.4675   25.9850 C   0  0  0  0  0  0  0  0  0  0  0  0
    7.0695    1.9618   25.3006 C   0  0  0  0  0  0  0  0  0  0  0  0
    7.5114    1.4439   23.9832 C   0  0  0  0  0  0  0  0  0  0  0  0
    6.8958    0.5092   23.2740 N   0  0  0  0  0  0  0  0  0  0  0  0
    7.7092    0.3361   22.2035 N   0  0  0  0  0  0  0  0  0  0  0  0
    7.3715   -0.5976   21.1329 C   0  0  0  0  0  0  0  0  0  0  0  0
    6.6873    0.0567   19.9432 C   0  0  0  0  0  0  0  0  0  0  0  0
    5.4757    0.7369   20.1229 C   0  0  0  0  0  0  0  0  0  0  0  0
    4.8780    1.3446   19.0172 C   0  0  0  0  0  0  0  0  0  0  0  0
    5.5109    1.2503   17.7745 C   0  0  0  0  0  0  0  0  0  0  0  0
    6.6665    0.5992   17.5769 N   0  0  0  0  0  0  0  0  0  0  0  0
    7.2295    0.0242   18.6483 C   0  0  0  0  0  0  0  0  0  0  0  0
    8.1680   -0.5001   18.4601 H   0  0  0  0  0  0  0  0  0  0  0  0
    5.0737    1.7246   16.8987 H   0  0  0  0  0  0  0  0  0  0  0  0
    3.9507    1.9012   19.1054 H   0  0  0  0  0  0  0  0  0  0  0  0
    5.0214    0.7946   21.1140 H   0  0  0  0  0  0  0  0  0  0  0  0
    8.2899   -1.1054   20.8126 H   0  0  0  0  0  0  0  0  0  0  0  0
    6.7257   -1.3509   21.5975 H   0  0  0  0  0  0  0  0  0  0  0  0
    8.7650    1.1729   22.3096 C   0  0  0  0  0  0  0  0  0  0  0  0
    9.9062    1.2630   21.3479 C   0  0  0  0  0  0  0  0  0  0  0  0
   11.0721    0.3639   21.6544 C   0  0  0  0  0  0  0  0  0  0  0  0
   12.0458    0.5313   22.6054 C   0  0  0  0  0  0  0  0  0  0  0  0
   12.9506   -0.5605   22.4973 C   0  0  0  0  0  0  0  0  0  0  0  0
   12.5005   -1.3605   21.4836 C   0  0  0  0  0  0  0  0  0  0  0  0
   11.3455   -0.8001   20.9925 N   0  0  0  0  0  0  0  0  0  0  0  0
   10.8443   -1.1340   20.1808 H   0  0  0  0  0  0  0  0  0  0  0  0
   12.9356   -2.2439   21.0390 H   0  0  0  0  0  0  0  0  0  0  0  0
   13.8725   -0.6982   23.0492 H   0  0  0  0  0  0  0  0  0  0  0  0
   12.1132    1.3719   23.2813 H   0  0  0  0  0  0  0  0  0  0  0  0
   10.2457    2.3004   21.4069 H   0  0  0  0  0  0  0  0  0  0  0  0
    9.5421    1.1121   20.3301 H   0  0  0  0  0  0  0  0  0  0  0  0
    8.6638    1.8900   23.4036 N   0  0  0  0  0  0  0  0  0  0  0  0
    7.8452    2.9656   25.9197 C   0  0  0  0  0  0  0  0  0  0  0  0
    7.5072    3.4754   27.1686 C   0  0  0  0  0  0  0  0  0  0  0  0
    8.1077    4.2325   27.6589 H   0  0  0  0  0  0  0  0  0  0  0  0
    8.7294    3.3308   25.4034 H   0  0  0  0  0  0  0  0  0  0  0  0
    5.3386    0.6759   25.5391 H   0  0  0  0  0  0  0  0  0  0  0  0
    4.7424    1.6056   27.8029 H   0  0  0  0  0  0  0  0  0  0  0  0
  1  2  1  0
  2  3  2  0
  3  4  1  0
  4  5  2  0
  5  6  1  0
  6  7  2  0
  7  8  1  0
  8  9  1  0
  9 10  1  0
 10 11  2  0
 11 12  1  0
 12 13  2  0
 13 14  1  0
 14 15  2  0
 15 16  1  0
 13 17  1  0
 12 18  1  0
 11 19  1  0
  9 20  1  0
  9 21  1  0
  8 22  1  0
 22 23  1  0
 23 24  1  0
 24 25  2  0
 25 26  1  0
 26 27  2  0
 27 28  1  0
 28 29  1  0
 27 30  1  0
 26 31  1  0
 25 32  1  0
 23 33  1  0
 23 34  1  0
 22 35  2  0
  5 36  1  0
 36 37  2  0
 37 38  1  0
 36 39  1  0
  4 40  1  0
  3 41  1  0
 37  2  1  0
 35  6  1  0
 15 10  1  0
 28 24  1  0
M  END
>  <cnnaffinity>  (1) 
-5.85876

>  <filename>  (1) 
Fc1ccc(-c2nc(Cc3ccc[nH]3)n(Cc3cccnc3)n2)cc1

$$$$
