
     RDKit          3D

 40 43  0  0  0  0  0  0  0  0999 V2000
    6.9354    1.6083   25.8770 F   0  0  0  0  0  0  0  0  0  0  0  0
    8.0492    1.8138   25.1570 C   0  0  0  0  0  0  0  0  0  0  0  0
    9.2624    1.9956   25.8016 C   0  0  0  0  0  0  0  0  0  0  0  0
   10.4223    2.1640   25.0345 C   0  0  0  0  0  0  0  0  0  0  0  0
   10.3396    2.2175   23.6476 C   0  0  0  0  0  0  0  0  0  0  0  0
    9.1149    2.0675   22.9819 C   0  0  0  0  0  0  0  0  0  0  0  0
    9.0821    2.0065   21.4724 C   0  0  0  0  0  0  0  0  0  0  0  0
    9.5170    0.6103   20.9482 C   0  0  0  0  0  0  0  0  0  0  0  0
    8.6268   -0.4917   21.4188 C   0  0  0  0  0  0  0  0  0  0  0  0
    8.8552   -1.3049   22.4306 N   0  0  0  0  0  0  0  0  0  0  0  0
    7.6613   -1.9403   22.5810 C   0  0  0  0  0  0  0  0  0  0  0  0
    7.4487   -2.9642   23.6302 C   0  0  0  0  0  0  0  0  0  0  0  0
    8.4109   -4.1177   23.7364 C   0  0  0  0  0  0  0  0  0  0  0  0
    7.0159   -4.3459   23.2237 C   0  0  0  0  0  0  0  0  0  0  0  0
    6.2970   -4.8719   23.8470 H   0  0  0  0  0  0  0  0  0  0  0  0
    6.8717   -4.5058   22.1572 H   0  0  0  0  0  0  0  0  0  0  0  0
    9.2401   -4.1286   23.0307 H   0  0  0  0  0  0  0  0  0  0  0  0
    8.6808   -4.4884   24.7228 H   0  0  0  0  0  0  0  0  0  0  0  0
    7.0560   -2.5474   24.5545 H   0  0  0  0  0  0  0  0  0  0  0  0
    6.7297   -1.5974   21.7140 N   0  0  0  0  0  0  0  0  0  0  0  0
    7.3587   -0.6738   20.9406 N   0  0  0  0  0  0  0  0  0  0  0  0
    6.6575   -0.0016   19.9003 C   0  0  0  0  0  0  0  0  0  0  0  0
    5.4417    0.6387   20.1659 C   0  0  0  0  0  0  0  0  0  0  0  0
    4.8143    1.3087   19.1107 C   0  0  0  0  0  0  0  0  0  0  0  0
    5.3995    1.2963   17.8384 C   0  0  0  0  0  0  0  0  0  0  0  0
    6.5572    0.6707   17.5756 N   0  0  0  0  0  0  0  0  0  0  0  0
    7.1658    0.0474   18.5904 C   0  0  0  0  0  0  0  0  0  0  0  0
    8.1118   -0.4361   18.3635 H   0  0  0  0  0  0  0  0  0  0  0  0
    4.9222    1.7879   16.9934 H   0  0  0  0  0  0  0  0  0  0  0  0
    3.8832    1.8390   19.2612 H   0  0  0  0  0  0  0  0  0  0  0  0
    5.0270    0.6095   21.1776 H   0  0  0  0  0  0  0  0  0  0  0  0
   10.5282    0.3747   21.2922 H   0  0  0  0  0  0  0  0  0  0  0  0
    9.5494    0.6278   19.8574 H   0  0  0  0  0  0  0  0  0  0  0  0
    9.7611    2.7681   21.0752 H   0  0  0  0  0  0  0  0  0  0  0  0
    8.0764    2.2444   21.1110 H   0  0  0  0  0  0  0  0  0  0  0  0
    7.9768    1.8409   23.7622 C   0  0  0  0  0  0  0  0  0  0  0  0
    6.7726    1.6605   23.1854 F   0  0  0  0  0  0  0  0  0  0  0  0
   11.2458    2.3620   23.0638 H   0  0  0  0  0  0  0  0  0  0  0  0
   11.4070    2.2168   25.4807 H   0  0  0  0  0  0  0  0  0  0  0  0
    9.2299    1.9835   26.8810 H   0  0  0  0  0  0  0  0  0  0  0  0
  1  2  1  0
  2  3  2  0
  3  4  1  0
  4  5  2  0
  5  6  1  0
  6  7  1  0
  7  8  1  0
  8  9  1  0
  9 10  2  0
 10 11  1  0
 11 12  1  0
 12 13  1  0
 13 14  1  0
 14 15  1  0
 14 16  1  0
 13 17  1  0
 13 18  1  0
 12 19  1  0
 11 20  2  0
 20 21  1  0
 21 22  1  0
 22 23  2  0
 23 24  1  0
 24 25  2  0
 25 26  1  0
 26 27  2  0
 27 28  1  0
 25 29  1  0
 24 30  1  0
 23 31  1  0
  8 32  1  0
  8 33  1  0
  7 34  1  0
  7 35  1  0
  6 36  2  0
 36 37  1  0
  5 38  1  0
  4 39  1  0
  3 40  1  0
 36  2  1  0
 21  9  1  0
 27 22  1  0
 14 12  1  0
M  END
>  <cnnaffinity>  (1) 
-6.09308

>  <filename>  (1) 
Fc1cccc(CCc2nc(C3CC3)nn2-c2cccnc2)c1F

$$$$
