
     RDKit          3D

 38 41  0  0  0  0  0  0  0  0999 V2000
   12.2264   -0.3053   21.8844 F   0  0  0  0  0  0  0  0  0  0  0  0
   11.5743    0.7554   22.3936 C   0  0  0  0  0  0  0  0  0  0  0  0
   12.1437    1.4474   23.4662 C   0  0  0  0  0  0  0  0  0  0  0  0
   11.5389    2.4990   24.0382 N   0  0  0  0  0  0  0  0  0  0  0  0
   10.3556    2.8992   23.5468 C   0  0  0  0  0  0  0  0  0  0  0  0
    9.7299    2.2415   22.4745 C   0  0  0  0  0  0  0  0  0  0  0  0
    8.1575    2.7730   21.9555 Cl  0  0  0  0  0  0  0  0  0  0  0  0
   10.3326    1.1242   21.8674 C   0  0  0  0  0  0  0  0  0  0  0  0
    9.6360    0.2906   20.8115 C   0  0  0  0  0  0  0  0  0  0  0  0
    8.5816   -0.5915   21.3818 C   0  0  0  0  0  0  0  0  0  0  0  0
    8.7869   -1.4474   22.3515 N   0  0  0  0  0  0  0  0  0  0  0  0
    7.5737   -2.0506   22.5181 C   0  0  0  0  0  0  0  0  0  0  0  0
    7.3640   -3.0966   23.5808 C   0  0  0  0  0  0  0  0  0  0  0  0
    8.4287   -3.4904   24.4269 C   0  0  0  0  0  0  0  0  0  0  0  0
    8.1906   -4.4527   25.4113 C   0  0  0  0  0  0  0  0  0  0  0  0
    6.9021   -4.9876   25.5239 C   0  0  0  0  0  0  0  0  0  0  0  0
    5.9139   -4.5360   24.6452 C   0  0  0  0  0  0  0  0  0  0  0  0
    6.1312   -3.6286   23.6960 N   0  0  0  0  0  0  0  0  0  0  0  0
    4.8927   -4.9048   24.6844 H   0  0  0  0  0  0  0  0  0  0  0  0
    6.6459   -5.7357   26.2643 H   0  0  0  0  0  0  0  0  0  0  0  0
    8.9926   -4.7782   26.0751 H   0  0  0  0  0  0  0  0  0  0  0  0
    9.4043   -3.0280   24.2911 H   0  0  0  0  0  0  0  0  0  0  0  0
    6.6400   -1.6096   21.6831 N   0  0  0  0  0  0  0  0  0  0  0  0
    7.2972   -0.6958   20.9367 N   0  0  0  0  0  0  0  0  0  0  0  0
    6.6378   -0.0059   19.8831 C   0  0  0  0  0  0  0  0  0  0  0  0
    5.4291    0.6404   20.1456 C   0  0  0  0  0  0  0  0  0  0  0  0
    4.8013    1.3198   19.0980 C   0  0  0  0  0  0  0  0  0  0  0  0
    5.3900    1.3007   17.8270 C   0  0  0  0  0  0  0  0  0  0  0  0
    6.5378    0.6587   17.5622 N   0  0  0  0  0  0  0  0  0  0  0  0
    7.1483    0.0323   18.5732 C   0  0  0  0  0  0  0  0  0  0  0  0
    8.0935   -0.4531   18.3322 H   0  0  0  0  0  0  0  0  0  0  0  0
    4.9300    1.8180   16.9873 H   0  0  0  0  0  0  0  0  0  0  0  0
    3.8696    1.8538   19.2495 H   0  0  0  0  0  0  0  0  0  0  0  0
    5.0182    0.5769   21.1531 H   0  0  0  0  0  0  0  0  0  0  0  0
    9.1860    0.9376   20.0609 H   0  0  0  0  0  0  0  0  0  0  0  0
   10.3423   -0.3844   20.3214 H   0  0  0  0  0  0  0  0  0  0  0  0
    9.8722    3.7515   24.0295 H   0  0  0  0  0  0  0  0  0  0  0  0
   13.1009    1.1137   23.8665 H   0  0  0  0  0  0  0  0  0  0  0  0
  1  2  1  0
  2  3  2  0
  3  4  1  0
  4  5  2  0
  5  6  1  0
  6  7  1  0
  6  8  2  0
  8  9  1  0
  9 10  1  0
 10 11  2  0
 11 12  1  0
 12 13  1  0
 13 14  2  0
 14 15  1  0
 15 16  2  0
 16 17  1  0
 17 18  2  0
 17 19  1  0
 16 20  1  0
 15 21  1  0
 14 22  1  0
 12 23  2  0
 23 24  1  0
 24 25  1  0
 25 26  2  0
 26 27  1  0
 27 28  2  0
 28 29  1  0
 29 30  2  0
 30 31  1  0
 28 32  1  0
 27 33  1  0
 26 34  1  0
  9 35  1  0
  9 36  1  0
  5 37  1  0
  3 38  1  0
  8  2  1  0
 24 10  1  0
 30 25  1  0
 18 13  1  0
M  END
>  <cnnaffinity>  (1) 
-6.57507

>  <filename>  (1) 
Fc1cncc(Cl)c1Cc1nc(-c2ccccn2)nn1-c1cccnc1

$$$$
