
     RDKit          3D

 41 44  0  0  0  0  0  0  0  0999 V2000
    7.2838    6.1926   26.0187 F   0  0  0  0  0  0  0  0  0  0  0  0
    7.6944    5.1827   25.2308 C   0  0  0  0  0  0  0  0  0  0  0  0
    8.0824    3.9778   25.8159 C   0  0  0  0  0  0  0  0  0  0  0  0
    8.5078    2.9289   24.9969 C   0  0  0  0  0  0  0  0  0  0  0  0
    8.5475    3.0805   23.5937 C   0  0  0  0  0  0  0  0  0  0  0  0
    8.9825    1.9971   22.8887 O   0  0  0  0  0  0  0  0  0  0  0  0
    9.0398    2.0189   21.4649 C   0  0  0  0  0  0  0  0  0  0  0  0
    9.5102    0.6385   20.9971 C   0  0  0  0  0  0  0  0  0  0  0  0
    8.6163   -0.4565   21.4521 C   0  0  0  0  0  0  0  0  0  0  0  0
    8.8463   -1.2752   22.4520 N   0  0  0  0  0  0  0  0  0  0  0  0
    7.6657   -1.9372   22.5772 C   0  0  0  0  0  0  0  0  0  0  0  0
    7.4646   -2.9857   23.6041 C   0  0  0  0  0  0  0  0  0  0  0  0
    8.4372   -4.1331   23.6926 C   0  0  0  0  0  0  0  0  0  0  0  0
    7.0449   -4.3659   23.1762 C   0  0  0  0  0  0  0  0  0  0  0  0
    6.3323   -4.9095   23.7913 H   0  0  0  0  0  0  0  0  0  0  0  0
    6.9036   -4.5125   22.1077 H   0  0  0  0  0  0  0  0  0  0  0  0
    8.7083   -4.5192   24.6725 H   0  0  0  0  0  0  0  0  0  0  0  0
    9.2656   -4.1275   22.9870 H   0  0  0  0  0  0  0  0  0  0  0  0
    7.0690   -2.5906   24.5362 H   0  0  0  0  0  0  0  0  0  0  0  0
    6.7339   -1.5928   21.7102 N   0  0  0  0  0  0  0  0  0  0  0  0
    7.3607   -0.6579   20.9491 N   0  0  0  0  0  0  0  0  0  0  0  0
    6.6616    0.0111   19.9044 C   0  0  0  0  0  0  0  0  0  0  0  0
    5.4407    0.6428   20.1668 C   0  0  0  0  0  0  0  0  0  0  0  0
    4.8134    1.3095   19.1098 C   0  0  0  0  0  0  0  0  0  0  0  0
    5.4011    1.2963   17.8380 C   0  0  0  0  0  0  0  0  0  0  0  0
    6.5597    0.6725   17.5774 N   0  0  0  0  0  0  0  0  0  0  0  0
    7.1702    0.0530   18.5941 C   0  0  0  0  0  0  0  0  0  0  0  0
    8.1123   -0.4370   18.3643 H   0  0  0  0  0  0  0  0  0  0  0  0
    4.9223    1.7868   16.9932 H   0  0  0  0  0  0  0  0  0  0  0  0
    3.8808    1.8385   19.2591 H   0  0  0  0  0  0  0  0  0  0  0  0
    5.0163    0.6041   21.1745 H   0  0  0  0  0  0  0  0  0  0  0  0
    9.5679    0.6412   19.9071 H   0  0  0  0  0  0  0  0  0  0  0  0
   10.5111    0.4269   21.3748 H   0  0  0  0  0  0  0  0  0  0  0  0
    9.7479    2.7851   21.1221 H   0  0  0  0  0  0  0  0  0  0  0  0
    8.0521    2.2452   21.0362 H   0  0  0  0  0  0  0  0  0  0  0  0
    8.1532    4.3044   23.0316 C   0  0  0  0  0  0  0  0  0  0  0  0
    7.7248    5.3587   23.8536 C   0  0  0  0  0  0  0  0  0  0  0  0
    7.4130    6.3114   23.4355 H   0  0  0  0  0  0  0  0  0  0  0  0
    8.1820    4.4428   21.9544 H   0  0  0  0  0  0  0  0  0  0  0  0
    8.8122    1.9837   25.4338 H   0  0  0  0  0  0  0  0  0  0  0  0
    8.0407    3.8846   26.8975 H   0  0  0  0  0  0  0  0  0  0  0  0
  1  2  1  0
  2  3  2  0
  3  4  1  0
  4  5  2  0
  5  6  1  0
  6  7  1  0
  7  8  1  0
  8  9  1  0
  9 10  2  0
 10 11  1  0
 11 12  1  0
 12 13  1  0
 13 14  1  0
 14 15  1  0
 14 16  1  0
 13 17  1  0
 13 18  1  0
 12 19  1  0
 11 20  2  0
 20 21  1  0
 21 22  1  0
 22 23  2  0
 23 24  1  0
 24 25  2  0
 25 26  1  0
 26 27  2  0
 27 28  1  0
 25 29  1  0
 24 30  1  0
 23 31  1  0
  8 32  1  0
  8 33  1  0
  7 34  1  0
  7 35  1  0
  5 36  1  0
 36 37  2  0
 37 38  1  0
 36 39  1  0
  4 40  1  0
  3 41  1  0
 37  2  1  0
 21  9  1  0
 27 22  1  0
 14 12  1  0
M  END
>  <cnnaffinity>  (1) 
-5.84187

>  <filename>  (1) 
Fc1ccc(OCCc2nc(C3CC3)nn2-c2cccnc2)cc1

$$$$
