
     RDKit          3D

 41 44  0  0  0  0  0  0  0  0999 V2000
    5.9798    5.6035   24.7957 F   0  0  0  0  0  0  0  0  0  0  0  0
    5.4248    4.3811   24.7748 C   0  0  0  0  0  0  0  0  0  0  0  0
    4.2139    4.1760   25.4228 C   0  0  0  0  0  0  0  0  0  0  0  0
    3.6544    2.8903   25.4052 C   0  0  0  0  0  0  0  0  0  0  0  0
    4.2911    1.8499   24.7366 C   0  0  0  0  0  0  0  0  0  0  0  0
    5.4928    2.1071   24.0645 C   0  0  0  0  0  0  0  0  0  0  0  0
    5.9840    1.0535   23.3698 O   0  0  0  0  0  0  0  0  0  0  0  0
    7.2638    1.1705   22.7623 C   0  0  0  0  0  0  0  0  0  0  0  0
    7.5914   -0.1669   22.2175 C   0  0  0  0  0  0  0  0  0  0  0  0
    8.1996   -1.1022   22.9039 N   0  0  0  0  0  0  0  0  0  0  0  0
    8.3267   -2.1008   21.9963 C   0  0  0  0  0  0  0  0  0  0  0  0
    9.0658   -3.3337   22.3198 C   0  0  0  0  0  0  0  0  0  0  0  0
   10.4445   -3.0512   22.9942 C   0  0  0  0  0  0  0  0  0  0  0  0
   10.0526   -3.9655   24.1685 C   0  0  0  0  0  0  0  0  0  0  0  0
    8.6406   -4.1606   23.5682 C   0  0  0  0  0  0  0  0  0  0  0  0
    7.8294   -3.6883   24.1306 H   0  0  0  0  0  0  0  0  0  0  0  0
    8.3583   -5.2009   23.3629 H   0  0  0  0  0  0  0  0  0  0  0  0
   10.0548   -3.4663   25.1406 H   0  0  0  0  0  0  0  0  0  0  0  0
   10.6367   -4.8841   24.2598 H   0  0  0  0  0  0  0  0  0  0  0  0
   11.3435   -3.2946   22.4297 H   0  0  0  0  0  0  0  0  0  0  0  0
   10.5145   -2.0047   23.3125 H   0  0  0  0  0  0  0  0  0  0  0  0
    9.0296   -3.8957   21.3922 H   0  0  0  0  0  0  0  0  0  0  0  0
    7.8394   -1.8423   20.8014 N   0  0  0  0  0  0  0  0  0  0  0  0
    7.3284   -0.5927   20.9532 N   0  0  0  0  0  0  0  0  0  0  0  0
    6.6231    0.0458   19.9076 C   0  0  0  0  0  0  0  0  0  0  0  0
    5.4094    0.6985   20.1539 C   0  0  0  0  0  0  0  0  0  0  0  0
    4.7876    1.3343   19.0749 C   0  0  0  0  0  0  0  0  0  0  0  0
    5.4023    1.3002   17.8198 C   0  0  0  0  0  0  0  0  0  0  0  0
    6.5546    0.6481   17.5806 N   0  0  0  0  0  0  0  0  0  0  0  0
    7.1419    0.0225   18.6030 C   0  0  0  0  0  0  0  0  0  0  0  0
    8.0704   -0.5080   18.4022 H   0  0  0  0  0  0  0  0  0  0  0  0
    4.9544    1.8121   16.9706 H   0  0  0  0  0  0  0  0  0  0  0  0
    3.8508    1.8635   19.2045 H   0  0  0  0  0  0  0  0  0  0  0  0
    4.9782    0.6986   21.1534 H   0  0  0  0  0  0  0  0  0  0  0  0
    7.2502    1.9373   21.9776 H   0  0  0  0  0  0  0  0  0  0  0  0
    8.0240    1.4228   23.5128 H   0  0  0  0  0  0  0  0  0  0  0  0
    6.0954    3.3684   24.0962 C   0  0  0  0  0  0  0  0  0  0  0  0
    7.0439    3.5666   23.6148 H   0  0  0  0  0  0  0  0  0  0  0  0
    3.9084    0.8338   24.7106 H   0  0  0  0  0  0  0  0  0  0  0  0
    2.7119    2.6996   25.9115 H   0  0  0  0  0  0  0  0  0  0  0  0
    3.7356    5.0095   25.9226 H   0  0  0  0  0  0  0  0  0  0  0  0
  1  2  1  0
  2  3  2  0
  3  4  1  0
  4  5  2  0
  5  6  1  0
  6  7  1  0
  7  8  1  0
  8  9  1  0
  9 10  2  0
 10 11  1  0
 11 12  1  0
 12 13  1  0
 13 14  1  0
 14 15  1  0
 15 16  1  0
 15 17  1  0
 14 18  1  0
 14 19  1  0
 13 20  1  0
 13 21  1  0
 12 22  1  0
 11 23  2  0
 23 24  1  0
 24 25  1  0
 25 26  2  0
 26 27  1  0
 27 28  2  0
 28 29  1  0
 29 30  2  0
 30 31  1  0
 28 32  1  0
 27 33  1  0
 26 34  1  0
  8 35  1  0
  8 36  1  0
  6 37  2  0
 37 38  1  0
  5 39  1  0
  4 40  1  0
  3 41  1  0
 37  2  1  0
 24  9  1  0
 30 25  1  0
 15 12  1  0
M  END
>  <cnnaffinity>  (1) 
-5.84803

>  <filename>  (1) 
Fc1cccc(OCc2nc(C3CCC3)nn2-c2cccnc2)c1

$$$$
