
     RDKit          3D

 42 45  0  0  0  0  0  0  0  0999 V2000
    6.3563    4.6160   27.6405 F   0  0  0  0  0  0  0  0  0  0  0  0
    6.0055    3.6778   26.7437 C   0  0  0  0  0  0  0  0  0  0  0  0
    4.6599    3.3448   26.6035 C   0  0  0  0  0  0  0  0  0  0  0  0
    4.3048    2.3789   25.6547 C   0  0  0  0  0  0  0  0  0  0  0  0
    5.3011    1.7734   24.8945 C   0  0  0  0  0  0  0  0  0  0  0  0
    4.9286    0.8826   23.9505 F   0  0  0  0  0  0  0  0  0  0  0  0
    6.6659    2.0434   25.0729 C   0  0  0  0  0  0  0  0  0  0  0  0
    7.7062    1.2456   24.3176 C   0  0  0  0  0  0  0  0  0  0  0  0
    7.8391    1.6306   22.8157 C   0  0  0  0  0  0  0  0  0  0  0  0
    8.7382    0.6968   22.0751 C   0  0  0  0  0  0  0  0  0  0  0  0
   10.0394    0.7410   22.2010 N   0  0  0  0  0  0  0  0  0  0  0  0
   10.4631   -0.4242   21.6363 C   0  0  0  0  0  0  0  0  0  0  0  0
   11.9088   -0.7280   21.7368 C   0  0  0  0  0  0  0  0  0  0  0  0
   12.6030   -1.6945   21.1991 N   0  0  0  0  0  0  0  0  0  0  0  0
   13.9344   -1.5673   21.5071 C   0  0  0  0  0  0  0  0  0  0  0  0
   14.2539   -0.5028   22.2976 C   0  0  0  0  0  0  0  0  0  0  0  0
   12.8653    0.4057   22.6609 S   0  0  0  0  0  0  0  0  0  0  0  0
   15.2138   -0.1907   22.6703 H   0  0  0  0  0  0  0  0  0  0  0  0
   14.6377   -2.2853   21.1061 H   0  0  0  0  0  0  0  0  0  0  0  0
    9.4855   -1.1633   21.1307 N   0  0  0  0  0  0  0  0  0  0  0  0
    8.3860   -0.4248   21.4058 N   0  0  0  0  0  0  0  0  0  0  0  0
    7.0431   -0.8467   21.0199 C   0  0  0  0  0  0  0  0  0  0  0  0
    6.4242   -0.0013   19.9180 C   0  0  0  0  0  0  0  0  0  0  0  0
    5.2340    0.7201   20.0833 C   0  0  0  0  0  0  0  0  0  0  0  0
    4.7071    1.4115   18.9893 C   0  0  0  0  0  0  0  0  0  0  0  0
    5.4018    1.3798   17.7759 C   0  0  0  0  0  0  0  0  0  0  0  0
    6.5622    0.7236   17.6062 N   0  0  0  0  0  0  0  0  0  0  0  0
    7.0544    0.0694   18.6636 C   0  0  0  0  0  0  0  0  0  0  0  0
    8.0127   -0.4278   18.5140 H   0  0  0  0  0  0  0  0  0  0  0  0
    5.0189    1.9091   16.9061 H   0  0  0  0  0  0  0  0  0  0  0  0
    3.7870    1.9844   19.0615 H   0  0  0  0  0  0  0  0  0  0  0  0
    4.7428    0.7687   21.0600 H   0  0  0  0  0  0  0  0  0  0  0  0
    7.1247   -1.8937   20.7165 H   0  0  0  0  0  0  0  0  0  0  0  0
    6.4082   -0.8268   21.9135 H   0  0  0  0  0  0  0  0  0  0  0  0
    6.8610    1.7040   22.3321 H   0  0  0  0  0  0  0  0  0  0  0  0
    8.3108    2.6143   22.7471 H   0  0  0  0  0  0  0  0  0  0  0  0
    7.4637    0.1774   24.4171 H   0  0  0  0  0  0  0  0  0  0  0  0
    8.6862    1.3728   24.7967 H   0  0  0  0  0  0  0  0  0  0  0  0
    7.0010    3.0489   25.9969 C   0  0  0  0  0  0  0  0  0  0  0  0
    8.0334    3.3521   26.1518 H   0  0  0  0  0  0  0  0  0  0  0  0
    3.2736    2.0760   25.5006 H   0  0  0  0  0  0  0  0  0  0  0  0
    3.9218    3.8373   27.2288 H   0  0  0  0  0  0  0  0  0  0  0  0
  1  2  1  0
  2  3  2  0
  3  4  1  0
  4  5  2  0
  5  6  1  0
  5  7  1  0
  7  8  1  0
  8  9  1  0
  9 10  1  0
 10 11  2  0
 11 12  1  0
 12 13  1  0
 13 14  2  0
 14 15  1  0
 15 16  2  0
 16 17  1  0
 16 18  1  0
 15 19  1  0
 12 20  2  0
 20 21  1  0
 21 22  1  0
 22 23  1  0
 23 24  2  0
 24 25  1  0
 25 26  2  0
 26 27  1  0
 27 28  2  0
 28 29  1  0
 26 30  1  0
 25 31  1  0
 24 32  1  0
 22 33  1  0
 22 34  1  0
  9 35  1  0
  9 36  1  0
  8 37  1  0
  8 38  1  0
  7 39  2  0
 39 40  1  0
  4 41  1  0
  3 42  1  0
 39  2  1  0
 21 10  1  0
 28 23  1  0
 17 13  1  0
M  END
>  <cnnaffinity>  (1) 
-6.64101

>  <filename>  (1) 
Fc1ccc(F)c(CCc2nc(-c3nccs3)nn2Cc2cccnc2)c1

$$$$
