
     RDKit          3D

 42 45  0  0  0  0  0  0  0  0999 V2000
    6.0960    7.6248   23.4493 F   0  0  0  0  0  0  0  0  0  0  0  0
    6.5972    6.4592   23.0146 C   0  0  0  0  0  0  0  0  0  0  0  0
    7.8118    5.9960   23.5056 C   0  0  0  0  0  0  0  0  0  0  0  0
    8.3333    4.7822   23.0380 C   0  0  0  0  0  0  0  0  0  0  0  0
    7.6404    4.0438   22.0689 C   0  0  0  0  0  0  0  0  0  0  0  0
    8.2994    2.5127   21.4530 S   0  0  0  0  0  0  0  0  0  0  0  0
    7.4848    1.3807   22.6298 C   0  0  0  0  0  0  0  0  0  0  0  0
    7.6455   -0.0308   22.2031 C   0  0  0  0  0  0  0  0  0  0  0  0
    8.1927   -0.9375   22.9763 N   0  0  0  0  0  0  0  0  0  0  0  0
    8.2914   -2.0183   22.1604 C   0  0  0  0  0  0  0  0  0  0  0  0
    8.9519   -3.2425   22.6816 C   0  0  0  0  0  0  0  0  0  0  0  0
    8.3120   -3.8984   23.9289 C   0  0  0  0  0  0  0  0  0  0  0  0
    9.5021   -4.5685   24.6281 C   0  0  0  0  0  0  0  0  0  0  0  0
   10.6763   -3.9853   24.0942 O   0  0  0  0  0  0  0  0  0  0  0  0
   10.3626   -2.9253   23.2183 C   0  0  0  0  0  0  0  0  0  0  0  0
   10.3724   -1.9618   23.7626 H   0  0  0  0  0  0  0  0  0  0  0  0
   11.1288   -2.8864   22.4363 H   0  0  0  0  0  0  0  0  0  0  0  0
    9.5512   -5.6492   24.4446 H   0  0  0  0  0  0  0  0  0  0  0  0
    9.4755   -4.4186   25.7165 H   0  0  0  0  0  0  0  0  0  0  0  0
    7.9179   -3.1038   24.5683 H   0  0  0  0  0  0  0  0  0  0  0  0
    7.5058   -4.6093   23.7204 H   0  0  0  0  0  0  0  0  0  0  0  0
    8.9898   -3.9509   21.8548 H   0  0  0  0  0  0  0  0  0  0  0  0
    7.8269   -1.8427   20.9403 N   0  0  0  0  0  0  0  0  0  0  0  0
    7.3620   -0.5568   20.9822 N   0  0  0  0  0  0  0  0  0  0  0  0
    6.6447    0.0330   19.8988 C   0  0  0  0  0  0  0  0  0  0  0  0
    5.4368    0.7116   20.1130 C   0  0  0  0  0  0  0  0  0  0  0  0
    4.8345    1.3471   19.0249 C   0  0  0  0  0  0  0  0  0  0  0  0
    5.4451    1.2707   17.7704 C   0  0  0  0  0  0  0  0  0  0  0  0
    6.5794    0.5823   17.5516 N   0  0  0  0  0  0  0  0  0  0  0  0
    7.1558   -0.0289   18.5926 C   0  0  0  0  0  0  0  0  0  0  0  0
    8.0685   -0.5880   18.3973 H   0  0  0  0  0  0  0  0  0  0  0  0
    5.0086    1.7737   16.9091 H   0  0  0  0  0  0  0  0  0  0  0  0
    3.9135    1.9068   19.1462 H   0  0  0  0  0  0  0  0  0  0  0  0
    4.9715    0.7254   21.0987 H   0  0  0  0  0  0  0  0  0  0  0  0
    6.4318    1.6499   22.7349 H   0  0  0  0  0  0  0  0  0  0  0  0
    7.9663    1.4625   23.6038 H   0  0  0  0  0  0  0  0  0  0  0  0
    6.4094    4.5120   21.5902 C   0  0  0  0  0  0  0  0  0  0  0  0
    5.8898    5.7100   22.0652 C   0  0  0  0  0  0  0  0  0  0  0  0
    4.7030    6.1514   21.6309 F   0  0  0  0  0  0  0  0  0  0  0  0
    5.8506    3.9575   20.8412 H   0  0  0  0  0  0  0  0  0  0  0  0
    9.2752    4.4022   23.4230 H   0  0  0  0  0  0  0  0  0  0  0  0
    8.3263    6.5960   24.2500 H   0  0  0  0  0  0  0  0  0  0  0  0
  1  2  1  0
  2  3  2  0
  3  4  1  0
  4  5  2  0
  5  6  1  0
  6  7  1  0
  7  8  1  0
  8  9  2  0
  9 10  1  0
 10 11  1  0
 11 12  1  0
 12 13  1  0
 13 14  1  0
 14 15  1  0
 15 16  1  0
 15 17  1  0
 13 18  1  0
 13 19  1  0
 12 20  1  0
 12 21  1  0
 11 22  1  0
 10 23  2  0
 23 24  1  0
 24 25  1  0
 25 26  2  0
 26 27  1  0
 27 28  2  0
 28 29  1  0
 29 30  2  0
 30 31  1  0
 28 32  1  0
 27 33  1  0
 26 34  1  0
  7 35  1  0
  7 36  1  0
  5 37  1  0
 37 38  2  0
 38 39  1  0
 37 40  1  0
  4 41  1  0
  3 42  1  0
 38  2  1  0
 24  8  1  0
 30 25  1  0
 15 11  1  0
M  END
>  <cnnaffinity>  (1) 
-6.01476

>  <filename>  (1) 
Fc1ccc(SCc2nc(C3CCOC3)nn2-c2cccnc2)cc1F

$$$$
