
     RDKit          3D

 38 41  0  0  0  0  0  0  0  0999 V2000
    4.7477   -5.1129   24.9034 F   0  0  0  0  0  0  0  0  0  0  0  0
    5.9481   -4.5520   24.7192 C   0  0  0  0  0  0  0  0  0  0  0  0
    7.0261   -4.9237   25.5311 C   0  0  0  0  0  0  0  0  0  0  0  0
    8.2437   -4.3900   25.3812 N   0  0  0  0  0  0  0  0  0  0  0  0
    8.4291   -3.4707   24.4249 C   0  0  0  0  0  0  0  0  0  0  0  0
    7.3972   -3.0491   23.5691 C   0  0  0  0  0  0  0  0  0  0  0  0
    7.6495   -2.0409   22.5346 C   0  0  0  0  0  0  0  0  0  0  0  0
    6.6933   -1.6118   21.7271 N   0  0  0  0  0  0  0  0  0  0  0  0
    7.3291   -0.7100   20.9410 N   0  0  0  0  0  0  0  0  0  0  0  0
    6.6483   -0.0075   19.9047 C   0  0  0  0  0  0  0  0  0  0  0  0
    5.4371    0.6407   20.1674 C   0  0  0  0  0  0  0  0  0  0  0  0
    4.8129    1.3114   19.1117 C   0  0  0  0  0  0  0  0  0  0  0  0
    5.4001    1.2945   17.8407 C   0  0  0  0  0  0  0  0  0  0  0  0
    6.5583    0.6690   17.5815 N   0  0  0  0  0  0  0  0  0  0  0  0
    7.1656    0.0459   18.5959 C   0  0  0  0  0  0  0  0  0  0  0  0
    8.1142   -0.4331   18.3654 H   0  0  0  0  0  0  0  0  0  0  0  0
    4.9193    1.7834   16.9959 H   0  0  0  0  0  0  0  0  0  0  0  0
    3.8815    1.8409   19.2618 H   0  0  0  0  0  0  0  0  0  0  0  0
    5.0157    0.6087   21.1750 H   0  0  0  0  0  0  0  0  0  0  0  0
    8.6207   -0.6093   21.3615 C   0  0  0  0  0  0  0  0  0  0  0  0
    9.6258    0.3326   20.7895 C   0  0  0  0  0  0  0  0  0  0  0  0
   10.3590    1.1228   21.8532 C   0  0  0  0  0  0  0  0  0  0  0  0
   11.6046    0.6894   22.3073 C   0  0  0  0  0  0  0  0  0  0  0  0
   12.2173    1.3555   23.3702 C   0  0  0  0  0  0  0  0  0  0  0  0
   11.5422    2.4265   23.9492 C   0  0  0  0  0  0  0  0  0  0  0  0
   10.3348    2.8500   23.5610 N   0  0  0  0  0  0  0  0  0  0  0  0
    9.7810    2.2086   22.5467 C   0  0  0  0  0  0  0  0  0  0  0  0
    8.1962    2.7452   22.0927 Cl  0  0  0  0  0  0  0  0  0  0  0  0
   11.9793    2.9842   24.7698 H   0  0  0  0  0  0  0  0  0  0  0  0
   13.1893    1.0539   23.7325 H   0  0  0  0  0  0  0  0  0  0  0  0
   12.0752   -0.1750   21.8375 H   0  0  0  0  0  0  0  0  0  0  0  0
    9.1641    1.0204   20.0762 H   0  0  0  0  0  0  0  0  0  0  0  0
   10.3193   -0.3209   20.2575 H   0  0  0  0  0  0  0  0  0  0  0  0
    8.8598   -1.4675   22.3326 N   0  0  0  0  0  0  0  0  0  0  0  0
    6.1125   -3.6055   23.7226 C   0  0  0  0  0  0  0  0  0  0  0  0
    5.2728   -3.3071   23.0932 H   0  0  0  0  0  0  0  0  0  0  0  0
    9.4368   -3.0706   24.3519 H   0  0  0  0  0  0  0  0  0  0  0  0
    6.8807   -5.6702   26.3113 H   0  0  0  0  0  0  0  0  0  0  0  0
  1  2  1  0
  2  3  2  0
  3  4  1  0
  4  5  2  0
  5  6  1  0
  6  7  1  0
  7  8  2  0
  8  9  1  0
  9 10  1  0
 10 11  2  0
 11 12  1  0
 12 13  2  0
 13 14  1  0
 14 15  2  0
 15 16  1  0
 13 17  1  0
 12 18  1  0
 11 19  1  0
  9 20  1  0
 20 21  1  0
 21 22  1  0
 22 23  2  0
 23 24  1  0
 24 25  2  0
 25 26  1  0
 26 27  2  0
 27 28  1  0
 25 29  1  0
 24 30  1  0
 23 31  1  0
 21 32  1  0
 21 33  1  0
 20 34  2  0
  6 35  2  0
 35 36  1  0
  5 37  1  0
  3 38  1  0
 35  2  1  0
 34  7  1  0
 15 10  1  0
 27 22  1  0
M  END
>  <cnnaffinity>  (1) 
-6.39333

>  <filename>  (1) 
Fc1cncc(-c2nc(Cc3cccnc3Cl)n(-c3cccnc3)n2)c1

$$$$
