
     RDKit          3D

 41 44  0  0  0  0  0  0  0  0999 V2000
   15.0679    0.6435   22.2997 F   0  0  0  0  0  0  0  0  0  0  0  0
   14.0245   -0.1121   21.9484 C   0  0  0  0  0  0  0  0  0  0  0  0
   14.2005   -1.2888   21.2016 C   0  0  0  0  0  0  0  0  0  0  0  0
   13.1834   -2.0449   20.7953 N   0  0  0  0  0  0  0  0  0  0  0  0
   11.9470   -1.6569   21.0975 C   0  0  0  0  0  0  0  0  0  0  0  0
   11.6876   -0.4518   21.7553 C   0  0  0  0  0  0  0  0  0  0  0  0
   10.2989   -0.0555   21.7891 C   0  0  0  0  0  0  0  0  0  0  0  0
    9.3520   -0.8398   21.3037 N   0  0  0  0  0  0  0  0  0  0  0  0
    8.2315   -0.1269   21.5135 N   0  0  0  0  0  0  0  0  0  0  0  0
    6.9518   -0.6689   21.0808 C   0  0  0  0  0  0  0  0  0  0  0  0
    6.3468    0.0692   19.9117 C   0  0  0  0  0  0  0  0  0  0  0  0
    5.1323    0.7549   20.0044 C   0  0  0  0  0  0  0  0  0  0  0  0
    4.6528    1.4288   18.8782 C   0  0  0  0  0  0  0  0  0  0  0  0
    5.4098    1.3902   17.7033 C   0  0  0  0  0  0  0  0  0  0  0  0
    6.5685    0.7227   17.5889 N   0  0  0  0  0  0  0  0  0  0  0  0
    7.0144    0.0828   18.6756 C   0  0  0  0  0  0  0  0  0  0  0  0
    7.9482   -0.4669   18.5625 H   0  0  0  0  0  0  0  0  0  0  0  0
    5.0723    1.9136   16.8109 H   0  0  0  0  0  0  0  0  0  0  0  0
    3.7267    1.9925   18.9029 H   0  0  0  0  0  0  0  0  0  0  0  0
    4.5725    0.7597   20.9442 H   0  0  0  0  0  0  0  0  0  0  0  0
    7.1638   -1.7121   20.8251 H   0  0  0  0  0  0  0  0  0  0  0  0
    6.2875   -0.6546   21.9483 H   0  0  0  0  0  0  0  0  0  0  0  0
    8.5555    1.0478   22.0940 C   0  0  0  0  0  0  0  0  0  0  0  0
    7.5915    1.9368   22.7931 C   0  0  0  0  0  0  0  0  0  0  0  0
    7.3509    1.2889   24.1299 C   0  0  0  0  0  0  0  0  0  0  0  0
    8.3133    1.3551   25.1502 C   0  0  0  0  0  0  0  0  0  0  0  0
    8.1381    0.6065   26.3132 C   0  0  0  0  0  0  0  0  0  0  0  0
    6.9832   -0.1754   26.4013 C   0  0  0  0  0  0  0  0  0  0  0  0
    6.6799   -1.1583   27.7941 Cl  0  0  0  0  0  0  0  0  0  0  0  0
    6.0691   -0.1809   25.3426 C   0  0  0  0  0  0  0  0  0  0  0  0
    6.2589    0.5249   24.2162 N   0  0  0  0  0  0  0  0  0  0  0  0
    5.1699   -0.7882   25.4138 H   0  0  0  0  0  0  0  0  0  0  0  0
    8.8751    0.6095   27.1159 H   0  0  0  0  0  0  0  0  0  0  0  0
    9.2116    1.9333   24.9691 H   0  0  0  0  0  0  0  0  0  0  0  0
    6.6601    2.0058   22.2334 H   0  0  0  0  0  0  0  0  0  0  0  0
    8.0384    2.9289   22.8892 H   0  0  0  0  0  0  0  0  0  0  0  0
    9.8605    1.1304   22.2580 N   0  0  0  0  0  0  0  0  0  0  0  0
   12.7451    0.3343   22.2375 C   0  0  0  0  0  0  0  0  0  0  0  0
   12.5996    1.2741   22.7681 H   0  0  0  0  0  0  0  0  0  0  0  0
   11.1195   -2.2913   20.7911 H   0  0  0  0  0  0  0  0  0  0  0  0
   15.1671   -1.6428   20.8927 H   0  0  0  0  0  0  0  0  0  0  0  0
  1  2  1  0
  2  3  2  0
  3  4  1  0
  4  5  2  0
  5  6  1  0
  6  7  1  0
  7  8  2  0
  8  9  1  0
  9 10  1  0
 10 11  1  0
 11 12  2  0
 12 13  1  0
 13 14  2  0
 14 15  1  0
 15 16  2  0
 16 17  1  0
 14 18  1  0
 13 19  1  0
 12 20  1  0
 10 21  1  0
 10 22  1  0
  9 23  1  0
 23 24  1  0
 24 25  1  0
 25 26  2  0
 26 27  1  0
 27 28  2  0
 28 29  1  0
 28 30  1  0
 30 31  2  0
 30 32  1  0
 27 33  1  0
 26 34  1  0
 24 35  1  0
 24 36  1  0
 23 37  2  0
  6 38  2  0
 38 39  1  0
  5 40  1  0
  3 41  1  0
 38  2  1  0
 37  7  1  0
 16 11  1  0
 31 25  1  0
M  END
>  <cnnaffinity>  (1) 
-6.96783

>  <filename>  (1) 
Fc1cncc(-c2nc(Cc3ccc(Cl)cn3)n(Cc3cccnc3)n2)c1

$$$$
