
     RDKit          3D

 39 42  0  0  0  0  0  0  0  0999 V2000
   14.8380    0.5444   22.5707 F   0  0  0  0  0  0  0  0  0  0  0  0
   13.8228   -0.1685   22.0705 C   0  0  0  0  0  0  0  0  0  0  0  0
   14.0940   -1.2772   21.2721 C   0  0  0  0  0  0  0  0  0  0  0  0
   13.0407   -1.9949   20.7270 C   0  0  0  0  0  0  0  0  0  0  0  0
   11.7338   -1.6623   21.0623 C   0  0  0  0  0  0  0  0  0  0  0  0
   11.4541   -0.5113   21.8109 C   0  0  0  0  0  0  0  0  0  0  0  0
   10.0272   -0.1236   21.9200 C   0  0  0  0  0  0  0  0  0  0  0  0
    9.0660   -0.9437   21.5083 N   0  0  0  0  0  0  0  0  0  0  0  0
    7.9345   -0.2495   21.7305 N   0  0  0  0  0  0  0  0  0  0  0  0
    6.6689   -0.7304   21.1777 C   0  0  0  0  0  0  0  0  0  0  0  0
    6.2045    0.0559   19.9668 C   0  0  0  0  0  0  0  0  0  0  0  0
    5.0049    0.7726   19.9677 C   0  0  0  0  0  0  0  0  0  0  0  0
    4.6403    1.4774   18.8188 C   0  0  0  0  0  0  0  0  0  0  0  0
    5.4947    1.4427   17.7138 C   0  0  0  0  0  0  0  0  0  0  0  0
    6.6503    0.7613   17.6911 N   0  0  0  0  0  0  0  0  0  0  0  0
    6.9939    0.0990   18.8027 C   0  0  0  0  0  0  0  0  0  0  0  0
    7.9494   -0.4262   18.7691 H   0  0  0  0  0  0  0  0  0  0  0  0
    5.2379    1.9779   16.8025 H   0  0  0  0  0  0  0  0  0  0  0  0
    3.7277    2.0598   18.7761 H   0  0  0  0  0  0  0  0  0  0  0  0
    4.3726    0.7880   20.8590 H   0  0  0  0  0  0  0  0  0  0  0  0
    6.8443   -1.7815   20.9320 H   0  0  0  0  0  0  0  0  0  0  0  0
    5.9093   -0.7127   21.9657 H   0  0  0  0  0  0  0  0  0  0  0  0
    8.2567    0.9549   22.2461 C   0  0  0  0  0  0  0  0  0  0  0  0
    7.2472    1.8358   22.9279 C   0  0  0  0  0  0  0  0  0  0  0  0
    6.9130    1.2846   24.3105 C   0  0  0  0  0  0  0  0  0  0  0  0
    7.8086    1.0949   25.3172 C   0  0  0  0  0  0  0  0  0  0  0  0
    7.2493    0.4447   26.3379 O   0  0  0  0  0  0  0  0  0  0  0  0
    5.9369    0.1686   26.0327 N   0  0  0  0  0  0  0  0  0  0  0  0
    5.7427    0.6628   24.8354 C   0  0  0  0  0  0  0  0  0  0  0  0
    4.7684    0.5436   24.3743 H   0  0  0  0  0  0  0  0  0  0  0  0
    8.8685    1.3148   25.3962 H   0  0  0  0  0  0  0  0  0  0  0  0
    7.6978    2.8305   22.9949 H   0  0  0  0  0  0  0  0  0  0  0  0
    6.3528    1.9405   22.3072 H   0  0  0  0  0  0  0  0  0  0  0  0
    9.5680    1.0693   22.3692 N   0  0  0  0  0  0  0  0  0  0  0  0
   12.5189    0.2503   22.3318 C   0  0  0  0  0  0  0  0  0  0  0  0
   12.3658    1.1412   22.9283 H   0  0  0  0  0  0  0  0  0  0  0  0
   10.8928   -2.2641   20.7409 H   0  0  0  0  0  0  0  0  0  0  0  0
   13.2634   -2.8031   20.0361 H   0  0  0  0  0  0  0  0  0  0  0  0
   15.0888   -1.5771   21.0137 H   0  0  0  0  0  0  0  0  0  0  0  0
  1  2  1  0
  2  3  2  0
  3  4  1  0
  4  5  2  0
  5  6  1  0
  6  7  1  0
  7  8  2  0
  8  9  1  0
  9 10  1  0
 10 11  1  0
 11 12  2  0
 12 13  1  0
 13 14  2  0
 14 15  1  0
 15 16  2  0
 16 17  1  0
 14 18  1  0
 13 19  1  0
 12 20  1  0
 10 21  1  0
 10 22  1  0
  9 23  1  0
 23 24  1  0
 24 25  1  0
 25 26  2  0
 26 27  1  0
 27 28  1  0
 28 29  2  0
 29 30  1  0
 26 31  1  0
 24 32  1  0
 24 33  1  0
 23 34  2  0
  6 35  2  0
 35 36  1  0
  5 37  1  0
  4 38  1  0
  3 39  1  0
 35  2  1  0
 34  7  1  0
 16 11  1  0
 29 25  1  0
M  END
>  <cnnaffinity>  (1) 
-6.3082

>  <filename>  (1) 
Fc1cccc(-c2nc(Cc3cnoc3)n(Cc3cccnc3)n2)c1

$$$$
