
     RDKit          3D

 40 43  0  0  0  0  0  0  0  0999 V2000
   13.8584    1.2529   23.8233 F   0  0  0  0  0  0  0  0  0  0  0  0
   13.1667    0.4346   23.0214 C   0  0  0  0  0  0  0  0  0  0  0  0
   13.8502   -0.5386   22.3105 C   0  0  0  0  0  0  0  0  0  0  0  0
   13.1084   -1.3690   21.4783 C   0  0  0  0  0  0  0  0  0  0  0  0
   13.7692   -2.2605   20.7330 F   0  0  0  0  0  0  0  0  0  0  0  0
   11.7223   -1.2953   21.3891 C   0  0  0  0  0  0  0  0  0  0  0  0
   11.0597   -0.2738   22.0953 C   0  0  0  0  0  0  0  0  0  0  0  0
    9.5910   -0.0957   22.0309 C   0  0  0  0  0  0  0  0  0  0  0  0
    8.7536   -0.9283   21.4362 N   0  0  0  0  0  0  0  0  0  0  0  0
    7.5443   -0.3695   21.6719 N   0  0  0  0  0  0  0  0  0  0  0  0
    6.3660   -0.8919   20.9901 C   0  0  0  0  0  0  0  0  0  0  0  0
    5.9560   -0.0645   19.7925 C   0  0  0  0  0  0  0  0  0  0  0  0
    4.7726    0.6706   19.7110 C   0  0  0  0  0  0  0  0  0  0  0  0
    4.5563    1.4727   18.5879 C   0  0  0  0  0  0  0  0  0  0  0  0
    5.5281    1.4977   17.5863 C   0  0  0  0  0  0  0  0  0  0  0  0
    6.6509    0.7658   17.6233 N   0  0  0  0  0  0  0  0  0  0  0  0
    6.8443    0.0123   18.7084 C   0  0  0  0  0  0  0  0  0  0  0  0
    7.7639   -0.5705   18.7337 H   0  0  0  0  0  0  0  0  0  0  0  0
    5.3940    2.1179   16.7037 H   0  0  0  0  0  0  0  0  0  0  0  0
    3.6676    2.0842   18.4841 H   0  0  0  0  0  0  0  0  0  0  0  0
    4.0288    0.6199   20.5082 H   0  0  0  0  0  0  0  0  0  0  0  0
    6.6341   -1.9042   20.6765 H   0  0  0  0  0  0  0  0  0  0  0  0
    5.5585   -0.9763   21.7161 H   0  0  0  0  0  0  0  0  0  0  0  0
    7.7002    0.7598   22.3995 C   0  0  0  0  0  0  0  0  0  0  0  0
    6.5850    1.5394   23.0438 C   0  0  0  0  0  0  0  0  0  0  0  0
    6.3172    1.0841   24.4701 C   0  0  0  0  0  0  0  0  0  0  0  0
    5.2169    0.5578   25.0623 C   0  0  0  0  0  0  0  0  0  0  0  0
    5.4683    0.2559   26.3641 O   0  0  0  0  0  0  0  0  0  0  0  0
    6.7581    0.5962   26.6120 C   0  0  0  0  0  0  0  0  0  0  0  0
    7.3239    1.1092   25.4990 C   0  0  0  0  0  0  0  0  0  0  0  0
    8.3439    1.4462   25.3616 H   0  0  0  0  0  0  0  0  0  0  0  0
    7.1213    0.3926   27.6112 H   0  0  0  0  0  0  0  0  0  0  0  0
    4.2178    0.3286   24.7210 H   0  0  0  0  0  0  0  0  0  0  0  0
    6.9232    2.5833   23.0580 H   0  0  0  0  0  0  0  0  0  0  0  0
    5.6816    1.5095   22.4229 H   0  0  0  0  0  0  0  0  0  0  0  0
    8.9816    0.9675   22.6227 N   0  0  0  0  0  0  0  0  0  0  0  0
   11.7961    0.6063   22.9077 C   0  0  0  0  0  0  0  0  0  0  0  0
   11.2962    1.4067   23.4436 H   0  0  0  0  0  0  0  0  0  0  0  0
   11.1865   -2.0302   20.8030 H   0  0  0  0  0  0  0  0  0  0  0  0
   14.9142   -0.6688   22.4220 H   0  0  0  0  0  0  0  0  0  0  0  0
  1  2  1  0
  2  3  2  0
  3  4  1  0
  4  5  1  0
  4  6  2  0
  6  7  1  0
  7  8  1  0
  8  9  2  0
  9 10  1  0
 10 11  1  0
 11 12  1  0
 12 13  2  0
 13 14  1  0
 14 15  2  0
 15 16  1  0
 16 17  2  0
 17 18  1  0
 15 19  1  0
 14 20  1  0
 13 21  1  0
 11 22  1  0
 11 23  1  0
 10 24  1  0
 24 25  1  0
 25 26  1  0
 26 27  2  0
 27 28  1  0
 28 29  1  0
 29 30  2  0
 30 31  1  0
 29 32  1  0
 27 33  1  0
 25 34  1  0
 25 35  1  0
 24 36  2  0
  7 37  2  0
 37 38  1  0
  6 39  1  0
  3 40  1  0
 37  2  1  0
 36  8  1  0
 17 12  1  0
 30 26  1  0
M  END
>  <cnnaffinity>  (1) 
-6.17605

>  <filename>  (1) 
Fc1cc(F)cc(-c2nc(Cc3ccoc3)n(Cc3cccnc3)n2)c1

$$$$
