
     RDKit          3D

 37 41  0  0  0  0  0  0  0  0999 V2000
    6.4131    0.1031   24.8692 F   0  0  0  0  0  0  0  0  0  0  0  0
    6.6814    1.1816   24.1394 C   0  0  0  0  0  0  0  0  0  0  0  0
    6.4324    2.4640   24.6683 C   0  0  0  0  0  0  0  0  0  0  0  0
    5.7721    2.5966   26.2638 Cl  0  0  0  0  0  0  0  0  0  0  0  0
    6.6665    3.5903   24.0144 N   0  0  0  0  0  0  0  0  0  0  0  0
    7.1702    3.5010   22.7731 C   0  0  0  0  0  0  0  0  0  0  0  0
    7.4427    2.2879   22.1507 C   0  0  0  0  0  0  0  0  0  0  0  0
    7.1803    1.0765   22.8356 C   0  0  0  0  0  0  0  0  0  0  0  0
    7.4524   -0.2620   22.2746 C   0  0  0  0  0  0  0  0  0  0  0  0
    8.0249   -1.2456   22.9482 N   0  0  0  0  0  0  0  0  0  0  0  0
    8.1761   -2.1975   22.0071 C   0  0  0  0  0  0  0  0  0  0  0  0
    8.9189   -3.4730   22.1901 C   0  0  0  0  0  0  0  0  0  0  0  0
    8.2153   -4.7646   21.8673 C   0  0  0  0  0  0  0  0  0  0  0  0
    8.8295   -4.5974   23.2655 C   0  0  0  0  0  0  0  0  0  0  0  0
    8.8754   -5.7514   24.2848 C   0  0  0  0  0  0  0  0  0  0  0  0
    9.8015   -4.5817   24.4249 C   0  0  0  0  0  0  0  0  0  0  0  0
    9.5603   -3.8563   25.2002 H   0  0  0  0  0  0  0  0  0  0  0  0
   10.8677   -4.7178   24.2307 H   0  0  0  0  0  0  0  0  0  0  0  0
    8.0480   -5.8628   24.9802 H   0  0  0  0  0  0  0  0  0  0  0  0
    9.3038   -6.6924   23.9296 H   0  0  0  0  0  0  0  0  0  0  0  0
    7.1223   -4.7307   21.8570 H   0  0  0  0  0  0  0  0  0  0  0  0
    8.6036   -5.5304   21.1907 H   0  0  0  0  0  0  0  0  0  0  0  0
    9.9597   -3.2613   21.9214 H   0  0  0  0  0  0  0  0  0  0  0  0
    7.7536   -1.8755   20.7936 N   0  0  0  0  0  0  0  0  0  0  0  0
    7.2667   -0.6245   20.9685 N   0  0  0  0  0  0  0  0  0  0  0  0
    6.5869    0.0247   19.9034 C   0  0  0  0  0  0  0  0  0  0  0  0
    5.3784    0.6880   20.1267 C   0  0  0  0  0  0  0  0  0  0  0  0
    4.7903    1.3394   19.0431 C   0  0  0  0  0  0  0  0  0  0  0  0
    5.4267    1.3034   17.7972 C   0  0  0  0  0  0  0  0  0  0  0  0
    6.5765    0.6452   17.5737 N   0  0  0  0  0  0  0  0  0  0  0  0
    7.1347    0.0030   18.6042 C   0  0  0  0  0  0  0  0  0  0  0  0
    8.0619   -0.5308   18.4081 H   0  0  0  0  0  0  0  0  0  0  0  0
    4.9892    1.8144   16.9440 H   0  0  0  0  0  0  0  0  0  0  0  0
    3.8601    1.8813   19.1590 H   0  0  0  0  0  0  0  0  0  0  0  0
    4.9322    0.7240   21.1244 H   0  0  0  0  0  0  0  0  0  0  0  0
    7.8454    2.2949   21.1430 H   0  0  0  0  0  0  0  0  0  0  0  0
    7.3601    4.4368   22.2552 H   0  0  0  0  0  0  0  0  0  0  0  0
  1  2  1  0
  2  3  2  0
  3  4  1  0
  3  5  1  0
  5  6  2  0
  6  7  1  0
  7  8  2  0
  8  9  1  0
  9 10  2  0
 10 11  1  0
 11 12  1  0
 12 13  1  0
 13 14  1  0
 14 15  1  0
 15 16  1  0
 16 17  1  0
 16 18  1  0
 15 19  1  0
 15 20  1  0
 13 21  1  0
 13 22  1  0
 12 23  1  0
 11 24  2  0
 24 25  1  0
 25 26  1  0
 26 27  2  0
 27 28  1  0
 28 29  2  0
 29 30  1  0
 30 31  2  0
 31 32  1  0
 29 33  1  0
 28 34  1  0
 27 35  1  0
  7 36  1  0
  6 37  1  0
  8  2  1  0
 25  9  1  0
 31 26  1  0
 14 12  1  0
 16 14  1  0
M  END
>  <cnnaffinity>  (1) 
-6.35883

>  <filename>  (1) 
Fc1c(-c2nc(C3CC34CC4)nn2-c2cccnc2)ccnc1Cl

$$$$
