
     RDKit          3D

 43 46  0  0  0  0  0  0  0  0999 V2000
   12.3421   -0.2249   25.1220 F   0  0  0  0  0  0  0  0  0  0  0  0
   11.9394    0.8806   24.4810 C   0  0  0  0  0  0  0  0  0  0  0  0
   12.8873    1.8388   24.1536 C   0  0  0  0  0  0  0  0  0  0  0  0
   12.4608    3.0520   23.6143 C   0  0  0  0  0  0  0  0  0  0  0  0
   11.1120    3.2236   23.3189 C   0  0  0  0  0  0  0  0  0  0  0  0
   10.7230    4.4075   22.8069 F   0  0  0  0  0  0  0  0  0  0  0  0
   10.1645    2.1972   23.4978 C   0  0  0  0  0  0  0  0  0  0  0  0
    8.8187    2.2719   22.8076 C   0  0  0  0  0  0  0  0  0  0  0  0
    8.9733    2.0308   21.2884 C   0  0  0  0  0  0  0  0  0  0  0  0
    9.4997    0.6239   20.9371 C   0  0  0  0  0  0  0  0  0  0  0  0
    8.6164   -0.4685   21.4364 C   0  0  0  0  0  0  0  0  0  0  0  0
    8.8479   -1.3118   22.4225 N   0  0  0  0  0  0  0  0  0  0  0  0
    7.6715   -1.9872   22.5379 C   0  0  0  0  0  0  0  0  0  0  0  0
    7.4659   -3.0473   23.5555 C   0  0  0  0  0  0  0  0  0  0  0  0
    8.4425   -4.1902   23.6595 C   0  0  0  0  0  0  0  0  0  0  0  0
    7.0573   -4.4340   23.1306 C   0  0  0  0  0  0  0  0  0  0  0  0
    6.3471   -4.9553   23.7702 H   0  0  0  0  0  0  0  0  0  0  0  0
    6.9437   -4.6095   22.0602 H   0  0  0  0  0  0  0  0  0  0  0  0
    8.6832   -4.5448   24.6606 H   0  0  0  0  0  0  0  0  0  0  0  0
    9.2689   -4.2061   22.9480 H   0  0  0  0  0  0  0  0  0  0  0  0
    7.0488   -2.6748   24.4924 H   0  0  0  0  0  0  0  0  0  0  0  0
    6.7307   -1.6101   21.6945 N   0  0  0  0  0  0  0  0  0  0  0  0
    7.3519   -0.6538   20.9571 N   0  0  0  0  0  0  0  0  0  0  0  0
    6.6607    0.0034   19.9013 C   0  0  0  0  0  0  0  0  0  0  0  0
    5.4395    0.6340   20.1565 C   0  0  0  0  0  0  0  0  0  0  0  0
    4.8175    1.3078   19.1015 C   0  0  0  0  0  0  0  0  0  0  0  0
    5.4147    1.3002   17.8362 C   0  0  0  0  0  0  0  0  0  0  0  0
    6.5644    0.6609   17.5750 N   0  0  0  0  0  0  0  0  0  0  0  0
    7.1664    0.0286   18.5899 C   0  0  0  0  0  0  0  0  0  0  0  0
    8.0955   -0.4900   18.3555 H   0  0  0  0  0  0  0  0  0  0  0  0
    4.9492    1.8167   16.9984 H   0  0  0  0  0  0  0  0  0  0  0  0
    3.8838    1.8357   19.2517 H   0  0  0  0  0  0  0  0  0  0  0  0
    5.0089    0.5868   21.1566 H   0  0  0  0  0  0  0  0  0  0  0  0
   10.5028    0.4603   21.3422 H   0  0  0  0  0  0  0  0  0  0  0  0
    9.5766    0.5252   19.8525 H   0  0  0  0  0  0  0  0  0  0  0  0
    8.0183    2.1984   20.7719 H   0  0  0  0  0  0  0  0  0  0  0  0
    9.6797    2.7698   20.8991 H   0  0  0  0  0  0  0  0  0  0  0  0
    8.1353    1.5226   23.2340 H   0  0  0  0  0  0  0  0  0  0  0  0
    8.3557    3.2492   22.9750 H   0  0  0  0  0  0  0  0  0  0  0  0
   10.5908    1.0354   24.1667 C   0  0  0  0  0  0  0  0  0  0  0  0
    9.9071    0.2187   24.3818 H   0  0  0  0  0  0  0  0  0  0  0  0
   13.1466    3.8662   23.4080 H   0  0  0  0  0  0  0  0  0  0  0  0
   13.9330    1.6154   24.3139 H   0  0  0  0  0  0  0  0  0  0  0  0
  1  2  1  0
  2  3  2  0
  3  4  1  0
  4  5  2  0
  5  6  1  0
  5  7  1  0
  7  8  1  0
  8  9  1  0
  9 10  1  0
 10 11  1  0
 11 12  2  0
 12 13  1  0
 13 14  1  0
 14 15  1  0
 15 16  1  0
 16 17  1  0
 16 18  1  0
 15 19  1  0
 15 20  1  0
 14 21  1  0
 13 22  2  0
 22 23  1  0
 23 24  1  0
 24 25  2  0
 25 26  1  0
 26 27  2  0
 27 28  1  0
 28 29  2  0
 29 30  1  0
 27 31  1  0
 26 32  1  0
 25 33  1  0
 10 34  1  0
 10 35  1  0
  9 36  1  0
  9 37  1  0
  8 38  1  0
  8 39  1  0
  7 40  2  0
 40 41  1  0
  4 42  1  0
  3 43  1  0
 40  2  1  0
 23 11  1  0
 29 24  1  0
 16 14  1  0
M  END
>  <cnnaffinity>  (1) 
-6.40955

>  <filename>  (1) 
Fc1ccc(F)c(CCCc2nc(C3CC3)nn2-c2cccnc2)c1

$$$$
