
     RDKit          3D

 44 47  0  0  0  0  0  0  0  0999 V2000
   13.9100    2.0419   23.6983 F   0  0  0  0  0  0  0  0  0  0  0  0
   13.0000    1.0675   23.7172 C   0  0  0  0  0  0  0  0  0  0  0  0
   12.5339    0.5258   24.9121 C   0  0  0  0  0  0  0  0  0  0  0  0
   11.5014   -0.3234   24.9709 N   0  0  0  0  0  0  0  0  0  0  0  0
   10.9588   -0.7122   23.8026 C   0  0  0  0  0  0  0  0  0  0  0  0
   11.4389   -0.2986   22.5479 C   0  0  0  0  0  0  0  0  0  0  0  0
   10.7293   -0.5742   21.2526 C   0  0  0  0  0  0  0  0  0  0  0  0
    9.9221    0.7014   20.8624 C   0  0  0  0  0  0  0  0  0  0  0  0
    8.8655    1.0154   21.8708 C   0  0  0  0  0  0  0  0  0  0  0  0
    8.9042    1.8992   22.8502 N   0  0  0  0  0  0  0  0  0  0  0  0
    7.8300    1.5559   23.6154 C   0  0  0  0  0  0  0  0  0  0  0  0
    7.4889    2.2766   24.8841 C   0  0  0  0  0  0  0  0  0  0  0  0
    6.3134    1.9895   25.6137 C   0  0  0  0  0  0  0  0  0  0  0  0
    6.0039    2.7531   26.7373 C   0  0  0  0  0  0  0  0  0  0  0  0
    6.7748    3.7504   27.1963 N   0  0  0  0  0  0  0  0  0  0  0  0
    7.8908    3.9918   26.5305 C   0  0  0  0  0  0  0  0  0  0  0  0
    8.8941    5.2756   27.1339 Cl  0  0  0  0  0  0  0  0  0  0  0  0
    8.3149    3.2986   25.3932 C   0  0  0  0  0  0  0  0  0  0  0  0
    9.2627    3.5776   24.9501 H   0  0  0  0  0  0  0  0  0  0  0  0
    5.0865    2.5780   27.2927 H   0  0  0  0  0  0  0  0  0  0  0  0
    5.6545    1.1804   25.3195 H   0  0  0  0  0  0  0  0  0  0  0  0
    7.1208    0.5432   23.1306 N   0  0  0  0  0  0  0  0  0  0  0  0
    7.8065    0.1956   22.0180 N   0  0  0  0  0  0  0  0  0  0  0  0
    7.2693   -0.7383   21.0295 C   0  0  0  0  0  0  0  0  0  0  0  0
    6.6003   -0.0404   19.8621 C   0  0  0  0  0  0  0  0  0  0  0  0
    5.4152    0.6646   20.0986 C   0  0  0  0  0  0  0  0  0  0  0  0
    4.8130    1.3376   19.0350 C   0  0  0  0  0  0  0  0  0  0  0  0
    5.4277    1.2938   17.7807 C   0  0  0  0  0  0  0  0  0  0  0  0
    6.5614    0.6203   17.5315 N   0  0  0  0  0  0  0  0  0  0  0  0
    7.1245   -0.0280   18.5599 C   0  0  0  0  0  0  0  0  0  0  0  0
    8.0487   -0.5664   18.3314 H   0  0  0  0  0  0  0  0  0  0  0  0
    4.9897    1.8127   16.9312 H   0  0  0  0  0  0  0  0  0  0  0  0
    3.8919    1.8962   19.1679 H   0  0  0  0  0  0  0  0  0  0  0  0
    4.9978    0.6869   21.1073 H   0  0  0  0  0  0  0  0  0  0  0  0
    8.0727   -1.3906   20.6703 H   0  0  0  0  0  0  0  0  0  0  0  0
    6.5635   -1.3690   21.5728 H   0  0  0  0  0  0  0  0  0  0  0  0
   10.5888    1.5672   20.8205 H   0  0  0  0  0  0  0  0  0  0  0  0
    9.4715    0.6011   19.8710 H   0  0  0  0  0  0  0  0  0  0  0  0
   10.0729   -1.4496   21.3410 H   0  0  0  0  0  0  0  0  0  0  0  0
   11.4712   -0.8066   20.4803 H   0  0  0  0  0  0  0  0  0  0  0  0
   12.4751    0.6447   22.5148 C   0  0  0  0  0  0  0  0  0  0  0  0
   12.8335    1.1105   21.5982 H   0  0  0  0  0  0  0  0  0  0  0  0
   10.1188   -1.3994   23.8641 H   0  0  0  0  0  0  0  0  0  0  0  0
   13.0585    0.7341   25.8292 H   0  0  0  0  0  0  0  0  0  0  0  0
  1  2  1  0
  2  3  2  0
  3  4  1  0
  4  5  2  0
  5  6  1  0
  6  7  1  0
  7  8  1  0
  8  9  1  0
  9 10  2  0
 10 11  1  0
 11 12  1  0
 12 13  2  0
 13 14  1  0
 14 15  2  0
 15 16  1  0
 16 17  1  0
 16 18  2  0
 18 19  1  0
 14 20  1  0
 13 21  1  0
 11 22  2  0
 22 23  1  0
 23 24  1  0
 24 25  1  0
 25 26  2  0
 26 27  1  0
 27 28  2  0
 28 29  1  0
 29 30  2  0
 30 31  1  0
 28 32  1  0
 27 33  1  0
 26 34  1  0
 24 35  1  0
 24 36  1  0
  8 37  1  0
  8 38  1  0
  7 39  1  0
  7 40  1  0
  6 41  2  0
 41 42  1  0
  5 43  1  0
  3 44  1  0
 41  2  1  0
 23  9  1  0
 30 25  1  0
 18 12  1  0
M  END
>  <cnnaffinity>  (1) 
-5.80134

>  <filename>  (1) 
Fc1cncc(CCc2nc(-c3ccnc(Cl)c3)nn2Cc2cccnc2)c1

$$$$
