
     RDKit          3D

 40 43  0  0  0  0  0  0  0  0999 V2000
   13.9580   -2.1073   21.5002 F   0  0  0  0  0  0  0  0  0  0  0  0
   13.2408   -1.0943   22.0067 C   0  0  0  0  0  0  0  0  0  0  0  0
   13.8826   -0.1088   22.7538 C   0  0  0  0  0  0  0  0  0  0  0  0
   13.1215    0.9279   23.2928 C   0  0  0  0  0  0  0  0  0  0  0  0
   11.7487    0.9751   23.0751 C   0  0  0  0  0  0  0  0  0  0  0  0
   11.1117   -0.0230   22.3103 C   0  0  0  0  0  0  0  0  0  0  0  0
    9.6426    0.0743   22.1472 C   0  0  0  0  0  0  0  0  0  0  0  0
    8.8717   -0.8632   21.6252 N   0  0  0  0  0  0  0  0  0  0  0  0
    7.6200   -0.3667   21.7995 N   0  0  0  0  0  0  0  0  0  0  0  0
    6.4748   -0.9593   21.1042 C   0  0  0  0  0  0  0  0  0  0  0  0
    6.0642   -0.1452   19.8936 C   0  0  0  0  0  0  0  0  0  0  0  0
    4.8549    0.5502   19.7878 C   0  0  0  0  0  0  0  0  0  0  0  0
    4.6487    1.3748   18.6766 C   0  0  0  0  0  0  0  0  0  0  0  0
    5.6431    1.4397   17.6973 C   0  0  0  0  0  0  0  0  0  0  0  0
    6.7931    0.7532   17.7616 N   0  0  0  0  0  0  0  0  0  0  0  0
    6.9849   -0.0096   18.8420 C   0  0  0  0  0  0  0  0  0  0  0  0
    7.9176   -0.5711   18.8794 H   0  0  0  0  0  0  0  0  0  0  0  0
    5.5192    2.0725   16.8211 H   0  0  0  0  0  0  0  0  0  0  0  0
    3.7474    1.9682   18.5628 H   0  0  0  0  0  0  0  0  0  0  0  0
    4.0797    0.4473   20.5507 H   0  0  0  0  0  0  0  0  0  0  0  0
    6.7693   -1.9774   20.8308 H   0  0  0  0  0  0  0  0  0  0  0  0
    5.6436   -1.0509   21.8049 H   0  0  0  0  0  0  0  0  0  0  0  0
    7.6958    0.8301   22.4211 C   0  0  0  0  0  0  0  0  0  0  0  0
    6.5388    1.5505   23.0623 C   0  0  0  0  0  0  0  0  0  0  0  0
    6.3259    1.0936   24.5035 C   0  0  0  0  0  0  0  0  0  0  0  0
    7.3184    1.1062   25.4621 C   0  0  0  0  0  0  0  0  0  0  0  0
    6.7848    0.5794   26.5840 N   0  0  0  0  0  0  0  0  0  0  0  0
    5.5054    0.2199   26.4357 N   0  0  0  0  0  0  0  0  0  0  0  0
    5.2180    0.5239   25.1731 C   0  0  0  0  0  0  0  0  0  0  0  0
    4.2232    0.3132   24.8016 H   0  0  0  0  0  0  0  0  0  0  0  0
    7.2430    0.4440   27.4740 H   0  0  0  0  0  0  0  0  0  0  0  0
    8.3542    1.4079   25.3709 H   0  0  0  0  0  0  0  0  0  0  0  0
    5.6322    1.4394   22.4580 H   0  0  0  0  0  0  0  0  0  0  0  0
    6.8036    2.6151   23.0391 H   0  0  0  0  0  0  0  0  0  0  0  0
    8.9574    1.1581   22.6095 N   0  0  0  0  0  0  0  0  0  0  0  0
   11.8728   -1.0718   21.7537 C   0  0  0  0  0  0  0  0  0  0  0  0
   11.4474   -1.8465   21.1173 H   0  0  0  0  0  0  0  0  0  0  0  0
   11.1655    1.7909   23.4939 H   0  0  0  0  0  0  0  0  0  0  0  0
   13.5978    1.7023   23.8864 H   0  0  0  0  0  0  0  0  0  0  0  0
   14.9549   -0.1350   22.8752 H   0  0  0  0  0  0  0  0  0  0  0  0
  1  2  1  0
  2  3  2  0
  3  4  1  0
  4  5  2  0
  5  6  1  0
  6  7  1  0
  7  8  2  0
  8  9  1  0
  9 10  1  0
 10 11  1  0
 11 12  2  0
 12 13  1  0
 13 14  2  0
 14 15  1  0
 15 16  2  0
 16 17  1  0
 14 18  1  0
 13 19  1  0
 12 20  1  0
 10 21  1  0
 10 22  1  0
  9 23  1  0
 23 24  1  0
 24 25  1  0
 25 26  2  0
 26 27  1  0
 27 28  1  0
 28 29  2  0
 29 30  1  0
 27 31  1  0
 26 32  1  0
 24 33  1  0
 24 34  1  0
 23 35  2  0
  6 36  2  0
 36 37  1  0
  5 38  1  0
  4 39  1  0
  3 40  1  0
 36  2  1  0
 35  7  1  0
 16 11  1  0
 29 25  1  0
M  END
>  <cnnaffinity>  (1) 
-5.96003

>  <filename>  (1) 
Fc1cccc(-c2nc(Cc3cn[nH]c3)n(Cc3cccnc3)n2)c1

$$$$
