
     RDKit          3D

 41 44  0  0  0  0  0  0  0  0999 V2000
    9.8241    1.4718   24.4355 F   0  0  0  0  0  0  0  0  0  0  0  0
    8.5688    1.4521   24.9227 C   0  0  0  0  0  0  0  0  0  0  0  0
    8.4081    1.3931   26.3003 C   0  0  0  0  0  0  0  0  0  0  0  0
    7.1193    1.3728   26.8359 C   0  0  0  0  0  0  0  0  0  0  0  0
    6.0098    1.3650   25.9866 C   0  0  0  0  0  0  0  0  0  0  0  0
    6.2244    1.3915   24.6075 C   0  0  0  0  0  0  0  0  0  0  0  0
    5.1380    1.3357   23.8049 F   0  0  0  0  0  0  0  0  0  0  0  0
    7.4959    1.4425   24.0201 C   0  0  0  0  0  0  0  0  0  0  0  0
    7.7401    1.2971   22.5289 C   0  0  0  0  0  0  0  0  0  0  0  0
    7.7634   -0.1462   22.0976 C   0  0  0  0  0  0  0  0  0  0  0  0
    8.3151   -1.1153   22.8051 N   0  0  0  0  0  0  0  0  0  0  0  0
    8.2688   -2.1830   21.9781 C   0  0  0  0  0  0  0  0  0  0  0  0
    8.7135   -3.5781   22.3575 C   0  0  0  0  0  0  0  0  0  0  0  0
    7.7604   -4.3834   23.2899 C   0  0  0  0  0  0  0  0  0  0  0  0
    8.7429   -5.2600   24.0781 C   0  0  0  0  0  0  0  0  0  0  0  0
    9.9237   -4.3046   24.2314 C   0  0  0  0  0  0  0  0  0  0  0  0
    9.9847   -3.5829   23.0068 O   0  0  0  0  0  0  0  0  0  0  0  0
    9.7593   -3.5915   25.0560 H   0  0  0  0  0  0  0  0  0  0  0  0
   10.8804   -4.8142   24.3874 H   0  0  0  0  0  0  0  0  0  0  0  0
    8.3513   -5.5845   25.0470 H   0  0  0  0  0  0  0  0  0  0  0  0
    9.0283   -6.1627   23.5170 H   0  0  0  0  0  0  0  0  0  0  0  0
    7.0151   -4.9643   22.7322 H   0  0  0  0  0  0  0  0  0  0  0  0
    7.2420   -3.6857   23.9631 H   0  0  0  0  0  0  0  0  0  0  0  0
    8.7834   -4.0875   21.3922 H   0  0  0  0  0  0  0  0  0  0  0  0
    7.7373   -1.9367   20.7922 N   0  0  0  0  0  0  0  0  0  0  0  0
    7.3737   -0.6312   20.8796 N   0  0  0  0  0  0  0  0  0  0  0  0
    6.6339    0.0044   19.8465 C   0  0  0  0  0  0  0  0  0  0  0  0
    5.4248    0.6640   20.1056 C   0  0  0  0  0  0  0  0  0  0  0  0
    4.7940    1.3202   19.0418 C   0  0  0  0  0  0  0  0  0  0  0  0
    5.3927    1.3028   17.7809 C   0  0  0  0  0  0  0  0  0  0  0  0
    6.5288    0.6319   17.5198 N   0  0  0  0  0  0  0  0  0  0  0  0
    7.1206   -0.0143   18.5296 C   0  0  0  0  0  0  0  0  0  0  0  0
    8.0332   -0.5571   18.2935 H   0  0  0  0  0  0  0  0  0  0  0  0
    4.9537    1.8548   16.9506 H   0  0  0  0  0  0  0  0  0  0  0  0
    3.8655    1.8577   19.1892 H   0  0  0  0  0  0  0  0  0  0  0  0
    4.9873    0.6643   21.1066 H   0  0  0  0  0  0  0  0  0  0  0  0
    8.7197    1.7259   22.2827 H   0  0  0  0  0  0  0  0  0  0  0  0
    7.0044    1.8593   21.9515 H   0  0  0  0  0  0  0  0  0  0  0  0
    4.9956    1.3134   26.3663 H   0  0  0  0  0  0  0  0  0  0  0  0
    6.9823    1.3560   27.9156 H   0  0  0  0  0  0  0  0  0  0  0  0
    9.2951    1.3154   26.9040 H   0  0  0  0  0  0  0  0  0  0  0  0
  1  2  1  0
  2  3  2  0
  3  4  1  0
  4  5  2  0
  5  6  1  0
  6  7  1  0
  6  8  2  0
  8  9  1  0
  9 10  1  0
 10 11  2  0
 11 12  1  0
 12 13  1  0
 13 14  1  0
 14 15  1  0
 15 16  1  0
 16 17  1  0
 16 18  1  0
 16 19  1  0
 15 20  1  0
 15 21  1  0
 14 22  1  0
 14 23  1  0
 13 24  1  0
 12 25  2  0
 25 26  1  0
 26 27  1  0
 27 28  2  0
 28 29  1  0
 29 30  2  0
 30 31  1  0
 31 32  2  0
 32 33  1  0
 30 34  1  0
 29 35  1  0
 28 36  1  0
  9 37  1  0
  9 38  1  0
  5 39  1  0
  4 40  1  0
  3 41  1  0
  8  2  1  0
 26 10  1  0
 32 27  1  0
 17 13  1  0
M  END
>  <cnnaffinity>  (1) 
-6.57011

>  <filename>  (1) 
Fc1cccc(F)c1Cc1nc(C2CCCO2)nn1-c1cccnc1

$$$$
