
     RDKit          3D

 42 45  0  0  0  0  0  0  0  0999 V2000
   14.6948    0.6890   22.7482 F   0  0  0  0  0  0  0  0  0  0  0  0
   13.7007   -0.0808   22.2883 C   0  0  0  0  0  0  0  0  0  0  0  0
   13.9974   -1.0633   21.3488 C   0  0  0  0  0  0  0  0  0  0  0  0
   12.9537   -1.8100   20.8406 C   0  0  0  0  0  0  0  0  0  0  0  0
   13.2459   -2.6691   19.8604 F   0  0  0  0  0  0  0  0  0  0  0  0
   11.6510   -1.6462   21.2653 C   0  0  0  0  0  0  0  0  0  0  0  0
   11.3500   -0.6026   22.1565 C   0  0  0  0  0  0  0  0  0  0  0  0
    9.9087   -0.3166   22.3810 C   0  0  0  0  0  0  0  0  0  0  0  0
    8.9665   -1.0477   21.7925 N   0  0  0  0  0  0  0  0  0  0  0  0
    7.8277   -0.3920   22.0877 N   0  0  0  0  0  0  0  0  0  0  0  0
    6.5805   -0.7883   21.4401 C   0  0  0  0  0  0  0  0  0  0  0  0
    6.2484    0.0169   20.2019 C   0  0  0  0  0  0  0  0  0  0  0  0
    5.1286    0.8510   20.1086 C   0  0  0  0  0  0  0  0  0  0  0  0
    4.9087    1.5360   18.9105 C   0  0  0  0  0  0  0  0  0  0  0  0
    5.8205    1.3705   17.8621 C   0  0  0  0  0  0  0  0  0  0  0  0
    6.9214    0.6083   17.9481 N   0  0  0  0  0  0  0  0  0  0  0  0
    7.1252   -0.0317   19.1043 C   0  0  0  0  0  0  0  0  0  0  0  0
    8.0438   -0.6149   19.1824 H   0  0  0  0  0  0  0  0  0  0  0  0
    5.6685    1.8752   16.9132 H   0  0  0  0  0  0  0  0  0  0  0  0
    4.0568    2.1951   18.7793 H   0  0  0  0  0  0  0  0  0  0  0  0
    4.4672    1.0087   20.9671 H   0  0  0  0  0  0  0  0  0  0  0  0
    6.7003   -1.8506   21.2113 H   0  0  0  0  0  0  0  0  0  0  0  0
    5.7872   -0.7032   22.1760 H   0  0  0  0  0  0  0  0  0  0  0  0
    8.1277    0.7107   22.8087 C   0  0  0  0  0  0  0  0  0  0  0  0
    7.2047    1.8408   23.1060 C   0  0  0  0  0  0  0  0  0  0  0  0
    7.3186    2.9317   22.0047 C   0  0  0  0  0  0  0  0  0  0  0  0
    6.2999    4.0136   22.1494 C   0  0  0  0  0  0  0  0  0  0  0  0
    5.0267    3.7703   22.0286 N   0  0  0  0  0  0  0  0  0  0  0  0
    4.2914    4.9136   22.2032 C   0  0  0  0  0  0  0  0  0  0  0  0
    4.9985    6.0364   22.4991 C   0  0  0  0  0  0  0  0  0  0  0  0
    6.6758    5.6664   22.5318 S   0  0  0  0  0  0  0  0  0  0  0  0
    4.6272    7.0322   22.6798 H   0  0  0  0  0  0  0  0  0  0  0  0
    3.2152    4.8600   22.1096 H   0  0  0  0  0  0  0  0  0  0  0  0
    8.3351    3.3430   21.9948 H   0  0  0  0  0  0  0  0  0  0  0  0
    7.1428    2.4693   21.0248 H   0  0  0  0  0  0  0  0  0  0  0  0
    7.4956    2.2537   24.0766 H   0  0  0  0  0  0  0  0  0  0  0  0
    6.1691    1.4904   23.1962 H   0  0  0  0  0  0  0  0  0  0  0  0
    9.4307    0.7706   23.0275 N   0  0  0  0  0  0  0  0  0  0  0  0
   12.3947    0.1774   22.7041 C   0  0  0  0  0  0  0  0  0  0  0  0
   12.2161    0.9897   23.4008 H   0  0  0  0  0  0  0  0  0  0  0  0
   10.8574   -2.2716   20.8816 H   0  0  0  0  0  0  0  0  0  0  0  0
   14.9524   -1.2314   20.8978 H   0  0  0  0  0  0  0  0  0  0  0  0
  1  2  1  0
  2  3  2  0
  3  4  1  0
  4  5  1  0
  4  6  2  0
  6  7  1  0
  7  8  1  0
  8  9  2  0
  9 10  1  0
 10 11  1  0
 11 12  1  0
 12 13  2  0
 13 14  1  0
 14 15  2  0
 15 16  1  0
 16 17  2  0
 17 18  1  0
 15 19  1  0
 14 20  1  0
 13 21  1  0
 11 22  1  0
 11 23  1  0
 10 24  1  0
 24 25  1  0
 25 26  1  0
 26 27  1  0
 27 28  2  0
 28 29  1  0
 29 30  2  0
 30 31  1  0
 30 32  1  0
 29 33  1  0
 26 34  1  0
 26 35  1  0
 25 36  1  0
 25 37  1  0
 24 38  2  0
  7 39  2  0
 39 40  1  0
  6 41  1  0
  3 42  1  0
 39  2  1  0
 38  8  1  0
 17 12  1  0
 31 27  1  0
M  END
>  <cnnaffinity>  (1) 
-6.62087

>  <filename>  (1) 
Fc1cc(F)cc(-c2nc(CCc3nccs3)n(Cc3cccnc3)n2)c1

$$$$
