
     RDKit          3D

 41 45  0  0  0  0  0  0  0  0999 V2000
   10.1489    1.3609   24.2245 F   0  0  0  0  0  0  0  0  0  0  0  0
    9.3452    2.1951   23.5290 C   0  0  0  0  0  0  0  0  0  0  0  0
    8.7704    3.4155   24.0998 C   0  0  0  0  0  0  0  0  0  0  0  0
    7.9154    4.0637   23.0841 C   0  0  0  0  0  0  0  0  0  0  0  0
    7.9880    4.1134   22.9050 C   0  0  0  0  0  0  0  0  0  0  0  0
    8.0206    3.0229   21.7384 C   0  0  0  0  0  0  0  0  0  0  0  0
    6.9739    2.4562   20.8716 F   0  0  0  0  0  0  0  0  0  0  0  0
    8.9463    1.9299   22.2358 C   0  0  0  0  0  0  0  0  0  0  0  0
    9.3769    0.7141   21.3942 C   0  0  0  0  0  0  0  0  0  0  0  0
    8.5571   -0.5410   21.5889 C   0  0  0  0  0  0  0  0  0  0  0  0
    8.8106   -1.4035   22.5428 N   0  0  0  0  0  0  0  0  0  0  0  0
    7.7421   -2.2405   22.5082 C   0  0  0  0  0  0  0  0  0  0  0  0
    7.6996   -3.3047   23.5434 C   0  0  0  0  0  0  0  0  0  0  0  0
    7.7555   -2.8598   24.9739 C   0  0  0  0  0  0  0  0  0  0  0  0
    6.5025   -3.6115   24.4705 C   0  0  0  0  0  0  0  0  0  0  0  0
    5.4339   -4.5783   24.0077 C   0  0  0  0  0  0  0  0  0  0  0  0
    5.4345   -4.1108   25.4344 C   0  0  0  0  0  0  0  0  0  0  0  0
    4.6840   -3.3885   25.7510 H   0  0  0  0  0  0  0  0  0  0  0  0
    5.7778   -4.7947   26.2126 H   0  0  0  0  0  0  0  0  0  0  0  0
    5.7649   -5.5940   23.7817 H   0  0  0  0  0  0  0  0  0  0  0  0
    4.6835   -4.1773   23.3255 H   0  0  0  0  0  0  0  0  0  0  0  0
    7.6265   -1.7906   25.1654 H   0  0  0  0  0  0  0  0  0  0  0  0
    8.4148   -3.3578   25.6914 H   0  0  0  0  0  0  0  0  0  0  0  0
    8.3071   -4.1676   23.2660 H   0  0  0  0  0  0  0  0  0  0  0  0
    6.8672   -1.9816   21.5555 N   0  0  0  0  0  0  0  0  0  0  0  0
    7.4035   -0.8843   20.9446 N   0  0  0  0  0  0  0  0  0  0  0  0
    6.7081   -0.2443   19.8711 C   0  0  0  0  0  0  0  0  0  0  0  0
    5.4285    0.2689   20.0920 C   0  0  0  0  0  0  0  0  0  0  0  0
    4.8091    0.9570   19.0475 C   0  0  0  0  0  0  0  0  0  0  0  0
    5.4777    1.0842   17.8223 C   0  0  0  0  0  0  0  0  0  0  0  0
    6.6705    0.5226   17.5808 N   0  0  0  0  0  0  0  0  0  0  0  0
    7.2605   -0.1450   18.5814 C   0  0  0  0  0  0  0  0  0  0  0  0
    8.2064   -0.6312   18.3451 H   0  0  0  0  0  0  0  0  0  0  0  0
    5.0348    1.6530   17.0066 H   0  0  0  0  0  0  0  0  0  0  0  0
    3.8344    1.4131   19.1746 H   0  0  0  0  0  0  0  0  0  0  0  0
    4.9708    0.1756   21.0771 H   0  0  0  0  0  0  0  0  0  0  0  0
   10.4051    0.3833   21.6263 H   0  0  0  0  0  0  0  0  0  0  0  0
    9.3720    0.9617   20.3271 H   0  0  0  0  0  0  0  0  0  0  0  0
    8.5130    3.8940   21.2140 H   0  0  0  0  0  0  0  0  0  0  0  0
    7.3692    5.1209   23.0666 H   0  0  0  0  0  0  0  0  0  0  0  0
    7.9398    3.3695   24.7774 H   0  0  0  0  0  0  0  0  0  0  0  0
  1  2  1  0
  2  3  2  0
  3  4  1  0
  4  5  2  0
  5  6  1  0
  6  7  1  0
  6  8  2  0
  8  9  1  0
  9 10  1  0
 10 11  2  0
 11 12  1  0
 12 13  1  0
 13 14  1  0
 14 15  1  0
 15 16  1  0
 16 17  1  0
 17 18  1  0
 17 19  1  0
 16 20  1  0
 16 21  1  0
 14 22  1  0
 14 23  1  0
 13 24  1  0
 12 25  2  0
 25 26  1  0
 26 27  1  0
 27 28  2  0
 28 29  1  0
 29 30  2  0
 30 31  1  0
 31 32  2  0
 32 33  1  0
 30 34  1  0
 29 35  1  0
 28 36  1  0
  9 37  1  0
  9 38  1  0
  5 39  1  0
  4 40  1  0
  3 41  1  0
  8  2  1  0
 26 10  1  0
 32 27  1  0
 15 13  1  0
 17 15  1  0
M  END
>  <cnnaffinity>  (1) 
-6.13196

>  <filename>  (1) 
Fc1cccc(F)c1Cc1nc(C2CC23CC3)nn1-c1cccnc1

$$$$
