
     RDKit          3D

 42 45  0  0  0  0  0  0  0  0999 V2000
    6.8266   -1.0517   27.7950 F   0  0  0  0  0  0  0  0  0  0  0  0
    6.8040   -0.2865   26.6940 C   0  0  0  0  0  0  0  0  0  0  0  0
    7.7228    0.7470   26.5383 C   0  0  0  0  0  0  0  0  0  0  0  0
    7.6617    1.4696   25.3421 C   0  0  0  0  0  0  0  0  0  0  0  0
    6.7345    1.1057   24.3510 C   0  0  0  0  0  0  0  0  0  0  0  0
    6.7983    1.6746   22.9580 C   0  0  0  0  0  0  0  0  0  0  0  0
    7.8453    0.8857   22.2488 C   0  0  0  0  0  0  0  0  0  0  0  0
    9.1166    1.1657   22.3864 N   0  0  0  0  0  0  0  0  0  0  0  0
    9.7449    0.0333   21.9635 C   0  0  0  0  0  0  0  0  0  0  0  0
   11.2211   -0.0812   22.1260 C   0  0  0  0  0  0  0  0  0  0  0  0
   11.8672    0.9186   22.8815 C   0  0  0  0  0  0  0  0  0  0  0  0
   13.2380    0.8695   23.0717 C   0  0  0  0  0  0  0  0  0  0  0  0
   13.8110    1.8292   23.8048 F   0  0  0  0  0  0  0  0  0  0  0  0
   14.0181   -0.1464   22.5420 C   0  0  0  0  0  0  0  0  0  0  0  0
   13.3604   -1.1368   21.8155 C   0  0  0  0  0  0  0  0  0  0  0  0
   14.0884   -2.1419   21.3181 F   0  0  0  0  0  0  0  0  0  0  0  0
   11.9838   -1.1326   21.5815 C   0  0  0  0  0  0  0  0  0  0  0  0
   11.5361   -1.9528   21.0277 H   0  0  0  0  0  0  0  0  0  0  0  0
   15.0841   -0.1529   22.6944 H   0  0  0  0  0  0  0  0  0  0  0  0
   11.3078    1.7267   23.3368 H   0  0  0  0  0  0  0  0  0  0  0  0
    8.9207   -0.9018   21.5168 N   0  0  0  0  0  0  0  0  0  0  0  0
    7.6923   -0.3444   21.7137 N   0  0  0  0  0  0  0  0  0  0  0  0
    6.4767   -0.8936   21.1089 C   0  0  0  0  0  0  0  0  0  0  0  0
    6.0282   -0.1082   19.8874 C   0  0  0  0  0  0  0  0  0  0  0  0
    4.8475    0.6462   19.8378 C   0  0  0  0  0  0  0  0  0  0  0  0
    4.6036    1.4389   18.7102 C   0  0  0  0  0  0  0  0  0  0  0  0
    5.5258    1.4180   17.6604 C   0  0  0  0  0  0  0  0  0  0  0  0
    6.6414    0.6738   17.6713 N   0  0  0  0  0  0  0  0  0  0  0  0
    6.8817   -0.0509   18.7707 C   0  0  0  0  0  0  0  0  0  0  0  0
    7.8178   -0.6109   18.7776 H   0  0  0  0  0  0  0  0  0  0  0  0
    5.3562    2.0091   16.7610 H   0  0  0  0  0  0  0  0  0  0  0  0
    3.7309    2.0798   18.6397 H   0  0  0  0  0  0  0  0  0  0  0  0
    4.1309    0.6347   20.6650 H   0  0  0  0  0  0  0  0  0  0  0  0
    5.6993   -0.8865   21.8768 H   0  0  0  0  0  0  0  0  0  0  0  0
    6.6992   -1.9383   20.8747 H   0  0  0  0  0  0  0  0  0  0  0  0
    7.1235    2.7155   22.9702 H   0  0  0  0  0  0  0  0  0  0  0  0
    5.8277    1.6064   22.4676 H   0  0  0  0  0  0  0  0  0  0  0  0
    5.8353    0.1342   24.5348 N   0  0  0  0  0  0  0  0  0  0  0  0
    5.8532   -0.5359   25.6990 C   0  0  0  0  0  0  0  0  0  0  0  0
    5.0898   -1.2904   25.8633 H   0  0  0  0  0  0  0  0  0  0  0  0
    8.3513    2.2780   25.1260 H   0  0  0  0  0  0  0  0  0  0  0  0
    8.4665    0.9395   27.3125 H   0  0  0  0  0  0  0  0  0  0  0  0
  1  2  1  0
  2  3  2  0
  3  4  1  0
  4  5  2  0
  5  6  1  0
  6  7  1  0
  7  8  2  0
  8  9  1  0
  9 10  1  0
 10 11  2  0
 11 12  1  0
 12 13  1  0
 12 14  2  0
 14 15  1  0
 15 16  1  0
 15 17  2  0
 17 18  1  0
 14 19  1  0
 11 20  1  0
  9 21  2  0
 21 22  1  0
 22 23  1  0
 23 24  1  0
 24 25  2  0
 25 26  1  0
 26 27  2  0
 27 28  1  0
 28 29  2  0
 29 30  1  0
 27 31  1  0
 26 32  1  0
 25 33  1  0
 23 34  1  0
 23 35  1  0
  6 36  1  0
  6 37  1  0
  5 38  1  0
 38 39  2  0
 39 40  1  0
  4 41  1  0
  3 42  1  0
 39  2  1  0
 22  7  1  0
 29 24  1  0
 17 10  1  0
M  END
>  <cnnaffinity>  (1) 
-6.66488

>  <filename>  (1) 
Fc1ccc(Cc2nc(-c3cc(F)cc(F)c3)nn2Cc2cccnc2)nc1

$$$$
