
     RDKit          3D

 41 44  0  0  0  0  0  0  0  0999 V2000
    5.9745    3.4617   29.0269 F   0  0  0  0  0  0  0  0  0  0  0  0
    6.3239    3.0031   27.8155 C   0  0  0  0  0  0  0  0  0  0  0  0
    7.4597    3.5229   27.2002 C   0  0  0  0  0  0  0  0  0  0  0  0
    7.8191    3.0371   25.9450 C   0  0  0  0  0  0  0  0  0  0  0  0
    7.0550    2.0356   25.3074 C   0  0  0  0  0  0  0  0  0  0  0  0
    7.5053    1.5045   24.0031 C   0  0  0  0  0  0  0  0  0  0  0  0
    6.8412    0.6110   23.2845 N   0  0  0  0  0  0  0  0  0  0  0  0
    7.6488    0.4018   22.2222 N   0  0  0  0  0  0  0  0  0  0  0  0
    7.2878   -0.5324   21.1619 C   0  0  0  0  0  0  0  0  0  0  0  0
    6.6424    0.1255   19.9554 C   0  0  0  0  0  0  0  0  0  0  0  0
    5.4339    0.8179   20.1052 C   0  0  0  0  0  0  0  0  0  0  0  0
    4.8553    1.4045   18.9788 C   0  0  0  0  0  0  0  0  0  0  0  0
    5.5022    1.2803   17.7451 C   0  0  0  0  0  0  0  0  0  0  0  0
    6.6570    0.6194   17.5792 N   0  0  0  0  0  0  0  0  0  0  0  0
    7.2074    0.0694   18.6705 C   0  0  0  0  0  0  0  0  0  0  0  0
    8.1532   -0.4493   18.5037 H   0  0  0  0  0  0  0  0  0  0  0  0
    5.0704    1.7298   16.8527 H   0  0  0  0  0  0  0  0  0  0  0  0
    3.9319    1.9693   19.0444 H   0  0  0  0  0  0  0  0  0  0  0  0
    4.9657    0.9048   21.0889 H   0  0  0  0  0  0  0  0  0  0  0  0
    8.1908   -1.0781   20.8668 H   0  0  0  0  0  0  0  0  0  0  0  0
    6.6113   -1.2636   21.6141 H   0  0  0  0  0  0  0  0  0  0  0  0
    8.7477    1.1785   22.3351 C   0  0  0  0  0  0  0  0  0  0  0  0
    9.8895    1.2113   21.3523 C   0  0  0  0  0  0  0  0  0  0  0  0
   11.0743    0.2816   21.6350 C   0  0  0  0  0  0  0  0  0  0  0  0
   11.1521   -1.0598   21.2507 C   0  0  0  0  0  0  0  0  0  0  0  0
   12.2019   -1.8396   21.5110 N   0  0  0  0  0  0  0  0  0  0  0  0
   13.2014   -1.2939   22.1957 C   0  0  0  0  0  0  0  0  0  0  0  0
   13.2462   -0.0389   22.6363 N   0  0  0  0  0  0  0  0  0  0  0  0
   12.1936    0.7230   22.3539 C   0  0  0  0  0  0  0  0  0  0  0  0
   12.2523    1.7457   22.7275 H   0  0  0  0  0  0  0  0  0  0  0  0
   14.0585   -1.9265   22.4089 H   0  0  0  0  0  0  0  0  0  0  0  0
   10.3378   -1.5321   20.6964 H   0  0  0  0  0  0  0  0  0  0  0  0
   10.2504    2.2455   21.3469 H   0  0  0  0  0  0  0  0  0  0  0  0
    9.4766    1.0347   20.3539 H   0  0  0  0  0  0  0  0  0  0  0  0
    8.6857    1.8847   23.4409 N   0  0  0  0  0  0  0  0  0  0  0  0
    5.9057    1.5386   25.9564 C   0  0  0  0  0  0  0  0  0  0  0  0
    5.5403    2.0169   27.2154 C   0  0  0  0  0  0  0  0  0  0  0  0
    4.6786    1.6263   27.7442 H   0  0  0  0  0  0  0  0  0  0  0  0
    5.3074    0.7650   25.4765 H   0  0  0  0  0  0  0  0  0  0  0  0
    8.7075    3.4150   25.4434 H   0  0  0  0  0  0  0  0  0  0  0  0
    8.0534    4.2753   27.7090 H   0  0  0  0  0  0  0  0  0  0  0  0
  1  2  1  0
  2  3  2  0
  3  4  1  0
  4  5  2  0
  5  6  1  0
  6  7  2  0
  7  8  1  0
  8  9  1  0
  9 10  1  0
 10 11  2  0
 11 12  1  0
 12 13  2  0
 13 14  1  0
 14 15  2  0
 15 16  1  0
 13 17  1  0
 12 18  1  0
 11 19  1  0
  9 20  1  0
  9 21  1  0
  8 22  1  0
 22 23  1  0
 23 24  1  0
 24 25  2  0
 25 26  1  0
 26 27  2  0
 27 28  1  0
 28 29  2  0
 29 30  1  0
 27 31  1  0
 25 32  1  0
 23 33  1  0
 23 34  1  0
 22 35  2  0
  5 36  1  0
 36 37  2  0
 37 38  1  0
 36 39  1  0
  4 40  1  0
  3 41  1  0
 37  2  1  0
 35  6  1  0
 15 10  1  0
 29 24  1  0
M  END
>  <cnnaffinity>  (1) 
-6.18925

>  <filename>  (1) 
Fc1ccc(-c2nc(Cc3cncnc3)n(Cc3cccnc3)n2)cc1

$$$$
