
     RDKit          3D

 47 50  0  0  0  0  0  0  0  0999 V2000
    8.6848    1.6290   27.0608 F   0  0  0  0  0  0  0  0  0  0  0  0
    8.8317    1.7381   25.7350 C   0  0  0  0  0  0  0  0  0  0  0  0
   10.0455    1.9393   25.0930 C   0  0  0  0  0  0  0  0  0  0  0  0
   10.1133    2.0688   23.7668 N   0  0  0  0  0  0  0  0  0  0  0  0
    8.9674    1.9856   23.0782 C   0  0  0  0  0  0  0  0  0  0  0  0
    9.0604    1.9990   21.5755 C   0  0  0  0  0  0  0  0  0  0  0  0
    9.5106    0.6254   20.9808 C   0  0  0  0  0  0  0  0  0  0  0  0
    8.6292   -0.5145   21.3943 C   0  0  0  0  0  0  0  0  0  0  0  0
    8.8525   -1.3271   22.4081 N   0  0  0  0  0  0  0  0  0  0  0  0
    7.6505   -1.9409   22.5838 C   0  0  0  0  0  0  0  0  0  0  0  0
    7.4102   -2.8638   23.7365 C   0  0  0  0  0  0  0  0  0  0  0  0
    7.3643   -2.0839   25.0731 C   0  0  0  0  0  0  0  0  0  0  0  0
    6.9767   -3.0011   26.2544 C   0  0  0  0  0  0  0  0  0  0  0  0
    7.4252   -4.4551   26.0691 C   0  0  0  0  0  0  0  0  0  0  0  0
    6.4012   -5.1749   25.4987 F   0  0  0  0  0  0  0  0  0  0  0  0
    7.6459   -5.0334   27.2905 F   0  0  0  0  0  0  0  0  0  0  0  0
    8.6616   -4.6010   25.1980 C   0  0  0  0  0  0  0  0  0  0  0  0
    8.4553   -4.0172   23.7802 C   0  0  0  0  0  0  0  0  0  0  0  0
    8.1222   -4.8082   23.0978 H   0  0  0  0  0  0  0  0  0  0  0  0
    9.4223   -3.6646   23.4023 H   0  0  0  0  0  0  0  0  0  0  0  0
    8.9405   -5.6571   25.1663 H   0  0  0  0  0  0  0  0  0  0  0  0
    9.4665   -4.0765   25.7234 H   0  0  0  0  0  0  0  0  0  0  0  0
    7.4237   -2.6311   27.1823 H   0  0  0  0  0  0  0  0  0  0  0  0
    5.8933   -3.0250   26.4088 H   0  0  0  0  0  0  0  0  0  0  0  0
    8.3516   -1.6360   25.2493 H   0  0  0  0  0  0  0  0  0  0  0  0
    6.6564   -1.2502   25.0023 H   0  0  0  0  0  0  0  0  0  0  0  0
    6.4202   -3.2910   23.5595 H   0  0  0  0  0  0  0  0  0  0  0  0
    6.7196   -1.5906   21.7212 N   0  0  0  0  0  0  0  0  0  0  0  0
    7.3572   -0.6857   20.9293 N   0  0  0  0  0  0  0  0  0  0  0  0
    6.6530   -0.0025   19.8959 C   0  0  0  0  0  0  0  0  0  0  0  0
    5.4385    0.6408   20.1645 C   0  0  0  0  0  0  0  0  0  0  0  0
    4.8127    1.3103   19.1075 C   0  0  0  0  0  0  0  0  0  0  0  0
    5.3999    1.2968   17.8357 C   0  0  0  0  0  0  0  0  0  0  0  0
    6.5573    0.6714   17.5726 N   0  0  0  0  0  0  0  0  0  0  0  0
    7.1642    0.0478   18.5881 C   0  0  0  0  0  0  0  0  0  0  0  0
    8.1114   -0.4353   18.3619 H   0  0  0  0  0  0  0  0  0  0  0  0
    4.9225    1.7887   16.9908 H   0  0  0  0  0  0  0  0  0  0  0  0
    3.8805    1.8405   19.2578 H   0  0  0  0  0  0  0  0  0  0  0  0
    5.0222    0.6078   21.1766 H   0  0  0  0  0  0  0  0  0  0  0  0
    9.5374    0.6895   19.8902 H   0  0  0  0  0  0  0  0  0  0  0  0
   10.5289    0.3949   21.3075 H   0  0  0  0  0  0  0  0  0  0  0  0
    9.7656    2.7789   21.2891 H   0  0  0  0  0  0  0  0  0  0  0  0
    8.0754    2.2702   21.1937 H   0  0  0  0  0  0  0  0  0  0  0  0
    7.7566    1.7965   23.6155 N   0  0  0  0  0  0  0  0  0  0  0  0
    7.7086    1.6627   24.9381 C   0  0  0  0  0  0  0  0  0  0  0  0
    6.7412    1.5025   25.4160 H   0  0  0  0  0  0  0  0  0  0  0  0
   10.9812    1.9947   25.6516 H   0  0  0  0  0  0  0  0  0  0  0  0
  1  2  1  0
  2  3  2  0
  3  4  1  0
  4  5  2  0
  5  6  1  0
  6  7  1  0
  7  8  1  0
  8  9  2  0
  9 10  1  0
 10 11  1  0
 11 12  1  0
 12 13  1  0
 13 14  1  0
 14 15  1  0
 14 16  1  0
 14 17  1  0
 17 18  1  0
 18 19  1  0
 18 20  1  0
 17 21  1  0
 17 22  1  0
 13 23  1  0
 13 24  1  0
 12 25  1  0
 12 26  1  0
 11 27  1  0
 10 28  2  0
 28 29  1  0
 29 30  1  0
 30 31  2  0
 31 32  1  0
 32 33  2  0
 33 34  1  0
 34 35  2  0
 35 36  1  0
 33 37  1  0
 32 38  1  0
 31 39  1  0
  7 40  1  0
  7 41  1  0
  6 42  1  0
  6 43  1  0
  5 44  1  0
 44 45  2  0
 45 46  1  0
  3 47  1  0
 45  2  1  0
 29  8  1  0
 35 30  1  0
 18 11  1  0
M  END
>  <cnnaffinity>  (1) 
-6.55236

>  <filename>  (1) 
Fc1cnc(CCc2nc(C3CCC(F)(F)CC3)nn2-c2cccnc2)nc1

$$$$
