
     RDKit          3D

 38 40  0  0  0  0  0  0  0  0999 V2000
    4.9562    2.0256   16.8366 H   0  0  0  0  0  0  0  0  0  0  0  0
    5.4879    1.4434   17.5882 C   0  0  0  0  0  0  0  0  0  0  0  0
    6.6786    0.9389   17.2266 N   0  0  0  0  0  0  0  0  0  0  0  0
    7.3690    0.2496   18.1487 C   0  0  0  0  0  0  0  0  0  0  0  0
    8.3275   -0.1471   17.8156 H   0  0  0  0  0  0  0  0  0  0  0  0
    6.9200   -0.0172   19.4731 C   0  0  0  0  0  0  0  0  0  0  0  0
    7.6779   -0.7828   20.3964 N   0  0  0  0  0  0  0  0  0  0  0  0
    7.0412   -1.7737   21.2497 C   0  0  0  0  0  0  0  0  0  0  0  0
    6.1385   -2.1365   20.7528 H   0  0  0  0  0  0  0  0  0  0  0  0
    7.7079   -2.6397   21.3752 H   0  0  0  0  0  0  0  0  0  0  0  0
    6.6402   -1.3275   22.6677 C   0  0  0  0  0  0  0  0  0  0  0  0
    6.0351   -0.4098   22.6078 H   0  0  0  0  0  0  0  0  0  0  0  0
    5.9773   -2.1152   23.0649 H   0  0  0  0  0  0  0  0  0  0  0  0
    7.7253   -1.1422   23.6235 N   0  0  0  0  0  0  0  0  0  0  0  0
    7.3454   -1.2650   24.9742 C   0  0  0  0  0  0  0  0  0  0  0  0
    7.8429   -2.2772   25.8075 C   0  0  0  0  0  0  0  0  0  0  0  0
    8.6563   -2.8950   25.4349 H   0  0  0  0  0  0  0  0  0  0  0  0
    7.2734   -2.4887   27.0675 C   0  0  0  0  0  0  0  0  0  0  0  0
    7.6307   -3.2974   27.7044 H   0  0  0  0  0  0  0  0  0  0  0  0
    6.2383   -1.6651   27.5274 C   0  0  0  0  0  0  0  0  0  0  0  0
    5.7621   -1.8112   28.4893 H   0  0  0  0  0  0  0  0  0  0  0  0
    5.8123   -0.6178   26.7161 C   0  0  0  0  0  0  0  0  0  0  0  0
    4.8412    0.2082   27.1388 F   0  0  0  0  0  0  0  0  0  0  0  0
    6.3491   -0.4052   25.4562 C   0  0  0  0  0  0  0  0  0  0  0  0
    6.0087    0.4123   24.8399 H   0  0  0  0  0  0  0  0  0  0  0  0
    9.1146   -1.1429   23.2117 C   0  0  0  0  0  0  0  0  0  0  0  0
    9.4494   -2.1448   22.8836 H   0  0  0  0  0  0  0  0  0  0  0  0
    9.7146   -0.9042   24.0974 H   0  0  0  0  0  0  0  0  0  0  0  0
    9.4375   -0.1248   22.1088 C   0  0  0  0  0  0  0  0  0  0  0  0
   10.5205    0.0508   22.1365 H   0  0  0  0  0  0  0  0  0  0  0  0
    8.9517    0.8271   22.3424 H   0  0  0  0  0  0  0  0  0  0  0  0
    9.0865   -0.5307   20.6671 C   0  0  0  0  0  0  0  0  0  0  0  0
    9.4215    0.2676   19.9961 H   0  0  0  0  0  0  0  0  0  0  0  0
    9.6758   -1.4250   20.3997 H   0  0  0  0  0  0  0  0  0  0  0  0
    5.6538    0.5110   19.8078 C   0  0  0  0  0  0  0  0  0  0  0  0
    5.2568    0.3545   20.8081 H   0  0  0  0  0  0  0  0  0  0  0  0
    4.9420    1.2591   18.8610 C   0  0  0  0  0  0  0  0  0  0  0  0
    3.9808    1.7050   19.1033 H   0  0  0  0  0  0  0  0  0  0  0  0
  1  2  1  0
  2  3  2  0
  3  4  1  0
  4  5  1  0
  4  6  2  0
  6  7  1  0
  7  8  1  0
  8  9  1  0
  8 10  1  0
  8 11  1  0
 11 12  1  0
 11 13  1  0
 11 14  1  0
 14 15  1  0
 15 16  2  0
 16 17  1  0
 16 18  1  0
 18 19  1  0
 18 20  2  0
 20 21  1  0
 20 22  1  0
 22 23  1  0
 22 24  2  0
 24 25  1  0
 14 26  1  0
 26 27  1  0
 26 28  1  0
 26 29  1  0
 29 30  1  0
 29 31  1  0
 29 32  1  0
 32 33  1  0
 32 34  1  0
  6 35  1  0
 35 36  1  0
 35 37  2  0
 37 38  1  0
 37  2  1  0
 32  7  1  0
 24 15  1  0
M  END
>  <cnnaffinity>  (1) 
-4.93806

>  <filename>  (1) 
Fc1cccc(N2CCCN(c3cccnc3)CC2)c1

$$$$
