
     RDKit          3D

 39 42  0  0  0  0  0  0  0  0999 V2000
   13.4171   -2.5599   20.0775 F   0  0  0  0  0  0  0  0  0  0  0  0
   12.9795   -1.7244   21.0262 C   0  0  0  0  0  0  0  0  0  0  0  0
   13.9207   -1.0845   21.8171 C   0  0  0  0  0  0  0  0  0  0  0  0
   13.4809   -0.0751   22.6651 C   0  0  0  0  0  0  0  0  0  0  0  0
   14.3780    0.5127   23.4638 F   0  0  0  0  0  0  0  0  0  0  0  0
   12.1562    0.3480   22.6896 C   0  0  0  0  0  0  0  0  0  0  0  0
   11.2130   -0.3744   21.9345 C   0  0  0  0  0  0  0  0  0  0  0  0
    9.7721   -0.0138   21.9501 C   0  0  0  0  0  0  0  0  0  0  0  0
    8.8489   -0.8008   21.4149 N   0  0  0  0  0  0  0  0  0  0  0  0
    7.6904   -0.1945   21.7416 N   0  0  0  0  0  0  0  0  0  0  0  0
    6.4406   -0.6806   21.1608 C   0  0  0  0  0  0  0  0  0  0  0  0
    6.0193    0.0830   19.9207 C   0  0  0  0  0  0  0  0  0  0  0  0
    4.8314    0.8141   19.8273 C   0  0  0  0  0  0  0  0  0  0  0  0
    4.5758    1.5322   18.6551 C   0  0  0  0  0  0  0  0  0  0  0  0
    5.5148    1.4882   17.6217 C   0  0  0  0  0  0  0  0  0  0  0  0
    6.6457    0.7676   17.6798 N   0  0  0  0  0  0  0  0  0  0  0  0
    6.8817    0.0946   18.8101 C   0  0  0  0  0  0  0  0  0  0  0  0
    7.8127   -0.4707   18.8508 H   0  0  0  0  0  0  0  0  0  0  0  0
    5.3657    2.0703   16.7143 H   0  0  0  0  0  0  0  0  0  0  0  0
    3.6776    2.1280   18.5333 H   0  0  0  0  0  0  0  0  0  0  0  0
    4.1191    0.8282   20.6572 H   0  0  0  0  0  0  0  0  0  0  0  0
    5.6706   -0.6381   21.9290 H   0  0  0  0  0  0  0  0  0  0  0  0
    6.6140   -1.7381   20.9378 H   0  0  0  0  0  0  0  0  0  0  0  0
    7.9620    0.9332   22.4349 C   0  0  0  0  0  0  0  0  0  0  0  0
    6.9223    1.7755   23.1267 C   0  0  0  0  0  0  0  0  0  0  0  0
    6.5876    1.2991   24.5327 C   0  0  0  0  0  0  0  0  0  0  0  0
    5.4731    0.6663   24.9945 C   0  0  0  0  0  0  0  0  0  0  0  0
    5.4749    0.2847   26.3179 N   0  0  0  0  0  0  0  0  0  0  0  0
    6.6054    0.6097   26.8627 C   0  0  0  0  0  0  0  0  0  0  0  0
    7.7234    1.4249   25.8280 S   0  0  0  0  0  0  0  0  0  0  0  0
    6.8576    0.4256   27.9031 H   0  0  0  0  0  0  0  0  0  0  0  0
    4.5982    0.4561   24.3896 H   0  0  0  0  0  0  0  0  0  0  0  0
    7.3245    2.7935   23.1476 H   0  0  0  0  0  0  0  0  0  0  0  0
    6.0099    1.8057   22.5195 H   0  0  0  0  0  0  0  0  0  0  0  0
    9.2642    1.0939   22.5502 N   0  0  0  0  0  0  0  0  0  0  0  0
   11.6218   -1.4882   21.1800 C   0  0  0  0  0  0  0  0  0  0  0  0
   10.8705   -2.1365   20.7468 H   0  0  0  0  0  0  0  0  0  0  0  0
   11.8624    1.2053   23.2874 H   0  0  0  0  0  0  0  0  0  0  0  0
   14.9445   -1.4019   21.7805 H   0  0  0  0  0  0  0  0  0  0  0  0
  1  2  1  0
  2  3  2  0
  3  4  1  0
  4  5  1  0
  4  6  2  0
  6  7  1  0
  7  8  1  0
  8  9  2  0
  9 10  1  0
 10 11  1  0
 11 12  1  0
 12 13  2  0
 13 14  1  0
 14 15  2  0
 15 16  1  0
 16 17  2  0
 17 18  1  0
 15 19  1  0
 14 20  1  0
 13 21  1  0
 11 22  1  0
 11 23  1  0
 10 24  1  0
 24 25  1  0
 25 26  1  0
 26 27  2  0
 27 28  1  0
 28 29  2  0
 29 30  1  0
 29 31  1  0
 27 32  1  0
 25 33  1  0
 25 34  1  0
 24 35  2  0
  7 36  2  0
 36 37  1  0
  6 38  1  0
  3 39  1  0
 36  2  1  0
 35  8  1  0
 17 12  1  0
 30 26  1  0
M  END
>  <cnnaffinity>  (1) 
-6.57829

>  <filename>  (1) 
Fc1cc(F)cc(-c2nc(Cc3cncs3)n(Cc3cccnc3)n2)c1

$$$$
