
     RDKit          3D

 44 47  0  0  0  0  0  0  0  0999 V2000
    4.1482    5.4527   23.6606 F   0  0  0  0  0  0  0  0  0  0  0  0
    5.0624    4.6774   24.2619 C   0  0  0  0  0  0  0  0  0  0  0  0
    5.8357    5.1868   25.3019 C   0  0  0  0  0  0  0  0  0  0  0  0
    6.7906    4.3668   25.9141 C   0  0  0  0  0  0  0  0  0  0  0  0
    6.9617    3.0483   25.4877 C   0  0  0  0  0  0  0  0  0  0  0  0
    6.1836    2.5245   24.4424 C   0  0  0  0  0  0  0  0  0  0  0  0
    6.4215    1.1593   23.8686 C   0  0  0  0  0  0  0  0  0  0  0  0
    7.4157    1.2429   22.6931 C   0  0  0  0  0  0  0  0  0  0  0  0
    7.6609   -0.1034   22.1253 C   0  0  0  0  0  0  0  0  0  0  0  0
    8.2330   -1.0275   22.8608 N   0  0  0  0  0  0  0  0  0  0  0  0
    8.3041   -2.0896   22.0288 C   0  0  0  0  0  0  0  0  0  0  0  0
    8.9118   -3.3484   22.5363 C   0  0  0  0  0  0  0  0  0  0  0  0
    8.1630   -4.0507   23.6880 C   0  0  0  0  0  0  0  0  0  0  0  0
    9.2812   -4.8284   24.3893 C   0  0  0  0  0  0  0  0  0  0  0  0
   10.4826   -4.1169   24.1320 O   0  0  0  0  0  0  0  0  0  0  0  0
   10.2772   -3.0752   23.1944 C   0  0  0  0  0  0  0  0  0  0  0  0
   11.1052   -3.0392   22.4735 H   0  0  0  0  0  0  0  0  0  0  0  0
   10.2801   -2.1056   23.7184 H   0  0  0  0  0  0  0  0  0  0  0  0
    9.1278   -4.8775   25.4725 H   0  0  0  0  0  0  0  0  0  0  0  0
    9.3821   -5.8659   24.0260 H   0  0  0  0  0  0  0  0  0  0  0  0
    7.7343   -3.2893   24.3550 H   0  0  0  0  0  0  0  0  0  0  0  0
    7.3604   -4.7069   23.3426 H   0  0  0  0  0  0  0  0  0  0  0  0
    8.9678   -4.0304   21.6922 H   0  0  0  0  0  0  0  0  0  0  0  0
    7.8260   -1.8899   20.8162 N   0  0  0  0  0  0  0  0  0  0  0  0
    7.3665   -0.6047   20.8925 N   0  0  0  0  0  0  0  0  0  0  0  0
    6.6384    0.0158   19.8431 C   0  0  0  0  0  0  0  0  0  0  0  0
    5.4382    0.6948   20.0959 C   0  0  0  0  0  0  0  0  0  0  0  0
    4.8058    1.3389   19.0271 C   0  0  0  0  0  0  0  0  0  0  0  0
    5.4048    1.2974   17.7658 C   0  0  0  0  0  0  0  0  0  0  0  0
    6.5426    0.6267   17.5137 N   0  0  0  0  0  0  0  0  0  0  0  0
    7.1327   -0.0118   18.5283 C   0  0  0  0  0  0  0  0  0  0  0  0
    8.0444   -0.5594   18.3037 H   0  0  0  0  0  0  0  0  0  0  0  0
    4.9592    1.8182   16.9210 H   0  0  0  0  0  0  0  0  0  0  0  0
    3.8763    1.8780   19.1691 H   0  0  0  0  0  0  0  0  0  0  0  0
    5.0073    0.7211   21.0989 H   0  0  0  0  0  0  0  0  0  0  0  0
    7.0833    1.9580   21.9390 H   0  0  0  0  0  0  0  0  0  0  0  0
    8.3773    1.6100   23.0723 H   0  0  0  0  0  0  0  0  0  0  0  0
    6.8236    0.4758   24.6269 H   0  0  0  0  0  0  0  0  0  0  0  0
    5.4672    0.7396   23.5242 H   0  0  0  0  0  0  0  0  0  0  0  0
    5.2431    3.3603   23.8336 C   0  0  0  0  0  0  0  0  0  0  0  0
    4.5103    2.8938   22.8002 F   0  0  0  0  0  0  0  0  0  0  0  0
    7.7174    2.4192   25.9565 H   0  0  0  0  0  0  0  0  0  0  0  0
    7.4081    4.7611   26.7162 H   0  0  0  0  0  0  0  0  0  0  0  0
    5.6786    6.2149   25.6094 H   0  0  0  0  0  0  0  0  0  0  0  0
  1  2  1  0
  2  3  2  0
  3  4  1  0
  4  5  2  0
  5  6  1  0
  6  7  1  0
  7  8  1  0
  8  9  1  0
  9 10  2  0
 10 11  1  0
 11 12  1  0
 12 13  1  0
 13 14  1  0
 14 15  1  0
 15 16  1  0
 16 17  1  0
 16 18  1  0
 14 19  1  0
 14 20  1  0
 13 21  1  0
 13 22  1  0
 12 23  1  0
 11 24  2  0
 24 25  1  0
 25 26  1  0
 26 27  2  0
 27 28  1  0
 28 29  2  0
 29 30  1  0
 30 31  2  0
 31 32  1  0
 29 33  1  0
 28 34  1  0
 27 35  1  0
  8 36  1  0
  8 37  1  0
  7 38  1  0
  7 39  1  0
  6 40  2  0
 40 41  1  0
  5 42  1  0
  4 43  1  0
  3 44  1  0
 40  2  1  0
 25  9  1  0
 31 26  1  0
 16 12  1  0
M  END
>  <cnnaffinity>  (1) 
-6.19717

>  <filename>  (1) 
Fc1cccc(CCc2nc(C3CCOC3)nn2-c2cccnc2)c1F

$$$$
