
     RDKit          3D

 45 48  0  0  0  0  0  0  0  0999 V2000
   12.9114    1.4066   21.7328 F   0  0  0  0  0  0  0  0  0  0  0  0
   12.5834    0.7048   22.8327 C   0  0  0  0  0  0  0  0  0  0  0  0
   13.3274    0.9221   23.9826 C   0  0  0  0  0  0  0  0  0  0  0  0
   12.8494    0.3963   25.1822 C   0  0  0  0  0  0  0  0  0  0  0  0
   11.6157   -0.2702   25.2123 C   0  0  0  0  0  0  0  0  0  0  0  0
   10.9624   -0.5881   24.0088 C   0  0  0  0  0  0  0  0  0  0  0  0
   11.4948   -0.1688   22.7741 C   0  0  0  0  0  0  0  0  0  0  0  0
   10.8885   -0.4470   21.4113 C   0  0  0  0  0  0  0  0  0  0  0  0
   10.0528    0.7719   20.9381 C   0  0  0  0  0  0  0  0  0  0  0  0
    8.9460    1.0825   21.8876 C   0  0  0  0  0  0  0  0  0  0  0  0
    8.9700    1.9709   22.8578 N   0  0  0  0  0  0  0  0  0  0  0  0
    7.9079    1.6210   23.6424 C   0  0  0  0  0  0  0  0  0  0  0  0
    7.5378    2.2871   24.9545 C   0  0  0  0  0  0  0  0  0  0  0  0
    6.3007    1.9820   25.5707 C   0  0  0  0  0  0  0  0  0  0  0  0
    5.9526    2.6201   26.7615 C   0  0  0  0  0  0  0  0  0  0  0  0
    6.8505    3.5305   27.3166 C   0  0  0  0  0  0  0  0  0  0  0  0
    8.0613    3.7574   26.6559 C   0  0  0  0  0  0  0  0  0  0  0  0
    8.4046    3.1619   25.5125 N   0  0  0  0  0  0  0  0  0  0  0  0
    8.7939    4.4530   27.0543 H   0  0  0  0  0  0  0  0  0  0  0  0
    6.6299    4.0534   28.2388 H   0  0  0  0  0  0  0  0  0  0  0  0
    4.9987    2.4060   27.2441 H   0  0  0  0  0  0  0  0  0  0  0  0
    5.6407    1.2562   25.1090 H   0  0  0  0  0  0  0  0  0  0  0  0
    7.2096    0.5965   23.1490 N   0  0  0  0  0  0  0  0  0  0  0  0
    7.8840    0.2615   22.0312 N   0  0  0  0  0  0  0  0  0  0  0  0
    7.3440   -0.6818   21.0583 C   0  0  0  0  0  0  0  0  0  0  0  0
    6.6444   -0.0058   19.8957 C   0  0  0  0  0  0  0  0  0  0  0  0
    5.4419    0.6674   20.1340 C   0  0  0  0  0  0  0  0  0  0  0  0
    4.8175    1.3174   19.0675 C   0  0  0  0  0  0  0  0  0  0  0  0
    5.4242    1.2924   17.8073 C   0  0  0  0  0  0  0  0  0  0  0  0
    6.5720    0.6445   17.5564 N   0  0  0  0  0  0  0  0  0  0  0  0
    7.1550    0.0165   18.5875 C   0  0  0  0  0  0  0  0  0  0  0  0
    8.0791   -0.5109   18.3482 H   0  0  0  0  0  0  0  0  0  0  0  0
    4.9632    1.8066   16.9632 H   0  0  0  0  0  0  0  0  0  0  0  0
    3.8815    1.8466   19.2034 H   0  0  0  0  0  0  0  0  0  0  0  0
    5.0114    0.6817   21.1393 H   0  0  0  0  0  0  0  0  0  0  0  0
    8.1593   -1.3196   20.7020 H   0  0  0  0  0  0  0  0  0  0  0  0
    6.6416   -1.3120   21.6092 H   0  0  0  0  0  0  0  0  0  0  0  0
    9.6315    0.6007   19.9436 H   0  0  0  0  0  0  0  0  0  0  0  0
   10.7056    1.6457   20.8878 H   0  0  0  0  0  0  0  0  0  0  0  0
   11.6904   -0.6196   20.6839 H   0  0  0  0  0  0  0  0  0  0  0  0
   10.2872   -1.3649   21.4347 H   0  0  0  0  0  0  0  0  0  0  0  0
   10.0389   -1.1686   24.0299 H   0  0  0  0  0  0  0  0  0  0  0  0
   11.1668   -0.5382   26.1643 H   0  0  0  0  0  0  0  0  0  0  0  0
   13.4657    0.5086   26.0705 H   0  0  0  0  0  0  0  0  0  0  0  0
   14.2191    1.5279   23.9055 H   0  0  0  0  0  0  0  0  0  0  0  0
  1  2  1  0
  2  3  2  0
  3  4  1  0
  4  5  2  0
  5  6  1  0
  6  7  2  0
  7  8  1  0
  8  9  1  0
  9 10  1  0
 10 11  2  0
 11 12  1  0
 12 13  1  0
 13 14  2  0
 14 15  1  0
 15 16  2  0
 16 17  1  0
 17 18  2  0
 17 19  1  0
 16 20  1  0
 15 21  1  0
 14 22  1  0
 12 23  2  0
 23 24  1  0
 24 25  1  0
 25 26  1  0
 26 27  2  0
 27 28  1  0
 28 29  2  0
 29 30  1  0
 30 31  2  0
 31 32  1  0
 29 33  1  0
 28 34  1  0
 27 35  1  0
 25 36  1  0
 25 37  1  0
  9 38  1  0
  9 39  1  0
  8 40  1  0
  8 41  1  0
  6 42  1  0
  5 43  1  0
  4 44  1  0
  3 45  1  0
  7  2  1  0
 24 10  1  0
 31 26  1  0
 18 13  1  0
M  END
>  <cnnaffinity>  (1) 
-6.13152

>  <filename>  (1) 
Fc1ccccc1CCc1nc(-c2ccccn2)nn1Cc1cccnc1

$$$$
