
     RDKit          3D

 45 49  0  0  0  0  0  0  0  0999 V2000
   14.8795    4.6684   23.3743 F   0  0  0  0  0  0  0  0  0  0  0  0
   13.9081    4.0177   22.7148 C   0  0  0  0  0  0  0  0  0  0  0  0
   13.4742    4.5172   21.4911 C   0  0  0  0  0  0  0  0  0  0  0  0
   12.4267    3.8648   20.8271 C   0  0  0  0  0  0  0  0  0  0  0  0
   11.7713    2.7526   21.3971 C   0  0  0  0  0  0  0  0  0  0  0  0
   10.7355    2.1890   20.7143 O   0  0  0  0  0  0  0  0  0  0  0  0
    9.6084    1.5723   21.3553 C   0  0  0  0  0  0  0  0  0  0  0  0
    9.6378    0.0801   20.9956 C   0  0  0  0  0  0  0  0  0  0  0  0
    8.5418   -0.7854   21.5271 C   0  0  0  0  0  0  0  0  0  0  0  0
    8.6628   -1.6639   22.5004 N   0  0  0  0  0  0  0  0  0  0  0  0
    7.4299   -2.2346   22.5646 C   0  0  0  0  0  0  0  0  0  0  0  0
    7.0413   -3.3192   23.4975 C   0  0  0  0  0  0  0  0  0  0  0  0
    6.0324   -3.0505   24.5628 C   0  0  0  0  0  0  0  0  0  0  0  0
    7.5123   -3.2722   24.9687 C   0  0  0  0  0  0  0  0  0  0  0  0
    8.8875   -3.8101   25.3064 C   0  0  0  0  0  0  0  0  0  0  0  0
    7.9602   -3.4098   26.4191 C   0  0  0  0  0  0  0  0  0  0  0  0
    7.4614   -4.1894   27.0004 H   0  0  0  0  0  0  0  0  0  0  0  0
    8.1752   -2.5016   26.9781 H   0  0  0  0  0  0  0  0  0  0  0  0
    9.6943   -3.1235   25.0494 H   0  0  0  0  0  0  0  0  0  0  0  0
    9.0868   -4.8645   25.0931 H   0  0  0  0  0  0  0  0  0  0  0  0
    5.3409   -3.8431   24.8652 H   0  0  0  0  0  0  0  0  0  0  0  0
    5.6216   -2.0410   24.6356 H   0  0  0  0  0  0  0  0  0  0  0  0
    7.0287   -4.3069   23.0297 H   0  0  0  0  0  0  0  0  0  0  0  0
    6.5625   -1.7754   21.6845 N   0  0  0  0  0  0  0  0  0  0  0  0
    7.2816   -0.8526   20.9930 N   0  0  0  0  0  0  0  0  0  0  0  0
    6.6689   -0.1377   19.9236 C   0  0  0  0  0  0  0  0  0  0  0  0
    5.4765    0.5581   20.1569 C   0  0  0  0  0  0  0  0  0  0  0  0
    4.9239    1.2908   19.1042 C   0  0  0  0  0  0  0  0  0  0  0  0
    5.5525    1.2658   17.8522 C   0  0  0  0  0  0  0  0  0  0  0  0
    6.6622    0.5534   17.6048 N   0  0  0  0  0  0  0  0  0  0  0  0
    7.1982   -0.1360   18.6182 C   0  0  0  0  0  0  0  0  0  0  0  0
    8.0837   -0.7281   18.3884 H   0  0  0  0  0  0  0  0  0  0  0  0
    5.1533    1.8330   17.0149 H   0  0  0  0  0  0  0  0  0  0  0  0
    4.0277    1.8848   19.2454 H   0  0  0  0  0  0  0  0  0  0  0  0
    5.0112    0.5055   21.1419 H   0  0  0  0  0  0  0  0  0  0  0  0
    9.6388    0.0122   19.9040 H   0  0  0  0  0  0  0  0  0  0  0  0
   10.5794   -0.3438   21.3487 H   0  0  0  0  0  0  0  0  0  0  0  0
    9.6106    1.7551   22.4343 H   0  0  0  0  0  0  0  0  0  0  0  0
    8.7213    2.0584   20.9313 H   0  0  0  0  0  0  0  0  0  0  0  0
   12.2840    2.2601   22.6111 C   0  0  0  0  0  0  0  0  0  0  0  0
   11.7365    1.1559   23.1745 F   0  0  0  0  0  0  0  0  0  0  0  0
   13.3506    2.8681   23.2666 C   0  0  0  0  0  0  0  0  0  0  0  0
   13.7547    2.4187   24.1584 H   0  0  0  0  0  0  0  0  0  0  0  0
   12.0807    4.2174   19.8572 H   0  0  0  0  0  0  0  0  0  0  0  0
   13.9761    5.3843   21.0752 H   0  0  0  0  0  0  0  0  0  0  0  0
  1  2  1  0
  2  3  2  0
  3  4  1  0
  4  5  2  0
  5  6  1  0
  6  7  1  0
  7  8  1  0
  8  9  1  0
  9 10  2  0
 10 11  1  0
 11 12  1  0
 12 13  1  0
 13 14  1  0
 14 15  1  0
 15 16  1  0
 16 17  1  0
 16 18  1  0
 15 19  1  0
 15 20  1  0
 13 21  1  0
 13 22  1  0
 12 23  1  0
 11 24  2  0
 24 25  1  0
 25 26  1  0
 26 27  2  0
 27 28  1  0
 28 29  2  0
 29 30  1  0
 30 31  2  0
 31 32  1  0
 29 33  1  0
 28 34  1  0
 27 35  1  0
  8 36  1  0
  8 37  1  0
  7 38  1  0
  7 39  1  0
  5 40  1  0
 40 41  1  0
 40 42  2  0
 42 43  1  0
  4 44  1  0
  3 45  1  0
 42  2  1  0
 25  9  1  0
 31 26  1  0
 14 12  1  0
 16 14  1  0
M  END
>  <cnnaffinity>  (1) 
-6.63501

>  <filename>  (1) 
Fc1ccc(OCCc2nc(C3CC34CC4)nn2-c2cccnc2)c(F)c1

$$$$
