
     RDKit          3D

 50 53  0  0  0  0  0  0  0  0999 V2000
    6.8564    5.3675   25.0788 F   0  0  0  0  0  0  0  0  0  0  0  0
    6.9816    4.0321   24.9992 C   0  0  0  0  0  0  0  0  0  0  0  0
    5.8467    3.2606   24.7587 C   0  0  0  0  0  0  0  0  0  0  0  0
    5.9821    1.8703   24.6833 C   0  0  0  0  0  0  0  0  0  0  0  0
    7.2430    1.2717   24.8375 C   0  0  0  0  0  0  0  0  0  0  0  0
    7.3626   -0.1501   24.7306 N   0  0  0  0  0  0  0  0  0  0  0  0
    6.5422   -0.9866   25.4232 N   0  0  0  0  0  0  0  0  0  0  0  0
    6.9413   -2.1794   25.0382 C   0  0  0  0  0  0  0  0  0  0  0  0
    6.2971   -3.4570   25.5038 C   0  0  0  0  0  0  0  0  0  0  0  0
    5.4339   -4.1019   24.3845 C   0  0  0  0  0  0  0  0  0  0  0  0
    4.8865   -5.4567   24.8358 C   0  0  0  0  0  0  0  0  0  0  0  0
    5.9190   -6.3260   25.2585 O   0  0  0  0  0  0  0  0  0  0  0  0
    6.6424   -5.8151   26.3636 C   0  0  0  0  0  0  0  0  0  0  0  0
    7.3276   -4.4876   26.0312 C   0  0  0  0  0  0  0  0  0  0  0  0
    8.0915   -4.6640   25.2653 H   0  0  0  0  0  0  0  0  0  0  0  0
    7.8438   -4.1061   26.9209 H   0  0  0  0  0  0  0  0  0  0  0  0
    7.3693   -6.5846   26.6354 H   0  0  0  0  0  0  0  0  0  0  0  0
    5.9580   -5.6790   27.2196 H   0  0  0  0  0  0  0  0  0  0  0  0
    4.1660   -5.3138   25.6602 H   0  0  0  0  0  0  0  0  0  0  0  0
    4.3708   -5.9731   24.0220 H   0  0  0  0  0  0  0  0  0  0  0  0
    6.0525   -4.2502   23.4917 H   0  0  0  0  0  0  0  0  0  0  0  0
    4.6039   -3.4420   24.1028 H   0  0  0  0  0  0  0  0  0  0  0  0
    5.6361   -3.1636   26.3272 H   0  0  0  0  0  0  0  0  0  0  0  0
    7.9446   -2.1776   24.1187 N   0  0  0  0  0  0  0  0  0  0  0  0
    8.1819   -0.8926   23.9331 C   0  0  0  0  0  0  0  0  0  0  0  0
    9.0874   -0.3245   22.8900 C   0  0  0  0  0  0  0  0  0  0  0  0
    8.3113    0.3272   21.7334 C   0  0  0  0  0  0  0  0  0  0  0  0
    7.4065   -0.6752   20.9995 C   0  0  0  0  0  0  0  0  0  0  0  0
    6.6398   -0.0136   19.8871 C   0  0  0  0  0  0  0  0  0  0  0  0
    5.4300    0.6450   20.1412 C   0  0  0  0  0  0  0  0  0  0  0  0
    4.7980    1.3136   19.0917 C   0  0  0  0  0  0  0  0  0  0  0  0
    5.3942    1.3021   17.8251 C   0  0  0  0  0  0  0  0  0  0  0  0
    6.5576    0.6886   17.5586 N   0  0  0  0  0  0  0  0  0  0  0  0
    7.1545    0.0611   18.5816 C   0  0  0  0  0  0  0  0  0  0  0  0
    8.1060   -0.4150   18.3495 H   0  0  0  0  0  0  0  0  0  0  0  0
    4.9175    1.7959   16.9821 H   0  0  0  0  0  0  0  0  0  0  0  0
    3.8693    1.8482   19.2459 H   0  0  0  0  0  0  0  0  0  0  0  0
    5.0123    0.6381   21.1542 H   0  0  0  0  0  0  0  0  0  0  0  0
    8.0201   -1.4982   20.6084 H   0  0  0  0  0  0  0  0  0  0  0  0
    6.7111   -1.1344   21.7169 H   0  0  0  0  0  0  0  0  0  0  0  0
    7.7068    1.1609   22.1146 H   0  0  0  0  0  0  0  0  0  0  0  0
    9.0135    0.7698   21.0176 H   0  0  0  0  0  0  0  0  0  0  0  0
    9.7743    0.3990   23.3388 H   0  0  0  0  0  0  0  0  0  0  0  0
    9.7018   -1.1468   22.5104 H   0  0  0  0  0  0  0  0  0  0  0  0
    8.3688    2.0747   25.0843 C   0  0  0  0  0  0  0  0  0  0  0  0
    8.2406    3.4650   25.1673 C   0  0  0  0  0  0  0  0  0  0  0  0
    9.0933    4.1098   25.3529 H   0  0  0  0  0  0  0  0  0  0  0  0
    9.3387    1.6102   25.2334 H   0  0  0  0  0  0  0  0  0  0  0  0
    5.1177    1.2326   24.5200 H   0  0  0  0  0  0  0  0  0  0  0  0
    4.8877    3.7597   24.6499 H   0  0  0  0  0  0  0  0  0  0  0  0
  1  2  1  0
  2  3  2  0
  3  4  1  0
  4  5  2  0
  5  6  1  0
  6  7  1  0
  7  8  2  0
  8  9  1  0
  9 10  1  0
 10 11  1  0
 11 12  1  0
 12 13  1  0
 13 14  1  0
 14 15  1  0
 14 16  1  0
 13 17  1  0
 13 18  1  0
 11 19  1  0
 11 20  1  0
 10 21  1  0
 10 22  1  0
  9 23  1  0
  8 24  1  0
 24 25  2  0
 25 26  1  0
 26 27  1  0
 27 28  1  0
 28 29  1  0
 29 30  2  0
 30 31  1  0
 31 32  2  0
 32 33  1  0
 33 34  2  0
 34 35  1  0
 32 36  1  0
 31 37  1  0
 30 38  1  0
 28 39  1  0
 28 40  1  0
 27 41  1  0
 27 42  1  0
 26 43  1  0
 26 44  1  0
  5 45  1  0
 45 46  2  0
 46 47  1  0
 45 48  1  0
  4 49  1  0
  3 50  1  0
 46  2  1  0
 25  6  1  0
 34 29  1  0
 14  9  1  0
M  END
>  <cnnaffinity>  (1) 
-5.7413

>  <filename>  (1) 
Fc1ccc(-n2nc(C3CCOCC3)nc2CCCc2cccnc2)cc1

$$$$
