
     RDKit          3D

 43 46  0  0  0  0  0  0  0  0999 V2000
   14.0262   -2.1552   21.5007 F   0  0  0  0  0  0  0  0  0  0  0  0
   13.3384   -1.1112   21.9788 C   0  0  0  0  0  0  0  0  0  0  0  0
   14.0223   -0.1635   22.7321 C   0  0  0  0  0  0  0  0  0  0  0  0
   13.3144    0.9084   23.2760 C   0  0  0  0  0  0  0  0  0  0  0  0
   11.9436    1.0268   23.0564 C   0  0  0  0  0  0  0  0  0  0  0  0
   11.2607    0.0515   22.2932 C   0  0  0  0  0  0  0  0  0  0  0  0
    9.7910    0.1753   22.1420 C   0  0  0  0  0  0  0  0  0  0  0  0
    8.9923   -0.7635   21.6600 N   0  0  0  0  0  0  0  0  0  0  0  0
    7.7583   -0.2352   21.8208 N   0  0  0  0  0  0  0  0  0  0  0  0
    6.5639   -0.8486   21.2504 C   0  0  0  0  0  0  0  0  0  0  0  0
    6.0909   -0.1306   20.0030 C   0  0  0  0  0  0  0  0  0  0  0  0
    4.9032    0.6057   19.9312 C   0  0  0  0  0  0  0  0  0  0  0  0
    4.6645    1.3793   18.7891 C   0  0  0  0  0  0  0  0  0  0  0  0
    5.6064    1.3646   17.7578 C   0  0  0  0  0  0  0  0  0  0  0  0
    6.7153    0.6109   17.7790 N   0  0  0  0  0  0  0  0  0  0  0  0
    6.9373   -0.1162   18.8802 C   0  0  0  0  0  0  0  0  0  0  0  0
    7.8459   -0.7197   18.8866 H   0  0  0  0  0  0  0  0  0  0  0  0
    5.4605    1.9701   16.8649 H   0  0  0  0  0  0  0  0  0  0  0  0
    3.7867    2.0073   18.6994 H   0  0  0  0  0  0  0  0  0  0  0  0
    4.1710    0.5757   20.7432 H   0  0  0  0  0  0  0  0  0  0  0  0
    6.8202   -1.8925   21.0496 H   0  0  0  0  0  0  0  0  0  0  0  0
    5.8062   -0.8378   22.0361 H   0  0  0  0  0  0  0  0  0  0  0  0
    7.8728    1.0004   22.3505 C   0  0  0  0  0  0  0  0  0  0  0  0
    6.7511    1.7771   22.9527 C   0  0  0  0  0  0  0  0  0  0  0  0
    6.5623    1.2923   24.3145 N   0  0  0  0  0  0  0  0  0  0  0  0
    7.2569    1.6606   25.4186 C   0  0  0  0  0  0  0  0  0  0  0  0
    6.9598    0.7454   26.3996 C   0  0  0  0  0  0  0  0  0  0  0  0
    6.1013   -0.1810   25.7694 C   0  0  0  0  0  0  0  0  0  0  0  0
    5.5009   -1.4231   26.3739 C   0  0  0  0  0  0  0  0  0  0  0  0
    5.8226   -2.5392   25.6605 F   0  0  0  0  0  0  0  0  0  0  0  0
    4.1414   -1.3512   26.4180 F   0  0  0  0  0  0  0  0  0  0  0  0
    5.8613   -1.5614   27.3998 H   0  0  0  0  0  0  0  0  0  0  0  0
    5.8939    0.1591   24.4984 N   0  0  0  0  0  0  0  0  0  0  0  0
    7.3044    0.7488   27.4259 H   0  0  0  0  0  0  0  0  0  0  0  0
    7.9233    2.5113   25.3733 H   0  0  0  0  0  0  0  0  0  0  0  0
    7.0216    2.8322   22.9930 H   0  0  0  0  0  0  0  0  0  0  0  0
    5.8145    1.6551   22.4081 H   0  0  0  0  0  0  0  0  0  0  0  0
    9.1331    1.2917   22.5637 N   0  0  0  0  0  0  0  0  0  0  0  0
   11.9756   -1.0261   21.7253 C   0  0  0  0  0  0  0  0  0  0  0  0
   11.5201   -1.7993   21.1082 H   0  0  0  0  0  0  0  0  0  0  0  0
   11.3850    1.8581   23.4832 H   0  0  0  0  0  0  0  0  0  0  0  0
   13.8156    1.6553   23.8811 H   0  0  0  0  0  0  0  0  0  0  0  0
   15.0782   -0.2961   22.8822 H   0  0  0  0  0  0  0  0  0  0  0  0
  1  2  1  0
  2  3  2  0
  3  4  1  0
  4  5  2  0
  5  6  1  0
  6  7  1  0
  7  8  2  0
  8  9  1  0
  9 10  1  0
 10 11  1  0
 11 12  2  0
 12 13  1  0
 13 14  2  0
 14 15  1  0
 15 16  2  0
 16 17  1  0
 14 18  1  0
 13 19  1  0
 12 20  1  0
 10 21  1  0
 10 22  1  0
  9 23  1  0
 23 24  1  0
 24 25  1  0
 25 26  1  0
 26 27  2  0
 27 28  1  0
 28 29  1  0
 29 30  1  0
 29 31  1  0
 29 32  1  0
 28 33  2  0
 27 34  1  0
 26 35  1  0
 24 36  1  0
 24 37  1  0
 23 38  2  0
  6 39  2  0
 39 40  1  0
  5 41  1  0
  4 42  1  0
  3 43  1  0
 39  2  1  0
 38  7  1  0
 16 11  1  0
 33 25  1  0
M  END
>  <cnnaffinity>  (1) 
-6.53924

>  <filename>  (1) 
Fc1cccc(-c2nc(Cn3ccc(C(F)F)n3)n(Cc3cccnc3)n2)c1

$$$$
