
     RDKit          3D

 43 46  0  0  0  0  0  0  0  0999 V2000
    9.5953    4.2596   25.4271 F   0  0  0  0  0  0  0  0  0  0  0  0
    9.8639    3.4152   24.4227 C   0  0  0  0  0  0  0  0  0  0  0  0
   11.1686    2.9333   24.2618 C   0  0  0  0  0  0  0  0  0  0  0  0
   11.3865    2.0014   23.2597 C   0  0  0  0  0  0  0  0  0  0  0  0
   10.3132    1.6464   22.4236 C   0  0  0  0  0  0  0  0  0  0  0  0
   10.6155    0.7382   21.4701 O   0  0  0  0  0  0  0  0  0  0  0  0
    9.5988    0.1633   20.6484 C   0  0  0  0  0  0  0  0  0  0  0  0
    8.5643   -0.6561   21.3654 C   0  0  0  0  0  0  0  0  0  0  0  0
    8.7519   -1.4462   22.3985 N   0  0  0  0  0  0  0  0  0  0  0  0
    7.5240   -1.9869   22.6094 C   0  0  0  0  0  0  0  0  0  0  0  0
    7.2883   -2.9494   23.7429 C   0  0  0  0  0  0  0  0  0  0  0  0
    6.1684   -3.9786   23.4985 C   0  0  0  0  0  0  0  0  0  0  0  0
    6.4508   -5.1224   24.4909 C   0  0  0  0  0  0  0  0  0  0  0  0
    7.9500   -5.0206   24.8708 C   0  0  0  0  0  0  0  0  0  0  0  0
    8.5164   -3.8205   24.0933 C   0  0  0  0  0  0  0  0  0  0  0  0
    9.2573   -3.2568   24.6713 H   0  0  0  0  0  0  0  0  0  0  0  0
    9.0073   -4.1560   23.1699 H   0  0  0  0  0  0  0  0  0  0  0  0
    8.4983   -5.9395   24.6363 H   0  0  0  0  0  0  0  0  0  0  0  0
    8.0532   -4.8611   25.9507 H   0  0  0  0  0  0  0  0  0  0  0  0
    5.8323   -5.0209   25.3901 H   0  0  0  0  0  0  0  0  0  0  0  0
    6.2033   -6.0923   24.0477 H   0  0  0  0  0  0  0  0  0  0  0  0
    6.2369   -4.3431   22.4648 H   0  0  0  0  0  0  0  0  0  0  0  0
    5.1746   -3.5371   23.6325 H   0  0  0  0  0  0  0  0  0  0  0  0
    7.0406   -2.3340   24.6240 H   0  0  0  0  0  0  0  0  0  0  0  0
    6.5951   -1.5778   21.7593 N   0  0  0  0  0  0  0  0  0  0  0  0
    7.2762   -0.7496   20.9267 N   0  0  0  0  0  0  0  0  0  0  0  0
    6.6062   -0.0616   19.8774 C   0  0  0  0  0  0  0  0  0  0  0  0
    5.4069    0.6146   20.1345 C   0  0  0  0  0  0  0  0  0  0  0  0
    4.8044    1.3124   19.0848 C   0  0  0  0  0  0  0  0  0  0  0  0
    5.4030    1.3027   17.8194 C   0  0  0  0  0  0  0  0  0  0  0  0
    6.5301    0.6253   17.5542 N   0  0  0  0  0  0  0  0  0  0  0  0
    7.1073   -0.0380   18.5613 C   0  0  0  0  0  0  0  0  0  0  0  0
    8.0246   -0.5705   18.3160 H   0  0  0  0  0  0  0  0  0  0  0  0
    4.9648    1.8517   16.9882 H   0  0  0  0  0  0  0  0  0  0  0  0
    3.8855    1.8660   19.2351 H   0  0  0  0  0  0  0  0  0  0  0  0
    4.9736    0.5913   21.1343 H   0  0  0  0  0  0  0  0  0  0  0  0
   10.1328   -0.5216   19.9835 H   0  0  0  0  0  0  0  0  0  0  0  0
    9.1192    0.9430   20.0483 H   0  0  0  0  0  0  0  0  0  0  0  0
    9.0903    2.1363   22.5460 N   0  0  0  0  0  0  0  0  0  0  0  0
    8.8621    2.9970   23.5584 C   0  0  0  0  0  0  0  0  0  0  0  0
    7.8490    3.3566   23.7114 H   0  0  0  0  0  0  0  0  0  0  0  0
   12.3182    1.4883   23.0828 H   0  0  0  0  0  0  0  0  0  0  0  0
   11.9598    3.3083   24.8974 H   0  0  0  0  0  0  0  0  0  0  0  0
  1  2  1  0
  2  3  2  0
  3  4  1  0
  4  5  2  0
  5  6  1  0
  6  7  1  0
  7  8  1  0
  8  9  2  0
  9 10  1  0
 10 11  1  0
 11 12  1  0
 12 13  1  0
 13 14  1  0
 14 15  1  0
 15 16  1  0
 15 17  1  0
 14 18  1  0
 14 19  1  0
 13 20  1  0
 13 21  1  0
 12 22  1  0
 12 23  1  0
 11 24  1  0
 10 25  2  0
 25 26  1  0
 26 27  1  0
 27 28  2  0
 28 29  1  0
 29 30  2  0
 30 31  1  0
 31 32  2  0
 32 33  1  0
 30 34  1  0
 29 35  1  0
 28 36  1  0
  7 37  1  0
  7 38  1  0
  5 39  1  0
 39 40  2  0
 40 41  1  0
  4 42  1  0
  3 43  1  0
 40  2  1  0
 26  8  1  0
 32 27  1  0
 15 11  1  0
M  END
>  <cnnaffinity>  (1) 
-6.20158

>  <filename>  (1) 
Fc1ccc(OCc2nc(C3CCCC3)nn2-c2cccnc2)nc1

$$$$
