
     RDKit          3D

 43 46  0  0  0  0  0  0  0  0999 V2000
   11.4566    2.2624   23.0583 F   0  0  0  0  0  0  0  0  0  0  0  0
   10.3122    2.0941   23.7512 C   0  0  0  0  0  0  0  0  0  0  0  0
   10.3940    2.0181   25.1354 C   0  0  0  0  0  0  0  0  0  0  0  0
    9.2089    1.8476   25.8557 C   0  0  0  0  0  0  0  0  0  0  0  0
    7.9869    1.7248   25.2003 C   0  0  0  0  0  0  0  0  0  0  0  0
    7.9730    1.7886   23.8132 C   0  0  0  0  0  0  0  0  0  0  0  0
    6.7869    1.6456   23.1959 F   0  0  0  0  0  0  0  0  0  0  0  0
    9.1148    2.0058   23.0325 C   0  0  0  0  0  0  0  0  0  0  0  0
    9.0985    1.9964   21.5213 C   0  0  0  0  0  0  0  0  0  0  0  0
    9.5171    0.6113   20.9566 C   0  0  0  0  0  0  0  0  0  0  0  0
    8.6194   -0.4966   21.4091 C   0  0  0  0  0  0  0  0  0  0  0  0
    8.8430   -1.3242   22.4066 N   0  0  0  0  0  0  0  0  0  0  0  0
    7.6506   -1.9674   22.5559 C   0  0  0  0  0  0  0  0  0  0  0  0
    7.4145   -2.9212   23.6740 C   0  0  0  0  0  0  0  0  0  0  0  0
    8.5918   -3.8872   24.0032 C   0  0  0  0  0  0  0  0  0  0  0  0
    8.7188   -3.2535   25.4090 C   0  0  0  0  0  0  0  0  0  0  0  0
    7.5315   -2.3106   25.1091 C   0  0  0  0  0  0  0  0  0  0  0  0
    7.7798   -1.2422   25.1156 H   0  0  0  0  0  0  0  0  0  0  0  0
    6.6507   -2.4536   25.7383 H   0  0  0  0  0  0  0  0  0  0  0  0
    9.6675   -2.7378   25.5825 H   0  0  0  0  0  0  0  0  0  0  0  0
    8.5649   -3.9415   26.2459 H   0  0  0  0  0  0  0  0  0  0  0  0
    8.3182   -4.9446   23.9997 H   0  0  0  0  0  0  0  0  0  0  0  0
    9.4672   -3.7626   23.3569 H   0  0  0  0  0  0  0  0  0  0  0  0
    6.4615   -3.4167   23.4790 H   0  0  0  0  0  0  0  0  0  0  0  0
    6.7276   -1.6248   21.6824 N   0  0  0  0  0  0  0  0  0  0  0  0
    7.3515   -0.6755   20.9311 N   0  0  0  0  0  0  0  0  0  0  0  0
    6.6551    0.0036   19.8965 C   0  0  0  0  0  0  0  0  0  0  0  0
    5.4398    0.6441   20.1633 C   0  0  0  0  0  0  0  0  0  0  0  0
    4.8119    1.3114   19.1086 C   0  0  0  0  0  0  0  0  0  0  0  0
    5.3990    1.2967   17.8374 C   0  0  0  0  0  0  0  0  0  0  0  0
    6.5576    0.6724   17.5738 N   0  0  0  0  0  0  0  0  0  0  0  0
    7.1662    0.0497   18.5884 C   0  0  0  0  0  0  0  0  0  0  0  0
    8.1132   -0.4361   18.3656 H   0  0  0  0  0  0  0  0  0  0  0  0
    4.9199    1.7866   16.9932 H   0  0  0  0  0  0  0  0  0  0  0  0
    3.8805    1.8403   19.2611 H   0  0  0  0  0  0  0  0  0  0  0  0
    5.0246    0.6141   21.1744 H   0  0  0  0  0  0  0  0  0  0  0  0
   10.5349    0.3733   21.2788 H   0  0  0  0  0  0  0  0  0  0  0  0
    9.5346    0.6579   19.8655 H   0  0  0  0  0  0  0  0  0  0  0  0
    8.0936    2.2542   21.1664 H   0  0  0  0  0  0  0  0  0  0  0  0
    9.7850    2.7635   21.1466 H   0  0  0  0  0  0  0  0  0  0  0  0
    7.0598    1.5435   25.7344 H   0  0  0  0  0  0  0  0  0  0  0  0
    9.2003    1.7939   26.9320 H   0  0  0  0  0  0  0  0  0  0  0  0
   11.3725    2.0825   25.5906 H   0  0  0  0  0  0  0  0  0  0  0  0
  1  2  1  0
  2  3  2  0
  3  4  1  0
  4  5  2  0
  5  6  1  0
  6  7  1  0
  6  8  2  0
  8  9  1  0
  9 10  1  0
 10 11  1  0
 11 12  2  0
 12 13  1  0
 13 14  1  0
 14 15  1  0
 15 16  1  0
 16 17  1  0
 17 18  1  0
 17 19  1  0
 16 20  1  0
 16 21  1  0
 15 22  1  0
 15 23  1  0
 14 24  1  0
 13 25  2  0
 25 26  1  0
 26 27  1  0
 27 28  2  0
 28 29  1  0
 29 30  2  0
 30 31  1  0
 31 32  2  0
 32 33  1  0
 30 34  1  0
 29 35  1  0
 28 36  1  0
 10 37  1  0
 10 38  1  0
  9 39  1  0
  9 40  1  0
  5 41  1  0
  4 42  1  0
  3 43  1  0
  8  2  1  0
 26 11  1  0
 32 27  1  0
 17 14  1  0
M  END
>  <cnnaffinity>  (1) 
-6.25677

>  <filename>  (1) 
Fc1cccc(F)c1CCc1nc(C2CCC2)nn1-c1cccnc1

$$$$
