
     RDKit          3D

 42 45  0  0  0  0  0  0  0  0999 V2000
    6.1418    4.5595   27.3702 F   0  0  0  0  0  0  0  0  0  0  0  0
    5.8816    3.5284   26.5499 C   0  0  0  0  0  0  0  0  0  0  0  0
    4.5622    3.0983   26.3653 C   0  0  0  0  0  0  0  0  0  0  0  0
    4.2450    2.0720   25.5643 N   0  0  0  0  0  0  0  0  0  0  0  0
    5.2450    1.4504   24.9230 C   0  0  0  0  0  0  0  0  0  0  0  0
    6.5957    1.8229   25.0328 C   0  0  0  0  0  0  0  0  0  0  0  0
    7.6461    1.1571   24.1971 C   0  0  0  0  0  0  0  0  0  0  0  0
    7.7998    1.7985   22.7935 C   0  0  0  0  0  0  0  0  0  0  0  0
    8.8148    1.0470   22.0097 C   0  0  0  0  0  0  0  0  0  0  0  0
   10.1149    1.2107   22.1447 N   0  0  0  0  0  0  0  0  0  0  0  0
   10.6339    0.0919   21.5833 C   0  0  0  0  0  0  0  0  0  0  0  0
   12.0603   -0.2199   21.7046 C   0  0  0  0  0  0  0  0  0  0  0  0
   12.6311   -1.3902   21.2768 C   0  0  0  0  0  0  0  0  0  0  0  0
   14.3093   -1.4171   21.5390 S   0  0  0  0  0  0  0  0  0  0  0  0
   14.2844    0.1529   22.2378 C   0  0  0  0  0  0  0  0  0  0  0  0
   13.0305    0.6622   22.2886 C   0  0  0  0  0  0  0  0  0  0  0  0
   12.7819    1.6294   22.7149 H   0  0  0  0  0  0  0  0  0  0  0  0
   15.1981    0.6177   22.5813 H   0  0  0  0  0  0  0  0  0  0  0  0
   12.1304   -2.2345   20.8270 H   0  0  0  0  0  0  0  0  0  0  0  0
    9.7300   -0.7185   21.0560 N   0  0  0  0  0  0  0  0  0  0  0  0
    8.5632   -0.1082   21.3543 N   0  0  0  0  0  0  0  0  0  0  0  0
    7.2959   -0.7155   20.9763 C   0  0  0  0  0  0  0  0  0  0  0  0
    6.5681    0.0298   19.8794 C   0  0  0  0  0  0  0  0  0  0  0  0
    5.3450    0.6740   20.0850 C   0  0  0  0  0  0  0  0  0  0  0  0
    4.7464    1.3448   19.0146 C   0  0  0  0  0  0  0  0  0  0  0  0
    5.3924    1.3367   17.7756 C   0  0  0  0  0  0  0  0  0  0  0  0
    6.5582    0.7097   17.5528 N   0  0  0  0  0  0  0  0  0  0  0  0
    7.1242    0.0806   18.5898 C   0  0  0  0  0  0  0  0  0  0  0  0
    8.0636   -0.4324   18.3791 H   0  0  0  0  0  0  0  0  0  0  0  0
    4.9497    1.8479   16.9216 H   0  0  0  0  0  0  0  0  0  0  0  0
    3.8054    1.8702   19.1318 H   0  0  0  0  0  0  0  0  0  0  0  0
    4.8611    0.6389   21.0629 H   0  0  0  0  0  0  0  0  0  0  0  0
    6.6555   -0.8118   21.8657 H   0  0  0  0  0  0  0  0  0  0  0  0
    7.5627   -1.7240   20.6506 H   0  0  0  0  0  0  0  0  0  0  0  0
    6.8446    1.8270   22.2603 H   0  0  0  0  0  0  0  0  0  0  0  0
    8.1460    2.8302   22.8890 H   0  0  0  0  0  0  0  0  0  0  0  0
    8.6188    1.1994   24.7054 H   0  0  0  0  0  0  0  0  0  0  0  0
    7.4021    0.0910   24.0809 H   0  0  0  0  0  0  0  0  0  0  0  0
    6.9206    2.8909   25.8863 C   0  0  0  0  0  0  0  0  0  0  0  0
    7.9478    3.2220   26.0391 H   0  0  0  0  0  0  0  0  0  0  0  0
    4.9614    0.6064   24.2941 H   0  0  0  0  0  0  0  0  0  0  0  0
    3.7521    3.6033   26.8840 H   0  0  0  0  0  0  0  0  0  0  0  0
  1  2  1  0
  2  3  2  0
  3  4  1  0
  4  5  2  0
  5  6  1  0
  6  7  1  0
  7  8  1  0
  8  9  1  0
  9 10  2  0
 10 11  1  0
 11 12  1  0
 12 13  2  0
 13 14  1  0
 14 15  1  0
 15 16  2  0
 16 17  1  0
 15 18  1  0
 13 19  1  0
 11 20  2  0
 20 21  1  0
 21 22  1  0
 22 23  1  0
 23 24  2  0
 24 25  1  0
 25 26  2  0
 26 27  1  0
 27 28  2  0
 28 29  1  0
 26 30  1  0
 25 31  1  0
 24 32  1  0
 22 33  1  0
 22 34  1  0
  8 35  1  0
  8 36  1  0
  7 37  1  0
  7 38  1  0
  6 39  2  0
 39 40  1  0
  5 41  1  0
  3 42  1  0
 39  2  1  0
 21  9  1  0
 28 23  1  0
 16 12  1  0
M  END
>  <cnnaffinity>  (1) 
-6.68167

>  <filename>  (1) 
Fc1cncc(CCc2nc(-c3ccsc3)nn2Cc2cccnc2)c1

$$$$
