
     RDKit          3D

 37 40  0  0  0  0  0  0  0  0999 V2000
   12.1842   -0.3619   21.8267 F   0  0  0  0  0  0  0  0  0  0  0  0
   11.5651    0.7042   22.3566 C   0  0  0  0  0  0  0  0  0  0  0  0
   12.1583    1.3804   23.4234 C   0  0  0  0  0  0  0  0  0  0  0  0
   11.5872    2.4363   24.0140 N   0  0  0  0  0  0  0  0  0  0  0  0
   10.3950    2.8333   23.5546 C   0  0  0  0  0  0  0  0  0  0  0  0
    9.7428    2.1996   22.4912 C   0  0  0  0  0  0  0  0  0  0  0  0
    8.1786    2.7616   22.0050 Cl  0  0  0  0  0  0  0  0  0  0  0  0
   10.3346    1.1074   21.8437 C   0  0  0  0  0  0  0  0  0  0  0  0
    9.6197    0.3216   20.7760 C   0  0  0  0  0  0  0  0  0  0  0  0
    8.6029   -0.5947   21.3547 C   0  0  0  0  0  0  0  0  0  0  0  0
    8.8425   -1.4496   22.3257 N   0  0  0  0  0  0  0  0  0  0  0  0
    7.6358   -2.0300   22.5286 C   0  0  0  0  0  0  0  0  0  0  0  0
    7.4311   -3.0318   23.6104 C   0  0  0  0  0  0  0  0  0  0  0  0
    7.7829   -2.5192   25.0376 C   0  0  0  0  0  0  0  0  0  0  0  0
    9.0536   -3.8088   25.2640 S   0  0  0  0  0  0  0  0  0  0  0  0
    8.4340   -4.2186   23.5978 C   0  0  0  0  0  0  0  0  0  0  0  0
    7.9610   -5.2036   23.5594 H   0  0  0  0  0  0  0  0  0  0  0  0
    9.2132   -4.1475   22.8329 H   0  0  0  0  0  0  0  0  0  0  0  0
    8.1999   -1.5070   25.0659 H   0  0  0  0  0  0  0  0  0  0  0  0
    6.9656   -2.6047   25.7593 H   0  0  0  0  0  0  0  0  0  0  0  0
    6.3956   -3.3575   23.5323 H   0  0  0  0  0  0  0  0  0  0  0  0
    6.6778   -1.6153   21.7274 N   0  0  0  0  0  0  0  0  0  0  0  0
    7.3131   -0.7053   20.9351 N   0  0  0  0  0  0  0  0  0  0  0  0
    6.6418   -0.0037   19.8994 C   0  0  0  0  0  0  0  0  0  0  0  0
    5.4333    0.6461   20.1648 C   0  0  0  0  0  0  0  0  0  0  0  0
    4.8117    1.3141   19.1085 C   0  0  0  0  0  0  0  0  0  0  0  0
    5.3992    1.2960   17.8373 C   0  0  0  0  0  0  0  0  0  0  0  0
    6.5567    0.6697   17.5759 N   0  0  0  0  0  0  0  0  0  0  0  0
    7.1625    0.0472   18.5913 C   0  0  0  0  0  0  0  0  0  0  0  0
    8.1123   -0.4323   18.3643 H   0  0  0  0  0  0  0  0  0  0  0  0
    4.9194    1.7854   16.9934 H   0  0  0  0  0  0  0  0  0  0  0  0
    3.8802    1.8416   19.2604 H   0  0  0  0  0  0  0  0  0  0  0  0
    5.0139    0.6085   21.1731 H   0  0  0  0  0  0  0  0  0  0  0  0
   10.3163   -0.3336   20.2536 H   0  0  0  0  0  0  0  0  0  0  0  0
    9.1619    1.0284   20.0826 H   0  0  0  0  0  0  0  0  0  0  0  0
    9.9302    3.6851   24.0394 H   0  0  0  0  0  0  0  0  0  0  0  0
   13.1230    1.0439   23.7871 H   0  0  0  0  0  0  0  0  0  0  0  0
  1  2  1  0
  2  3  2  0
  3  4  1  0
  4  5  2  0
  5  6  1  0
  6  7  1  0
  6  8  2  0
  8  9  1  0
  9 10  1  0
 10 11  2  0
 11 12  1  0
 12 13  1  0
 13 14  1  0
 14 15  1  0
 15 16  1  0
 16 17  1  0
 16 18  1  0
 14 19  1  0
 14 20  1  0
 13 21  1  0
 12 22  2  0
 22 23  1  0
 23 24  1  0
 24 25  2  0
 25 26  1  0
 26 27  2  0
 27 28  1  0
 28 29  2  0
 29 30  1  0
 27 31  1  0
 26 32  1  0
 25 33  1  0
  9 34  1  0
  9 35  1  0
  5 36  1  0
  3 37  1  0
  8  2  1  0
 23 10  1  0
 29 24  1  0
 16 13  1  0
M  END
>  <cnnaffinity>  (1) 
-6.45775

>  <filename>  (1) 
Fc1cncc(Cl)c1Cc1nc(C2CSC2)nn1-c1cccnc1

$$$$
