
     RDKit          3D

 41 44  0  0  0  0  0  0  0  0999 V2000
    7.7911    1.3566   25.7882 F   0  0  0  0  0  0  0  0  0  0  0  0
    8.7782    1.6495   24.9209 C   0  0  0  0  0  0  0  0  0  0  0  0
   10.0622    1.8240   25.4280 C   0  0  0  0  0  0  0  0  0  0  0  0
   11.0797    2.2506   24.5714 C   0  0  0  0  0  0  0  0  0  0  0  0
   10.8036    2.5006   23.2264 C   0  0  0  0  0  0  0  0  0  0  0  0
    9.5182    2.2302   22.7423 C   0  0  0  0  0  0  0  0  0  0  0  0
    9.2102    2.4453   21.0487 Cl  0  0  0  0  0  0  0  0  0  0  0  0
    8.4763    1.7547   23.5553 C   0  0  0  0  0  0  0  0  0  0  0  0
    7.1722    1.2200   22.9612 C   0  0  0  0  0  0  0  0  0  0  0  0
    7.3684   -0.1336   22.3308 C   0  0  0  0  0  0  0  0  0  0  0  0
    7.8480   -1.1521   23.0244 N   0  0  0  0  0  0  0  0  0  0  0  0
    8.0345   -2.1176   22.0914 C   0  0  0  0  0  0  0  0  0  0  0  0
    8.5557   -3.5087   22.3782 C   0  0  0  0  0  0  0  0  0  0  0  0
    7.6095   -4.3972   23.2357 C   0  0  0  0  0  0  0  0  0  0  0  0
    8.6135   -5.2571   24.0166 C   0  0  0  0  0  0  0  0  0  0  0  0
    9.7034   -4.2209   24.2848 C   0  0  0  0  0  0  0  0  0  0  0  0
    9.8061   -3.4945   23.0673 O   0  0  0  0  0  0  0  0  0  0  0  0
    9.3989   -3.5394   25.0976 H   0  0  0  0  0  0  0  0  0  0  0  0
   10.6974   -4.6204   24.5113 H   0  0  0  0  0  0  0  0  0  0  0  0
    8.2009   -5.6901   24.9341 H   0  0  0  0  0  0  0  0  0  0  0  0
    8.9970   -6.0757   23.3913 H   0  0  0  0  0  0  0  0  0  0  0  0
    7.0303   -3.7601   23.9240 H   0  0  0  0  0  0  0  0  0  0  0  0
    6.9000   -4.9636   22.6221 H   0  0  0  0  0  0  0  0  0  0  0  0
    8.7136   -3.9468   21.3830 H   0  0  0  0  0  0  0  0  0  0  0  0
    7.6780   -1.7759   20.8717 N   0  0  0  0  0  0  0  0  0  0  0  0
    7.2087   -0.5106   21.0202 N   0  0  0  0  0  0  0  0  0  0  0  0
    6.5788    0.1309   19.9178 C   0  0  0  0  0  0  0  0  0  0  0  0
    5.3633    0.8107   20.0654 C   0  0  0  0  0  0  0  0  0  0  0  0
    4.8007    1.3987   18.9278 C   0  0  0  0  0  0  0  0  0  0  0  0
    5.4684    1.2977   17.7044 C   0  0  0  0  0  0  0  0  0  0  0  0
    6.6172    0.6121   17.5517 N   0  0  0  0  0  0  0  0  0  0  0  0
    7.1378    0.0209   18.6304 C   0  0  0  0  0  0  0  0  0  0  0  0
    8.0223   -0.5961   18.4813 H   0  0  0  0  0  0  0  0  0  0  0  0
    5.0734    1.7694   16.8061 H   0  0  0  0  0  0  0  0  0  0  0  0
    3.8585    1.9347   18.9837 H   0  0  0  0  0  0  0  0  0  0  0  0
    4.8538    0.8286   21.0297 H   0  0  0  0  0  0  0  0  0  0  0  0
    6.4363    1.1126   23.7627 H   0  0  0  0  0  0  0  0  0  0  0  0
    6.7824    1.9284   22.2268 H   0  0  0  0  0  0  0  0  0  0  0  0
   11.5664    2.8832   22.5552 H   0  0  0  0  0  0  0  0  0  0  0  0
   12.0844    2.4019   24.9567 H   0  0  0  0  0  0  0  0  0  0  0  0
   10.2419    1.5954   26.4673 H   0  0  0  0  0  0  0  0  0  0  0  0
  1  2  1  0
  2  3  2  0
  3  4  1  0
  4  5  2  0
  5  6  1  0
  6  7  1  0
  6  8  2  0
  8  9  1  0
  9 10  1  0
 10 11  2  0
 11 12  1  0
 12 13  1  0
 13 14  1  0
 14 15  1  0
 15 16  1  0
 16 17  1  0
 16 18  1  0
 16 19  1  0
 15 20  1  0
 15 21  1  0
 14 22  1  0
 14 23  1  0
 13 24  1  0
 12 25  2  0
 25 26  1  0
 26 27  1  0
 27 28  2  0
 28 29  1  0
 29 30  2  0
 30 31  1  0
 31 32  2  0
 32 33  1  0
 30 34  1  0
 29 35  1  0
 28 36  1  0
  9 37  1  0
  9 38  1  0
  5 39  1  0
  4 40  1  0
  3 41  1  0
  8  2  1  0
 26 10  1  0
 32 27  1  0
 17 13  1  0
M  END
>  <cnnaffinity>  (1) 
-6.24425

>  <filename>  (1) 
Fc1cccc(Cl)c1Cc1nc(C2CCCO2)nn1-c1cccnc1

$$$$
