
     RDKit          3D

 44 47  0  0  0  0  0  0  0  0999 V2000
    7.3902    5.8383   26.4806 F   0  0  0  0  0  0  0  0  0  0  0  0
    7.7891    4.8864   25.6234 C   0  0  0  0  0  0  0  0  0  0  0  0
    8.1978    3.6425   26.0927 C   0  0  0  0  0  0  0  0  0  0  0  0
    8.6091    2.6565   25.1910 C   0  0  0  0  0  0  0  0  0  0  0  0
    8.6167    2.9088   23.8054 C   0  0  0  0  0  0  0  0  0  0  0  0
    9.0404    1.8878   23.0125 O   0  0  0  0  0  0  0  0  0  0  0  0
    9.0468    2.0031   21.5928 C   0  0  0  0  0  0  0  0  0  0  0  0
    9.4945    0.6536   21.0224 C   0  0  0  0  0  0  0  0  0  0  0  0
    8.6054   -0.4607   21.4462 C   0  0  0  0  0  0  0  0  0  0  0  0
    8.8330   -1.2928   22.4340 N   0  0  0  0  0  0  0  0  0  0  0  0
    7.6530   -1.9626   22.5555 C   0  0  0  0  0  0  0  0  0  0  0  0
    7.4248   -2.9333   23.6593 C   0  0  0  0  0  0  0  0  0  0  0  0
    8.6028   -3.9057   23.9693 C   0  0  0  0  0  0  0  0  0  0  0  0
    8.7368   -3.2919   25.3832 C   0  0  0  0  0  0  0  0  0  0  0  0
    7.5500   -2.3414   25.1024 C   0  0  0  0  0  0  0  0  0  0  0  0
    6.6714   -2.4922   25.7343 H   0  0  0  0  0  0  0  0  0  0  0  0
    7.7959   -1.2715   25.1238 H   0  0  0  0  0  0  0  0  0  0  0  0
    8.5855   -3.9900   26.2122 H   0  0  0  0  0  0  0  0  0  0  0  0
    9.6873   -2.7818   25.5612 H   0  0  0  0  0  0  0  0  0  0  0  0
    8.3294   -4.9635   23.9516 H   0  0  0  0  0  0  0  0  0  0  0  0
    9.4751   -3.7740   23.3203 H   0  0  0  0  0  0  0  0  0  0  0  0
    6.4701   -3.4239   23.4619 H   0  0  0  0  0  0  0  0  0  0  0  0
    6.7309   -1.6225   21.6799 N   0  0  0  0  0  0  0  0  0  0  0  0
    7.3523   -0.6639   20.9391 N   0  0  0  0  0  0  0  0  0  0  0  0
    6.6582    0.0135   19.8996 C   0  0  0  0  0  0  0  0  0  0  0  0
    5.4388    0.6471   20.1642 C   0  0  0  0  0  0  0  0  0  0  0  0
    4.8118    1.3121   19.1077 C   0  0  0  0  0  0  0  0  0  0  0  0
    5.4006    1.2967   17.8366 C   0  0  0  0  0  0  0  0  0  0  0  0
    6.5589    0.6724   17.5746 N   0  0  0  0  0  0  0  0  0  0  0  0
    7.1689    0.0525   18.5904 C   0  0  0  0  0  0  0  0  0  0  0  0
    8.1130   -0.4373   18.3641 H   0  0  0  0  0  0  0  0  0  0  0  0
    4.9210    1.7865   16.9925 H   0  0  0  0  0  0  0  0  0  0  0  0
    3.8791    1.8404   19.2587 H   0  0  0  0  0  0  0  0  0  0  0  0
    5.0146    0.6085   21.1718 H   0  0  0  0  0  0  0  0  0  0  0  0
   10.5111    0.4209   21.3429 H   0  0  0  0  0  0  0  0  0  0  0  0
    9.5174    0.7203   19.9333 H   0  0  0  0  0  0  0  0  0  0  0  0
    9.7427    2.7895   21.2712 H   0  0  0  0  0  0  0  0  0  0  0  0
    8.0444    2.2531   21.2156 H   0  0  0  0  0  0  0  0  0  0  0  0
    8.2072    4.1636   23.3332 C   0  0  0  0  0  0  0  0  0  0  0  0
    7.7987    5.1332   24.2499 C   0  0  0  0  0  0  0  0  0  0  0  0
    7.4075    6.3308   23.8005 F   0  0  0  0  0  0  0  0  0  0  0  0
    8.1985    4.4160   22.2782 H   0  0  0  0  0  0  0  0  0  0  0  0
    8.9231    1.6826   25.5487 H   0  0  0  0  0  0  0  0  0  0  0  0
    8.1781    3.4751   27.1650 H   0  0  0  0  0  0  0  0  0  0  0  0
  1  2  1  0
  2  3  2  0
  3  4  1  0
  4  5  2  0
  5  6  1  0
  6  7  1  0
  7  8  1  0
  8  9  1  0
  9 10  2  0
 10 11  1  0
 11 12  1  0
 12 13  1  0
 13 14  1  0
 14 15  1  0
 15 16  1  0
 15 17  1  0
 14 18  1  0
 14 19  1  0
 13 20  1  0
 13 21  1  0
 12 22  1  0
 11 23  2  0
 23 24  1  0
 24 25  1  0
 25 26  2  0
 26 27  1  0
 27 28  2  0
 28 29  1  0
 29 30  2  0
 30 31  1  0
 28 32  1  0
 27 33  1  0
 26 34  1  0
  8 35  1  0
  8 36  1  0
  7 37  1  0
  7 38  1  0
  5 39  1  0
 39 40  2  0
 40 41  1  0
 39 42  1  0
  4 43  1  0
  3 44  1  0
 40  2  1  0
 24  9  1  0
 30 25  1  0
 15 12  1  0
M  END
>  <cnnaffinity>  (1) 
-6.18646

>  <filename>  (1) 
Fc1ccc(OCCc2nc(C3CCC3)nn2-c2cccnc2)cc1F

$$$$
