
     RDKit          3D

 45 48  0  0  0  0  0  0  0  0999 V2000
    6.1013    4.7109   27.3531 F   0  0  0  0  0  0  0  0  0  0  0  0
    5.7836    3.6821   26.5529 C   0  0  0  0  0  0  0  0  0  0  0  0
    4.4439    3.3310   26.4226 C   0  0  0  0  0  0  0  0  0  0  0  0
    4.1496    2.2555   25.5919 C   0  0  0  0  0  0  0  0  0  0  0  0
    2.8682    1.8863   25.4480 F   0  0  0  0  0  0  0  0  0  0  0  0
    5.1329    1.5542   24.9013 C   0  0  0  0  0  0  0  0  0  0  0  0
    6.4733    1.9439   25.0316 C   0  0  0  0  0  0  0  0  0  0  0  0
    7.5296    1.2663   24.1990 C   0  0  0  0  0  0  0  0  0  0  0  0
    7.6497    1.8426   22.7581 C   0  0  0  0  0  0  0  0  0  0  0  0
    8.6397    1.0400   21.9826 C   0  0  0  0  0  0  0  0  0  0  0  0
    9.9512    1.1577   22.1161 N   0  0  0  0  0  0  0  0  0  0  0  0
   10.4100   -0.0422   21.6893 C   0  0  0  0  0  0  0  0  0  0  0  0
   11.8456   -0.4475   21.7410 C   0  0  0  0  0  0  0  0  0  0  0  0
   12.2286   -1.6861   21.2071 C   0  0  0  0  0  0  0  0  0  0  0  0
   13.5733   -2.0328   21.1338 C   0  0  0  0  0  0  0  0  0  0  0  0
   14.5350   -1.2823   21.6685 N   0  0  0  0  0  0  0  0  0  0  0  0
   14.1849   -0.1098   22.2059 C   0  0  0  0  0  0  0  0  0  0  0  0
   12.8713    0.3635   22.2571 C   0  0  0  0  0  0  0  0  0  0  0  0
   12.6736    1.3463   22.6732 H   0  0  0  0  0  0  0  0  0  0  0  0
   15.0035    0.4947   22.5859 H   0  0  0  0  0  0  0  0  0  0  0  0
   13.9085   -2.9363   20.6331 H   0  0  0  0  0  0  0  0  0  0  0  0
   11.4592   -2.3358   20.8332 H   0  0  0  0  0  0  0  0  0  0  0  0
    9.4674   -0.8570   21.2386 N   0  0  0  0  0  0  0  0  0  0  0  0
    8.3354   -0.1527   21.4211 N   0  0  0  0  0  0  0  0  0  0  0  0
    7.0495   -0.7173   21.0142 C   0  0  0  0  0  0  0  0  0  0  0  0
    6.3780    0.0295   19.8806 C   0  0  0  0  0  0  0  0  0  0  0  0
    5.1654    0.7142   20.0178 C   0  0  0  0  0  0  0  0  0  0  0  0
    4.6570    1.4130   18.9180 C   0  0  0  0  0  0  0  0  0  0  0  0
    5.3763    1.3936   17.7197 C   0  0  0  0  0  0  0  0  0  0  0  0
    6.5282    0.7229   17.5614 N   0  0  0  0  0  0  0  0  0  0  0  0
    7.0081    0.0692   18.6252 C   0  0  0  0  0  0  0  0  0  0  0  0
    7.9534   -0.4541   18.4801 H   0  0  0  0  0  0  0  0  0  0  0  0
    5.0151    1.9352   16.8463 H   0  0  0  0  0  0  0  0  0  0  0  0
    3.7370    1.9835   18.9800 H   0  0  0  0  0  0  0  0  0  0  0  0
    4.6326    0.7161   20.9720 H   0  0  0  0  0  0  0  0  0  0  0  0
    6.3937   -0.7662   21.8916 H   0  0  0  0  0  0  0  0  0  0  0  0
    7.2647   -1.7482   20.7182 H   0  0  0  0  0  0  0  0  0  0  0  0
    6.6778    1.8422   22.2532 H   0  0  0  0  0  0  0  0  0  0  0  0
    8.0001    2.8760   22.7957 H   0  0  0  0  0  0  0  0  0  0  0  0
    8.5092    1.3440   24.6880 H   0  0  0  0  0  0  0  0  0  0  0  0
    7.3110    0.1910   24.1293 H   0  0  0  0  0  0  0  0  0  0  0  0
    6.8029    3.0094   25.8826 C   0  0  0  0  0  0  0  0  0  0  0  0
    7.8285    3.3280   26.0372 H   0  0  0  0  0  0  0  0  0  0  0  0
    4.8416    0.7168   24.2751 H   0  0  0  0  0  0  0  0  0  0  0  0
    3.6636    3.8794   26.9340 H   0  0  0  0  0  0  0  0  0  0  0  0
  1  2  1  0
  2  3  2  0
  3  4  1  0
  4  5  1  0
  4  6  2  0
  6  7  1  0
  7  8  1  0
  8  9  1  0
  9 10  1  0
 10 11  2  0
 11 12  1  0
 12 13  1  0
 13 14  2  0
 14 15  1  0
 15 16  2  0
 16 17  1  0
 17 18  2  0
 18 19  1  0
 17 20  1  0
 15 21  1  0
 14 22  1  0
 12 23  2  0
 23 24  1  0
 24 25  1  0
 25 26  1  0
 26 27  2  0
 27 28  1  0
 28 29  2  0
 29 30  1  0
 30 31  2  0
 31 32  1  0
 29 33  1  0
 28 34  1  0
 27 35  1  0
 25 36  1  0
 25 37  1  0
  9 38  1  0
  9 39  1  0
  8 40  1  0
  8 41  1  0
  7 42  2  0
 42 43  1  0
  6 44  1  0
  3 45  1  0
 42  2  1  0
 24 10  1  0
 31 26  1  0
 18 13  1  0
M  END
>  <cnnaffinity>  (1) 
-6.65645

>  <filename>  (1) 
Fc1cc(F)cc(CCc2nc(-c3ccncc3)nn2Cc2cccnc2)c1

$$$$
