
     RDKit          3D

 41 44  0  0  0  0  0  0  0  0999 V2000
    7.1096    6.1631   25.9521 F   0  0  0  0  0  0  0  0  0  0  0  0
    7.5520    5.1598   25.1786 C   0  0  0  0  0  0  0  0  0  0  0  0
    7.6445    5.3413   23.8057 C   0  0  0  0  0  0  0  0  0  0  0  0
    8.1071    4.2879   23.0069 C   0  0  0  0  0  0  0  0  0  0  0  0
    8.4771    3.0521   23.5660 C   0  0  0  0  0  0  0  0  0  0  0  0
    8.9349    1.9881   22.8619 O   0  0  0  0  0  0  0  0  0  0  0  0
    9.0354    2.0129   21.4390 C   0  0  0  0  0  0  0  0  0  0  0  0
    9.5135    0.6291   20.9901 C   0  0  0  0  0  0  0  0  0  0  0  0
    8.6188   -0.4667   21.4421 C   0  0  0  0  0  0  0  0  0  0  0  0
    8.8676   -1.3191   22.4098 N   0  0  0  0  0  0  0  0  0  0  0  0
    7.6913   -1.9932   22.5291 C   0  0  0  0  0  0  0  0  0  0  0  0
    7.4573   -2.9861   23.6060 C   0  0  0  0  0  0  0  0  0  0  0  0
    6.3148   -2.7803   24.5660 C   0  0  0  0  0  0  0  0  0  0  0  0
    7.7278   -2.6061   25.0411 C   0  0  0  0  0  0  0  0  0  0  0  0
    8.0870   -1.5925   25.2218 H   0  0  0  0  0  0  0  0  0  0  0  0
    8.1479   -3.3549   25.7085 H   0  0  0  0  0  0  0  0  0  0  0  0
    5.7164   -1.8849   24.4162 H   0  0  0  0  0  0  0  0  0  0  0  0
    5.7468   -3.6460   24.8966 H   0  0  0  0  0  0  0  0  0  0  0  0
    7.6941   -4.0029   23.3069 H   0  0  0  0  0  0  0  0  0  0  0  0
    6.7573   -1.6443   21.6649 N   0  0  0  0  0  0  0  0  0  0  0  0
    7.3608   -0.6615   20.9477 N   0  0  0  0  0  0  0  0  0  0  0  0
    6.6614    0.0125   19.9054 C   0  0  0  0  0  0  0  0  0  0  0  0
    5.4401    0.6437   20.1670 C   0  0  0  0  0  0  0  0  0  0  0  0
    4.8124    1.3099   19.1100 C   0  0  0  0  0  0  0  0  0  0  0  0
    5.4012    1.2958   17.8390 C   0  0  0  0  0  0  0  0  0  0  0  0
    6.5613    0.6741   17.5795 N   0  0  0  0  0  0  0  0  0  0  0  0
    7.1716    0.0548   18.5960 C   0  0  0  0  0  0  0  0  0  0  0  0
    8.1140   -0.4368   18.3671 H   0  0  0  0  0  0  0  0  0  0  0  0
    4.9200    1.7847   16.9946 H   0  0  0  0  0  0  0  0  0  0  0  0
    3.8796    1.8393   19.2602 H   0  0  0  0  0  0  0  0  0  0  0  0
    5.0141    0.6075   21.1729 H   0  0  0  0  0  0  0  0  0  0  0  0
   10.5111    0.4187   21.3782 H   0  0  0  0  0  0  0  0  0  0  0  0
    9.5822    0.6234   19.9007 H   0  0  0  0  0  0  0  0  0  0  0  0
    9.7610    2.7738   21.1212 H   0  0  0  0  0  0  0  0  0  0  0  0
    8.0605    2.2417   20.9832 H   0  0  0  0  0  0  0  0  0  0  0  0
    8.3671    2.9125   24.9753 C   0  0  0  0  0  0  0  0  0  0  0  0
    8.8029    1.4252   25.7601 Cl  0  0  0  0  0  0  0  0  0  0  0  0
    7.9088    3.9572   25.7802 C   0  0  0  0  0  0  0  0  0  0  0  0
    7.8236    3.8482   26.8575 H   0  0  0  0  0  0  0  0  0  0  0  0
    8.1832    4.4313   21.9333 H   0  0  0  0  0  0  0  0  0  0  0  0
    7.3545    6.2934   23.3739 H   0  0  0  0  0  0  0  0  0  0  0  0
  1  2  1  0
  2  3  2  0
  3  4  1  0
  4  5  2  0
  5  6  1  0
  6  7  1  0
  7  8  1  0
  8  9  1  0
  9 10  2  0
 10 11  1  0
 11 12  1  0
 12 13  1  0
 13 14  1  0
 14 15  1  0
 14 16  1  0
 13 17  1  0
 13 18  1  0
 12 19  1  0
 11 20  2  0
 20 21  1  0
 21 22  1  0
 22 23  2  0
 23 24  1  0
 24 25  2  0
 25 26  1  0
 26 27  2  0
 27 28  1  0
 25 29  1  0
 24 30  1  0
 23 31  1  0
  8 32  1  0
  8 33  1  0
  7 34  1  0
  7 35  1  0
  5 36  1  0
 36 37  1  0
 36 38  2  0
 38 39  1  0
  4 40  1  0
  3 41  1  0
 38  2  1  0
 21  9  1  0
 27 22  1  0
 14 12  1  0
M  END
>  <cnnaffinity>  (1) 
-6.09272

>  <filename>  (1) 
Fc1ccc(OCCc2nc(C3CC3)nn2-c2cccnc2)c(Cl)c1

$$$$
