
     RDKit          3D

 44 47  0  0  0  0  0  0  0  0999 V2000
   15.5736    0.2993   20.2120 F   0  0  0  0  0  0  0  0  0  0  0  0
   14.5916   -0.2038   21.1139 C   0  0  0  0  0  0  0  0  0  0  0  0
   13.8727   -1.3419   20.7476 C   0  0  0  0  0  0  0  0  0  0  0  0
   12.5565   -1.4039   21.2083 C   0  0  0  0  0  0  0  0  0  0  0  0
   12.0280   -0.3535   21.9931 C   0  0  0  0  0  0  0  0  0  0  0  0
   10.5879   -0.0587   21.9618 C   0  0  0  0  0  0  0  0  0  0  0  0
    9.7052   -0.8303   21.3457 N   0  0  0  0  0  0  0  0  0  0  0  0
    8.5479   -0.1512   21.4876 N   0  0  0  0  0  0  0  0  0  0  0  0
    7.2996   -0.7329   21.0070 C   0  0  0  0  0  0  0  0  0  0  0  0
    6.6011    0.0404   19.9042 C   0  0  0  0  0  0  0  0  0  0  0  0
    5.3679    0.6782   20.0882 C   0  0  0  0  0  0  0  0  0  0  0  0
    4.7796    1.3435   19.0092 C   0  0  0  0  0  0  0  0  0  0  0  0
    5.4421    1.3420   17.7791 C   0  0  0  0  0  0  0  0  0  0  0  0
    6.6162    0.7227   17.5762 N   0  0  0  0  0  0  0  0  0  0  0  0
    7.1729    0.1003   18.6216 C   0  0  0  0  0  0  0  0  0  0  0  0
    8.1237   -0.3944   18.4252 H   0  0  0  0  0  0  0  0  0  0  0  0
    5.0108    1.8508   16.9182 H   0  0  0  0  0  0  0  0  0  0  0  0
    3.8357    1.8683   19.1118 H   0  0  0  0  0  0  0  0  0  0  0  0
    4.8684    0.6529   21.0603 H   0  0  0  0  0  0  0  0  0  0  0  0
    6.6177   -0.8735   21.8566 H   0  0  0  0  0  0  0  0  0  0  0  0
    7.5772   -1.7289   20.6548 H   0  0  0  0  0  0  0  0  0  0  0  0
    8.7765    0.9762   22.1961 C   0  0  0  0  0  0  0  0  0  0  0  0
    7.7230    1.7739   22.8889 C   0  0  0  0  0  0  0  0  0  0  0  0
    7.5119    1.1734   24.3124 C   0  0  0  0  0  0  0  0  0  0  0  0
    6.4813    1.8534   25.1442 C   0  0  0  0  0  0  0  0  0  0  0  0
    5.2207    1.4312   25.0168 N   0  0  0  0  0  0  0  0  0  0  0  0
    4.3107    2.0470   25.7577 C   0  0  0  0  0  0  0  0  0  0  0  0
    4.6222    3.0891   26.6188 C   0  0  0  0  0  0  0  0  0  0  0  0
    5.9602    3.4519   26.6608 C   0  0  0  0  0  0  0  0  0  0  0  0
    6.8917    2.8494   25.9354 N   0  0  0  0  0  0  0  0  0  0  0  0
    6.3112    4.2620   27.3052 H   0  0  0  0  0  0  0  0  0  0  0  0
    3.8721    3.5838   27.2163 H   0  0  0  0  0  0  0  0  0  0  0  0
    3.2889    1.6785   25.6474 H   0  0  0  0  0  0  0  0  0  0  0  0
    8.4643    1.2178   24.8507 H   0  0  0  0  0  0  0  0  0  0  0  0
    7.2205    0.1201   24.2181 H   0  0  0  0  0  0  0  0  0  0  0  0
    8.0766    2.8086   22.9565 H   0  0  0  0  0  0  0  0  0  0  0  0
    6.7897    1.7771   22.3124 H   0  0  0  0  0  0  0  0  0  0  0  0
   10.0584    1.0720   22.4944 N   0  0  0  0  0  0  0  0  0  0  0  0
   12.9246    0.5253   22.6371 C   0  0  0  0  0  0  0  0  0  0  0  0
   14.2453    0.5907   22.2029 C   0  0  0  0  0  0  0  0  0  0  0  0
   14.9509    1.3271   22.5716 H   0  0  0  0  0  0  0  0  0  0  0  0
   12.5774    1.2020   23.4156 H   0  0  0  0  0  0  0  0  0  0  0  0
   11.8826   -2.1797   20.8628 H   0  0  0  0  0  0  0  0  0  0  0  0
   14.2326   -2.0132   19.9788 H   0  0  0  0  0  0  0  0  0  0  0  0
  1  2  1  0
  2  3  2  0
  3  4  1  0
  4  5  2  0
  5  6  1  0
  6  7  2  0
  7  8  1  0
  8  9  1  0
  9 10  1  0
 10 11  2  0
 11 12  1  0
 12 13  2  0
 13 14  1  0
 14 15  2  0
 15 16  1  0
 13 17  1  0
 12 18  1  0
 11 19  1  0
  9 20  1  0
  9 21  1  0
  8 22  1  0
 22 23  1  0
 23 24  1  0
 24 25  1  0
 25 26  2  0
 26 27  1  0
 27 28  2  0
 28 29  1  0
 29 30  2  0
 29 31  1  0
 28 32  1  0
 27 33  1  0
 24 34  1  0
 24 35  1  0
 23 36  1  0
 23 37  1  0
 22 38  2  0
  5 39  1  0
 39 40  2  0
 40 41  1  0
 39 42  1  0
  4 43  1  0
  3 44  1  0
 40  2  1  0
 38  6  1  0
 15 10  1  0
 30 25  1  0
M  END
>  <cnnaffinity>  (1) 
-6.50122

>  <filename>  (1) 
Fc1ccc(-c2nc(CCc3ncccn3)n(Cc3cccnc3)n2)cc1

$$$$
