
     RDKit          3D

 40 43  0  0  0  0  0  0  0  0999 V2000
   15.3918   -1.1680   19.9167 F   0  0  0  0  0  0  0  0  0  0  0  0
   14.3569   -1.1716   20.7647 C   0  0  0  0  0  0  0  0  0  0  0  0
   14.2327   -0.2022   21.7713 C   0  0  0  0  0  0  0  0  0  0  0  0
   12.9760    0.0356   22.3326 C   0  0  0  0  0  0  0  0  0  0  0  0
   11.8746   -0.7100   21.8770 C   0  0  0  0  0  0  0  0  0  0  0  0
   10.4647   -0.3193   22.0272 C   0  0  0  0  0  0  0  0  0  0  0  0
    9.4941   -1.0609   21.4973 N   0  0  0  0  0  0  0  0  0  0  0  0
    8.3826   -0.3416   21.7154 N   0  0  0  0  0  0  0  0  0  0  0  0
    7.0938   -0.7795   21.1797 C   0  0  0  0  0  0  0  0  0  0  0  0
    6.5299    0.0583   20.0405 C   0  0  0  0  0  0  0  0  0  0  0  0
    5.2975    0.7217   20.1112 C   0  0  0  0  0  0  0  0  0  0  0  0
    4.8167    1.3957   18.9827 C   0  0  0  0  0  0  0  0  0  0  0  0
    5.5850    1.3829   17.8168 C   0  0  0  0  0  0  0  0  0  0  0  0
    6.7657    0.7525   17.7238 N   0  0  0  0  0  0  0  0  0  0  0  0
    7.2176    0.1212   18.8144 C   0  0  0  0  0  0  0  0  0  0  0  0
    8.1727   -0.3886   18.7009 H   0  0  0  0  0  0  0  0  0  0  0  0
    5.2351    1.8926   16.9188 H   0  0  0  0  0  0  0  0  0  0  0  0
    3.8740    1.9312   18.9937 H   0  0  0  0  0  0  0  0  0  0  0  0
    4.7041    0.7083   21.0287 H   0  0  0  0  0  0  0  0  0  0  0  0
    7.2569   -1.8080   20.8401 H   0  0  0  0  0  0  0  0  0  0  0  0
    6.3771   -0.8248   22.0049 H   0  0  0  0  0  0  0  0  0  0  0  0
    8.7342    0.7961   22.3548 C   0  0  0  0  0  0  0  0  0  0  0  0
    7.7381    1.7572   22.8877 C   0  0  0  0  0  0  0  0  0  0  0  0
    7.1870    1.2566   24.1381 N   0  0  0  0  0  0  0  0  0  0  0  0
    6.0489    0.5454   24.3133 C   0  0  0  0  0  0  0  0  0  0  0  0
    6.1474   -0.0441   25.5531 C   0  0  0  0  0  0  0  0  0  0  0  0
    5.0305   -1.1236   26.2962 Cl  0  0  0  0  0  0  0  0  0  0  0  0
    7.3871    0.3989   26.0694 C   0  0  0  0  0  0  0  0  0  0  0  0
    7.9990    1.1825   25.1993 N   0  0  0  0  0  0  0  0  0  0  0  0
    7.8561    0.1705   27.0178 H   0  0  0  0  0  0  0  0  0  0  0  0
    5.2495    0.5635   23.5854 H   0  0  0  0  0  0  0  0  0  0  0  0
    6.9292    1.9183   22.1720 H   0  0  0  0  0  0  0  0  0  0  0  0
    8.2577    2.6879   23.0951 H   0  0  0  0  0  0  0  0  0  0  0  0
   10.0351    0.8530   22.5454 N   0  0  0  0  0  0  0  0  0  0  0  0
   12.1035   -1.8199   21.0579 C   0  0  0  0  0  0  0  0  0  0  0  0
   13.3389   -2.0674   20.4849 C   0  0  0  0  0  0  0  0  0  0  0  0
   13.5240   -2.8849   19.7986 H   0  0  0  0  0  0  0  0  0  0  0  0
   11.2166   -2.3911   20.8277 H   0  0  0  0  0  0  0  0  0  0  0  0
   12.8681    0.8422   23.0583 H   0  0  0  0  0  0  0  0  0  0  0  0
   15.0802    0.4133   22.0381 H   0  0  0  0  0  0  0  0  0  0  0  0
  1  2  1  0
  2  3  2  0
  3  4  1  0
  4  5  2  0
  5  6  1  0
  6  7  2  0
  7  8  1  0
  8  9  1  0
  9 10  1  0
 10 11  2  0
 11 12  1  0
 12 13  2  0
 13 14  1  0
 14 15  2  0
 15 16  1  0
 13 17  1  0
 12 18  1  0
 11 19  1  0
  9 20  1  0
  9 21  1  0
  8 22  1  0
 22 23  1  0
 23 24  1  0
 24 25  1  0
 25 26  2  0
 26 27  1  0
 26 28  1  0
 28 29  2  0
 28 30  1  0
 25 31  1  0
 23 32  1  0
 23 33  1  0
 22 34  2  0
  5 35  1  0
 35 36  2  0
 36 37  1  0
 35 38  1  0
  4 39  1  0
  3 40  1  0
 36  2  1  0
 34  6  1  0
 15 10  1  0
 29 24  1  0
M  END
>  <cnnaffinity>  (1) 
-6.60828

>  <filename>  (1) 
Fc1ccc(-c2nc(Cn3cc(Cl)cn3)n(Cc3cccnc3)n2)cc1

$$$$
