
     RDKit          3D

 44 47  0  0  0  0  0  0  0  0999 V2000
    8.4857    4.8733   27.1650 F   0  0  0  0  0  0  0  0  0  0  0  0
    7.8031    3.8606   26.6134 C   0  0  0  0  0  0  0  0  0  0  0  0
    6.6181    3.4180   27.2134 C   0  0  0  0  0  0  0  0  0  0  0  0
    5.8851    2.4217   26.7017 N   0  0  0  0  0  0  0  0  0  0  0  0
    6.3032    1.8352   25.5758 C   0  0  0  0  0  0  0  0  0  0  0  0
    7.4638    2.2349   24.8969 C   0  0  0  0  0  0  0  0  0  0  0  0
    7.7924    1.5816   23.6275 C   0  0  0  0  0  0  0  0  0  0  0  0
    7.1547    0.5188   23.1621 N   0  0  0  0  0  0  0  0  0  0  0  0
    7.8292    0.2298   22.0227 N   0  0  0  0  0  0  0  0  0  0  0  0
    7.2878   -0.7191   21.0464 C   0  0  0  0  0  0  0  0  0  0  0  0
    6.6164   -0.0304   19.8788 C   0  0  0  0  0  0  0  0  0  0  0  0
    5.4339    0.6861   20.1081 C   0  0  0  0  0  0  0  0  0  0  0  0
    4.8355    1.3404   19.0338 C   0  0  0  0  0  0  0  0  0  0  0  0
    5.4534    1.2833   17.7818 C   0  0  0  0  0  0  0  0  0  0  0  0
    6.5858    0.6007   17.5423 N   0  0  0  0  0  0  0  0  0  0  0  0
    7.1383   -0.0438   18.5772 C   0  0  0  0  0  0  0  0  0  0  0  0
    8.0486   -0.6096   18.3553 H   0  0  0  0  0  0  0  0  0  0  0  0
    5.0212    1.7985   16.9286 H   0  0  0  0  0  0  0  0  0  0  0  0
    3.9072    1.8889   19.1559 H   0  0  0  0  0  0  0  0  0  0  0  0
    5.0183    0.7297   21.1183 H   0  0  0  0  0  0  0  0  0  0  0  0
    6.5751   -1.3343   21.6036 H   0  0  0  0  0  0  0  0  0  0  0  0
    8.0988   -1.3718   20.7022 H   0  0  0  0  0  0  0  0  0  0  0  0
    8.8159    1.1389   21.8538 C   0  0  0  0  0  0  0  0  0  0  0  0
    9.9310    0.9087   20.8843 C   0  0  0  0  0  0  0  0  0  0  0  0
   10.8196   -0.3110   21.2831 C   0  0  0  0  0  0  0  0  0  0  0  0
   11.5200   -0.1137   22.6115 C   0  0  0  0  0  0  0  0  0  0  0  0
   10.9241   -0.5004   23.8265 C   0  0  0  0  0  0  0  0  0  0  0  0
   11.5725   -0.2043   25.0272 C   0  0  0  0  0  0  0  0  0  0  0  0
   12.8288    0.3980   24.9606 C   0  0  0  0  0  0  0  0  0  0  0  0
   13.3313    0.7677   23.7114 C   0  0  0  0  0  0  0  0  0  0  0  0
   12.6957    0.5295   22.5595 N   0  0  0  0  0  0  0  0  0  0  0  0
   14.2900    1.2797   23.6236 H   0  0  0  0  0  0  0  0  0  0  0  0
   13.4311    0.5539   25.8465 H   0  0  0  0  0  0  0  0  0  0  0  0
   11.1236   -0.4635   25.9886 H   0  0  0  0  0  0  0  0  0  0  0  0
    9.9675   -1.0109   23.8169 H   0  0  0  0  0  0  0  0  0  0  0  0
   11.5916   -0.4996   20.5350 H   0  0  0  0  0  0  0  0  0  0  0  0
   10.2034   -1.2168   21.3173 H   0  0  0  0  0  0  0  0  0  0  0  0
   10.5421    1.8138   20.8270 H   0  0  0  0  0  0  0  0  0  0  0  0
    9.5066    0.7533   19.8897 H   0  0  0  0  0  0  0  0  0  0  0  0
    8.7978    2.0235   22.8328 N   0  0  0  0  0  0  0  0  0  0  0  0
    8.2544    3.2685   25.4455 C   0  0  0  0  0  0  0  0  0  0  0  0
    9.1816    3.6140   24.9871 H   0  0  0  0  0  0  0  0  0  0  0  0
    5.6908    1.0148   25.2062 H   0  0  0  0  0  0  0  0  0  0  0  0
    6.2646    3.8889   28.1251 H   0  0  0  0  0  0  0  0  0  0  0  0
  1  2  1  0
  2  3  2  0
  3  4  1  0
  4  5  2  0
  5  6  1  0
  6  7  1  0
  7  8  2  0
  8  9  1  0
  9 10  1  0
 10 11  1  0
 11 12  2  0
 12 13  1  0
 13 14  2  0
 14 15  1  0
 15 16  2  0
 16 17  1  0
 14 18  1  0
 13 19  1  0
 12 20  1  0
 10 21  1  0
 10 22  1  0
  9 23  1  0
 23 24  1  0
 24 25  1  0
 25 26  1  0
 26 27  2  0
 27 28  1  0
 28 29  2  0
 29 30  1  0
 30 31  2  0
 30 32  1  0
 29 33  1  0
 28 34  1  0
 27 35  1  0
 25 36  1  0
 25 37  1  0
 24 38  1  0
 24 39  1  0
 23 40  2  0
  6 41  2  0
 41 42  1  0
  5 43  1  0
  3 44  1  0
 41  2  1  0
 40  7  1  0
 16 11  1  0
 31 26  1  0
M  END
>  <cnnaffinity>  (1) 
-6.45637

>  <filename>  (1) 
Fc1cncc(-c2nc(CCc3ccccn3)n(Cc3cccnc3)n2)c1

$$$$
