
     RDKit          3D

 41 44  0  0  0  0  0  0  0  0999 V2000
    5.9525    7.0283   23.6050 F   0  0  0  0  0  0  0  0  0  0  0  0
    6.4686    5.9109   23.0802 C   0  0  0  0  0  0  0  0  0  0  0  0
    7.6997    5.4538   23.5273 C   0  0  0  0  0  0  0  0  0  0  0  0
    8.2614    4.2845   22.9970 C   0  0  0  0  0  0  0  0  0  0  0  0
    7.5821    3.5577   22.0080 C   0  0  0  0  0  0  0  0  0  0  0  0
    8.0343    2.4049   21.4286 O   0  0  0  0  0  0  0  0  0  0  0  0
    9.3127    1.8735   21.7729 C   0  0  0  0  0  0  0  0  0  0  0  0
    9.5230    0.5786   20.9844 C   0  0  0  0  0  0  0  0  0  0  0  0
    8.5994   -0.5015   21.4177 C   0  0  0  0  0  0  0  0  0  0  0  0
    8.8250   -1.3196   22.4249 N   0  0  0  0  0  0  0  0  0  0  0  0
    7.6431   -1.9814   22.5465 C   0  0  0  0  0  0  0  0  0  0  0  0
    7.4259   -3.0529   23.5504 C   0  0  0  0  0  0  0  0  0  0  0  0
    8.3671   -4.2298   23.6109 C   0  0  0  0  0  0  0  0  0  0  0  0
    6.9658   -4.4159   23.0995 C   0  0  0  0  0  0  0  0  0  0  0  0
    6.2441   -4.9556   23.7089 H   0  0  0  0  0  0  0  0  0  0  0  0
    6.8120   -4.5414   22.0295 H   0  0  0  0  0  0  0  0  0  0  0  0
    8.6358   -4.6416   24.5815 H   0  0  0  0  0  0  0  0  0  0  0  0
    9.1907   -4.2322   22.9000 H   0  0  0  0  0  0  0  0  0  0  0  0
    7.0408   -2.6702   24.4926 H   0  0  0  0  0  0  0  0  0  0  0  0
    6.7071   -1.6128   21.6916 N   0  0  0  0  0  0  0  0  0  0  0  0
    7.3400   -0.6816   20.9328 N   0  0  0  0  0  0  0  0  0  0  0  0
    6.6537    0.0055   19.8986 C   0  0  0  0  0  0  0  0  0  0  0  0
    5.4365    0.6399   20.1642 C   0  0  0  0  0  0  0  0  0  0  0  0
    4.8095    1.3051   19.1076 C   0  0  0  0  0  0  0  0  0  0  0  0
    5.3983    1.2937   17.8373 C   0  0  0  0  0  0  0  0  0  0  0  0
    6.5564    0.6693   17.5725 N   0  0  0  0  0  0  0  0  0  0  0  0
    7.1659    0.0526   18.5920 C   0  0  0  0  0  0  0  0  0  0  0  0
    8.1120   -0.4326   18.3634 H   0  0  0  0  0  0  0  0  0  0  0  0
    4.9204    1.7873   16.9958 H   0  0  0  0  0  0  0  0  0  0  0  0
    3.8807    1.8430   19.2574 H   0  0  0  0  0  0  0  0  0  0  0  0
    5.0191    0.6129   21.1749 H   0  0  0  0  0  0  0  0  0  0  0  0
    9.4219    0.7757   19.9186 H   0  0  0  0  0  0  0  0  0  0  0  0
   10.5384    0.2146   21.1528 H   0  0  0  0  0  0  0  0  0  0  0  0
   10.1128    2.5907   21.5406 H   0  0  0  0  0  0  0  0  0  0  0  0
    9.3528    1.6416   22.8461 H   0  0  0  0  0  0  0  0  0  0  0  0
    6.3335    4.0278   21.5609 C   0  0  0  0  0  0  0  0  0  0  0  0
    5.7812    5.1972   22.0927 C   0  0  0  0  0  0  0  0  0  0  0  0
    4.2419    5.7660   21.5472 Cl  0  0  0  0  0  0  0  0  0  0  0  0
    5.8038    3.4945   20.7818 H   0  0  0  0  0  0  0  0  0  0  0  0
    9.2267    3.9472   23.3535 H   0  0  0  0  0  0  0  0  0  0  0  0
    8.2017    6.0317   24.2955 H   0  0  0  0  0  0  0  0  0  0  0  0
  1  2  1  0
  2  3  2  0
  3  4  1  0
  4  5  2  0
  5  6  1  0
  6  7  1  0
  7  8  1  0
  8  9  1  0
  9 10  2  0
 10 11  1  0
 11 12  1  0
 12 13  1  0
 13 14  1  0
 14 15  1  0
 14 16  1  0
 13 17  1  0
 13 18  1  0
 12 19  1  0
 11 20  2  0
 20 21  1  0
 21 22  1  0
 22 23  2  0
 23 24  1  0
 24 25  2  0
 25 26  1  0
 26 27  2  0
 27 28  1  0
 25 29  1  0
 24 30  1  0
 23 31  1  0
  8 32  1  0
  8 33  1  0
  7 34  1  0
  7 35  1  0
  5 36  1  0
 36 37  2  0
 37 38  1  0
 36 39  1  0
  4 40  1  0
  3 41  1  0
 37  2  1  0
 21  9  1  0
 27 22  1  0
 14 12  1  0
M  END
>  <cnnaffinity>  (1) 
-5.83161

>  <filename>  (1) 
Fc1ccc(OCCc2nc(C3CC3)nn2-c2cccnc2)cc1Cl

$$$$
