
     RDKit          3D

 47 51  0  0  0  0  0  0  0  0999 V2000
   14.3602   -1.8977   21.3621 F   0  0  0  0  0  0  0  0  0  0  0  0
   13.5721   -0.9421   21.8783 C   0  0  0  0  0  0  0  0  0  0  0  0
   14.1641    0.1291   22.5348 C   0  0  0  0  0  0  0  0  0  0  0  0
   13.3645    1.1317   23.0794 C   0  0  0  0  0  0  0  0  0  0  0  0
   11.9880    1.0654   22.9325 C   0  0  0  0  0  0  0  0  0  0  0  0
   11.3930    0.0198   22.1989 C   0  0  0  0  0  0  0  0  0  0  0  0
    9.9307    0.1128   21.9658 C   0  0  0  0  0  0  0  0  0  0  0  0
    9.1382   -0.8185   21.4648 N   0  0  0  0  0  0  0  0  0  0  0  0
    7.8991   -0.2775   21.6032 N   0  0  0  0  0  0  0  0  0  0  0  0
    6.7224   -0.9229   21.0228 C   0  0  0  0  0  0  0  0  0  0  0  0
    6.1751   -0.1353   19.8526 C   0  0  0  0  0  0  0  0  0  0  0  0
    4.9907    0.6098   19.9163 C   0  0  0  0  0  0  0  0  0  0  0  0
    4.6510    1.4257   18.8318 C   0  0  0  0  0  0  0  0  0  0  0  0
    5.4957    1.4456   17.7175 C   0  0  0  0  0  0  0  0  0  0  0  0
    6.6197    0.7187   17.6267 N   0  0  0  0  0  0  0  0  0  0  0  0
    6.9449   -0.0380   18.6807 C   0  0  0  0  0  0  0  0  0  0  0  0
    7.8795   -0.5954   18.6037 H   0  0  0  0  0  0  0  0  0  0  0  0
    5.2574    2.0664   16.8559 H   0  0  0  0  0  0  0  0  0  0  0  0
    3.7694    2.0567   18.8499 H   0  0  0  0  0  0  0  0  0  0  0  0
    4.3553    0.5751   20.8075 H   0  0  0  0  0  0  0  0  0  0  0  0
    5.9659   -1.0306   21.8070 H   0  0  0  0  0  0  0  0  0  0  0  0
    7.0498   -1.9250   20.7304 H   0  0  0  0  0  0  0  0  0  0  0  0
    8.0134    0.9587   22.1305 C   0  0  0  0  0  0  0  0  0  0  0  0
    6.9249    1.7697   22.7571 C   0  0  0  0  0  0  0  0  0  0  0  0
    6.5996    1.1795   24.0487 N   0  0  0  0  0  0  0  0  0  0  0  0
    7.3837    1.1592   25.1525 C   0  0  0  0  0  0  0  0  0  0  0  0
    6.9603    0.1074   25.9479 C   0  0  0  0  0  0  0  0  0  0  0  0
    7.6067   -0.4423   27.1622 C   0  0  0  0  0  0  0  0  0  0  0  0
    8.3254    0.4803   28.1006 C   0  0  0  0  0  0  0  0  0  0  0  0
    9.1174   -0.4512   27.2376 C   0  0  0  0  0  0  0  0  0  0  0  0
    9.6394   -0.0107   26.3903 H   0  0  0  0  0  0  0  0  0  0  0  0
    9.6157   -1.3070   27.6793 H   0  0  0  0  0  0  0  0  0  0  0  0
    8.3180    1.5290   27.8205 H   0  0  0  0  0  0  0  0  0  0  0  0
    8.2722    0.3078   29.1679 H   0  0  0  0  0  0  0  0  0  0  0  0
    7.0964   -1.2960   27.6045 H   0  0  0  0  0  0  0  0  0  0  0  0
    5.8696   -0.4258   25.2272 C   0  0  0  0  0  0  0  0  0  0  0  0
    5.6978    0.2032   24.0702 N   0  0  0  0  0  0  0  0  0  0  0  0
    5.2260   -1.2530   25.5015 H   0  0  0  0  0  0  0  0  0  0  0  0
    8.1955    1.8761   25.2303 H   0  0  0  0  0  0  0  0  0  0  0  0
    6.0261    1.7838   22.1483 H   0  0  0  0  0  0  0  0  0  0  0  0
    7.2915    2.7846   22.9213 H   0  0  0  0  0  0  0  0  0  0  0  0
    9.2724    1.2452   22.3430 N   0  0  0  0  0  0  0  0  0  0  0  0
   12.1948   -1.0312   21.7069 C   0  0  0  0  0  0  0  0  0  0  0  0
   11.7632   -1.9030   21.2211 H   0  0  0  0  0  0  0  0  0  0  0  0
   11.3520    1.8372   23.3607 H   0  0  0  0  0  0  0  0  0  0  0  0
   13.8096    1.9849   23.5787 H   0  0  0  0  0  0  0  0  0  0  0  0
   15.2329    0.1930   22.5621 H   0  0  0  0  0  0  0  0  0  0  0  0
  1  2  1  0
  2  3  2  0
  3  4  1  0
  4  5  2  0
  5  6  1  0
  6  7  1  0
  7  8  2  0
  8  9  1  0
  9 10  1  0
 10 11  1  0
 11 12  2  0
 12 13  1  0
 13 14  2  0
 14 15  1  0
 15 16  2  0
 16 17  1  0
 14 18  1  0
 13 19  1  0
 12 20  1  0
 10 21  1  0
 10 22  1  0
  9 23  1  0
 23 24  1  0
 24 25  1  0
 25 26  1  0
 26 27  2  0
 27 28  1  0
 28 29  1  0
 29 30  1  0
 30 31  1  0
 30 32  1  0
 29 33  1  0
 29 34  1  0
 28 35  1  0
 27 36  1  0
 36 37  2  0
 36 38  1  0
 26 39  1  0
 24 40  1  0
 24 41  1  0
 23 42  2  0
  6 43  2  0
 43 44  1  0
  5 45  1  0
  4 46  1  0
  3 47  1  0
 43  2  1  0
 42  7  1  0
 16 11  1  0
 37 25  1  0
 30 28  1  0
M  END
>  <cnnaffinity>  (1) 
-6.28175

>  <filename>  (1) 
Fc1cccc(-c2nc(Cn3cc(C4CC4)cn3)n(Cc3cccnc3)n2)c1

$$$$
