
     RDKit          3D

 36 39  0  0  0  0  0  0  0  0999 V2000
   12.2040   -0.3055   21.8903 F   0  0  0  0  0  0  0  0  0  0  0  0
   11.5551    0.7594   22.3932 C   0  0  0  0  0  0  0  0  0  0  0  0
   12.1240    1.4560   23.4653 C   0  0  0  0  0  0  0  0  0  0  0  0
   11.5201    2.5092   24.0337 N   0  0  0  0  0  0  0  0  0  0  0  0
   10.3356    2.9046   23.5445 C   0  0  0  0  0  0  0  0  0  0  0  0
    9.7096    2.2463   22.4728 C   0  0  0  0  0  0  0  0  0  0  0  0
    8.1378    2.7764   21.9510 Cl  0  0  0  0  0  0  0  0  0  0  0  0
   10.3172    1.1338   21.8638 C   0  0  0  0  0  0  0  0  0  0  0  0
    9.6257    0.3122   20.7951 C   0  0  0  0  0  0  0  0  0  0  0  0
    8.5834   -0.5836   21.3660 C   0  0  0  0  0  0  0  0  0  0  0  0
    8.8144   -1.4377   22.3298 N   0  0  0  0  0  0  0  0  0  0  0  0
    7.6074   -2.0436   22.5148 C   0  0  0  0  0  0  0  0  0  0  0  0
    7.4705   -3.0512   23.5667 C   0  0  0  0  0  0  0  0  0  0  0  0
    8.3847   -3.5375   24.4563 C   0  0  0  0  0  0  0  0  0  0  0  0
    7.6920   -4.4937   25.2612 C   0  0  0  0  0  0  0  0  0  0  0  0
    6.4139   -4.5080   24.7961 C   0  0  0  0  0  0  0  0  0  0  0  0
    6.2624   -3.6438   23.7703 O   0  0  0  0  0  0  0  0  0  0  0  0
    5.5160   -5.0397   25.0564 H   0  0  0  0  0  0  0  0  0  0  0  0
    8.0843   -5.0914   26.0738 H   0  0  0  0  0  0  0  0  0  0  0  0
    9.4223   -3.2179   24.4998 H   0  0  0  0  0  0  0  0  0  0  0  0
    6.6519   -1.6187   21.7003 N   0  0  0  0  0  0  0  0  0  0  0  0
    7.2925   -0.7009   20.9392 N   0  0  0  0  0  0  0  0  0  0  0  0
    6.6308   -0.0078   19.8877 C   0  0  0  0  0  0  0  0  0  0  0  0
    5.4256    0.6436   20.1497 C   0  0  0  0  0  0  0  0  0  0  0  0
    4.8024    1.3204   19.0996 C   0  0  0  0  0  0  0  0  0  0  0  0
    5.3900    1.3000   17.8300 C   0  0  0  0  0  0  0  0  0  0  0  0
    6.5431    0.6642   17.5678 N   0  0  0  0  0  0  0  0  0  0  0  0
    7.1501    0.0364   18.5807 C   0  0  0  0  0  0  0  0  0  0  0  0
    8.1004   -0.4450   18.3456 H   0  0  0  0  0  0  0  0  0  0  0  0
    4.9267    1.8068   16.9877 H   0  0  0  0  0  0  0  0  0  0  0  0
    3.8717    1.8517   19.2511 H   0  0  0  0  0  0  0  0  0  0  0  0
    5.0131    0.5925   21.1573 H   0  0  0  0  0  0  0  0  0  0  0  0
    9.1765    0.9767   20.0560 H   0  0  0  0  0  0  0  0  0  0  0  0
   10.3384   -0.3559   20.3060 H   0  0  0  0  0  0  0  0  0  0  0  0
    9.8488    3.7591   24.0196 H   0  0  0  0  0  0  0  0  0  0  0  0
   13.0839    1.1267   23.8630 H   0  0  0  0  0  0  0  0  0  0  0  0
  1  2  1  0
  2  3  2  0
  3  4  1  0
  4  5  2  0
  5  6  1  0
  6  7  1  0
  6  8  2  0
  8  9  1  0
  9 10  1  0
 10 11  2  0
 11 12  1  0
 12 13  1  0
 13 14  2  0
 14 15  1  0
 15 16  2  0
 16 17  1  0
 16 18  1  0
 15 19  1  0
 14 20  1  0
 12 21  2  0
 21 22  1  0
 22 23  1  0
 23 24  2  0
 24 25  1  0
 25 26  2  0
 26 27  1  0
 27 28  2  0
 28 29  1  0
 26 30  1  0
 25 31  1  0
 24 32  1  0
  9 33  1  0
  9 34  1  0
  5 35  1  0
  3 36  1  0
  8  2  1  0
 22 10  1  0
 28 23  1  0
 17 13  1  0
M  END
>  <cnnaffinity>  (1) 
-6.3681

>  <filename>  (1) 
Fc1cncc(Cl)c1Cc1nc(-c2ccco2)nn1-c1cccnc1

$$$$
