
     RDKit          3D

 39 42  0  0  0  0  0  0  0  0999 V2000
    8.2171    4.8035   27.3046 F   0  0  0  0  0  0  0  0  0  0  0  0
    7.5253    3.7483   26.8455 C   0  0  0  0  0  0  0  0  0  0  0  0
    6.4086    3.3017   27.5491 C   0  0  0  0  0  0  0  0  0  0  0  0
    5.7038    2.1994   27.0499 C   0  0  0  0  0  0  0  0  0  0  0  0
    6.1104    1.5504   25.8773 C   0  0  0  0  0  0  0  0  0  0  0  0
    7.2494    2.0110   25.1830 C   0  0  0  0  0  0  0  0  0  0  0  0
    7.7129    1.3888   23.9167 C   0  0  0  0  0  0  0  0  0  0  0  0
    7.0739    0.4473   23.2365 N   0  0  0  0  0  0  0  0  0  0  0  0
    7.8344    0.2970   22.1258 N   0  0  0  0  0  0  0  0  0  0  0  0
    7.4612   -0.6375   21.0656 C   0  0  0  0  0  0  0  0  0  0  0  0
    6.7489    0.0174   19.8947 C   0  0  0  0  0  0  0  0  0  0  0  0
    5.5414    0.6947   20.1092 C   0  0  0  0  0  0  0  0  0  0  0  0
    4.9213    1.3136   19.0239 C   0  0  0  0  0  0  0  0  0  0  0  0
    5.5280    1.2349   17.7668 C   0  0  0  0  0  0  0  0  0  0  0  0
    6.6769    0.5799   17.5365 N   0  0  0  0  0  0  0  0  0  0  0  0
    7.2643   -0.0056   18.5885 C   0  0  0  0  0  0  0  0  0  0  0  0
    8.1947   -0.5395   18.3753 H   0  0  0  0  0  0  0  0  0  0  0  0
    5.0746    1.7239   16.9077 H   0  0  0  0  0  0  0  0  0  0  0  0
    3.9975    1.8698   19.1450 H   0  0  0  0  0  0  0  0  0  0  0  0
    5.1126    0.7389   21.1135 H   0  0  0  0  0  0  0  0  0  0  0  0
    8.3805   -1.1338   20.7322 H   0  0  0  0  0  0  0  0  0  0  0  0
    6.8197   -1.3845   21.5470 H   0  0  0  0  0  0  0  0  0  0  0  0
    8.8776    1.1518   22.1868 C   0  0  0  0  0  0  0  0  0  0  0  0
    9.9492    1.3148   21.1801 C   0  0  0  0  0  0  0  0  0  0  0  0
   11.1587    0.5306   21.5672 C   0  0  0  0  0  0  0  0  0  0  0  0
   12.1025    0.8950   22.4725 C   0  0  0  0  0  0  0  0  0  0  0  0
   13.2796   -0.3484   22.6310 S   0  0  0  0  0  0  0  0  0  0  0  0
   12.4038   -1.2718   21.4663 C   0  0  0  0  0  0  0  0  0  0  0  0
   11.3219   -0.7125   21.0142 N   0  0  0  0  0  0  0  0  0  0  0  0
   12.7380   -2.2521   21.1515 H   0  0  0  0  0  0  0  0  0  0  0  0
   12.1656    1.8085   23.0489 H   0  0  0  0  0  0  0  0  0  0  0  0
   10.2058    2.3752   21.1248 H   0  0  0  0  0  0  0  0  0  0  0  0
    9.5851    0.9927   20.2065 H   0  0  0  0  0  0  0  0  0  0  0  0
    8.8499    1.8283   23.3060 N   0  0  0  0  0  0  0  0  0  0  0  0
    7.9524    3.1297   25.6773 C   0  0  0  0  0  0  0  0  0  0  0  0
    8.8156    3.5190   25.1434 H   0  0  0  0  0  0  0  0  0  0  0  0
    5.5479    0.6998   25.4968 H   0  0  0  0  0  0  0  0  0  0  0  0
    4.8317    1.8405   27.5919 H   0  0  0  0  0  0  0  0  0  0  0  0
    6.1257    3.8080   28.4679 H   0  0  0  0  0  0  0  0  0  0  0  0
  1  2  1  0
  2  3  2  0
  3  4  1  0
  4  5  2  0
  5  6  1  0
  6  7  1  0
  7  8  2  0
  8  9  1  0
  9 10  1  0
 10 11  1  0
 11 12  2  0
 12 13  1  0
 13 14  2  0
 14 15  1  0
 15 16  2  0
 16 17  1  0
 14 18  1  0
 13 19  1  0
 12 20  1  0
 10 21  1  0
 10 22  1  0
  9 23  1  0
 23 24  1  0
 24 25  1  0
 25 26  2  0
 26 27  1  0
 27 28  1  0
 28 29  2  0
 28 30  1  0
 26 31  1  0
 24 32  1  0
 24 33  1  0
 23 34  2  0
  6 35  2  0
 35 36  1  0
  5 37  1  0
  4 38  1  0
  3 39  1  0
 35  2  1  0
 34  7  1  0
 16 11  1  0
 29 25  1  0
M  END
>  <cnnaffinity>  (1) 
-6.41297

>  <filename>  (1) 
Fc1cccc(-c2nc(Cc3cscn3)n(Cc3cccnc3)n2)c1

$$$$
