
     RDKit          3D

 40 43  0  0  0  0  0  0  0  0999 V2000
   14.0482   -2.0743   21.2905 F   0  0  0  0  0  0  0  0  0  0  0  0
   13.2919   -1.1044   21.8196 C   0  0  0  0  0  0  0  0  0  0  0  0
   13.9309   -0.0912   22.5364 C   0  0  0  0  0  0  0  0  0  0  0  0
   13.1333    0.9217   23.0540 C   0  0  0  0  0  0  0  0  0  0  0  0
   13.7144    1.9267   23.7195 F   0  0  0  0  0  0  0  0  0  0  0  0
   11.7595    0.9362   22.8863 C   0  0  0  0  0  0  0  0  0  0  0  0
   11.1385   -0.0735   22.1247 C   0  0  0  0  0  0  0  0  0  0  0  0
    9.6688    0.0450   21.9303 C   0  0  0  0  0  0  0  0  0  0  0  0
    8.8607   -0.8836   21.4489 N   0  0  0  0  0  0  0  0  0  0  0  0
    7.6270   -0.3516   21.6620 N   0  0  0  0  0  0  0  0  0  0  0  0
    6.4314   -0.9392   21.0609 C   0  0  0  0  0  0  0  0  0  0  0  0
    5.9769   -0.1445   19.8564 C   0  0  0  0  0  0  0  0  0  0  0  0
    4.8184    0.6384   19.8330 C   0  0  0  0  0  0  0  0  0  0  0  0
    4.5822    1.4523   18.7206 C   0  0  0  0  0  0  0  0  0  0  0  0
    5.4957    1.4273   17.6646 C   0  0  0  0  0  0  0  0  0  0  0  0
    6.6076    0.6774   17.6633 N   0  0  0  0  0  0  0  0  0  0  0  0
    6.8378   -0.0680   18.7488 C   0  0  0  0  0  0  0  0  0  0  0  0
    7.7724   -0.6287   18.7607 H   0  0  0  0  0  0  0  0  0  0  0  0
    5.3335    2.0339   16.7766 H   0  0  0  0  0  0  0  0  0  0  0  0
    3.7208    2.1082   18.6678 H   0  0  0  0  0  0  0  0  0  0  0  0
    4.1128    0.6232   20.6663 H   0  0  0  0  0  0  0  0  0  0  0  0
    6.6990   -1.9684   20.8048 H   0  0  0  0  0  0  0  0  0  0  0  0
    5.6560   -0.9799   21.8291 H   0  0  0  0  0  0  0  0  0  0  0  0
    7.7586    0.8740   22.2079 C   0  0  0  0  0  0  0  0  0  0  0  0
    6.6821    1.6220   22.9269 C   0  0  0  0  0  0  0  0  0  0  0  0
    6.6693    1.0955   24.3254 C   0  0  0  0  0  0  0  0  0  0  0  0
    7.4257    1.3614   25.4213 C   0  0  0  0  0  0  0  0  0  0  0  0
    7.0867    0.3562   26.3919 C   0  0  0  0  0  0  0  0  0  0  0  0
    6.1425   -0.4218   25.8071 C   0  0  0  0  0  0  0  0  0  0  0  0
    5.9053    0.0036   24.5375 O   0  0  0  0  0  0  0  0  0  0  0  0
    5.5421   -1.2581   26.1363 H   0  0  0  0  0  0  0  0  0  0  0  0
    7.5170    0.2120   27.3740 H   0  0  0  0  0  0  0  0  0  0  0  0
    8.1376    2.1720   25.5177 H   0  0  0  0  0  0  0  0  0  0  0  0
    5.7093    1.4976   22.4485 H   0  0  0  0  0  0  0  0  0  0  0  0
    6.9600    2.6746   22.9316 H   0  0  0  0  0  0  0  0  0  0  0  0
    9.0258    1.1717   22.3543 N   0  0  0  0  0  0  0  0  0  0  0  0
   11.9147   -1.1254   21.5977 C   0  0  0  0  0  0  0  0  0  0  0  0
   11.4705   -1.9469   21.0437 H   0  0  0  0  0  0  0  0  0  0  0  0
   11.1635    1.7234   23.3350 H   0  0  0  0  0  0  0  0  0  0  0  0
   15.0035   -0.0375   22.6428 H   0  0  0  0  0  0  0  0  0  0  0  0
  1  2  1  0
  2  3  2  0
  3  4  1  0
  4  5  1  0
  4  6  2  0
  6  7  1  0
  7  8  1  0
  8  9  2  0
  9 10  1  0
 10 11  1  0
 11 12  1  0
 12 13  2  0
 13 14  1  0
 14 15  2  0
 15 16  1  0
 16 17  2  0
 17 18  1  0
 15 19  1  0
 14 20  1  0
 13 21  1  0
 11 22  1  0
 11 23  1  0
 10 24  1  0
 24 25  1  0
 25 26  1  0
 26 27  2  0
 27 28  1  0
 28 29  2  0
 29 30  1  0
 29 31  1  0
 28 32  1  0
 27 33  1  0
 25 34  1  0
 25 35  1  0
 24 36  2  0
  7 37  2  0
 37 38  1  0
  6 39  1  0
  3 40  1  0
 37  2  1  0
 36  8  1  0
 17 12  1  0
 30 26  1  0
M  END
>  <cnnaffinity>  (1) 
-6.37069

>  <filename>  (1) 
Fc1cc(F)cc(-c2nc(Cc3ccco3)n(Cc3cccnc3)n2)c1

$$$$
