
     RDKit          3D

 40 43  0  0  0  0  0  0  0  0999 V2000
   12.1118    1.9927   24.9007 F   0  0  0  0  0  0  0  0  0  0  0  0
   10.8549    1.9005   24.4535 C   0  0  0  0  0  0  0  0  0  0  0  0
    9.8460    1.5761   25.3499 C   0  0  0  0  0  0  0  0  0  0  0  0
    8.5454    1.4325   24.8596 C   0  0  0  0  0  0  0  0  0  0  0  0
    8.2447    1.5993   23.5024 C   0  0  0  0  0  0  0  0  0  0  0  0
    6.9276    1.0846   22.9248 C   0  0  0  0  0  0  0  0  0  0  0  0
    7.1512   -0.2386   22.2454 C   0  0  0  0  0  0  0  0  0  0  0  0
    7.6622   -1.2750   22.8846 N   0  0  0  0  0  0  0  0  0  0  0  0
    7.8661   -2.1836   21.9016 C   0  0  0  0  0  0  0  0  0  0  0  0
    8.4983   -3.5023   22.1561 C   0  0  0  0  0  0  0  0  0  0  0  0
    7.6138   -4.4666   22.9200 C   0  0  0  0  0  0  0  0  0  0  0  0
    7.5354   -4.3412   24.4113 C   0  0  0  0  0  0  0  0  0  0  0  0
    8.2716   -5.4908   23.7864 C   0  0  0  0  0  0  0  0  0  0  0  0
    7.8278   -6.4766   23.8356 H   0  0  0  0  0  0  0  0  0  0  0  0
    9.3553   -5.4946   23.8431 H   0  0  0  0  0  0  0  0  0  0  0  0
    8.1186   -3.5341   24.8557 H   0  0  0  0  0  0  0  0  0  0  0  0
    6.5974   -4.5406   24.9177 H   0  0  0  0  0  0  0  0  0  0  0  0
    6.6979   -4.7663   22.4063 H   0  0  0  0  0  0  0  0  0  0  0  0
    9.4083   -3.3055   22.7366 H   0  0  0  0  0  0  0  0  0  0  0  0
    8.7758   -3.9172   21.1863 H   0  0  0  0  0  0  0  0  0  0  0  0
    7.5046   -1.7921   20.7016 N   0  0  0  0  0  0  0  0  0  0  0  0
    6.9996   -0.5485   20.9199 N   0  0  0  0  0  0  0  0  0  0  0  0
    6.4261    0.1592   19.8327 C   0  0  0  0  0  0  0  0  0  0  0  0
    5.2290    0.8734   19.9457 C   0  0  0  0  0  0  0  0  0  0  0  0
    4.7241    1.4953   18.7979 C   0  0  0  0  0  0  0  0  0  0  0  0
    5.4229    1.3809   17.5941 C   0  0  0  0  0  0  0  0  0  0  0  0
    6.5657    0.6819   17.4768 N   0  0  0  0  0  0  0  0  0  0  0  0
    7.0493    0.0918   18.5725 C   0  0  0  0  0  0  0  0  0  0  0  0
    7.9840   -0.4565   18.4662 H   0  0  0  0  0  0  0  0  0  0  0  0
    5.0488    1.8549   16.6880 H   0  0  0  0  0  0  0  0  0  0  0  0
    3.8063    2.0702   18.8356 H   0  0  0  0  0  0  0  0  0  0  0  0
    4.7029    0.9320   20.8993 H   0  0  0  0  0  0  0  0  0  0  0  0
    6.5066    1.8142   22.2282 H   0  0  0  0  0  0  0  0  0  0  0  0
    6.2122    0.9175   23.7372 H   0  0  0  0  0  0  0  0  0  0  0  0
    9.2823    2.0504   22.6719 C   0  0  0  0  0  0  0  0  0  0  0  0
    8.9439    2.4750   21.0307 Cl  0  0  0  0  0  0  0  0  0  0  0  0
   10.6065    2.1559   23.1085 C   0  0  0  0  0  0  0  0  0  0  0  0
   11.4212    2.3863   22.4337 H   0  0  0  0  0  0  0  0  0  0  0  0
    7.7385    1.1542   25.5311 H   0  0  0  0  0  0  0  0  0  0  0  0
   10.0900    1.4038   26.3906 H   0  0  0  0  0  0  0  0  0  0  0  0
  1  2  1  0
  2  3  2  0
  3  4  1  0
  4  5  2  0
  5  6  1  0
  6  7  1  0
  7  8  2  0
  8  9  1  0
  9 10  1  0
 10 11  1  0
 11 12  1  0
 12 13  1  0
 13 14  1  0
 13 15  1  0
 12 16  1  0
 12 17  1  0
 11 18  1  0
 10 19  1  0
 10 20  1  0
  9 21  2  0
 21 22  1  0
 22 23  1  0
 23 24  2  0
 24 25  1  0
 25 26  2  0
 26 27  1  0
 27 28  2  0
 28 29  1  0
 26 30  1  0
 25 31  1  0
 24 32  1  0
  6 33  1  0
  6 34  1  0
  5 35  1  0
 35 36  1  0
 35 37  2  0
 37 38  1  0
  4 39  1  0
  3 40  1  0
 37  2  1  0
 22  7  1  0
 28 23  1  0
 13 11  1  0
M  END
>  <cnnaffinity>  (1) 
-5.96536

>  <filename>  (1) 
Fc1ccc(Cc2nc(CC3CC3)nn2-c2cccnc2)c(Cl)c1

$$$$
