
     RDKit          3D

 45 48  0  0  0  0  0  0  0  0999 V2000
    8.3989    6.0630   24.5369 F   0  0  0  0  0  0  0  0  0  0  0  0
    7.7095    5.4051   23.6041 C   0  0  0  0  0  0  0  0  0  0  0  0
    8.2804    4.2532   23.0595 C   0  0  0  0  0  0  0  0  0  0  0  0
    7.5788    3.5386   22.0805 C   0  0  0  0  0  0  0  0  0  0  0  0
    8.0302    2.3982   21.4854 O   0  0  0  0  0  0  0  0  0  0  0  0
    9.3177    1.8739   21.7987 C   0  0  0  0  0  0  0  0  0  0  0  0
    9.5153    0.5851   20.9959 C   0  0  0  0  0  0  0  0  0  0  0  0
    8.5939   -0.5031   21.4204 C   0  0  0  0  0  0  0  0  0  0  0  0
    8.8170   -1.3429   22.4092 N   0  0  0  0  0  0  0  0  0  0  0  0
    7.6320   -2.0023   22.5246 C   0  0  0  0  0  0  0  0  0  0  0  0
    7.4088   -3.0319   23.5762 C   0  0  0  0  0  0  0  0  0  0  0  0
    8.4460   -4.1789   23.6047 C   0  0  0  0  0  0  0  0  0  0  0  0
    8.4471   -4.6157   25.0752 C   0  0  0  0  0  0  0  0  0  0  0  0
    7.9089   -3.5350   25.8223 O   0  0  0  0  0  0  0  0  0  0  0  0
    7.5060   -2.4566   25.0026 C   0  0  0  0  0  0  0  0  0  0  0  0
    6.5435   -2.0902   25.3836 H   0  0  0  0  0  0  0  0  0  0  0  0
    8.2301   -1.6267   25.0668 H   0  0  0  0  0  0  0  0  0  0  0  0
    9.4555   -4.8482   25.4472 H   0  0  0  0  0  0  0  0  0  0  0  0
    7.8262   -5.5072   25.2512 H   0  0  0  0  0  0  0  0  0  0  0  0
    9.4315   -3.7985   23.3127 H   0  0  0  0  0  0  0  0  0  0  0  0
    8.1902   -5.0019   22.9317 H   0  0  0  0  0  0  0  0  0  0  0  0
    6.4041   -3.4299   23.4198 H   0  0  0  0  0  0  0  0  0  0  0  0
    6.7033   -1.6287   21.6726 N   0  0  0  0  0  0  0  0  0  0  0  0
    7.3355   -0.6786   20.9313 N   0  0  0  0  0  0  0  0  0  0  0  0
    6.6542    0.0105   19.8971 C   0  0  0  0  0  0  0  0  0  0  0  0
    5.4361    0.6444   20.1625 C   0  0  0  0  0  0  0  0  0  0  0  0
    4.8088    1.3080   19.1062 C   0  0  0  0  0  0  0  0  0  0  0  0
    5.3981    1.2950   17.8363 C   0  0  0  0  0  0  0  0  0  0  0  0
    6.5554    0.6697   17.5722 N   0  0  0  0  0  0  0  0  0  0  0  0
    7.1661    0.0536   18.5901 C   0  0  0  0  0  0  0  0  0  0  0  0
    8.1118   -0.4321   18.3612 H   0  0  0  0  0  0  0  0  0  0  0  0
    4.9212    1.7877   16.9937 H   0  0  0  0  0  0  0  0  0  0  0  0
    3.8790    1.8421   19.2551 H   0  0  0  0  0  0  0  0  0  0  0  0
    5.0206    0.6145   21.1747 H   0  0  0  0  0  0  0  0  0  0  0  0
    9.4037    0.7939   19.9333 H   0  0  0  0  0  0  0  0  0  0  0  0
   10.5346    0.2237   21.1401 H   0  0  0  0  0  0  0  0  0  0  0  0
    9.3819    1.6356   22.8682 H   0  0  0  0  0  0  0  0  0  0  0  0
   10.1086    2.5971   21.5527 H   0  0  0  0  0  0  0  0  0  0  0  0
    6.3170    4.0039   21.6704 C   0  0  0  0  0  0  0  0  0  0  0  0
    5.7668    5.1598   22.2281 C   0  0  0  0  0  0  0  0  0  0  0  0
    6.4567    5.8768   23.2074 C   0  0  0  0  0  0  0  0  0  0  0  0
    5.7675    7.3095   23.9008 Cl  0  0  0  0  0  0  0  0  0  0  0  0
    4.7976    5.5305   21.9090 H   0  0  0  0  0  0  0  0  0  0  0  0
    5.7852    3.4618   20.9021 H   0  0  0  0  0  0  0  0  0  0  0  0
    9.2586    3.9547   23.4148 H   0  0  0  0  0  0  0  0  0  0  0  0
  1  2  1  0
  2  3  2  0
  3  4  1  0
  4  5  1  0
  5  6  1  0
  6  7  1  0
  7  8  1  0
  8  9  2  0
  9 10  1  0
 10 11  1  0
 11 12  1  0
 12 13  1  0
 13 14  1  0
 14 15  1  0
 15 16  1  0
 15 17  1  0
 13 18  1  0
 13 19  1  0
 12 20  1  0
 12 21  1  0
 11 22  1  0
 10 23  2  0
 23 24  1  0
 24 25  1  0
 25 26  2  0
 26 27  1  0
 27 28  2  0
 28 29  1  0
 29 30  2  0
 30 31  1  0
 28 32  1  0
 27 33  1  0
 26 34  1  0
  7 35  1  0
  7 36  1  0
  6 37  1  0
  6 38  1  0
  4 39  2  0
 39 40  1  0
 40 41  2  0
 41 42  1  0
 40 43  1  0
 39 44  1  0
  3 45  1  0
 41  2  1  0
 24  8  1  0
 30 25  1  0
 15 11  1  0
M  END
>  <cnnaffinity>  (1) 
-6.04519

>  <filename>  (1) 
Fc1cc(OCCc2nc(C3CCOC3)nn2-c2cccnc2)ccc1Cl

$$$$
