
     RDKit          3D

 45 48  0  0  0  0  0  0  0  0999 V2000
    8.1467    3.4720   26.1480 F   0  0  0  0  0  0  0  0  0  0  0  0
    6.8622    3.0910   26.0092 C   0  0  0  0  0  0  0  0  0  0  0  0
    5.9005    3.7622   26.7613 C   0  0  0  0  0  0  0  0  0  0  0  0
    4.5623    3.3730   26.6413 C   0  0  0  0  0  0  0  0  0  0  0  0
    4.2029    2.3385   25.7734 C   0  0  0  0  0  0  0  0  0  0  0  0
    5.2054    1.7233   25.0291 C   0  0  0  0  0  0  0  0  0  0  0  0
    4.8426    0.7658   24.1528 F   0  0  0  0  0  0  0  0  0  0  0  0
    6.5640    2.0484   25.1243 C   0  0  0  0  0  0  0  0  0  0  0  0
    7.6065    1.3411   24.3007 C   0  0  0  0  0  0  0  0  0  0  0  0
    7.7086    1.8624   22.8430 C   0  0  0  0  0  0  0  0  0  0  0  0
    8.6628    1.0144   22.0867 C   0  0  0  0  0  0  0  0  0  0  0  0
    9.9776    1.0737   22.2030 N   0  0  0  0  0  0  0  0  0  0  0  0
   10.3845   -0.1168   21.6833 C   0  0  0  0  0  0  0  0  0  0  0  0
   11.8053   -0.5704   21.6356 C   0  0  0  0  0  0  0  0  0  0  0  0
   12.8754    0.1847   22.1722 C   0  0  0  0  0  0  0  0  0  0  0  0
   14.1794   -0.1745   21.8334 C   0  0  0  0  0  0  0  0  0  0  0  0
   14.3529   -1.2709   20.9877 C   0  0  0  0  0  0  0  0  0  0  0  0
   13.2561   -2.0408   20.6363 C   0  0  0  0  0  0  0  0  0  0  0  0
   12.0176   -1.7229   20.9821 N   0  0  0  0  0  0  0  0  0  0  0  0
   13.3665   -2.9039   19.9856 H   0  0  0  0  0  0  0  0  0  0  0  0
   15.2731   -1.5215   20.5022 H   0  0  0  0  0  0  0  0  0  0  0  0
   15.0205    0.4304   22.1725 H   0  0  0  0  0  0  0  0  0  0  0  0
   12.6998    1.0744   22.7609 H   0  0  0  0  0  0  0  0  0  0  0  0
    9.3941   -0.8712   21.2315 N   0  0  0  0  0  0  0  0  0  0  0  0
    8.3024   -0.1443   21.4883 N   0  0  0  0  0  0  0  0  0  0  0  0
    6.9999   -0.6729   21.0985 C   0  0  0  0  0  0  0  0  0  0  0  0
    6.3579    0.0646   19.9445 C   0  0  0  0  0  0  0  0  0  0  0  0
    5.1454    0.7478   20.0657 C   0  0  0  0  0  0  0  0  0  0  0  0
    4.6395    1.4230   18.9513 C   0  0  0  0  0  0  0  0  0  0  0  0
    5.3616    1.3792   17.7548 C   0  0  0  0  0  0  0  0  0  0  0  0
    6.5137    0.7065   17.6113 N   0  0  0  0  0  0  0  0  0  0  0  0
    6.9928    0.0761   18.6902 C   0  0  0  0  0  0  0  0  0  0  0  0
    7.9337   -0.4573   18.5557 H   0  0  0  0  0  0  0  0  0  0  0  0
    4.9975    1.9002   16.8707 H   0  0  0  0  0  0  0  0  0  0  0  0
    3.7166    1.9893   18.9980 H   0  0  0  0  0  0  0  0  0  0  0  0
    4.6128    0.7574   21.0211 H   0  0  0  0  0  0  0  0  0  0  0  0
    6.3421   -0.6797   21.9752 H   0  0  0  0  0  0  0  0  0  0  0  0
    7.2043   -1.7125   20.8201 H   0  0  0  0  0  0  0  0  0  0  0  0
    6.7345    1.8485   22.3433 H   0  0  0  0  0  0  0  0  0  0  0  0
    8.0710    2.8926   22.8350 H   0  0  0  0  0  0  0  0  0  0  0  0
    8.5925    1.4275   24.7766 H   0  0  0  0  0  0  0  0  0  0  0  0
    7.3749    0.2675   24.2712 H   0  0  0  0  0  0  0  0  0  0  0  0
    3.1768    2.0041   25.6555 H   0  0  0  0  0  0  0  0  0  0  0  0
    3.7972    3.8823   27.2219 H   0  0  0  0  0  0  0  0  0  0  0  0
    6.2200    4.5689   27.4109 H   0  0  0  0  0  0  0  0  0  0  0  0
  1  2  1  0
  2  3  2  0
  3  4  1  0
  4  5  2  0
  5  6  1  0
  6  7  1  0
  6  8  2  0
  8  9  1  0
  9 10  1  0
 10 11  1  0
 11 12  2  0
 12 13  1  0
 13 14  1  0
 14 15  2  0
 15 16  1  0
 16 17  2  0
 17 18  1  0
 18 19  2  0
 18 20  1  0
 17 21  1  0
 16 22  1  0
 15 23  1  0
 13 24  2  0
 24 25  1  0
 25 26  1  0
 26 27  1  0
 27 28  2  0
 28 29  1  0
 29 30  2  0
 30 31  1  0
 31 32  2  0
 32 33  1  0
 30 34  1  0
 29 35  1  0
 28 36  1  0
 26 37  1  0
 26 38  1  0
 10 39  1  0
 10 40  1  0
  9 41  1  0
  9 42  1  0
  5 43  1  0
  4 44  1  0
  3 45  1  0
  8  2  1  0
 25 11  1  0
 32 27  1  0
 19 14  1  0
M  END
>  <cnnaffinity>  (1) 
-6.69986

>  <filename>  (1) 
Fc1cccc(F)c1CCc1nc(-c2ccccn2)nn1Cc1cccnc1

$$$$
