
     RDKit          3D

 42 45  0  0  0  0  0  0  0  0999 V2000
   13.6982    1.8583   23.8814 F   0  0  0  0  0  0  0  0  0  0  0  0
   13.1225    0.8895   23.1623 C   0  0  0  0  0  0  0  0  0  0  0  0
   13.9048   -0.1509   22.6782 C   0  0  0  0  0  0  0  0  0  0  0  0
   13.2597   -1.1557   21.9608 C   0  0  0  0  0  0  0  0  0  0  0  0
   13.9860   -2.1944   21.5301 F   0  0  0  0  0  0  0  0  0  0  0  0
   11.8941   -1.1271   21.6695 C   0  0  0  0  0  0  0  0  0  0  0  0
   11.1309   -0.0478   22.1696 C   0  0  0  0  0  0  0  0  0  0  0  0
    9.6567    0.0606   21.9935 C   0  0  0  0  0  0  0  0  0  0  0  0
    8.8489   -0.8670   21.5075 N   0  0  0  0  0  0  0  0  0  0  0  0
    7.6158   -0.3325   21.7124 N   0  0  0  0  0  0  0  0  0  0  0  0
    6.4169   -0.8982   21.1001 C   0  0  0  0  0  0  0  0  0  0  0  0
    5.9870   -0.1245   19.8699 C   0  0  0  0  0  0  0  0  0  0  0  0
    4.8205    0.6487   19.8092 C   0  0  0  0  0  0  0  0  0  0  0  0
    4.6016    1.4443   18.6802 C   0  0  0  0  0  0  0  0  0  0  0  0
    5.5368    1.4098   17.6426 C   0  0  0  0  0  0  0  0  0  0  0  0
    6.6525    0.6648   17.6743 N   0  0  0  0  0  0  0  0  0  0  0  0
    6.8625   -0.0671   18.7734 C   0  0  0  0  0  0  0  0  0  0  0  0
    7.7864   -0.6465   18.8023 H   0  0  0  0  0  0  0  0  0  0  0  0
    5.3921    2.0062   16.7440 H   0  0  0  0  0  0  0  0  0  0  0  0
    3.7334    2.0900   18.5949 H   0  0  0  0  0  0  0  0  0  0  0  0
    4.0916    0.6375   20.6243 H   0  0  0  0  0  0  0  0  0  0  0  0
    6.6475   -1.9448   20.8809 H   0  0  0  0  0  0  0  0  0  0  0  0
    5.6364   -0.8794   21.8606 H   0  0  0  0  0  0  0  0  0  0  0  0
    7.7431    0.8834   22.2863 C   0  0  0  0  0  0  0  0  0  0  0  0
    6.6696    1.6344   22.9989 C   0  0  0  0  0  0  0  0  0  0  0  0
    6.6376    1.0685   24.3932 C   0  0  0  0  0  0  0  0  0  0  0  0
    7.5568    1.4885   25.3664 C   0  0  0  0  0  0  0  0  0  0  0  0
    7.6533    0.7759   26.5631 C   0  0  0  0  0  0  0  0  0  0  0  0
    6.7755   -0.2980   26.7568 C   0  0  0  0  0  0  0  0  0  0  0  0
    5.8427   -0.5864   25.7598 C   0  0  0  0  0  0  0  0  0  0  0  0
    5.7878    0.0566   24.5829 N   0  0  0  0  0  0  0  0  0  0  0  0
    5.0906   -1.3589   25.9064 H   0  0  0  0  0  0  0  0  0  0  0  0
    6.8175   -0.9203   27.6433 H   0  0  0  0  0  0  0  0  0  0  0  0
    8.3950    1.0347   27.3194 H   0  0  0  0  0  0  0  0  0  0  0  0
    8.2033    2.3307   25.1421 H   0  0  0  0  0  0  0  0  0  0  0  0
    6.9485    2.6894   23.0075 H   0  0  0  0  0  0  0  0  0  0  0  0
    5.7034    1.5148   22.5095 H   0  0  0  0  0  0  0  0  0  0  0  0
    9.0109    1.1782   22.4361 N   0  0  0  0  0  0  0  0  0  0  0  0
   11.7579    0.9628   22.9255 C   0  0  0  0  0  0  0  0  0  0  0  0
   11.1857    1.7943   23.3270 H   0  0  0  0  0  0  0  0  0  0  0  0
   11.4660   -1.9456   21.0991 H   0  0  0  0  0  0  0  0  0  0  0  0
   14.9683   -0.1611   22.8553 H   0  0  0  0  0  0  0  0  0  0  0  0
  1  2  1  0
  2  3  2  0
  3  4  1  0
  4  5  1  0
  4  6  2  0
  6  7  1  0
  7  8  1  0
  8  9  2  0
  9 10  1  0
 10 11  1  0
 11 12  1  0
 12 13  2  0
 13 14  1  0
 14 15  2  0
 15 16  1  0
 16 17  2  0
 17 18  1  0
 15 19  1  0
 14 20  1  0
 13 21  1  0
 11 22  1  0
 11 23  1  0
 10 24  1  0
 24 25  1  0
 25 26  1  0
 26 27  2  0
 27 28  1  0
 28 29  2  0
 29 30  1  0
 30 31  2  0
 30 32  1  0
 29 33  1  0
 28 34  1  0
 27 35  1  0
 25 36  1  0
 25 37  1  0
 24 38  2  0
  7 39  2  0
 39 40  1  0
  6 41  1  0
  3 42  1  0
 39  2  1  0
 38  8  1  0
 17 12  1  0
 31 26  1  0
M  END
>  <cnnaffinity>  (1) 
-6.47796

>  <filename>  (1) 
Fc1cc(F)cc(-c2nc(Cc3ccccn3)n(Cc3cccnc3)n2)c1

$$$$
