
     RDKit          3D

 39 42  0  0  0  0  0  0  0  0999 V2000
   14.4292   -1.8779   21.0811 F   0  0  0  0  0  0  0  0  0  0  0  0
   13.6075   -1.0382   21.7232 C   0  0  0  0  0  0  0  0  0  0  0  0
   14.1304   -0.0207   22.5350 C   0  0  0  0  0  0  0  0  0  0  0  0
   13.3477    0.8124   23.2275 N   0  0  0  0  0  0  0  0  0  0  0  0
   12.0271    0.7247   23.0557 C   0  0  0  0  0  0  0  0  0  0  0  0
   11.4274   -0.2091   22.1905 C   0  0  0  0  0  0  0  0  0  0  0  0
    9.9830   -0.0616   22.0206 C   0  0  0  0  0  0  0  0  0  0  0  0
    9.1397   -0.9285   21.4984 N   0  0  0  0  0  0  0  0  0  0  0  0
    7.9385   -0.3073   21.6537 N   0  0  0  0  0  0  0  0  0  0  0  0
    6.7153   -0.8668   21.0890 C   0  0  0  0  0  0  0  0  0  0  0  0
    6.2084   -0.0630   19.9124 C   0  0  0  0  0  0  0  0  0  0  0  0
    5.0229    0.6764   19.9523 C   0  0  0  0  0  0  0  0  0  0  0  0
    4.6621    1.4359   18.8366 C   0  0  0  0  0  0  0  0  0  0  0  0
    5.5071    1.4317   17.7242 C   0  0  0  0  0  0  0  0  0  0  0  0
    6.6580    0.7448   17.6728 N   0  0  0  0  0  0  0  0  0  0  0  0
    6.9943    0.0307   18.7527 C   0  0  0  0  0  0  0  0  0  0  0  0
    7.9553   -0.4805   18.7095 H   0  0  0  0  0  0  0  0  0  0  0  0
    5.2593    2.0138   16.8390 H   0  0  0  0  0  0  0  0  0  0  0  0
    3.7589    2.0346   18.8210 H   0  0  0  0  0  0  0  0  0  0  0  0
    4.3986    0.6777   20.8481 H   0  0  0  0  0  0  0  0  0  0  0  0
    5.9581   -0.9065   21.8771 H   0  0  0  0  0  0  0  0  0  0  0  0
    6.9351   -1.9027   20.8146 H   0  0  0  0  0  0  0  0  0  0  0  0
    8.1344    0.9083   22.2109 C   0  0  0  0  0  0  0  0  0  0  0  0
    7.1095    1.8182   22.8296 C   0  0  0  0  0  0  0  0  0  0  0  0
    6.8259    1.3677   24.2493 C   0  0  0  0  0  0  0  0  0  0  0  0
    5.8116    0.5566   24.6429 C   0  0  0  0  0  0  0  0  0  0  0  0
    6.0190   -0.0556   25.9153 C   0  0  0  0  0  0  0  0  0  0  0  0
    7.1789    0.3652   26.4914 C   0  0  0  0  0  0  0  0  0  0  0  0
    8.0076    1.5132   25.5090 S   0  0  0  0  0  0  0  0  0  0  0  0
    7.6285    0.0390   27.4210 H   0  0  0  0  0  0  0  0  0  0  0  0
    5.3439   -0.7837   26.3539 H   0  0  0  0  0  0  0  0  0  0  0  0
    4.9351    0.4265   24.0236 H   0  0  0  0  0  0  0  0  0  0  0  0
    6.1933    1.8299   22.2349 H   0  0  0  0  0  0  0  0  0  0  0  0
    7.5477    2.8176   22.8053 H   0  0  0  0  0  0  0  0  0  0  0  0
    9.4086    1.0953   22.4338 N   0  0  0  0  0  0  0  0  0  0  0  0
   12.2334   -1.1592   21.5430 C   0  0  0  0  0  0  0  0  0  0  0  0
   11.8302   -1.9590   20.9196 H   0  0  0  0  0  0  0  0  0  0  0  0
   11.4150    1.4260   23.6170 H   0  0  0  0  0  0  0  0  0  0  0  0
   15.1991    0.1516   22.6069 H   0  0  0  0  0  0  0  0  0  0  0  0
  1  2  1  0
  2  3  2  0
  3  4  1  0
  4  5  2  0
  5  6  1  0
  6  7  1  0
  7  8  2  0
  8  9  1  0
  9 10  1  0
 10 11  1  0
 11 12  2  0
 12 13  1  0
 13 14  2  0
 14 15  1  0
 15 16  2  0
 16 17  1  0
 14 18  1  0
 13 19  1  0
 12 20  1  0
 10 21  1  0
 10 22  1  0
  9 23  1  0
 23 24  1  0
 24 25  1  0
 25 26  2  0
 26 27  1  0
 27 28  2  0
 28 29  1  0
 28 30  1  0
 27 31  1  0
 26 32  1  0
 24 33  1  0
 24 34  1  0
 23 35  2  0
  6 36  2  0
 36 37  1  0
  5 38  1  0
  3 39  1  0
 36  2  1  0
 35  7  1  0
 16 11  1  0
 29 25  1  0
M  END
>  <cnnaffinity>  (1) 
-6.49772

>  <filename>  (1) 
Fc1cncc(-c2nc(Cc3cccs3)n(Cc3cccnc3)n2)c1

$$$$
