
     RDKit          3D

 39 41  0  0  0  0  0  0  0  0999 V2000
    4.9077    1.7857   16.9897 H   0  0  0  0  0  0  0  0  0  0  0  0
    5.3953    1.2991   17.8300 C   0  0  0  0  0  0  0  0  0  0  0  0
    6.5605    0.6849   17.5612 N   0  0  0  0  0  0  0  0  0  0  0  0
    7.1747    0.0788   18.5834 C   0  0  0  0  0  0  0  0  0  0  0  0
    8.1164   -0.4247   18.3704 H   0  0  0  0  0  0  0  0  0  0  0  0
    6.6700    0.0061   19.9064 C   0  0  0  0  0  0  0  0  0  0  0  0
    7.3700   -0.7184   20.8918 N   0  0  0  0  0  0  0  0  0  0  0  0
    8.6966   -0.2703   21.3068 C   0  0  0  0  0  0  0  0  0  0  0  0
    8.6599    0.4321   22.1612 H   0  0  0  0  0  0  0  0  0  0  0  0
    9.1481    0.2943   20.4851 H   0  0  0  0  0  0  0  0  0  0  0  0
    9.5698   -1.4799   21.6380 C   0  0  0  0  0  0  0  0  0  0  0  0
    9.7503   -2.0402   20.7126 H   0  0  0  0  0  0  0  0  0  0  0  0
   10.5479   -1.1423   21.9989 H   0  0  0  0  0  0  0  0  0  0  0  0
    8.9029   -2.4043   22.6702 C   0  0  0  0  0  0  0  0  0  0  0  0
    9.4998   -3.3235   22.7276 H   0  0  0  0  0  0  0  0  0  0  0  0
    8.8985   -1.7753   24.0822 C   0  0  0  0  0  0  0  0  0  0  0  0
    8.2750   -0.8732   24.1004 H   0  0  0  0  0  0  0  0  0  0  0  0
    9.9153   -1.4396   24.3197 H   0  0  0  0  0  0  0  0  0  0  0  0
    8.4354   -2.7344   25.1528 C   0  0  0  0  0  0  0  0  0  0  0  0
    9.2925   -3.7533   25.6008 C   0  0  0  0  0  0  0  0  0  0  0  0
   10.2971   -3.8232   25.1867 H   0  0  0  0  0  0  0  0  0  0  0  0
    8.8643   -4.6722   26.5597 C   0  0  0  0  0  0  0  0  0  0  0  0
    9.5389   -5.4524   26.9021 H   0  0  0  0  0  0  0  0  0  0  0  0
    7.5689   -4.5993   27.0832 C   0  0  0  0  0  0  0  0  0  0  0  0
    7.2117   -5.3011   27.8291 H   0  0  0  0  0  0  0  0  0  0  0  0
    6.7249   -3.5922   26.6202 C   0  0  0  0  0  0  0  0  0  0  0  0
    5.4759   -3.5144   27.1119 F   0  0  0  0  0  0  0  0  0  0  0  0
    7.1312   -2.6634   25.6664 C   0  0  0  0  0  0  0  0  0  0  0  0
    6.4270   -1.9054   25.3278 H   0  0  0  0  0  0  0  0  0  0  0  0
    7.4952   -2.7870   22.1770 C   0  0  0  0  0  0  0  0  0  0  0  0
    6.9691   -3.3991   22.9157 H   0  0  0  0  0  0  0  0  0  0  0  0
    7.5835   -3.3977   21.2714 H   0  0  0  0  0  0  0  0  0  0  0  0
    6.6467   -1.5588   21.8360 C   0  0  0  0  0  0  0  0  0  0  0  0
    5.7147   -1.8837   21.3600 H   0  0  0  0  0  0  0  0  0  0  0  0
    6.3497   -1.0209   22.7575 H   0  0  0  0  0  0  0  0  0  0  0  0
    5.4409    0.6452   20.1574 C   0  0  0  0  0  0  0  0  0  0  0  0
    5.0210    0.6187   21.1670 H   0  0  0  0  0  0  0  0  0  0  0  0
    4.8076    1.3125   19.1030 C   0  0  0  0  0  0  0  0  0  0  0  0
    3.8722    1.8428   19.2601 H   0  0  0  0  0  0  0  0  0  0  0  0
  1  2  1  0
  2  3  2  0
  3  4  1  0
  4  5  1  0
  4  6  2  0
  6  7  1  0
  7  8  1  0
  8  9  1  0
  8 10  1  0
  8 11  1  0
 11 12  1  0
 11 13  1  0
 11 14  1  0
 14 15  1  0
 14 16  1  0
 16 17  1  0
 16 18  1  0
 16 19  1  0
 19 20  2  0
 20 21  1  0
 20 22  1  0
 22 23  1  0
 22 24  2  0
 24 25  1  0
 24 26  1  0
 26 27  1  0
 26 28  2  0
 28 29  1  0
 14 30  1  0
 30 31  1  0
 30 32  1  0
 30 33  1  0
 33 34  1  0
 33 35  1  0
  6 36  1  0
 36 37  1  0
 36 38  2  0
 38 39  1  0
 38  2  1  0
 33  7  1  0
 28 19  1  0
M  END
>  <cnnaffinity>  (1) 
-5.58533

>  <filename>  (1) 
Fc1cccc(CC2CCN(c3cccnc3)CC2)c1

$$$$
