
     RDKit          3D

 45 48  0  0  0  0  0  0  0  0999 V2000
   10.0047   -1.4279   23.9728 F   0  0  0  0  0  0  0  0  0  0  0  0
   11.0444   -0.5770   23.9589 C   0  0  0  0  0  0  0  0  0  0  0  0
   11.6647   -0.2803   25.1707 C   0  0  0  0  0  0  0  0  0  0  0  0
   12.8397    0.4771   25.1376 C   0  0  0  0  0  0  0  0  0  0  0  0
   13.2495    1.1025   23.9644 C   0  0  0  0  0  0  0  0  0  0  0  0
   12.5034    0.8784   22.8188 C   0  0  0  0  0  0  0  0  0  0  0  0
   12.7687    1.6345   21.7395 F   0  0  0  0  0  0  0  0  0  0  0  0
   11.4947   -0.0861   22.7253 C   0  0  0  0  0  0  0  0  0  0  0  0
   10.8547   -0.3849   21.3864 C   0  0  0  0  0  0  0  0  0  0  0  0
    9.9905    0.8301   20.9494 C   0  0  0  0  0  0  0  0  0  0  0  0
    8.8828    1.0867   21.9176 C   0  0  0  0  0  0  0  0  0  0  0  0
    8.8805    1.9383   22.9291 N   0  0  0  0  0  0  0  0  0  0  0  0
    7.7945    1.5554   23.6571 C   0  0  0  0  0  0  0  0  0  0  0  0
    7.4264    2.1818   24.9720 C   0  0  0  0  0  0  0  0  0  0  0  0
    8.2903    3.0905   25.6224 C   0  0  0  0  0  0  0  0  0  0  0  0
    7.8934    3.6587   26.8366 C   0  0  0  0  0  0  0  0  0  0  0  0
    6.7291    3.3864   27.4426 N   0  0  0  0  0  0  0  0  0  0  0  0
    5.9162    2.5063   26.8403 C   0  0  0  0  0  0  0  0  0  0  0  0
    6.2095    1.8805   25.6250 C   0  0  0  0  0  0  0  0  0  0  0  0
    5.5028    1.1671   25.2055 H   0  0  0  0  0  0  0  0  0  0  0  0
    4.9781    2.2870   27.3507 H   0  0  0  0  0  0  0  0  0  0  0  0
    8.5425    4.3752   27.3395 H   0  0  0  0  0  0  0  0  0  0  0  0
    9.2549    3.3599   25.1958 H   0  0  0  0  0  0  0  0  0  0  0  0
    7.1120    0.5554   23.1156 N   0  0  0  0  0  0  0  0  0  0  0  0
    7.8302    0.2494   22.0127 N   0  0  0  0  0  0  0  0  0  0  0  0
    7.3340   -0.7008   21.0225 C   0  0  0  0  0  0  0  0  0  0  0  0
    6.6395   -0.0178   19.8643 C   0  0  0  0  0  0  0  0  0  0  0  0
    5.4389    0.6581   20.1084 C   0  0  0  0  0  0  0  0  0  0  0  0
    4.8151    1.3177   19.0514 C   0  0  0  0  0  0  0  0  0  0  0  0
    5.4220    1.2938   17.7926 C   0  0  0  0  0  0  0  0  0  0  0  0
    6.5698    0.6464   17.5383 N   0  0  0  0  0  0  0  0  0  0  0  0
    7.1533    0.0081   18.5610 C   0  0  0  0  0  0  0  0  0  0  0  0
    8.0773   -0.5231   18.3218 H   0  0  0  0  0  0  0  0  0  0  0  0
    4.9676    1.8142   16.9516 H   0  0  0  0  0  0  0  0  0  0  0  0
    3.8824    1.8533   19.1936 H   0  0  0  0  0  0  0  0  0  0  0  0
    5.0170    0.6622   21.1155 H   0  0  0  0  0  0  0  0  0  0  0  0
    8.1766   -1.3093   20.6704 H   0  0  0  0  0  0  0  0  0  0  0  0
    6.6361   -1.3511   21.5566 H   0  0  0  0  0  0  0  0  0  0  0  0
   10.6223    1.7191   20.9005 H   0  0  0  0  0  0  0  0  0  0  0  0
    9.5764    0.6735   19.9502 H   0  0  0  0  0  0  0  0  0  0  0  0
   11.6329   -0.5727   20.6379 H   0  0  0  0  0  0  0  0  0  0  0  0
   10.2521   -1.3011   21.4545 H   0  0  0  0  0  0  0  0  0  0  0  0
   14.1005    1.7661   23.9073 H   0  0  0  0  0  0  0  0  0  0  0  0
   13.4566    0.5677   26.0198 H   0  0  0  0  0  0  0  0  0  0  0  0
   11.2283   -0.6406   26.0915 H   0  0  0  0  0  0  0  0  0  0  0  0
  1  2  1  0
  2  3  2  0
  3  4  1  0
  4  5  2  0
  5  6  1  0
  6  7  1  0
  6  8  2  0
  8  9  1  0
  9 10  1  0
 10 11  1  0
 11 12  2  0
 12 13  1  0
 13 14  1  0
 14 15  2  0
 15 16  1  0
 16 17  2  0
 17 18  1  0
 18 19  2  0
 19 20  1  0
 18 21  1  0
 16 22  1  0
 15 23  1  0
 13 24  2  0
 24 25  1  0
 25 26  1  0
 26 27  1  0
 27 28  2  0
 28 29  1  0
 29 30  2  0
 30 31  1  0
 31 32  2  0
 32 33  1  0
 30 34  1  0
 29 35  1  0
 28 36  1  0
 26 37  1  0
 26 38  1  0
 10 39  1  0
 10 40  1  0
  9 41  1  0
  9 42  1  0
  5 43  1  0
  4 44  1  0
  3 45  1  0
  8  2  1  0
 25 11  1  0
 32 27  1  0
 19 14  1  0
M  END
>  <cnnaffinity>  (1) 
-6.26048

>  <filename>  (1) 
Fc1cccc(F)c1CCc1nc(-c2ccncc2)nn1Cc1cccnc1

$$$$
