
     RDKit          3D

 41 44  0  0  0  0  0  0  0  0999 V2000
   13.1261    3.0054   22.1688 F   0  0  0  0  0  0  0  0  0  0  0  0
   11.8828    2.6232   22.4808 C   0  0  0  0  0  0  0  0  0  0  0  0
   10.9292    2.5043   21.4836 C   0  0  0  0  0  0  0  0  0  0  0  0
    9.6197    2.1437   21.8383 C   0  0  0  0  0  0  0  0  0  0  0  0
    9.2692    1.9334   23.1803 C   0  0  0  0  0  0  0  0  0  0  0  0
    8.0147    1.6610   23.6455 O   0  0  0  0  0  0  0  0  0  0  0  0
    6.9946    1.1876   22.7800 C   0  0  0  0  0  0  0  0  0  0  0  0
    7.2243   -0.1877   22.2287 C   0  0  0  0  0  0  0  0  0  0  0  0
    7.7472   -1.2226   22.8648 N   0  0  0  0  0  0  0  0  0  0  0  0
    7.8377   -2.1663   21.8913 C   0  0  0  0  0  0  0  0  0  0  0  0
    8.4410   -3.5117   22.1102 C   0  0  0  0  0  0  0  0  0  0  0  0
    7.5572   -4.4970   22.8610 C   0  0  0  0  0  0  0  0  0  0  0  0
    8.2428   -5.3935   23.8467 C   0  0  0  0  0  0  0  0  0  0  0  0
    7.3563   -4.2807   24.3317 C   0  0  0  0  0  0  0  0  0  0  0  0
    7.7954   -3.3810   24.7608 H   0  0  0  0  0  0  0  0  0  0  0  0
    6.4078   -4.5631   24.7775 H   0  0  0  0  0  0  0  0  0  0  0  0
    9.3163   -5.2868   23.9572 H   0  0  0  0  0  0  0  0  0  0  0  0
    7.8949   -6.4135   23.9747 H   0  0  0  0  0  0  0  0  0  0  0  0
    6.7068   -4.8878   22.2995 H   0  0  0  0  0  0  0  0  0  0  0  0
    8.7059   -3.9129   21.1317 H   0  0  0  0  0  0  0  0  0  0  0  0
    9.3708   -3.3565   22.6697 H   0  0  0  0  0  0  0  0  0  0  0  0
    7.4080   -1.7826   20.7116 N   0  0  0  0  0  0  0  0  0  0  0  0
    6.9636   -0.5197   20.9313 N   0  0  0  0  0  0  0  0  0  0  0  0
    6.3836    0.1986   19.8501 C   0  0  0  0  0  0  0  0  0  0  0  0
    5.1991    0.9480   19.9390 C   0  0  0  0  0  0  0  0  0  0  0  0
    4.7147    1.5439   18.7660 C   0  0  0  0  0  0  0  0  0  0  0  0
    5.4241    1.3927   17.5726 C   0  0  0  0  0  0  0  0  0  0  0  0
    6.5550    0.6722   17.4828 N   0  0  0  0  0  0  0  0  0  0  0  0
    7.0121    0.0955   18.5933 C   0  0  0  0  0  0  0  0  0  0  0  0
    7.9421   -0.4613   18.5129 H   0  0  0  0  0  0  0  0  0  0  0  0
    5.0671    1.8504   16.6499 H   0  0  0  0  0  0  0  0  0  0  0  0
    3.8040    2.1326   18.7732 H   0  0  0  0  0  0  0  0  0  0  0  0
    4.6694    1.0646   20.8845 H   0  0  0  0  0  0  0  0  0  0  0  0
    6.8242    1.9072   21.9702 H   0  0  0  0  0  0  0  0  0  0  0  0
    6.1097    1.1699   23.4178 H   0  0  0  0  0  0  0  0  0  0  0  0
   10.2857    2.0595   24.1551 C   0  0  0  0  0  0  0  0  0  0  0  0
    9.9916    1.8763   25.4496 F   0  0  0  0  0  0  0  0  0  0  0  0
   11.5930    2.3761   23.8216 C   0  0  0  0  0  0  0  0  0  0  0  0
   12.3583    2.4233   24.5837 H   0  0  0  0  0  0  0  0  0  0  0  0
    8.8651    2.0329   21.0664 H   0  0  0  0  0  0  0  0  0  0  0  0
   11.2086    2.7249   20.4572 H   0  0  0  0  0  0  0  0  0  0  0  0
  1  2  1  0
  2  3  2  0
  3  4  1  0
  4  5  2  0
  5  6  1  0
  6  7  1  0
  7  8  1  0
  8  9  2  0
  9 10  1  0
 10 11  1  0
 11 12  1  0
 12 13  1  0
 13 14  1  0
 14 15  1  0
 14 16  1  0
 13 17  1  0
 13 18  1  0
 12 19  1  0
 11 20  1  0
 11 21  1  0
 10 22  2  0
 22 23  1  0
 23 24  1  0
 24 25  2  0
 25 26  1  0
 26 27  2  0
 27 28  1  0
 28 29  2  0
 29 30  1  0
 27 31  1  0
 26 32  1  0
 25 33  1  0
  7 34  1  0
  7 35  1  0
  5 36  1  0
 36 37  1  0
 36 38  2  0
 38 39  1  0
  4 40  1  0
  3 41  1  0
 38  2  1  0
 23  8  1  0
 29 24  1  0
 14 12  1  0
M  END
>  <cnnaffinity>  (1) 
-5.95025

>  <filename>  (1) 
Fc1ccc(OCc2nc(CC3CC3)nn2-c2cccnc2)c(F)c1

$$$$
