
     RDKit          3D

 47 51  0  0  0  0  0  0  0  0999 V2000
   14.9776   -1.4151   20.3782 F   0  0  0  0  0  0  0  0  0  0  0  0
   13.8389   -1.2508   21.0499 C   0  0  0  0  0  0  0  0  0  0  0  0
   13.7178   -0.2818   22.0476 C   0  0  0  0  0  0  0  0  0  0  0  0
   12.4374    0.0316   22.5164 C   0  0  0  0  0  0  0  0  0  0  0  0
   11.3133   -0.6466   22.0080 C   0  0  0  0  0  0  0  0  0  0  0  0
    9.9300   -0.1876   22.2262 C   0  0  0  0  0  0  0  0  0  0  0  0
    8.9062   -0.9228   21.8153 N   0  0  0  0  0  0  0  0  0  0  0  0
    7.8309   -0.1564   22.0886 N   0  0  0  0  0  0  0  0  0  0  0  0
    6.5422   -0.4985   21.4930 C   0  0  0  0  0  0  0  0  0  0  0  0
    6.2396    0.2315   20.1971 C   0  0  0  0  0  0  0  0  0  0  0  0
    5.0480    0.9306   19.9753 C   0  0  0  0  0  0  0  0  0  0  0  0
    4.8554    1.5485   18.7360 C   0  0  0  0  0  0  0  0  0  0  0  0
    5.8576    1.4438   17.7690 C   0  0  0  0  0  0  0  0  0  0  0  0
    7.0038    0.7756   17.9605 N   0  0  0  0  0  0  0  0  0  0  0  0
    7.1807    0.1976   19.1512 C   0  0  0  0  0  0  0  0  0  0  0  0
    8.1206   -0.3321   19.2995 H   0  0  0  0  0  0  0  0  0  0  0  0
    5.7412    1.9094   16.7927 H   0  0  0  0  0  0  0  0  0  0  0  0
    3.9563    2.1093   18.5093 H   0  0  0  0  0  0  0  0  0  0  0  0
    4.2789    0.9980   20.7516 H   0  0  0  0  0  0  0  0  0  0  0  0
    6.5759   -1.5821   21.3427 H   0  0  0  0  0  0  0  0  0  0  0  0
    5.7822   -0.3005   22.2474 H   0  0  0  0  0  0  0  0  0  0  0  0
    8.2521    1.0005   22.6429 C   0  0  0  0  0  0  0  0  0  0  0  0
    7.3047    2.0231   23.1978 C   0  0  0  0  0  0  0  0  0  0  0  0
    6.8633    1.6577   24.5912 C   0  0  0  0  0  0  0  0  0  0  0  0
    7.4999    1.7659   25.8000 C   0  0  0  0  0  0  0  0  0  0  0  0
    6.8535    1.0332   26.7540 N   0  0  0  0  0  0  0  0  0  0  0  0
    5.8365    0.4634   26.1544 C   0  0  0  0  0  0  0  0  0  0  0  0
    4.9328   -0.4839   26.8294 C   0  0  0  0  0  0  0  0  0  0  0  0
    3.4976   -0.7410   26.4336 C   0  0  0  0  0  0  0  0  0  0  0  0
    4.5187   -1.8102   26.2257 C   0  0  0  0  0  0  0  0  0  0  0  0
    4.5182   -2.6764   26.8820 H   0  0  0  0  0  0  0  0  0  0  0  0
    4.8346   -2.0279   25.2072 H   0  0  0  0  0  0  0  0  0  0  0  0
    3.0997   -0.2332   25.5558 H   0  0  0  0  0  0  0  0  0  0  0  0
    2.7741   -0.8631   27.2352 H   0  0  0  0  0  0  0  0  0  0  0  0
    5.1615   -0.4869   27.8932 H   0  0  0  0  0  0  0  0  0  0  0  0
    5.7957    0.8194   24.8327 N   0  0  0  0  0  0  0  0  0  0  0  0
    5.0039    0.6555   24.2330 H   0  0  0  0  0  0  0  0  0  0  0  0
    8.4049    2.3154   26.0383 H   0  0  0  0  0  0  0  0  0  0  0  0
    6.4498    2.1253   22.5195 H   0  0  0  0  0  0  0  0  0  0  0  0
    7.8336    2.9772   23.1912 H   0  0  0  0  0  0  0  0  0  0  0  0
    9.5687    1.0191   22.7378 N   0  0  0  0  0  0  0  0  0  0  0  0
   11.5077   -1.7347   21.1430 C   0  0  0  0  0  0  0  0  0  0  0  0
   12.7611   -1.9950   20.6113 C   0  0  0  0  0  0  0  0  0  0  0  0
   12.9493   -2.7200   19.8282 H   0  0  0  0  0  0  0  0  0  0  0  0
   10.6438   -2.3157   20.8259 H   0  0  0  0  0  0  0  0  0  0  0  0
   12.2850    0.7985   23.2716 H   0  0  0  0  0  0  0  0  0  0  0  0
   14.5937    0.2743   22.3563 H   0  0  0  0  0  0  0  0  0  0  0  0
  1  2  1  0
  2  3  2  0
  3  4  1  0
  4  5  2  0
  5  6  1  0
  6  7  2  0
  7  8  1  0
  8  9  1  0
  9 10  1  0
 10 11  2  0
 11 12  1  0
 12 13  2  0
 13 14  1  0
 14 15  2  0
 15 16  1  0
 13 17  1  0
 12 18  1  0
 11 19  1  0
  9 20  1  0
  9 21  1  0
  8 22  1  0
 22 23  1  0
 23 24  1  0
 24 25  2  0
 25 26  1  0
 26 27  2  0
 27 28  1  0
 28 29  1  0
 29 30  1  0
 30 31  1  0
 30 32  1  0
 29 33  1  0
 29 34  1  0
 28 35  1  0
 27 36  1  0
 36 37  1  0
 25 38  1  0
 23 39  1  0
 23 40  1  0
 22 41  2  0
  5 42  1  0
 42 43  2  0
 43 44  1  0
 42 45  1  0
  4 46  1  0
  3 47  1  0
 43  2  1  0
 41  6  1  0
 15 10  1  0
 36 24  1  0
 30 28  1  0
M  END
>  <cnnaffinity>  (1) 
-6.70635

>  <filename>  (1) 
Fc1ccc(-c2nc(Cc3cnc(C4CC4)[nH]3)n(Cc3cccnc3)n2)cc1

$$$$
