
     RDKit          3D

 40 44  0  0  0  0  0  0  0  0999 V2000
   12.2873   -0.2809   21.8635 F   0  0  0  0  0  0  0  0  0  0  0  0
   11.6153    0.7555   22.3927 C   0  0  0  0  0  0  0  0  0  0  0  0
   12.1809    1.4479   23.4652 C   0  0  0  0  0  0  0  0  0  0  0  0
   11.5737    2.4939   24.0406 N   0  0  0  0  0  0  0  0  0  0  0  0
   10.3872    2.8839   23.5531 C   0  0  0  0  0  0  0  0  0  0  0  0
    9.7582    2.2229   22.4885 C   0  0  0  0  0  0  0  0  0  0  0  0
    8.1975    2.7749   21.9627 Cl  0  0  0  0  0  0  0  0  0  0  0  0
   10.3653    1.1135   21.8763 C   0  0  0  0  0  0  0  0  0  0  0  0
    9.6703    0.2876   20.8168 C   0  0  0  0  0  0  0  0  0  0  0  0
    8.5842   -0.5647   21.3869 C   0  0  0  0  0  0  0  0  0  0  0  0
    8.7764   -1.3759   22.4113 N   0  0  0  0  0  0  0  0  0  0  0  0
    7.5889   -2.0156   22.5302 C   0  0  0  0  0  0  0  0  0  0  0  0
    7.2259   -3.0284   23.5693 C   0  0  0  0  0  0  0  0  0  0  0  0
    6.8361   -4.3902   23.0855 C   0  0  0  0  0  0  0  0  0  0  0  0
    8.0449   -4.2704   24.0459 C   0  0  0  0  0  0  0  0  0  0  0  0
    8.9881   -4.1350   25.2241 C   0  0  0  0  0  0  0  0  0  0  0  0
    8.6379   -5.5047   24.7400 C   0  0  0  0  0  0  0  0  0  0  0  0
    9.4121   -6.0578   24.2093 H   0  0  0  0  0  0  0  0  0  0  0  0
    7.9490   -6.1134   25.3289 H   0  0  0  0  0  0  0  0  0  0  0  0
    8.5672   -3.7864   26.1699 H   0  0  0  0  0  0  0  0  0  0  0  0
    9.9988   -3.7884   25.0069 H   0  0  0  0  0  0  0  0  0  0  0  0
    7.0701   -4.6277   22.0415 H   0  0  0  0  0  0  0  0  0  0  0  0
    5.9184   -4.8542   23.4610 H   0  0  0  0  0  0  0  0  0  0  0  0
    6.6532   -2.5704   24.3823 H   0  0  0  0  0  0  0  0  0  0  0  0
    6.6723   -1.6491   21.6471 N   0  0  0  0  0  0  0  0  0  0  0  0
    7.3174   -0.7184   20.8978 N   0  0  0  0  0  0  0  0  0  0  0  0
    6.6280   -0.0225   19.8597 C   0  0  0  0  0  0  0  0  0  0  0  0
    5.4172    0.6285   20.1257 C   0  0  0  0  0  0  0  0  0  0  0  0
    4.7949    1.3208   19.0807 C   0  0  0  0  0  0  0  0  0  0  0  0
    5.3866    1.3135   17.8104 C   0  0  0  0  0  0  0  0  0  0  0  0
    6.5285    0.6634   17.5389 N   0  0  0  0  0  0  0  0  0  0  0  0
    7.1277    0.0189   18.5463 C   0  0  0  0  0  0  0  0  0  0  0  0
    8.0546   -0.4948   18.3041 H   0  0  0  0  0  0  0  0  0  0  0  0
    4.9260    1.8430   16.9780 H   0  0  0  0  0  0  0  0  0  0  0  0
    3.8679    1.8663   19.2343 H   0  0  0  0  0  0  0  0  0  0  0  0
    4.9846    0.5835   21.1269 H   0  0  0  0  0  0  0  0  0  0  0  0
    9.2644    0.9381   20.0406 H   0  0  0  0  0  0  0  0  0  0  0  0
   10.3830   -0.4107   20.3704 H   0  0  0  0  0  0  0  0  0  0  0  0
    9.9017    3.7335   24.0307 H   0  0  0  0  0  0  0  0  0  0  0  0
   13.1386    1.1210   23.8658 H   0  0  0  0  0  0  0  0  0  0  0  0
  1  2  1  0
  2  3  2  0
  3  4  1  0
  4  5  2  0
  5  6  1  0
  6  7  1  0
  6  8  2  0
  8  9  1  0
  9 10  1  0
 10 11  2  0
 11 12  1  0
 12 13  1  0
 13 14  1  0
 14 15  1  0
 15 16  1  0
 16 17  1  0
 17 18  1  0
 17 19  1  0
 16 20  1  0
 16 21  1  0
 14 22  1  0
 14 23  1  0
 13 24  1  0
 12 25  2  0
 25 26  1  0
 26 27  1  0
 27 28  2  0
 28 29  1  0
 29 30  2  0
 30 31  1  0
 31 32  2  0
 32 33  1  0
 30 34  1  0
 29 35  1  0
 28 36  1  0
  9 37  1  0
  9 38  1  0
  5 39  1  0
  3 40  1  0
  8  2  1  0
 26 10  1  0
 32 27  1  0
 15 13  1  0
 17 15  1  0
M  END
>  <cnnaffinity>  (1) 
-6.93227

>  <filename>  (1) 
Fc1cncc(Cl)c1Cc1nc(C2CC23CC3)nn1-c1cccnc1

$$$$
