
     RDKit          3D

 42 45  0  0  0  0  0  0  0  0999 V2000
    6.1050    4.7654   27.1848 F   0  0  0  0  0  0  0  0  0  0  0  0
    5.7978    3.7019   26.4269 C   0  0  0  0  0  0  0  0  0  0  0  0
    4.4777    3.2718   26.3448 C   0  0  0  0  0  0  0  0  0  0  0  0
    4.1745    2.1590   25.5553 C   0  0  0  0  0  0  0  0  0  0  0  0
    5.1895    1.4869   24.8727 C   0  0  0  0  0  0  0  0  0  0  0  0
    6.5316    1.8922   24.9650 C   0  0  0  0  0  0  0  0  0  0  0  0
    7.6138    1.1372   24.2263 C   0  0  0  0  0  0  0  0  0  0  0  0
    7.8385    1.6404   22.7709 C   0  0  0  0  0  0  0  0  0  0  0  0
    8.7623    0.7486   22.0109 C   0  0  0  0  0  0  0  0  0  0  0  0
   10.0648    0.8167   22.1230 N   0  0  0  0  0  0  0  0  0  0  0  0
   10.5037   -0.3519   21.5741 C   0  0  0  0  0  0  0  0  0  0  0  0
   11.9557   -0.6219   21.6670 C   0  0  0  0  0  0  0  0  0  0  0  0
   12.6737   -1.5606   21.1098 N   0  0  0  0  0  0  0  0  0  0  0  0
   14.0037   -1.3939   21.3985 C   0  0  0  0  0  0  0  0  0  0  0  0
   14.2965   -0.3215   22.1906 C   0  0  0  0  0  0  0  0  0  0  0  0
   12.8874    0.5310   22.5911 S   0  0  0  0  0  0  0  0  0  0  0  0
   15.2434    0.0521   22.5313 H   0  0  0  0  0  0  0  0  0  0  0  0
   14.7103   -2.0914   20.9747 H   0  0  0  0  0  0  0  0  0  0  0  0
    9.5352   -1.1109   21.0844 N   0  0  0  0  0  0  0  0  0  0  0  0
    8.4237   -0.3893   21.3607 N   0  0  0  0  0  0  0  0  0  0  0  0
    7.0889   -0.8360   20.9803 C   0  0  0  0  0  0  0  0  0  0  0  0
    6.4532   -0.0023   19.8817 C   0  0  0  0  0  0  0  0  0  0  0  0
    5.2545    0.6993   20.0461 C   0  0  0  0  0  0  0  0  0  0  0  0
    4.7243    1.3973   18.9573 C   0  0  0  0  0  0  0  0  0  0  0  0
    5.4201    1.3771   17.7466 C   0  0  0  0  0  0  0  0  0  0  0  0
    6.5819    0.7292   17.5728 N   0  0  0  0  0  0  0  0  0  0  0  0
    7.0827    0.0726   18.6262 C   0  0  0  0  0  0  0  0  0  0  0  0
    8.0451   -0.4158   18.4729 H   0  0  0  0  0  0  0  0  0  0  0  0
    5.0342    1.9100   16.8796 H   0  0  0  0  0  0  0  0  0  0  0  0
    3.8032    1.9618   19.0366 H   0  0  0  0  0  0  0  0  0  0  0  0
    4.7551    0.7260   21.0173 H   0  0  0  0  0  0  0  0  0  0  0  0
    7.2015   -1.8784   20.6731 H   0  0  0  0  0  0  0  0  0  0  0  0
    6.4632   -0.8392   21.8826 H   0  0  0  0  0  0  0  0  0  0  0  0
    8.3176    2.6224   22.8015 H   0  0  0  0  0  0  0  0  0  0  0  0
    6.8897    1.7630   22.2380 H   0  0  0  0  0  0  0  0  0  0  0  0
    7.3482    0.0673   24.2073 H   0  0  0  0  0  0  0  0  0  0  0  0
    8.5607    1.2025   24.7765 H   0  0  0  0  0  0  0  0  0  0  0  0
    6.8144    3.0258   25.7380 C   0  0  0  0  0  0  0  0  0  0  0  0
    8.0765    3.4840   25.8398 F   0  0  0  0  0  0  0  0  0  0  0  0
    4.9500    0.6226   24.2572 H   0  0  0  0  0  0  0  0  0  0  0  0
    3.1506    1.8058   25.4876 H   0  0  0  0  0  0  0  0  0  0  0  0
    3.7201    3.8098   26.9056 H   0  0  0  0  0  0  0  0  0  0  0  0
  1  2  1  0
  2  3  2  0
  3  4  1  0
  4  5  2  0
  5  6  1  0
  6  7  1  0
  7  8  1  0
  8  9  1  0
  9 10  2  0
 10 11  1  0
 11 12  1  0
 12 13  2  0
 13 14  1  0
 14 15  2  0
 15 16  1  0
 15 17  1  0
 14 18  1  0
 11 19  2  0
 19 20  1  0
 20 21  1  0
 21 22  1  0
 22 23  2  0
 23 24  1  0
 24 25  2  0
 25 26  1  0
 26 27  2  0
 27 28  1  0
 25 29  1  0
 24 30  1  0
 23 31  1  0
 21 32  1  0
 21 33  1  0
  8 34  1  0
  8 35  1  0
  7 36  1  0
  7 37  1  0
  6 38  2  0
 38 39  1  0
  5 40  1  0
  4 41  1  0
  3 42  1  0
 38  2  1  0
 20  9  1  0
 27 22  1  0
 16 12  1  0
M  END
>  <cnnaffinity>  (1) 
-6.61317

>  <filename>  (1) 
Fc1cccc(CCc2nc(-c3nccs3)nn2Cc2cccnc2)c1F

$$$$
