
     RDKit          3D

 45 48  0  0  0  0  0  0  0  0999 V2000
   13.6214   -2.3240   20.5312 F   0  0  0  0  0  0  0  0  0  0  0  0
   12.9495   -1.5536   21.3940 C   0  0  0  0  0  0  0  0  0  0  0  0
   13.6598   -0.7062   22.2500 C   0  0  0  0  0  0  0  0  0  0  0  0
   13.0567    0.1534   23.0757 N   0  0  0  0  0  0  0  0  0  0  0  0
   11.7209    0.2015   23.0723 C   0  0  0  0  0  0  0  0  0  0  0  0
   10.9334   -0.6265   22.2603 C   0  0  0  0  0  0  0  0  0  0  0  0
    9.4894   -0.4014   22.2806 C   0  0  0  0  0  0  0  0  0  0  0  0
    8.6054   -1.1454   21.6433 N   0  0  0  0  0  0  0  0  0  0  0  0
    7.4371   -0.4912   21.8577 N   0  0  0  0  0  0  0  0  0  0  0  0
    6.2659   -0.8894   21.0795 C   0  0  0  0  0  0  0  0  0  0  0  0
    6.0115   -0.0089   19.8742 C   0  0  0  0  0  0  0  0  0  0  0  0
    4.8434    0.7446   19.7251 C   0  0  0  0  0  0  0  0  0  0  0  0
    4.6969    1.5410   18.5869 C   0  0  0  0  0  0  0  0  0  0  0  0
    5.7178    1.5373   17.6336 C   0  0  0  0  0  0  0  0  0  0  0  0
    6.8426    0.8156   17.7527 N   0  0  0  0  0  0  0  0  0  0  0  0
    6.9800    0.0778   18.8598 C   0  0  0  0  0  0  0  0  0  0  0  0
    7.8997   -0.5023   18.9436 H   0  0  0  0  0  0  0  0  0  0  0  0
    5.6303    2.1389   16.7303 H   0  0  0  0  0  0  0  0  0  0  0  0
    3.8193    2.1599   18.4325 H   0  0  0  0  0  0  0  0  0  0  0  0
    4.0604    0.7109   20.4857 H   0  0  0  0  0  0  0  0  0  0  0  0
    5.3902   -0.8795   21.7213 H   0  0  0  0  0  0  0  0  0  0  0  0
    6.4480   -1.9289   20.7866 H   0  0  0  0  0  0  0  0  0  0  0  0
    7.6740    0.6164   22.6073 C   0  0  0  0  0  0  0  0  0  0  0  0
    6.6786    1.5973   23.1559 C   0  0  0  0  0  0  0  0  0  0  0  0
    6.5144    1.4351   24.6878 C   0  0  0  0  0  0  0  0  0  0  0  0
    5.5031    2.3470   25.3472 C   0  0  0  0  0  0  0  0  0  0  0  0
    4.1482    1.9846   25.3627 C   0  0  0  0  0  0  0  0  0  0  0  0
    3.2322    2.7151   26.1148 C   0  0  0  0  0  0  0  0  0  0  0  0
    1.9461    2.3262   26.1320 F   0  0  0  0  0  0  0  0  0  0  0  0
    3.6188    3.8244   26.8623 C   0  0  0  0  0  0  0  0  0  0  0  0
    4.9572    4.2287   26.8215 C   0  0  0  0  0  0  0  0  0  0  0  0
    5.8687    3.5061   26.0510 C   0  0  0  0  0  0  0  0  0  0  0  0
    7.1489    3.9286   26.0192 F   0  0  0  0  0  0  0  0  0  0  0  0
    5.3175    5.0937   27.3712 H   0  0  0  0  0  0  0  0  0  0  0  0
    2.8804    4.3325   27.4750 H   0  0  0  0  0  0  0  0  0  0  0  0
    3.8022    1.1133   24.8135 H   0  0  0  0  0  0  0  0  0  0  0  0
    7.4957    1.5690   25.1597 H   0  0  0  0  0  0  0  0  0  0  0  0
    6.2139    0.3980   24.8926 H   0  0  0  0  0  0  0  0  0  0  0  0
    5.7235    1.5149   22.6212 H   0  0  0  0  0  0  0  0  0  0  0  0
    7.0734    2.5989   22.9506 H   0  0  0  0  0  0  0  0  0  0  0  0
    8.9625    0.6898   22.8859 N   0  0  0  0  0  0  0  0  0  0  0  0
   11.5642   -1.5473   21.4046 C   0  0  0  0  0  0  0  0  0  0  0  0
   10.9984   -2.2289   20.7834 H   0  0  0  0  0  0  0  0  0  0  0  0
   11.2439    0.9435   23.7084 H   0  0  0  0  0  0  0  0  0  0  0  0
   14.7436   -0.7480   22.2539 H   0  0  0  0  0  0  0  0  0  0  0  0
  1  2  1  0
  2  3  2  0
  3  4  1  0
  4  5  2  0
  5  6  1  0
  6  7  1  0
  7  8  2  0
  8  9  1  0
  9 10  1  0
 10 11  1  0
 11 12  2  0
 12 13  1  0
 13 14  2  0
 14 15  1  0
 15 16  2  0
 16 17  1  0
 14 18  1  0
 13 19  1  0
 12 20  1  0
 10 21  1  0
 10 22  1  0
  9 23  1  0
 23 24  1  0
 24 25  1  0
 25 26  1  0
 26 27  2  0
 27 28  1  0
 28 29  1  0
 28 30  2  0
 30 31  1  0
 31 32  2  0
 32 33  1  0
 31 34  1  0
 30 35  1  0
 27 36  1  0
 25 37  1  0
 25 38  1  0
 24 39  1  0
 24 40  1  0
 23 41  2  0
  6 42  2  0
 42 43  1  0
  5 44  1  0
  3 45  1  0
 42  2  1  0
 41  7  1  0
 16 11  1  0
 32 26  1  0
M  END
>  <cnnaffinity>  (1) 
-6.41048

>  <filename>  (1) 
Fc1cncc(-c2nc(CCc3cc(F)ccc3F)n(Cc3cccnc3)n2)c1

$$$$
