
     RDKit          3D

 38 41  0  0  0  0  0  0  0  0999 V2000
    9.2335   -4.5385   26.4184 F   0  0  0  0  0  0  0  0  0  0  0  0
    8.2438   -4.3062   25.5470 C   0  0  0  0  0  0  0  0  0  0  0  0
    7.0569   -5.0182   25.6782 C   0  0  0  0  0  0  0  0  0  0  0  0
    6.0427   -4.7287   24.7689 C   0  0  0  0  0  0  0  0  0  0  0  0
    4.8867   -5.3956   24.8859 F   0  0  0  0  0  0  0  0  0  0  0  0
    6.1764   -3.7839   23.7538 C   0  0  0  0  0  0  0  0  0  0  0  0
    7.4082   -3.1064   23.6260 C   0  0  0  0  0  0  0  0  0  0  0  0
    7.6562   -2.1034   22.5583 C   0  0  0  0  0  0  0  0  0  0  0  0
    6.7432   -1.6333   21.7274 N   0  0  0  0  0  0  0  0  0  0  0  0
    7.4298   -0.7062   21.0050 N   0  0  0  0  0  0  0  0  0  0  0  0
    6.7580   -0.0210   19.9467 C   0  0  0  0  0  0  0  0  0  0  0  0
    5.5332    0.6072   20.2050 C   0  0  0  0  0  0  0  0  0  0  0  0
    4.8967    1.2657   19.1511 C   0  0  0  0  0  0  0  0  0  0  0  0
    5.4926    1.2639   17.8850 C   0  0  0  0  0  0  0  0  0  0  0  0
    6.6509    0.6385   17.6212 N   0  0  0  0  0  0  0  0  0  0  0  0
    7.2605    0.0058   18.6326 C   0  0  0  0  0  0  0  0  0  0  0  0
    8.1752   -0.5329   18.3814 H   0  0  0  0  0  0  0  0  0  0  0  0
    5.0178    1.7671   17.0472 H   0  0  0  0  0  0  0  0  0  0  0  0
    3.9461    1.7641   19.3008 H   0  0  0  0  0  0  0  0  0  0  0  0
    5.1030    0.5489   21.2069 H   0  0  0  0  0  0  0  0  0  0  0  0
    8.7059   -0.6299   21.4962 C   0  0  0  0  0  0  0  0  0  0  0  0
    9.6752    0.4746   21.2331 C   0  0  0  0  0  0  0  0  0  0  0  0
    9.1835    1.7685   21.8175 C   0  0  0  0  0  0  0  0  0  0  0  0
    8.4425    2.6387   21.0945 C   0  0  0  0  0  0  0  0  0  0  0  0
    8.0260    3.6626   21.9082 N   0  0  0  0  0  0  0  0  0  0  0  0
    8.5068    3.4339   23.1750 C   0  0  0  0  0  0  0  0  0  0  0  0
    9.2170    2.2599   23.1540 C   0  0  0  0  0  0  0  0  0  0  0  0
    9.7306    1.8108   23.9947 H   0  0  0  0  0  0  0  0  0  0  0  0
    8.3160    4.1326   23.9841 H   0  0  0  0  0  0  0  0  0  0  0  0
    7.6214    4.5234   21.5775 H   0  0  0  0  0  0  0  0  0  0  0  0
    8.1698    2.4753   20.0681 H   0  0  0  0  0  0  0  0  0  0  0  0
    9.8174    0.5663   20.1544 H   0  0  0  0  0  0  0  0  0  0  0  0
   10.6236    0.1832   21.6880 H   0  0  0  0  0  0  0  0  0  0  0  0
    8.8874   -1.5387   22.4169 N   0  0  0  0  0  0  0  0  0  0  0  0
    8.4435   -3.3635   24.5488 C   0  0  0  0  0  0  0  0  0  0  0  0
    9.3879   -2.8295   24.4960 H   0  0  0  0  0  0  0  0  0  0  0  0
    5.3319   -3.5761   23.1022 H   0  0  0  0  0  0  0  0  0  0  0  0
    6.9308   -5.7606   26.4569 H   0  0  0  0  0  0  0  0  0  0  0  0
  1  2  1  0
  2  3  2  0
  3  4  1  0
  4  5  1  0
  4  6  2  0
  6  7  1  0
  7  8  1  0
  8  9  2  0
  9 10  1  0
 10 11  1  0
 11 12  2  0
 12 13  1  0
 13 14  2  0
 14 15  1  0
 15 16  2  0
 16 17  1  0
 14 18  1  0
 13 19  1  0
 12 20  1  0
 10 21  1  0
 21 22  1  0
 22 23  1  0
 23 24  2  0
 24 25  1  0
 25 26  1  0
 26 27  2  0
 27 28  1  0
 26 29  1  0
 25 30  1  0
 24 31  1  0
 22 32  1  0
 22 33  1  0
 21 34  2  0
  7 35  2  0
 35 36  1  0
  6 37  1  0
  3 38  1  0
 35  2  1  0
 34  8  1  0
 16 11  1  0
 27 23  1  0
M  END
>  <cnnaffinity>  (1) 
-6.04198

>  <filename>  (1) 
Fc1cc(F)cc(-c2nc(Cc3cc[nH]c3)n(-c3cccnc3)n2)c1

$$$$
