
     RDKit          3D

 40 43  0  0  0  0  0  0  0  0999 V2000
   10.4751    1.2254   26.2821 F   0  0  0  0  0  0  0  0  0  0  0  0
   10.0842    1.6317   25.0699 C   0  0  0  0  0  0  0  0  0  0  0  0
   11.0218    2.2195   24.2272 C   0  0  0  0  0  0  0  0  0  0  0  0
   10.6035    2.6214   22.9573 C   0  0  0  0  0  0  0  0  0  0  0  0
    9.2987    2.3450   22.5377 C   0  0  0  0  0  0  0  0  0  0  0  0
    8.8558    2.7243   20.9091 Cl  0  0  0  0  0  0  0  0  0  0  0  0
    8.3692    1.7086   23.3747 C   0  0  0  0  0  0  0  0  0  0  0  0
    7.0479    1.1833   22.8273 C   0  0  0  0  0  0  0  0  0  0  0  0
    7.2533   -0.1510   22.1780 C   0  0  0  0  0  0  0  0  0  0  0  0
    7.7959   -1.1612   22.8288 N   0  0  0  0  0  0  0  0  0  0  0  0
    7.9012   -2.1282   21.8914 C   0  0  0  0  0  0  0  0  0  0  0  0
    8.5455   -3.4345   22.1732 C   0  0  0  0  0  0  0  0  0  0  0  0
    7.6346   -4.4839   22.7800 C   0  0  0  0  0  0  0  0  0  0  0  0
    6.7826   -5.3323   21.8879 C   0  0  0  0  0  0  0  0  0  0  0  0
    7.9779   -5.9284   22.5818 C   0  0  0  0  0  0  0  0  0  0  0  0
    8.8560   -6.1616   21.9855 H   0  0  0  0  0  0  0  0  0  0  0  0
    7.8221   -6.6090   23.4115 H   0  0  0  0  0  0  0  0  0  0  0  0
    5.7944   -5.6036   22.2493 H   0  0  0  0  0  0  0  0  0  0  0  0
    6.8356   -5.1642   20.8138 H   0  0  0  0  0  0  0  0  0  0  0  0
    7.1969   -4.2170   23.7412 H   0  0  0  0  0  0  0  0  0  0  0  0
    8.9333   -3.7808   21.2151 H   0  0  0  0  0  0  0  0  0  0  0  0
    9.3851   -3.2449   22.8480 H   0  0  0  0  0  0  0  0  0  0  0  0
    7.4530   -1.7938   20.7013 N   0  0  0  0  0  0  0  0  0  0  0  0
    6.9924   -0.5293   20.8894 N   0  0  0  0  0  0  0  0  0  0  0  0
    6.4065    0.1549   19.7961 C   0  0  0  0  0  0  0  0  0  0  0  0
    5.2188    0.8841   19.9164 C   0  0  0  0  0  0  0  0  0  0  0  0
    4.7170    1.5021   18.7662 C   0  0  0  0  0  0  0  0  0  0  0  0
    5.4129    1.3719   17.5605 C   0  0  0  0  0  0  0  0  0  0  0  0
    6.5431    0.6502   17.4381 N   0  0  0  0  0  0  0  0  0  0  0  0
    7.0185    0.0563   18.5333 C   0  0  0  0  0  0  0  0  0  0  0  0
    7.9381   -0.5183   18.4328 H   0  0  0  0  0  0  0  0  0  0  0  0
    5.0486    1.8576   16.6581 H   0  0  0  0  0  0  0  0  0  0  0  0
    3.8028    2.0855   18.8033 H   0  0  0  0  0  0  0  0  0  0  0  0
    4.6994    0.9471   20.8746 H   0  0  0  0  0  0  0  0  0  0  0  0
    6.6078    1.8903   22.1235 H   0  0  0  0  0  0  0  0  0  0  0  0
    6.3436    1.0287   23.6485 H   0  0  0  0  0  0  0  0  0  0  0  0
    8.7678    1.4072   24.6851 C   0  0  0  0  0  0  0  0  0  0  0  0
    8.0815    0.9465   25.3916 H   0  0  0  0  0  0  0  0  0  0  0  0
   11.2737    3.1403   22.2806 H   0  0  0  0  0  0  0  0  0  0  0  0
   12.0483    2.3221   24.5650 H   0  0  0  0  0  0  0  0  0  0  0  0
  1  2  1  0
  2  3  2  0
  3  4  1  0
  4  5  2  0
  5  6  1  0
  5  7  1  0
  7  8  1  0
  8  9  1  0
  9 10  2  0
 10 11  1  0
 11 12  1  0
 12 13  1  0
 13 14  1  0
 14 15  1  0
 15 16  1  0
 15 17  1  0
 14 18  1  0
 14 19  1  0
 13 20  1  0
 12 21  1  0
 12 22  1  0
 11 23  2  0
 23 24  1  0
 24 25  1  0
 25 26  2  0
 26 27  1  0
 27 28  2  0
 28 29  1  0
 29 30  2  0
 30 31  1  0
 28 32  1  0
 27 33  1  0
 26 34  1  0
  8 35  1  0
  8 36  1  0
  7 37  2  0
 37 38  1  0
  4 39  1  0
  3 40  1  0
 37  2  1  0
 24  9  1  0
 30 25  1  0
 15 13  1  0
M  END
>  <cnnaffinity>  (1) 
-5.90861

>  <filename>  (1) 
Fc1ccc(Cl)c(Cc2nc(CC3CC3)nn2-c2cccnc2)c1

$$$$
