
     RDKit          3D

 39 42  0  0  0  0  0  0  0  0999 V2000
   14.9840   -1.3956   20.3797 F   0  0  0  0  0  0  0  0  0  0  0  0
   13.8522   -1.2366   21.0659 C   0  0  0  0  0  0  0  0  0  0  0  0
   12.7787   -1.9980   20.6487 C   0  0  0  0  0  0  0  0  0  0  0  0
   11.5235   -1.7206   21.1699 C   0  0  0  0  0  0  0  0  0  0  0  0
   11.3424   -0.6498   22.0595 C   0  0  0  0  0  0  0  0  0  0  0  0
    9.9560   -0.2000   22.2832 C   0  0  0  0  0  0  0  0  0  0  0  0
    8.9279   -0.9160   21.8444 N   0  0  0  0  0  0  0  0  0  0  0  0
    7.8587   -0.1397   22.1084 N   0  0  0  0  0  0  0  0  0  0  0  0
    6.5621   -0.4996   21.5370 C   0  0  0  0  0  0  0  0  0  0  0  0
    6.2245    0.2274   20.2504 C   0  0  0  0  0  0  0  0  0  0  0  0
    5.0290    0.9254   20.0517 C   0  0  0  0  0  0  0  0  0  0  0  0
    4.8150    1.5526   18.8202 C   0  0  0  0  0  0  0  0  0  0  0  0
    5.8003    1.4531   17.8369 C   0  0  0  0  0  0  0  0  0  0  0  0
    6.9453    0.7744   18.0003 N   0  0  0  0  0  0  0  0  0  0  0  0
    7.1435    0.1903   19.1855 C   0  0  0  0  0  0  0  0  0  0  0  0
    8.0948   -0.3220   19.3204 H   0  0  0  0  0  0  0  0  0  0  0  0
    5.6697    1.9387   16.8725 H   0  0  0  0  0  0  0  0  0  0  0  0
    3.9150    2.1220   18.6149 H   0  0  0  0  0  0  0  0  0  0  0  0
    4.2757    0.9867   20.8401 H   0  0  0  0  0  0  0  0  0  0  0  0
    6.6182   -1.5773   21.3671 H   0  0  0  0  0  0  0  0  0  0  0  0
    5.8045   -0.3371   22.3010 H   0  0  0  0  0  0  0  0  0  0  0  0
    8.2871    1.0148   22.6652 C   0  0  0  0  0  0  0  0  0  0  0  0
    7.3428    2.0286   23.2562 C   0  0  0  0  0  0  0  0  0  0  0  0
    6.7854    1.5341   24.5748 C   0  0  0  0  0  0  0  0  0  0  0  0
    5.6470    0.8320   24.8301 C   0  0  0  0  0  0  0  0  0  0  0  0
    5.5594    0.2111   26.0544 N   0  0  0  0  0  0  0  0  0  0  0  0
    6.6285    0.4655   26.7444 C   0  0  0  0  0  0  0  0  0  0  0  0
    7.7762    1.5083   25.9871 S   0  0  0  0  0  0  0  0  0  0  0  0
    6.8340    0.0711   27.7314 H   0  0  0  0  0  0  0  0  0  0  0  0
    4.8223    0.7315   24.1330 H   0  0  0  0  0  0  0  0  0  0  0  0
    7.9101    2.9559   23.3732 H   0  0  0  0  0  0  0  0  0  0  0  0
    6.5259    2.2295   22.5550 H   0  0  0  0  0  0  0  0  0  0  0  0
    9.6005    1.0137   22.7768 N   0  0  0  0  0  0  0  0  0  0  0  0
   12.4748    0.0301   22.5563 C   0  0  0  0  0  0  0  0  0  0  0  0
   13.7450   -0.2525   22.0465 C   0  0  0  0  0  0  0  0  0  0  0  0
   14.6157    0.3437   22.2973 H   0  0  0  0  0  0  0  0  0  0  0  0
   12.3644    0.7969   23.3189 H   0  0  0  0  0  0  0  0  0  0  0  0
   10.6433   -2.2707   20.8380 H   0  0  0  0  0  0  0  0  0  0  0  0
   12.9721   -2.7435   19.8850 H   0  0  0  0  0  0  0  0  0  0  0  0
  1  2  1  0
  2  3  2  0
  3  4  1  0
  4  5  2  0
  5  6  1  0
  6  7  2  0
  7  8  1  0
  8  9  1  0
  9 10  1  0
 10 11  2  0
 11 12  1  0
 12 13  2  0
 13 14  1  0
 14 15  2  0
 15 16  1  0
 13 17  1  0
 12 18  1  0
 11 19  1  0
  9 20  1  0
  9 21  1  0
  8 22  1  0
 22 23  1  0
 23 24  1  0
 24 25  2  0
 25 26  1  0
 26 27  2  0
 27 28  1  0
 27 29  1  0
 25 30  1  0
 23 31  1  0
 23 32  1  0
 22 33  2  0
  5 34  1  0
 34 35  2  0
 35 36  1  0
 34 37  1  0
  4 38  1  0
  3 39  1  0
 35  2  1  0
 33  6  1  0
 15 10  1  0
 28 24  1  0
M  END
>  <cnnaffinity>  (1) 
-6.43134

>  <filename>  (1) 
Fc1ccc(-c2nc(Cc3cncs3)n(Cc3cccnc3)n2)cc1

$$$$
