
     RDKit          3D

 43 46  0  0  0  0  0  0  0  0999 V2000
    6.8137   -3.5468   26.8969 F   0  0  0  0  0  0  0  0  0  0  0  0
    7.2190   -2.6634   25.9783 C   0  0  0  0  0  0  0  0  0  0  0  0
    7.7156   -3.1525   24.7667 C   0  0  0  0  0  0  0  0  0  0  0  0
    8.1102   -2.2261   23.8045 C   0  0  0  0  0  0  0  0  0  0  0  0
    7.9835   -0.8573   24.0973 C   0  0  0  0  0  0  0  0  0  0  0  0
    8.3539    0.1592   23.1822 N   0  0  0  0  0  0  0  0  0  0  0  0
    9.0786    1.2188   23.6295 N   0  0  0  0  0  0  0  0  0  0  0  0
    9.4005    1.8411   22.5148 C   0  0  0  0  0  0  0  0  0  0  0  0
   10.2032    3.1031   22.4754 C   0  0  0  0  0  0  0  0  0  0  0  0
    9.3427    4.3086   22.9536 C   0  0  0  0  0  0  0  0  0  0  0  0
   10.1392    5.5743   23.1378 C   0  0  0  0  0  0  0  0  0  0  0  0
   11.4702    5.6182   23.1197 C   0  0  0  0  0  0  0  0  0  0  0  0
   12.3327    4.4081   22.8435 C   0  0  0  0  0  0  0  0  0  0  0  0
   11.5981    3.0825   23.1394 C   0  0  0  0  0  0  0  0  0  0  0  0
   12.1938    2.2521   22.7435 H   0  0  0  0  0  0  0  0  0  0  0  0
   11.5081    2.9401   24.2219 H   0  0  0  0  0  0  0  0  0  0  0  0
   12.6563    4.4308   21.7896 H   0  0  0  0  0  0  0  0  0  0  0  0
   13.2564    4.4741   23.4288 H   0  0  0  0  0  0  0  0  0  0  0  0
   11.9769    6.5629   23.3063 H   0  0  0  0  0  0  0  0  0  0  0  0
    9.5648    6.4857   23.3066 H   0  0  0  0  0  0  0  0  0  0  0  0
    8.5537    4.4814   22.2111 H   0  0  0  0  0  0  0  0  0  0  0  0
    8.8260    4.0752   23.8977 H   0  0  0  0  0  0  0  0  0  0  0  0
   10.4028    3.1958   21.4120 H   0  0  0  0  0  0  0  0  0  0  0  0
    8.8763    1.2999   21.3821 N   0  0  0  0  0  0  0  0  0  0  0  0
    8.1913    0.2641   21.8273 C   0  0  0  0  0  0  0  0  0  0  0  0
    7.3977   -0.6848   20.9676 C   0  0  0  0  0  0  0  0  0  0  0  0
    6.6335   -0.0277   19.8280 C   0  0  0  0  0  0  0  0  0  0  0  0
    5.4237    0.6324   20.0810 C   0  0  0  0  0  0  0  0  0  0  0  0
    4.7913    1.3126   19.0381 C   0  0  0  0  0  0  0  0  0  0  0  0
    5.3875    1.3073   17.7737 C   0  0  0  0  0  0  0  0  0  0  0  0
    6.5261    0.6558   17.4980 N   0  0  0  0  0  0  0  0  0  0  0  0
    7.1237    0.0108   18.5103 C   0  0  0  0  0  0  0  0  0  0  0  0
    8.0556   -0.4986   18.2588 H   0  0  0  0  0  0  0  0  0  0  0  0
    4.9314    1.8534   16.9493 H   0  0  0  0  0  0  0  0  0  0  0  0
    3.8644    1.8518   19.1917 H   0  0  0  0  0  0  0  0  0  0  0  0
    4.9871    0.6243   21.0833 H   0  0  0  0  0  0  0  0  0  0  0  0
    8.1038   -1.4291   20.5776 H   0  0  0  0  0  0  0  0  0  0  0  0
    6.6864   -1.2205   21.6028 H   0  0  0  0  0  0  0  0  0  0  0  0
    7.5230   -0.4905   25.3673 C   0  0  0  0  0  0  0  0  0  0  0  0
    7.1304   -1.3855   26.2857 N   0  0  0  0  0  0  0  0  0  0  0  0
    7.4648    0.5656   25.6263 H   0  0  0  0  0  0  0  0  0  0  0  0
    8.5323   -2.5520   22.8529 H   0  0  0  0  0  0  0  0  0  0  0  0
    7.7804   -4.2178   24.6043 H   0  0  0  0  0  0  0  0  0  0  0  0
  1  2  1  0
  2  3  2  0
  3  4  1  0
  4  5  2  0
  5  6  1  0
  6  7  1  0
  7  8  2  0
  8  9  1  0
  9 10  1  0
 10 11  1  0
 11 12  2  0
 12 13  1  0
 13 14  1  0
 14 15  1  0
 14 16  1  0
 13 17  1  0
 13 18  1  0
 12 19  1  0
 11 20  1  0
 10 21  1  0
 10 22  1  0
  9 23  1  0
  8 24  1  0
 24 25  2  0
 25 26  1  0
 26 27  1  0
 27 28  2  0
 28 29  1  0
 29 30  2  0
 30 31  1  0
 31 32  2  0
 32 33  1  0
 30 34  1  0
 29 35  1  0
 28 36  1  0
 26 37  1  0
 26 38  1  0
  5 39  1  0
 39 40  2  0
 39 41  1  0
  4 42  1  0
  3 43  1  0
 40  2  1  0
 25  6  1  0
 32 27  1  0
 14  9  1  0
M  END
>  <cnnaffinity>  (1) 
-6.15341

>  <filename>  (1) 
Fc1ccc(-n2nc(C3CC=CCC3)nc2Cc2cccnc2)cn1

$$$$
