
     RDKit          3D

 43 46  0  0  0  0  0  0  0  0999 V2000
    6.4121    1.7456   25.4937 F   0  0  0  0  0  0  0  0  0  0  0  0
    7.6023    1.9502   24.9019 C   0  0  0  0  0  0  0  0  0  0  0  0
    8.7378    2.1187   25.6925 C   0  0  0  0  0  0  0  0  0  0  0  0
    9.9831    2.2366   25.0613 C   0  0  0  0  0  0  0  0  0  0  0  0
   10.0394    2.2884   23.6742 C   0  0  0  0  0  0  0  0  0  0  0  0
   11.2457    2.4544   23.0877 F   0  0  0  0  0  0  0  0  0  0  0  0
    8.9035    2.1438   22.8644 C   0  0  0  0  0  0  0  0  0  0  0  0
    9.0435    2.0222   21.3608 C   0  0  0  0  0  0  0  0  0  0  0  0
    9.5313    0.6109   20.9357 C   0  0  0  0  0  0  0  0  0  0  0  0
    8.6376   -0.4863   21.4059 C   0  0  0  0  0  0  0  0  0  0  0  0
    8.8708   -1.3135   22.4022 N   0  0  0  0  0  0  0  0  0  0  0  0
    7.6798   -1.9545   22.5599 C   0  0  0  0  0  0  0  0  0  0  0  0
    7.4859   -3.0081   23.5957 C   0  0  0  0  0  0  0  0  0  0  0  0
    7.8520   -4.3921   23.0687 C   0  0  0  0  0  0  0  0  0  0  0  0
    6.8049   -5.1633   22.3142 C   0  0  0  0  0  0  0  0  0  0  0  0
    7.2222   -5.5967   23.6979 C   0  0  0  0  0  0  0  0  0  0  0  0
    6.5388   -5.4403   24.5329 H   0  0  0  0  0  0  0  0  0  0  0  0
    7.8440   -6.4811   23.8033 H   0  0  0  0  0  0  0  0  0  0  0  0
    5.8336   -4.6806   22.1900 H   0  0  0  0  0  0  0  0  0  0  0  0
    7.1015   -5.7628   21.4546 H   0  0  0  0  0  0  0  0  0  0  0  0
    8.8918   -4.4825   22.7366 H   0  0  0  0  0  0  0  0  0  0  0  0
    8.1163   -2.7400   24.4503 H   0  0  0  0  0  0  0  0  0  0  0  0
    6.4349   -2.9871   23.9154 H   0  0  0  0  0  0  0  0  0  0  0  0
    6.7413   -1.5963   21.7113 N   0  0  0  0  0  0  0  0  0  0  0  0
    7.3625   -0.6618   20.9463 N   0  0  0  0  0  0  0  0  0  0  0  0
    6.6636    0.0019   19.9017 C   0  0  0  0  0  0  0  0  0  0  0  0
    5.4454    0.6407   20.1599 C   0  0  0  0  0  0  0  0  0  0  0  0
    4.8112    1.3099   19.1092 C   0  0  0  0  0  0  0  0  0  0  0  0
    5.4008    1.2953   17.8391 C   0  0  0  0  0  0  0  0  0  0  0  0
    6.5569    0.6675   17.5779 N   0  0  0  0  0  0  0  0  0  0  0  0
    7.1699    0.0449   18.5906 C   0  0  0  0  0  0  0  0  0  0  0  0
    8.1121   -0.4461   18.3550 H   0  0  0  0  0  0  0  0  0  0  0  0
    4.9291    1.7980   16.9972 H   0  0  0  0  0  0  0  0  0  0  0  0
    3.8771    1.8406   19.2602 H   0  0  0  0  0  0  0  0  0  0  0  0
    5.0168    0.5969   21.1617 H   0  0  0  0  0  0  0  0  0  0  0  0
   10.5284    0.4092   21.3385 H   0  0  0  0  0  0  0  0  0  0  0  0
    9.5955    0.5509   19.8484 H   0  0  0  0  0  0  0  0  0  0  0  0
    9.7674    2.7537   20.9936 H   0  0  0  0  0  0  0  0  0  0  0  0
    8.0876    2.2427   20.8676 H   0  0  0  0  0  0  0  0  0  0  0  0
    7.6708    1.9375   23.5104 C   0  0  0  0  0  0  0  0  0  0  0  0
    6.7768    1.6998   22.9373 H   0  0  0  0  0  0  0  0  0  0  0  0
   10.9328    2.2057   25.5863 H   0  0  0  0  0  0  0  0  0  0  0  0
    8.6282    2.1452   26.7732 H   0  0  0  0  0  0  0  0  0  0  0  0
  1  2  1  0
  2  3  2  0
  3  4  1  0
  4  5  2  0
  5  6  1  0
  5  7  1  0
  7  8  1  0
  8  9  1  0
  9 10  1  0
 10 11  2  0
 11 12  1  0
 12 13  1  0
 13 14  1  0
 14 15  1  0
 15 16  1  0
 16 17  1  0
 16 18  1  0
 15 19  1  0
 15 20  1  0
 14 21  1  0
 13 22  1  0
 13 23  1  0
 12 24  2  0
 24 25  1  0
 25 26  1  0
 26 27  2  0
 27 28  1  0
 28 29  2  0
 29 30  1  0
 30 31  2  0
 31 32  1  0
 29 33  1  0
 28 34  1  0
 27 35  1  0
  9 36  1  0
  9 37  1  0
  8 38  1  0
  8 39  1  0
  7 40  2  0
 40 41  1  0
  4 42  1  0
  3 43  1  0
 40  2  1  0
 25 10  1  0
 31 26  1  0
 16 14  1  0
M  END
>  <cnnaffinity>  (1) 
-6.19834

>  <filename>  (1) 
Fc1ccc(F)c(CCc2nc(CC3CC3)nn2-c2cccnc2)c1

$$$$
