
     RDKit          3D

 44 47  0  0  0  0  0  0  0  0999 V2000
   11.4536    2.2301   23.1010 F   0  0  0  0  0  0  0  0  0  0  0  0
   10.3087    2.0354   23.7851 C   0  0  0  0  0  0  0  0  0  0  0  0
   10.3863    1.9188   25.1687 C   0  0  0  0  0  0  0  0  0  0  0  0
    9.2020    1.6996   25.8746 C   0  0  0  0  0  0  0  0  0  0  0  0
    7.9846    1.5788   25.2101 C   0  0  0  0  0  0  0  0  0  0  0  0
    7.9726    1.7090   23.8268 C   0  0  0  0  0  0  0  0  0  0  0  0
    6.7891    1.5729   23.2010 F   0  0  0  0  0  0  0  0  0  0  0  0
    9.1150    1.9639   23.0583 C   0  0  0  0  0  0  0  0  0  0  0  0
    9.1079    1.9809   21.5449 C   0  0  0  0  0  0  0  0  0  0  0  0
    9.5268    0.6041   20.9515 C   0  0  0  0  0  0  0  0  0  0  0  0
    8.6436   -0.5140   21.3993 C   0  0  0  0  0  0  0  0  0  0  0  0
    8.8791   -1.3463   22.4010 N   0  0  0  0  0  0  0  0  0  0  0  0
    7.6778   -1.9445   22.5818 C   0  0  0  0  0  0  0  0  0  0  0  0
    7.4036   -2.8370   23.7436 C   0  0  0  0  0  0  0  0  0  0  0  0
    6.5041   -4.0483   23.4394 C   0  0  0  0  0  0  0  0  0  0  0  0
    5.8113   -4.3125   24.7792 C   0  0  0  0  0  0  0  0  0  0  0  0
    5.8881   -3.1098   25.5292 O   0  0  0  0  0  0  0  0  0  0  0  0
    6.6345   -2.1112   24.8696 C   0  0  0  0  0  0  0  0  0  0  0  0
    5.9665   -1.3268   24.4711 H   0  0  0  0  0  0  0  0  0  0  0  0
    7.2995   -1.6413   25.6074 H   0  0  0  0  0  0  0  0  0  0  0  0
    6.3023   -5.1165   25.3473 H   0  0  0  0  0  0  0  0  0  0  0  0
    4.7556   -4.5896   24.6559 H   0  0  0  0  0  0  0  0  0  0  0  0
    7.0656   -4.9157   23.0814 H   0  0  0  0  0  0  0  0  0  0  0  0
    5.7731   -3.7720   22.6710 H   0  0  0  0  0  0  0  0  0  0  0  0
    8.3742   -3.1515   24.1296 H   0  0  0  0  0  0  0  0  0  0  0  0
    6.7383   -1.5861   21.7277 N   0  0  0  0  0  0  0  0  0  0  0  0
    7.3672   -0.6731   20.9418 N   0  0  0  0  0  0  0  0  0  0  0  0
    6.6572   -0.0033   19.9024 C   0  0  0  0  0  0  0  0  0  0  0  0
    5.4413    0.6370   20.1676 C   0  0  0  0  0  0  0  0  0  0  0  0
    4.8137    1.3076   19.1120 C   0  0  0  0  0  0  0  0  0  0  0  0
    5.3993    1.2956   17.8398 C   0  0  0  0  0  0  0  0  0  0  0  0
    6.5576    0.6704   17.5771 N   0  0  0  0  0  0  0  0  0  0  0  0
    7.1653    0.0462   18.5917 C   0  0  0  0  0  0  0  0  0  0  0  0
    8.1123   -0.4359   18.3648 H   0  0  0  0  0  0  0  0  0  0  0  0
    4.9208    1.7868   16.9947 H   0  0  0  0  0  0  0  0  0  0  0  0
    3.8829    1.8387   19.2622 H   0  0  0  0  0  0  0  0  0  0  0  0
    5.0251    0.6134   21.1788 H   0  0  0  0  0  0  0  0  0  0  0  0
    9.5315    0.6639   19.8610 H   0  0  0  0  0  0  0  0  0  0  0  0
   10.5421    0.3528   21.2664 H   0  0  0  0  0  0  0  0  0  0  0  0
    9.7981    2.7523   21.1862 H   0  0  0  0  0  0  0  0  0  0  0  0
    8.1038    2.2445   21.1918 H   0  0  0  0  0  0  0  0  0  0  0  0
    7.0567    1.3820   25.7359 H   0  0  0  0  0  0  0  0  0  0  0  0
    9.1927    1.6059   26.9482 H   0  0  0  0  0  0  0  0  0  0  0  0
   11.3579    1.9973   25.6368 H   0  0  0  0  0  0  0  0  0  0  0  0
  1  2  1  0
  2  3  2  0
  3  4  1  0
  4  5  2  0
  5  6  1  0
  6  7  1  0
  6  8  2  0
  8  9  1  0
  9 10  1  0
 10 11  1  0
 11 12  2  0
 12 13  1  0
 13 14  1  0
 14 15  1  0
 15 16  1  0
 16 17  1  0
 17 18  1  0
 18 19  1  0
 18 20  1  0
 16 21  1  0
 16 22  1  0
 15 23  1  0
 15 24  1  0
 14 25  1  0
 13 26  2  0
 26 27  1  0
 27 28  1  0
 28 29  2  0
 29 30  1  0
 30 31  2  0
 31 32  1  0
 32 33  2  0
 33 34  1  0
 31 35  1  0
 30 36  1  0
 29 37  1  0
 10 38  1  0
 10 39  1  0
  9 40  1  0
  9 41  1  0
  5 42  1  0
  4 43  1  0
  3 44  1  0
  8  2  1  0
 27 11  1  0
 33 28  1  0
 18 14  1  0
M  END
>  <cnnaffinity>  (1) 
-6.0103

>  <filename>  (1) 
Fc1cccc(F)c1CCc1nc(C2CCOC2)nn1-c1cccnc1

$$$$
