
     RDKit          3D

 40 43  0  0  0  0  0  0  0  0999 V2000
   12.0739   -1.1916   21.3117 F   0  0  0  0  0  0  0  0  0  0  0  0
   11.8512   -0.0423   21.9710 C   0  0  0  0  0  0  0  0  0  0  0  0
   12.7551    0.3783   22.9355 C   0  0  0  0  0  0  0  0  0  0  0  0
   12.4548    1.5767   23.5920 C   0  0  0  0  0  0  0  0  0  0  0  0
   11.2893    2.2723   23.2518 C   0  0  0  0  0  0  0  0  0  0  0  0
   10.4187    1.8460   22.3200 N   0  0  0  0  0  0  0  0  0  0  0  0
   10.6899    0.7040   21.6841 C   0  0  0  0  0  0  0  0  0  0  0  0
    9.6639    0.2269   20.6930 C   0  0  0  0  0  0  0  0  0  0  0  0
    8.6328   -0.6115   21.3464 C   0  0  0  0  0  0  0  0  0  0  0  0
    8.8531   -1.4725   22.3132 N   0  0  0  0  0  0  0  0  0  0  0  0
    7.6231   -2.0013   22.5379 C   0  0  0  0  0  0  0  0  0  0  0  0
    7.3892   -2.9762   23.6356 C   0  0  0  0  0  0  0  0  0  0  0  0
    7.7437   -2.4553   25.0479 C   0  0  0  0  0  0  0  0  0  0  0  0
    8.1103   -3.7328   25.8104 C   0  0  0  0  0  0  0  0  0  0  0  0
    8.4195   -4.7188   24.8369 O   0  0  0  0  0  0  0  0  0  0  0  0
    8.2603   -4.2370   23.5177 C   0  0  0  0  0  0  0  0  0  0  0  0
    9.2415   -4.0198   23.0635 H   0  0  0  0  0  0  0  0  0  0  0  0
    7.7772   -5.0298   22.9318 H   0  0  0  0  0  0  0  0  0  0  0  0
    7.2783   -4.1015   26.4282 H   0  0  0  0  0  0  0  0  0  0  0  0
    8.9745   -3.5886   26.4748 H   0  0  0  0  0  0  0  0  0  0  0  0
    6.9143   -1.9193   25.5186 H   0  0  0  0  0  0  0  0  0  0  0  0
    8.6028   -1.7753   24.9930 H   0  0  0  0  0  0  0  0  0  0  0  0
    6.3347   -3.2559   23.5951 H   0  0  0  0  0  0  0  0  0  0  0  0
    6.6741   -1.5618   21.7422 N   0  0  0  0  0  0  0  0  0  0  0  0
    7.3312   -0.6858   20.9361 N   0  0  0  0  0  0  0  0  0  0  0  0
    6.6506    0.0040   19.9009 C   0  0  0  0  0  0  0  0  0  0  0  0
    5.4360    0.6460   20.1645 C   0  0  0  0  0  0  0  0  0  0  0  0
    4.8113    1.3118   19.1090 C   0  0  0  0  0  0  0  0  0  0  0  0
    5.4003    1.2953   17.8377 C   0  0  0  0  0  0  0  0  0  0  0  0
    6.5591    0.6720   17.5784 N   0  0  0  0  0  0  0  0  0  0  0  0
    7.1668    0.0510   18.5935 C   0  0  0  0  0  0  0  0  0  0  0  0
    8.1149   -0.4291   18.3655 H   0  0  0  0  0  0  0  0  0  0  0  0
    4.9209    1.7843   16.9936 H   0  0  0  0  0  0  0  0  0  0  0  0
    3.8797    1.8409   19.2604 H   0  0  0  0  0  0  0  0  0  0  0  0
    5.0163    0.6101   21.1728 H   0  0  0  0  0  0  0  0  0  0  0  0
    9.2057    1.0981   20.2238 H   0  0  0  0  0  0  0  0  0  0  0  0
   10.1014   -0.4144   19.9258 H   0  0  0  0  0  0  0  0  0  0  0  0
   11.0395    3.2034   23.7537 H   0  0  0  0  0  0  0  0  0  0  0  0
   13.1175    1.9600   24.3550 H   0  0  0  0  0  0  0  0  0  0  0  0
   13.6383   -0.2234   23.1490 H   0  0  0  0  0  0  0  0  0  0  0  0
  1  2  1  0
  2  3  2  0
  3  4  1  0
  4  5  2  0
  5  6  1  0
  6  7  2  0
  7  8  1  0
  8  9  1  0
  9 10  2  0
 10 11  1  0
 11 12  1  0
 12 13  1  0
 13 14  1  0
 14 15  1  0
 15 16  1  0
 16 17  1  0
 16 18  1  0
 14 19  1  0
 14 20  1  0
 13 21  1  0
 13 22  1  0
 12 23  1  0
 11 24  2  0
 24 25  1  0
 25 26  1  0
 26 27  2  0
 27 28  1  0
 28 29  2  0
 29 30  1  0
 30 31  2  0
 31 32  1  0
 29 33  1  0
 28 34  1  0
 27 35  1  0
  8 36  1  0
  8 37  1  0
  5 38  1  0
  4 39  1  0
  3 40  1  0
  7  2  1  0
 25  9  1  0
 31 26  1  0
 16 12  1  0
M  END
>  <cnnaffinity>  (1) 
-6.45475

>  <filename>  (1) 
Fc1cccnc1Cc1nc(C2CCOC2)nn1-c1cccnc1

$$$$
