
     RDKit          3D

 45 48  0  0  0  0  0  0  0  0999 V2000
   15.4197   -1.1755   19.9092 F   0  0  0  0  0  0  0  0  0  0  0  0
   14.4067   -1.1495   20.7777 C   0  0  0  0  0  0  0  0  0  0  0  0
   14.3059   -0.1244   21.7328 C   0  0  0  0  0  0  0  0  0  0  0  0
   13.0447    0.1678   22.2464 C   0  0  0  0  0  0  0  0  0  0  0  0
   11.9520   -0.6212   21.8494 C   0  0  0  0  0  0  0  0  0  0  0  0
   10.5505   -0.1737   21.8655 C   0  0  0  0  0  0  0  0  0  0  0  0
    9.5956   -0.9343   21.3456 N   0  0  0  0  0  0  0  0  0  0  0  0
    8.4907   -0.1838   21.4577 N   0  0  0  0  0  0  0  0  0  0  0  0
    7.2130   -0.7372   21.0178 C   0  0  0  0  0  0  0  0  0  0  0  0
    6.5441    0.0317   19.9033 C   0  0  0  0  0  0  0  0  0  0  0  0
    5.3236    0.6890   20.0806 C   0  0  0  0  0  0  0  0  0  0  0  0
    4.7528    1.3591   18.9957 C   0  0  0  0  0  0  0  0  0  0  0  0
    5.4301    1.3477   17.7723 C   0  0  0  0  0  0  0  0  0  0  0  0
    6.6022    0.7202   17.5805 N   0  0  0  0  0  0  0  0  0  0  0  0
    7.1393    0.0891   18.6315 C   0  0  0  0  0  0  0  0  0  0  0  0
    8.0911   -0.4105   18.4507 H   0  0  0  0  0  0  0  0  0  0  0  0
    5.0181    1.8665   16.9080 H   0  0  0  0  0  0  0  0  0  0  0  0
    3.8167    1.8994   19.0896 H   0  0  0  0  0  0  0  0  0  0  0  0
    4.8310    0.6781   21.0562 H   0  0  0  0  0  0  0  0  0  0  0  0
    6.5476   -0.8145   21.8857 H   0  0  0  0  0  0  0  0  0  0  0  0
    7.4422   -1.7584   20.6972 H   0  0  0  0  0  0  0  0  0  0  0  0
    8.8111    0.9726   22.0836 C   0  0  0  0  0  0  0  0  0  0  0  0
    7.8215    1.8180   22.7968 C   0  0  0  0  0  0  0  0  0  0  0  0
    7.6162    1.2242   24.2141 C   0  0  0  0  0  0  0  0  0  0  0  0
    6.5305    1.9055   24.9879 C   0  0  0  0  0  0  0  0  0  0  0  0
    5.1922    1.5099   24.8253 C   0  0  0  0  0  0  0  0  0  0  0  0
    4.2168    2.2108   25.5202 C   0  0  0  0  0  0  0  0  0  0  0  0
    2.9249    1.8665   25.3971 F   0  0  0  0  0  0  0  0  0  0  0  0
    4.5778    3.2777   26.3506 C   0  0  0  0  0  0  0  0  0  0  0  0
    5.8506    3.6630   26.5102 N   0  0  0  0  0  0  0  0  0  0  0  0
    6.7994    2.9884   25.8433 C   0  0  0  0  0  0  0  0  0  0  0  0
    7.8253    3.3214   26.0040 H   0  0  0  0  0  0  0  0  0  0  0  0
    3.8098    3.8279   26.8902 H   0  0  0  0  0  0  0  0  0  0  0  0
    4.9101    0.6697   24.1898 H   0  0  0  0  0  0  0  0  0  0  0  0
    7.3821    0.1532   24.1173 H   0  0  0  0  0  0  0  0  0  0  0  0
    8.5743    1.2744   24.7491 H   0  0  0  0  0  0  0  0  0  0  0  0
    8.2102    2.8367   22.8666 H   0  0  0  0  0  0  0  0  0  0  0  0
    6.8824    1.8543   22.2378 H   0  0  0  0  0  0  0  0  0  0  0  0
   10.1123    1.0160   22.3260 N   0  0  0  0  0  0  0  0  0  0  0  0
   12.1867   -1.8210   21.1644 C   0  0  0  0  0  0  0  0  0  0  0  0
   13.4075   -2.0838   20.5726 C   0  0  0  0  0  0  0  0  0  0  0  0
   13.5803   -2.9237   19.9051 H   0  0  0  0  0  0  0  0  0  0  0  0
   11.3169   -2.4422   21.0162 H   0  0  0  0  0  0  0  0  0  0  0  0
   12.9116    1.0568   22.8571 H   0  0  0  0  0  0  0  0  0  0  0  0
   15.1407    0.5321   21.9477 H   0  0  0  0  0  0  0  0  0  0  0  0
  1  2  1  0
  2  3  2  0
  3  4  1  0
  4  5  2  0
  5  6  1  0
  6  7  2  0
  7  8  1  0
  8  9  1  0
  9 10  1  0
 10 11  2  0
 11 12  1  0
 12 13  2  0
 13 14  1  0
 14 15  2  0
 15 16  1  0
 13 17  1  0
 12 18  1  0
 11 19  1  0
  9 20  1  0
  9 21  1  0
  8 22  1  0
 22 23  1  0
 23 24  1  0
 24 25  1  0
 25 26  2  0
 26 27  1  0
 27 28  1  0
 27 29  2  0
 29 30  1  0
 30 31  2  0
 31 32  1  0
 29 33  1  0
 26 34  1  0
 24 35  1  0
 24 36  1  0
 23 37  1  0
 23 38  1  0
 22 39  2  0
  5 40  1  0
 40 41  2  0
 41 42  1  0
 40 43  1  0
  4 44  1  0
  3 45  1  0
 41  2  1  0
 39  6  1  0
 15 10  1  0
 31 25  1  0
M  END
>  <cnnaffinity>  (1) 
-6.74863

>  <filename>  (1) 
Fc1ccc(-c2nc(CCc3cncc(F)c3)n(Cc3cccnc3)n2)cc1

$$$$
