
     RDKit          3D

 44 47  0  0  0  0  0  0  0  0999 V2000
    2.8201    3.8116   28.4146 F   0  0  0  0  0  0  0  0  0  0  0  0
    3.6492    3.4414   27.4225 C   0  0  0  0  0  0  0  0  0  0  0  0
    4.3916    4.4209   26.7559 C   0  0  0  0  0  0  0  0  0  0  0  0
    5.2507    4.0370   25.7269 C   0  0  0  0  0  0  0  0  0  0  0  0
    5.3673    2.6847   25.3666 C   0  0  0  0  0  0  0  0  0  0  0  0
    6.2373    2.4287   24.3526 O   0  0  0  0  0  0  0  0  0  0  0  0
    6.3941    1.1019   23.8909 C   0  0  0  0  0  0  0  0  0  0  0  0
    7.3947    1.1642   22.7420 C   0  0  0  0  0  0  0  0  0  0  0  0
    7.5983   -0.1836   22.1689 C   0  0  0  0  0  0  0  0  0  0  0  0
    8.1632   -1.1422   22.8662 N   0  0  0  0  0  0  0  0  0  0  0  0
    8.2770   -2.1448   21.9639 C   0  0  0  0  0  0  0  0  0  0  0  0
    9.0166   -3.3823   22.2949 C   0  0  0  0  0  0  0  0  0  0  0  0
    8.6125   -4.1356   23.5970 C   0  0  0  0  0  0  0  0  0  0  0  0
   10.0216   -3.8969   24.1825 C   0  0  0  0  0  0  0  0  0  0  0  0
   10.4231   -3.0914   22.9313 C   0  0  0  0  0  0  0  0  0  0  0  0
   10.5619   -2.0242   23.1441 H   0  0  0  0  0  0  0  0  0  0  0  0
   11.3129   -3.4050   22.3903 H   0  0  0  0  0  0  0  0  0  0  0  0
   10.0558   -3.3141   25.1057 H   0  0  0  0  0  0  0  0  0  0  0  0
   10.6041   -4.8074   24.3576 H   0  0  0  0  0  0  0  0  0  0  0  0
    7.7711   -3.6682   24.1166 H   0  0  0  0  0  0  0  0  0  0  0  0
    8.3765   -5.1932   23.4620 H   0  0  0  0  0  0  0  0  0  0  0  0
    8.9263   -3.9876   21.3935 H   0  0  0  0  0  0  0  0  0  0  0  0
    7.7731   -1.8968   20.7727 N   0  0  0  0  0  0  0  0  0  0  0  0
    7.3020   -0.6275   20.9142 N   0  0  0  0  0  0  0  0  0  0  0  0
    6.6087    0.0348   19.8726 C   0  0  0  0  0  0  0  0  0  0  0  0
    5.4036    0.7067   20.1182 C   0  0  0  0  0  0  0  0  0  0  0  0
    4.7835    1.3520   19.0425 C   0  0  0  0  0  0  0  0  0  0  0  0
    5.4001    1.3110   17.7885 C   0  0  0  0  0  0  0  0  0  0  0  0
    6.5519    0.6570   17.5492 N   0  0  0  0  0  0  0  0  0  0  0  0
    7.1346    0.0249   18.5711 C   0  0  0  0  0  0  0  0  0  0  0  0
    8.0620   -0.5088   18.3685 H   0  0  0  0  0  0  0  0  0  0  0  0
    4.9539    1.8159   16.9356 H   0  0  0  0  0  0  0  0  0  0  0  0
    3.8505    1.8909   19.1759 H   0  0  0  0  0  0  0  0  0  0  0  0
    4.9640    0.7124   21.1164 H   0  0  0  0  0  0  0  0  0  0  0  0
    7.0694    1.8777   21.9819 H   0  0  0  0  0  0  0  0  0  0  0  0
    8.3530    1.5151   23.1411 H   0  0  0  0  0  0  0  0  0  0  0  0
    6.7638    0.4539   24.7016 H   0  0  0  0  0  0  0  0  0  0  0  0
    5.4259    0.7029   23.5521 H   0  0  0  0  0  0  0  0  0  0  0  0
    4.6127    1.7165   26.0464 C   0  0  0  0  0  0  0  0  0  0  0  0
    3.7495    2.1000   27.0810 C   0  0  0  0  0  0  0  0  0  0  0  0
    3.1564    1.3675   27.6238 H   0  0  0  0  0  0  0  0  0  0  0  0
    4.7039    0.6700   25.7680 H   0  0  0  0  0  0  0  0  0  0  0  0
    5.8481    4.7606   25.1784 H   0  0  0  0  0  0  0  0  0  0  0  0
    4.2822    5.4577   27.0538 H   0  0  0  0  0  0  0  0  0  0  0  0
  1  2  1  0
  2  3  2  0
  3  4  1  0
  4  5  2  0
  5  6  1  0
  6  7  1  0
  7  8  1  0
  8  9  1  0
  9 10  2  0
 10 11  1  0
 11 12  1  0
 12 13  1  0
 13 14  1  0
 14 15  1  0
 15 16  1  0
 15 17  1  0
 14 18  1  0
 14 19  1  0
 13 20  1  0
 13 21  1  0
 12 22  1  0
 11 23  2  0
 23 24  1  0
 24 25  1  0
 25 26  2  0
 26 27  1  0
 27 28  2  0
 28 29  1  0
 29 30  2  0
 30 31  1  0
 28 32  1  0
 27 33  1  0
 26 34  1  0
  8 35  1  0
  8 36  1  0
  7 37  1  0
  7 38  1  0
  5 39  1  0
 39 40  2  0
 40 41  1  0
 39 42  1  0
  4 43  1  0
  3 44  1  0
 40  2  1  0
 24  9  1  0
 30 25  1  0
 15 12  1  0
M  END
>  <cnnaffinity>  (1) 
-5.97179

>  <filename>  (1) 
Fc1ccc(OCCc2nc(C3CCC3)nn2-c2cccnc2)cc1

$$$$
