
     RDKit          3D

 45 48  0  0  0  0  0  0  0  0999 V2000
    7.2131    6.0747   26.1185 F   0  0  0  0  0  0  0  0  0  0  0  0
    7.6392    5.0872   25.3242 C   0  0  0  0  0  0  0  0  0  0  0  0
    7.7004    5.2832   23.9543 C   0  0  0  0  0  0  0  0  0  0  0  0
    8.1422    4.2565   23.1086 C   0  0  0  0  0  0  0  0  0  0  0  0
    8.5318    3.0223   23.6437 C   0  0  0  0  0  0  0  0  0  0  0  0
    8.9824    1.9630   22.9232 O   0  0  0  0  0  0  0  0  0  0  0  0
    9.0414    2.0143   21.5003 C   0  0  0  0  0  0  0  0  0  0  0  0
    9.5108    0.6444   21.0063 C   0  0  0  0  0  0  0  0  0  0  0  0
    8.6277   -0.4611   21.4469 C   0  0  0  0  0  0  0  0  0  0  0  0
    8.8774   -1.3102   22.4230 N   0  0  0  0  0  0  0  0  0  0  0  0
    7.7016   -1.9646   22.5569 C   0  0  0  0  0  0  0  0  0  0  0  0
    7.4486   -2.9357   23.6570 C   0  0  0  0  0  0  0  0  0  0  0  0
    6.4174   -2.4626   24.7132 C   0  0  0  0  0  0  0  0  0  0  0  0
    5.8064   -3.7722   25.2208 C   0  0  0  0  0  0  0  0  0  0  0  0
    6.0970   -4.7666   24.2483 O   0  0  0  0  0  0  0  0  0  0  0  0
    6.8520   -4.2625   23.1656 C   0  0  0  0  0  0  0  0  0  0  0  0
    7.6166   -5.0092   22.9145 H   0  0  0  0  0  0  0  0  0  0  0  0
    6.2168   -4.1136   22.2758 H   0  0  0  0  0  0  0  0  0  0  0  0
    6.2348   -4.0864   26.1834 H   0  0  0  0  0  0  0  0  0  0  0  0
    4.7173   -3.7005   25.3554 H   0  0  0  0  0  0  0  0  0  0  0  0
    5.6564   -1.8413   24.2363 H   0  0  0  0  0  0  0  0  0  0  0  0
    6.8618   -1.8650   25.5142 H   0  0  0  0  0  0  0  0  0  0  0  0
    8.4130   -3.1140   24.1343 H   0  0  0  0  0  0  0  0  0  0  0  0
    6.7638   -1.6194   21.6932 N   0  0  0  0  0  0  0  0  0  0  0  0
    7.3713   -0.6576   20.9514 N   0  0  0  0  0  0  0  0  0  0  0  0
    6.6603    0.0081   19.9072 C   0  0  0  0  0  0  0  0  0  0  0  0
    5.4396    0.6395   20.1700 C   0  0  0  0  0  0  0  0  0  0  0  0
    4.8144    1.3076   19.1110 C   0  0  0  0  0  0  0  0  0  0  0  0
    5.4009    1.2960   17.8386 C   0  0  0  0  0  0  0  0  0  0  0  0
    6.5592    0.6709   17.5771 N   0  0  0  0  0  0  0  0  0  0  0  0
    7.1671    0.0503   18.5951 C   0  0  0  0  0  0  0  0  0  0  0  0
    8.1102   -0.4374   18.3642 H   0  0  0  0  0  0  0  0  0  0  0  0
    4.9231    1.7880   16.9935 H   0  0  0  0  0  0  0  0  0  0  0  0
    3.8824    1.8375   19.2592 H   0  0  0  0  0  0  0  0  0  0  0  0
    5.0126    0.6083   21.1772 H   0  0  0  0  0  0  0  0  0  0  0  0
    9.5568    0.6600   19.9169 H   0  0  0  0  0  0  0  0  0  0  0  0
   10.5129    0.4202   21.3702 H   0  0  0  0  0  0  0  0  0  0  0  0
    8.0548    2.2494   21.0747 H   0  0  0  0  0  0  0  0  0  0  0  0
    9.7514    2.7853   21.1749 H   0  0  0  0  0  0  0  0  0  0  0  0
    8.4701    2.8254   25.0358 C   0  0  0  0  0  0  0  0  0  0  0  0
    8.0129    3.8498   25.8637 C   0  0  0  0  0  0  0  0  0  0  0  0
    7.8392    3.5803   27.5555 Cl  0  0  0  0  0  0  0  0  0  0  0  0
    8.7665    1.8778   25.4718 H   0  0  0  0  0  0  0  0  0  0  0  0
    8.1861    4.4250   22.0393 H   0  0  0  0  0  0  0  0  0  0  0  0
    7.3886    6.2464   23.5673 H   0  0  0  0  0  0  0  0  0  0  0  0
  1  2  1  0
  2  3  2  0
  3  4  1  0
  4  5  2  0
  5  6  1  0
  6  7  1  0
  7  8  1  0
  8  9  1  0
  9 10  2  0
 10 11  1  0
 11 12  1  0
 12 13  1  0
 13 14  1  0
 14 15  1  0
 15 16  1  0
 16 17  1  0
 16 18  1  0
 14 19  1  0
 14 20  1  0
 13 21  1  0
 13 22  1  0
 12 23  1  0
 11 24  2  0
 24 25  1  0
 25 26  1  0
 26 27  2  0
 27 28  1  0
 28 29  2  0
 29 30  1  0
 30 31  2  0
 31 32  1  0
 29 33  1  0
 28 34  1  0
 27 35  1  0
  8 36  1  0
  8 37  1  0
  7 38  1  0
  7 39  1  0
  5 40  1  0
 40 41  2  0
 41 42  1  0
 40 43  1  0
  4 44  1  0
  3 45  1  0
 41  2  1  0
 25  9  1  0
 31 26  1  0
 16 12  1  0
M  END
>  <cnnaffinity>  (1) 
-6.18714

>  <filename>  (1) 
Fc1ccc(OCCc2nc(C3CCOC3)nn2-c2cccnc2)cc1Cl

$$$$
