
     RDKit          3D

 38 41  0  0  0  0  0  0  0  0999 V2000
    7.3864    4.7249   22.0998 F   0  0  0  0  0  0  0  0  0  0  0  0
    7.1378    3.5855   22.7663 C   0  0  0  0  0  0  0  0  0  0  0  0
    6.6483    3.6598   24.0682 C   0  0  0  0  0  0  0  0  0  0  0  0
    6.4303    2.4704   24.7704 C   0  0  0  0  0  0  0  0  0  0  0  0
    6.6860    1.2384   24.1704 C   0  0  0  0  0  0  0  0  0  0  0  0
    7.1375    1.1757   22.8372 C   0  0  0  0  0  0  0  0  0  0  0  0
    7.4005   -0.1680   22.2687 C   0  0  0  0  0  0  0  0  0  0  0  0
    7.8819   -1.1547   22.9974 N   0  0  0  0  0  0  0  0  0  0  0  0
    8.1348   -2.1258   22.0942 C   0  0  0  0  0  0  0  0  0  0  0  0
    8.7201   -3.4126   22.5646 C   0  0  0  0  0  0  0  0  0  0  0  0
    7.8557   -4.2142   23.5635 C   0  0  0  0  0  0  0  0  0  0  0  0
    8.9074   -5.0347   24.3148 C   0  0  0  0  0  0  0  0  0  0  0  0
   10.1035   -4.2696   24.2869 O   0  0  0  0  0  0  0  0  0  0  0  0
   10.0168   -3.1942   23.3693 C   0  0  0  0  0  0  0  0  0  0  0  0
    9.9874   -2.2433   23.9230 H   0  0  0  0  0  0  0  0  0  0  0  0
   10.9168   -3.1738   22.7384 H   0  0  0  0  0  0  0  0  0  0  0  0
    9.0936   -6.0152   23.8494 H   0  0  0  0  0  0  0  0  0  0  0  0
    8.6261   -5.2305   25.3568 H   0  0  0  0  0  0  0  0  0  0  0  0
    7.3228   -3.5374   24.2455 H   0  0  0  0  0  0  0  0  0  0  0  0
    7.1085   -4.8405   23.0694 H   0  0  0  0  0  0  0  0  0  0  0  0
    8.9072   -4.0240   21.6849 H   0  0  0  0  0  0  0  0  0  0  0  0
    7.8191   -1.8346   20.8525 N   0  0  0  0  0  0  0  0  0  0  0  0
    7.2992   -0.5742   20.9628 N   0  0  0  0  0  0  0  0  0  0  0  0
    6.6110    0.0253   19.8701 C   0  0  0  0  0  0  0  0  0  0  0  0
    5.3991    0.7017   20.0772 C   0  0  0  0  0  0  0  0  0  0  0  0
    4.8146    1.3446   18.9844 C   0  0  0  0  0  0  0  0  0  0  0  0
    5.4551    1.2916   17.7431 C   0  0  0  0  0  0  0  0  0  0  0  0
    6.5924    0.6052   17.5302 N   0  0  0  0  0  0  0  0  0  0  0  0
    7.1417   -0.0328   18.5682 C   0  0  0  0  0  0  0  0  0  0  0  0
    8.0431   -0.6091   18.3677 H   0  0  0  0  0  0  0  0  0  0  0  0
    5.0359    1.8051   16.8807 H   0  0  0  0  0  0  0  0  0  0  0  0
    3.8805    1.8877   19.0872 H   0  0  0  0  0  0  0  0  0  0  0  0
    4.9467    0.7430   21.0693 H   0  0  0  0  0  0  0  0  0  0  0  0
    7.3872    2.3726   22.1348 C   0  0  0  0  0  0  0  0  0  0  0  0
    7.7670    2.3906   21.1172 H   0  0  0  0  0  0  0  0  0  0  0  0
    6.5587    0.3166   24.7348 H   0  0  0  0  0  0  0  0  0  0  0  0
    6.0771    2.5049   25.7984 H   0  0  0  0  0  0  0  0  0  0  0  0
    6.4716    4.6326   24.5105 H   0  0  0  0  0  0  0  0  0  0  0  0
  1  2  1  0
  2  3  2  0
  3  4  1  0
  4  5  2  0
  5  6  1  0
  6  7  1  0
  7  8  2  0
  8  9  1  0
  9 10  1  0
 10 11  1  0
 11 12  1  0
 12 13  1  0
 13 14  1  0
 14 15  1  0
 14 16  1  0
 12 17  1  0
 12 18  1  0
 11 19  1  0
 11 20  1  0
 10 21  1  0
  9 22  2  0
 22 23  1  0
 23 24  1  0
 24 25  2  0
 25 26  1  0
 26 27  2  0
 27 28  1  0
 28 29  2  0
 29 30  1  0
 27 31  1  0
 26 32  1  0
 25 33  1  0
  6 34  2  0
 34 35  1  0
  5 36  1  0
  4 37  1  0
  3 38  1  0
 34  2  1  0
 23  7  1  0
 29 24  1  0
 14 10  1  0
M  END
>  <cnnaffinity>  (1) 
-5.68454

>  <filename>  (1) 
Fc1cccc(-c2nc(C3CCOC3)nn2-c2cccnc2)c1

$$$$
