
     RDKit          3D

 35 38  0  0  0  0  0  0  0  0999 V2000
    4.9624    1.7959   16.9116 H   0  0  0  0  0  0  0  0  0  0  0  0
    5.4418    1.3183   17.7647 C   0  0  0  0  0  0  0  0  0  0  0  0
    6.6105    0.7060   17.5218 N   0  0  0  0  0  0  0  0  0  0  0  0
    7.2162    0.1006   18.5489 C   0  0  0  0  0  0  0  0  0  0  0  0
    8.1585   -0.3954   18.3274 H   0  0  0  0  0  0  0  0  0  0  0  0
    6.6990    0.0730   19.8577 C   0  0  0  0  0  0  0  0  0  0  0  0
    7.3865   -0.6718   20.9294 C   0  0  0  0  0  0  0  0  0  0  0  0
    8.5980   -1.2189   20.7455 N   0  0  0  0  0  0  0  0  0  0  0  0
    8.7794   -1.9109   21.8917 N   0  0  0  0  0  0  0  0  0  0  0  0
    9.7534   -2.7629   22.3837 C   0  0  0  0  0  0  0  0  0  0  0  0
   10.7067   -2.8557   21.8992 H   0  0  0  0  0  0  0  0  0  0  0  0
    9.2444   -3.2895   23.5271 C   0  0  0  0  0  0  0  0  0  0  0  0
    9.6829   -4.0313   24.1795 H   0  0  0  0  0  0  0  0  0  0  0  0
    7.9873   -2.7377   23.7740 N   0  0  0  0  0  0  0  0  0  0  0  0
    6.9869   -3.1904   24.7402 C   0  0  0  0  0  0  0  0  0  0  0  0
    7.5180   -3.6122   25.6016 H   0  0  0  0  0  0  0  0  0  0  0  0
    6.4415   -2.3045   25.0875 H   0  0  0  0  0  0  0  0  0  0  0  0
    6.0083   -4.2146   24.1632 C   0  0  0  0  0  0  0  0  0  0  0  0
    4.7018   -3.8385   23.8056 C   0  0  0  0  0  0  0  0  0  0  0  0
    4.3431   -2.8425   24.0613 H   0  0  0  0  0  0  0  0  0  0  0  0
    3.8539   -4.7374   23.1424 C   0  0  0  0  0  0  0  0  0  0  0  0
    2.8391   -4.4536   22.8727 H   0  0  0  0  0  0  0  0  0  0  0  0
    4.3060   -6.0198   22.8199 C   0  0  0  0  0  0  0  0  0  0  0  0
    3.6922   -6.7218   22.2641 H   0  0  0  0  0  0  0  0  0  0  0  0
    5.5892   -6.3941   23.2152 C   0  0  0  0  0  0  0  0  0  0  0  0
    6.0256   -7.6156   22.8641 F   0  0  0  0  0  0  0  0  0  0  0  0
    6.4392   -5.5279   23.9002 C   0  0  0  0  0  0  0  0  0  0  0  0
    7.4352   -5.8659   24.1829 H   0  0  0  0  0  0  0  0  0  0  0  0
    7.7341   -1.8596   22.7429 C   0  0  0  0  0  0  0  0  0  0  0  0
    6.8208   -0.9753   22.1941 C   0  0  0  0  0  0  0  0  0  0  0  0
    6.0048   -0.4637   22.6663 H   0  0  0  0  0  0  0  0  0  0  0  0
    5.4728    0.7192   20.0918 C   0  0  0  0  0  0  0  0  0  0  0  0
    5.0218    0.7346   21.0870 H   0  0  0  0  0  0  0  0  0  0  0  0
    4.8357    1.3472   19.0257 C   0  0  0  0  0  0  0  0  0  0  0  0
    3.8851    1.8518   19.1586 H   0  0  0  0  0  0  0  0  0  0  0  0
  1  2  1  0
  2  3  2  0
  3  4  1  0
  4  5  1  0
  4  6  2  0
  6  7  1  0
  7  8  2  0
  8  9  1  0
  9 10  1  0
 10 11  1  0
 10 12  2  0
 12 13  1  0
 12 14  1  0
 14 15  1  0
 15 16  1  0
 15 17  1  0
 15 18  1  0
 18 19  2  0
 19 20  1  0
 19 21  1  0
 21 22  1  0
 21 23  2  0
 23 24  1  0
 23 25  1  0
 25 26  1  0
 25 27  2  0
 27 28  1  0
 14 29  1  0
 29 30  2  0
 30 31  1  0
  6 32  1  0
 32 33  1  0
 32 34  2  0
 34 35  1  0
 34  2  1  0
 30  7  1  0
 29  9  1  0
 27 18  1  0
M  END
>  <cnnaffinity>  (1) 
-5.68219

>  <filename>  (1) 
Fc1cccc(Cn2ccn3nc(-c4cccnc4)cc23)c1

$$$$
