
     RDKit          3D

 44 47  0  0  0  0  0  0  0  0999 V2000
   13.8807   -2.2506   21.1812 F   0  0  0  0  0  0  0  0  0  0  0  0
   13.0658   -1.4370   21.8664 C   0  0  0  0  0  0  0  0  0  0  0  0
   13.6356   -0.5056   22.7481 C   0  0  0  0  0  0  0  0  0  0  0  0
   12.9009    0.3343   23.4843 N   0  0  0  0  0  0  0  0  0  0  0  0
   11.5730    0.2942   23.3354 C   0  0  0  0  0  0  0  0  0  0  0  0
   10.9217   -0.5892   22.4578 C   0  0  0  0  0  0  0  0  0  0  0  0
    9.4750   -0.4064   22.3243 C   0  0  0  0  0  0  0  0  0  0  0  0
    8.6506   -1.1895   21.6557 N   0  0  0  0  0  0  0  0  0  0  0  0
    7.4515   -0.5625   21.7949 N   0  0  0  0  0  0  0  0  0  0  0  0
    6.3049   -0.9850   20.9969 C   0  0  0  0  0  0  0  0  0  0  0  0
    6.0075   -0.0795   19.8177 C   0  0  0  0  0  0  0  0  0  0  0  0
    4.8332    0.6774   19.7193 C   0  0  0  0  0  0  0  0  0  0  0  0
    4.6632    1.5061   18.6078 C   0  0  0  0  0  0  0  0  0  0  0  0
    5.6601    1.5262   17.6287 C   0  0  0  0  0  0  0  0  0  0  0  0
    6.7882    0.8052   17.7000 N   0  0  0  0  0  0  0  0  0  0  0  0
    6.9521    0.0378   18.7836 C   0  0  0  0  0  0  0  0  0  0  0  0
    7.8881   -0.5186   18.8369 H   0  0  0  0  0  0  0  0  0  0  0  0
    5.5538    2.1483   16.7435 H   0  0  0  0  0  0  0  0  0  0  0  0
    3.7867    2.1339   18.4885 H   0  0  0  0  0  0  0  0  0  0  0  0
    4.0564    0.6164   20.4867 H   0  0  0  0  0  0  0  0  0  0  0  0
    5.4354   -1.0476   21.6462 H   0  0  0  0  0  0  0  0  0  0  0  0
    6.5175   -2.0075   20.6754 H   0  0  0  0  0  0  0  0  0  0  0  0
    7.6165    0.5661   22.5315 C   0  0  0  0  0  0  0  0  0  0  0  0
    6.5920    1.5357   23.0494 C   0  0  0  0  0  0  0  0  0  0  0  0
    6.5625    1.5150   24.5987 C   0  0  0  0  0  0  0  0  0  0  0  0
    5.5430    2.3744   25.3050 C   0  0  0  0  0  0  0  0  0  0  0  0
    5.9042    3.4334   26.1524 C   0  0  0  0  0  0  0  0  0  0  0  0
    4.9211    4.0477   26.9280 C   0  0  0  0  0  0  0  0  0  0  0  0
    3.6278    3.7004   26.9077 N   0  0  0  0  0  0  0  0  0  0  0  0
    3.2945    2.7380   26.0636 C   0  0  0  0  0  0  0  0  0  0  0  0
    1.6205    2.2751   26.0434 Cl  0  0  0  0  0  0  0  0  0  0  0  0
    4.1860    2.0540   25.2332 C   0  0  0  0  0  0  0  0  0  0  0  0
    3.8187    1.2662   24.5901 H   0  0  0  0  0  0  0  0  0  0  0  0
    5.1811    4.8388   27.6273 H   0  0  0  0  0  0  0  0  0  0  0  0
    6.9333    3.7628   26.2272 H   0  0  0  0  0  0  0  0  0  0  0  0
    6.3966    0.4820   24.9330 H   0  0  0  0  0  0  0  0  0  0  0  0
    7.5679    1.7810   24.9394 H   0  0  0  0  0  0  0  0  0  0  0  0
    6.9127    2.5279   22.7093 H   0  0  0  0  0  0  0  0  0  0  0  0
    5.6101    1.3484   22.6072 H   0  0  0  0  0  0  0  0  0  0  0  0
    8.8866    0.6911   22.8570 N   0  0  0  0  0  0  0  0  0  0  0  0
   11.6861   -1.5027   21.7058 C   0  0  0  0  0  0  0  0  0  0  0  0
   11.2194   -2.2115   21.0212 H   0  0  0  0  0  0  0  0  0  0  0  0
   10.9885    0.9807   23.9388 H   0  0  0  0  0  0  0  0  0  0  0  0
   14.7152   -0.4572   22.8633 H   0  0  0  0  0  0  0  0  0  0  0  0
  1  2  1  0
  2  3  2  0
  3  4  1  0
  4  5  2  0
  5  6  1  0
  6  7  1  0
  7  8  2  0
  8  9  1  0
  9 10  1  0
 10 11  1  0
 11 12  2  0
 12 13  1  0
 13 14  2  0
 14 15  1  0
 15 16  2  0
 16 17  1  0
 14 18  1  0
 13 19  1  0
 12 20  1  0
 10 21  1  0
 10 22  1  0
  9 23  1  0
 23 24  1  0
 24 25  1  0
 25 26  1  0
 26 27  2  0
 27 28  1  0
 28 29  2  0
 29 30  1  0
 30 31  1  0
 30 32  2  0
 32 33  1  0
 28 34  1  0
 27 35  1  0
 25 36  1  0
 25 37  1  0
 24 38  1  0
 24 39  1  0
 23 40  2  0
  6 41  2  0
 41 42  1  0
  5 43  1  0
  3 44  1  0
 41  2  1  0
 40  7  1  0
 16 11  1  0
 32 26  1  0
M  END
>  <cnnaffinity>  (1) 
-6.24379

>  <filename>  (1) 
Fc1cncc(-c2nc(CCc3ccnc(Cl)c3)n(Cc3cccnc3)n2)c1

$$$$
