
     RDKit          3D

 28 30  0  0  0  0  0  0  0  0999 V2000
    4.9121    1.7780   16.9971 H   0  0  0  0  0  0  0  0  0  0  0  0
    5.4018    1.2934   17.8383 C   0  0  0  0  0  0  0  0  0  0  0  0
    6.5675    0.6758   17.5837 N   0  0  0  0  0  0  0  0  0  0  0  0
    7.1802    0.0630   18.6015 C   0  0  0  0  0  0  0  0  0  0  0  0
    8.1194   -0.4345   18.3721 H   0  0  0  0  0  0  0  0  0  0  0  0
    6.6631    0.0081   19.9084 C   0  0  0  0  0  0  0  0  0  0  0  0
    7.3616   -0.6809   20.9385 N   0  0  0  0  0  0  0  0  0  0  0  0
    8.7378   -0.8043   21.0584 C   0  0  0  0  0  0  0  0  0  0  0  0
    9.4056   -0.3335   20.3436 H   0  0  0  0  0  0  0  0  0  0  0  0
    9.0085   -1.5296   22.1777 C   0  0  0  0  0  0  0  0  0  0  0  0
    9.9955   -1.7696   22.5456 H   0  0  0  0  0  0  0  0  0  0  0  0
    7.7679   -1.8873   22.7958 C   0  0  0  0  0  0  0  0  0  0  0  0
    7.5891   -2.6749   24.0234 C   0  0  0  0  0  0  0  0  0  0  0  0
    6.3595   -2.7034   24.7121 C   0  0  0  0  0  0  0  0  0  0  0  0
    5.5186   -2.1255   24.3421 H   0  0  0  0  0  0  0  0  0  0  0  0
    6.1445   -3.4077   25.8317 N   0  0  0  0  0  0  0  0  0  0  0  0
    7.1672   -4.1218   26.3235 C   0  0  0  0  0  0  0  0  0  0  0  0
    6.9981   -4.6929   27.2299 H   0  0  0  0  0  0  0  0  0  0  0  0
    8.4238   -4.1497   25.7094 C   0  0  0  0  0  0  0  0  0  0  0  0
    9.4134   -4.8799   26.2411 F   0  0  0  0  0  0  0  0  0  0  0  0
    8.6529   -3.4271   24.5514 C   0  0  0  0  0  0  0  0  0  0  0  0
    9.6289   -3.4610   24.0745 H   0  0  0  0  0  0  0  0  0  0  0  0
    6.7866   -1.3471   22.0005 C   0  0  0  0  0  0  0  0  0  0  0  0
    5.7125   -1.4155   22.0741 H   0  0  0  0  0  0  0  0  0  0  0  0
    5.4402    0.6484   20.1618 C   0  0  0  0  0  0  0  0  0  0  0  0
    5.0081    0.6384   21.1662 H   0  0  0  0  0  0  0  0  0  0  0  0
    4.8083    1.3105   19.1073 C   0  0  0  0  0  0  0  0  0  0  0  0
    3.8731    1.8434   19.2645 H   0  0  0  0  0  0  0  0  0  0  0  0
  1  2  1  0
  2  3  2  0
  3  4  1  0
  4  5  1  0
  4  6  2  0
  6  7  1  0
  7  8  1  0
  8  9  1  0
  8 10  2  0
 10 11  1  0
 10 12  1  0
 12 13  1  0
 13 14  2  0
 14 15  1  0
 14 16  1  0
 16 17  2  0
 17 18  1  0
 17 19  1  0
 19 20  1  0
 19 21  2  0
 21 22  1  0
 12 23  2  0
 23 24  1  0
  6 25  1  0
 25 26  1  0
 25 27  2  0
 27 28  1  0
 27  2  1  0
 23  7  1  0
 21 13  1  0
M  END
>  <cnnaffinity>  (1) 
-5.17342

>  <filename>  (1) 
Fc1cncc(-c2ccn(-c3cccnc3)c2)c1

$$$$
