
     RDKit          3D

 45 48  0  0  0  0  0  0  0  0999 V2000
    7.6869    7.1914   25.2018 F   0  0  0  0  0  0  0  0  0  0  0  0
    7.7653    6.0946   24.4274 C   0  0  0  0  0  0  0  0  0  0  0  0
    8.2127    6.2201   23.1166 C   0  0  0  0  0  0  0  0  0  0  0  0
    8.2451    5.0835   22.3028 C   0  0  0  0  0  0  0  0  0  0  0  0
    7.9099    3.8199   22.8132 C   0  0  0  0  0  0  0  0  0  0  0  0
    8.0716    2.5767   21.9687 C   0  0  0  0  0  0  0  0  0  0  0  0
    9.7637    1.9085   22.1144 S   0  0  0  0  0  0  0  0  0  0  0  0
    9.6111    0.5039   20.9650 C   0  0  0  0  0  0  0  0  0  0  0  0
    8.6502   -0.5451   21.3951 C   0  0  0  0  0  0  0  0  0  0  0  0
    8.8786   -1.4348   22.3417 N   0  0  0  0  0  0  0  0  0  0  0  0
    7.6776   -2.0377   22.4960 C   0  0  0  0  0  0  0  0  0  0  0  0
    7.4389   -3.0388   23.5781 C   0  0  0  0  0  0  0  0  0  0  0  0
    6.3877   -2.6279   24.6430 C   0  0  0  0  0  0  0  0  0  0  0  0
    5.8027   -3.9691   25.1016 C   0  0  0  0  0  0  0  0  0  0  0  0
    6.1242   -4.9281   24.1068 O   0  0  0  0  0  0  0  0  0  0  0  0
    6.8685   -4.3635   23.0495 C   0  0  0  0  0  0  0  0  0  0  0  0
    6.2257   -4.1962   22.1704 H   0  0  0  0  0  0  0  0  0  0  0  0
    7.6491   -5.0798   22.7606 H   0  0  0  0  0  0  0  0  0  0  0  0
    6.2203   -4.3033   26.0619 H   0  0  0  0  0  0  0  0  0  0  0  0
    4.7099   -3.9349   25.2149 H   0  0  0  0  0  0  0  0  0  0  0  0
    5.6043   -2.0174   24.1850 H   0  0  0  0  0  0  0  0  0  0  0  0
    6.8081   -2.0367   25.4649 H   0  0  0  0  0  0  0  0  0  0  0  0
    8.4162   -3.2051   24.0454 H   0  0  0  0  0  0  0  0  0  0  0  0
    6.7357   -1.6252   21.6645 N   0  0  0  0  0  0  0  0  0  0  0  0
    7.3690   -0.6729   20.9356 N   0  0  0  0  0  0  0  0  0  0  0  0
    6.6717    0.0002   19.8932 C   0  0  0  0  0  0  0  0  0  0  0  0
    5.4525    0.6331   20.1571 C   0  0  0  0  0  0  0  0  0  0  0  0
    4.8094    1.3029   19.1112 C   0  0  0  0  0  0  0  0  0  0  0  0
    5.3992    1.2923   17.8404 C   0  0  0  0  0  0  0  0  0  0  0  0
    6.5435    0.6494   17.5673 N   0  0  0  0  0  0  0  0  0  0  0  0
    7.1635    0.0216   18.5732 C   0  0  0  0  0  0  0  0  0  0  0  0
    8.0927   -0.4863   18.3262 H   0  0  0  0  0  0  0  0  0  0  0  0
    4.9335    1.8168   17.0097 H   0  0  0  0  0  0  0  0  0  0  0  0
    3.8748    1.8417   19.2649 H   0  0  0  0  0  0  0  0  0  0  0  0
    5.0203    0.5915   21.1587 H   0  0  0  0  0  0  0  0  0  0  0  0
    9.3309    0.8668   19.9776 H   0  0  0  0  0  0  0  0  0  0  0  0
   10.6088    0.0586   20.9166 H   0  0  0  0  0  0  0  0  0  0  0  0
    7.8875    2.7870   20.9142 H   0  0  0  0  0  0  0  0  0  0  0  0
    7.3666    1.7967   22.2728 H   0  0  0  0  0  0  0  0  0  0  0  0
    7.4599    3.7330   24.1396 C   0  0  0  0  0  0  0  0  0  0  0  0
    7.3750    4.8676   24.9549 C   0  0  0  0  0  0  0  0  0  0  0  0
    7.0019    4.8309   25.9720 H   0  0  0  0  0  0  0  0  0  0  0  0
    7.1647    2.7675   24.5469 H   0  0  0  0  0  0  0  0  0  0  0  0
    8.5085    5.1939   21.2530 H   0  0  0  0  0  0  0  0  0  0  0  0
    8.5179    7.1930   22.7521 H   0  0  0  0  0  0  0  0  0  0  0  0
  1  2  1  0
  2  3  2  0
  3  4  1  0
  4  5  2  0
  5  6  1  0
  6  7  1  0
  7  8  1  0
  8  9  1  0
  9 10  2  0
 10 11  1  0
 11 12  1  0
 12 13  1  0
 13 14  1  0
 14 15  1  0
 15 16  1  0
 16 17  1  0
 16 18  1  0
 14 19  1  0
 14 20  1  0
 13 21  1  0
 13 22  1  0
 12 23  1  0
 11 24  2  0
 24 25  1  0
 25 26  1  0
 26 27  2  0
 27 28  1  0
 28 29  2  0
 29 30  1  0
 30 31  2  0
 31 32  1  0
 29 33  1  0
 28 34  1  0
 27 35  1  0
  8 36  1  0
  8 37  1  0
  6 38  1  0
  6 39  1  0
  5 40  1  0
 40 41  2  0
 41 42  1  0
 40 43  1  0
  4 44  1  0
  3 45  1  0
 41  2  1  0
 25  9  1  0
 31 26  1  0
 16 12  1  0
M  END
>  <cnnaffinity>  (1) 
-5.75642

>  <filename>  (1) 
Fc1ccc(CSCc2nc(C3CCOC3)nn2-c2cccnc2)cc1

$$$$
