
     RDKit          3D

 44 47  0  0  0  0  0  0  0  0999 V2000
   11.1378    1.7549   25.8163 F   0  0  0  0  0  0  0  0  0  0  0  0
    9.9936    1.8731   25.1507 C   0  0  0  0  0  0  0  0  0  0  0  0
    8.7970    1.7026   25.8334 C   0  0  0  0  0  0  0  0  0  0  0  0
    7.6610    1.5959   25.0382 C   0  0  0  0  0  0  0  0  0  0  0  0
    6.4896    1.3201   25.6357 F   0  0  0  0  0  0  0  0  0  0  0  0
    7.7049    1.7225   23.6515 C   0  0  0  0  0  0  0  0  0  0  0  0
    8.9263    1.9995   23.0132 C   0  0  0  0  0  0  0  0  0  0  0  0
    9.0464    2.0016   21.5078 C   0  0  0  0  0  0  0  0  0  0  0  0
    9.5168    0.6259   20.9590 C   0  0  0  0  0  0  0  0  0  0  0  0
    8.6448   -0.5048   21.3955 C   0  0  0  0  0  0  0  0  0  0  0  0
    8.8741   -1.3273   22.4014 N   0  0  0  0  0  0  0  0  0  0  0  0
    7.6705   -1.9327   22.5807 C   0  0  0  0  0  0  0  0  0  0  0  0
    7.4326   -2.9069   23.6926 C   0  0  0  0  0  0  0  0  0  0  0  0
    5.9969   -2.9043   24.2578 C   0  0  0  0  0  0  0  0  0  0  0  0
    6.1749   -3.3803   25.7006 C   0  0  0  0  0  0  0  0  0  0  0  0
    7.5434   -3.1891   26.0276 O   0  0  0  0  0  0  0  0  0  0  0  0
    8.2760   -2.6348   24.9501 C   0  0  0  0  0  0  0  0  0  0  0  0
    8.4380   -1.5537   25.1025 H   0  0  0  0  0  0  0  0  0  0  0  0
    9.2607   -3.1168   24.9320 H   0  0  0  0  0  0  0  0  0  0  0  0
    5.9303   -4.4446   25.8175 H   0  0  0  0  0  0  0  0  0  0  0  0
    5.5444   -2.8170   26.4036 H   0  0  0  0  0  0  0  0  0  0  0  0
    5.3105   -3.5305   23.6836 H   0  0  0  0  0  0  0  0  0  0  0  0
    5.6130   -1.8803   24.2486 H   0  0  0  0  0  0  0  0  0  0  0  0
    7.6903   -3.8980   23.3077 H   0  0  0  0  0  0  0  0  0  0  0  0
    6.7339   -1.5764   21.7197 N   0  0  0  0  0  0  0  0  0  0  0  0
    7.3699   -0.6657   20.9374 N   0  0  0  0  0  0  0  0  0  0  0  0
    6.6605    0.0050   19.9028 C   0  0  0  0  0  0  0  0  0  0  0  0
    5.4424    0.6407   20.1656 C   0  0  0  0  0  0  0  0  0  0  0  0
    4.8134    1.3089   19.1100 C   0  0  0  0  0  0  0  0  0  0  0  0
    5.3998    1.2959   17.8384 C   0  0  0  0  0  0  0  0  0  0  0  0
    6.5579    0.6710   17.5754 N   0  0  0  0  0  0  0  0  0  0  0  0
    7.1669    0.0502   18.5921 C   0  0  0  0  0  0  0  0  0  0  0  0
    8.1131   -0.4364   18.3657 H   0  0  0  0  0  0  0  0  0  0  0  0
    4.9209    1.7877   16.9940 H   0  0  0  0  0  0  0  0  0  0  0  0
    3.8812    1.8383   19.2620 H   0  0  0  0  0  0  0  0  0  0  0  0
    5.0140    0.6067   21.1709 H   0  0  0  0  0  0  0  0  0  0  0  0
   10.5276    0.3972   21.3045 H   0  0  0  0  0  0  0  0  0  0  0  0
    9.5514    0.6661   19.8698 H   0  0  0  0  0  0  0  0  0  0  0  0
    8.0794    2.2656   21.0702 H   0  0  0  0  0  0  0  0  0  0  0  0
    9.7633    2.7713   21.2052 H   0  0  0  0  0  0  0  0  0  0  0  0
   10.0845    2.0833   23.7858 C   0  0  0  0  0  0  0  0  0  0  0  0
   11.0708    2.2548   23.3608 H   0  0  0  0  0  0  0  0  0  0  0  0
    6.8022    1.5532   23.0787 H   0  0  0  0  0  0  0  0  0  0  0  0
    8.7583    1.6042   26.9137 H   0  0  0  0  0  0  0  0  0  0  0  0
  1  2  1  0
  2  3  2  0
  3  4  1  0
  4  5  1  0
  4  6  2  0
  6  7  1  0
  7  8  1  0
  8  9  1  0
  9 10  1  0
 10 11  2  0
 11 12  1  0
 12 13  1  0
 13 14  1  0
 14 15  1  0
 15 16  1  0
 16 17  1  0
 17 18  1  0
 17 19  1  0
 15 20  1  0
 15 21  1  0
 14 22  1  0
 14 23  1  0
 13 24  1  0
 12 25  2  0
 25 26  1  0
 26 27  1  0
 27 28  2  0
 28 29  1  0
 29 30  2  0
 30 31  1  0
 31 32  2  0
 32 33  1  0
 30 34  1  0
 29 35  1  0
 28 36  1  0
  9 37  1  0
  9 38  1  0
  8 39  1  0
  8 40  1  0
  7 41  2  0
 41 42  1  0
  6 43  1  0
  3 44  1  0
 41  2  1  0
 26 10  1  0
 32 27  1  0
 17 13  1  0
M  END
>  <cnnaffinity>  (1) 
-6.10632

>  <filename>  (1) 
Fc1cc(F)cc(CCc2nc(C3CCOC3)nn2-c2cccnc2)c1

$$$$
