
     RDKit          3D

 46 49  0  0  0  0  0  0  0  0999 V2000
    7.0271    0.9096   27.9265 F   0  0  0  0  0  0  0  0  0  0  0  0
    7.0813    0.1404   26.8382 C   0  0  0  0  0  0  0  0  0  0  0  0
    7.0157    0.7587   25.5878 C   0  0  0  0  0  0  0  0  0  0  0  0
    7.0728   -0.0604   24.4599 C   0  0  0  0  0  0  0  0  0  0  0  0
    7.1407   -1.4459   24.6576 C   0  0  0  0  0  0  0  0  0  0  0  0
    7.0764   -2.3685   23.5849 N   0  0  0  0  0  0  0  0  0  0  0  0
    6.1757   -3.3743   23.6575 N   0  0  0  0  0  0  0  0  0  0  0  0
    6.3751   -4.0419   22.5333 C   0  0  0  0  0  0  0  0  0  0  0  0
    5.6816   -5.3573   22.3275 C   0  0  0  0  0  0  0  0  0  0  0  0
    4.1754   -5.3655   22.6848 C   0  0  0  0  0  0  0  0  0  0  0  0
    3.8615   -6.7769   23.2044 C   0  0  0  0  0  0  0  0  0  0  0  0
    5.2045   -7.4226   23.6091 C   0  0  0  0  0  0  0  0  0  0  0  0
    6.3206   -6.4188   23.2618 C   0  0  0  0  0  0  0  0  0  0  0  0
    6.6755   -5.9377   24.1860 H   0  0  0  0  0  0  0  0  0  0  0  0
    7.2042   -6.8709   22.7887 H   0  0  0  0  0  0  0  0  0  0  0  0
    5.3645   -8.3676   23.0926 H   0  0  0  0  0  0  0  0  0  0  0  0
    5.2237   -7.6777   24.6724 H   0  0  0  0  0  0  0  0  0  0  0  0
    3.1637   -6.6999   24.0443 H   0  0  0  0  0  0  0  0  0  0  0  0
    3.3633   -7.3825   22.4398 H   0  0  0  0  0  0  0  0  0  0  0  0
    3.9757   -4.6297   23.4726 H   0  0  0  0  0  0  0  0  0  0  0  0
    3.5338   -5.1060   21.8390 H   0  0  0  0  0  0  0  0  0  0  0  0
    5.8259   -5.6311   21.2777 H   0  0  0  0  0  0  0  0  0  0  0  0
    7.3687   -3.5505   21.7528 N   0  0  0  0  0  0  0  0  0  0  0  0
    7.8061   -2.5106   22.4467 C   0  0  0  0  0  0  0  0  0  0  0  0
    8.9878   -1.6877   22.0724 C   0  0  0  0  0  0  0  0  0  0  0  0
    8.7536   -0.9123   20.7906 C   0  0  0  0  0  0  0  0  0  0  0  0
    7.5391   -0.1765   20.9731 O   0  0  0  0  0  0  0  0  0  0  0  0
    6.8386    0.2458   19.8831 C   0  0  0  0  0  0  0  0  0  0  0  0
    5.5726    0.8044   20.1213 C   0  0  0  0  0  0  0  0  0  0  0  0
    4.8573    1.3139   19.0383 C   0  0  0  0  0  0  0  0  0  0  0  0
    5.4149    1.2419   17.7536 C   0  0  0  0  0  0  0  0  0  0  0  0
    6.6027    0.6725   17.5072 N   0  0  0  0  0  0  0  0  0  0  0  0
    7.2921    0.1846   18.5481 C   0  0  0  0  0  0  0  0  0  0  0  0
    8.2539   -0.2728   18.3171 H   0  0  0  0  0  0  0  0  0  0  0  0
    4.8939    1.6553   16.8939 H   0  0  0  0  0  0  0  0  0  0  0  0
    3.8867    1.7804   19.1726 H   0  0  0  0  0  0  0  0  0  0  0  0
    5.1888    0.8318   21.1419 H   0  0  0  0  0  0  0  0  0  0  0  0
    9.5814   -0.2195   20.5901 H   0  0  0  0  0  0  0  0  0  0  0  0
    8.6675   -1.5981   19.9420 H   0  0  0  0  0  0  0  0  0  0  0  0
    9.8453   -2.3583   21.9556 H   0  0  0  0  0  0  0  0  0  0  0  0
    9.2271   -0.9925   22.8772 H   0  0  0  0  0  0  0  0  0  0  0  0
    7.1929   -1.9442   25.9619 C   0  0  0  0  0  0  0  0  0  0  0  0
    7.1845   -1.1577   27.0431 N   0  0  0  0  0  0  0  0  0  0  0  0
    7.2560   -3.0169   26.1266 H   0  0  0  0  0  0  0  0  0  0  0  0
    7.0421    0.3415   23.4480 H   0  0  0  0  0  0  0  0  0  0  0  0
    6.9046    1.8329   25.5377 H   0  0  0  0  0  0  0  0  0  0  0  0
  1  2  1  0
  2  3  2  0
  3  4  1  0
  4  5  2  0
  5  6  1  0
  6  7  1  0
  7  8  2  0
  8  9  1  0
  9 10  1  0
 10 11  1  0
 11 12  1  0
 12 13  1  0
 13 14  1  0
 13 15  1  0
 12 16  1  0
 12 17  1  0
 11 18  1  0
 11 19  1  0
 10 20  1  0
 10 21  1  0
  9 22  1  0
  8 23  1  0
 23 24  2  0
 24 25  1  0
 25 26  1  0
 26 27  1  0
 27 28  1  0
 28 29  2  0
 29 30  1  0
 30 31  2  0
 31 32  1  0
 32 33  2  0
 33 34  1  0
 31 35  1  0
 30 36  1  0
 29 37  1  0
 26 38  1  0
 26 39  1  0
 25 40  1  0
 25 41  1  0
  5 42  1  0
 42 43  2  0
 42 44  1  0
  4 45  1  0
  3 46  1  0
 43  2  1  0
 24  6  1  0
 33 28  1  0
 13  9  1  0
M  END
>  <cnnaffinity>  (1) 
-6.2612

>  <filename>  (1) 
Fc1ccc(-n2nc(C3CCCC3)nc2CCOc2cccnc2)cn1

$$$$
