
     RDKit          3D

 44 47  0  0  0  0  0  0  0  0999 V2000
   13.7873    0.1800   25.8950 F   0  0  0  0  0  0  0  0  0  0  0  0
   12.9875    0.2256   24.8272 C   0  0  0  0  0  0  0  0  0  0  0  0
   11.6796   -0.2302   24.8662 C   0  0  0  0  0  0  0  0  0  0  0  0
   10.9538   -0.3768   23.7538 N   0  0  0  0  0  0  0  0  0  0  0  0
   11.5256   -0.0228   22.5987 C   0  0  0  0  0  0  0  0  0  0  0  0
   10.7622   -0.2201   21.3197 C   0  0  0  0  0  0  0  0  0  0  0  0
    9.8702    0.9877   20.8923 C   0  0  0  0  0  0  0  0  0  0  0  0
    8.7403    1.1941   21.8510 C   0  0  0  0  0  0  0  0  0  0  0  0
    8.7072    2.0619   22.8414 N   0  0  0  0  0  0  0  0  0  0  0  0
    7.6882    1.6077   23.6231 C   0  0  0  0  0  0  0  0  0  0  0  0
    7.3588    2.2195   24.9297 C   0  0  0  0  0  0  0  0  0  0  0  0
    8.2548    3.1266   25.5315 C   0  0  0  0  0  0  0  0  0  0  0  0
    7.9482    3.7283   26.7515 C   0  0  0  0  0  0  0  0  0  0  0  0
    6.7416    3.4186   27.3826 C   0  0  0  0  0  0  0  0  0  0  0  0
    6.3462    4.1897   28.8893 Cl  0  0  0  0  0  0  0  0  0  0  0  0
    5.8474    2.5057   26.8192 C   0  0  0  0  0  0  0  0  0  0  0  0
    6.1596    1.9015   25.6012 C   0  0  0  0  0  0  0  0  0  0  0  0
    5.4805    1.1685   25.1700 H   0  0  0  0  0  0  0  0  0  0  0  0
    4.9224    2.2774   27.3380 H   0  0  0  0  0  0  0  0  0  0  0  0
    8.6293    4.4333   27.2136 H   0  0  0  0  0  0  0  0  0  0  0  0
    9.1957    3.3606   25.0380 H   0  0  0  0  0  0  0  0  0  0  0  0
    7.0670    0.5474   23.1249 N   0  0  0  0  0  0  0  0  0  0  0  0
    7.7562    0.2813   21.9950 N   0  0  0  0  0  0  0  0  0  0  0  0
    7.2698   -0.7057   21.0296 C   0  0  0  0  0  0  0  0  0  0  0  0
    6.5885   -0.0506   19.8495 C   0  0  0  0  0  0  0  0  0  0  0  0
    5.4121    0.6725   20.0729 C   0  0  0  0  0  0  0  0  0  0  0  0
    4.8290    1.3440   18.9975 C   0  0  0  0  0  0  0  0  0  0  0  0
    5.4501    1.2778   17.7464 C   0  0  0  0  0  0  0  0  0  0  0  0
    6.5718    0.5806   17.5119 N   0  0  0  0  0  0  0  0  0  0  0  0
    7.1174   -0.0668   18.5509 C   0  0  0  0  0  0  0  0  0  0  0  0
    8.0305   -0.6271   18.3329 H   0  0  0  0  0  0  0  0  0  0  0  0
    5.0248    1.7996   16.8906 H   0  0  0  0  0  0  0  0  0  0  0  0
    3.9217    1.9240   19.1212 H   0  0  0  0  0  0  0  0  0  0  0  0
    4.9921    0.7182   21.0820 H   0  0  0  0  0  0  0  0  0  0  0  0
    6.5761   -1.3430   21.5844 H   0  0  0  0  0  0  0  0  0  0  0  0
    8.0980   -1.3406   20.6955 H   0  0  0  0  0  0  0  0  0  0  0  0
   10.4391    1.9251   20.8340 H   0  0  0  0  0  0  0  0  0  0  0  0
    9.4566    0.7925   19.8977 H   0  0  0  0  0  0  0  0  0  0  0  0
   11.5202   -0.4324   20.5652 H   0  0  0  0  0  0  0  0  0  0  0  0
   10.1380   -1.1160   21.4352 H   0  0  0  0  0  0  0  0  0  0  0  0
   12.7637    0.4703   22.4786 N   0  0  0  0  0  0  0  0  0  0  0  0
   13.4943    0.5821   23.5865 C   0  0  0  0  0  0  0  0  0  0  0  0
   14.5190    0.9335   23.4809 H   0  0  0  0  0  0  0  0  0  0  0  0
   11.2241   -0.5549   25.8014 H   0  0  0  0  0  0  0  0  0  0  0  0
  1  2  1  0
  2  3  2  0
  3  4  1  0
  4  5  2  0
  5  6  1  0
  6  7  1  0
  7  8  1  0
  8  9  2  0
  9 10  1  0
 10 11  1  0
 11 12  2  0
 12 13  1  0
 13 14  2  0
 14 15  1  0
 14 16  1  0
 16 17  2  0
 17 18  1  0
 16 19  1  0
 13 20  1  0
 12 21  1  0
 10 22  2  0
 22 23  1  0
 23 24  1  0
 24 25  1  0
 25 26  2  0
 26 27  1  0
 27 28  2  0
 28 29  1  0
 29 30  2  0
 30 31  1  0
 28 32  1  0
 27 33  1  0
 26 34  1  0
 24 35  1  0
 24 36  1  0
  7 37  1  0
  7 38  1  0
  6 39  1  0
  6 40  1  0
  5 41  1  0
 41 42  2  0
 42 43  1  0
  3 44  1  0
 42  2  1  0
 23  8  1  0
 30 25  1  0
 17 11  1  0
M  END
>  <cnnaffinity>  (1) 
-5.79981

>  <filename>  (1) 
Fc1cnc(CCc2nc(-c3ccc(Cl)cc3)nn2Cc2cccnc2)nc1

$$$$
