
     RDKit          3D

 41 45  0  0  0  0  0  0  0  0999 V2000
   13.3893    1.7835   24.4612 F   0  0  0  0  0  0  0  0  0  0  0  0
   12.5191    1.4470   23.5184 C   0  0  0  0  0  0  0  0  0  0  0  0
   12.7786    0.3116   22.7668 C   0  0  0  0  0  0  0  0  0  0  0  0
   11.8502   -0.0514   21.8012 C   0  0  0  0  0  0  0  0  0  0  0  0
   12.1213   -1.1404   21.0648 F   0  0  0  0  0  0  0  0  0  0  0  0
   10.6719    0.6678   21.5777 C   0  0  0  0  0  0  0  0  0  0  0  0
    9.5997    0.1453   20.6566 C   0  0  0  0  0  0  0  0  0  0  0  0
    8.5416   -0.6404   21.3643 C   0  0  0  0  0  0  0  0  0  0  0  0
    8.7174   -1.3837   22.4427 N   0  0  0  0  0  0  0  0  0  0  0  0
    7.5137   -1.9804   22.5968 C   0  0  0  0  0  0  0  0  0  0  0  0
    7.1488   -2.9621   23.6604 C   0  0  0  0  0  0  0  0  0  0  0  0
    6.7292   -4.3304   23.2248 C   0  0  0  0  0  0  0  0  0  0  0  0
    7.9482   -4.2121   24.1626 C   0  0  0  0  0  0  0  0  0  0  0  0
    8.9663   -4.0536   25.2585 C   0  0  0  0  0  0  0  0  0  0  0  0
    8.5654   -5.4392   24.8328 C   0  0  0  0  0  0  0  0  0  0  0  0
    9.2617   -6.0328   24.2422 H   0  0  0  0  0  0  0  0  0  0  0  0
    7.9188   -6.0218   25.4921 H   0  0  0  0  0  0  0  0  0  0  0  0
    9.9380   -3.6646   24.9537 H   0  0  0  0  0  0  0  0  0  0  0  0
    8.6037   -3.6827   26.2227 H   0  0  0  0  0  0  0  0  0  0  0  0
    6.9835   -4.6590   22.2157 H   0  0  0  0  0  0  0  0  0  0  0  0
    5.8028   -4.7542   23.6109 H   0  0  0  0  0  0  0  0  0  0  0  0
    6.5677   -2.4939   24.4560 H   0  0  0  0  0  0  0  0  0  0  0  0
    6.5984   -1.6350   21.7026 N   0  0  0  0  0  0  0  0  0  0  0  0
    7.2670   -0.7791   20.8893 N   0  0  0  0  0  0  0  0  0  0  0  0
    6.5901   -0.0695   19.8512 C   0  0  0  0  0  0  0  0  0  0  0  0
    5.3946    0.6130   20.1150 C   0  0  0  0  0  0  0  0  0  0  0  0
    4.7966    1.3231   19.0705 C   0  0  0  0  0  0  0  0  0  0  0  0
    5.3965    1.3181   17.8057 C   0  0  0  0  0  0  0  0  0  0  0  0
    6.5341    0.6582   17.5430 N   0  0  0  0  0  0  0  0  0  0  0  0
    7.1099   -0.0150   18.5453 C   0  0  0  0  0  0  0  0  0  0  0  0
    8.0401   -0.5281   18.3046 H   0  0  0  0  0  0  0  0  0  0  0  0
    4.9440    1.8510   16.9725 H   0  0  0  0  0  0  0  0  0  0  0  0
    3.8768    1.8765   19.2224 H   0  0  0  0  0  0  0  0  0  0  0  0
    4.9641    0.5837   21.1164 H   0  0  0  0  0  0  0  0  0  0  0  0
   10.0343   -0.5335   19.9160 H   0  0  0  0  0  0  0  0  0  0  0  0
    9.1444    0.9890   20.1331 H   0  0  0  0  0  0  0  0  0  0  0  0
   10.4593    1.8274   22.3387 C   0  0  0  0  0  0  0  0  0  0  0  0
   11.3707    2.2190   23.3130 C   0  0  0  0  0  0  0  0  0  0  0  0
   11.1544    3.3162   24.0514 F   0  0  0  0  0  0  0  0  0  0  0  0
    9.5735    2.4388   22.1970 H   0  0  0  0  0  0  0  0  0  0  0  0
   13.6773   -0.2677   22.9411 H   0  0  0  0  0  0  0  0  0  0  0  0
  1  2  1  0
  2  3  2  0
  3  4  1  0
  4  5  1  0
  4  6  2  0
  6  7  1  0
  7  8  1  0
  8  9  2  0
  9 10  1  0
 10 11  1  0
 11 12  1  0
 12 13  1  0
 13 14  1  0
 14 15  1  0
 15 16  1  0
 15 17  1  0
 14 18  1  0
 14 19  1  0
 12 20  1  0
 12 21  1  0
 11 22  1  0
 10 23  2  0
 23 24  1  0
 24 25  1  0
 25 26  2  0
 26 27  1  0
 27 28  2  0
 28 29  1  0
 29 30  2  0
 30 31  1  0
 28 32  1  0
 27 33  1  0
 26 34  1  0
  7 35  1  0
  7 36  1  0
  6 37  1  0
 37 38  2  0
 38 39  1  0
 37 40  1  0
  3 41  1  0
 38  2  1  0
 24  8  1  0
 30 25  1  0
 13 11  1  0
 15 13  1  0
M  END
>  <cnnaffinity>  (1) 
-6.96618

>  <filename>  (1) 
Fc1cc(F)c(Cc2nc(C3CC34CC4)nn2-c2cccnc2)cc1F

$$$$
