
     RDKit          3D

 48 51  0  0  0  0  0  0  0  0999 V2000
    7.3892    6.3182   23.7770 F   0  0  0  0  0  0  0  0  0  0  0  0
    7.7733    5.1193   24.2387 C   0  0  0  0  0  0  0  0  0  0  0  0
    7.7358    4.8981   25.6087 C   0  0  0  0  0  0  0  0  0  0  0  0
    8.1425    3.6412   26.0662 C   0  0  0  0  0  0  0  0  0  0  0  0
    8.5659    2.6520   25.1774 C   0  0  0  0  0  0  0  0  0  0  0  0
    8.5899    2.9130   23.7912 C   0  0  0  0  0  0  0  0  0  0  0  0
    9.0242    1.8921   23.0064 O   0  0  0  0  0  0  0  0  0  0  0  0
    9.0444    2.0068   21.5877 C   0  0  0  0  0  0  0  0  0  0  0  0
    9.4966    0.6565   21.0260 C   0  0  0  0  0  0  0  0  0  0  0  0
    8.6112   -0.4572   21.4499 C   0  0  0  0  0  0  0  0  0  0  0  0
    8.8431   -1.2953   22.4337 N   0  0  0  0  0  0  0  0  0  0  0  0
    7.6598   -1.9575   22.5592 C   0  0  0  0  0  0  0  0  0  0  0  0
    7.4219   -2.9286   23.6800 C   0  0  0  0  0  0  0  0  0  0  0  0
    8.5279   -4.0077   23.7604 C   0  0  0  0  0  0  0  0  0  0  0  0
    8.3272   -4.8889   24.9949 C   0  0  0  0  0  0  0  0  0  0  0  0
    8.2713   -4.1220   26.1853 O   0  0  0  0  0  0  0  0  0  0  0  0
    7.1871   -3.2100   26.1873 C   0  0  0  0  0  0  0  0  0  0  0  0
    7.2957   -2.1976   25.0460 C   0  0  0  0  0  0  0  0  0  0  0  0
    6.4204   -1.5358   25.0520 H   0  0  0  0  0  0  0  0  0  0  0  0
    8.1826   -1.5699   25.2072 H   0  0  0  0  0  0  0  0  0  0  0  0
    6.2357   -3.7657   26.1028 H   0  0  0  0  0  0  0  0  0  0  0  0
    7.2018   -2.7168   27.1621 H   0  0  0  0  0  0  0  0  0  0  0  0
    7.3957   -5.4742   24.8884 H   0  0  0  0  0  0  0  0  0  0  0  0
    9.1524   -5.5934   25.1222 H   0  0  0  0  0  0  0  0  0  0  0  0
    9.5085   -3.5202   23.8240 H   0  0  0  0  0  0  0  0  0  0  0  0
    8.5313   -4.6284   22.8560 H   0  0  0  0  0  0  0  0  0  0  0  0
    6.4628   -3.4083   23.4520 H   0  0  0  0  0  0  0  0  0  0  0  0
    6.7352   -1.6105   21.6898 N   0  0  0  0  0  0  0  0  0  0  0  0
    7.3579   -0.6579   20.9430 N   0  0  0  0  0  0  0  0  0  0  0  0
    6.6592    0.0137   19.9010 C   0  0  0  0  0  0  0  0  0  0  0  0
    5.4385    0.6457   20.1648 C   0  0  0  0  0  0  0  0  0  0  0  0
    4.8125    1.3112   19.1077 C   0  0  0  0  0  0  0  0  0  0  0  0
    5.4000    1.2971   17.8361 C   0  0  0  0  0  0  0  0  0  0  0  0
    6.5572    0.6710   17.5737 N   0  0  0  0  0  0  0  0  0  0  0  0
    7.1675    0.0515   18.5901 C   0  0  0  0  0  0  0  0  0  0  0  0
    8.1110   -0.4371   18.3617 H   0  0  0  0  0  0  0  0  0  0  0  0
    4.9235    1.7886   16.9913 H   0  0  0  0  0  0  0  0  0  0  0  0
    3.8807    1.8394   19.2572 H   0  0  0  0  0  0  0  0  0  0  0  0
    5.0160    0.6051   21.1736 H   0  0  0  0  0  0  0  0  0  0  0  0
    9.5194    0.7185   19.9378 H   0  0  0  0  0  0  0  0  0  0  0  0
   10.5113    0.4228   21.3494 H   0  0  0  0  0  0  0  0  0  0  0  0
    9.7433    2.7931   21.2725 H   0  0  0  0  0  0  0  0  0  0  0  0
    8.0457    2.2566   21.2014 H   0  0  0  0  0  0  0  0  0  0  0  0
    8.1894    4.1650   23.3091 C   0  0  0  0  0  0  0  0  0  0  0  0
    8.1966    4.4160   22.2534 H   0  0  0  0  0  0  0  0  0  0  0  0
    8.8779    1.6767   25.5325 H   0  0  0  0  0  0  0  0  0  0  0  0
    8.1213    3.4389   27.1336 H   0  0  0  0  0  0  0  0  0  0  0  0
    7.3948    5.6897   26.2717 H   0  0  0  0  0  0  0  0  0  0  0  0
  1  2  1  0
  2  3  2  0
  3  4  1  0
  4  5  2  0
  5  6  1  0
  6  7  1  0
  7  8  1  0
  8  9  1  0
  9 10  1  0
 10 11  2  0
 11 12  1  0
 12 13  1  0
 13 14  1  0
 14 15  1  0
 15 16  1  0
 16 17  1  0
 17 18  1  0
 18 19  1  0
 18 20  1  0
 17 21  1  0
 17 22  1  0
 15 23  1  0
 15 24  1  0
 14 25  1  0
 14 26  1  0
 13 27  1  0
 12 28  2  0
 28 29  1  0
 29 30  1  0
 30 31  2  0
 31 32  1  0
 32 33  2  0
 33 34  1  0
 34 35  2  0
 35 36  1  0
 33 37  1  0
 32 38  1  0
 31 39  1  0
  9 40  1  0
  9 41  1  0
  8 42  1  0
  8 43  1  0
  6 44  2  0
 44 45  1  0
  5 46  1  0
  4 47  1  0
  3 48  1  0
 44  2  1  0
 29 10  1  0
 35 30  1  0
 18 13  1  0
M  END
>  <cnnaffinity>  (1) 
-6.01273

>  <filename>  (1) 
Fc1cccc(OCCc2nc(C3CCOCC3)nn2-c2cccnc2)c1

$$$$
