
     RDKit          3D

 39 42  0  0  0  0  0  0  0  0999 V2000
    6.2514    3.8154   28.6899 F   0  0  0  0  0  0  0  0  0  0  0  0
    6.5926    3.2356   27.5304 C   0  0  0  0  0  0  0  0  0  0  0  0
    5.7498    2.2704   26.9834 C   0  0  0  0  0  0  0  0  0  0  0  0
    6.1041    1.6752   25.7718 C   0  0  0  0  0  0  0  0  0  0  0  0
    7.2938    2.0577   25.1120 C   0  0  0  0  0  0  0  0  0  0  0  0
    7.6997    1.4808   23.8117 C   0  0  0  0  0  0  0  0  0  0  0  0
    7.0800    0.4838   23.2023 N   0  0  0  0  0  0  0  0  0  0  0  0
    7.8273    0.2825   22.0885 N   0  0  0  0  0  0  0  0  0  0  0  0
    7.3618   -0.6536   21.0660 C   0  0  0  0  0  0  0  0  0  0  0  0
    6.6725    0.0149   19.8945 C   0  0  0  0  0  0  0  0  0  0  0  0
    5.4642    0.6914   20.1100 C   0  0  0  0  0  0  0  0  0  0  0  0
    4.8580    1.3311   19.0278 C   0  0  0  0  0  0  0  0  0  0  0  0
    5.4814    1.2796   17.7768 C   0  0  0  0  0  0  0  0  0  0  0  0
    6.6251    0.6153   17.5457 N   0  0  0  0  0  0  0  0  0  0  0  0
    7.1933   -0.0022   18.5905 C   0  0  0  0  0  0  0  0  0  0  0  0
    8.1116   -0.5544   18.3677 H   0  0  0  0  0  0  0  0  0  0  0  0
    5.0375    1.7775   16.9165 H   0  0  0  0  0  0  0  0  0  0  0  0
    3.9225    1.8666   19.1412 H   0  0  0  0  0  0  0  0  0  0  0  0
    5.0266    0.7176   21.1127 H   0  0  0  0  0  0  0  0  0  0  0  0
    8.2052   -1.2634   20.7436 H   0  0  0  0  0  0  0  0  0  0  0  0
    6.6661   -1.3133   21.5911 H   0  0  0  0  0  0  0  0  0  0  0  0
    8.8384    1.1765   22.0725 C   0  0  0  0  0  0  0  0  0  0  0  0
    9.9764    1.1978   21.1113 C   0  0  0  0  0  0  0  0  0  0  0  0
   10.9774    0.1670   21.5154 C   0  0  0  0  0  0  0  0  0  0  0  0
   12.1096    0.1978   22.2510 C   0  0  0  0  0  0  0  0  0  0  0  0
   12.5311   -1.1588   22.2491 C   0  0  0  0  0  0  0  0  0  0  0  0
   11.6987   -1.9314   21.6025 N   0  0  0  0  0  0  0  0  0  0  0  0
   10.7123   -1.0891   21.1329 O   0  0  0  0  0  0  0  0  0  0  0  0
   13.4140   -1.6057   22.6843 H   0  0  0  0  0  0  0  0  0  0  0  0
   12.5568    1.0629   22.7203 H   0  0  0  0  0  0  0  0  0  0  0  0
    9.6165    0.9857   20.1022 H   0  0  0  0  0  0  0  0  0  0  0  0
   10.4286    2.1904   21.1584 H   0  0  0  0  0  0  0  0  0  0  0  0
    8.7904    1.9413   23.1327 N   0  0  0  0  0  0  0  0  0  0  0  0
    8.1272    3.0264   25.7107 C   0  0  0  0  0  0  0  0  0  0  0  0
    7.7798    3.6269   26.9165 C   0  0  0  0  0  0  0  0  0  0  0  0
    8.3975    4.3881   27.3811 H   0  0  0  0  0  0  0  0  0  0  0  0
    9.0550    3.2993   25.2124 H   0  0  0  0  0  0  0  0  0  0  0  0
    5.4616    0.9070   25.3426 H   0  0  0  0  0  0  0  0  0  0  0  0
    4.8391    2.0100   27.5161 H   0  0  0  0  0  0  0  0  0  0  0  0
  1  2  1  0
  2  3  2  0
  3  4  1  0
  4  5  2  0
  5  6  1  0
  6  7  2  0
  7  8  1  0
  8  9  1  0
  9 10  1  0
 10 11  2  0
 11 12  1  0
 12 13  2  0
 13 14  1  0
 14 15  2  0
 15 16  1  0
 13 17  1  0
 12 18  1  0
 11 19  1  0
  9 20  1  0
  9 21  1  0
  8 22  1  0
 22 23  1  0
 23 24  1  0
 24 25  2  0
 25 26  1  0
 26 27  2  0
 27 28  1  0
 26 29  1  0
 25 30  1  0
 23 31  1  0
 23 32  1  0
 22 33  2  0
  5 34  1  0
 34 35  2  0
 35 36  1  0
 34 37  1  0
  4 38  1  0
  3 39  1  0
 35  2  1  0
 33  6  1  0
 15 10  1  0
 28 24  1  0
M  END
>  <cnnaffinity>  (1) 
-6.03435

>  <filename>  (1) 
Fc1ccc(-c2nc(Cc3ccno3)n(Cc3cccnc3)n2)cc1

$$$$
