
     RDKit          3D

 42 45  0  0  0  0  0  0  0  0999 V2000
    6.7290   -0.7475   27.9180 F   0  0  0  0  0  0  0  0  0  0  0  0
    6.7355   -0.0606   26.7631 C   0  0  0  0  0  0  0  0  0  0  0  0
    5.6453   -0.1765   25.9041 C   0  0  0  0  0  0  0  0  0  0  0  0
    5.6756    0.5244   24.6899 C   0  0  0  0  0  0  0  0  0  0  0  0
    6.7930    1.2760   24.3160 C   0  0  0  0  0  0  0  0  0  0  0  0
    6.9879    1.7834   22.8865 C   0  0  0  0  0  0  0  0  0  0  0  0
    8.0536    0.9777   22.1945 C   0  0  0  0  0  0  0  0  0  0  0  0
    9.3398    1.2370   22.3186 N   0  0  0  0  0  0  0  0  0  0  0  0
    9.9345    0.0720   21.9520 C   0  0  0  0  0  0  0  0  0  0  0  0
   11.3697   -0.0879   22.1654 C   0  0  0  0  0  0  0  0  0  0  0  0
   12.1714   -1.0554   21.5284 C   0  0  0  0  0  0  0  0  0  0  0  0
   13.5143   -1.0684   21.8801 C   0  0  0  0  0  0  0  0  0  0  0  0
   14.3513   -1.9628   21.3410 F   0  0  0  0  0  0  0  0  0  0  0  0
   14.0216   -0.1260   22.7803 C   0  0  0  0  0  0  0  0  0  0  0  0
   13.2540    0.7775   23.3978 N   0  0  0  0  0  0  0  0  0  0  0  0
   11.9495    0.7800   23.1063 C   0  0  0  0  0  0  0  0  0  0  0  0
   11.3268    1.4926   23.6391 H   0  0  0  0  0  0  0  0  0  0  0  0
   15.0737   -0.1289   23.0197 H   0  0  0  0  0  0  0  0  0  0  0  0
   11.7928   -1.7632   20.7950 H   0  0  0  0  0  0  0  0  0  0  0  0
    9.0986   -0.8569   21.5284 N   0  0  0  0  0  0  0  0  0  0  0  0
    7.8845   -0.2695   21.7069 N   0  0  0  0  0  0  0  0  0  0  0  0
    6.6754   -0.8599   21.1390 C   0  0  0  0  0  0  0  0  0  0  0  0
    6.1794   -0.0926   19.9285 C   0  0  0  0  0  0  0  0  0  0  0  0
    4.9825    0.6295   19.9198 C   0  0  0  0  0  0  0  0  0  0  0  0
    4.6717    1.4101   18.8018 C   0  0  0  0  0  0  0  0  0  0  0  0
    5.5551    1.4159   17.7206 C   0  0  0  0  0  0  0  0  0  0  0  0
    6.6990    0.7158   17.7006 N   0  0  0  0  0  0  0  0  0  0  0  0
    6.9959   -0.0053   18.7882 C   0  0  0  0  0  0  0  0  0  0  0  0
    7.9447   -0.5418   18.7586 H   0  0  0  0  0  0  0  0  0  0  0  0
    5.3423    2.0083   16.8313 H   0  0  0  0  0  0  0  0  0  0  0  0
    3.7832    2.0298   18.7657 H   0  0  0  0  0  0  0  0  0  0  0  0
    4.3080    0.6027   20.7778 H   0  0  0  0  0  0  0  0  0  0  0  0
    5.9145   -0.8885   21.9238 H   0  0  0  0  0  0  0  0  0  0  0  0
    6.9270   -1.8945   20.8898 H   0  0  0  0  0  0  0  0  0  0  0  0
    6.0572    1.7501   22.3174 H   0  0  0  0  0  0  0  0  0  0  0  0
    7.3348    2.8198   22.8819 H   0  0  0  0  0  0  0  0  0  0  0  0
    7.8394    1.4267   25.2446 C   0  0  0  0  0  0  0  0  0  0  0  0
    7.8273    0.7504   26.4671 C   0  0  0  0  0  0  0  0  0  0  0  0
    8.6461    0.8199   27.1770 H   0  0  0  0  0  0  0  0  0  0  0  0
    8.6887    2.0501   24.9786 H   0  0  0  0  0  0  0  0  0  0  0  0
    4.8058    0.4979   24.0389 H   0  0  0  0  0  0  0  0  0  0  0  0
    4.8092   -0.8019   26.1955 H   0  0  0  0  0  0  0  0  0  0  0  0
  1  2  1  0
  2  3  2  0
  3  4  1  0
  4  5  2  0
  5  6  1  0
  6  7  1  0
  7  8  2  0
  8  9  1  0
  9 10  1  0
 10 11  2  0
 11 12  1  0
 12 13  1  0
 12 14  2  0
 14 15  1  0
 15 16  2  0
 16 17  1  0
 14 18  1  0
 11 19  1  0
  9 20  2  0
 20 21  1  0
 21 22  1  0
 22 23  1  0
 23 24  2  0
 24 25  1  0
 25 26  2  0
 26 27  1  0
 27 28  2  0
 28 29  1  0
 26 30  1  0
 25 31  1  0
 24 32  1  0
 22 33  1  0
 22 34  1  0
  6 35  1  0
  6 36  1  0
  5 37  1  0
 37 38  2  0
 38 39  1  0
 37 40  1  0
  4 41  1  0
  3 42  1  0
 38  2  1  0
 21  7  1  0
 28 23  1  0
 16 10  1  0
M  END
>  <cnnaffinity>  (1) 
-6.37963

>  <filename>  (1) 
Fc1ccc(Cc2nc(-c3cncc(F)c3)nn2Cc2cccnc2)cc1

$$$$
