
     RDKit          3D

 47 51  0  0  0  0  0  0  0  0999 V2000
   13.2630   -2.6387   19.9123 F   0  0  0  0  0  0  0  0  0  0  0  0
   12.8605   -1.8122   20.8847 C   0  0  0  0  0  0  0  0  0  0  0  0
   13.8531   -1.1326   21.5664 C   0  0  0  0  0  0  0  0  0  0  0  0
   13.4620   -0.1616   22.4745 C   0  0  0  0  0  0  0  0  0  0  0  0
   14.4134    0.5427   23.1026 F   0  0  0  0  0  0  0  0  0  0  0  0
   12.1239    0.1404   22.7025 C   0  0  0  0  0  0  0  0  0  0  0  0
   11.1359   -0.5764   21.9977 C   0  0  0  0  0  0  0  0  0  0  0  0
    9.6963   -0.2200   22.0661 C   0  0  0  0  0  0  0  0  0  0  0  0
    8.7247   -1.0280   21.6574 N   0  0  0  0  0  0  0  0  0  0  0  0
    7.6099   -0.2809   21.8105 N   0  0  0  0  0  0  0  0  0  0  0  0
    6.3346   -0.6945   21.2377 C   0  0  0  0  0  0  0  0  0  0  0  0
    5.9673    0.0509   19.9692 C   0  0  0  0  0  0  0  0  0  0  0  0
    4.8111    0.8319   19.8780 C   0  0  0  0  0  0  0  0  0  0  0  0
    4.5642    1.5467   18.7038 C   0  0  0  0  0  0  0  0  0  0  0  0
    5.4797    1.4425   17.6560 C   0  0  0  0  0  0  0  0  0  0  0  0
    6.5863    0.6883   17.7143 N   0  0  0  0  0  0  0  0  0  0  0  0
    6.8185    0.0215   18.8517 C   0  0  0  0  0  0  0  0  0  0  0  0
    7.7442   -0.5522   18.8830 H   0  0  0  0  0  0  0  0  0  0  0  0
    5.3196    1.9936   16.7310 H   0  0  0  0  0  0  0  0  0  0  0  0
    3.6957    2.1863   18.5971 H   0  0  0  0  0  0  0  0  0  0  0  0
    4.1134    0.8913   20.7151 H   0  0  0  0  0  0  0  0  0  0  0  0
    6.4025   -1.7755   21.0752 H   0  0  0  0  0  0  0  0  0  0  0  0
    5.5861   -0.4917   22.0021 H   0  0  0  0  0  0  0  0  0  0  0  0
    7.9597    0.9311   22.2885 C   0  0  0  0  0  0  0  0  0  0  0  0
    7.0064    1.9297   22.8577 C   0  0  0  0  0  0  0  0  0  0  0  0
    6.7248    1.5221   24.2318 N   0  0  0  0  0  0  0  0  0  0  0  0
    7.6022    1.5730   25.2667 C   0  0  0  0  0  0  0  0  0  0  0  0
    7.1207    0.7291   26.2398 C   0  0  0  0  0  0  0  0  0  0  0  0
    5.9350    0.1835   25.6879 C   0  0  0  0  0  0  0  0  0  0  0  0
    4.9971   -0.8061   26.2520 C   0  0  0  0  0  0  0  0  0  0  0  0
    4.7878   -0.9189   27.7448 C   0  0  0  0  0  0  0  0  0  0  0  0
    5.4702   -2.0288   27.0120 C   0  0  0  0  0  0  0  0  0  0  0  0
    6.5397   -2.1682   27.1591 H   0  0  0  0  0  0  0  0  0  0  0  0
    4.9212   -2.9512   26.8477 H   0  0  0  0  0  0  0  0  0  0  0  0
    5.4074   -0.2816   28.3739 H   0  0  0  0  0  0  0  0  0  0  0  0
    3.7803   -1.0713   28.1177 H   0  0  0  0  0  0  0  0  0  0  0  0
    4.1400   -0.9513   25.5969 H   0  0  0  0  0  0  0  0  0  0  0  0
    5.7317    0.6568   24.4610 N   0  0  0  0  0  0  0  0  0  0  0  0
    7.5724    0.4731   27.1875 H   0  0  0  0  0  0  0  0  0  0  0  0
    8.5181    2.1443   25.1652 H   0  0  0  0  0  0  0  0  0  0  0  0
    7.4822    2.9127   22.8624 H   0  0  0  0  0  0  0  0  0  0  0  0
    6.0603    1.9722   22.3151 H   0  0  0  0  0  0  0  0  0  0  0  0
    9.2614    1.0022   22.4640 N   0  0  0  0  0  0  0  0  0  0  0  0
   11.5138   -1.6180   21.1397 C   0  0  0  0  0  0  0  0  0  0  0  0
   10.7361   -2.2248   20.6910 H   0  0  0  0  0  0  0  0  0  0  0  0
   11.8763    0.9363   23.3938 H   0  0  0  0  0  0  0  0  0  0  0  0
   14.8761   -1.3607   21.3351 H   0  0  0  0  0  0  0  0  0  0  0  0
  1  2  1  0
  2  3  2  0
  3  4  1  0
  4  5  1  0
  4  6  2  0
  6  7  1  0
  7  8  1  0
  8  9  2  0
  9 10  1  0
 10 11  1  0
 11 12  1  0
 12 13  2  0
 13 14  1  0
 14 15  2  0
 15 16  1  0
 16 17  2  0
 17 18  1  0
 15 19  1  0
 14 20  1  0
 13 21  1  0
 11 22  1  0
 11 23  1  0
 10 24  1  0
 24 25  1  0
 25 26  1  0
 26 27  1  0
 27 28  2  0
 28 29  1  0
 29 30  1  0
 30 31  1  0
 31 32  1  0
 32 33  1  0
 32 34  1  0
 31 35  1  0
 31 36  1  0
 30 37  1  0
 29 38  2  0
 28 39  1  0
 27 40  1  0
 25 41  1  0
 25 42  1  0
 24 43  2  0
  7 44  2  0
 44 45  1  0
  6 46  1  0
  3 47  1  0
 44  2  1  0
 43  8  1  0
 17 12  1  0
 38 26  1  0
 32 30  1  0
M  END
>  <cnnaffinity>  (1) 
-6.61612

>  <filename>  (1) 
Fc1cc(F)cc(-c2nc(Cn3ccc(C4CC4)n3)n(Cc3cccnc3)n2)c1

$$$$
