
     RDKit          3D

 42 45  0  0  0  0  0  0  0  0999 V2000
   11.1286   -0.2682   26.1675 F   0  0  0  0  0  0  0  0  0  0  0  0
   11.7693   -0.0517   25.0056 C   0  0  0  0  0  0  0  0  0  0  0  0
   12.9916    0.6154   24.9877 C   0  0  0  0  0  0  0  0  0  0  0  0
   13.5539    1.0405   23.8483 N   0  0  0  0  0  0  0  0  0  0  0  0
   12.9289    0.7723   22.6919 C   0  0  0  0  0  0  0  0  0  0  0  0
   11.7876   -0.0469   22.6070 C   0  0  0  0  0  0  0  0  0  0  0  0
   11.0686   -0.3149   21.3086 C   0  0  0  0  0  0  0  0  0  0  0  0
   10.0969    0.8497   20.9676 C   0  0  0  0  0  0  0  0  0  0  0  0
    8.9984    1.0457   21.9660 C   0  0  0  0  0  0  0  0  0  0  0  0
    8.9906    1.8962   22.9723 N   0  0  0  0  0  0  0  0  0  0  0  0
    7.8757    1.5467   23.6727 C   0  0  0  0  0  0  0  0  0  0  0  0
    7.4368    2.1481   24.9334 C   0  0  0  0  0  0  0  0  0  0  0  0
    6.2902    1.9417   25.6487 C   0  0  0  0  0  0  0  0  0  0  0  0
    6.3671    2.7934   26.7914 C   0  0  0  0  0  0  0  0  0  0  0  0
    7.5568    3.4452   26.6874 C   0  0  0  0  0  0  0  0  0  0  0  0
    8.2167    3.0666   25.5732 O   0  0  0  0  0  0  0  0  0  0  0  0
    8.0627    4.1848   27.2886 H   0  0  0  0  0  0  0  0  0  0  0  0
    5.6375    2.9051   27.5828 H   0  0  0  0  0  0  0  0  0  0  0  0
    5.5152    1.2460   25.3512 H   0  0  0  0  0  0  0  0  0  0  0  0
    7.1820    0.5614   23.1097 N   0  0  0  0  0  0  0  0  0  0  0  0
    7.9071    0.2468   22.0227 N   0  0  0  0  0  0  0  0  0  0  0  0
    7.3927   -0.6858   21.0243 C   0  0  0  0  0  0  0  0  0  0  0  0
    6.6553   -0.0037   19.8834 C   0  0  0  0  0  0  0  0  0  0  0  0
    5.4416    0.6474   20.1355 C   0  0  0  0  0  0  0  0  0  0  0  0
    4.7991    1.3081   19.0847 C   0  0  0  0  0  0  0  0  0  0  0  0
    5.3951    1.2976   17.8205 C   0  0  0  0  0  0  0  0  0  0  0  0
    6.5543    0.6760   17.5579 N   0  0  0  0  0  0  0  0  0  0  0  0
    7.1610    0.0522   18.5756 C   0  0  0  0  0  0  0  0  0  0  0  0
    8.1068   -0.4337   18.3275 H   0  0  0  0  0  0  0  0  0  0  0  0
    4.9247    1.8079   16.9802 H   0  0  0  0  0  0  0  0  0  0  0  0
    3.8680    1.8457   19.2347 H   0  0  0  0  0  0  0  0  0  0  0  0
    5.0249    0.6426   21.1443 H   0  0  0  0  0  0  0  0  0  0  0  0
    6.7261   -1.3592   21.5721 H   0  0  0  0  0  0  0  0  0  0  0  0
    8.2274   -1.2840   20.6417 H   0  0  0  0  0  0  0  0  0  0  0  0
    9.6353    0.6929   19.9877 H   0  0  0  0  0  0  0  0  0  0  0  0
   10.6479    1.7942   20.9218 H   0  0  0  0  0  0  0  0  0  0  0  0
   11.7846   -0.4810   20.4989 H   0  0  0  0  0  0  0  0  0  0  0  0
   10.5091   -1.2571   21.3915 H   0  0  0  0  0  0  0  0  0  0  0  0
   11.2082   -0.4788   23.8146 C   0  0  0  0  0  0  0  0  0  0  0  0
   10.3418   -1.1333   23.8487 H   0  0  0  0  0  0  0  0  0  0  0  0
   13.3464    1.2493   21.8031 H   0  0  0  0  0  0  0  0  0  0  0  0
   13.5292    0.7504   25.9186 H   0  0  0  0  0  0  0  0  0  0  0  0
  1  2  1  0
  2  3  2  0
  3  4  1  0
  4  5  2  0
  5  6  1  0
  6  7  1  0
  7  8  1  0
  8  9  1  0
  9 10  2  0
 10 11  1  0
 11 12  1  0
 12 13  2  0
 13 14  1  0
 14 15  2  0
 15 16  1  0
 15 17  1  0
 14 18  1  0
 13 19  1  0
 11 20  2  0
 20 21  1  0
 21 22  1  0
 22 23  1  0
 23 24  2  0
 24 25  1  0
 25 26  2  0
 26 27  1  0
 27 28  2  0
 28 29  1  0
 26 30  1  0
 25 31  1  0
 24 32  1  0
 22 33  1  0
 22 34  1  0
  8 35  1  0
  8 36  1  0
  7 37  1  0
  7 38  1  0
  6 39  2  0
 39 40  1  0
  5 41  1  0
  3 42  1  0
 39  2  1  0
 21  9  1  0
 28 23  1  0
 16 12  1  0
M  END
>  <cnnaffinity>  (1) 
-6.02265

>  <filename>  (1) 
Fc1cncc(CCc2nc(-c3ccco3)nn2Cc2cccnc2)c1

$$$$
