
     RDKit          3D

 41 44  0  0  0  0  0  0  0  0999 V2000
   13.3004    1.5846   24.3861 F   0  0  0  0  0  0  0  0  0  0  0  0
   12.4606    1.3141   23.3872 C   0  0  0  0  0  0  0  0  0  0  0  0
   12.7172    0.2085   22.5848 C   0  0  0  0  0  0  0  0  0  0  0  0
   11.7982   -0.1517   21.5990 C   0  0  0  0  0  0  0  0  0  0  0  0
   10.6246    0.5837   21.4191 C   0  0  0  0  0  0  0  0  0  0  0  0
    9.5185    0.0671   20.5336 C   0  0  0  0  0  0  0  0  0  0  0  0
    8.4750   -0.7099   21.2828 C   0  0  0  0  0  0  0  0  0  0  0  0
    8.6734   -1.4690   22.3440 N   0  0  0  0  0  0  0  0  0  0  0  0
    7.4645   -2.0434   22.5503 C   0  0  0  0  0  0  0  0  0  0  0  0
    7.2485   -3.0304   23.6494 C   0  0  0  0  0  0  0  0  0  0  0  0
    6.3094   -2.6079   24.8058 C   0  0  0  0  0  0  0  0  0  0  0  0
    5.7634   -3.9484   25.3267 C   0  0  0  0  0  0  0  0  0  0  0  0
    6.1034   -4.9409   24.3691 O   0  0  0  0  0  0  0  0  0  0  0  0
    6.6156   -4.3541   23.1916 C   0  0  0  0  0  0  0  0  0  0  0  0
    7.3491   -5.0495   22.7668 H   0  0  0  0  0  0  0  0  0  0  0  0
    5.8240   -4.1955   22.4387 H   0  0  0  0  0  0  0  0  0  0  0  0
    4.6731   -3.9127   25.4597 H   0  0  0  0  0  0  0  0  0  0  0  0
    6.1990   -4.2440   26.2913 H   0  0  0  0  0  0  0  0  0  0  0  0
    5.4914   -1.9767   24.4413 H   0  0  0  0  0  0  0  0  0  0  0  0
    6.8354   -2.0490   25.5854 H   0  0  0  0  0  0  0  0  0  0  0  0
    8.2436   -3.2381   24.0583 H   0  0  0  0  0  0  0  0  0  0  0  0
    6.5255   -1.6886   21.6894 N   0  0  0  0  0  0  0  0  0  0  0  0
    7.1816   -0.8423   20.8562 N   0  0  0  0  0  0  0  0  0  0  0  0
    6.5059   -0.1534   19.8109 C   0  0  0  0  0  0  0  0  0  0  0  0
    5.3327    0.5583   20.0788 C   0  0  0  0  0  0  0  0  0  0  0  0
    4.7663    1.3164   19.0507 C   0  0  0  0  0  0  0  0  0  0  0  0
    5.3854    1.3287   17.7951 C   0  0  0  0  0  0  0  0  0  0  0  0
    6.4891    0.6187   17.5193 N   0  0  0  0  0  0  0  0  0  0  0  0
    7.0268   -0.1082   18.5044 C   0  0  0  0  0  0  0  0  0  0  0  0
    7.9304   -0.6618   18.2535 H   0  0  0  0  0  0  0  0  0  0  0  0
    4.9747    1.9187   16.9792 H   0  0  0  0  0  0  0  0  0  0  0  0
    3.8698    1.9056   19.2146 H   0  0  0  0  0  0  0  0  0  0  0  0
    4.9035    0.5238   21.0783 H   0  0  0  0  0  0  0  0  0  0  0  0
    9.0515    0.9068   20.0090 H   0  0  0  0  0  0  0  0  0  0  0  0
    9.9204   -0.6252   19.7842 H   0  0  0  0  0  0  0  0  0  0  0  0
   10.4291    1.7453   22.1770 C   0  0  0  0  0  0  0  0  0  0  0  0
   11.3477    2.1284   23.1573 C   0  0  0  0  0  0  0  0  0  0  0  0
   11.1342    3.5975   24.0485 Cl  0  0  0  0  0  0  0  0  0  0  0  0
    9.5488    2.3607   22.0262 H   0  0  0  0  0  0  0  0  0  0  0  0
   12.0120   -1.0038   20.9576 H   0  0  0  0  0  0  0  0  0  0  0  0
   13.6283   -0.3508   22.7507 H   0  0  0  0  0  0  0  0  0  0  0  0
  1  2  1  0
  2  3  2  0
  3  4  1  0
  4  5  2  0
  5  6  1  0
  6  7  1  0
  7  8  2  0
  8  9  1  0
  9 10  1  0
 10 11  1  0
 11 12  1  0
 12 13  1  0
 13 14  1  0
 14 15  1  0
 14 16  1  0
 12 17  1  0
 12 18  1  0
 11 19  1  0
 11 20  1  0
 10 21  1  0
  9 22  2  0
 22 23  1  0
 23 24  1  0
 24 25  2  0
 25 26  1  0
 26 27  2  0
 27 28  1  0
 28 29  2  0
 29 30  1  0
 27 31  1  0
 26 32  1  0
 25 33  1  0
  6 34  1  0
  6 35  1  0
  5 36  1  0
 36 37  2  0
 37 38  1  0
 36 39  1  0
  4 40  1  0
  3 41  1  0
 37  2  1  0
 23  7  1  0
 29 24  1  0
 14 10  1  0
M  END
>  <cnnaffinity>  (1) 
-6.55535

>  <filename>  (1) 
Fc1ccc(Cc2nc(C3CCOC3)nn2-c2cccnc2)cc1Cl

$$$$
