
     RDKit          3D

 41 44  0  0  0  0  0  0  0  0999 V2000
   10.9309    3.4430   24.1013 F   0  0  0  0  0  0  0  0  0  0  0  0
   11.2382    2.3411   23.4005 C   0  0  0  0  0  0  0  0  0  0  0  0
   12.4249    1.6667   23.6778 C   0  0  0  0  0  0  0  0  0  0  0  0
   12.7377    0.5141   22.9524 C   0  0  0  0  0  0  0  0  0  0  0  0
   11.8594    0.0820   21.9616 C   0  0  0  0  0  0  0  0  0  0  0  0
   12.1529   -1.0465   21.2928 F   0  0  0  0  0  0  0  0  0  0  0  0
   10.6774    0.7688   21.6584 C   0  0  0  0  0  0  0  0  0  0  0  0
    9.6659    0.2284   20.6775 C   0  0  0  0  0  0  0  0  0  0  0  0
    8.6375   -0.6150   21.3323 C   0  0  0  0  0  0  0  0  0  0  0  0
    8.8626   -1.4854   22.2945 N   0  0  0  0  0  0  0  0  0  0  0  0
    7.6389   -2.0225   22.5098 C   0  0  0  0  0  0  0  0  0  0  0  0
    7.3985   -2.9373   23.6763 C   0  0  0  0  0  0  0  0  0  0  0  0
    6.9297   -2.1834   24.9518 C   0  0  0  0  0  0  0  0  0  0  0  0
    6.0022   -3.2040   25.6209 C   0  0  0  0  0  0  0  0  0  0  0  0
    5.4644   -4.0296   24.4427 C   0  0  0  0  0  0  0  0  0  0  0  0
    6.4064   -3.9072   23.3885 O   0  0  0  0  0  0  0  0  0  0  0  0
    5.3774   -5.0978   24.6713 H   0  0  0  0  0  0  0  0  0  0  0  0
    4.4868   -3.6710   24.0885 H   0  0  0  0  0  0  0  0  0  0  0  0
    5.1903   -2.7322   26.1803 H   0  0  0  0  0  0  0  0  0  0  0  0
    6.5572   -3.8416   26.3177 H   0  0  0  0  0  0  0  0  0  0  0  0
    6.3837   -1.2725   24.6737 H   0  0  0  0  0  0  0  0  0  0  0  0
    7.7737   -1.8751   25.5788 H   0  0  0  0  0  0  0  0  0  0  0  0
    8.3569   -3.4428   23.8556 H   0  0  0  0  0  0  0  0  0  0  0  0
    6.6776   -1.5523   21.7351 N   0  0  0  0  0  0  0  0  0  0  0  0
    7.3327   -0.6790   20.9361 N   0  0  0  0  0  0  0  0  0  0  0  0
    6.6486    0.0077   19.8980 C   0  0  0  0  0  0  0  0  0  0  0  0
    5.4346    0.6447   20.1647 C   0  0  0  0  0  0  0  0  0  0  0  0
    4.8115    1.3116   19.1084 C   0  0  0  0  0  0  0  0  0  0  0  0
    5.3989    1.2966   17.8360 C   0  0  0  0  0  0  0  0  0  0  0  0
    6.5561    0.6711   17.5733 N   0  0  0  0  0  0  0  0  0  0  0  0
    7.1632    0.0502   18.5895 C   0  0  0  0  0  0  0  0  0  0  0  0
    8.1110   -0.4303   18.3597 H   0  0  0  0  0  0  0  0  0  0  0  0
    4.9228    1.7875   16.9921 H   0  0  0  0  0  0  0  0  0  0  0  0
    3.8804    1.8402   19.2589 H   0  0  0  0  0  0  0  0  0  0  0  0
    5.0178    0.6060   21.1750 H   0  0  0  0  0  0  0  0  0  0  0  0
    9.1796    1.0628   20.1678 H   0  0  0  0  0  0  0  0  0  0  0  0
   10.1161   -0.4395   19.9392 H   0  0  0  0  0  0  0  0  0  0  0  0
   10.3609    1.9063   22.4106 C   0  0  0  0  0  0  0  0  0  0  0  0
    9.4297    2.4447   22.2496 H   0  0  0  0  0  0  0  0  0  0  0  0
   13.6431   -0.0577   23.1278 H   0  0  0  0  0  0  0  0  0  0  0  0
   13.0864    2.0438   24.4455 H   0  0  0  0  0  0  0  0  0  0  0  0
  1  2  1  0
  2  3  2  0
  3  4  1  0
  4  5  2  0
  5  6  1  0
  5  7  1  0
  7  8  1  0
  8  9  1  0
  9 10  2  0
 10 11  1  0
 11 12  1  0
 12 13  1  0
 13 14  1  0
 14 15  1  0
 15 16  1  0
 15 17  1  0
 15 18  1  0
 14 19  1  0
 14 20  1  0
 13 21  1  0
 13 22  1  0
 12 23  1  0
 11 24  2  0
 24 25  1  0
 25 26  1  0
 26 27  2  0
 27 28  1  0
 28 29  2  0
 29 30  1  0
 30 31  2  0
 31 32  1  0
 29 33  1  0
 28 34  1  0
 27 35  1  0
  8 36  1  0
  8 37  1  0
  7 38  2  0
 38 39  1  0
  4 40  1  0
  3 41  1  0
 38  2  1  0
 25  9  1  0
 31 26  1  0
 16 12  1  0
M  END
>  <cnnaffinity>  (1) 
-6.50399

>  <filename>  (1) 
Fc1ccc(F)c(Cc2nc(C3CCCO3)nn2-c2cccnc2)c1

$$$$
