
     RDKit          3D

 48 51  0  0  0  0  0  0  0  0999 V2000
    9.3298    4.4575   24.9881 F   0  0  0  0  0  0  0  0  0  0  0  0
    8.9141    3.1818   25.0780 C   0  0  0  0  0  0  0  0  0  0  0  0
    7.6076    2.9223   25.4899 C   0  0  0  0  0  0  0  0  0  0  0  0
    7.1821    1.5938   25.5857 C   0  0  0  0  0  0  0  0  0  0  0  0
    8.0553    0.5432   25.2637 C   0  0  0  0  0  0  0  0  0  0  0  0
    7.5936   -0.8109   25.3475 N   0  0  0  0  0  0  0  0  0  0  0  0
    6.9834   -1.2892   26.4680 N   0  0  0  0  0  0  0  0  0  0  0  0
    6.6956   -2.5287   26.1453 C   0  0  0  0  0  0  0  0  0  0  0  0
    5.9699   -3.4743   27.0686 C   0  0  0  0  0  0  0  0  0  0  0  0
    4.5298   -3.7681   26.5786 C   0  0  0  0  0  0  0  0  0  0  0  0
    3.8617   -4.8223   27.4602 C   0  0  0  0  0  0  0  0  0  0  0  0
    4.6317   -6.0090   27.5329 O   0  0  0  0  0  0  0  0  0  0  0  0
    5.9065   -5.7809   28.1089 C   0  0  0  0  0  0  0  0  0  0  0  0
    6.7354   -4.8013   27.2783 C   0  0  0  0  0  0  0  0  0  0  0  0
    7.6987   -4.6227   27.7720 H   0  0  0  0  0  0  0  0  0  0  0  0
    6.9448   -5.2552   26.3028 H   0  0  0  0  0  0  0  0  0  0  0  0
    5.7807   -5.3940   29.1349 H   0  0  0  0  0  0  0  0  0  0  0  0
    6.4004   -6.7562   28.1796 H   0  0  0  0  0  0  0  0  0  0  0  0
    3.7071   -4.4225   28.4772 H   0  0  0  0  0  0  0  0  0  0  0  0
    2.8815   -5.1057   27.0622 H   0  0  0  0  0  0  0  0  0  0  0  0
    3.9256   -2.8526   26.5765 H   0  0  0  0  0  0  0  0  0  0  0  0
    4.5685   -4.1412   25.5489 H   0  0  0  0  0  0  0  0  0  0  0  0
    5.8960   -2.9557   28.0310 H   0  0  0  0  0  0  0  0  0  0  0  0
    7.0491   -2.8837   24.8763 N   0  0  0  0  0  0  0  0  0  0  0  0
    7.6026   -1.7883   24.4003 C   0  0  0  0  0  0  0  0  0  0  0  0
    8.0074   -1.5943   22.9761 C   0  0  0  0  0  0  0  0  0  0  0  0
    6.9679   -0.7811   22.2042 C   0  0  0  0  0  0  0  0  0  0  0  0
    7.4174   -0.6834   20.8554 O   0  0  0  0  0  0  0  0  0  0  0  0
    6.6682   -0.0025   19.9374 C   0  0  0  0  0  0  0  0  0  0  0  0
    5.4462    0.6416   20.1829 C   0  0  0  0  0  0  0  0  0  0  0  0
    4.8159    1.3023   19.1125 C   0  0  0  0  0  0  0  0  0  0  0  0
    5.4027    1.2901   17.8444 C   0  0  0  0  0  0  0  0  0  0  0  0
    6.5699    0.6681   17.5971 N   0  0  0  0  0  0  0  0  0  0  0  0
    7.1782    0.0547   18.6157 C   0  0  0  0  0  0  0  0  0  0  0  0
    8.1234   -0.4348   18.3983 H   0  0  0  0  0  0  0  0  0  0  0  0
    4.9187    1.7804   16.9966 H   0  0  0  0  0  0  0  0  0  0  0  0
    3.8821    1.8367   19.2624 H   0  0  0  0  0  0  0  0  0  0  0  0
    5.0003    0.6310   21.1795 H   0  0  0  0  0  0  0  0  0  0  0  0
    6.8464    0.2170   22.6519 H   0  0  0  0  0  0  0  0  0  0  0  0
    6.0005   -1.2968   22.2407 H   0  0  0  0  0  0  0  0  0  0  0  0
    8.9741   -1.0906   22.9090 H   0  0  0  0  0  0  0  0  0  0  0  0
    8.1237   -2.5754   22.5120 H   0  0  0  0  0  0  0  0  0  0  0  0
    9.3672    0.8322   24.8569 C   0  0  0  0  0  0  0  0  0  0  0  0
    9.8027    2.1582   24.7639 C   0  0  0  0  0  0  0  0  0  0  0  0
   10.8128    2.4013   24.4492 H   0  0  0  0  0  0  0  0  0  0  0  0
   10.0576    0.0246   24.6410 H   0  0  0  0  0  0  0  0  0  0  0  0
    6.1769    1.3631   25.9216 H   0  0  0  0  0  0  0  0  0  0  0  0
    6.9532    3.7534   25.7382 H   0  0  0  0  0  0  0  0  0  0  0  0
  1  2  1  0
  2  3  2  0
  3  4  1  0
  4  5  2  0
  5  6  1  0
  6  7  1  0
  7  8  2  0
  8  9  1  0
  9 10  1  0
 10 11  1  0
 11 12  1  0
 12 13  1  0
 13 14  1  0
 14 15  1  0
 14 16  1  0
 13 17  1  0
 13 18  1  0
 11 19  1  0
 11 20  1  0
 10 21  1  0
 10 22  1  0
  9 23  1  0
  8 24  1  0
 24 25  2  0
 25 26  1  0
 26 27  1  0
 27 28  1  0
 28 29  1  0
 29 30  2  0
 30 31  1  0
 31 32  2  0
 32 33  1  0
 33 34  2  0
 34 35  1  0
 32 36  1  0
 31 37  1  0
 30 38  1  0
 27 39  1  0
 27 40  1  0
 26 41  1  0
 26 42  1  0
  5 43  1  0
 43 44  2  0
 44 45  1  0
 43 46  1  0
  4 47  1  0
  3 48  1  0
 44  2  1  0
 25  6  1  0
 34 29  1  0
 14  9  1  0
M  END
>  <cnnaffinity>  (1) 
-5.61561

>  <filename>  (1) 
Fc1ccc(-n2nc(C3CCOCC3)nc2CCOc2cccnc2)cc1

$$$$
