
     RDKit          3D

 42 45  0  0  0  0  0  0  0  0999 V2000
   12.0293   -1.2582   21.3334 F   0  0  0  0  0  0  0  0  0  0  0  0
   11.8403   -0.0946   21.9791 C   0  0  0  0  0  0  0  0  0  0  0  0
   12.7492    0.3060   22.9476 C   0  0  0  0  0  0  0  0  0  0  0  0
   12.4784    1.5167   23.5944 C   0  0  0  0  0  0  0  0  0  0  0  0
   11.3360    2.2427   23.2400 C   0  0  0  0  0  0  0  0  0  0  0  0
   10.4607    1.8364   22.3038 N   0  0  0  0  0  0  0  0  0  0  0  0
   10.7043    0.6834   21.6773 C   0  0  0  0  0  0  0  0  0  0  0  0
    9.6700    0.2262   20.6859 C   0  0  0  0  0  0  0  0  0  0  0  0
    8.6378   -0.6035   21.3435 C   0  0  0  0  0  0  0  0  0  0  0  0
    8.8625   -1.4538   22.3192 N   0  0  0  0  0  0  0  0  0  0  0  0
    7.6393   -1.9843   22.5592 C   0  0  0  0  0  0  0  0  0  0  0  0
    7.3789   -2.9423   23.6860 C   0  0  0  0  0  0  0  0  0  0  0  0
    7.5848   -2.2794   25.0726 C   0  0  0  0  0  0  0  0  0  0  0  0
    9.0635   -2.5176   25.4422 C   0  0  0  0  0  0  0  0  0  0  0  0
    9.5451   -3.7223   24.6020 C   0  0  0  0  0  0  0  0  0  0  0  0
    8.3639   -4.1354   23.6949 C   0  0  0  0  0  0  0  0  0  0  0  0
    7.8584   -5.0197   24.1008 H   0  0  0  0  0  0  0  0  0  0  0  0
    8.6924   -4.4042   22.6846 H   0  0  0  0  0  0  0  0  0  0  0  0
   10.4127   -3.4404   23.9976 H   0  0  0  0  0  0  0  0  0  0  0  0
    9.8629   -4.5622   25.2298 H   0  0  0  0  0  0  0  0  0  0  0  0
    9.6600   -1.6313   25.2023 H   0  0  0  0  0  0  0  0  0  0  0  0
    9.1741   -2.6912   26.5184 H   0  0  0  0  0  0  0  0  0  0  0  0
    7.3237   -1.2141   25.0638 H   0  0  0  0  0  0  0  0  0  0  0  0
    6.9205   -2.7525   25.8056 H   0  0  0  0  0  0  0  0  0  0  0  0
    6.3460   -3.2639   23.5454 H   0  0  0  0  0  0  0  0  0  0  0  0
    6.6844   -1.5497   21.7591 N   0  0  0  0  0  0  0  0  0  0  0  0
    7.3346   -0.6829   20.9369 N   0  0  0  0  0  0  0  0  0  0  0  0
    6.6489    0.0030   19.9011 C   0  0  0  0  0  0  0  0  0  0  0  0
    5.4351    0.6460   20.1649 C   0  0  0  0  0  0  0  0  0  0  0  0
    4.8117    1.3115   19.1082 C   0  0  0  0  0  0  0  0  0  0  0  0
    5.4002    1.2956   17.8363 C   0  0  0  0  0  0  0  0  0  0  0  0
    6.5589    0.6717   17.5760 N   0  0  0  0  0  0  0  0  0  0  0  0
    7.1646    0.0504   18.5931 C   0  0  0  0  0  0  0  0  0  0  0  0
    8.1132   -0.4291   18.3659 H   0  0  0  0  0  0  0  0  0  0  0  0
    4.9213    1.7854   16.9928 H   0  0  0  0  0  0  0  0  0  0  0  0
    3.8801    1.8405   19.2597 H   0  0  0  0  0  0  0  0  0  0  0  0
    5.0148    0.6109   21.1732 H   0  0  0  0  0  0  0  0  0  0  0  0
   10.0966   -0.4182   19.9150 H   0  0  0  0  0  0  0  0  0  0  0  0
    9.2154    1.1036   20.2253 H   0  0  0  0  0  0  0  0  0  0  0  0
   11.1077    3.1847   23.7316 H   0  0  0  0  0  0  0  0  0  0  0  0
   13.1444    1.8876   24.3611 H   0  0  0  0  0  0  0  0  0  0  0  0
   13.6114   -0.3226   23.1718 H   0  0  0  0  0  0  0  0  0  0  0  0
  1  2  1  0
  2  3  2  0
  3  4  1  0
  4  5  2  0
  5  6  1  0
  6  7  2  0
  7  8  1  0
  8  9  1  0
  9 10  2  0
 10 11  1  0
 11 12  1  0
 12 13  1  0
 13 14  1  0
 14 15  1  0
 15 16  1  0
 16 17  1  0
 16 18  1  0
 15 19  1  0
 15 20  1  0
 14 21  1  0
 14 22  1  0
 13 23  1  0
 13 24  1  0
 12 25  1  0
 11 26  2  0
 26 27  1  0
 27 28  1  0
 28 29  2  0
 29 30  1  0
 30 31  2  0
 31 32  1  0
 32 33  2  0
 33 34  1  0
 31 35  1  0
 30 36  1  0
 29 37  1  0
  8 38  1  0
  8 39  1  0
  5 40  1  0
  4 41  1  0
  3 42  1  0
  7  2  1  0
 27  9  1  0
 33 28  1  0
 16 12  1  0
M  END
>  <cnnaffinity>  (1) 
-6.77927

>  <filename>  (1) 
Fc1cccnc1Cc1nc(C2CCCC2)nn1-c1cccnc1

$$$$
