
     RDKit          3D

 32 34  0  0  0  0  0  0  0  0999 V2000
    9.3922    0.9171   20.2291 H   0  0  0  0  0  0  0  0  0  0  0  0
    9.6876    0.0652   20.8482 C   0  0  0  0  0  0  0  0  0  0  0  0
    8.7472   -0.7958   21.2828 C   0  0  0  0  0  0  0  0  0  0  0  0
    7.2839   -0.8063   21.0007 C   0  0  0  0  0  0  0  0  0  0  0  0
    6.6243   -0.0254   19.9261 C   0  0  0  0  0  0  0  0  0  0  0  0
    7.1930    0.0164   18.6495 C   0  0  0  0  0  0  0  0  0  0  0  0
    8.1450   -0.4831   18.4610 H   0  0  0  0  0  0  0  0  0  0  0  0
    6.6506    0.6532   17.6053 N   0  0  0  0  0  0  0  0  0  0  0  0
    5.4939    1.3015   17.8177 C   0  0  0  0  0  0  0  0  0  0  0  0
    5.0677    1.8094   16.9552 H   0  0  0  0  0  0  0  0  0  0  0  0
    4.8326    1.3187   19.0524 C   0  0  0  0  0  0  0  0  0  0  0  0
    3.8991    1.8691   19.1528 H   0  0  0  0  0  0  0  0  0  0  0  0
    5.3972    0.6314   20.1262 C   0  0  0  0  0  0  0  0  0  0  0  0
    4.9103    0.6003   21.1028 H   0  0  0  0  0  0  0  0  0  0  0  0
    6.6125   -1.5783   21.7700 N   0  0  0  0  0  0  0  0  0  0  0  0
    7.5005   -2.1851   22.7633 C   0  0  0  0  0  0  0  0  0  0  0  0
    7.2973   -3.2575   22.8283 H   0  0  0  0  0  0  0  0  0  0  0  0
    7.2575   -1.7513   23.7389 H   0  0  0  0  0  0  0  0  0  0  0  0
    8.9523   -1.8556   22.3486 C   0  0  0  0  0  0  0  0  0  0  0  0
    9.5726   -1.4941   23.1735 H   0  0  0  0  0  0  0  0  0  0  0  0
    9.4471   -2.7391   21.9340 H   0  0  0  0  0  0  0  0  0  0  0  0
   11.1039    0.0715   21.3182 C   0  0  0  0  0  0  0  0  0  0  0  0
   11.6683    1.2716   21.7896 C   0  0  0  0  0  0  0  0  0  0  0  0
   11.0780    2.1828   21.7723 H   0  0  0  0  0  0  0  0  0  0  0  0
   12.9508    1.3001   22.3476 C   0  0  0  0  0  0  0  0  0  0  0  0
   13.3511    2.2430   22.7173 H   0  0  0  0  0  0  0  0  0  0  0  0
   13.7326    0.1396   22.3845 C   0  0  0  0  0  0  0  0  0  0  0  0
   14.7284    0.1236   22.8200 H   0  0  0  0  0  0  0  0  0  0  0  0
   13.1952   -1.0262   21.8496 C   0  0  0  0  0  0  0  0  0  0  0  0
   13.9509   -2.1383   21.8378 F   0  0  0  0  0  0  0  0  0  0  0  0
   11.8952   -1.0940   21.3539 C   0  0  0  0  0  0  0  0  0  0  0  0
   11.5010   -2.0459   21.0163 H   0  0  0  0  0  0  0  0  0  0  0  0
  1  2  1  0
  2  3  2  3
  3  4  1  0
  4  5  1  0
  5  6  2  0
  6  7  1  0
  6  8  1  0
  8  9  2  0
  9 10  1  0
  9 11  1  0
 11 12  1  0
 11 13  2  0
 13 14  1  0
  4 15  2  0
 15 16  1  0
 16 17  1  0
 16 18  1  0
 16 19  1  0
 19 20  1  0
 19 21  1  0
  2 22  1  0
 22 23  2  0
 23 24  1  0
 23 25  1  0
 25 26  1  0
 25 27  2  0
 27 28  1  0
 27 29  1  0
 29 30  1  0
 29 31  2  0
 31 32  1  0
 19  3  1  0
 31 22  1  0
 13  5  1  0
M  END
>  <cnnaffinity>  (1) 
-5.83653

>  <filename>  (1) 
Fc1cccc(C=C2CCN=C2c2cccnc2)c1

$$$$
