
     RDKit          3D

 44 47  0  0  0  0  0  0  0  0999 V2000
    6.1029    4.6750   27.3829 F   0  0  0  0  0  0  0  0  0  0  0  0
    5.8210    3.6387   26.5764 C   0  0  0  0  0  0  0  0  0  0  0  0
    4.4931    3.2330   26.4060 C   0  0  0  0  0  0  0  0  0  0  0  0
    4.1544    2.2018   25.6219 N   0  0  0  0  0  0  0  0  0  0  0  0
    5.1386    1.5546   24.9786 C   0  0  0  0  0  0  0  0  0  0  0  0
    6.4984    1.9064   25.0639 C   0  0  0  0  0  0  0  0  0  0  0  0
    7.5284    1.2178   24.2103 C   0  0  0  0  0  0  0  0  0  0  0  0
    7.6375    1.8174   22.7796 C   0  0  0  0  0  0  0  0  0  0  0  0
    8.6271    1.0411   21.9742 C   0  0  0  0  0  0  0  0  0  0  0  0
    9.9367    1.1783   22.1058 N   0  0  0  0  0  0  0  0  0  0  0  0
   10.4252   -0.0009   21.6495 C   0  0  0  0  0  0  0  0  0  0  0  0
   11.8645   -0.4047   21.7605 C   0  0  0  0  0  0  0  0  0  0  0  0
   12.8414    0.4147   22.3603 C   0  0  0  0  0  0  0  0  0  0  0  0
   14.1551   -0.0518   22.4238 C   0  0  0  0  0  0  0  0  0  0  0  0
   14.5512   -1.2374   21.9465 N   0  0  0  0  0  0  0  0  0  0  0  0
   13.6326   -2.0199   21.3753 C   0  0  0  0  0  0  0  0  0  0  0  0
   12.2851   -1.6653   21.2900 C   0  0  0  0  0  0  0  0  0  0  0  0
   11.5408   -2.3081   20.8452 H   0  0  0  0  0  0  0  0  0  0  0  0
   14.0158   -2.9398   20.9364 H   0  0  0  0  0  0  0  0  0  0  0  0
   14.9393    0.5669   22.8463 H   0  0  0  0  0  0  0  0  0  0  0  0
   12.6232    1.4033   22.7492 H   0  0  0  0  0  0  0  0  0  0  0  0
    9.4939   -0.8269   21.1916 N   0  0  0  0  0  0  0  0  0  0  0  0
    8.3459   -0.1487   21.3907 N   0  0  0  0  0  0  0  0  0  0  0  0
    7.0642   -0.7265   20.9929 C   0  0  0  0  0  0  0  0  0  0  0  0
    6.3831    0.0252   19.8675 C   0  0  0  0  0  0  0  0  0  0  0  0
    5.1696    0.7076   20.0094 C   0  0  0  0  0  0  0  0  0  0  0  0
    4.6563    1.4082   18.9124 C   0  0  0  0  0  0  0  0  0  0  0  0
    5.3724    1.3920   17.7118 C   0  0  0  0  0  0  0  0  0  0  0  0
    6.5243    0.7223   17.5498 N   0  0  0  0  0  0  0  0  0  0  0  0
    7.0091    0.0683   18.6108 C   0  0  0  0  0  0  0  0  0  0  0  0
    7.9548   -0.4529   18.4611 H   0  0  0  0  0  0  0  0  0  0  0  0
    5.0134    1.9443   16.8438 H   0  0  0  0  0  0  0  0  0  0  0  0
    3.7426    1.9885   18.9817 H   0  0  0  0  0  0  0  0  0  0  0  0
    4.6389    0.7046   20.9656 H   0  0  0  0  0  0  0  0  0  0  0  0
    7.2931   -1.7533   20.6893 H   0  0  0  0  0  0  0  0  0  0  0  0
    6.4110   -0.7850   21.8730 H   0  0  0  0  0  0  0  0  0  0  0  0
    6.6624    1.8237   22.2880 H   0  0  0  0  0  0  0  0  0  0  0  0
    7.9782    2.8544   22.8447 H   0  0  0  0  0  0  0  0  0  0  0  0
    7.2901    0.1471   24.1266 H   0  0  0  0  0  0  0  0  0  0  0  0
    8.5177    1.2710   24.6831 H   0  0  0  0  0  0  0  0  0  0  0  0
    6.8453    2.9768   25.9097 C   0  0  0  0  0  0  0  0  0  0  0  0
    7.8769    3.2950   26.0615 H   0  0  0  0  0  0  0  0  0  0  0  0
    4.8262    0.7154   24.3566 H   0  0  0  0  0  0  0  0  0  0  0  0
    3.6930    3.7655   26.9163 H   0  0  0  0  0  0  0  0  0  0  0  0
  1  2  1  0
  2  3  2  0
  3  4  1  0
  4  5  2  0
  5  6  1  0
  6  7  1  0
  7  8  1  0
  8  9  1  0
  9 10  2  0
 10 11  1  0
 11 12  1  0
 12 13  2  0
 13 14  1  0
 14 15  2  0
 15 16  1  0
 16 17  2  0
 17 18  1  0
 16 19  1  0
 14 20  1  0
 13 21  1  0
 11 22  2  0
 22 23  1  0
 23 24  1  0
 24 25  1  0
 25 26  2  0
 26 27  1  0
 27 28  2  0
 28 29  1  0
 29 30  2  0
 30 31  1  0
 28 32  1  0
 27 33  1  0
 26 34  1  0
 24 35  1  0
 24 36  1  0
  8 37  1  0
  8 38  1  0
  7 39  1  0
  7 40  1  0
  6 41  2  0
 41 42  1  0
  5 43  1  0
  3 44  1  0
 41  2  1  0
 23  9  1  0
 30 25  1  0
 17 12  1  0
M  END
>  <cnnaffinity>  (1) 
-6.65168

>  <filename>  (1) 
Fc1cncc(CCc2nc(-c3ccncc3)nn2Cc2cccnc2)c1

$$$$
