
     RDKit          3D

 43 46  0  0  0  0  0  0  0  0999 V2000
    6.9826    7.5045   23.6378 F   0  0  0  0  0  0  0  0  0  0  0  0
    7.4265    6.2575   23.4318 C   0  0  0  0  0  0  0  0  0  0  0  0
    6.5215    5.2224   23.2221 C   0  0  0  0  0  0  0  0  0  0  0  0
    7.0071    3.9271   23.0207 C   0  0  0  0  0  0  0  0  0  0  0  0
    8.3801    3.6571   23.0374 C   0  0  0  0  0  0  0  0  0  0  0  0
    8.8858    2.2699   22.7513 C   0  0  0  0  0  0  0  0  0  0  0  0
    9.0338    2.0198   21.2473 C   0  0  0  0  0  0  0  0  0  0  0  0
    9.5362    0.6039   20.9241 C   0  0  0  0  0  0  0  0  0  0  0  0
    8.6316   -0.4675   21.4310 C   0  0  0  0  0  0  0  0  0  0  0  0
    8.8541   -1.2590   22.4598 N   0  0  0  0  0  0  0  0  0  0  0  0
    7.6704   -1.9158   22.5936 C   0  0  0  0  0  0  0  0  0  0  0  0
    7.4726   -2.9618   23.6245 C   0  0  0  0  0  0  0  0  0  0  0  0
    8.4401   -4.1133   23.7077 C   0  0  0  0  0  0  0  0  0  0  0  0
    7.0484   -4.3412   23.2021 C   0  0  0  0  0  0  0  0  0  0  0  0
    6.3426   -4.8815   23.8268 H   0  0  0  0  0  0  0  0  0  0  0  0
    6.9064   -4.4898   22.1367 H   0  0  0  0  0  0  0  0  0  0  0  0
    9.2579   -4.1149   22.9932 H   0  0  0  0  0  0  0  0  0  0  0  0
    8.7112   -4.5010   24.6864 H   0  0  0  0  0  0  0  0  0  0  0  0
    7.0842   -2.5706   24.5585 H   0  0  0  0  0  0  0  0  0  0  0  0
    6.7428   -1.5811   21.7190 N   0  0  0  0  0  0  0  0  0  0  0  0
    7.3685   -0.6635   20.9436 N   0  0  0  0  0  0  0  0  0  0  0  0
    6.6637    0.0091   19.9036 C   0  0  0  0  0  0  0  0  0  0  0  0
    5.4413    0.6420   20.1671 C   0  0  0  0  0  0  0  0  0  0  0  0
    4.8138    1.3083   19.1097 C   0  0  0  0  0  0  0  0  0  0  0  0
    5.4024    1.2956   17.8371 C   0  0  0  0  0  0  0  0  0  0  0  0
    6.5611    0.6740   17.5777 N   0  0  0  0  0  0  0  0  0  0  0  0
    7.1704    0.0563   18.5929 C   0  0  0  0  0  0  0  0  0  0  0  0
    8.1133   -0.4350   18.3706 H   0  0  0  0  0  0  0  0  0  0  0  0
    4.9179    1.7851   16.9935 H   0  0  0  0  0  0  0  0  0  0  0  0
    3.8793    1.8388   19.2607 H   0  0  0  0  0  0  0  0  0  0  0  0
    5.0158    0.6066   21.1734 H   0  0  0  0  0  0  0  0  0  0  0  0
   10.5185    0.4372   21.3768 H   0  0  0  0  0  0  0  0  0  0  0  0
    9.6440    0.4994   19.8419 H   0  0  0  0  0  0  0  0  0  0  0  0
    8.0755    2.1997   20.7422 H   0  0  0  0  0  0  0  0  0  0  0  0
    9.7391    2.7493   20.8381 H   0  0  0  0  0  0  0  0  0  0  0  0
    9.8534    2.1102   23.2423 H   0  0  0  0  0  0  0  0  0  0  0  0
    8.2076    1.5229   23.1817 H   0  0  0  0  0  0  0  0  0  0  0  0
    9.2814    4.7139   23.2322 C   0  0  0  0  0  0  0  0  0  0  0  0
    8.8029    6.0038   23.4315 C   0  0  0  0  0  0  0  0  0  0  0  0
    9.6642    7.0114   23.6322 F   0  0  0  0  0  0  0  0  0  0  0  0
   10.3558    4.5598   23.2220 H   0  0  0  0  0  0  0  0  0  0  0  0
    6.3082    3.1166   22.8331 H   0  0  0  0  0  0  0  0  0  0  0  0
    5.4606    5.4479   23.2145 H   0  0  0  0  0  0  0  0  0  0  0  0
  1  2  1  0
  2  3  2  0
  3  4  1  0
  4  5  2  0
  5  6  1  0
  6  7  1  0
  7  8  1  0
  8  9  1  0
  9 10  2  0
 10 11  1  0
 11 12  1  0
 12 13  1  0
 13 14  1  0
 14 15  1  0
 14 16  1  0
 13 17  1  0
 13 18  1  0
 12 19  1  0
 11 20  2  0
 20 21  1  0
 21 22  1  0
 22 23  2  0
 23 24  1  0
 24 25  2  0
 25 26  1  0
 26 27  2  0
 27 28  1  0
 25 29  1  0
 24 30  1  0
 23 31  1  0
  8 32  1  0
  8 33  1  0
  7 34  1  0
  7 35  1  0
  6 36  1  0
  6 37  1  0
  5 38  1  0
 38 39  2  0
 39 40  1  0
 38 41  1  0
  4 42  1  0
  3 43  1  0
 39  2  1  0
 21  9  1  0
 27 22  1  0
 14 12  1  0
M  END
>  <cnnaffinity>  (1) 
-6.04403

>  <filename>  (1) 
Fc1ccc(CCCc2nc(C3CC3)nn2-c2cccnc2)cc1F

$$$$
