
     RDKit          3D

 33 35  0  0  0  0  0  0  0  0999 V2000
    7.8723    1.3106   23.7526 H   0  0  0  0  0  0  0  0  0  0  0  0
    7.6183    1.0636   22.7184 C   0  0  0  0  0  0  0  0  0  0  0  0
    7.2034    2.0933   21.9262 O   0  0  0  0  0  0  0  0  0  0  0  0
    7.2191    3.4239   22.3041 C   0  0  0  0  0  0  0  0  0  0  0  0
    6.4674    4.2918   21.4974 C   0  0  0  0  0  0  0  0  0  0  0  0
    5.9337    3.8780   20.6497 H   0  0  0  0  0  0  0  0  0  0  0  0
    6.4402    5.6660   21.7557 C   0  0  0  0  0  0  0  0  0  0  0  0
    5.8750    6.3598   21.1386 H   0  0  0  0  0  0  0  0  0  0  0  0
    7.1644    6.1534   22.8402 C   0  0  0  0  0  0  0  0  0  0  0  0
    7.1356    7.4674   23.1185 F   0  0  0  0  0  0  0  0  0  0  0  0
    7.9188    5.3117   23.6506 C   0  0  0  0  0  0  0  0  0  0  0  0
    8.4691    5.7252   24.4874 H   0  0  0  0  0  0  0  0  0  0  0  0
    7.9533    3.9388   23.3768 C   0  0  0  0  0  0  0  0  0  0  0  0
    8.5654    3.2823   23.9853 H   0  0  0  0  0  0  0  0  0  0  0  0
    7.6968   -0.1955   22.2707 C   0  0  0  0  0  0  0  0  0  0  0  0
    7.3645   -0.7423   20.9363 C   0  0  0  0  0  0  0  0  0  0  0  0
    6.6393    0.0110   19.8958 C   0  0  0  0  0  0  0  0  0  0  0  0
    7.1653    0.0500   18.6027 C   0  0  0  0  0  0  0  0  0  0  0  0
    8.1102   -0.4405   18.3784 H   0  0  0  0  0  0  0  0  0  0  0  0
    6.5713    0.6759   17.5838 N   0  0  0  0  0  0  0  0  0  0  0  0
    5.4060    1.2929   17.8379 C   0  0  0  0  0  0  0  0  0  0  0  0
    4.9289    1.7825   16.9934 H   0  0  0  0  0  0  0  0  0  0  0  0
    4.7973    1.3068   19.0967 C   0  0  0  0  0  0  0  0  0  0  0  0
    3.8703    1.8464   19.2518 H   0  0  0  0  0  0  0  0  0  0  0  0
    5.4216    0.6535   20.1542 C   0  0  0  0  0  0  0  0  0  0  0  0
    4.9824    0.6482   21.1537 H   0  0  0  0  0  0  0  0  0  0  0  0
    7.7391   -1.9528   20.7559 N   0  0  0  0  0  0  0  0  0  0  0  0
    8.3264   -2.4738   21.9911 C   0  0  0  0  0  0  0  0  0  0  0  0
    7.7999   -3.3865   22.2854 H   0  0  0  0  0  0  0  0  0  0  0  0
    9.3575   -2.7645   21.7775 H   0  0  0  0  0  0  0  0  0  0  0  0
    8.2448   -1.3642   23.0703 C   0  0  0  0  0  0  0  0  0  0  0  0
    7.5860   -1.6602   23.8973 H   0  0  0  0  0  0  0  0  0  0  0  0
    9.2267   -1.1517   23.5103 H   0  0  0  0  0  0  0  0  0  0  0  0
  1  2  1  0
  2  3  1  0
  3  4  1  0
  4  5  2  0
  5  6  1  0
  5  7  1  0
  7  8  1  0
  7  9  2  0
  9 10  1  0
  9 11  1  0
 11 12  1  0
 11 13  2  0
 13 14  1  0
  2 15  2  3
 15 16  1  0
 16 17  1  0
 17 18  2  0
 18 19  1  0
 18 20  1  0
 20 21  2  0
 21 22  1  0
 21 23  1  0
 23 24  1  0
 23 25  2  0
 25 26  1  0
 16 27  2  0
 27 28  1  0
 28 29  1  0
 28 30  1  0
 28 31  1  0
 31 32  1  0
 31 33  1  0
 13  4  1  0
 31 15  1  0
 25 17  1  0
M  END
>  <cnnaffinity>  (1) 
-4.91984

>  <filename>  (1) 
Fc1ccc(OC=C2CCN=C2c2cccnc2)cc1

$$$$
