
     RDKit          3D

 43 46  0  0  0  0  0  0  0  0999 V2000
    6.9191    6.6847   25.7081 F   0  0  0  0  0  0  0  0  0  0  0  0
    7.2653    5.4632   25.2717 C   0  0  0  0  0  0  0  0  0  0  0  0
    6.8550    4.3441   25.9921 C   0  0  0  0  0  0  0  0  0  0  0  0
    7.2356    3.0767   25.5358 C   0  0  0  0  0  0  0  0  0  0  0  0
    8.0110    2.9234   24.3744 C   0  0  0  0  0  0  0  0  0  0  0  0
    8.3453    1.5799   23.7903 C   0  0  0  0  0  0  0  0  0  0  0  0
    7.2591    1.1666   22.7745 C   0  0  0  0  0  0  0  0  0  0  0  0
    7.4840   -0.1879   22.2119 C   0  0  0  0  0  0  0  0  0  0  0  0
    8.0046   -1.1590   22.9265 N   0  0  0  0  0  0  0  0  0  0  0  0
    8.2115   -2.1342   22.0169 C   0  0  0  0  0  0  0  0  0  0  0  0
    8.9965   -3.3370   22.3630 C   0  0  0  0  0  0  0  0  0  0  0  0
   10.3391   -3.0222   23.0963 C   0  0  0  0  0  0  0  0  0  0  0  0
    9.9548   -4.0011   24.2185 C   0  0  0  0  0  0  0  0  0  0  0  0
    8.5706   -4.2073   23.5769 C   0  0  0  0  0  0  0  0  0  0  0  0
    8.3105   -5.2436   23.3561 H   0  0  0  0  0  0  0  0  0  0  0  0
    7.7445   -3.7734   24.1407 H   0  0  0  0  0  0  0  0  0  0  0  0
    9.9227   -3.5492   25.2109 H   0  0  0  0  0  0  0  0  0  0  0  0
   10.5707   -4.9017   24.2777 H   0  0  0  0  0  0  0  0  0  0  0  0
   10.3622   -1.9874   23.4525 H   0  0  0  0  0  0  0  0  0  0  0  0
   11.2573   -3.2128   22.5414 H   0  0  0  0  0  0  0  0  0  0  0  0
    9.0344   -3.8991   21.4360 H   0  0  0  0  0  0  0  0  0  0  0  0
    7.7994   -1.8636   20.7927 N   0  0  0  0  0  0  0  0  0  0  0  0
    7.2861   -0.6104   20.9265 N   0  0  0  0  0  0  0  0  0  0  0  0
    6.6001    0.0281   19.8656 C   0  0  0  0  0  0  0  0  0  0  0  0
    5.3854    0.6878   20.0915 C   0  0  0  0  0  0  0  0  0  0  0  0
    4.7837    1.3388   19.0136 C   0  0  0  0  0  0  0  0  0  0  0  0
    5.4112    1.3115   17.7641 C   0  0  0  0  0  0  0  0  0  0  0  0
    6.5566    0.6438   17.5344 N   0  0  0  0  0  0  0  0  0  0  0  0
    7.1267    0.0052   18.5608 C   0  0  0  0  0  0  0  0  0  0  0  0
    8.0424   -0.5444   18.3580 H   0  0  0  0  0  0  0  0  0  0  0  0
    4.9814    1.8438   16.9179 H   0  0  0  0  0  0  0  0  0  0  0  0
    3.8508    1.8755   19.1378 H   0  0  0  0  0  0  0  0  0  0  0  0
    4.9209    0.6786   21.0782 H   0  0  0  0  0  0  0  0  0  0  0  0
    7.1901    1.9203   21.9834 H   0  0  0  0  0  0  0  0  0  0  0  0
    6.2882    1.1514   23.2848 H   0  0  0  0  0  0  0  0  0  0  0  0
    8.4274    0.8211   24.5796 H   0  0  0  0  0  0  0  0  0  0  0  0
    9.3246    1.6346   23.2955 H   0  0  0  0  0  0  0  0  0  0  0  0
    8.3702    4.0878   23.6822 C   0  0  0  0  0  0  0  0  0  0  0  0
    9.0734    3.9677   22.5380 F   0  0  0  0  0  0  0  0  0  0  0  0
    8.0252    5.3646   24.1083 C   0  0  0  0  0  0  0  0  0  0  0  0
    8.3251    6.2374   23.5421 H   0  0  0  0  0  0  0  0  0  0  0  0
    6.9138    2.1908   26.0873 H   0  0  0  0  0  0  0  0  0  0  0  0
    6.2446    4.4706   26.8788 H   0  0  0  0  0  0  0  0  0  0  0  0
  1  2  1  0
  2  3  2  0
  3  4  1  0
  4  5  2  0
  5  6  1  0
  6  7  1  0
  7  8  1  0
  8  9  2  0
  9 10  1  0
 10 11  1  0
 11 12  1  0
 12 13  1  0
 13 14  1  0
 14 15  1  0
 14 16  1  0
 13 17  1  0
 13 18  1  0
 12 19  1  0
 12 20  1  0
 11 21  1  0
 10 22  2  0
 22 23  1  0
 23 24  1  0
 24 25  2  0
 25 26  1  0
 26 27  2  0
 27 28  1  0
 28 29  2  0
 29 30  1  0
 27 31  1  0
 26 32  1  0
 25 33  1  0
  7 34  1  0
  7 35  1  0
  6 36  1  0
  6 37  1  0
  5 38  1  0
 38 39  1  0
 38 40  2  0
 40 41  1  0
  4 42  1  0
  3 43  1  0
 40  2  1  0
 23  8  1  0
 29 24  1  0
 14 11  1  0
M  END
>  <cnnaffinity>  (1) 
-6.15689

>  <filename>  (1) 
Fc1ccc(CCc2nc(C3CCC3)nn2-c2cccnc2)c(F)c1

$$$$
