
     RDKit          3D

 45 49  0  0  0  0  0  0  0  0999 V2000
   13.7162   -0.2265   22.3553 F   0  0  0  0  0  0  0  0  0  0  0  0
   12.7082    0.5569   22.7600 C   0  0  0  0  0  0  0  0  0  0  0  0
   12.6942    1.0050   24.0828 C   0  0  0  0  0  0  0  0  0  0  0  0
   11.5853    1.7334   24.5100 C   0  0  0  0  0  0  0  0  0  0  0  0
   10.4978    1.9814   23.6625 C   0  0  0  0  0  0  0  0  0  0  0  0
   10.5247    1.4826   22.3521 C   0  0  0  0  0  0  0  0  0  0  0  0
    9.5123    1.5443   21.4504 O   0  0  0  0  0  0  0  0  0  0  0  0
    8.2876    2.2203   21.7290 C   0  0  0  0  0  0  0  0  0  0  0  0
    7.3306    1.4155   22.6257 C   0  0  0  0  0  0  0  0  0  0  0  0
    7.1980   -0.0107   22.2120 C   0  0  0  0  0  0  0  0  0  0  0  0
    7.6762   -1.0272   22.9018 N   0  0  0  0  0  0  0  0  0  0  0  0
    7.7279   -2.0288   21.9767 C   0  0  0  0  0  0  0  0  0  0  0  0
    8.5930   -3.2212   22.1272 C   0  0  0  0  0  0  0  0  0  0  0  0
    9.2143   -3.6165   23.4153 C   0  0  0  0  0  0  0  0  0  0  0  0
   10.1062   -2.8511   22.4025 C   0  0  0  0  0  0  0  0  0  0  0  0
   10.7799   -1.9272   21.4415 C   0  0  0  0  0  0  0  0  0  0  0  0
   11.3154   -2.0828   22.8173 C   0  0  0  0  0  0  0  0  0  0  0  0
   12.2427   -2.6576   22.8469 H   0  0  0  0  0  0  0  0  0  0  0  0
   11.2141   -1.2660   23.5258 H   0  0  0  0  0  0  0  0  0  0  0  0
   10.2139   -1.0449   21.1433 H   0  0  0  0  0  0  0  0  0  0  0  0
   11.4936   -2.2780   20.7087 H   0  0  0  0  0  0  0  0  0  0  0  0
    8.9841   -3.0352   24.3121 H   0  0  0  0  0  0  0  0  0  0  0  0
    9.4504   -4.6667   23.6004 H   0  0  0  0  0  0  0  0  0  0  0  0
    8.4434   -3.9649   21.3456 H   0  0  0  0  0  0  0  0  0  0  0  0
    7.2059   -1.7212   20.8061 N   0  0  0  0  0  0  0  0  0  0  0  0
    6.8266   -0.4201   20.9669 N   0  0  0  0  0  0  0  0  0  0  0  0
    6.3026    0.2959   19.8571 C   0  0  0  0  0  0  0  0  0  0  0  0
    5.1602    1.1037   19.9328 C   0  0  0  0  0  0  0  0  0  0  0  0
    4.6987    1.6879   18.7451 C   0  0  0  0  0  0  0  0  0  0  0  0
    5.4035    1.4757   17.5567 C   0  0  0  0  0  0  0  0  0  0  0  0
    6.5267    0.7391   17.4912 N   0  0  0  0  0  0  0  0  0  0  0  0
    6.9577    0.1679   18.6164 C   0  0  0  0  0  0  0  0  0  0  0  0
    7.8835   -0.4048   18.5611 H   0  0  0  0  0  0  0  0  0  0  0  0
    5.0534    1.9039   16.6168 H   0  0  0  0  0  0  0  0  0  0  0  0
    3.8105    2.3115   18.7377 H   0  0  0  0  0  0  0  0  0  0  0  0
    4.6435    1.2619   20.8812 H   0  0  0  0  0  0  0  0  0  0  0  0
    7.7107    1.3990   23.6486 H   0  0  0  0  0  0  0  0  0  0  0  0
    6.3520    1.9030   22.6508 H   0  0  0  0  0  0  0  0  0  0  0  0
    7.8454    2.3790   20.7435 H   0  0  0  0  0  0  0  0  0  0  0  0
    8.4783    3.2043   22.1770 H   0  0  0  0  0  0  0  0  0  0  0  0
   11.6795    0.8386   21.8831 C   0  0  0  0  0  0  0  0  0  0  0  0
   11.7057    0.4716   20.8743 H   0  0  0  0  0  0  0  0  0  0  0  0
    9.6439    2.5495   24.0110 H   0  0  0  0  0  0  0  0  0  0  0  0
   11.5589    2.1081   25.5266 H   0  0  0  0  0  0  0  0  0  0  0  0
   13.5259    0.7670   24.7340 H   0  0  0  0  0  0  0  0  0  0  0  0
  1  2  1  0
  2  3  2  0
  3  4  1  0
  4  5  2  0
  5  6  1  0
  6  7  1  0
  7  8  1  0
  8  9  1  0
  9 10  1  0
 10 11  2  0
 11 12  1  0
 12 13  1  0
 13 14  1  0
 14 15  1  0
 15 16  1  0
 16 17  1  0
 17 18  1  0
 17 19  1  0
 16 20  1  0
 16 21  1  0
 14 22  1  0
 14 23  1  0
 13 24  1  0
 12 25  2  0
 25 26  1  0
 26 27  1  0
 27 28  2  0
 28 29  1  0
 29 30  2  0
 30 31  1  0
 31 32  2  0
 32 33  1  0
 30 34  1  0
 29 35  1  0
 28 36  1  0
  9 37  1  0
  9 38  1  0
  8 39  1  0
  8 40  1  0
  6 41  2  0
 41 42  1  0
  5 43  1  0
  4 44  1  0
  3 45  1  0
 41  2  1  0
 26 10  1  0
 32 27  1  0
 15 13  1  0
 17 15  1  0
M  END
>  <cnnaffinity>  (1) 
-6.35631

>  <filename>  (1) 
Fc1cccc(OCCc2nc(C3CC34CC4)nn2-c2cccnc2)c1

$$$$
