
     RDKit          3D

 38 41  0  0  0  0  0  0  0  0999 V2000
   12.1723   -0.3398   21.8737 F   0  0  0  0  0  0  0  0  0  0  0  0
   11.5441    0.7319   22.3829 C   0  0  0  0  0  0  0  0  0  0  0  0
   12.1198    1.4217   23.4495 C   0  0  0  0  0  0  0  0  0  0  0  0
   11.5367    2.4828   24.0191 N   0  0  0  0  0  0  0  0  0  0  0  0
   10.3490    2.8712   23.5403 C   0  0  0  0  0  0  0  0  0  0  0  0
    9.7125    2.2230   22.4763 C   0  0  0  0  0  0  0  0  0  0  0  0
    8.1527    2.7732   21.9629 Cl  0  0  0  0  0  0  0  0  0  0  0  0
   10.3213    1.1295   21.8471 C   0  0  0  0  0  0  0  0  0  0  0  0
    9.6289    0.3356   20.7723 C   0  0  0  0  0  0  0  0  0  0  0  0
    8.6149   -0.5783   21.3418 C   0  0  0  0  0  0  0  0  0  0  0  0
    8.8548   -1.4346   22.3082 N   0  0  0  0  0  0  0  0  0  0  0  0
    7.6500   -2.0188   22.5063 C   0  0  0  0  0  0  0  0  0  0  0  0
    7.4243   -3.0431   23.5627 C   0  0  0  0  0  0  0  0  0  0  0  0
    8.4547   -3.4674   24.4230 C   0  0  0  0  0  0  0  0  0  0  0  0
    8.1683   -4.4308   25.3910 C   0  0  0  0  0  0  0  0  0  0  0  0
    6.9633   -4.9868   25.5586 N   0  0  0  0  0  0  0  0  0  0  0  0
    5.9872   -4.5768   24.7432 C   0  0  0  0  0  0  0  0  0  0  0  0
    6.1563   -3.6233   23.7418 C   0  0  0  0  0  0  0  0  0  0  0  0
    5.3235   -3.3276   23.1150 H   0  0  0  0  0  0  0  0  0  0  0  0
    5.0129   -5.0329   24.8899 H   0  0  0  0  0  0  0  0  0  0  0  0
    8.9489   -4.7727   26.0642 H   0  0  0  0  0  0  0  0  0  0  0  0
    9.4560   -3.0588   24.3459 H   0  0  0  0  0  0  0  0  0  0  0  0
    6.6917   -1.5943   21.6992 N   0  0  0  0  0  0  0  0  0  0  0  0
    7.3259   -0.6887   20.9221 N   0  0  0  0  0  0  0  0  0  0  0  0
    6.6440    0.0042   19.8933 C   0  0  0  0  0  0  0  0  0  0  0  0
    5.4331    0.6454   20.1642 C   0  0  0  0  0  0  0  0  0  0  0  0
    4.8109    1.3137   19.1091 C   0  0  0  0  0  0  0  0  0  0  0  0
    5.3983    1.2963   17.8378 C   0  0  0  0  0  0  0  0  0  0  0  0
    6.5562    0.6713   17.5734 N   0  0  0  0  0  0  0  0  0  0  0  0
    7.1630    0.0494   18.5873 C   0  0  0  0  0  0  0  0  0  0  0  0
    8.1126   -0.4330   18.3647 H   0  0  0  0  0  0  0  0  0  0  0  0
    4.9185    1.7849   16.9948 H   0  0  0  0  0  0  0  0  0  0  0  0
    3.8803    1.8414   19.2612 H   0  0  0  0  0  0  0  0  0  0  0  0
    5.0139    0.6084   21.1731 H   0  0  0  0  0  0  0  0  0  0  0  0
   10.3348   -0.3236   20.2682 H   0  0  0  0  0  0  0  0  0  0  0  0
    9.1680    1.0293   20.0692 H   0  0  0  0  0  0  0  0  0  0  0  0
    9.8755    3.7279   24.0081 H   0  0  0  0  0  0  0  0  0  0  0  0
   13.0808    1.0925   23.8297 H   0  0  0  0  0  0  0  0  0  0  0  0
  1  2  1  0
  2  3  2  0
  3  4  1  0
  4  5  2  0
  5  6  1  0
  6  7  1  0
  6  8  2  0
  8  9  1  0
  9 10  1  0
 10 11  2  0
 11 12  1  0
 12 13  1  0
 13 14  2  0
 14 15  1  0
 15 16  2  0
 16 17  1  0
 17 18  2  0
 18 19  1  0
 17 20  1  0
 15 21  1  0
 14 22  1  0
 12 23  2  0
 23 24  1  0
 24 25  1  0
 25 26  2  0
 26 27  1  0
 27 28  2  0
 28 29  1  0
 29 30  2  0
 30 31  1  0
 28 32  1  0
 27 33  1  0
 26 34  1  0
  9 35  1  0
  9 36  1  0
  5 37  1  0
  3 38  1  0
  8  2  1  0
 24 10  1  0
 30 25  1  0
 18 13  1  0
M  END
>  <cnnaffinity>  (1) 
-6.52644

>  <filename>  (1) 
Fc1cncc(Cl)c1Cc1nc(-c2ccncc2)nn1-c1cccnc1

$$$$
