
     RDKit          3D

 45 48  0  0  0  0  0  0  0  0999 V2000
    8.0148    3.4750   25.9169 F   0  0  0  0  0  0  0  0  0  0  0  0
    6.7385    3.0472   25.8157 C   0  0  0  0  0  0  0  0  0  0  0  0
    5.7562    3.7495   26.5111 C   0  0  0  0  0  0  0  0  0  0  0  0
    4.4279    3.3214   26.4217 C   0  0  0  0  0  0  0  0  0  0  0  0
    4.1030    2.1982   25.6542 C   0  0  0  0  0  0  0  0  0  0  0  0
    5.1112    1.5128   24.9669 C   0  0  0  0  0  0  0  0  0  0  0  0
    6.4508    1.9297   25.0188 C   0  0  0  0  0  0  0  0  0  0  0  0
    7.5143    1.2534   24.1921 C   0  0  0  0  0  0  0  0  0  0  0  0
    7.6581    1.8480   22.7619 C   0  0  0  0  0  0  0  0  0  0  0  0
    8.6463    1.0493   21.9838 C   0  0  0  0  0  0  0  0  0  0  0  0
    9.9570    1.1657   22.1100 N   0  0  0  0  0  0  0  0  0  0  0  0
   10.4164   -0.0309   21.6689 C   0  0  0  0  0  0  0  0  0  0  0  0
   11.8484   -0.4391   21.7242 C   0  0  0  0  0  0  0  0  0  0  0  0
   12.8625    0.3790   22.2581 C   0  0  0  0  0  0  0  0  0  0  0  0
   14.1782   -0.0874   22.2305 C   0  0  0  0  0  0  0  0  0  0  0  0
   14.5290   -1.2640   21.7032 N   0  0  0  0  0  0  0  0  0  0  0  0
   13.5796   -2.0274   21.1627 C   0  0  0  0  0  0  0  0  0  0  0  0
   12.2305   -1.6855   21.2066 C   0  0  0  0  0  0  0  0  0  0  0  0
   11.4543   -2.3334   20.8286 H   0  0  0  0  0  0  0  0  0  0  0  0
   13.9324   -2.9285   20.6684 H   0  0  0  0  0  0  0  0  0  0  0  0
   14.9975    0.5133   22.6162 H   0  0  0  0  0  0  0  0  0  0  0  0
   12.6770    1.3768   22.6417 H   0  0  0  0  0  0  0  0  0  0  0  0
    9.4677   -0.8501   21.2373 N   0  0  0  0  0  0  0  0  0  0  0  0
    8.3382   -0.1436   21.4207 N   0  0  0  0  0  0  0  0  0  0  0  0
    7.0484   -0.7028   21.0254 C   0  0  0  0  0  0  0  0  0  0  0  0
    6.3740    0.0401   19.8896 C   0  0  0  0  0  0  0  0  0  0  0  0
    5.1599    0.7234   20.0184 C   0  0  0  0  0  0  0  0  0  0  0  0
    4.6523    1.4155   18.9151 C   0  0  0  0  0  0  0  0  0  0  0  0
    5.3731    1.3915   17.7165 C   0  0  0  0  0  0  0  0  0  0  0  0
    6.5240    0.7172   17.5647 N   0  0  0  0  0  0  0  0  0  0  0  0
    7.0028    0.0712   18.6325 C   0  0  0  0  0  0  0  0  0  0  0  0
    7.9462   -0.4561   18.4905 H   0  0  0  0  0  0  0  0  0  0  0  0
    5.0170    1.9340   16.8421 H   0  0  0  0  0  0  0  0  0  0  0  0
    3.7360    1.9918   18.9720 H   0  0  0  0  0  0  0  0  0  0  0  0
    4.6216    0.7298   20.9706 H   0  0  0  0  0  0  0  0  0  0  0  0
    7.2594   -1.7365   20.7372 H   0  0  0  0  0  0  0  0  0  0  0  0
    6.3967   -0.7358   21.9087 H   0  0  0  0  0  0  0  0  0  0  0  0
    8.0083    2.8801   22.8240 H   0  0  0  0  0  0  0  0  0  0  0  0
    6.6944    1.8591   22.2431 H   0  0  0  0  0  0  0  0  0  0  0  0
    8.4886    1.3120   24.6945 H   0  0  0  0  0  0  0  0  0  0  0  0
    7.2825    0.1811   24.1016 H   0  0  0  0  0  0  0  0  0  0  0  0
    4.8599    0.6338   24.3747 H   0  0  0  0  0  0  0  0  0  0  0  0
    3.0730    1.8606   25.5874 H   0  0  0  0  0  0  0  0  0  0  0  0
    3.6475    3.8698   26.9444 H   0  0  0  0  0  0  0  0  0  0  0  0
    6.0509    4.6137   27.0985 H   0  0  0  0  0  0  0  0  0  0  0  0
  1  2  1  0
  2  3  2  0
  3  4  1  0
  4  5  2  0
  5  6  1  0
  6  7  2  0
  7  8  1  0
  8  9  1  0
  9 10  1  0
 10 11  2  0
 11 12  1  0
 12 13  1  0
 13 14  2  0
 14 15  1  0
 15 16  2  0
 16 17  1  0
 17 18  2  0
 18 19  1  0
 17 20  1  0
 15 21  1  0
 14 22  1  0
 12 23  2  0
 23 24  1  0
 24 25  1  0
 25 26  1  0
 26 27  2  0
 27 28  1  0
 28 29  2  0
 29 30  1  0
 30 31  2  0
 31 32  1  0
 29 33  1  0
 28 34  1  0
 27 35  1  0
 25 36  1  0
 25 37  1  0
  9 38  1  0
  9 39  1  0
  8 40  1  0
  8 41  1  0
  6 42  1  0
  5 43  1  0
  4 44  1  0
  3 45  1  0
  7  2  1  0
 24 10  1  0
 31 26  1  0
 18 13  1  0
M  END
>  <cnnaffinity>  (1) 
-6.59087

>  <filename>  (1) 
Fc1ccccc1CCc1nc(-c2ccncc2)nn1Cc1cccnc1

$$$$
