
     RDKit          3D

 40 43  0  0  0  0  0  0  0  0999 V2000
    6.4779    1.6180   25.5882 F   0  0  0  0  0  0  0  0  0  0  0  0
    7.6429    1.8361   24.9532 C   0  0  0  0  0  0  0  0  0  0  0  0
    8.8122    2.0194   25.6957 C   0  0  0  0  0  0  0  0  0  0  0  0
   10.0050    2.2111   25.1158 N   0  0  0  0  0  0  0  0  0  0  0  0
   10.0453    2.2201   23.7757 C   0  0  0  0  0  0  0  0  0  0  0  0
    8.9189    2.0685   22.9467 C   0  0  0  0  0  0  0  0  0  0  0  0
    9.0473    2.0148   21.4426 C   0  0  0  0  0  0  0  0  0  0  0  0
    9.5170    0.6214   20.9518 C   0  0  0  0  0  0  0  0  0  0  0  0
    8.6252   -0.4910   21.4155 C   0  0  0  0  0  0  0  0  0  0  0  0
    8.8461   -1.2957   22.4347 N   0  0  0  0  0  0  0  0  0  0  0  0
    7.6549   -1.9306   22.5947 C   0  0  0  0  0  0  0  0  0  0  0  0
    7.4316   -2.8762   23.7271 C   0  0  0  0  0  0  0  0  0  0  0  0
    8.5712   -3.8985   23.9642 C   0  0  0  0  0  0  0  0  0  0  0  0
    8.8871   -3.2696   25.6469 S   0  0  0  0  0  0  0  0  0  0  0  0
    7.5041   -2.2061   25.1280 C   0  0  0  0  0  0  0  0  0  0  0  0
    6.6091   -2.3503   25.7404 H   0  0  0  0  0  0  0  0  0  0  0  0
    7.7751   -1.1445   25.1080 H   0  0  0  0  0  0  0  0  0  0  0  0
    8.2419   -4.9422   23.9686 H   0  0  0  0  0  0  0  0  0  0  0  0
    9.4369   -3.7781   23.3046 H   0  0  0  0  0  0  0  0  0  0  0  0
    6.4707   -3.3589   23.5526 H   0  0  0  0  0  0  0  0  0  0  0  0
    6.7278   -1.5998   21.7238 N   0  0  0  0  0  0  0  0  0  0  0  0
    7.3564   -0.6763   20.9419 N   0  0  0  0  0  0  0  0  0  0  0  0
    6.6588    0.0037   19.9026 C   0  0  0  0  0  0  0  0  0  0  0  0
    5.4426    0.6458   20.1655 C   0  0  0  0  0  0  0  0  0  0  0  0
    4.8128    1.3114   19.1095 C   0  0  0  0  0  0  0  0  0  0  0  0
    5.4022    1.2953   17.8380 C   0  0  0  0  0  0  0  0  0  0  0  0
    6.5619    0.6741   17.5788 N   0  0  0  0  0  0  0  0  0  0  0  0
    7.1704    0.0540   18.5940 C   0  0  0  0  0  0  0  0  0  0  0  0
    8.1152   -0.4345   18.3721 H   0  0  0  0  0  0  0  0  0  0  0  0
    4.9161    1.7833   16.9943 H   0  0  0  0  0  0  0  0  0  0  0  0
    3.8781    1.8405   19.2634 H   0  0  0  0  0  0  0  0  0  0  0  0
    5.0117    0.6112   21.1698 H   0  0  0  0  0  0  0  0  0  0  0  0
    9.5831    0.6211   19.8600 H   0  0  0  0  0  0  0  0  0  0  0  0
   10.5210    0.4129   21.3305 H   0  0  0  0  0  0  0  0  0  0  0  0
    8.0839    2.2535   20.9749 H   0  0  0  0  0  0  0  0  0  0  0  0
    9.7571    2.7723   21.0918 H   0  0  0  0  0  0  0  0  0  0  0  0
    7.6776    1.8459   23.5669 C   0  0  0  0  0  0  0  0  0  0  0  0
    6.7718    1.6637   22.9911 H   0  0  0  0  0  0  0  0  0  0  0  0
   11.0253    2.3701   23.3328 H   0  0  0  0  0  0  0  0  0  0  0  0
    8.7712    2.0122   26.7802 H   0  0  0  0  0  0  0  0  0  0  0  0
  1  2  1  0
  2  3  2  0
  3  4  1  0
  4  5  2  0
  5  6  1  0
  6  7  1  0
  7  8  1  0
  8  9  1  0
  9 10  2  0
 10 11  1  0
 11 12  1  0
 12 13  1  0
 13 14  1  0
 14 15  1  0
 15 16  1  0
 15 17  1  0
 13 18  1  0
 13 19  1  0
 12 20  1  0
 11 21  2  0
 21 22  1  0
 22 23  1  0
 23 24  2  0
 24 25  1  0
 25 26  2  0
 26 27  1  0
 27 28  2  0
 28 29  1  0
 26 30  1  0
 25 31  1  0
 24 32  1  0
  8 33  1  0
  8 34  1  0
  7 35  1  0
  7 36  1  0
  6 37  2  0
 37 38  1  0
  5 39  1  0
  3 40  1  0
 37  2  1  0
 22  9  1  0
 28 23  1  0
 15 12  1  0
M  END
>  <cnnaffinity>  (1) 
-6.08101

>  <filename>  (1) 
Fc1cncc(CCc2nc(C3CSC3)nn2-c2cccnc2)c1

$$$$
