
     RDKit          3D

 39 42  0  0  0  0  0  0  0  0999 V2000
    7.9192   -3.8902   27.7741 F   0  0  0  0  0  0  0  0  0  0  0  0
    7.8098   -3.1199   26.6811 C   0  0  0  0  0  0  0  0  0  0  0  0
    8.8684   -2.2850   26.3440 C   0  0  0  0  0  0  0  0  0  0  0  0
    8.7802   -1.5419   25.1662 C   0  0  0  0  0  0  0  0  0  0  0  0
    7.6575   -1.6597   24.3209 C   0  0  0  0  0  0  0  0  0  0  0  0
    7.7095   -1.1978   22.9071 C   0  0  0  0  0  0  0  0  0  0  0  0
    6.8297   -0.5073   22.2181 N   0  0  0  0  0  0  0  0  0  0  0  0
    7.3334   -0.5284   20.9554 C   0  0  0  0  0  0  0  0  0  0  0  0
    6.6193    0.0947   19.8437 C   0  0  0  0  0  0  0  0  0  0  0  0
    5.3856    0.7291   20.0520 C   0  0  0  0  0  0  0  0  0  0  0  0
    4.7780    1.3584   18.9715 C   0  0  0  0  0  0  0  0  0  0  0  0
    5.4163    1.3162   17.7264 C   0  0  0  0  0  0  0  0  0  0  0  0
    6.5769    0.6777   17.5079 N   0  0  0  0  0  0  0  0  0  0  0  0
    7.1623    0.0778   18.5508 C   0  0  0  0  0  0  0  0  0  0  0  0
    8.1024   -0.4359   18.3450 H   0  0  0  0  0  0  0  0  0  0  0  0
    4.9740    1.8141   16.8664 H   0  0  0  0  0  0  0  0  0  0  0  0
    3.8392    1.8899   19.0853 H   0  0  0  0  0  0  0  0  0  0  0  0
    4.9333    0.7236   21.0469 H   0  0  0  0  0  0  0  0  0  0  0  0
    8.4644   -1.1960   20.8289 N   0  0  0  0  0  0  0  0  0  0  0  0
    8.7094   -1.6153   22.0875 N   0  0  0  0  0  0  0  0  0  0  0  0
    9.7065   -2.6483   22.3423 C   0  0  0  0  0  0  0  0  0  0  0  0
    9.0877   -3.9940   22.6818 C   0  0  0  0  0  0  0  0  0  0  0  0
    9.3613   -4.6566   23.8904 C   0  0  0  0  0  0  0  0  0  0  0  0
    8.9781   -5.9946   24.0137 C   0  0  0  0  0  0  0  0  0  0  0  0
    8.2875   -6.5886   22.9516 C   0  0  0  0  0  0  0  0  0  0  0  0
    7.9503   -5.8056   21.8502 C   0  0  0  0  0  0  0  0  0  0  0  0
    8.3456   -4.5390   21.7068 N   0  0  0  0  0  0  0  0  0  0  0  0
    7.3605   -6.2205   21.0328 H   0  0  0  0  0  0  0  0  0  0  0  0
    8.0367   -7.6388   22.9068 H   0  0  0  0  0  0  0  0  0  0  0  0
    9.2410   -6.5632   24.9068 H   0  0  0  0  0  0  0  0  0  0  0  0
    9.9104   -4.1402   24.6735 H   0  0  0  0  0  0  0  0  0  0  0  0
   10.2832   -2.7255   21.4212 H   0  0  0  0  0  0  0  0  0  0  0  0
   10.3803   -2.3296   23.1409 H   0  0  0  0  0  0  0  0  0  0  0  0
    6.5590   -2.4140   24.7645 C   0  0  0  0  0  0  0  0  0  0  0  0
    6.6460   -3.1927   25.9189 C   0  0  0  0  0  0  0  0  0  0  0  0
    5.8443   -3.8512   26.2451 H   0  0  0  0  0  0  0  0  0  0  0  0
    5.6394   -2.4010   24.1831 H   0  0  0  0  0  0  0  0  0  0  0  0
    9.5819   -0.8596   24.8981 H   0  0  0  0  0  0  0  0  0  0  0  0
    9.7304   -2.2519   27.0033 H   0  0  0  0  0  0  0  0  0  0  0  0
  1  2  1  0
  2  3  2  0
  3  4  1  0
  4  5  2  0
  5  6  1  0
  6  7  2  0
  7  8  1  0
  8  9  1  0
  9 10  2  0
 10 11  1  0
 11 12  2  0
 12 13  1  0
 13 14  2  0
 14 15  1  0
 12 16  1  0
 11 17  1  0
 10 18  1  0
  8 19  2  0
 19 20  1  0
 20 21  1  0
 21 22  1  0
 22 23  2  0
 23 24  1  0
 24 25  2  0
 25 26  1  0
 26 27  2  0
 26 28  1  0
 25 29  1  0
 24 30  1  0
 23 31  1  0
 21 32  1  0
 21 33  1  0
  5 34  1  0
 34 35  2  0
 35 36  1  0
 34 37  1  0
  4 38  1  0
  3 39  1  0
 35  2  1  0
 20  6  1  0
 27 22  1  0
 14  9  1  0
M  END
>  <cnnaffinity>  (1) 
-6.37622

>  <filename>  (1) 
Fc1ccc(-c2nc(-c3cccnc3)nn2Cc2ccccn2)cc1

$$$$
