
     RDKit          3D

 39 42  0  0  0  0  0  0  0  0999 V2000
    6.3276    6.6269   21.8076 F   0  0  0  0  0  0  0  0  0  0  0  0
    7.3324    5.8314   22.2063 C   0  0  0  0  0  0  0  0  0  0  0  0
    8.3587    6.3660   22.9920 C   0  0  0  0  0  0  0  0  0  0  0  0
    9.3801    5.6213   23.4388 N   0  0  0  0  0  0  0  0  0  0  0  0
    9.4096    4.3214   23.0972 C   0  0  0  0  0  0  0  0  0  0  0  0
    8.4537    3.7062   22.2587 C   0  0  0  0  0  0  0  0  0  0  0  0
    8.5370    2.2526   21.8439 C   0  0  0  0  0  0  0  0  0  0  0  0
    7.5374    1.3746   22.6322 C   0  0  0  0  0  0  0  0  0  0  0  0
    7.5694   -0.0721   22.2553 C   0  0  0  0  0  0  0  0  0  0  0  0
    8.0526   -1.0104   23.0277 N   0  0  0  0  0  0  0  0  0  0  0  0
    8.1945   -2.0709   22.1852 C   0  0  0  0  0  0  0  0  0  0  0  0
    8.8567   -3.3216   22.5916 C   0  0  0  0  0  0  0  0  0  0  0  0
   10.0223   -3.2413   23.5622 C   0  0  0  0  0  0  0  0  0  0  0  0
    8.7551   -3.9118   23.9830 C   0  0  0  0  0  0  0  0  0  0  0  0
    8.7545   -4.9960   24.0678 H   0  0  0  0  0  0  0  0  0  0  0  0
    8.1179   -3.4020   24.7009 H   0  0  0  0  0  0  0  0  0  0  0  0
   10.9210   -3.8160   23.3703 H   0  0  0  0  0  0  0  0  0  0  0  0
   10.1994   -2.2550   23.9896 H   0  0  0  0  0  0  0  0  0  0  0  0
    8.8825   -4.0227   21.7694 H   0  0  0  0  0  0  0  0  0  0  0  0
    7.7853   -1.8547   20.9487 N   0  0  0  0  0  0  0  0  0  0  0  0
    7.3447   -0.5692   21.0000 N   0  0  0  0  0  0  0  0  0  0  0  0
    6.6657    0.0300   19.8991 C   0  0  0  0  0  0  0  0  0  0  0  0
    5.4609    0.7113   20.1103 C   0  0  0  0  0  0  0  0  0  0  0  0
    4.8616    1.3531   19.0227 C   0  0  0  0  0  0  0  0  0  0  0  0
    5.4806    1.2861   17.7726 C   0  0  0  0  0  0  0  0  0  0  0  0
    6.6087    0.5862   17.5512 N   0  0  0  0  0  0  0  0  0  0  0  0
    7.1750   -0.0432   18.5896 C   0  0  0  0  0  0  0  0  0  0  0  0
    8.0663   -0.6289   18.3710 H   0  0  0  0  0  0  0  0  0  0  0  0
    5.0481    1.7981   16.9135 H   0  0  0  0  0  0  0  0  0  0  0  0
    3.9329    1.9007   19.1453 H   0  0  0  0  0  0  0  0  0  0  0  0
    5.0025    0.7113   21.0981 H   0  0  0  0  0  0  0  0  0  0  0  0
    6.5278    1.7713   22.5031 H   0  0  0  0  0  0  0  0  0  0  0  0
    7.7693    1.4187   23.7000 H   0  0  0  0  0  0  0  0  0  0  0  0
    9.5550    1.8701   21.9997 H   0  0  0  0  0  0  0  0  0  0  0  0
    8.3265    2.1549   20.7692 H   0  0  0  0  0  0  0  0  0  0  0  0
    7.3569    4.4902   21.8407 C   0  0  0  0  0  0  0  0  0  0  0  0
    6.5507    4.0862   21.2221 H   0  0  0  0  0  0  0  0  0  0  0  0
   10.2232    3.7447   23.5470 H   0  0  0  0  0  0  0  0  0  0  0  0
    8.3293    7.4125   23.2894 H   0  0  0  0  0  0  0  0  0  0  0  0
  1  2  1  0
  2  3  2  0
  3  4  1  0
  4  5  2  0
  5  6  1  0
  6  7  1  0
  7  8  1  0
  8  9  1  0
  9 10  2  0
 10 11  1  0
 11 12  1  0
 12 13  1  0
 13 14  1  0
 14 15  1  0
 14 16  1  0
 13 17  1  0
 13 18  1  0
 12 19  1  0
 11 20  2  0
 20 21  1  0
 21 22  1  0
 22 23  2  0
 23 24  1  0
 24 25  2  0
 25 26  1  0
 26 27  2  0
 27 28  1  0
 25 29  1  0
 24 30  1  0
 23 31  1  0
  8 32  1  0
  8 33  1  0
  7 34  1  0
  7 35  1  0
  6 36  2  0
 36 37  1  0
  5 38  1  0
  3 39  1  0
 36  2  1  0
 21  9  1  0
 27 22  1  0
 14 12  1  0
M  END
>  <cnnaffinity>  (1) 
-5.84204

>  <filename>  (1) 
Fc1cncc(CCc2nc(C3CC3)nn2-c2cccnc2)c1

$$$$
