
     RDKit          3D

 42 45  0  0  0  0  0  0  0  0999 V2000
    4.7199    2.3348   27.2510 F   0  0  0  0  0  0  0  0  0  0  0  0
    5.9095    2.5972   26.6923 C   0  0  0  0  0  0  0  0  0  0  0  0
    6.7465    3.5247   27.3058 C   0  0  0  0  0  0  0  0  0  0  0  0
    7.9587    3.8040   26.6820 C   0  0  0  0  0  0  0  0  0  0  0  0
    8.7477    4.7592   27.1918 F   0  0  0  0  0  0  0  0  0  0  0  0
    8.3682    3.1578   25.5243 C   0  0  0  0  0  0  0  0  0  0  0  0
    7.4984    2.2270   24.9173 C   0  0  0  0  0  0  0  0  0  0  0  0
    7.8895    1.5558   23.6507 C   0  0  0  0  0  0  0  0  0  0  0  0
    7.1776    0.5868   23.0925 N   0  0  0  0  0  0  0  0  0  0  0  0
    7.9133    0.2435   22.0159 N   0  0  0  0  0  0  0  0  0  0  0  0
    7.3894   -0.6871   21.0228 C   0  0  0  0  0  0  0  0  0  0  0  0
    6.6538   -0.0014   19.8852 C   0  0  0  0  0  0  0  0  0  0  0  0
    5.4404    0.6505   20.1377 C   0  0  0  0  0  0  0  0  0  0  0  0
    4.7983    1.3089   19.0864 C   0  0  0  0  0  0  0  0  0  0  0  0
    5.3935    1.2977   17.8218 C   0  0  0  0  0  0  0  0  0  0  0  0
    6.5530    0.6758   17.5603 N   0  0  0  0  0  0  0  0  0  0  0  0
    7.1598    0.0530   18.5777 C   0  0  0  0  0  0  0  0  0  0  0  0
    8.1057   -0.4325   18.3289 H   0  0  0  0  0  0  0  0  0  0  0  0
    4.9244    1.8067   16.9802 H   0  0  0  0  0  0  0  0  0  0  0  0
    3.8680    1.8467   19.2343 H   0  0  0  0  0  0  0  0  0  0  0  0
    5.0292    0.6465   21.1500 H   0  0  0  0  0  0  0  0  0  0  0  0
    6.7240   -1.3513   21.5817 H   0  0  0  0  0  0  0  0  0  0  0  0
    8.2217   -1.2888   20.6396 H   0  0  0  0  0  0  0  0  0  0  0  0
    9.0191    1.0163   21.9631 C   0  0  0  0  0  0  0  0  0  0  0  0
   10.0995    0.8091   20.9612 C   0  0  0  0  0  0  0  0  0  0  0  0
   11.0618   -0.3528   21.3228 C   0  0  0  0  0  0  0  0  0  0  0  0
   11.8097   -0.0550   22.6043 C   0  0  0  0  0  0  0  0  0  0  0  0
   12.9001    0.7328   22.8046 C   0  0  0  0  0  0  0  0  0  0  0  0
   13.1735    0.8504   24.1105 O   0  0  0  0  0  0  0  0  0  0  0  0
   12.2440    0.1505   24.8342 N   0  0  0  0  0  0  0  0  0  0  0  0
   11.4354   -0.3723   23.9498 C   0  0  0  0  0  0  0  0  0  0  0  0
   10.6221   -0.9976   24.3041 H   0  0  0  0  0  0  0  0  0  0  0  0
   13.5619    1.2906   22.1518 H   0  0  0  0  0  0  0  0  0  0  0  0
   10.4977   -1.2919   21.4222 H   0  0  0  0  0  0  0  0  0  0  0  0
   11.7612   -0.5392   20.5010 H   0  0  0  0  0  0  0  0  0  0  0  0
    9.6243    0.6517   19.9877 H   0  0  0  0  0  0  0  0  0  0  0  0
   10.6564    1.7474   20.8945 H   0  0  0  0  0  0  0  0  0  0  0  0
    9.0232    1.8712   22.9649 N   0  0  0  0  0  0  0  0  0  0  0  0
    6.2496    1.9471   25.5140 C   0  0  0  0  0  0  0  0  0  0  0  0
    5.5521    1.2410   25.0728 H   0  0  0  0  0  0  0  0  0  0  0  0
    9.3414    3.3992   25.1069 H   0  0  0  0  0  0  0  0  0  0  0  0
    6.4582    4.0163   28.2217 H   0  0  0  0  0  0  0  0  0  0  0  0
  1  2  1  0
  2  3  2  0
  3  4  1  0
  4  5  1  0
  4  6  2  0
  6  7  1  0
  7  8  1  0
  8  9  2  0
  9 10  1  0
 10 11  1  0
 11 12  1  0
 12 13  2  0
 13 14  1  0
 14 15  2  0
 15 16  1  0
 16 17  2  0
 17 18  1  0
 15 19  1  0
 14 20  1  0
 13 21  1  0
 11 22  1  0
 11 23  1  0
 10 24  1  0
 24 25  1  0
 25 26  1  0
 26 27  1  0
 27 28  2  0
 28 29  1  0
 29 30  1  0
 30 31  2  0
 31 32  1  0
 28 33  1  0
 26 34  1  0
 26 35  1  0
 25 36  1  0
 25 37  1  0
 24 38  2  0
  7 39  2  0
 39 40  1  0
  6 41  1  0
  3 42  1  0
 39  2  1  0
 38  8  1  0
 17 12  1  0
 31 27  1  0
M  END
>  <cnnaffinity>  (1) 
-5.8533

>  <filename>  (1) 
Fc1cc(F)cc(-c2nc(CCc3cnoc3)n(Cc3cccnc3)n2)c1

$$$$
