
     RDKit          3D

 46 50  0  0  0  0  0  0  0  0999 V2000
   14.5835   -1.7992   21.2332 F   0  0  0  0  0  0  0  0  0  0  0  0
   13.7866   -0.8663   21.7559 C   0  0  0  0  0  0  0  0  0  0  0  0
   14.3393    0.2214   22.4421 C   0  0  0  0  0  0  0  0  0  0  0  0
   13.5973    1.1483   23.0530 N   0  0  0  0  0  0  0  0  0  0  0  0
   12.2712    1.0482   22.9383 C   0  0  0  0  0  0  0  0  0  0  0  0
   11.6481    0.0614   22.1654 C   0  0  0  0  0  0  0  0  0  0  0  0
   10.2107    0.1879   21.9873 C   0  0  0  0  0  0  0  0  0  0  0  0
    9.4507   -0.6981   21.3782 N   0  0  0  0  0  0  0  0  0  0  0  0
    8.2199   -0.1433   21.4715 N   0  0  0  0  0  0  0  0  0  0  0  0
    7.0299   -0.8055   20.9618 C   0  0  0  0  0  0  0  0  0  0  0  0
    6.3883   -0.0400   19.8241 C   0  0  0  0  0  0  0  0  0  0  0  0
    5.1533    0.6072   19.9301 C   0  0  0  0  0  0  0  0  0  0  0  0
    4.6882    1.3550   18.8435 C   0  0  0  0  0  0  0  0  0  0  0  0
    5.4720    1.4129   17.6875 C   0  0  0  0  0  0  0  0  0  0  0  0
    6.6517    0.7842   17.5600 N   0  0  0  0  0  0  0  0  0  0  0  0
    7.0908    0.0894   18.6148 C   0  0  0  0  0  0  0  0  0  0  0  0
    8.0565   -0.4047   18.5003 H   0  0  0  0  0  0  0  0  0  0  0  0
    5.1359    1.9794   16.8212 H   0  0  0  0  0  0  0  0  0  0  0  0
    3.7525    1.9011   18.8911 H   0  0  0  0  0  0  0  0  0  0  0  0
    4.5764    0.5489   20.8566 H   0  0  0  0  0  0  0  0  0  0  0  0
    6.3264   -0.9323   21.7930 H   0  0  0  0  0  0  0  0  0  0  0  0
    7.3547   -1.8003   20.6402 H   0  0  0  0  0  0  0  0  0  0  0  0
    8.3036    1.0371   22.1162 C   0  0  0  0  0  0  0  0  0  0  0  0
    7.1114    1.7521   22.6803 C   0  0  0  0  0  0  0  0  0  0  0  0
    6.6541    1.0432   23.9310 C   0  0  0  0  0  0  0  0  0  0  0  0
    5.4634    0.6130   24.4610 C   0  0  0  0  0  0  0  0  0  0  0  0
    5.6767   -0.1600   25.5721 N   0  0  0  0  0  0  0  0  0  0  0  0
    6.9802   -0.1952   25.7436 C   0  0  0  0  0  0  0  0  0  0  0  0
    7.7023   -0.9221   26.8000 C   0  0  0  0  0  0  0  0  0  0  0  0
    9.1204   -1.4210   26.5979 C   0  0  0  0  0  0  0  0  0  0  0  0
    8.8702   -0.2602   27.4981 C   0  0  0  0  0  0  0  0  0  0  0  0
    8.9777   -0.3841   28.5694 H   0  0  0  0  0  0  0  0  0  0  0  0
    9.1430    0.7293   27.1421 H   0  0  0  0  0  0  0  0  0  0  0  0
    9.3966   -2.3680   27.0512 H   0  0  0  0  0  0  0  0  0  0  0  0
    9.6033   -1.2307   25.6397 H   0  0  0  0  0  0  0  0  0  0  0  0
    7.0320   -1.5352   27.3950 H   0  0  0  0  0  0  0  0  0  0  0  0
    7.6028    0.5487   24.7920 N   0  0  0  0  0  0  0  0  0  0  0  0
    8.5959    0.6786   24.6744 H   0  0  0  0  0  0  0  0  0  0  0  0
    4.4605    0.8204   24.1133 H   0  0  0  0  0  0  0  0  0  0  0  0
    6.3062    1.8125   21.9475 H   0  0  0  0  0  0  0  0  0  0  0  0
    7.4312    2.7707   22.9117 H   0  0  0  0  0  0  0  0  0  0  0  0
    9.5498    1.2697   22.4771 N   0  0  0  0  0  0  0  0  0  0  0  0
   12.4189   -0.9520   21.5724 C   0  0  0  0  0  0  0  0  0  0  0  0
   12.0022   -1.7273   20.9323 H   0  0  0  0  0  0  0  0  0  0  0  0
   11.6714    1.8070   23.4257 H   0  0  0  0  0  0  0  0  0  0  0  0
   15.4052    0.3641   22.4441 H   0  0  0  0  0  0  0  0  0  0  0  0
  1  2  1  0
  2  3  2  0
  3  4  1  0
  4  5  2  0
  5  6  1  0
  6  7  1  0
  7  8  2  0
  8  9  1  0
  9 10  1  0
 10 11  1  0
 11 12  2  0
 12 13  1  0
 13 14  2  0
 14 15  1  0
 15 16  2  0
 16 17  1  0
 14 18  1  0
 13 19  1  0
 12 20  1  0
 10 21  1  0
 10 22  1  0
  9 23  1  0
 23 24  1  0
 24 25  1  0
 25 26  2  0
 26 27  1  0
 27 28  2  0
 28 29  1  0
 29 30  1  0
 30 31  1  0
 31 32  1  0
 31 33  1  0
 30 34  1  0
 30 35  1  0
 29 36  1  0
 28 37  1  0
 37 38  1  0
 26 39  1  0
 24 40  1  0
 24 41  1  0
 23 42  2  0
  6 43  2  0
 43 44  1  0
  5 45  1  0
  3 46  1  0
 43  2  1  0
 42  7  1  0
 16 11  1  0
 37 25  1  0
 31 29  1  0
M  END
>  <cnnaffinity>  (1) 
-6.73384

>  <filename>  (1) 
Fc1cncc(-c2nc(Cc3cnc(C4CC4)[nH]3)n(Cc3cccnc3)n2)c1

$$$$
