
     RDKit          3D

 40 44  0  0  0  0  0  0  0  0999 V2000
    8.8844    2.5304   21.8289 F   0  0  0  0  0  0  0  0  0  0  0  0
   10.0383    1.9433   22.1837 C   0  0  0  0  0  0  0  0  0  0  0  0
   10.8382    2.4942   23.2014 C   0  0  0  0  0  0  0  0  0  0  0  0
   10.2938    3.9231   24.0149 Cl  0  0  0  0  0  0  0  0  0  0  0  0
   11.9884    1.9668   23.5989 N   0  0  0  0  0  0  0  0  0  0  0  0
   12.4078    0.8525   22.9828 C   0  0  0  0  0  0  0  0  0  0  0  0
   11.6816    0.2230   21.9708 C   0  0  0  0  0  0  0  0  0  0  0  0
   10.4580    0.7681   21.5581 C   0  0  0  0  0  0  0  0  0  0  0  0
    9.5548    0.0596   20.5773 C   0  0  0  0  0  0  0  0  0  0  0  0
    8.4811   -0.7234   21.2567 C   0  0  0  0  0  0  0  0  0  0  0  0
    8.6935   -1.4972   22.2967 N   0  0  0  0  0  0  0  0  0  0  0  0
    7.4661   -2.0127   22.5598 C   0  0  0  0  0  0  0  0  0  0  0  0
    7.3349   -2.8683   23.7478 C   0  0  0  0  0  0  0  0  0  0  0  0
    6.0106   -3.4907   24.1718 C   0  0  0  0  0  0  0  0  0  0  0  0
    6.6072   -2.3471   24.9487 C   0  0  0  0  0  0  0  0  0  0  0  0
    7.0965   -1.9746   26.2973 C   0  0  0  0  0  0  0  0  0  0  0  0
    6.3175   -0.9759   25.4304 C   0  0  0  0  0  0  0  0  0  0  0  0
    5.2969   -0.7544   25.7358 H   0  0  0  0  0  0  0  0  0  0  0  0
    6.8535   -0.1718   24.9221 H   0  0  0  0  0  0  0  0  0  0  0  0
    6.5909   -2.3935   27.1631 H   0  0  0  0  0  0  0  0  0  0  0  0
    8.1758   -1.8473   26.4139 H   0  0  0  0  0  0  0  0  0  0  0  0
    5.1433   -3.2841   23.5412 H   0  0  0  0  0  0  0  0  0  0  0  0
    6.0262   -4.4615   24.6667 H   0  0  0  0  0  0  0  0  0  0  0  0
    8.2767   -3.3690   23.9710 H   0  0  0  0  0  0  0  0  0  0  0  0
    6.5119   -1.6404   21.7240 N   0  0  0  0  0  0  0  0  0  0  0  0
    7.1779   -0.8367   20.8526 N   0  0  0  0  0  0  0  0  0  0  0  0
    6.5272   -0.1854   19.7673 C   0  0  0  0  0  0  0  0  0  0  0  0
    5.3695    0.5756   19.9708 C   0  0  0  0  0  0  0  0  0  0  0  0
    4.8853    1.3272   18.8933 C   0  0  0  0  0  0  0  0  0  0  0  0
    5.5434    1.2675   17.6599 C   0  0  0  0  0  0  0  0  0  0  0  0
    6.6130    0.4863   17.4441 N   0  0  0  0  0  0  0  0  0  0  0  0
    7.0797   -0.2266   18.4738 C   0  0  0  0  0  0  0  0  0  0  0  0
    7.9506   -0.8509   18.2720 H   0  0  0  0  0  0  0  0  0  0  0  0
    5.2052    1.8622   16.8115 H   0  0  0  0  0  0  0  0  0  0  0  0
    4.0173    1.9692   18.9991 H   0  0  0  0  0  0  0  0  0  0  0  0
    4.8816    0.5796   20.9458 H   0  0  0  0  0  0  0  0  0  0  0  0
   10.1232   -0.6652   19.9905 H   0  0  0  0  0  0  0  0  0  0  0  0
    9.1179    0.7793   19.8832 H   0  0  0  0  0  0  0  0  0  0  0  0
   12.0664   -0.6828   21.5107 H   0  0  0  0  0  0  0  0  0  0  0  0
   13.3513    0.4404   23.3320 H   0  0  0  0  0  0  0  0  0  0  0  0
  1  2  1  0
  2  3  2  0
  3  4  1  0
  3  5  1  0
  5  6  2  0
  6  7  1  0
  7  8  2  0
  8  9  1  0
  9 10  1  0
 10 11  2  0
 11 12  1  0
 12 13  1  0
 13 14  1  0
 14 15  1  0
 15 16  1  0
 16 17  1  0
 17 18  1  0
 17 19  1  0
 16 20  1  0
 16 21  1  0
 14 22  1  0
 14 23  1  0
 13 24  1  0
 12 25  2  0
 25 26  1  0
 26 27  1  0
 27 28  2  0
 28 29  1  0
 29 30  2  0
 30 31  1  0
 31 32  2  0
 32 33  1  0
 30 34  1  0
 29 35  1  0
 28 36  1  0
  9 37  1  0
  9 38  1  0
  7 39  1  0
  6 40  1  0
  8  2  1  0
 26 10  1  0
 32 27  1  0
 15 13  1  0
 17 15  1  0
M  END
>  <cnnaffinity>  (1) 
-6.67152

>  <filename>  (1) 
Fc1c(Cc2nc(C3CC34CC4)nn2-c2cccnc2)ccnc1Cl

$$$$
