
     RDKit          3D

 39 42  0  0  0  0  0  0  0  0999 V2000
   12.1836   -0.3681   21.8269 F   0  0  0  0  0  0  0  0  0  0  0  0
   11.5657    0.6987   22.3572 C   0  0  0  0  0  0  0  0  0  0  0  0
   12.1595    1.3734   23.4245 C   0  0  0  0  0  0  0  0  0  0  0  0
   11.5896    2.4294   24.0160 N   0  0  0  0  0  0  0  0  0  0  0  0
   10.3976    2.8287   23.5572 C   0  0  0  0  0  0  0  0  0  0  0  0
    9.7449    2.1962   22.4933 C   0  0  0  0  0  0  0  0  0  0  0  0
    8.1813    2.7609   22.0075 Cl  0  0  0  0  0  0  0  0  0  0  0  0
   10.3362    1.1047   21.8443 C   0  0  0  0  0  0  0  0  0  0  0  0
    9.6210    0.3227   20.7746 C   0  0  0  0  0  0  0  0  0  0  0  0
    8.6016   -0.5916   21.3483 C   0  0  0  0  0  0  0  0  0  0  0  0
    8.8359   -1.4486   22.3166 N   0  0  0  0  0  0  0  0  0  0  0  0
    7.6233   -2.0277   22.5159 C   0  0  0  0  0  0  0  0  0  0  0  0
    7.4099   -3.0293   23.5921 C   0  0  0  0  0  0  0  0  0  0  0  0
    8.4548   -4.1845   23.6677 C   0  0  0  0  0  0  0  0  0  0  0  0
    8.8780   -3.7090   25.0763 C   0  0  0  0  0  0  0  0  0  0  0  0
    7.8278   -2.5758   25.0278 C   0  0  0  0  0  0  0  0  0  0  0  0
    7.0321   -2.6522   25.7732 H   0  0  0  0  0  0  0  0  0  0  0  0
    8.2394   -1.5610   25.0694 H   0  0  0  0  0  0  0  0  0  0  0  0
    9.9126   -3.3576   25.1375 H   0  0  0  0  0  0  0  0  0  0  0  0
    8.7297   -4.4416   25.8755 H   0  0  0  0  0  0  0  0  0  0  0  0
    9.2397   -4.1245   22.9071 H   0  0  0  0  0  0  0  0  0  0  0  0
    8.0186   -5.1858   23.6326 H   0  0  0  0  0  0  0  0  0  0  0  0
    6.3745   -3.3639   23.5164 H   0  0  0  0  0  0  0  0  0  0  0  0
    6.6706   -1.6042   21.7106 N   0  0  0  0  0  0  0  0  0  0  0  0
    7.3131   -0.6976   20.9267 N   0  0  0  0  0  0  0  0  0  0  0  0
    6.6427    0.0022   19.8948 C   0  0  0  0  0  0  0  0  0  0  0  0
    5.4329    0.6477   20.1627 C   0  0  0  0  0  0  0  0  0  0  0  0
    4.8102    1.3152   19.1077 C   0  0  0  0  0  0  0  0  0  0  0  0
    5.3989    1.2964   17.8367 C   0  0  0  0  0  0  0  0  0  0  0  0
    6.5564    0.6710   17.5744 N   0  0  0  0  0  0  0  0  0  0  0  0
    7.1637    0.0494   18.5885 C   0  0  0  0  0  0  0  0  0  0  0  0
    8.1132   -0.4317   18.3634 H   0  0  0  0  0  0  0  0  0  0  0  0
    4.9193    1.7851   16.9929 H   0  0  0  0  0  0  0  0  0  0  0  0
    3.8789    1.8425   19.2600 H   0  0  0  0  0  0  0  0  0  0  0  0
    5.0154    0.6079   21.1724 H   0  0  0  0  0  0  0  0  0  0  0  0
   10.3157   -0.3336   20.2515 H   0  0  0  0  0  0  0  0  0  0  0  0
    9.1625    1.0304   20.0829 H   0  0  0  0  0  0  0  0  0  0  0  0
    9.9341    3.6805   24.0426 H   0  0  0  0  0  0  0  0  0  0  0  0
   13.1236    1.0355   23.7880 H   0  0  0  0  0  0  0  0  0  0  0  0
  1  2  1  0
  2  3  2  0
  3  4  1  0
  4  5  2  0
  5  6  1  0
  6  7  1  0
  6  8  2  0
  8  9  1  0
  9 10  1  0
 10 11  2  0
 11 12  1  0
 12 13  1  0
 13 14  1  0
 14 15  1  0
 15 16  1  0
 16 17  1  0
 16 18  1  0
 15 19  1  0
 15 20  1  0
 14 21  1  0
 14 22  1  0
 13 23  1  0
 12 24  2  0
 24 25  1  0
 25 26  1  0
 26 27  2  0
 27 28  1  0
 28 29  2  0
 29 30  1  0
 30 31  2  0
 31 32  1  0
 29 33  1  0
 28 34  1  0
 27 35  1  0
  9 36  1  0
  9 37  1  0
  5 38  1  0
  3 39  1  0
  8  2  1  0
 25 10  1  0
 31 26  1  0
 16 13  1  0
M  END
>  <cnnaffinity>  (1) 
-6.6555

>  <filename>  (1) 
Fc1cncc(Cl)c1Cc1nc(C2CCC2)nn1-c1cccnc1

$$$$
