
     RDKit          3D

 42 45  0  0  0  0  0  0  0  0999 V2000
    4.6388    1.3984   27.6211 F   0  0  0  0  0  0  0  0  0  0  0  0
    5.7212    1.8575   26.9794 C   0  0  0  0  0  0  0  0  0  0  0  0
    6.4944    2.8728   27.5562 C   0  0  0  0  0  0  0  0  0  0  0  0
    7.5843    3.3724   26.9612 N   0  0  0  0  0  0  0  0  0  0  0  0
    7.9506    2.8831   25.7695 C   0  0  0  0  0  0  0  0  0  0  0  0
    7.2214    1.8669   25.1277 C   0  0  0  0  0  0  0  0  0  0  0  0
    7.6695    1.3706   23.8336 C   0  0  0  0  0  0  0  0  0  0  0  0
    7.0650    0.3732   23.2091 N   0  0  0  0  0  0  0  0  0  0  0  0
    7.7998    0.2279   22.0867 N   0  0  0  0  0  0  0  0  0  0  0  0
    7.3844   -0.6933   21.0335 C   0  0  0  0  0  0  0  0  0  0  0  0
    6.6597   -0.0008   19.8910 C   0  0  0  0  0  0  0  0  0  0  0  0
    5.4455    0.6513   20.1379 C   0  0  0  0  0  0  0  0  0  0  0  0
    4.8009    1.3085   19.0874 C   0  0  0  0  0  0  0  0  0  0  0  0
    5.3935    1.2969   17.8225 C   0  0  0  0  0  0  0  0  0  0  0  0
    6.5536    0.6738   17.5650 N   0  0  0  0  0  0  0  0  0  0  0  0
    7.1633    0.0508   18.5825 C   0  0  0  0  0  0  0  0  0  0  0  0
    8.1094   -0.4332   18.3255 H   0  0  0  0  0  0  0  0  0  0  0  0
    4.9261    1.8082   16.9807 H   0  0  0  0  0  0  0  0  0  0  0  0
    3.8703    1.8438   19.2348 H   0  0  0  0  0  0  0  0  0  0  0  0
    5.0312    0.6436   21.1469 H   0  0  0  0  0  0  0  0  0  0  0  0
    8.2702   -1.2298   20.6759 H   0  0  0  0  0  0  0  0  0  0  0  0
    6.7335   -1.4168   21.5340 H   0  0  0  0  0  0  0  0  0  0  0  0
    8.8006    1.1323   22.0918 C   0  0  0  0  0  0  0  0  0  0  0  0
    9.8226    1.2943   21.0245 C   0  0  0  0  0  0  0  0  0  0  0  0
   11.2139    0.9481   21.5113 C   0  0  0  0  0  0  0  0  0  0  0  0
   11.6756   -0.3664   21.5426 C   0  0  0  0  0  0  0  0  0  0  0  0
   10.8959   -1.3718   21.0926 F   0  0  0  0  0  0  0  0  0  0  0  0
   12.9389   -0.6664   22.0642 C   0  0  0  0  0  0  0  0  0  0  0  0
   13.3788   -1.9322   22.0325 F   0  0  0  0  0  0  0  0  0  0  0  0
   13.7405    0.3391   22.6014 C   0  0  0  0  0  0  0  0  0  0  0  0
   13.2786    1.6627   22.5977 C   0  0  0  0  0  0  0  0  0  0  0  0
   12.0276    1.9571   22.0467 C   0  0  0  0  0  0  0  0  0  0  0  0
   11.6413    2.9757   22.0326 H   0  0  0  0  0  0  0  0  0  0  0  0
   13.8934    2.4631   23.0061 H   0  0  0  0  0  0  0  0  0  0  0  0
   14.7112    0.0586   22.9991 H   0  0  0  0  0  0  0  0  0  0  0  0
    9.5399    0.7155   20.1417 H   0  0  0  0  0  0  0  0  0  0  0  0
    9.7955    2.3523   20.7525 H   0  0  0  0  0  0  0  0  0  0  0  0
    8.7367    1.8803   23.1771 N   0  0  0  0  0  0  0  0  0  0  0  0
    6.0746    1.3323   25.7503 C   0  0  0  0  0  0  0  0  0  0  0  0
    5.4827    0.5355   25.2939 H   0  0  0  0  0  0  0  0  0  0  0  0
    8.8495    3.3221   25.3304 H   0  0  0  0  0  0  0  0  0  0  0  0
    6.2113    3.2833   28.5235 H   0  0  0  0  0  0  0  0  0  0  0  0
  1  2  1  0
  2  3  2  0
  3  4  1  0
  4  5  2  0
  5  6  1  0
  6  7  1  0
  7  8  2  0
  8  9  1  0
  9 10  1  0
 10 11  1  0
 11 12  2  0
 12 13  1  0
 13 14  2  0
 14 15  1  0
 15 16  2  0
 16 17  1  0
 14 18  1  0
 13 19  1  0
 12 20  1  0
 10 21  1  0
 10 22  1  0
  9 23  1  0
 23 24  1  0
 24 25  1  0
 25 26  2  0
 26 27  1  0
 26 28  1  0
 28 29  1  0
 28 30  2  0
 30 31  1  0
 31 32  2  0
 32 33  1  0
 31 34  1  0
 30 35  1  0
 24 36  1  0
 24 37  1  0
 23 38  2  0
  6 39  2  0
 39 40  1  0
  5 41  1  0
  3 42  1  0
 39  2  1  0
 38  7  1  0
 16 11  1  0
 32 25  1  0
M  END
>  <cnnaffinity>  (1) 
-6.49338

>  <filename>  (1) 
Fc1cncc(-c2nc(Cc3cccc(F)c3F)n(Cc3cccnc3)n2)c1

$$$$
