
     RDKit          3D

 42 45  0  0  0  0  0  0  0  0999 V2000
    8.8737   -3.2021   24.8593 F   0  0  0  0  0  0  0  0  0  0  0  0
    7.9769   -2.2013   24.8407 C   0  0  0  0  0  0  0  0  0  0  0  0
    6.6231   -2.4700   25.0151 C   0  0  0  0  0  0  0  0  0  0  0  0
    5.7094   -1.4097   24.9770 C   0  0  0  0  0  0  0  0  0  0  0  0
    6.1545   -0.1085   24.7390 C   0  0  0  0  0  0  0  0  0  0  0  0
    7.5207    0.1819   24.5792 C   0  0  0  0  0  0  0  0  0  0  0  0
    7.9723    1.5864   24.2330 C   0  0  0  0  0  0  0  0  0  0  0  0
    7.8874    1.8716   22.7046 C   0  0  0  0  0  0  0  0  0  0  0  0
    8.7914    0.9445   21.9474 C   0  0  0  0  0  0  0  0  0  0  0  0
   10.1010    1.0148   22.0589 N   0  0  0  0  0  0  0  0  0  0  0  0
   10.5395   -0.1846   21.5703 C   0  0  0  0  0  0  0  0  0  0  0  0
   11.9771   -0.5500   21.7208 C   0  0  0  0  0  0  0  0  0  0  0  0
   12.8236    0.1484   22.5457 C   0  0  0  0  0  0  0  0  0  0  0  0
   14.3856   -0.5328   22.5175 S   0  0  0  0  0  0  0  0  0  0  0  0
   13.8115   -1.7265   21.4011 C   0  0  0  0  0  0  0  0  0  0  0  0
   12.5691   -1.6236   21.0720 N   0  0  0  0  0  0  0  0  0  0  0  0
   14.4705   -2.4992   21.0211 H   0  0  0  0  0  0  0  0  0  0  0  0
   12.5848    1.0237   23.1375 H   0  0  0  0  0  0  0  0  0  0  0  0
    9.5639   -0.9414   21.0883 N   0  0  0  0  0  0  0  0  0  0  0  0
    8.4490   -0.2146   21.3376 N   0  0  0  0  0  0  0  0  0  0  0  0
    7.1336   -0.7428   21.0067 C   0  0  0  0  0  0  0  0  0  0  0  0
    6.4519    0.0119   19.8886 C   0  0  0  0  0  0  0  0  0  0  0  0
    5.2423    0.6895   20.0640 C   0  0  0  0  0  0  0  0  0  0  0  0
    4.6863    1.3780   18.9830 C   0  0  0  0  0  0  0  0  0  0  0  0
    5.3619    1.3502   17.7601 C   0  0  0  0  0  0  0  0  0  0  0  0
    6.5164    0.6941   17.5650 N   0  0  0  0  0  0  0  0  0  0  0  0
    7.0443    0.0524   18.6144 C   0  0  0  0  0  0  0  0  0  0  0  0
    7.9866   -0.4663   18.4330 H   0  0  0  0  0  0  0  0  0  0  0  0
    4.9558    1.8727   16.8964 H   0  0  0  0  0  0  0  0  0  0  0  0
    3.7591    1.9336   19.0787 H   0  0  0  0  0  0  0  0  0  0  0  0
    4.7396    0.6756   21.0330 H   0  0  0  0  0  0  0  0  0  0  0  0
    7.3152   -1.7829   20.7239 H   0  0  0  0  0  0  0  0  0  0  0  0
    6.5024   -0.7652   21.9048 H   0  0  0  0  0  0  0  0  0  0  0  0
    8.2383    2.8867   22.5000 H   0  0  0  0  0  0  0  0  0  0  0  0
    6.8546    1.8115   22.3445 H   0  0  0  0  0  0  0  0  0  0  0  0
    7.3863    2.3275   24.7912 H   0  0  0  0  0  0  0  0  0  0  0  0
    9.0150    1.7139   24.5410 H   0  0  0  0  0  0  0  0  0  0  0  0
    8.4240   -0.8907   24.6441 C   0  0  0  0  0  0  0  0  0  0  0  0
    9.7495   -0.6833   24.5141 F   0  0  0  0  0  0  0  0  0  0  0  0
    5.4403    0.7083   24.6582 H   0  0  0  0  0  0  0  0  0  0  0  0
    4.6482   -1.5955   25.1240 H   0  0  0  0  0  0  0  0  0  0  0  0
    6.3152   -3.4950   25.1886 H   0  0  0  0  0  0  0  0  0  0  0  0
  1  2  1  0
  2  3  2  0
  3  4  1  0
  4  5  2  0
  5  6  1  0
  6  7  1  0
  7  8  1  0
  8  9  1  0
  9 10  2  0
 10 11  1  0
 11 12  1  0
 12 13  2  0
 13 14  1  0
 14 15  1  0
 15 16  2  0
 15 17  1  0
 13 18  1  0
 11 19  2  0
 19 20  1  0
 20 21  1  0
 21 22  1  0
 22 23  2  0
 23 24  1  0
 24 25  2  0
 25 26  1  0
 26 27  2  0
 27 28  1  0
 25 29  1  0
 24 30  1  0
 23 31  1  0
 21 32  1  0
 21 33  1  0
  8 34  1  0
  8 35  1  0
  7 36  1  0
  7 37  1  0
  6 38  2  0
 38 39  1  0
  5 40  1  0
  4 41  1  0
  3 42  1  0
 38  2  1  0
 20  9  1  0
 27 22  1  0
 16 12  1  0
M  END
>  <cnnaffinity>  (1) 
-6.87618

>  <filename>  (1) 
Fc1cccc(CCc2nc(-c3cscn3)nn2Cc2cccnc2)c1F

$$$$
