
     RDKit          3D

 41 44  0  0  0  0  0  0  0  0999 V2000
   14.6525   -1.3334   22.6775 F   0  0  0  0  0  0  0  0  0  0  0  0
   13.4839   -0.7434   22.3839 C   0  0  0  0  0  0  0  0  0  0  0  0
   12.6174   -1.3629   21.4909 C   0  0  0  0  0  0  0  0  0  0  0  0
   11.4115   -0.7082   21.2134 C   0  0  0  0  0  0  0  0  0  0  0  0
   11.1462    0.5410   21.7863 C   0  0  0  0  0  0  0  0  0  0  0  0
    9.9178    1.3298   21.4278 C   0  0  0  0  0  0  0  0  0  0  0  0
    8.8023    1.1358   22.3908 C   0  0  0  0  0  0  0  0  0  0  0  0
    8.7088    1.7905   23.5171 N   0  0  0  0  0  0  0  0  0  0  0  0
    7.5101    1.3847   24.0435 C   0  0  0  0  0  0  0  0  0  0  0  0
    7.0387    1.9522   25.3645 C   0  0  0  0  0  0  0  0  0  0  0  0
    7.8308    2.9556   25.9711 C   0  0  0  0  0  0  0  0  0  0  0  0
    7.4660    3.4684   27.2104 C   0  0  0  0  0  0  0  0  0  0  0  0
    6.3105    2.9704   27.8138 C   0  0  0  0  0  0  0  0  0  0  0  0
    5.5687    1.9932   27.1410 C   0  0  0  0  0  0  0  0  0  0  0  0
    5.9066    1.4957   25.9465 N   0  0  0  0  0  0  0  0  0  0  0  0
    4.6616    1.5854   27.5849 H   0  0  0  0  0  0  0  0  0  0  0  0
    5.9865    3.3209   28.7839 H   0  0  0  0  0  0  0  0  0  0  0  0
    8.0754    4.2336   27.6916 H   0  0  0  0  0  0  0  0  0  0  0  0
    8.7234    3.2967   25.4572 H   0  0  0  0  0  0  0  0  0  0  0  0
    6.8804    0.5019   23.2780 N   0  0  0  0  0  0  0  0  0  0  0  0
    7.7241    0.3375   22.2323 N   0  0  0  0  0  0  0  0  0  0  0  0
    7.4230   -0.5692   21.1293 C   0  0  0  0  0  0  0  0  0  0  0  0
    6.7286    0.0869   19.9470 C   0  0  0  0  0  0  0  0  0  0  0  0
    5.5121    0.7539   20.1423 C   0  0  0  0  0  0  0  0  0  0  0  0
    4.8937    1.3543   19.0443 C   0  0  0  0  0  0  0  0  0  0  0  0
    5.5055    1.2598   17.7904 C   0  0  0  0  0  0  0  0  0  0  0  0
    6.6592    0.6114   17.5771 N   0  0  0  0  0  0  0  0  0  0  0  0
    7.2467    0.0480   18.6425 C   0  0  0  0  0  0  0  0  0  0  0  0
    8.1922   -0.4570   18.4377 H   0  0  0  0  0  0  0  0  0  0  0  0
    5.0446    1.7152   16.9155 H   0  0  0  0  0  0  0  0  0  0  0  0
    3.9650    1.9053   19.1455 H   0  0  0  0  0  0  0  0  0  0  0  0
    5.0802    0.8189   21.1442 H   0  0  0  0  0  0  0  0  0  0  0  0
    8.3582   -1.0500   20.8199 H   0  0  0  0  0  0  0  0  0  0  0  0
    6.7906   -1.3509   21.5543 H   0  0  0  0  0  0  0  0  0  0  0  0
    9.5691    1.1085   20.4182 H   0  0  0  0  0  0  0  0  0  0  0  0
   10.1977    2.3849   21.4737 H   0  0  0  0  0  0  0  0  0  0  0  0
   11.9898    1.1159   22.6544 N   0  0  0  0  0  0  0  0  0  0  0  0
   13.1314    0.4820   22.9642 C   0  0  0  0  0  0  0  0  0  0  0  0
   13.8102    0.9832   23.6500 H   0  0  0  0  0  0  0  0  0  0  0  0
   10.6784   -1.1481   20.5517 H   0  0  0  0  0  0  0  0  0  0  0  0
   12.8879   -2.3158   21.0493 H   0  0  0  0  0  0  0  0  0  0  0  0
  1  2  1  0
  2  3  2  0
  3  4  1  0
  4  5  2  0
  5  6  1  0
  6  7  1  0
  7  8  2  0
  8  9  1  0
  9 10  1  0
 10 11  2  0
 11 12  1  0
 12 13  2  0
 13 14  1  0
 14 15  2  0
 14 16  1  0
 13 17  1  0
 12 18  1  0
 11 19  1  0
  9 20  2  0
 20 21  1  0
 21 22  1  0
 22 23  1  0
 23 24  2  0
 24 25  1  0
 25 26  2  0
 26 27  1  0
 27 28  2  0
 28 29  1  0
 26 30  1  0
 25 31  1  0
 24 32  1  0
 22 33  1  0
 22 34  1  0
  6 35  1  0
  6 36  1  0
  5 37  1  0
 37 38  2  0
 38 39  1  0
  4 40  1  0
  3 41  1  0
 38  2  1  0
 21  7  1  0
 28 23  1  0
 15 10  1  0
M  END
>  <cnnaffinity>  (1) 
-6.05029

>  <filename>  (1) 
Fc1ccc(Cc2nc(-c3ccccn3)nn2Cc2cccnc2)nc1

$$$$
