
     RDKit          3D

 45 48  0  0  0  0  0  0  0  0999 V2000
    6.4083    3.9810   28.5279 F   0  0  0  0  0  0  0  0  0  0  0  0
    6.7313    3.3998   27.3629 C   0  0  0  0  0  0  0  0  0  0  0  0
    7.9450    3.7196   26.7604 C   0  0  0  0  0  0  0  0  0  0  0  0
    8.2766    3.1074   25.5527 C   0  0  0  0  0  0  0  0  0  0  0  0
    7.3988    2.1878   24.9404 C   0  0  0  0  0  0  0  0  0  0  0  0
    7.7653    1.5667   23.6447 C   0  0  0  0  0  0  0  0  0  0  0  0
    7.1449    0.5122   23.1376 N   0  0  0  0  0  0  0  0  0  0  0  0
    7.8461    0.2421   22.0139 N   0  0  0  0  0  0  0  0  0  0  0  0
    7.3271   -0.7051   21.0306 C   0  0  0  0  0  0  0  0  0  0  0  0
    6.6400   -0.0213   19.8696 C   0  0  0  0  0  0  0  0  0  0  0  0
    5.4496    0.6726   20.1067 C   0  0  0  0  0  0  0  0  0  0  0  0
    4.8361    1.3273   19.0390 C   0  0  0  0  0  0  0  0  0  0  0  0
    5.4488    1.2854   17.7834 C   0  0  0  0  0  0  0  0  0  0  0  0
    6.5867    0.6198   17.5356 N   0  0  0  0  0  0  0  0  0  0  0  0
    7.1526   -0.0240   18.5653 C   0  0  0  0  0  0  0  0  0  0  0  0
    8.0638   -0.5824   18.3361 H   0  0  0  0  0  0  0  0  0  0  0  0
    5.0037    1.8019   16.9360 H   0  0  0  0  0  0  0  0  0  0  0  0
    3.9033    1.8608   19.1718 H   0  0  0  0  0  0  0  0  0  0  0  0
    5.0324    0.6982   21.1151 H   0  0  0  0  0  0  0  0  0  0  0  0
    8.1474   -1.3425   20.6819 H   0  0  0  0  0  0  0  0  0  0  0  0
    6.6191   -1.3299   21.5836 H   0  0  0  0  0  0  0  0  0  0  0  0
    8.8402    1.1519   21.8772 C   0  0  0  0  0  0  0  0  0  0  0  0
    9.9602    0.9186   20.8999 C   0  0  0  0  0  0  0  0  0  0  0  0
   10.8551   -0.3046   21.2909 C   0  0  0  0  0  0  0  0  0  0  0  0
   11.5556   -0.1033   22.6190 C   0  0  0  0  0  0  0  0  0  0  0  0
   10.9562   -0.4921   23.8313 C   0  0  0  0  0  0  0  0  0  0  0  0
   11.6073   -0.1941   25.0293 C   0  0  0  0  0  0  0  0  0  0  0  0
   12.8569    0.4251   24.9679 C   0  0  0  0  0  0  0  0  0  0  0  0
   13.3527    0.8060   23.7214 C   0  0  0  0  0  0  0  0  0  0  0  0
   12.7210    0.5584   22.5701 N   0  0  0  0  0  0  0  0  0  0  0  0
   14.3021    1.3327   23.6332 H   0  0  0  0  0  0  0  0  0  0  0  0
   13.4526    0.5798   25.8565 H   0  0  0  0  0  0  0  0  0  0  0  0
   11.1614   -0.4533   25.9882 H   0  0  0  0  0  0  0  0  0  0  0  0
   10.0050   -1.0168   23.8167 H   0  0  0  0  0  0  0  0  0  0  0  0
   11.6162   -0.4879   20.5278 H   0  0  0  0  0  0  0  0  0  0  0  0
   10.2361   -1.2074   21.3353 H   0  0  0  0  0  0  0  0  0  0  0  0
    9.5291    0.7631   19.9044 H   0  0  0  0  0  0  0  0  0  0  0  0
   10.5826    1.8175   20.8325 H   0  0  0  0  0  0  0  0  0  0  0  0
    8.8016    2.0131   22.8763 N   0  0  0  0  0  0  0  0  0  0  0  0
    6.1833    1.8755   25.5911 C   0  0  0  0  0  0  0  0  0  0  0  0
    5.8469    2.4855   26.7986 C   0  0  0  0  0  0  0  0  0  0  0  0
    4.9187    2.2617   27.3130 H   0  0  0  0  0  0  0  0  0  0  0  0
    5.4998    1.1479   25.1567 H   0  0  0  0  0  0  0  0  0  0  0  0
    9.2256    3.3503   25.0775 H   0  0  0  0  0  0  0  0  0  0  0  0
    8.6001    4.4377   27.2380 H   0  0  0  0  0  0  0  0  0  0  0  0
  1  2  1  0
  2  3  2  0
  3  4  1  0
  4  5  2  0
  5  6  1  0
  6  7  2  0
  7  8  1  0
  8  9  1  0
  9 10  1  0
 10 11  2  0
 11 12  1  0
 12 13  2  0
 13 14  1  0
 14 15  2  0
 15 16  1  0
 13 17  1  0
 12 18  1  0
 11 19  1  0
  9 20  1  0
  9 21  1  0
  8 22  1  0
 22 23  1  0
 23 24  1  0
 24 25  1  0
 25 26  2  0
 26 27  1  0
 27 28  2  0
 28 29  1  0
 29 30  2  0
 29 31  1  0
 28 32  1  0
 27 33  1  0
 26 34  1  0
 24 35  1  0
 24 36  1  0
 23 37  1  0
 23 38  1  0
 22 39  2  0
  5 40  1  0
 40 41  2  0
 41 42  1  0
 40 43  1  0
  4 44  1  0
  3 45  1  0
 41  2  1  0
 39  6  1  0
 15 10  1  0
 30 25  1  0
M  END
>  <cnnaffinity>  (1) 
-5.84462

>  <filename>  (1) 
Fc1ccc(-c2nc(CCc3ccccn3)n(Cc3cccnc3)n2)cc1

$$$$
