
     RDKit          3D

 44 47  0  0  0  0  0  0  0  0999 V2000
    3.5689    5.2563   26.1364 F   0  0  0  0  0  0  0  0  0  0  0  0
    4.1992    4.2638   25.4831 C   0  0  0  0  0  0  0  0  0  0  0  0
    5.3768    4.5324   24.8026 C   0  0  0  0  0  0  0  0  0  0  0  0
    6.0067    3.4995   24.0890 C   0  0  0  0  0  0  0  0  0  0  0  0
    5.4489    2.2139   24.0416 C   0  0  0  0  0  0  0  0  0  0  0  0
    5.9035    1.1964   23.2577 O   0  0  0  0  0  0  0  0  0  0  0  0
    7.2663    1.1805   22.8172 C   0  0  0  0  0  0  0  0  0  0  0  0
    7.5532   -0.1687   22.2545 C   0  0  0  0  0  0  0  0  0  0  0  0
    8.2070   -1.1363   22.8728 N   0  0  0  0  0  0  0  0  0  0  0  0
    8.1580   -2.1523   21.9785 C   0  0  0  0  0  0  0  0  0  0  0  0
    8.6818   -3.5136   22.2340 C   0  0  0  0  0  0  0  0  0  0  0  0
    7.6515   -4.4291   22.9150 C   0  0  0  0  0  0  0  0  0  0  0  0
    8.0015   -5.9413   22.9213 C   0  0  0  0  0  0  0  0  0  0  0  0
    6.5802   -6.2542   22.3931 C   0  0  0  0  0  0  0  0  0  0  0  0
    6.3642   -4.7499   22.1078 C   0  0  0  0  0  0  0  0  0  0  0  0
    5.4186   -4.3334   22.4642 H   0  0  0  0  0  0  0  0  0  0  0  0
    6.4600   -4.4692   21.0561 H   0  0  0  0  0  0  0  0  0  0  0  0
    5.9262   -6.6323   23.1861 H   0  0  0  0  0  0  0  0  0  0  0  0
    6.4966   -6.9485   21.5547 H   0  0  0  0  0  0  0  0  0  0  0  0
    8.8087   -6.1877   22.2171 H   0  0  0  0  0  0  0  0  0  0  0  0
    8.2670   -6.3832   23.8887 H   0  0  0  0  0  0  0  0  0  0  0  0
    7.3971   -4.0577   23.9183 H   0  0  0  0  0  0  0  0  0  0  0  0
    8.9083   -3.9133   21.2454 H   0  0  0  0  0  0  0  0  0  0  0  0
    9.6053   -3.4455   22.8199 H   0  0  0  0  0  0  0  0  0  0  0  0
    7.5579   -1.8636   20.8420 N   0  0  0  0  0  0  0  0  0  0  0  0
    7.1504   -0.5841   21.0227 N   0  0  0  0  0  0  0  0  0  0  0  0
    6.5188    0.1069   19.9533 C   0  0  0  0  0  0  0  0  0  0  0  0
    5.3524    0.8599   20.1405 C   0  0  0  0  0  0  0  0  0  0  0  0
    4.7779    1.4531   19.0075 C   0  0  0  0  0  0  0  0  0  0  0  0
    5.4079    1.3108   17.7674 C   0  0  0  0  0  0  0  0  0  0  0  0
    6.5401    0.6068   17.5917 N   0  0  0  0  0  0  0  0  0  0  0  0
    7.0684    0.0108   18.6625 C   0  0  0  0  0  0  0  0  0  0  0  0
    7.9749   -0.5697   18.5046 H   0  0  0  0  0  0  0  0  0  0  0  0
    5.0008    1.7845   16.8750 H   0  0  0  0  0  0  0  0  0  0  0  0
    3.8647    2.0358   19.0791 H   0  0  0  0  0  0  0  0  0  0  0  0
    4.9096    0.9658   21.1270 H   0  0  0  0  0  0  0  0  0  0  0  0
    7.9625    1.3496   23.6474 H   0  0  0  0  0  0  0  0  0  0  0  0
    7.4280    1.9495   22.0503 H   0  0  0  0  0  0  0  0  0  0  0  0
    4.2858    1.9704   24.8050 C   0  0  0  0  0  0  0  0  0  0  0  0
    3.7691    0.7324   24.8520 F   0  0  0  0  0  0  0  0  0  0  0  0
    3.6510    2.9805   25.5153 C   0  0  0  0  0  0  0  0  0  0  0  0
    2.7513    2.7659   26.0798 H   0  0  0  0  0  0  0  0  0  0  0  0
    6.9363    3.6783   23.5548 H   0  0  0  0  0  0  0  0  0  0  0  0
    5.7913    5.5361   24.8316 H   0  0  0  0  0  0  0  0  0  0  0  0
  1  2  1  0
  2  3  2  0
  3  4  1  0
  4  5  2  0
  5  6  1  0
  6  7  1  0
  7  8  1  0
  8  9  2  0
  9 10  1  0
 10 11  1  0
 11 12  1  0
 12 13  1  0
 13 14  1  0
 14 15  1  0
 15 16  1  0
 15 17  1  0
 14 18  1  0
 14 19  1  0
 13 20  1  0
 13 21  1  0
 12 22  1  0
 11 23  1  0
 11 24  1  0
 10 25  2  0
 25 26  1  0
 26 27  1  0
 27 28  2  0
 28 29  1  0
 29 30  2  0
 30 31  1  0
 31 32  2  0
 32 33  1  0
 30 34  1  0
 29 35  1  0
 28 36  1  0
  7 37  1  0
  7 38  1  0
  5 39  1  0
 39 40  1  0
 39 41  2  0
 41 42  1  0
  4 43  1  0
  3 44  1  0
 41  2  1  0
 26  8  1  0
 32 27  1  0
 15 12  1  0
M  END
>  <cnnaffinity>  (1) 
-5.30195

>  <filename>  (1) 
Fc1ccc(OCc2nc(CC3CCC3)nn2-c2cccnc2)c(F)c1

$$$$
