
     RDKit          3D

 46 50  0  0  0  0  0  0  0  0999 V2000
   15.1135   -1.3374   20.1426 F   0  0  0  0  0  0  0  0  0  0  0  0
   14.0291   -1.2302   20.9142 C   0  0  0  0  0  0  0  0  0  0  0  0
   13.9285   -0.2440   21.9019 C   0  0  0  0  0  0  0  0  0  0  0  0
   12.6640    0.0326   22.4393 C   0  0  0  0  0  0  0  0  0  0  0  0
   11.5325   -0.6954   22.0136 C   0  0  0  0  0  0  0  0  0  0  0  0
   10.1293   -0.2702   22.2303 C   0  0  0  0  0  0  0  0  0  0  0  0
    9.1172   -0.9938   21.7613 N   0  0  0  0  0  0  0  0  0  0  0  0
    8.0443   -0.1850   21.9049 N   0  0  0  0  0  0  0  0  0  0  0  0
    6.7734   -0.5845   21.2974 C   0  0  0  0  0  0  0  0  0  0  0  0
    6.3666    0.2118   20.0696 C   0  0  0  0  0  0  0  0  0  0  0  0
    5.1561    0.9109   20.0014 C   0  0  0  0  0  0  0  0  0  0  0  0
    4.7898    1.5221   18.7994 C   0  0  0  0  0  0  0  0  0  0  0  0
    5.6605    1.4285   17.7103 C   0  0  0  0  0  0  0  0  0  0  0  0
    6.8437    0.7970   17.7643 N   0  0  0  0  0  0  0  0  0  0  0  0
    7.1840    0.2217   18.9247 C   0  0  0  0  0  0  0  0  0  0  0  0
    8.1562   -0.2705   18.9463 H   0  0  0  0  0  0  0  0  0  0  0  0
    5.3983    1.8851   16.7565 H   0  0  0  0  0  0  0  0  0  0  0  0
    3.8626    2.0764   18.7006 H   0  0  0  0  0  0  0  0  0  0  0  0
    4.5081    0.9837   20.8783 H   0  0  0  0  0  0  0  0  0  0  0  0
    5.9836   -0.5337   22.0507 H   0  0  0  0  0  0  0  0  0  0  0  0
    6.8990   -1.6426   21.0494 H   0  0  0  0  0  0  0  0  0  0  0  0
    8.4580    0.9836   22.4528 C   0  0  0  0  0  0  0  0  0  0  0  0
    7.5929    2.1161   22.8984 C   0  0  0  0  0  0  0  0  0  0  0  0
    7.0777    1.7714   24.2633 C   0  0  0  0  0  0  0  0  0  0  0  0
    7.6271    2.2112   25.3604 N   0  0  0  0  0  0  0  0  0  0  0  0
    7.0182    1.5129   26.3910 O   0  0  0  0  0  0  0  0  0  0  0  0
    6.1299    0.6421   25.8825 C   0  0  0  0  0  0  0  0  0  0  0  0
    5.3849   -0.3143   26.7226 C   0  0  0  0  0  0  0  0  0  0  0  0
    5.3843   -0.2756   28.2253 C   0  0  0  0  0  0  0  0  0  0  0  0
    4.1325    0.0708   27.4811 C   0  0  0  0  0  0  0  0  0  0  0  0
    3.3125   -0.6439   27.4738 H   0  0  0  0  0  0  0  0  0  0  0  0
    3.8189    1.1121   27.4535 H   0  0  0  0  0  0  0  0  0  0  0  0
    5.9272    0.5388   28.6988 H   0  0  0  0  0  0  0  0  0  0  0  0
    5.4392   -1.2234   28.7539 H   0  0  0  0  0  0  0  0  0  0  0  0
    5.3481   -1.2917   26.2449 H   0  0  0  0  0  0  0  0  0  0  0  0
    6.0904    0.7983   24.5369 C   0  0  0  0  0  0  0  0  0  0  0  0
    5.4556    0.2966   23.8320 H   0  0  0  0  0  0  0  0  0  0  0  0
    8.2174    3.0088   22.9333 H   0  0  0  0  0  0  0  0  0  0  0  0
    6.7625    2.2738   22.2037 H   0  0  0  0  0  0  0  0  0  0  0  0
    9.7481    0.9443   22.6991 N   0  0  0  0  0  0  0  0  0  0  0  0
   11.7265   -1.7711   21.1345 C   0  0  0  0  0  0  0  0  0  0  0  0
   12.9557   -2.0184   20.5464 C   0  0  0  0  0  0  0  0  0  0  0  0
   13.0868   -2.7487   19.7539 H   0  0  0  0  0  0  0  0  0  0  0  0
   10.8534   -2.3373   20.8347 H   0  0  0  0  0  0  0  0  0  0  0  0
   12.5510    0.8566   23.1387 H   0  0  0  0  0  0  0  0  0  0  0  0
   14.7898    0.3740   22.1322 H   0  0  0  0  0  0  0  0  0  0  0  0
  1  2  1  0
  2  3  2  0
  3  4  1  0
  4  5  2  0
  5  6  1  0
  6  7  2  0
  7  8  1  0
  8  9  1  0
  9 10  1  0
 10 11  2  0
 11 12  1  0
 12 13  2  0
 13 14  1  0
 14 15  2  0
 15 16  1  0
 13 17  1  0
 12 18  1  0
 11 19  1  0
  9 20  1  0
  9 21  1  0
  8 22  1  0
 22 23  1  0
 23 24  1  0
 24 25  2  0
 25 26  1  0
 26 27  1  0
 27 28  1  0
 28 29  1  0
 29 30  1  0
 30 31  1  0
 30 32  1  0
 29 33  1  0
 29 34  1  0
 28 35  1  0
 27 36  2  0
 36 37  1  0
 23 38  1  0
 23 39  1  0
 22 40  2  0
  5 41  1  0
 41 42  2  0
 42 43  1  0
 41 44  1  0
  4 45  1  0
  3 46  1  0
 42  2  1  0
 40  6  1  0
 15 10  1  0
 36 24  1  0
 30 28  1  0
M  END
>  <cnnaffinity>  (1) 
-6.68462

>  <filename>  (1) 
Fc1ccc(-c2nc(Cc3cc(C4CC4)on3)n(Cc3cccnc3)n2)cc1

$$$$
