
     RDKit          3D

 42 45  0  0  0  0  0  0  0  0999 V2000
    5.0136    0.5964   24.1089 F   0  0  0  0  0  0  0  0  0  0  0  0
    5.3243    1.5471   25.0054 C   0  0  0  0  0  0  0  0  0  0  0  0
    4.2963    2.1262   25.7339 C   0  0  0  0  0  0  0  0  0  0  0  0
    4.6246    3.1683   26.6052 C   0  0  0  0  0  0  0  0  0  0  0  0
    5.9476    3.5983   26.7360 C   0  0  0  0  0  0  0  0  0  0  0  0
    6.9358    2.9500   26.0026 C   0  0  0  0  0  0  0  0  0  0  0  0
    8.2109    3.3552   26.1472 F   0  0  0  0  0  0  0  0  0  0  0  0
    6.6680    1.8993   25.1225 C   0  0  0  0  0  0  0  0  0  0  0  0
    7.7058    1.2281   24.2744 C   0  0  0  0  0  0  0  0  0  0  0  0
    7.7862    1.8167   22.8437 C   0  0  0  0  0  0  0  0  0  0  0  0
    8.7992    1.0534   22.0718 C   0  0  0  0  0  0  0  0  0  0  0  0
   10.0910    1.2130   22.2698 N   0  0  0  0  0  0  0  0  0  0  0  0
   10.6462    0.1090   21.7041 C   0  0  0  0  0  0  0  0  0  0  0  0
   12.0922   -0.2444   21.8006 C   0  0  0  0  0  0  0  0  0  0  0  0
   12.6234   -1.3878   21.2695 C   0  0  0  0  0  0  0  0  0  0  0  0
   14.3108   -1.4203   21.5009 S   0  0  0  0  0  0  0  0  0  0  0  0
   14.2024    0.0729   22.3764 C   0  0  0  0  0  0  0  0  0  0  0  0
   13.0143    0.5693   22.4532 N   0  0  0  0  0  0  0  0  0  0  0  0
   15.0587    0.5306   22.8580 H   0  0  0  0  0  0  0  0  0  0  0  0
   12.0862   -2.1905   20.7799 H   0  0  0  0  0  0  0  0  0  0  0  0
    9.7499   -0.6942   21.1299 N   0  0  0  0  0  0  0  0  0  0  0  0
    8.5750   -0.0868   21.3856 N   0  0  0  0  0  0  0  0  0  0  0  0
    7.3136   -0.7023   20.9896 C   0  0  0  0  0  0  0  0  0  0  0  0
    6.5787    0.0430   19.8980 C   0  0  0  0  0  0  0  0  0  0  0  0
    5.3530    0.6816   20.1128 C   0  0  0  0  0  0  0  0  0  0  0  0
    4.7464    1.3440   19.0421 C   0  0  0  0  0  0  0  0  0  0  0  0
    5.3830    1.3327   17.7978 C   0  0  0  0  0  0  0  0  0  0  0  0
    6.5476    0.7069   17.5682 N   0  0  0  0  0  0  0  0  0  0  0  0
    7.1231    0.0828   18.6025 C   0  0  0  0  0  0  0  0  0  0  0  0
    8.0557   -0.4381   18.3851 H   0  0  0  0  0  0  0  0  0  0  0  0
    4.9355    1.8410   16.9459 H   0  0  0  0  0  0  0  0  0  0  0  0
    3.8054    1.8675   19.1586 H   0  0  0  0  0  0  0  0  0  0  0  0
    4.8789    0.6459   21.0983 H   0  0  0  0  0  0  0  0  0  0  0  0
    6.6692   -0.8179   21.8728 H   0  0  0  0  0  0  0  0  0  0  0  0
    7.5949   -1.7044   20.6560 H   0  0  0  0  0  0  0  0  0  0  0  0
    6.8124    1.8033   22.3465 H   0  0  0  0  0  0  0  0  0  0  0  0
    8.1214    2.8560   22.8899 H   0  0  0  0  0  0  0  0  0  0  0  0
    8.6974    1.3022   24.7366 H   0  0  0  0  0  0  0  0  0  0  0  0
    7.4678    0.1570   24.2067 H   0  0  0  0  0  0  0  0  0  0  0  0
    6.2375    4.4120   27.3908 H   0  0  0  0  0  0  0  0  0  0  0  0
    3.8406    3.6490   27.1784 H   0  0  0  0  0  0  0  0  0  0  0  0
    3.2876    1.7497   25.6100 H   0  0  0  0  0  0  0  0  0  0  0  0
  1  2  1  0
  2  3  2  0
  3  4  1  0
  4  5  2  0
  5  6  1  0
  6  7  1  0
  6  8  2  0
  8  9  1  0
  9 10  1  0
 10 11  1  0
 11 12  2  0
 12 13  1  0
 13 14  1  0
 14 15  2  0
 15 16  1  0
 16 17  1  0
 17 18  2  0
 17 19  1  0
 15 20  1  0
 13 21  2  0
 21 22  1  0
 22 23  1  0
 23 24  1  0
 24 25  2  0
 25 26  1  0
 26 27  2  0
 27 28  1  0
 28 29  2  0
 29 30  1  0
 27 31  1  0
 26 32  1  0
 25 33  1  0
 23 34  1  0
 23 35  1  0
 10 36  1  0
 10 37  1  0
  9 38  1  0
  9 39  1  0
  5 40  1  0
  4 41  1  0
  3 42  1  0
  8  2  1  0
 22 11  1  0
 29 24  1  0
 18 14  1  0
M  END
>  <cnnaffinity>  (1) 
-6.55394

>  <filename>  (1) 
Fc1cccc(F)c1CCc1nc(-c2cscn2)nn1Cc1cccnc1

$$$$
