
     RDKit          3D

 38 42  0  0  0  0  0  0  0  0999 V2000
    6.2810    5.0926   24.6746 F   0  0  0  0  0  0  0  0  0  0  0  0
    6.5768    3.9118   24.1086 C   0  0  0  0  0  0  0  0  0  0  0  0
    7.0460    3.8812   22.7988 C   0  0  0  0  0  0  0  0  0  0  0  0
    7.3296    2.6476   22.2111 C   0  0  0  0  0  0  0  0  0  0  0  0
    7.1281    1.4445   22.9216 C   0  0  0  0  0  0  0  0  0  0  0  0
    7.3489    0.1095   22.3281 C   0  0  0  0  0  0  0  0  0  0  0  0
    7.7089   -0.9674   23.0148 N   0  0  0  0  0  0  0  0  0  0  0  0
    7.8523   -1.9208   22.0653 C   0  0  0  0  0  0  0  0  0  0  0  0
    8.2391   -3.3366   22.2805 C   0  0  0  0  0  0  0  0  0  0  0  0
    8.9102   -3.8485   23.5595 C   0  0  0  0  0  0  0  0  0  0  0  0
    7.5421   -4.3214   23.1756 C   0  0  0  0  0  0  0  0  0  0  0  0
    6.2265   -4.5437   23.8358 C   0  0  0  0  0  0  0  0  0  0  0  0
    6.8375   -5.6007   22.9145 C   0  0  0  0  0  0  0  0  0  0  0  0
    7.2529   -6.5031   23.3495 H   0  0  0  0  0  0  0  0  0  0  0  0
    6.3959   -5.7192   21.9275 H   0  0  0  0  0  0  0  0  0  0  0  0
    5.3803   -3.9593   23.4868 H   0  0  0  0  0  0  0  0  0  0  0  0
    6.2384   -4.7372   24.9064 H   0  0  0  0  0  0  0  0  0  0  0  0
    9.7633   -4.5230   23.4576 H   0  0  0  0  0  0  0  0  0  0  0  0
    8.9564   -3.1688   24.4105 H   0  0  0  0  0  0  0  0  0  0  0  0
    8.5504   -3.7801   21.3372 H   0  0  0  0  0  0  0  0  0  0  0  0
    7.6166   -1.5063   20.8381 N   0  0  0  0  0  0  0  0  0  0  0  0
    7.2473   -0.2083   20.9961 N   0  0  0  0  0  0  0  0  0  0  0  0
    6.6367    0.4439   19.8828 C   0  0  0  0  0  0  0  0  0  0  0  0
    5.4589    1.1928   19.9882 C   0  0  0  0  0  0  0  0  0  0  0  0
    4.8415    1.6205   18.8089 C   0  0  0  0  0  0  0  0  0  0  0  0
    5.4389    1.3141   17.5835 C   0  0  0  0  0  0  0  0  0  0  0  0
    6.5945    0.6330   17.4769 N   0  0  0  0  0  0  0  0  0  0  0  0
    7.1721    0.2086   18.6015 C   0  0  0  0  0  0  0  0  0  0  0  0
    8.1047   -0.3448   18.4977 H   0  0  0  0  0  0  0  0  0  0  0  0
    4.9744    1.6148   16.6492 H   0  0  0  0  0  0  0  0  0  0  0  0
    3.9042    2.1693   18.8311 H   0  0  0  0  0  0  0  0  0  0  0  0
    5.0360    1.4225   20.9664 H   0  0  0  0  0  0  0  0  0  0  0  0
    6.6953    1.5201   24.2589 C   0  0  0  0  0  0  0  0  0  0  0  0
    6.4100    2.7472   24.8533 C   0  0  0  0  0  0  0  0  0  0  0  0
    6.0737    2.8240   25.8803 H   0  0  0  0  0  0  0  0  0  0  0  0
    6.5917    0.6000   24.8310 H   0  0  0  0  0  0  0  0  0  0  0  0
    7.7063    2.6269   21.1917 H   0  0  0  0  0  0  0  0  0  0  0  0
    7.1822    4.8161   22.2669 H   0  0  0  0  0  0  0  0  0  0  0  0
  1  2  1  0
  2  3  2  0
  3  4  1  0
  4  5  2  0
  5  6  1  0
  6  7  2  0
  7  8  1  0
  8  9  1  0
  9 10  1  0
 10 11  1  0
 11 12  1  0
 12 13  1  0
 13 14  1  0
 13 15  1  0
 12 16  1  0
 12 17  1  0
 10 18  1  0
 10 19  1  0
  9 20  1  0
  8 21  2  0
 21 22  1  0
 22 23  1  0
 23 24  2  0
 24 25  1  0
 25 26  2  0
 26 27  1  0
 27 28  2  0
 28 29  1  0
 26 30  1  0
 25 31  1  0
 24 32  1  0
  5 33  1  0
 33 34  2  0
 34 35  1  0
 33 36  1  0
  4 37  1  0
  3 38  1  0
 34  2  1  0
 22  6  1  0
 28 23  1  0
 11  9  1  0
 13 11  1  0
M  END
>  <cnnaffinity>  (1) 
-5.91945

>  <filename>  (1) 
Fc1ccc(-c2nc(C3CC34CC4)nn2-c2cccnc2)cc1

$$$$
