
     RDKit          3D

 44 47  0  0  0  0  0  0  0  0999 V2000
    3.6048    6.8307   22.5927 F   0  0  0  0  0  0  0  0  0  0  0  0
    4.5471    5.8950   22.4214 C   0  0  0  0  0  0  0  0  0  0  0  0
    5.8737    6.1239   22.7515 C   0  0  0  0  0  0  0  0  0  0  0  0
    6.8051    5.1806   22.6072 N   0  0  0  0  0  0  0  0  0  0  0  0
    6.4071    4.0031   22.1172 C   0  0  0  0  0  0  0  0  0  0  0  0
    7.4282    2.9251   21.9626 C   0  0  0  0  0  0  0  0  0  0  0  0
    7.4438    1.8747   23.1174 C   0  0  0  0  0  0  0  0  0  0  0  0
    8.3367    0.7310   22.7818 C   0  0  0  0  0  0  0  0  0  0  0  0
    9.6409    0.7524   22.9880 N   0  0  0  0  0  0  0  0  0  0  0  0
   10.0811   -0.3481   22.3415 C   0  0  0  0  0  0  0  0  0  0  0  0
   11.5055   -0.6767   22.0825 C   0  0  0  0  0  0  0  0  0  0  0  0
   12.6037    0.0240   22.6168 C   0  0  0  0  0  0  0  0  0  0  0  0
   13.9037   -0.2671   22.1790 C   0  0  0  0  0  0  0  0  0  0  0  0
   14.1036   -1.2335   21.1816 C   0  0  0  0  0  0  0  0  0  0  0  0
   13.0162   -1.9101   20.6394 C   0  0  0  0  0  0  0  0  0  0  0  0
   11.7418   -1.6794   21.1367 C   0  0  0  0  0  0  0  0  0  0  0  0
   10.8840   -2.2268   20.7650 H   0  0  0  0  0  0  0  0  0  0  0  0
   13.1688   -2.6137   19.8272 H   0  0  0  0  0  0  0  0  0  0  0  0
   15.0671   -1.4736   20.7644 H   0  0  0  0  0  0  0  0  0  0  0  0
   14.7403    0.2915   22.5971 H   0  0  0  0  0  0  0  0  0  0  0  0
   12.4413    0.8067   23.3518 H   0  0  0  0  0  0  0  0  0  0  0  0
    9.1113   -1.0436   21.7571 N   0  0  0  0  0  0  0  0  0  0  0  0
    7.9924   -0.3571   22.0510 N   0  0  0  0  0  0  0  0  0  0  0  0
    6.7377   -0.7560   21.4071 C   0  0  0  0  0  0  0  0  0  0  0  0
    6.3562    0.0535   20.1782 C   0  0  0  0  0  0  0  0  0  0  0  0
    5.2389    0.8928   20.1727 C   0  0  0  0  0  0  0  0  0  0  0  0
    4.9313    1.6115   19.0152 C   0  0  0  0  0  0  0  0  0  0  0  0
    5.7398    1.4457   17.8880 C   0  0  0  0  0  0  0  0  0  0  0  0
    6.8266    0.6573   17.8752 N   0  0  0  0  0  0  0  0  0  0  0  0
    7.1257   -0.0004   19.0046 C   0  0  0  0  0  0  0  0  0  0  0  0
    8.0283   -0.6129   18.9771 H   0  0  0  0  0  0  0  0  0  0  0  0
    5.5101    1.9694   16.9606 H   0  0  0  0  0  0  0  0  0  0  0  0
    4.1094    2.3201   18.9945 H   0  0  0  0  0  0  0  0  0  0  0  0
    4.6594    1.0435   21.0843 H   0  0  0  0  0  0  0  0  0  0  0  0
    6.8864   -1.8104   21.1489 H   0  0  0  0  0  0  0  0  0  0  0  0
    5.9423   -0.7153   22.1504 H   0  0  0  0  0  0  0  0  0  0  0  0
    7.8444    2.3326   24.0274 H   0  0  0  0  0  0  0  0  0  0  0  0
    6.4384    1.4957   23.3455 H   0  0  0  0  0  0  0  0  0  0  0  0
    7.2152    2.4243   21.0150 H   0  0  0  0  0  0  0  0  0  0  0  0
    8.4146    3.3925   21.8803 H   0  0  0  0  0  0  0  0  0  0  0  0
    5.1478    3.6841   21.7910 N   0  0  0  0  0  0  0  0  0  0  0  0
    4.2310    4.6444   21.9144 C   0  0  0  0  0  0  0  0  0  0  0  0
    3.2140    4.4134   21.6011 H   0  0  0  0  0  0  0  0  0  0  0  0
    6.1960    7.0929   23.1310 H   0  0  0  0  0  0  0  0  0  0  0  0
  1  2  1  0
  2  3  2  0
  3  4  1  0
  4  5  2  0
  5  6  1  0
  6  7  1  0
  7  8  1  0
  8  9  2  0
  9 10  1  0
 10 11  1  0
 11 12  2  0
 12 13  1  0
 13 14  2  0
 14 15  1  0
 15 16  2  0
 16 17  1  0
 15 18  1  0
 14 19  1  0
 13 20  1  0
 12 21  1  0
 10 22  2  0
 22 23  1  0
 23 24  1  0
 24 25  1  0
 25 26  2  0
 26 27  1  0
 27 28  2  0
 28 29  1  0
 29 30  2  0
 30 31  1  0
 28 32  1  0
 27 33  1  0
 26 34  1  0
 24 35  1  0
 24 36  1  0
  7 37  1  0
  7 38  1  0
  6 39  1  0
  6 40  1  0
  5 41  1  0
 41 42  2  0
 42 43  1  0
  3 44  1  0
 42  2  1  0
 23  8  1  0
 30 25  1  0
 16 11  1  0
M  END
>  <cnnaffinity>  (1) 
-6.52996

>  <filename>  (1) 
Fc1cnc(CCc2nc(-c3ccccc3)nn2Cc2cccnc2)nc1

$$$$
