
     RDKit          3D

 43 46  0  0  0  0  0  0  0  0999 V2000
    6.8932    1.3784   25.8797 F   0  0  0  0  0  0  0  0  0  0  0  0
    8.0174    1.6263   25.1871 C   0  0  0  0  0  0  0  0  0  0  0  0
    9.2217    1.7669   25.8559 C   0  0  0  0  0  0  0  0  0  0  0  0
   10.3926    1.9824   25.1220 C   0  0  0  0  0  0  0  0  0  0  0  0
   10.3333    2.0863   23.7338 C   0  0  0  0  0  0  0  0  0  0  0  0
    9.1146    1.9849   23.0443 C   0  0  0  0  0  0  0  0  0  0  0  0
    9.0965    1.9851   21.5313 C   0  0  0  0  0  0  0  0  0  0  0  0
    9.5236    0.6075   20.9505 C   0  0  0  0  0  0  0  0  0  0  0  0
    8.6453   -0.5127   21.3971 C   0  0  0  0  0  0  0  0  0  0  0  0
    8.8866   -1.3529   22.3892 N   0  0  0  0  0  0  0  0  0  0  0  0
    7.6816   -1.9531   22.5725 C   0  0  0  0  0  0  0  0  0  0  0  0
    7.4060   -2.8434   23.7356 C   0  0  0  0  0  0  0  0  0  0  0  0
    6.3888   -3.9913   23.4845 C   0  0  0  0  0  0  0  0  0  0  0  0
    5.4293   -3.3638   24.5228 C   0  0  0  0  0  0  0  0  0  0  0  0
    6.4470   -2.2344   24.8173 C   0  0  0  0  0  0  0  0  0  0  0  0
    6.1122   -1.2102   24.6011 H   0  0  0  0  0  0  0  0  0  0  0  0
    6.8550   -2.2334   25.8323 H   0  0  0  0  0  0  0  0  0  0  0  0
    5.1889   -4.0037   25.3764 H   0  0  0  0  0  0  0  0  0  0  0  0
    4.4817   -3.0170   24.1028 H   0  0  0  0  0  0  0  0  0  0  0  0
    6.0067   -4.0218   22.4586 H   0  0  0  0  0  0  0  0  0  0  0  0
    6.7602   -4.9884   23.7356 H   0  0  0  0  0  0  0  0  0  0  0  0
    8.3734   -3.1601   24.1278 H   0  0  0  0  0  0  0  0  0  0  0  0
    6.7472   -1.5980   21.7098 N   0  0  0  0  0  0  0  0  0  0  0  0
    7.3696   -0.6732   20.9386 N   0  0  0  0  0  0  0  0  0  0  0  0
    6.6586   -0.0018   19.9011 C   0  0  0  0  0  0  0  0  0  0  0  0
    5.4417    0.6366   20.1671 C   0  0  0  0  0  0  0  0  0  0  0  0
    4.8131    1.3077   19.1119 C   0  0  0  0  0  0  0  0  0  0  0  0
    5.3995    1.2958   17.8397 C   0  0  0  0  0  0  0  0  0  0  0  0
    6.5578    0.6713   17.5768 N   0  0  0  0  0  0  0  0  0  0  0  0
    7.1664    0.0477   18.5910 C   0  0  0  0  0  0  0  0  0  0  0  0
    8.1129   -0.4355   18.3643 H   0  0  0  0  0  0  0  0  0  0  0  0
    4.9206    1.7865   16.9944 H   0  0  0  0  0  0  0  0  0  0  0  0
    3.8817    1.8393   19.2626 H   0  0  0  0  0  0  0  0  0  0  0  0
    5.0242    0.6113   21.1779 H   0  0  0  0  0  0  0  0  0  0  0  0
   10.5360    0.3532   21.2727 H   0  0  0  0  0  0  0  0  0  0  0  0
    9.5373    0.6564   19.8603 H   0  0  0  0  0  0  0  0  0  0  0  0
    8.0955    2.2434   21.1702 H   0  0  0  0  0  0  0  0  0  0  0  0
    9.7850    2.7539   21.1659 H   0  0  0  0  0  0  0  0  0  0  0  0
    7.9617    1.7325   23.7963 C   0  0  0  0  0  0  0  0  0  0  0  0
    6.7638    1.5761   23.1988 F   0  0  0  0  0  0  0  0  0  0  0  0
   11.2456    2.2414   23.1623 H   0  0  0  0  0  0  0  0  0  0  0  0
   11.3524    2.0569   25.6168 H   0  0  0  0  0  0  0  0  0  0  0  0
    9.1815    1.6886   26.9309 H   0  0  0  0  0  0  0  0  0  0  0  0
  1  2  1  0
  2  3  2  0
  3  4  1  0
  4  5  2  0
  5  6  1  0
  6  7  1  0
  7  8  1  0
  8  9  1  0
  9 10  2  0
 10 11  1  0
 11 12  1  0
 12 13  1  0
 13 14  1  0
 14 15  1  0
 15 16  1  0
 15 17  1  0
 14 18  1  0
 14 19  1  0
 13 20  1  0
 13 21  1  0
 12 22  1  0
 11 23  2  0
 23 24  1  0
 24 25  1  0
 25 26  2  0
 26 27  1  0
 27 28  2  0
 28 29  1  0
 29 30  2  0
 30 31  1  0
 28 32  1  0
 27 33  1  0
 26 34  1  0
  8 35  1  0
  8 36  1  0
  7 37  1  0
  7 38  1  0
  6 39  2  0
 39 40  1  0
  5 41  1  0
  4 42  1  0
  3 43  1  0
 39  2  1  0
 24  9  1  0
 30 25  1  0
 15 12  1  0
M  END
>  <cnnaffinity>  (1) 
-6.28947

>  <filename>  (1) 
Fc1cccc(CCc2nc(C3CCC3)nn2-c2cccnc2)c1F

$$$$
