
     RDKit          3D

 44 48  0  0  0  0  0  0  0  0999 V2000
    9.5239   -0.1986   20.7578 F   0  0  0  0  0  0  0  0  0  0  0  0
   10.3105    0.3955   21.6864 C   0  0  0  0  0  0  0  0  0  0  0  0
   11.5152   -0.2118   22.0233 C   0  0  0  0  0  0  0  0  0  0  0  0
   12.3419    0.4167   22.9603 C   0  0  0  0  0  0  0  0  0  0  0  0
   11.9609    1.6309   23.5359 C   0  0  0  0  0  0  0  0  0  0  0  0
   10.7219    2.1725   23.1934 C   0  0  0  0  0  0  0  0  0  0  0  0
   10.3572    3.3283   23.7802 F   0  0  0  0  0  0  0  0  0  0  0  0
    9.8366    1.5772   22.2793 C   0  0  0  0  0  0  0  0  0  0  0  0
    8.4338    2.1001   22.0402 C   0  0  0  0  0  0  0  0  0  0  0  0
    7.3424    1.3912   22.9033 C   0  0  0  0  0  0  0  0  0  0  0  0
    7.1739   -0.0727   22.5994 C   0  0  0  0  0  0  0  0  0  0  0  0
    7.7027   -1.0531   23.3131 N   0  0  0  0  0  0  0  0  0  0  0  0
    7.6495   -2.1202   22.4698 C   0  0  0  0  0  0  0  0  0  0  0  0
    8.4978   -3.3355   22.6151 C   0  0  0  0  0  0  0  0  0  0  0  0
    7.9499   -4.7591   22.5443 C   0  0  0  0  0  0  0  0  0  0  0  0
    8.5500   -4.2213   23.8121 C   0  0  0  0  0  0  0  0  0  0  0  0
    9.6159   -4.5399   24.8003 C   0  0  0  0  0  0  0  0  0  0  0  0
    8.2228   -4.0653   25.2528 C   0  0  0  0  0  0  0  0  0  0  0  0
    8.1163   -3.0245   25.5603 H   0  0  0  0  0  0  0  0  0  0  0  0
    7.5454   -4.7890   25.7117 H   0  0  0  0  0  0  0  0  0  0  0  0
    9.8905   -5.5840   24.9593 H   0  0  0  0  0  0  0  0  0  0  0  0
   10.4512   -3.8425   24.8776 H   0  0  0  0  0  0  0  0  0  0  0  0
    6.8742   -4.9285   22.5372 H   0  0  0  0  0  0  0  0  0  0  0  0
    8.5409   -5.4980   22.0063 H   0  0  0  0  0  0  0  0  0  0  0  0
    9.4616   -3.1474   22.1317 H   0  0  0  0  0  0  0  0  0  0  0  0
    7.0645   -1.8786   21.3172 N   0  0  0  0  0  0  0  0  0  0  0  0
    6.7037   -0.5682   21.4081 N   0  0  0  0  0  0  0  0  0  0  0  0
    6.3190    0.0780   20.1930 C   0  0  0  0  0  0  0  0  0  0  0  0
    5.2634    0.9912   20.0975 C   0  0  0  0  0  0  0  0  0  0  0  0
    5.0216    1.5887   18.8525 C   0  0  0  0  0  0  0  0  0  0  0  0
    5.8261    1.2586   17.7615 C   0  0  0  0  0  0  0  0  0  0  0  0
    6.8214    0.3564   17.8400 N   0  0  0  0  0  0  0  0  0  0  0  0
    7.0415   -0.2298   19.0211 C   0  0  0  0  0  0  0  0  0  0  0  0
    7.8248   -0.9875   19.0567 H   0  0  0  0  0  0  0  0  0  0  0  0
    5.6654    1.7216   16.7871 H   0  0  0  0  0  0  0  0  0  0  0  0
    4.2129    2.2999   18.7205 H   0  0  0  0  0  0  0  0  0  0  0  0
    4.6213    1.1962   20.9512 H   0  0  0  0  0  0  0  0  0  0  0  0
    7.6045    1.4556   23.9645 H   0  0  0  0  0  0  0  0  0  0  0  0
    6.3869    1.9090   22.7756 H   0  0  0  0  0  0  0  0  0  0  0  0
    8.1867    1.9658   20.9820 H   0  0  0  0  0  0  0  0  0  0  0  0
    8.4071    3.1790   22.2414 H   0  0  0  0  0  0  0  0  0  0  0  0
   12.5943    2.1509   24.2455 H   0  0  0  0  0  0  0  0  0  0  0  0
   13.2826   -0.0515   23.2393 H   0  0  0  0  0  0  0  0  0  0  0  0
   11.7667   -1.1754   21.5919 H   0  0  0  0  0  0  0  0  0  0  0  0
  1  2  1  0
  2  3  2  0
  3  4  1  0
  4  5  2  0
  5  6  1  0
  6  7  1  0
  6  8  2  0
  8  9  1  0
  9 10  1  0
 10 11  1  0
 11 12  2  0
 12 13  1  0
 13 14  1  0
 14 15  1  0
 15 16  1  0
 16 17  1  0
 17 18  1  0
 18 19  1  0
 18 20  1  0
 17 21  1  0
 17 22  1  0
 15 23  1  0
 15 24  1  0
 14 25  1  0
 13 26  2  0
 26 27  1  0
 27 28  1  0
 28 29  2  0
 29 30  1  0
 30 31  2  0
 31 32  1  0
 32 33  2  0
 33 34  1  0
 31 35  1  0
 30 36  1  0
 29 37  1  0
 10 38  1  0
 10 39  1  0
  9 40  1  0
  9 41  1  0
  5 42  1  0
  4 43  1  0
  3 44  1  0
  8  2  1  0
 27 11  1  0
 33 28  1  0
 16 14  1  0
 18 16  1  0
M  END
>  <cnnaffinity>  (1) 
-6.92997

>  <filename>  (1) 
Fc1cccc(F)c1CCc1nc(C2CC23CC3)nn1-c1cccnc1

$$$$
