
     RDKit          3D

 38 41  0  0  0  0  0  0  0  0999 V2000
    7.7118    6.1721   26.6323 F   0  0  0  0  0  0  0  0  0  0  0  0
    7.8021    5.0392   25.9209 C   0  0  0  0  0  0  0  0  0  0  0  0
    6.8231    4.7587   24.9752 C   0  0  0  0  0  0  0  0  0  0  0  0
    6.9226    3.5832   24.2291 C   0  0  0  0  0  0  0  0  0  0  0  0
    7.9880    2.6923   24.4398 C   0  0  0  0  0  0  0  0  0  0  0  0
    8.1484    1.5499   23.7427 O   0  0  0  0  0  0  0  0  0  0  0  0
    7.1940    1.1584   22.7772 C   0  0  0  0  0  0  0  0  0  0  0  0
    7.5970   -0.1706   22.2408 C   0  0  0  0  0  0  0  0  0  0  0  0
    8.2112   -1.1182   22.9115 N   0  0  0  0  0  0  0  0  0  0  0  0
    8.2416   -2.1444   22.0341 C   0  0  0  0  0  0  0  0  0  0  0  0
    8.8557   -3.4393   22.3977 C   0  0  0  0  0  0  0  0  0  0  0  0
    8.3495   -4.2998   23.5328 C   0  0  0  0  0  0  0  0  0  0  0  0
    8.1331   -4.7339   22.1155 C   0  0  0  0  0  0  0  0  0  0  0  0
    8.6829   -5.5800   21.7192 H   0  0  0  0  0  0  0  0  0  0  0  0
    7.1097   -4.6573   21.7526 H   0  0  0  0  0  0  0  0  0  0  0  0
    7.4922   -3.9606   24.1084 H   0  0  0  0  0  0  0  0  0  0  0  0
    9.0970   -4.8310   24.1134 H   0  0  0  0  0  0  0  0  0  0  0  0
    9.9404   -3.3743   22.3148 H   0  0  0  0  0  0  0  0  0  0  0  0
    7.7330   -1.8795   20.8430 N   0  0  0  0  0  0  0  0  0  0  0  0
    7.2793   -0.6102   20.9885 N   0  0  0  0  0  0  0  0  0  0  0  0
    6.6033    0.0530   19.9277 C   0  0  0  0  0  0  0  0  0  0  0  0
    5.3990    0.7437   20.1274 C   0  0  0  0  0  0  0  0  0  0  0  0
    4.8152    1.3693   19.0218 C   0  0  0  0  0  0  0  0  0  0  0  0
    5.4649    1.3069   17.7861 C   0  0  0  0  0  0  0  0  0  0  0  0
    6.6114    0.6300   17.5884 N   0  0  0  0  0  0  0  0  0  0  0  0
    7.1513    0.0000   18.6353 C   0  0  0  0  0  0  0  0  0  0  0  0
    8.0561   -0.5818   18.4575 H   0  0  0  0  0  0  0  0  0  0  0  0
    5.0470    1.8012   16.9139 H   0  0  0  0  0  0  0  0  0  0  0  0
    3.8744    1.9042   19.1078 H   0  0  0  0  0  0  0  0  0  0  0  0
    4.9158    0.7824   21.1050 H   0  0  0  0  0  0  0  0  0  0  0  0
    7.1418    1.9004   21.9689 H   0  0  0  0  0  0  0  0  0  0  0  0
    6.2042    1.0538   23.2476 H   0  0  0  0  0  0  0  0  0  0  0  0
    8.9562    2.9887   25.4308 C   0  0  0  0  0  0  0  0  0  0  0  0
   10.2347    1.8535   25.7587 Cl  0  0  0  0  0  0  0  0  0  0  0  0
    8.8753    4.1766   26.1588 C   0  0  0  0  0  0  0  0  0  0  0  0
    9.6262    4.4394   26.8978 H   0  0  0  0  0  0  0  0  0  0  0  0
    6.1701    3.3470   23.4828 H   0  0  0  0  0  0  0  0  0  0  0  0
    5.9945    5.4394   24.8142 H   0  0  0  0  0  0  0  0  0  0  0  0
  1  2  1  0
  2  3  2  0
  3  4  1  0
  4  5  2  0
  5  6  1  0
  6  7  1  0
  7  8  1  0
  8  9  2  0
  9 10  1  0
 10 11  1  0
 11 12  1  0
 12 13  1  0
 13 14  1  0
 13 15  1  0
 12 16  1  0
 12 17  1  0
 11 18  1  0
 10 19  2  0
 19 20  1  0
 20 21  1  0
 21 22  2  0
 22 23  1  0
 23 24  2  0
 24 25  1  0
 25 26  2  0
 26 27  1  0
 24 28  1  0
 23 29  1  0
 22 30  1  0
  7 31  1  0
  7 32  1  0
  5 33  1  0
 33 34  1  0
 33 35  2  0
 35 36  1  0
  4 37  1  0
  3 38  1  0
 35  2  1  0
 20  8  1  0
 26 21  1  0
 13 11  1  0
M  END
>  <cnnaffinity>  (1) 
-5.54654

>  <filename>  (1) 
Fc1ccc(OCc2nc(C3CC3)nn2-c2cccnc2)c(Cl)c1

$$$$
