
     RDKit          3D

 44 47  0  0  0  0  0  0  0  0999 V2000
    6.4816   -3.0060   26.3398 F   0  0  0  0  0  0  0  0  0  0  0  0
    6.8718   -1.7166   26.2322 C   0  0  0  0  0  0  0  0  0  0  0  0
    7.8276   -1.2265   27.1149 C   0  0  0  0  0  0  0  0  0  0  0  0
    8.2502    0.0993   26.9728 C   0  0  0  0  0  0  0  0  0  0  0  0
    7.7320    0.8745   25.9397 C   0  0  0  0  0  0  0  0  0  0  0  0
    8.1815    2.1430   25.8053 F   0  0  0  0  0  0  0  0  0  0  0  0
    6.7680    0.3955   25.0382 C   0  0  0  0  0  0  0  0  0  0  0  0
    6.3388    1.2516   23.8599 C   0  0  0  0  0  0  0  0  0  0  0  0
    7.4059    1.3298   22.7295 C   0  0  0  0  0  0  0  0  0  0  0  0
    7.7085   -0.0092   22.1373 C   0  0  0  0  0  0  0  0  0  0  0  0
    8.3525   -0.9125   22.8403 N   0  0  0  0  0  0  0  0  0  0  0  0
    8.3367   -2.0088   22.0533 C   0  0  0  0  0  0  0  0  0  0  0  0
    8.8839   -3.2859   22.5863 C   0  0  0  0  0  0  0  0  0  0  0  0
    8.0426   -4.0275   23.6579 C   0  0  0  0  0  0  0  0  0  0  0  0
    9.1155   -4.8272   24.4183 C   0  0  0  0  0  0  0  0  0  0  0  0
   10.3333   -4.1187   24.2551 O   0  0  0  0  0  0  0  0  0  0  0  0
   10.2154   -3.0639   23.3175 C   0  0  0  0  0  0  0  0  0  0  0  0
   10.2251   -2.0977   23.8499 H   0  0  0  0  0  0  0  0  0  0  0  0
   11.0820   -3.0795   22.6454 H   0  0  0  0  0  0  0  0  0  0  0  0
    9.2430   -5.8562   24.0356 H   0  0  0  0  0  0  0  0  0  0  0  0
    8.8823   -4.9096   25.4894 H   0  0  0  0  0  0  0  0  0  0  0  0
    7.5310   -3.3224   24.3286 H   0  0  0  0  0  0  0  0  0  0  0  0
    7.2918   -4.6941   23.2161 H   0  0  0  0  0  0  0  0  0  0  0  0
    8.9954   -3.9533   21.7360 H   0  0  0  0  0  0  0  0  0  0  0  0
    7.7913   -1.8384   20.8675 N   0  0  0  0  0  0  0  0  0  0  0  0
    7.3587   -0.5436   20.9260 N   0  0  0  0  0  0  0  0  0  0  0  0
    6.6224    0.0326   19.8529 C   0  0  0  0  0  0  0  0  0  0  0  0
    5.4100    0.6983   20.0864 C   0  0  0  0  0  0  0  0  0  0  0  0
    4.7976    1.3425   19.0077 C   0  0  0  0  0  0  0  0  0  0  0  0
    5.4108    1.2990   17.7531 C   0  0  0  0  0  0  0  0  0  0  0  0
    6.5440    0.6129   17.5121 N   0  0  0  0  0  0  0  0  0  0  0  0
    7.1180   -0.0226   18.5377 C   0  0  0  0  0  0  0  0  0  0  0  0
    8.0201   -0.5906   18.3169 H   0  0  0  0  0  0  0  0  0  0  0  0
    4.9781    1.8211   16.9030 H   0  0  0  0  0  0  0  0  0  0  0  0
    3.8639    1.8826   19.1316 H   0  0  0  0  0  0  0  0  0  0  0  0
    4.9550    0.7052   21.0777 H   0  0  0  0  0  0  0  0  0  0  0  0
    7.1148    2.0425   21.9537 H   0  0  0  0  0  0  0  0  0  0  0  0
    8.3458    1.6943   23.1617 H   0  0  0  0  0  0  0  0  0  0  0  0
    5.3936    0.8741   23.4434 H   0  0  0  0  0  0  0  0  0  0  0  0
    6.1348    2.2678   24.2134 H   0  0  0  0  0  0  0  0  0  0  0  0
    6.3288   -0.9298   25.2188 C   0  0  0  0  0  0  0  0  0  0  0  0
    5.6124   -1.3803   24.5405 H   0  0  0  0  0  0  0  0  0  0  0  0
    8.9696    0.5357   27.6526 H   0  0  0  0  0  0  0  0  0  0  0  0
    8.2423   -1.8718   27.8783 H   0  0  0  0  0  0  0  0  0  0  0  0
  1  2  1  0
  2  3  2  0
  3  4  1  0
  4  5  2  0
  5  6  1  0
  5  7  1  0
  7  8  1  0
  8  9  1  0
  9 10  1  0
 10 11  2  0
 11 12  1  0
 12 13  1  0
 13 14  1  0
 14 15  1  0
 15 16  1  0
 16 17  1  0
 17 18  1  0
 17 19  1  0
 15 20  1  0
 15 21  1  0
 14 22  1  0
 14 23  1  0
 13 24  1  0
 12 25  2  0
 25 26  1  0
 26 27  1  0
 27 28  2  0
 28 29  1  0
 29 30  2  0
 30 31  1  0
 31 32  2  0
 32 33  1  0
 30 34  1  0
 29 35  1  0
 28 36  1  0
  9 37  1  0
  9 38  1  0
  8 39  1  0
  8 40  1  0
  7 41  2  0
 41 42  1  0
  4 43  1  0
  3 44  1  0
 41  2  1  0
 26 10  1  0
 32 27  1  0
 17 13  1  0
M  END
>  <cnnaffinity>  (1) 
-6.12044

>  <filename>  (1) 
Fc1ccc(F)c(CCc2nc(C3CCOC3)nn2-c2cccnc2)c1

$$$$
