
     RDKit          3D

 41 45  0  0  0  0  0  0  0  0999 V2000
   10.5605    3.4564   24.1870 F   0  0  0  0  0  0  0  0  0  0  0  0
   10.9693    2.3936   23.4756 C   0  0  0  0  0  0  0  0  0  0  0  0
   12.2005    1.8162   23.7737 C   0  0  0  0  0  0  0  0  0  0  0  0
   12.6337    0.7171   23.0328 C   0  0  0  0  0  0  0  0  0  0  0  0
   11.8092    0.2047   22.0373 C   0  0  0  0  0  0  0  0  0  0  0  0
   12.2359   -0.8781   21.3604 F   0  0  0  0  0  0  0  0  0  0  0  0
   10.5576    0.7655   21.7368 C   0  0  0  0  0  0  0  0  0  0  0  0
    9.6644    0.1294   20.6918 C   0  0  0  0  0  0  0  0  0  0  0  0
    8.5791   -0.6680   21.2513 N   0  0  0  0  0  0  0  0  0  0  0  0
    8.8574   -1.5450   22.2378 N   0  0  0  0  0  0  0  0  0  0  0  0
    7.6832   -2.0393   22.5663 C   0  0  0  0  0  0  0  0  0  0  0  0
    7.5980   -2.9190   23.7576 C   0  0  0  0  0  0  0  0  0  0  0  0
    6.6591   -2.4546   24.8819 C   0  0  0  0  0  0  0  0  0  0  0  0
    6.3457   -3.6683   24.0641 C   0  0  0  0  0  0  0  0  0  0  0  0
    5.3826   -4.3317   23.1531 C   0  0  0  0  0  0  0  0  0  0  0  0
    5.9138   -5.0438   24.4000 C   0  0  0  0  0  0  0  0  0  0  0  0
    6.6146   -5.8742   24.3232 H   0  0  0  0  0  0  0  0  0  0  0  0
    5.1981   -5.0863   25.2227 H   0  0  0  0  0  0  0  0  0  0  0  0
    4.3413   -4.0167   23.1482 H   0  0  0  0  0  0  0  0  0  0  0  0
    5.8198   -4.5866   22.1868 H   0  0  0  0  0  0  0  0  0  0  0  0
    6.0930   -1.5439   24.6938 H   0  0  0  0  0  0  0  0  0  0  0  0
    6.9860   -2.6244   25.9103 H   0  0  0  0  0  0  0  0  0  0  0  0
    8.5534   -3.3811   24.0080 H   0  0  0  0  0  0  0  0  0  0  0  0
    6.6572   -1.5693   21.8058 N   0  0  0  0  0  0  0  0  0  0  0  0
    7.2479   -0.7294   20.9749 C   0  0  0  0  0  0  0  0  0  0  0  0
    6.5905    0.0149   19.8957 C   0  0  0  0  0  0  0  0  0  0  0  0
    5.3743    0.6722   20.1217 C   0  0  0  0  0  0  0  0  0  0  0  0
    4.7804    1.3428   19.0551 C   0  0  0  0  0  0  0  0  0  0  0  0
    5.4058    1.3169   17.8036 C   0  0  0  0  0  0  0  0  0  0  0  0
    6.5570    0.6678   17.5659 N   0  0  0  0  0  0  0  0  0  0  0  0
    7.1286    0.0425   18.5995 C   0  0  0  0  0  0  0  0  0  0  0  0
    8.0677   -0.4715   18.3777 H   0  0  0  0  0  0  0  0  0  0  0  0
    4.9599    1.8327   16.9550 H   0  0  0  0  0  0  0  0  0  0  0  0
    3.8515    1.8860   19.1789 H   0  0  0  0  0  0  0  0  0  0  0  0
    4.9214    0.6612   21.1160 H   0  0  0  0  0  0  0  0  0  0  0  0
   10.2608   -0.5478   20.0820 H   0  0  0  0  0  0  0  0  0  0  0  0
    9.2312    0.9058   20.0633 H   0  0  0  0  0  0  0  0  0  0  0  0
   10.1484    1.8900   22.4673 C   0  0  0  0  0  0  0  0  0  0  0  0
    9.1930    2.3772   22.2852 H   0  0  0  0  0  0  0  0  0  0  0  0
   13.5933    0.2417   23.2134 H   0  0  0  0  0  0  0  0  0  0  0  0
   12.7894    2.2097   24.5874 H   0  0  0  0  0  0  0  0  0  0  0  0
  1  2  1  0
  2  3  2  0
  3  4  1  0
  4  5  2  0
  5  6  1  0
  5  7  1  0
  7  8  1  0
  8  9  1  0
  9 10  1  0
 10 11  2  0
 11 12  1  0
 12 13  1  0
 13 14  1  0
 14 15  1  0
 15 16  1  0
 16 17  1  0
 16 18  1  0
 15 19  1  0
 15 20  1  0
 13 21  1  0
 13 22  1  0
 12 23  1  0
 11 24  1  0
 24 25  2  0
 25 26  1  0
 26 27  2  0
 27 28  1  0
 28 29  2  0
 29 30  1  0
 30 31  2  0
 31 32  1  0
 29 33  1  0
 28 34  1  0
 27 35  1  0
  8 36  1  0
  8 37  1  0
  7 38  2  0
 38 39  1  0
  4 40  1  0
  3 41  1  0
 38  2  1  0
 25  9  1  0
 31 26  1  0
 14 12  1  0
 16 14  1  0
M  END
>  <cnnaffinity>  (1) 
-6.5883

>  <filename>  (1) 
Fc1ccc(F)c(Cn2nc(C3CC34CC4)nc2-c2cccnc2)c1

$$$$
