
     RDKit          3D

 42 45  0  0  0  0  0  0  0  0999 V2000
    3.6001    3.9762   26.8924 F   0  0  0  0  0  0  0  0  0  0  0  0
    4.5737    3.2978   26.2656 C   0  0  0  0  0  0  0  0  0  0  0  0
    4.2377    2.1827   25.5042 C   0  0  0  0  0  0  0  0  0  0  0  0
    5.2624    1.4875   24.8557 C   0  0  0  0  0  0  0  0  0  0  0  0
    6.6021    1.8963   24.9541 C   0  0  0  0  0  0  0  0  0  0  0  0
    7.6778    1.2266   24.1515 C   0  0  0  0  0  0  0  0  0  0  0  0
    7.8227    1.8396   22.7328 C   0  0  0  0  0  0  0  0  0  0  0  0
    8.7744    1.0099   21.9457 C   0  0  0  0  0  0  0  0  0  0  0  0
   10.0825    1.1123   22.0609 N   0  0  0  0  0  0  0  0  0  0  0  0
   10.5475   -0.0780   21.5632 C   0  0  0  0  0  0  0  0  0  0  0  0
   11.9825   -0.4525   21.6894 C   0  0  0  0  0  0  0  0  0  0  0  0
   12.8552    0.2880   22.4426 C   0  0  0  0  0  0  0  0  0  0  0  0
   14.4130   -0.3940   22.3993 S   0  0  0  0  0  0  0  0  0  0  0  0
   13.8068   -1.6476   21.3827 C   0  0  0  0  0  0  0  0  0  0  0  0
   12.5528   -1.5622   21.0762 N   0  0  0  0  0  0  0  0  0  0  0  0
   14.4382   -2.4690   21.0575 H   0  0  0  0  0  0  0  0  0  0  0  0
   12.6233    1.1955   22.9906 H   0  0  0  0  0  0  0  0  0  0  0  0
    9.5857   -0.8656   21.1147 N   0  0  0  0  0  0  0  0  0  0  0  0
    8.4593   -0.1700   21.3595 N   0  0  0  0  0  0  0  0  0  0  0  0
    7.1741   -0.7478   20.9866 C   0  0  0  0  0  0  0  0  0  0  0  0
    6.4721    0.0013   19.8770 C   0  0  0  0  0  0  0  0  0  0  0  0
    5.2638    0.6750   20.0693 C   0  0  0  0  0  0  0  0  0  0  0  0
    4.6953    1.3628   18.9942 C   0  0  0  0  0  0  0  0  0  0  0  0
    5.3546    1.3440   17.7621 C   0  0  0  0  0  0  0  0  0  0  0  0
    6.5091    0.6919   17.5530 N   0  0  0  0  0  0  0  0  0  0  0  0
    7.0507    0.0531   18.5972 C   0  0  0  0  0  0  0  0  0  0  0  0
    8.0001   -0.4488   18.4094 H   0  0  0  0  0  0  0  0  0  0  0  0
    4.9473    1.8834   16.9081 H   0  0  0  0  0  0  0  0  0  0  0  0
    3.7798    1.9312   19.1046 H   0  0  0  0  0  0  0  0  0  0  0  0
    4.7825    0.6702   21.0502 H   0  0  0  0  0  0  0  0  0  0  0  0
    7.4076   -1.7720   20.6801 H   0  0  0  0  0  0  0  0  0  0  0  0
    6.5411   -0.8074   21.8812 H   0  0  0  0  0  0  0  0  0  0  0  0
    8.2288    2.8514   22.8145 H   0  0  0  0  0  0  0  0  0  0  0  0
    6.8572    1.9070   22.2195 H   0  0  0  0  0  0  0  0  0  0  0  0
    7.4526    0.1547   24.0502 H   0  0  0  0  0  0  0  0  0  0  0  0
    8.6465    1.2864   24.6646 H   0  0  0  0  0  0  0  0  0  0  0  0
    6.8742    3.0262   25.7353 C   0  0  0  0  0  0  0  0  0  0  0  0
    8.1464    3.4591   25.8404 F   0  0  0  0  0  0  0  0  0  0  0  0
    5.8862    3.7435   26.4018 C   0  0  0  0  0  0  0  0  0  0  0  0
    6.1332    4.6172   26.9911 H   0  0  0  0  0  0  0  0  0  0  0  0
    5.0248    0.6122   24.2493 H   0  0  0  0  0  0  0  0  0  0  0  0
    3.1982    1.8860   25.4264 H   0  0  0  0  0  0  0  0  0  0  0  0
  1  2  1  0
  2  3  2  0
  3  4  1  0
  4  5  2  0
  5  6  1  0
  6  7  1  0
  7  8  1  0
  8  9  2  0
  9 10  1  0
 10 11  1  0
 11 12  2  0
 12 13  1  0
 13 14  1  0
 14 15  2  0
 14 16  1  0
 12 17  1  0
 10 18  2  0
 18 19  1  0
 19 20  1  0
 20 21  1  0
 21 22  2  0
 22 23  1  0
 23 24  2  0
 24 25  1  0
 25 26  2  0
 26 27  1  0
 24 28  1  0
 23 29  1  0
 22 30  1  0
 20 31  1  0
 20 32  1  0
  7 33  1  0
  7 34  1  0
  6 35  1  0
  6 36  1  0
  5 37  1  0
 37 38  1  0
 37 39  2  0
 39 40  1  0
  4 41  1  0
  3 42  1  0
 39  2  1  0
 19  8  1  0
 26 21  1  0
 15 11  1  0
M  END
>  <cnnaffinity>  (1) 
-6.70891

>  <filename>  (1) 
Fc1ccc(CCc2nc(-c3cscn3)nn2Cc2cccnc2)c(F)c1

$$$$
