
     RDKit          3D

 29 31  0  0  0  0  0  0  0  0999 V2000
    4.9117    1.7922   16.9854 H   0  0  0  0  0  0  0  0  0  0  0  0
    5.3908    1.3022   17.8265 C   0  0  0  0  0  0  0  0  0  0  0  0
    6.5566    0.6896   17.5586 N   0  0  0  0  0  0  0  0  0  0  0  0
    7.1615    0.0630   18.5719 C   0  0  0  0  0  0  0  0  0  0  0  0
    8.1191   -0.4062   18.3422 H   0  0  0  0  0  0  0  0  0  0  0  0
    6.6501    0.0100   19.8832 C   0  0  0  0  0  0  0  0  0  0  0  0
    7.3645   -0.6606   20.9688 C   0  0  0  0  0  0  0  0  0  0  0  0
    7.5075   -0.3185   22.3076 C   0  0  0  0  0  0  0  0  0  0  0  0
    7.0399    0.8524   22.9207 N   0  0  0  0  0  0  0  0  0  0  0  0
    6.9894    1.6695   22.3257 H   0  0  0  0  0  0  0  0  0  0  0  0
    6.8186    1.0442   24.2843 C   0  0  0  0  0  0  0  0  0  0  0  0
    6.3619    0.0062   25.1365 C   0  0  0  0  0  0  0  0  0  0  0  0
    6.1752   -0.9754   24.7129 H   0  0  0  0  0  0  0  0  0  0  0  0
    6.1386    0.1539   26.4496 N   0  0  0  0  0  0  0  0  0  0  0  0
    6.3563    1.3591   26.9882 C   0  0  0  0  0  0  0  0  0  0  0  0
    6.1692    1.4771   28.0533 H   0  0  0  0  0  0  0  0  0  0  0  0
    6.7959    2.4426   26.2170 C   0  0  0  0  0  0  0  0  0  0  0  0
    6.9847    3.6311   26.8059 F   0  0  0  0  0  0  0  0  0  0  0  0
    7.0287    2.3143   24.8507 C   0  0  0  0  0  0  0  0  0  0  0  0
    7.3789    3.1649   24.2682 H   0  0  0  0  0  0  0  0  0  0  0  0
    8.2809   -1.3711   22.8583 C   0  0  0  0  0  0  0  0  0  0  0  0
    8.6175   -1.4519   23.8805 H   0  0  0  0  0  0  0  0  0  0  0  0
    8.6014   -2.2860   21.9500 N   0  0  0  0  0  0  0  0  0  0  0  0
    8.0475   -1.8252   20.8190 N   0  0  0  0  0  0  0  0  0  0  0  0
    8.1358   -2.3598   19.9684 H   0  0  0  0  0  0  0  0  0  0  0  0
    5.4333    0.6610   20.1439 C   0  0  0  0  0  0  0  0  0  0  0  0
    5.0158    0.6261   21.1544 H   0  0  0  0  0  0  0  0  0  0  0  0
    4.7961    1.3181   19.0927 C   0  0  0  0  0  0  0  0  0  0  0  0
    3.8662    1.8482   19.2496 H   0  0  0  0  0  0  0  0  0  0  0  0
  1  2  1  0
  2  3  2  0
  3  4  1  0
  4  5  1  0
  4  6  2  0
  6  7  1  0
  7  8  2  0
  8  9  1  0
  9 10  1  0
  9 11  1  0
 11 12  2  0
 12 13  1  0
 12 14  1  0
 14 15  2  0
 15 16  1  0
 15 17  1  0
 17 18  1  0
 17 19  2  0
 19 20  1  0
  8 21  1  0
 21 22  1  0
 21 23  2  0
 23 24  1  0
 24 25  1  0
  6 26  1  0
 26 27  1  0
 26 28  2  0
 28 29  1  0
 28  2  1  0
 24  7  1  0
 19 11  1  0
M  END
>  <cnnaffinity>  (1) 
-5.50413

>  <filename>  (1) 
Fc1cncc(Nc2cn[nH]c2-c2cccnc2)c1

$$$$
