
     RDKit          3D

 40 43  0  0  0  0  0  0  0  0999 V2000
    5.1552    1.0331   23.8459 F   0  0  0  0  0  0  0  0  0  0  0  0
    6.2366    1.1782   24.6403 C   0  0  0  0  0  0  0  0  0  0  0  0
    6.0707    1.1799   26.0185 C   0  0  0  0  0  0  0  0  0  0  0  0
    7.2263    1.3577   26.7890 C   0  0  0  0  0  0  0  0  0  0  0  0
    8.4584    1.5137   26.1490 C   0  0  0  0  0  0  0  0  0  0  0  0
    8.6015    1.5104   24.8183 N   0  0  0  0  0  0  0  0  0  0  0  0
    7.5110    1.3427   24.0669 C   0  0  0  0  0  0  0  0  0  0  0  0
    7.7360    1.2865   22.5886 C   0  0  0  0  0  0  0  0  0  0  0  0
    7.7567   -0.1367   22.1518 C   0  0  0  0  0  0  0  0  0  0  0  0
    8.2831   -1.1134   22.8650 N   0  0  0  0  0  0  0  0  0  0  0  0
    8.2919   -2.1562   22.0055 C   0  0  0  0  0  0  0  0  0  0  0  0
    8.7451   -3.5572   22.3519 C   0  0  0  0  0  0  0  0  0  0  0  0
    7.7846   -4.3923   23.2485 C   0  0  0  0  0  0  0  0  0  0  0  0
    8.7526   -5.2751   24.0489 C   0  0  0  0  0  0  0  0  0  0  0  0
    9.9495   -4.3403   24.2022 C   0  0  0  0  0  0  0  0  0  0  0  0
   10.0099   -3.5855   23.0012 O   0  0  0  0  0  0  0  0  0  0  0  0
   10.9055   -4.8598   24.3165 H   0  0  0  0  0  0  0  0  0  0  0  0
    9.8189   -3.6445   25.0433 H   0  0  0  0  0  0  0  0  0  0  0  0
    9.0323   -6.1799   23.4934 H   0  0  0  0  0  0  0  0  0  0  0  0
    8.3616   -5.6000   25.0193 H   0  0  0  0  0  0  0  0  0  0  0  0
    7.2400   -3.7148   23.9180 H   0  0  0  0  0  0  0  0  0  0  0  0
    7.0543   -4.9655   22.6657 H   0  0  0  0  0  0  0  0  0  0  0  0
    8.8303   -4.0217   21.3687 H   0  0  0  0  0  0  0  0  0  0  0  0
    7.7854   -1.8948   20.8113 N   0  0  0  0  0  0  0  0  0  0  0  0
    7.4013   -0.5975   20.9155 N   0  0  0  0  0  0  0  0  0  0  0  0
    6.6465    0.0334   19.8868 C   0  0  0  0  0  0  0  0  0  0  0  0
    5.4237    0.6745   20.1335 C   0  0  0  0  0  0  0  0  0  0  0  0
    4.7929    1.3164   19.0618 C   0  0  0  0  0  0  0  0  0  0  0  0
    5.4002    1.2963   17.8029 C   0  0  0  0  0  0  0  0  0  0  0  0
    6.5454    0.6345   17.5540 N   0  0  0  0  0  0  0  0  0  0  0  0
    7.1396    0.0063   18.5716 C   0  0  0  0  0  0  0  0  0  0  0  0
    8.0625   -0.5282   18.3543 H   0  0  0  0  0  0  0  0  0  0  0  0
    4.9597    1.8322   16.9651 H   0  0  0  0  0  0  0  0  0  0  0  0
    3.8609    1.8507   19.2004 H   0  0  0  0  0  0  0  0  0  0  0  0
    4.9713    0.6623   21.1277 H   0  0  0  0  0  0  0  0  0  0  0  0
    8.7192    1.7243   22.4001 H   0  0  0  0  0  0  0  0  0  0  0  0
    6.9957    1.8702   22.0411 H   0  0  0  0  0  0  0  0  0  0  0  0
    9.3726    1.6596   26.7085 H   0  0  0  0  0  0  0  0  0  0  0  0
    7.1872    1.3883   27.8698 H   0  0  0  0  0  0  0  0  0  0  0  0
    5.0767    1.0524   26.4436 H   0  0  0  0  0  0  0  0  0  0  0  0
  1  2  1  0
  2  3  2  0
  3  4  1  0
  4  5  2  0
  5  6  1  0
  6  7  2  0
  7  8  1  0
  8  9  1  0
  9 10  2  0
 10 11  1  0
 11 12  1  0
 12 13  1  0
 13 14  1  0
 14 15  1  0
 15 16  1  0
 15 17  1  0
 15 18  1  0
 14 19  1  0
 14 20  1  0
 13 21  1  0
 13 22  1  0
 12 23  1  0
 11 24  2  0
 24 25  1  0
 25 26  1  0
 26 27  2  0
 27 28  1  0
 28 29  2  0
 29 30  1  0
 30 31  2  0
 31 32  1  0
 29 33  1  0
 28 34  1  0
 27 35  1  0
  8 36  1  0
  8 37  1  0
  5 38  1  0
  4 39  1  0
  3 40  1  0
  7  2  1  0
 25  9  1  0
 31 26  1  0
 16 12  1  0
M  END
>  <cnnaffinity>  (1) 
-6.0776

>  <filename>  (1) 
Fc1cccnc1Cc1nc(C2CCCO2)nn1-c1cccnc1

$$$$
