
     RDKit          3D

 45 48  0  0  0  0  0  0  0  0999 V2000
    5.4230    5.1096   27.7357 F   0  0  0  0  0  0  0  0  0  0  0  0
    5.0072    4.1284   26.9191 C   0  0  0  0  0  0  0  0  0  0  0  0
    3.6516    3.8152   26.8867 C   0  0  0  0  0  0  0  0  0  0  0  0
    3.2623    2.7876   26.0309 C   0  0  0  0  0  0  0  0  0  0  0  0
    1.9634    2.4574   25.9730 F   0  0  0  0  0  0  0  0  0  0  0  0
    4.1705    2.0673   25.2637 C   0  0  0  0  0  0  0  0  0  0  0  0
    5.5354    2.3698   25.3545 C   0  0  0  0  0  0  0  0  0  0  0  0
    6.5424    1.4786   24.6644 C   0  0  0  0  0  0  0  0  0  0  0  0
    6.5954    1.5291   23.1171 C   0  0  0  0  0  0  0  0  0  0  0  0
    7.6425    0.5868   22.5976 C   0  0  0  0  0  0  0  0  0  0  0  0
    8.9171    0.6857   22.9301 N   0  0  0  0  0  0  0  0  0  0  0  0
    9.5014   -0.3469   22.2706 C   0  0  0  0  0  0  0  0  0  0  0  0
   10.9482   -0.5513   22.3073 C   0  0  0  0  0  0  0  0  0  0  0  0
   11.6466   -1.4799   21.5139 C   0  0  0  0  0  0  0  0  0  0  0  0
   13.0294   -1.4839   21.6138 C   0  0  0  0  0  0  0  0  0  0  0  0
   13.7566   -2.3146   20.8588 F   0  0  0  0  0  0  0  0  0  0  0  0
   13.6765   -0.5957   22.4807 C   0  0  0  0  0  0  0  0  0  0  0  0
   13.0055    0.2704   23.2489 N   0  0  0  0  0  0  0  0  0  0  0  0
   11.6735    0.2977   23.1504 C   0  0  0  0  0  0  0  0  0  0  0  0
   11.1332    1.0171   23.7563 H   0  0  0  0  0  0  0  0  0  0  0  0
   14.7603   -0.5955   22.5339 H   0  0  0  0  0  0  0  0  0  0  0  0
   11.1501   -2.1665   20.8384 H   0  0  0  0  0  0  0  0  0  0  0  0
    8.6673   -1.0804   21.5673 N   0  0  0  0  0  0  0  0  0  0  0  0
    7.4685   -0.4873   21.7906 N   0  0  0  0  0  0  0  0  0  0  0  0
    6.3071   -0.9232   21.0220 C   0  0  0  0  0  0  0  0  0  0  0  0
    6.0018   -0.0533   19.8203 C   0  0  0  0  0  0  0  0  0  0  0  0
    4.8299    0.6967   19.6858 C   0  0  0  0  0  0  0  0  0  0  0  0
    4.6767    1.5059   18.5552 C   0  0  0  0  0  0  0  0  0  0  0  0
    5.6996    1.5293   17.6044 C   0  0  0  0  0  0  0  0  0  0  0  0
    6.8212    0.7994   17.7036 N   0  0  0  0  0  0  0  0  0  0  0  0
    6.9560    0.0384   18.7952 C   0  0  0  0  0  0  0  0  0  0  0  0
    7.8778   -0.5370   18.8828 H   0  0  0  0  0  0  0  0  0  0  0  0
    5.6258    2.1686   16.7254 H   0  0  0  0  0  0  0  0  0  0  0  0
    3.7964    2.1231   18.4105 H   0  0  0  0  0  0  0  0  0  0  0  0
    4.0593    0.6562   20.4585 H   0  0  0  0  0  0  0  0  0  0  0  0
    5.4404   -0.9829   21.6759 H   0  0  0  0  0  0  0  0  0  0  0  0
    6.5505   -1.9438   20.7157 H   0  0  0  0  0  0  0  0  0  0  0  0
    6.8779    2.5314   22.7743 H   0  0  0  0  0  0  0  0  0  0  0  0
    5.6179    1.3253   22.6643 H   0  0  0  0  0  0  0  0  0  0  0  0
    7.5394    1.7085   25.0535 H   0  0  0  0  0  0  0  0  0  0  0  0
    6.3470    0.4407   24.9686 H   0  0  0  0  0  0  0  0  0  0  0  0
    5.9514    3.4380   26.1668 C   0  0  0  0  0  0  0  0  0  0  0  0
    6.9940    3.7301   26.2450 H   0  0  0  0  0  0  0  0  0  0  0  0
    3.8189    1.2554   24.6353 H   0  0  0  0  0  0  0  0  0  0  0  0
    2.9361    4.3348   27.5090 H   0  0  0  0  0  0  0  0  0  0  0  0
  1  2  1  0
  2  3  2  0
  3  4  1  0
  4  5  1  0
  4  6  2  0
  6  7  1  0
  7  8  1  0
  8  9  1  0
  9 10  1  0
 10 11  2  0
 11 12  1  0
 12 13  1  0
 13 14  2  0
 14 15  1  0
 15 16  1  0
 15 17  2  0
 17 18  1  0
 18 19  2  0
 19 20  1  0
 17 21  1  0
 14 22  1  0
 12 23  2  0
 23 24  1  0
 24 25  1  0
 25 26  1  0
 26 27  2  0
 27 28  1  0
 28 29  2  0
 29 30  1  0
 30 31  2  0
 31 32  1  0
 29 33  1  0
 28 34  1  0
 27 35  1  0
 25 36  1  0
 25 37  1  0
  9 38  1  0
  9 39  1  0
  8 40  1  0
  8 41  1  0
  7 42  2  0
 42 43  1  0
  6 44  1  0
  3 45  1  0
 42  2  1  0
 24 10  1  0
 31 26  1  0
 19 13  1  0
M  END
>  <cnnaffinity>  (1) 
-6.80489

>  <filename>  (1) 
Fc1cc(F)cc(CCc2nc(-c3cncc(F)c3)nn2Cc2cccnc2)c1

$$$$
