
     RDKit          3D

 45 48  0  0  0  0  0  0  0  0999 V2000
   13.5589    2.3653   23.4793 F   0  0  0  0  0  0  0  0  0  0  0  0
   13.2854    2.6029   23.5000 C   0  0  0  0  0  0  0  0  0  0  0  0
   12.2775    3.7044   23.7529 C   0  0  0  0  0  0  0  0  0  0  0  0
   11.0997    3.5950   23.0436 C   0  0  0  0  0  0  0  0  0  0  0  0
   10.8478    2.5200   22.1245 C   0  0  0  0  0  0  0  0  0  0  0  0
    9.3052    2.5220   21.2430 S   0  0  0  0  0  0  0  0  0  0  0  0
    8.5976    0.9393   21.7416 C   0  0  0  0  0  0  0  0  0  0  0  0
    9.1098   -0.3088   20.9842 C   0  0  0  0  0  0  0  0  0  0  0  0
    8.2540   -1.4936   21.3118 C   0  0  0  0  0  0  0  0  0  0  0  0
    8.4427   -2.3305   22.3119 N   0  0  0  0  0  0  0  0  0  0  0  0
    7.2570   -2.9910   22.3883 C   0  0  0  0  0  0  0  0  0  0  0  0
    6.9626   -3.8701   23.5543 C   0  0  0  0  0  0  0  0  0  0  0  0
    6.3352   -5.2593   23.3263 C   0  0  0  0  0  0  0  0  0  0  0  0
    5.7892   -5.5702   24.7298 C   0  0  0  0  0  0  0  0  0  0  0  0
    5.5611   -4.3194   25.3672 O   0  0  0  0  0  0  0  0  0  0  0  0
    5.9209   -3.2556   24.5108 C   0  0  0  0  0  0  0  0  0  0  0  0
    6.3001   -2.4362   25.1328 H   0  0  0  0  0  0  0  0  0  0  0  0
    5.0460   -2.8961   23.9384 H   0  0  0  0  0  0  0  0  0  0  0  0
    4.8525   -6.1385   24.7153 H   0  0  0  0  0  0  0  0  0  0  0  0
    6.5147   -6.1392   25.3278 H   0  0  0  0  0  0  0  0  0  0  0  0
    5.5175   -5.1798   22.5966 H   0  0  0  0  0  0  0  0  0  0  0  0
    7.0425   -6.0203   22.9777 H   0  0  0  0  0  0  0  0  0  0  0  0
    7.9081   -3.9683   24.0968 H   0  0  0  0  0  0  0  0  0  0  0  0
    6.3571   -2.6363   21.4886 N   0  0  0  0  0  0  0  0  0  0  0  0
    7.0146   -1.6843   20.7731 N   0  0  0  0  0  0  0  0  0  0  0  0
    6.3566   -0.8521   19.8230 C   0  0  0  0  0  0  0  0  0  0  0  0
    5.2861   -0.0329   20.1991 C   0  0  0  0  0  0  0  0  0  0  0  0
    4.8627    0.9478   19.2946 C   0  0  0  0  0  0  0  0  0  0  0  0
    5.4933    1.0434   18.0478 C   0  0  0  0  0  0  0  0  0  0  0  0
    6.4617    0.2028   17.6504 N   0  0  0  0  0  0  0  0  0  0  0  0
    6.8693   -0.7293   18.5182 C   0  0  0  0  0  0  0  0  0  0  0  0
    7.6570   -1.4005   18.1790 H   0  0  0  0  0  0  0  0  0  0  0  0
    5.2160    1.8235   17.3421 H   0  0  0  0  0  0  0  0  0  0  0  0
    4.0788    1.6529   19.5503 H   0  0  0  0  0  0  0  0  0  0  0  0
    4.8323   -0.1381   21.1860 H   0  0  0  0  0  0  0  0  0  0  0  0
    9.1292   -0.1339   19.9028 H   0  0  0  0  0  0  0  0  0  0  0  0
   10.1250   -0.5633   21.2949 H   0  0  0  0  0  0  0  0  0  0  0  0
    7.5230    1.0870   21.5743 H   0  0  0  0  0  0  0  0  0  0  0  0
    8.7479    0.7942   22.8186 H   0  0  0  0  0  0  0  0  0  0  0  0
   11.8115    1.5503   21.8825 C   0  0  0  0  0  0  0  0  0  0  0  0
   13.1156    1.5773   22.6269 C   0  0  0  0  0  0  0  0  0  0  0  0
   13.7380    0.6759   22.2533 H   0  0  0  0  0  0  0  0  0  0  0  0
   11.6445    0.7646   21.1513 H   0  0  0  0  0  0  0  0  0  0  0  0
   10.2860    4.3215   23.1531 H   0  0  0  0  0  0  0  0  0  0  0  0
   12.3747    4.5678   24.4485 H   0  0  0  0  0  0  0  0  0  0  0  0
  1  2  1  0
  2  3  2  0
  3  4  1  0
  4  5  2  0
  5  6  1  0
  6  7  1  0
  7  8  1  0
  8  9  1  0
  9 10  2  0
 10 11  1  0
 11 12  1  0
 12 13  1  0
 13 14  1  0
 14 15  1  0
 15 16  1  0
 16 17  1  0
 16 18  1  0
 14 19  1  0
 14 20  1  0
 13 21  1  0
 13 22  1  0
 12 23  1  0
 11 24  2  0
 24 25  1  0
 25 26  1  0
 26 27  2  0
 27 28  1  0
 28 29  2  0
 29 30  1  0
 30 31  2  0
 31 32  1  0
 29 33  1  0
 28 34  1  0
 27 35  1  0
  8 36  1  0
  8 37  1  0
  7 38  1  0
  7 39  1  0
  5 40  1  0
 40 41  2  0
 41 42  1  0
 40 43  1  0
  4 44  1  0
  3 45  1  0
 41  2  1  0
 25  9  1  0
 31 26  1  0
 16 12  1  0
M  END
>  <cnnaffinity>  (1) 
-6.24189

>  <filename>  (1) 
Fc1ccc(SCCc2nc(C3CCOC3)nn2-c2cccnc2)cc1

$$$$
