
     RDKit          3D

 42 45  0  0  0  0  0  0  0  0999 V2000
    3.7272    3.8967   27.3263 F   0  0  0  0  0  0  0  0  0  0  0  0
    4.6779    3.3111   26.5811 C   0  0  0  0  0  0  0  0  0  0  0  0
    6.0068    3.6778   26.7632 C   0  0  0  0  0  0  0  0  0  0  0  0
    6.9894    3.0272   26.0048 C   0  0  0  0  0  0  0  0  0  0  0  0
    6.6663    2.0216   25.0772 C   0  0  0  0  0  0  0  0  0  0  0  0
    7.7069    1.2292   24.3158 C   0  0  0  0  0  0  0  0  0  0  0  0
    7.8334    1.6339   22.8178 C   0  0  0  0  0  0  0  0  0  0  0  0
    8.7388    0.7189   22.0547 C   0  0  0  0  0  0  0  0  0  0  0  0
   10.0433    0.7832   22.1523 N   0  0  0  0  0  0  0  0  0  0  0  0
   10.4724   -0.3799   21.5829 C   0  0  0  0  0  0  0  0  0  0  0  0
   11.9255   -0.6624   21.6718 C   0  0  0  0  0  0  0  0  0  0  0  0
   12.6307   -1.6098   21.1166 N   0  0  0  0  0  0  0  0  0  0  0  0
   13.9598   -1.4708   21.4269 C   0  0  0  0  0  0  0  0  0  0  0  0
   14.2647   -0.4128   22.2297 C   0  0  0  0  0  0  0  0  0  0  0  0
   12.8683    0.4702   22.6131 S   0  0  0  0  0  0  0  0  0  0  0  0
   15.2194   -0.0791   22.5889 H   0  0  0  0  0  0  0  0  0  0  0  0
   14.6590   -2.1810   21.0132 H   0  0  0  0  0  0  0  0  0  0  0  0
    9.4965   -1.1260   21.0890 N   0  0  0  0  0  0  0  0  0  0  0  0
    8.3904   -0.4062   21.3907 N   0  0  0  0  0  0  0  0  0  0  0  0
    7.0510   -0.8401   21.0142 C   0  0  0  0  0  0  0  0  0  0  0  0
    6.4238   -0.0009   19.9150 C   0  0  0  0  0  0  0  0  0  0  0  0
    5.2339    0.7160   20.0848 C   0  0  0  0  0  0  0  0  0  0  0  0
    4.7056    1.4113   18.9919 C   0  0  0  0  0  0  0  0  0  0  0  0
    5.3995    1.3790   17.7785 C   0  0  0  0  0  0  0  0  0  0  0  0
    6.5561    0.7211   17.6032 N   0  0  0  0  0  0  0  0  0  0  0  0
    7.0522    0.0665   18.6594 C   0  0  0  0  0  0  0  0  0  0  0  0
    8.0090   -0.4325   18.5073 H   0  0  0  0  0  0  0  0  0  0  0  0
    5.0158    1.9097   16.9093 H   0  0  0  0  0  0  0  0  0  0  0  0
    3.7881    1.9854   19.0677 H   0  0  0  0  0  0  0  0  0  0  0  0
    4.7456    0.7623   21.0624 H   0  0  0  0  0  0  0  0  0  0  0  0
    6.4170   -0.8316   21.9094 H   0  0  0  0  0  0  0  0  0  0  0  0
    7.1420   -1.8849   20.7124 H   0  0  0  0  0  0  0  0  0  0  0  0
    6.8531    1.7053   22.3419 H   0  0  0  0  0  0  0  0  0  0  0  0
    8.2865    2.6268   22.7579 H   0  0  0  0  0  0  0  0  0  0  0  0
    8.6904    1.3559   24.7888 H   0  0  0  0  0  0  0  0  0  0  0  0
    7.4648    0.1580   24.4029 H   0  0  0  0  0  0  0  0  0  0  0  0
    5.3032    1.7565   24.8978 C   0  0  0  0  0  0  0  0  0  0  0  0
    4.9370    0.8677   23.9521 F   0  0  0  0  0  0  0  0  0  0  0  0
    4.2951    2.3553   25.6460 C   0  0  0  0  0  0  0  0  0  0  0  0
    3.2577    2.0788   25.5148 H   0  0  0  0  0  0  0  0  0  0  0  0
    8.0339    3.3056   26.1372 H   0  0  0  0  0  0  0  0  0  0  0  0
    6.2505    4.4387   27.4956 H   0  0  0  0  0  0  0  0  0  0  0  0
  1  2  1  0
  2  3  2  0
  3  4  1  0
  4  5  2  0
  5  6  1  0
  6  7  1  0
  7  8  1  0
  8  9  2  0
  9 10  1  0
 10 11  1  0
 11 12  2  0
 12 13  1  0
 13 14  2  0
 14 15  1  0
 14 16  1  0
 13 17  1  0
 10 18  2  0
 18 19  1  0
 19 20  1  0
 20 21  1  0
 21 22  2  0
 22 23  1  0
 23 24  2  0
 24 25  1  0
 25 26  2  0
 26 27  1  0
 24 28  1  0
 23 29  1  0
 22 30  1  0
 20 31  1  0
 20 32  1  0
  7 33  1  0
  7 34  1  0
  6 35  1  0
  6 36  1  0
  5 37  1  0
 37 38  1  0
 37 39  2  0
 39 40  1  0
  4 41  1  0
  3 42  1  0
 39  2  1  0
 19  8  1  0
 26 21  1  0
 15 11  1  0
M  END
>  <cnnaffinity>  (1) 
-6.61412

>  <filename>  (1) 
Fc1ccc(CCc2nc(-c3nccs3)nn2Cc2cccnc2)c(F)c1

$$$$
