
     RDKit          3D

 38 41  0  0  0  0  0  0  0  0999 V2000
    7.6465    6.2031   26.6330 F   0  0  0  0  0  0  0  0  0  0  0  0
    7.7515    5.0671   25.9299 C   0  0  0  0  0  0  0  0  0  0  0  0
    6.7813    4.7643   24.9878 C   0  0  0  0  0  0  0  0  0  0  0  0
    6.9043    3.5839   24.2495 C   0  0  0  0  0  0  0  0  0  0  0  0
    7.9797    2.7114   24.4595 C   0  0  0  0  0  0  0  0  0  0  0  0
    8.1723    1.5640   23.7658 O   0  0  0  0  0  0  0  0  0  0  0  0
    7.2169    1.1631   22.8014 C   0  0  0  0  0  0  0  0  0  0  0  0
    7.6125   -0.1662   22.2535 C   0  0  0  0  0  0  0  0  0  0  0  0
    8.2160   -1.1247   22.9198 N   0  0  0  0  0  0  0  0  0  0  0  0
    8.2329   -2.1492   22.0395 C   0  0  0  0  0  0  0  0  0  0  0  0
    8.8399   -3.4486   22.3992 C   0  0  0  0  0  0  0  0  0  0  0  0
    8.3350   -4.3027   23.5393 C   0  0  0  0  0  0  0  0  0  0  0  0
    8.1116   -4.7393   22.1232 C   0  0  0  0  0  0  0  0  0  0  0  0
    8.6549   -5.5893   21.7211 H   0  0  0  0  0  0  0  0  0  0  0  0
    7.0881   -4.6618   21.7642 H   0  0  0  0  0  0  0  0  0  0  0  0
    9.0757   -4.8363   24.1270 H   0  0  0  0  0  0  0  0  0  0  0  0
    7.4828   -3.9503   24.1168 H   0  0  0  0  0  0  0  0  0  0  0  0
    9.9235   -3.3869   22.3097 H   0  0  0  0  0  0  0  0  0  0  0  0
    7.7217   -1.8772   20.8515 N   0  0  0  0  0  0  0  0  0  0  0  0
    7.2849   -0.6006   21.0014 N   0  0  0  0  0  0  0  0  0  0  0  0
    6.6107    0.0607   19.9353 C   0  0  0  0  0  0  0  0  0  0  0  0
    5.4031    0.7490   20.1302 C   0  0  0  0  0  0  0  0  0  0  0  0
    4.8177    1.3696   19.0213 C   0  0  0  0  0  0  0  0  0  0  0  0
    5.4683    1.3041   17.7877 C   0  0  0  0  0  0  0  0  0  0  0  0
    6.6164    0.6294   17.5929 N   0  0  0  0  0  0  0  0  0  0  0  0
    7.1574    0.0039   18.6420 C   0  0  0  0  0  0  0  0  0  0  0  0
    8.0627   -0.5768   18.4619 H   0  0  0  0  0  0  0  0  0  0  0  0
    5.0527    1.7963   16.9117 H   0  0  0  0  0  0  0  0  0  0  0  0
    3.8771    1.9046   19.1058 H   0  0  0  0  0  0  0  0  0  0  0  0
    4.9203    0.7882   21.1073 H   0  0  0  0  0  0  0  0  0  0  0  0
    7.1579    1.9030   21.9914 H   0  0  0  0  0  0  0  0  0  0  0  0
    6.2304    1.0571   23.2789 H   0  0  0  0  0  0  0  0  0  0  0  0
    8.9299    3.0473   25.4537 C   0  0  0  0  0  0  0  0  0  0  0  0
    9.9476    2.2094   25.7152 F   0  0  0  0  0  0  0  0  0  0  0  0
    8.8388    4.2256   26.1770 C   0  0  0  0  0  0  0  0  0  0  0  0
    9.5984    4.4857   26.9070 H   0  0  0  0  0  0  0  0  0  0  0  0
    6.1560    3.3325   23.5039 H   0  0  0  0  0  0  0  0  0  0  0  0
    5.9416    5.4325   24.8236 H   0  0  0  0  0  0  0  0  0  0  0  0
  1  2  1  0
  2  3  2  0
  3  4  1  0
  4  5  2  0
  5  6  1  0
  6  7  1  0
  7  8  1  0
  8  9  2  0
  9 10  1  0
 10 11  1  0
 11 12  1  0
 12 13  1  0
 13 14  1  0
 13 15  1  0
 12 16  1  0
 12 17  1  0
 11 18  1  0
 10 19  2  0
 19 20  1  0
 20 21  1  0
 21 22  2  0
 22 23  1  0
 23 24  2  0
 24 25  1  0
 25 26  2  0
 26 27  1  0
 24 28  1  0
 23 29  1  0
 22 30  1  0
  7 31  1  0
  7 32  1  0
  5 33  1  0
 33 34  1  0
 33 35  2  0
 35 36  1  0
  4 37  1  0
  3 38  1  0
 35  2  1  0
 20  8  1  0
 26 21  1  0
 13 11  1  0
M  END
>  <cnnaffinity>  (1) 
-5.34627

>  <filename>  (1) 
Fc1ccc(OCc2nc(C3CC3)nn2-c2cccnc2)c(F)c1

$$$$
