
     RDKit          3D

 39 42  0  0  0  0  0  0  0  0999 V2000
    8.3387    4.7358   27.2919 F   0  0  0  0  0  0  0  0  0  0  0  0
    7.6146    3.7120   26.8146 C   0  0  0  0  0  0  0  0  0  0  0  0
    6.4818    3.2979   27.5087 C   0  0  0  0  0  0  0  0  0  0  0  0
    5.7511    2.2192   26.9982 C   0  0  0  0  0  0  0  0  0  0  0  0
    6.1266    1.5856   25.8085 C   0  0  0  0  0  0  0  0  0  0  0  0
    7.2640    2.0425   25.1057 C   0  0  0  0  0  0  0  0  0  0  0  0
    7.6878    1.4461   23.8136 C   0  0  0  0  0  0  0  0  0  0  0  0
    7.0827    0.4382   23.2062 N   0  0  0  0  0  0  0  0  0  0  0  0
    7.8320    0.2491   22.0897 N   0  0  0  0  0  0  0  0  0  0  0  0
    7.3672   -0.6731   21.0513 C   0  0  0  0  0  0  0  0  0  0  0  0
    6.6799    0.0107   19.8842 C   0  0  0  0  0  0  0  0  0  0  0  0
    5.4699    0.6835   20.1040 C   0  0  0  0  0  0  0  0  0  0  0  0
    4.8577    1.3304   19.0293 C   0  0  0  0  0  0  0  0  0  0  0  0
    5.4782    1.2852   17.7768 C   0  0  0  0  0  0  0  0  0  0  0  0
    6.6217    0.6239   17.5404 N   0  0  0  0  0  0  0  0  0  0  0  0
    7.1959   -0.0001   18.5778 C   0  0  0  0  0  0  0  0  0  0  0  0
    8.1131   -0.5511   18.3467 H   0  0  0  0  0  0  0  0  0  0  0  0
    5.0320    1.7865   16.9206 H   0  0  0  0  0  0  0  0  0  0  0  0
    3.9205    1.8634   19.1468 H   0  0  0  0  0  0  0  0  0  0  0  0
    5.0316    0.6993   21.1049 H   0  0  0  0  0  0  0  0  0  0  0  0
    6.6665   -1.3359   21.5652 H   0  0  0  0  0  0  0  0  0  0  0  0
    8.2053   -1.2879   20.7204 H   0  0  0  0  0  0  0  0  0  0  0  0
    8.8316    1.1567   22.0779 C   0  0  0  0  0  0  0  0  0  0  0  0
    9.9709    1.1881   21.1185 C   0  0  0  0  0  0  0  0  0  0  0  0
   10.9799    0.1602   21.5150 C   0  0  0  0  0  0  0  0  0  0  0  0
   12.1028    0.1957   22.2708 C   0  0  0  0  0  0  0  0  0  0  0  0
   12.5299   -1.1619   22.2634 C   0  0  0  0  0  0  0  0  0  0  0  0
   11.7142   -1.9318   21.5918 N   0  0  0  0  0  0  0  0  0  0  0  0
   10.7336   -1.0879   21.1119 O   0  0  0  0  0  0  0  0  0  0  0  0
   13.4161   -1.6041   22.7012 H   0  0  0  0  0  0  0  0  0  0  0  0
   12.5326    1.0559   22.7655 H   0  0  0  0  0  0  0  0  0  0  0  0
   10.4179    2.1826   21.1741 H   0  0  0  0  0  0  0  0  0  0  0  0
    9.6201    0.9814   20.1060 H   0  0  0  0  0  0  0  0  0  0  0  0
    8.7732    1.9211   23.1376 N   0  0  0  0  0  0  0  0  0  0  0  0
    8.0233    3.1061   25.6355 C   0  0  0  0  0  0  0  0  0  0  0  0
    8.9247    3.4620   25.1410 H   0  0  0  0  0  0  0  0  0  0  0  0
    5.5417    0.7489   25.4267 H   0  0  0  0  0  0  0  0  0  0  0  0
    4.8741    1.8719   27.5377 H   0  0  0  0  0  0  0  0  0  0  0  0
    6.1946    3.8307   28.4103 H   0  0  0  0  0  0  0  0  0  0  0  0
  1  2  1  0
  2  3  2  0
  3  4  1  0
  4  5  2  0
  5  6  1  0
  6  7  1  0
  7  8  2  0
  8  9  1  0
  9 10  1  0
 10 11  1  0
 11 12  2  0
 12 13  1  0
 13 14  2  0
 14 15  1  0
 15 16  2  0
 16 17  1  0
 14 18  1  0
 13 19  1  0
 12 20  1  0
 10 21  1  0
 10 22  1  0
  9 23  1  0
 23 24  1  0
 24 25  1  0
 25 26  2  0
 26 27  1  0
 27 28  2  0
 28 29  1  0
 27 30  1  0
 26 31  1  0
 24 32  1  0
 24 33  1  0
 23 34  2  0
  6 35  2  0
 35 36  1  0
  5 37  1  0
  4 38  1  0
  3 39  1  0
 35  2  1  0
 34  7  1  0
 16 11  1  0
 29 25  1  0
M  END
>  <cnnaffinity>  (1) 
-6.27854

>  <filename>  (1) 
Fc1cccc(-c2nc(Cc3ccno3)n(Cc3cccnc3)n2)c1

$$$$
