
     RDKit          3D

 42 45  0  0  0  0  0  0  0  0999 V2000
    6.7374   -1.0169   27.8269 F   0  0  0  0  0  0  0  0  0  0  0  0
    6.7868   -0.2912   26.7002 C   0  0  0  0  0  0  0  0  0  0  0  0
    7.7224    0.7329   26.5637 C   0  0  0  0  0  0  0  0  0  0  0  0
    7.7157    1.4347   25.3535 C   0  0  0  0  0  0  0  0  0  0  0  0
    6.7991    1.0839   24.3458 C   0  0  0  0  0  0  0  0  0  0  0  0
    6.8586    1.7139   22.9808 C   0  0  0  0  0  0  0  0  0  0  0  0
    7.9638    1.0267   22.2656 C   0  0  0  0  0  0  0  0  0  0  0  0
    9.2233    1.3562   22.4311 N   0  0  0  0  0  0  0  0  0  0  0  0
    9.8943    0.2502   22.0054 C   0  0  0  0  0  0  0  0  0  0  0  0
   11.3566    0.1446   22.1962 C   0  0  0  0  0  0  0  0  0  0  0  0
   12.1073   -0.9277   21.6816 C   0  0  0  0  0  0  0  0  0  0  0  0
   13.4762   -0.9470   21.9087 C   0  0  0  0  0  0  0  0  0  0  0  0
   14.1936   -1.9692   21.4180 F   0  0  0  0  0  0  0  0  0  0  0  0
   14.1240    0.0577   22.6256 C   0  0  0  0  0  0  0  0  0  0  0  0
   13.3741    1.1068   23.1543 C   0  0  0  0  0  0  0  0  0  0  0  0
   11.9985    1.1544   22.9470 C   0  0  0  0  0  0  0  0  0  0  0  0
   11.4033    1.9726   23.3422 H   0  0  0  0  0  0  0  0  0  0  0  0
   13.8565    1.9018   23.7212 H   0  0  0  0  0  0  0  0  0  0  0  0
   15.1935    0.0306   22.7246 H   0  0  0  0  0  0  0  0  0  0  0  0
   11.6638   -1.7268   21.0898 H   0  0  0  0  0  0  0  0  0  0  0  0
    9.1129   -0.7044   21.5260 N   0  0  0  0  0  0  0  0  0  0  0  0
    7.8713   -0.1910   21.6967 N   0  0  0  0  0  0  0  0  0  0  0  0
    6.6863   -0.8370   21.1373 C   0  0  0  0  0  0  0  0  0  0  0  0
    6.1711   -0.0968   19.9206 C   0  0  0  0  0  0  0  0  0  0  0  0
    4.9693    0.6165   19.8865 C   0  0  0  0  0  0  0  0  0  0  0  0
    4.6766    1.3928   18.7603 C   0  0  0  0  0  0  0  0  0  0  0  0
    5.5764    1.3876   17.6922 C   0  0  0  0  0  0  0  0  0  0  0  0
    6.7141    0.6776   17.6859 N   0  0  0  0  0  0  0  0  0  0  0  0
    6.9901   -0.0380   18.7811 C   0  0  0  0  0  0  0  0  0  0  0  0
    7.9092   -0.6203   18.7561 H   0  0  0  0  0  0  0  0  0  0  0  0
    5.3694    1.9595   16.7909 H   0  0  0  0  0  0  0  0  0  0  0  0
    3.7843    2.0063   18.7057 H   0  0  0  0  0  0  0  0  0  0  0  0
    4.2638    0.5645   20.7168 H   0  0  0  0  0  0  0  0  0  0  0  0
    5.9327   -0.8830   21.9319 H   0  0  0  0  0  0  0  0  0  0  0  0
    6.9939   -1.8577   20.8887 H   0  0  0  0  0  0  0  0  0  0  0  0
    7.1248    2.7676   23.0527 H   0  0  0  0  0  0  0  0  0  0  0  0
    5.9106    1.6033   22.4503 H   0  0  0  0  0  0  0  0  0  0  0  0
    5.9108    0.0971   24.4969 N   0  0  0  0  0  0  0  0  0  0  0  0
    5.8914   -0.5654   25.6640 C   0  0  0  0  0  0  0  0  0  0  0  0
    5.1482   -1.3490   25.7834 H   0  0  0  0  0  0  0  0  0  0  0  0
    8.4381    2.2157   25.1405 H   0  0  0  0  0  0  0  0  0  0  0  0
    8.4268    0.9381   27.3695 H   0  0  0  0  0  0  0  0  0  0  0  0
  1  2  1  0
  2  3  2  0
  3  4  1  0
  4  5  2  0
  5  6  1  0
  6  7  1  0
  7  8  2  0
  8  9  1  0
  9 10  1  0
 10 11  2  0
 11 12  1  0
 12 13  1  0
 12 14  2  0
 14 15  1  0
 15 16  2  0
 16 17  1  0
 15 18  1  0
 14 19  1  0
 11 20  1  0
  9 21  2  0
 21 22  1  0
 22 23  1  0
 23 24  1  0
 24 25  2  0
 25 26  1  0
 26 27  2  0
 27 28  1  0
 28 29  2  0
 29 30  1  0
 27 31  1  0
 26 32  1  0
 25 33  1  0
 23 34  1  0
 23 35  1  0
  6 36  1  0
  6 37  1  0
  5 38  1  0
 38 39  2  0
 39 40  1  0
  4 41  1  0
  3 42  1  0
 39  2  1  0
 22  7  1  0
 29 24  1  0
 16 10  1  0
M  END
>  <cnnaffinity>  (1) 
-6.58713

>  <filename>  (1) 
Fc1ccc(Cc2nc(-c3cccc(F)c3)nn2Cc2cccnc2)nc1

$$$$
