
     RDKit          3D

 45 48  0  0  0  0  0  0  0  0999 V2000
    4.6953    2.1252   27.3402 F   0  0  0  0  0  0  0  0  0  0  0  0
    5.8787    2.4253   26.7824 C   0  0  0  0  0  0  0  0  0  0  0  0
    6.7180    3.3341   27.4208 C   0  0  0  0  0  0  0  0  0  0  0  0
    7.9467    3.6456   26.8298 C   0  0  0  0  0  0  0  0  0  0  0  0
    8.3244    3.0506   25.6247 C   0  0  0  0  0  0  0  0  0  0  0  0
    7.4546    2.1415   24.9836 C   0  0  0  0  0  0  0  0  0  0  0  0
    7.8285    1.5280   23.6885 C   0  0  0  0  0  0  0  0  0  0  0  0
    7.1493    0.5361   23.1293 N   0  0  0  0  0  0  0  0  0  0  0  0
    7.8758    0.2493   22.0281 N   0  0  0  0  0  0  0  0  0  0  0  0
    7.3844   -0.6882   21.0242 C   0  0  0  0  0  0  0  0  0  0  0  0
    6.6523   -0.0039   19.8845 C   0  0  0  0  0  0  0  0  0  0  0  0
    5.4400    0.6483   20.1367 C   0  0  0  0  0  0  0  0  0  0  0  0
    4.7983    1.3080   19.0858 C   0  0  0  0  0  0  0  0  0  0  0  0
    5.3930    1.2979   17.8205 C   0  0  0  0  0  0  0  0  0  0  0  0
    6.5530    0.6773   17.5601 N   0  0  0  0  0  0  0  0  0  0  0  0
    7.1603    0.0526   18.5774 C   0  0  0  0  0  0  0  0  0  0  0  0
    8.1072   -0.4308   18.3280 H   0  0  0  0  0  0  0  0  0  0  0  0
    4.9240    1.8073   16.9793 H   0  0  0  0  0  0  0  0  0  0  0  0
    3.8698    1.8452   19.2342 H   0  0  0  0  0  0  0  0  0  0  0  0
    5.0301    0.6442   21.1486 H   0  0  0  0  0  0  0  0  0  0  0  0
    6.7255   -1.3680   21.5713 H   0  0  0  0  0  0  0  0  0  0  0  0
    8.2339   -1.2729   20.6495 H   0  0  0  0  0  0  0  0  0  0  0  0
    8.9468    1.0684   21.9723 C   0  0  0  0  0  0  0  0  0  0  0  0
   10.0628    0.8737   20.9991 C   0  0  0  0  0  0  0  0  0  0  0  0
   11.0483   -0.2768   21.3859 C   0  0  0  0  0  0  0  0  0  0  0  0
   11.7494    0.0203   22.6897 C   0  0  0  0  0  0  0  0  0  0  0  0
   12.8127    0.9326   22.7142 C   0  0  0  0  0  0  0  0  0  0  0  0
   13.4071    1.2436   23.9277 C   0  0  0  0  0  0  0  0  0  0  0  0
   12.9519    0.5946   25.0786 C   0  0  0  0  0  0  0  0  0  0  0  0
   11.8176   -0.2069   24.9705 C   0  0  0  0  0  0  0  0  0  0  0  0
   11.2370   -0.5168   23.8058 N   0  0  0  0  0  0  0  0  0  0  0  0
   11.3532   -0.6307   25.8605 H   0  0  0  0  0  0  0  0  0  0  0  0
   13.4641    0.6282   26.0274 H   0  0  0  0  0  0  0  0  0  0  0  0
   14.1687    2.0110   23.9368 H   0  0  0  0  0  0  0  0  0  0  0  0
   13.1457    1.3907   21.7906 H   0  0  0  0  0  0  0  0  0  0  0  0
   10.5200   -1.2331   21.4908 H   0  0  0  0  0  0  0  0  0  0  0  0
   11.7987   -0.4147   20.6036 H   0  0  0  0  0  0  0  0  0  0  0  0
    9.6264    0.6769   20.0168 H   0  0  0  0  0  0  0  0  0  0  0  0
   10.5941    1.8307   20.9324 H   0  0  0  0  0  0  0  0  0  0  0  0
    8.9245    1.9142   22.9828 N   0  0  0  0  0  0  0  0  0  0  0  0
    6.2204    1.8207   25.5823 C   0  0  0  0  0  0  0  0  0  0  0  0
    5.5334    1.1154   25.1233 H   0  0  0  0  0  0  0  0  0  0  0  0
    9.2806    3.2940   25.1688 H   0  0  0  0  0  0  0  0  0  0  0  0
    8.6088    4.3676   27.3015 H   0  0  0  0  0  0  0  0  0  0  0  0
    6.3916    3.7710   28.3556 H   0  0  0  0  0  0  0  0  0  0  0  0
  1  2  1  0
  2  3  2  0
  3  4  1  0
  4  5  2  0
  5  6  1  0
  6  7  1  0
  7  8  2  0
  8  9  1  0
  9 10  1  0
 10 11  1  0
 11 12  2  0
 12 13  1  0
 13 14  2  0
 14 15  1  0
 15 16  2  0
 16 17  1  0
 14 18  1  0
 13 19  1  0
 12 20  1  0
 10 21  1  0
 10 22  1  0
  9 23  1  0
 23 24  1  0
 24 25  1  0
 25 26  1  0
 26 27  2  0
 27 28  1  0
 28 29  2  0
 29 30  1  0
 30 31  2  0
 30 32  1  0
 29 33  1  0
 28 34  1  0
 27 35  1  0
 25 36  1  0
 25 37  1  0
 24 38  1  0
 24 39  1  0
 23 40  2  0
  6 41  2  0
 41 42  1  0
  5 43  1  0
  4 44  1  0
  3 45  1  0
 41  2  1  0
 40  7  1  0
 16 11  1  0
 31 26  1  0
M  END
>  <cnnaffinity>  (1) 
-5.93645

>  <filename>  (1) 
Fc1cccc(-c2nc(CCc3ccccn3)n(Cc3cccnc3)n2)c1

$$$$
