
     RDKit          3D

 23 24  0  0  0  0  0  0  0  0999 V2000
    4.9202    1.7928   16.9924 H   0  0  0  0  0  0  0  0  0  0  0  0
    5.3956    1.2978   17.8355 C   0  0  0  0  0  0  0  0  0  0  0  0
    6.5575    0.6811   17.5696 N   0  0  0  0  0  0  0  0  0  0  0  0
    7.1693    0.0563   18.5857 C   0  0  0  0  0  0  0  0  0  0  0  0
    8.1183   -0.4266   18.3671 H   0  0  0  0  0  0  0  0  0  0  0  0
    6.6607   -0.0204   19.9084 C   0  0  0  0  0  0  0  0  0  0  0  0
    7.3209   -0.7287   20.9179 N   0  0  0  0  0  0  0  0  0  0  0  0
    6.7658   -1.1046   21.6736 H   0  0  0  0  0  0  0  0  0  0  0  0
    8.7033   -0.6990   21.1431 C   0  0  0  0  0  0  0  0  0  0  0  0
    9.6946    0.1950   20.6668 C   0  0  0  0  0  0  0  0  0  0  0  0
    9.5472    1.0269   20.0015 H   0  0  0  0  0  0  0  0  0  0  0  0
   10.8994   -0.1029   21.1355 N   0  0  0  0  0  0  0  0  0  0  0  0
   10.6927   -1.1811   21.9015 N   0  0  0  0  0  0  0  0  0  0  0  0
   11.4833   -1.5905   22.3782 H   0  0  0  0  0  0  0  0  0  0  0  0
    9.3969   -1.5783   21.9417 C   0  0  0  0  0  0  0  0  0  0  0  0
    8.8770   -2.6844   22.7990 C   0  0  0  0  0  0  0  0  0  0  0  0
    8.5147   -2.2957   23.7585 H   0  0  0  0  0  0  0  0  0  0  0  0
    8.0490   -3.1935   22.2896 H   0  0  0  0  0  0  0  0  0  0  0  0
    9.8746   -3.6061   23.0784 F   0  0  0  0  0  0  0  0  0  0  0  0
    5.4409    0.6252   20.1634 C   0  0  0  0  0  0  0  0  0  0  0  0
    5.0247    0.6190   21.1718 H   0  0  0  0  0  0  0  0  0  0  0  0
    4.8147    1.3014   19.1085 C   0  0  0  0  0  0  0  0  0  0  0  0
    3.8884    1.8330   19.2618 H   0  0  0  0  0  0  0  0  0  0  0  0
  1  2  1  0
  2  3  2  0
  3  4  1  0
  4  5  1  0
  4  6  2  0
  6  7  1  0
  7  8  1  0
  7  9  1  0
  9 10  1  0
 10 11  1  0
 10 12  2  0
 12 13  1  0
 13 14  1  0
 13 15  1  0
 15 16  1  0
 16 17  1  0
 16 18  1  0
 16 19  1  0
  6 20  1  0
 20 21  1  0
 20 22  2  0
 22 23  1  0
 22  2  1  0
 15  9  2  0
M  END
>  <cnnaffinity>  (1) 
-4.73134

>  <filename>  (1) 
FCc1[nH]ncc1Nc1cccnc1

$$$$
