
     RDKit          3D

 39 41  0  0  0  0  0  0  0  0999 V2000
    4.9876    1.9424   16.9410 H   0  0  0  0  0  0  0  0  0  0  0  0
    5.4626    1.3744   17.7368 C   0  0  0  0  0  0  0  0  0  0  0  0
    6.6327    0.7885   17.4322 N   0  0  0  0  0  0  0  0  0  0  0  0
    7.2484    0.1040   18.4079 C   0  0  0  0  0  0  0  0  0  0  0  0
    8.2005   -0.3451   18.1318 H   0  0  0  0  0  0  0  0  0  0  0  0
    6.7456   -0.0726   19.7297 C   0  0  0  0  0  0  0  0  0  0  0  0
    7.4465   -0.7702   20.7271 N   0  0  0  0  0  0  0  0  0  0  0  0
    6.7444   -1.5795   21.7183 C   0  0  0  0  0  0  0  0  0  0  0  0
    7.2429   -2.5546   21.7950 H   0  0  0  0  0  0  0  0  0  0  0  0
    5.7262   -1.7871   21.3690 H   0  0  0  0  0  0  0  0  0  0  0  0
    6.6238   -0.9576   23.1254 C   0  0  0  0  0  0  0  0  0  0  0  0
    6.1741    0.0447   23.0187 H   0  0  0  0  0  0  0  0  0  0  0  0
    5.9339   -1.5743   23.7109 H   0  0  0  0  0  0  0  0  0  0  0  0
    7.8314   -0.8512   23.9161 N   0  0  0  0  0  0  0  0  0  0  0  0
    7.9978   -1.6905   25.0384 C   0  0  0  0  0  0  0  0  0  0  0  0
    7.6796   -3.0608   24.9778 C   0  0  0  0  0  0  0  0  0  0  0  0
    7.2348   -3.4623   24.0704 H   0  0  0  0  0  0  0  0  0  0  0  0
    7.9538   -3.9033   26.0560 C   0  0  0  0  0  0  0  0  0  0  0  0
    7.7063   -4.9639   25.9964 H   0  0  0  0  0  0  0  0  0  0  0  0
    8.5087   -3.3863   27.2324 C   0  0  0  0  0  0  0  0  0  0  0  0
    8.7436   -4.0786   28.0388 H   0  0  0  0  0  0  0  0  0  0  0  0
    8.6949   -2.0030   27.3599 C   0  0  0  0  0  0  0  0  0  0  0  0
    9.0292   -1.5456   28.2883 H   0  0  0  0  0  0  0  0  0  0  0  0
    8.4222   -1.1553   26.2808 C   0  0  0  0  0  0  0  0  0  0  0  0
    8.4447    0.2752   26.4629 C   0  0  0  0  0  0  0  0  0  0  0  0
    8.4101    1.4262   26.5888 N   0  0  0  0  0  0  0  0  0  0  0  0
    8.9568   -0.1481   23.3204 C   0  0  0  0  0  0  0  0  0  0  0  0
    8.6199    0.8552   23.0089 H   0  0  0  0  0  0  0  0  0  0  0  0
    9.7199    0.0025   24.0912 H   0  0  0  0  0  0  0  0  0  0  0  0
    9.5638   -0.9080   22.1282 C   0  0  0  0  0  0  0  0  0  0  0  0
    9.5423   -1.9785   22.3539 H   0  0  0  0  0  0  0  0  0  0  0  0
   10.6190   -0.6441   22.0180 H   0  0  0  0  0  0  0  0  0  0  0  0
    8.9040   -0.6635   20.7663 C   0  0  0  0  0  0  0  0  0  0  0  0
    9.1673    0.3504   20.4234 H   0  0  0  0  0  0  0  0  0  0  0  0
    9.3531   -1.3540   20.0309 H   0  0  0  0  0  0  0  0  0  0  0  0
    5.4955    0.5252   19.9989 C   0  0  0  0  0  0  0  0  0  0  0  0
    5.0546    0.4175   20.9893 H   0  0  0  0  0  0  0  0  0  0  0  0
    4.8618    1.2716   18.9972 C   0  0  0  0  0  0  0  0  0  0  0  0
    3.9152    1.7723   19.1879 H   0  0  0  0  0  0  0  0  0  0  0  0
  1  2  1  0
  2  3  2  0
  3  4  1  0
  4  5  1  0
  4  6  2  0
  6  7  1  0
  7  8  1  0
  8  9  1  0
  8 10  1  0
  8 11  1  0
 11 12  1  0
 11 13  1  0
 11 14  1  0
 14 15  1  0
 15 16  2  0
 16 17  1  0
 16 18  1  0
 18 19  1  0
 18 20  2  0
 20 21  1  0
 20 22  1  0
 22 23  1  0
 22 24  2  0
 24 25  1  0
 25 26  3  0
 14 27  1  0
 27 28  1  0
 27 29  1  0
 27 30  1  0
 30 31  1  0
 30 32  1  0
 30 33  1  0
 33 34  1  0
 33 35  1  0
  6 36  1  0
 36 37  1  0
 36 38  2  0
 38 39  1  0
 38  2  1  0
 33  7  1  0
 24 15  1  0
M  END
>  <cnnaffinity>  (1) 
-5.38041

>  <filename>  (1) 
N#Cc1ccccc1N1CCCN(c2cccnc2)CC1

$$$$
