
     RDKit          3D

 30 32  0  0  0  0  0  0  0  0999 V2000
    4.9231    1.7930   16.9958 H   0  0  0  0  0  0  0  0  0  0  0  0
    5.3934    1.2911   17.8370 C   0  0  0  0  0  0  0  0  0  0  0  0
    6.5494    0.6660   17.5690 N   0  0  0  0  0  0  0  0  0  0  0  0
    7.1697    0.0516   18.5794 C   0  0  0  0  0  0  0  0  0  0  0  0
    8.1268   -0.4168   18.3626 H   0  0  0  0  0  0  0  0  0  0  0  0
    6.6632    0.0037   19.8967 C   0  0  0  0  0  0  0  0  0  0  0  0
    7.3659   -0.6617   20.9348 N   0  0  0  0  0  0  0  0  0  0  0  0
    6.7734   -1.4315   21.9281 C   0  0  0  0  0  0  0  0  0  0  0  0
    5.7054   -1.5810   21.9725 H   0  0  0  0  0  0  0  0  0  0  0  0
    7.7346   -1.9095   22.7468 C   0  0  0  0  0  0  0  0  0  0  0  0
    7.6368   -2.7414   23.9580 C   0  0  0  0  0  0  0  0  0  0  0  0
    8.4504   -2.4698   25.0766 C   0  0  0  0  0  0  0  0  0  0  0  0
    9.1662   -1.6531   25.0071 H   0  0  0  0  0  0  0  0  0  0  0  0
    8.3235   -3.1957   26.2568 C   0  0  0  0  0  0  0  0  0  0  0  0
    8.9634   -2.9631   27.1091 H   0  0  0  0  0  0  0  0  0  0  0  0
    7.3733   -4.2241   26.3406 C   0  0  0  0  0  0  0  0  0  0  0  0
    7.2725   -4.7967   27.2605 H   0  0  0  0  0  0  0  0  0  0  0  0
    6.5619   -4.5219   25.2443 C   0  0  0  0  0  0  0  0  0  0  0  0
    5.8243   -5.3216   25.3022 H   0  0  0  0  0  0  0  0  0  0  0  0
    6.6851   -3.7937   24.0476 C   0  0  0  0  0  0  0  0  0  0  0  0
    5.8494   -4.1785   22.9274 C   0  0  0  0  0  0  0  0  0  0  0  0
    5.1846   -4.4874   22.0283 N   0  0  0  0  0  0  0  0  0  0  0  0
    8.9334   -1.4055   22.2582 N   0  0  0  0  0  0  0  0  0  0  0  0
    9.8755   -1.5833   22.5402 H   0  0  0  0  0  0  0  0  0  0  0  0
    8.7605   -0.6493   21.1327 C   0  0  0  0  0  0  0  0  0  0  0  0
    9.6435   -0.1172   20.4976 O   0  0  0  0  0  0  0  0  0  0  0  0
    5.4463    0.6394   20.1633 C   0  0  0  0  0  0  0  0  0  0  0  0
    5.0350    0.6367   21.1737 H   0  0  0  0  0  0  0  0  0  0  0  0
    4.8123    1.3036   19.1088 C   0  0  0  0  0  0  0  0  0  0  0  0
    3.8830    1.8357   19.2618 H   0  0  0  0  0  0  0  0  0  0  0  0
  1  2  1  0
  2  3  2  0
  3  4  1  0
  4  5  1  0
  4  6  2  0
  6  7  1  0
  7  8  1  0
  8  9  1  0
  8 10  2  0
 10 11  1  0
 11 12  2  0
 12 13  1  0
 12 14  1  0
 14 15  1  0
 14 16  2  0
 16 17  1  0
 16 18  1  0
 18 19  1  0
 18 20  2  0
 20 21  1  0
 21 22  3  0
 10 23  1  0
 23 24  1  0
 23 25  1  0
 25 26  2  0
  6 27  1  0
 27 28  1  0
 27 29  2  0
 29 30  1  0
 29  2  1  0
 25  7  1  0
 20 11  1  0
M  END
>  <cnnaffinity>  (1) 
-5.41023

>  <filename>  (1) 
N#Cc1ccccc1-c1cn(-c2cccnc2)c(=O)[nH]1

$$$$
