
     RDKit          3D

 31 33  0  0  0  0  0  0  0  0999 V2000
    5.6760    1.8884   16.9201 H   0  0  0  0  0  0  0  0  0  0  0  0
    5.9709    1.2878   17.7810 C   0  0  0  0  0  0  0  0  0  0  0  0
    7.2241    0.8095   17.7679 N   0  0  0  0  0  0  0  0  0  0  0  0
    7.6484    0.1590   18.8573 C   0  0  0  0  0  0  0  0  0  0  0  0
    8.6821   -0.1761   18.8452 H   0  0  0  0  0  0  0  0  0  0  0  0
    6.8381   -0.0981   19.9809 C   0  0  0  0  0  0  0  0  0  0  0  0
    7.4204   -0.8078   21.1627 C   0  0  0  0  0  0  0  0  0  0  0  0
    8.6857   -0.5597   21.3994 N   0  0  0  0  0  0  0  0  0  0  0  0
    9.2441   -0.9617   22.5837 N   0  0  0  0  0  0  0  0  0  0  0  0
   10.6383   -0.6680   22.7504 C   0  0  0  0  0  0  0  0  0  0  0  0
   11.5054   -1.1394   21.7498 C   0  0  0  0  0  0  0  0  0  0  0  0
   11.0799   -1.7437   20.9558 H   0  0  0  0  0  0  0  0  0  0  0  0
   12.8773   -0.9115   21.8279 C   0  0  0  0  0  0  0  0  0  0  0  0
   13.5264   -1.2997   21.0464 H   0  0  0  0  0  0  0  0  0  0  0  0
   13.4065   -0.1739   22.8904 C   0  0  0  0  0  0  0  0  0  0  0  0
   14.4738    0.0343   22.9201 H   0  0  0  0  0  0  0  0  0  0  0  0
   12.5659    0.3065   23.8963 C   0  0  0  0  0  0  0  0  0  0  0  0
   12.9810    0.8740   24.7282 H   0  0  0  0  0  0  0  0  0  0  0  0
   11.1767    0.0629   23.8557 C   0  0  0  0  0  0  0  0  0  0  0  0
   10.3834    0.6095   24.9435 C   0  0  0  0  0  0  0  0  0  0  0  0
    9.7794    1.0228   25.8443 N   0  0  0  0  0  0  0  0  0  0  0  0
    8.4605   -1.5165   23.5702 C   0  0  0  0  0  0  0  0  0  0  0  0
    8.9568   -1.6623   24.5357 H   0  0  0  0  0  0  0  0  0  0  0  0
    7.2069   -1.9460   23.3348 C   0  0  0  0  0  0  0  0  0  0  0  0
    6.6233   -2.4832   24.0671 H   0  0  0  0  0  0  0  0  0  0  0  0
    6.6218   -1.7890   22.0130 C   0  0  0  0  0  0  0  0  0  0  0  0
    5.6184   -2.3966   21.6540 O   0  0  0  0  0  0  0  0  0  0  0  0
    5.5129    0.3708   19.9530 C   0  0  0  0  0  0  0  0  0  0  0  0
    4.8419    0.1852   20.7944 H   0  0  0  0  0  0  0  0  0  0  0  0
    5.0776    1.0823   18.8356 C   0  0  0  0  0  0  0  0  0  0  0  0
    4.0820    1.5106   18.7810 H   0  0  0  0  0  0  0  0  0  0  0  0
  1  2  1  0
  2  3  2  0
  3  4  1  0
  4  5  1  0
  4  6  2  0
  6  7  1  0
  7  8  2  0
  8  9  1  0
  9 10  1  0
 10 11  2  0
 11 12  1  0
 11 13  1  0
 13 14  1  0
 13 15  2  0
 15 16  1  0
 15 17  1  0
 17 18  1  0
 17 19  2  0
 19 20  1  0
 20 21  3  0
  9 22  1  0
 22 23  1  0
 22 24  2  0
 24 25  1  0
 24 26  1  0
 26 27  2  0
  6 28  1  0
 28 29  1  0
 28 30  2  0
 30 31  1  0
 30  2  1  0
 26  7  1  0
 19 10  1  0
M  END
>  <cnnaffinity>  (1) 
-4.97531

>  <filename>  (1) 
N#Cc1ccccc1-n1ccc(=O)c(-c2cccnc2)n1

$$$$
