
     RDKit          3D

 26 28  0  0  0  0  0  0  0  0999 V2000
    4.9759    1.8391   16.9384 H   0  0  0  0  0  0  0  0  0  0  0  0
    5.4145    1.3005   17.7740 C   0  0  0  0  0  0  0  0  0  0  0  0
    6.5643    0.6585   17.5225 N   0  0  0  0  0  0  0  0  0  0  0  0
    7.1437    0.0021   18.5327 C   0  0  0  0  0  0  0  0  0  0  0  0
    8.0947   -0.4775   18.3058 H   0  0  0  0  0  0  0  0  0  0  0  0
    6.6124   -0.0494   19.8380 C   0  0  0  0  0  0  0  0  0  0  0  0
    7.3704   -0.6811   20.9385 C   0  0  0  0  0  0  0  0  0  0  0  0
    8.5052   -1.3634   20.7053 N   0  0  0  0  0  0  0  0  0  0  0  0
    8.9270   -1.6836   21.9504 N   0  0  0  0  0  0  0  0  0  0  0  0
   10.0961   -2.2073   22.4839 C   0  0  0  0  0  0  0  0  0  0  0  0
   10.8578   -2.5862   21.8243 H   0  0  0  0  0  0  0  0  0  0  0  0
   10.0116   -2.0322   23.8282 C   0  0  0  0  0  0  0  0  0  0  0  0
   10.7156   -2.2949   24.6030 H   0  0  0  0  0  0  0  0  0  0  0  0
    8.7826   -1.4351   24.1313 N   0  0  0  0  0  0  0  0  0  0  0  0
    8.3956   -0.7769   25.3605 C   0  0  0  0  0  0  0  0  0  0  0  0
    8.8248   -1.2700   26.2377 H   0  0  0  0  0  0  0  0  0  0  0  0
    7.3071   -0.8224   25.4455 H   0  0  0  0  0  0  0  0  0  0  0  0
    8.7703    0.6530   25.3664 C   0  0  0  0  0  0  0  0  0  0  0  0
    9.0330    1.7770   25.2989 N   0  0  0  0  0  0  0  0  0  0  0  0
    8.1286   -1.2170   22.9329 C   0  0  0  0  0  0  0  0  0  0  0  0
    7.0620   -0.5753   22.3201 C   0  0  0  0  0  0  0  0  0  0  0  0
    6.2239   -0.0637   22.7604 H   0  0  0  0  0  0  0  0  0  0  0  0
    5.3946    0.6173   20.0704 C   0  0  0  0  0  0  0  0  0  0  0  0
    4.9412    0.6472   21.0627 H   0  0  0  0  0  0  0  0  0  0  0  0
    4.7895    1.3025   19.0241 C   0  0  0  0  0  0  0  0  0  0  0  0
    3.8704    1.8590   19.1685 H   0  0  0  0  0  0  0  0  0  0  0  0
  1  2  1  0
  2  3  2  0
  3  4  1  0
  4  5  1  0
  4  6  2  0
  6  7  1  0
  7  8  2  0
  8  9  1  0
  9 10  1  0
 10 11  1  0
 10 12  2  0
 12 13  1  0
 12 14  1  0
 14 15  1  0
 15 16  1  0
 15 17  1  0
 15 18  1  0
 18 19  3  0
 14 20  1  0
 20 21  2  0
 21 22  1  0
  6 23  1  0
 23 24  1  0
 23 25  2  0
 25 26  1  0
 25  2  1  0
 21  7  1  0
 20  9  1  0
M  END
>  <cnnaffinity>  (1) 
-4.95571

>  <filename>  (1) 
N#CCn1ccn2nc(-c3cccnc3)cc12

$$$$
