
     RDKit          3D

 25 27  0  0  0  0  0  0  0  0999 V2000
    5.6381   -0.0180   26.3267 H   0  0  0  0  0  0  0  0  0  0  0  0
    6.5104   -0.5210   26.5171 N   0  0  0  0  0  0  0  0  0  0  0  0
    7.0668   -0.7445   25.4116 N   0  0  0  0  0  4  0  0  0  0  0  0
    8.1561   -1.3733   25.2709 N   0  0  0  0  0  0  0  0  0  0  0  0
    8.6615   -1.5171   24.0449 N   0  0  0  0  0  0  0  0  0  0  0  0
    9.8954   -2.1134   23.7736 C   0  0  0  0  0  0  0  0  0  0  0  0
   10.4580   -2.5170   24.5998 H   0  0  0  0  0  0  0  0  0  0  0  0
   10.1123   -2.0713   22.4425 C   0  0  0  0  0  0  0  0  0  0  0  0
   10.9130   -2.4046   21.8001 H   0  0  0  0  0  0  0  0  0  0  0  0
    8.9899   -1.4580   21.8913 N   0  0  0  0  0  0  0  0  0  0  0  0
    8.6107   -1.1441   20.6444 N   0  0  0  0  0  0  0  0  0  0  0  0
    7.4153   -0.5570   20.8294 C   0  0  0  0  0  0  0  0  0  0  0  0
    6.6667   -0.0001   19.6974 C   0  0  0  0  0  0  0  0  0  0  0  0
    7.2197   -0.0431   18.4062 C   0  0  0  0  0  0  0  0  0  0  0  0
    8.1481   -0.5849   18.2312 H   0  0  0  0  0  0  0  0  0  0  0  0
    6.6711    0.5638   17.3532 N   0  0  0  0  0  0  0  0  0  0  0  0
    5.5237    1.2322   17.5478 C   0  0  0  0  0  0  0  0  0  0  0  0
    5.1197    1.7541   16.6826 H   0  0  0  0  0  0  0  0  0  0  0  0
    4.8613    1.2829   18.7776 C   0  0  0  0  0  0  0  0  0  0  0  0
    3.9298    1.8311   18.8677 H   0  0  0  0  0  0  0  0  0  0  0  0
    5.4325    0.6433   19.8711 C   0  0  0  0  0  0  0  0  0  0  0  0
    4.9328    0.6543   20.8416 H   0  0  0  0  0  0  0  0  0  0  0  0
    7.0369   -0.4984   22.1844 C   0  0  0  0  0  0  0  0  0  0  0  0
    6.1230   -0.0975   22.5923 H   0  0  0  0  0  0  0  0  0  0  0  0
    8.1016   -1.1032   22.8336 C   0  0  0  0  0  0  0  0  0  0  0  0
  1  2  1  0
  2  3  2  0
  3  4  2  0
  4  5  1  0
  5  6  1  0
  6  7  1  0
  6  8  2  0
  8  9  1  0
  8 10  1  0
 10 11  1  0
 11 12  2  0
 12 13  1  0
 13 14  2  0
 14 15  1  0
 14 16  1  0
 16 17  2  0
 17 18  1  0
 17 19  1  0
 19 20  1  0
 19 21  2  0
 21 22  1  0
 12 23  1  0
 23 24  1  0
 23 25  2  0
 25  5  1  0
 25 10  1  0
 21 13  1  0
M  CHG  1   3   1
M  END
>  <cnnaffinity>  (1) 
-5.03852

>  <filename>  (1) 
N=[N+]=Nn1ccn2nc(-c3cccnc3)cc12

$$$$
