
     RDKit          3D

 25 26  0  0  0  0  0  0  0  0999 V2000
    9.3286   -0.1561   21.5699 H   0  0  0  0  0  0  0  0  0  0  0  0
    8.9303   -0.7158   20.7854 N   0  0  0  0  0  0  0  0  0  0  0  0
    7.3899   -0.6433   21.3296 S   0  0  1  0  0  6  0  0  0  0  0  0
    7.3365    0.0924   22.6041 O   0  0  0  0  0  0  0  0  0  0  0  0
    6.5114    0.1315   20.0507 C   0  0  0  0  0  0  0  0  0  0  0  0
    7.1614    0.0909   18.8228 C   0  0  0  0  0  0  0  0  0  0  0  0
    8.1385   -0.3755   18.7216 H   0  0  0  0  0  0  0  0  0  0  0  0
    6.6365    0.6269   17.7304 N   0  0  0  0  0  0  0  0  0  0  0  0
    5.4566    1.2521   17.8473 C   0  0  0  0  0  0  0  0  0  0  0  0
    5.0688    1.7005   16.9376 H   0  0  0  0  0  0  0  0  0  0  0  0
    4.7489    1.3448   19.0525 C   0  0  0  0  0  0  0  0  0  0  0  0
    3.8076    1.8835   19.0642 H   0  0  0  0  0  0  0  0  0  0  0  0
    5.2754    0.7748   20.2080 C   0  0  0  0  0  0  0  0  0  0  0  0
    4.7400    0.8573   21.1614 H   0  0  0  0  0  0  0  0  0  0  0  0
    6.8350   -2.4124   21.3132 C   0  0  0  0  0  0  0  0  0  0  0  0
    5.7494   -2.4287   21.4317 H   0  0  0  0  0  0  0  0  0  0  0  0
    7.1667   -2.7599   20.3277 H   0  0  0  0  0  0  0  0  0  0  0  0
    7.5753   -3.1536   22.3910 C   0  0  0  0  0  0  0  0  0  0  0  0
    6.8496   -4.0633   23.6716 S   0  0  0  0  0  0  0  0  0  0  0  0
    8.3945   -4.4203   24.3542 C   0  0  0  0  0  0  0  0  0  0  0  0
    8.4486   -4.9737   25.2852 H   0  0  0  0  0  0  0  0  0  0  0  0
    9.4140   -3.8946   23.6203 C   0  0  0  0  0  0  0  0  0  0  0  0
   10.4683   -3.9836   23.8803 H   0  0  0  0  0  0  0  0  0  0  0  0
    8.9320   -3.1623   22.4937 C   0  0  0  0  0  0  0  0  0  0  0  0
    9.5258   -2.5961   21.7749 H   0  0  0  0  0  0  0  0  0  0  0  0
  1  2  1  0
  2  3  2  0
  3  4  2  0
  3  5  1  0
  5  6  2  0
  6  7  1  0
  6  8  1  0
  8  9  2  0
  9 10  1  0
  9 11  1  0
 11 12  1  0
 11 13  2  0
 13 14  1  0
  3 15  1  1
 15 16  1  0
 15 17  1  0
 15 18  1  0
 18 19  1  0
 19 20  1  0
 20 21  1  0
 20 22  2  0
 22 23  1  0
 22 24  1  0
 24 25  1  0
 13  5  1  0
 24 18  2  0
M  END
>  <cnnaffinity>  (1) 
-4.24022

>  <filename>  (1) 
N=[S@](=O)(Cc1cccs1)c1cccnc1

$$$$
