
     RDKit          3D

 38 40  0  0  0  0  0  0  0  0999 V2000
   10.2711    1.3953   21.2211 H   0  0  0  0  0  0  0  0  0  0  0  0
    9.7842    0.5879   20.8317 N   0  0  0  0  0  0  0  0  0  0  0  0
    8.7512    0.4988   21.5669 C   0  0  0  0  0  0  0  0  0  0  0  0
    7.5411   -0.7926   21.1982 S   0  0  0  0  0  0  0  0  0  0  0  0
    6.6291   -0.0016   19.8747 C   0  0  0  0  0  0  0  0  0  0  0  0
    7.1434    0.0378   18.5647 C   0  0  0  0  0  0  0  0  0  0  0  0
    8.1049   -0.4343   18.3606 H   0  0  0  0  0  0  0  0  0  0  0  0
    6.5365    0.6620   17.5471 N   0  0  0  0  0  0  0  0  0  0  0  0
    5.3787    1.2910   17.8082 C   0  0  0  0  0  0  0  0  0  0  0  0
    4.9262    1.8205   16.9735 H   0  0  0  0  0  0  0  0  0  0  0  0
    4.7733    1.3035   19.0686 C   0  0  0  0  0  0  0  0  0  0  0  0
    3.8455    1.8458   19.2243 H   0  0  0  0  0  0  0  0  0  0  0  0
    5.4076    0.6372   20.1224 C   0  0  0  0  0  0  0  0  0  0  0  0
    4.9852    0.6381   21.1306 H   0  0  0  0  0  0  0  0  0  0  0  0
    8.5248    1.3393   22.6328 N   0  0  0  0  0  0  0  0  0  0  0  0
    9.6294    1.8199   23.4676 C   0  0  0  0  0  0  0  0  0  0  0  0
   10.5078    1.1808   23.3408 H   0  0  0  0  0  0  0  0  0  0  0  0
    9.9253    2.8415   23.1873 H   0  0  0  0  0  0  0  0  0  0  0  0
    9.2266    1.8088   24.9540 C   0  0  0  0  0  0  0  0  0  0  0  0
   10.0562    2.2489   25.5198 H   0  0  0  0  0  0  0  0  0  0  0  0
    9.1324    0.7592   25.2632 H   0  0  0  0  0  0  0  0  0  0  0  0
    7.9762    2.5388   25.2033 N   0  0  0  0  0  0  0  0  0  0  0  0
    7.5764    2.8558   26.4751 C   0  0  0  0  0  0  0  0  0  0  0  0
    6.7278    3.8845   26.6038 N   0  0  0  0  0  0  0  0  0  0  0  0
    6.4156    4.2615   27.8473 C   0  0  0  0  0  0  0  0  0  0  0  0
    5.7410    5.1091   27.9314 H   0  0  0  0  0  0  0  0  0  0  0  0
    6.8798    3.6357   29.0021 C   0  0  0  0  0  0  0  0  0  0  0  0
    6.6032    4.0216   29.9726 H   0  0  0  0  0  0  0  0  0  0  0  0
    7.6928    2.5078   28.8548 C   0  0  0  0  0  0  0  0  0  0  0  0
    8.1056    1.9827   29.7164 H   0  0  0  0  0  0  0  0  0  0  0  0
    8.0400    2.1012   27.5754 C   0  0  0  0  0  0  0  0  0  0  0  0
    8.6540    1.2302   27.3856 H   0  0  0  0  0  0  0  0  0  0  0  0
    7.1851    2.9282   24.0303 C   0  0  0  0  0  0  0  0  0  0  0  0
    7.5800    3.8567   23.5939 H   0  0  0  0  0  0  0  0  0  0  0  0
    6.1572    3.1259   24.3374 H   0  0  0  0  0  0  0  0  0  0  0  0
    7.1736    1.8222   22.9584 C   0  0  0  0  0  0  0  0  0  0  0  0
    6.6798    2.2161   22.0563 H   0  0  0  0  0  0  0  0  0  0  0  0
    6.5796    0.9764   23.3320 H   0  0  0  0  0  0  0  0  0  0  0  0
  1  2  1  0
  2  3  2  3
  3  4  1  0
  4  5  1  0
  5  6  2  0
  6  7  1  0
  6  8  1  0
  8  9  2  0
  9 10  1  0
  9 11  1  0
 11 12  1  0
 11 13  2  0
 13 14  1  0
  3 15  1  0
 15 16  1  0
 16 17  1  0
 16 18  1  0
 16 19  1  0
 19 20  1  0
 19 21  1  0
 19 22  1  0
 22 23  1  0
 23 24  2  0
 24 25  1  0
 25 26  1  0
 25 27  2  0
 27 28  1  0
 27 29  1  0
 29 30  1  0
 29 31  2  0
 31 32  1  0
 22 33  1  0
 33 34  1  0
 33 35  1  0
 33 36  1  0
 36 37  1  0
 36 38  1  0
 13  5  1  0
 36 15  1  0
 31 23  1  0
M  END
>  <cnnaffinity>  (1) 
-4.58071

>  <filename>  (1) 
N=C(Sc1cccnc1)N1CCN(c2ccccn2)CC1

$$$$
