
     RDKit          3D

 32 35  0  0  0  0  0  0  0  0999 V2000
    6.6688   -3.7699   20.4412 H   0  0  0  0  0  0  0  0  0  0  0  0
    6.5306   -2.7837   20.2695 N   0  0  0  0  0  0  0  0  0  0  0  0
    7.2395   -2.0942   21.0631 C   0  0  0  0  0  0  0  0  0  0  0  0
    8.2801   -2.6126   22.4149 S   0  0  0  0  0  0  0  0  0  0  0  0
    8.3551   -0.9892   23.0099 C   0  0  0  0  0  0  0  0  0  0  0  0
    8.8127   -0.8123   23.9734 H   0  0  0  0  0  0  0  0  0  0  0  0
    7.7783   -0.0853   22.1812 C   0  0  0  0  0  0  0  0  0  0  0  0
    7.7909    1.3782   22.3642 C   0  0  0  0  0  0  0  0  0  0  0  0
    7.7254    1.8484   23.6536 O   0  0  0  0  0  0  0  0  0  0  0  0
    7.7130    3.2102   23.5762 C   0  0  0  0  0  0  0  0  0  0  0  0
    7.5918    4.0850   24.6579 C   0  0  0  0  0  0  0  0  0  0  0  0
    7.4887    3.6972   25.6650 H   0  0  0  0  0  0  0  0  0  0  0  0
    7.6048    5.4494   24.3626 C   0  0  0  0  0  0  0  0  0  0  0  0
    7.5255    6.1680   25.1733 H   0  0  0  0  0  0  0  0  0  0  0  0
    7.7210    5.9182   23.0340 C   0  0  0  0  0  0  0  0  0  0  0  0
    7.7202    6.9900   22.8437 H   0  0  0  0  0  0  0  0  0  0  0  0
    7.8304    5.0302   21.9682 C   0  0  0  0  0  0  0  0  0  0  0  0
    7.9089    5.4041   20.9499 H   0  0  0  0  0  0  0  0  0  0  0  0
    7.8324    3.6407   22.2426 C   0  0  0  0  0  0  0  0  0  0  0  0
    7.9079    2.4167   21.4898 C   0  0  0  0  0  0  0  0  0  0  0  0
    7.9900    2.2530   20.4277 H   0  0  0  0  0  0  0  0  0  0  0  0
    7.2532   -0.6983   21.0151 N   0  0  0  0  0  0  0  0  0  0  0  0
    6.6013   -0.0078   19.9268 C   0  0  0  0  0  0  0  0  0  0  0  0
    7.1528    0.0347   18.6238 C   0  0  0  0  0  0  0  0  0  0  0  0
    8.0933   -0.4783   18.4198 H   0  0  0  0  0  0  0  0  0  0  0  0
    6.5727    0.6662   17.5926 N   0  0  0  0  0  0  0  0  0  0  0  0
    5.4059    1.2936   17.8213 C   0  0  0  0  0  0  0  0  0  0  0  0
    4.9693    1.8116   16.9703 H   0  0  0  0  0  0  0  0  0  0  0  0
    4.7639    1.2955   19.0651 C   0  0  0  0  0  0  0  0  0  0  0  0
    3.8169    1.8151   19.1864 H   0  0  0  0  0  0  0  0  0  0  0  0
    5.3694    0.6276   20.1370 C   0  0  0  0  0  0  0  0  0  0  0  0
    4.9233    0.5944   21.1317 H   0  0  0  0  0  0  0  0  0  0  0  0
  1  2  1  0
  2  3  2  3
  3  4  1  0
  4  5  1  0
  5  6  1  0
  5  7  2  0
  7  8  1  0
  8  9  1  0
  9 10  1  0
 10 11  2  0
 11 12  1  0
 11 13  1  0
 13 14  1  0
 13 15  2  0
 15 16  1  0
 15 17  1  0
 17 18  1  0
 17 19  2  0
 19 20  1  0
 20 21  1  0
  7 22  1  0
 22 23  1  0
 23 24  2  0
 24 25  1  0
 24 26  1  0
 26 27  2  0
 27 28  1  0
 27 29  1  0
 29 30  1  0
 29 31  2  0
 31 32  1  0
 22  3  1  0
 31 23  1  0
 20  8  2  0
 19 10  1  0
M  END
>  <cnnaffinity>  (1) 
-4.66944

>  <filename>  (1) 
N=c1scc(-c2cc3ccccc3o2)n1-c1cccnc1

$$$$
