
     RDKit          3D

 34 36  0  0  0  0  0  0  0  0999 V2000
    9.0215    0.1055   24.2932 H   0  0  0  0  0  0  0  0  0  0  0  0
    9.1838   -0.8788   24.0603 N   0  0  0  0  0  0  0  0  0  0  0  0
    8.5239   -1.1136   23.0053 C   0  0  0  0  0  0  0  0  0  0  0  0
    8.4554   -2.7132   22.2523 S   0  0  0  0  0  0  0  0  0  0  0  0
    7.5068   -2.1013   20.9446 C   0  0  0  0  0  0  0  0  0  0  0  0
    7.1378   -2.7547   20.1711 H   0  0  0  0  0  0  0  0  0  0  0  0
    7.2575   -0.7851   21.0356 C   0  0  0  0  0  0  0  0  0  0  0  0
    6.6097    0.0188   19.9813 C   0  0  0  0  0  0  0  0  0  0  0  0
    7.1834    0.0644   18.6945 C   0  0  0  0  0  0  0  0  0  0  0  0
    8.1570   -0.3843   18.5022 H   0  0  0  0  0  0  0  0  0  0  0  0
    6.6207    0.6658   17.6405 N   0  0  0  0  0  0  0  0  0  0  0  0
    5.4516    1.2899   17.8431 C   0  0  0  0  0  0  0  0  0  0  0  0
    5.0163    1.7772   16.9753 H   0  0  0  0  0  0  0  0  0  0  0  0
    4.8063    1.3364   19.0816 C   0  0  0  0  0  0  0  0  0  0  0  0
    3.8797    1.8870   19.1886 H   0  0  0  0  0  0  0  0  0  0  0  0
    5.3979    0.7031   20.1758 C   0  0  0  0  0  0  0  0  0  0  0  0
    4.9273    0.7389   21.1609 H   0  0  0  0  0  0  0  0  0  0  0  0
    7.7263   -0.2276   22.2338 N   0  0  0  0  0  0  0  0  0  0  0  0
    7.3526    1.1491   22.7168 N   0  0  0  0  0  0  0  0  0  0  0  0
    6.9596    1.6856   21.9392 H   0  0  0  0  0  0  0  0  0  0  0  0
    6.0861    1.6326   23.8223 S   0  0  0  0  0  0  0  0  0  0  0  0
    5.4907    0.4755   24.4422 O   0  0  0  0  0  0  0  0  0  0  0  0
    5.3359    2.5781   23.0076 O   0  0  0  0  0  0  0  0  0  0  0  0
    7.0377    2.5267   25.0276 C   0  0  0  0  0  0  0  0  0  0  0  0
    7.9881    3.4801   24.6269 C   0  0  0  0  0  0  0  0  0  0  0  0
    8.3162    3.5663   23.5921 H   0  0  0  0  0  0  0  0  0  0  0  0
    8.5504    4.3316   25.5803 C   0  0  0  0  0  0  0  0  0  0  0  0
    9.2609    5.0838   25.2496 H   0  0  0  0  0  0  0  0  0  0  0  0
    8.1955    4.2174   26.9289 C   0  0  0  0  0  0  0  0  0  0  0  0
    8.6134    4.8881   27.6745 H   0  0  0  0  0  0  0  0  0  0  0  0
    7.2927    3.2242   27.3225 C   0  0  0  0  0  0  0  0  0  0  0  0
    7.0230    3.1176   28.3668 H   0  0  0  0  0  0  0  0  0  0  0  0
    6.7153    2.3699   26.3828 C   0  0  0  0  0  0  0  0  0  0  0  0
    6.0212    1.5972   26.7083 H   0  0  0  0  0  0  0  0  0  0  0  0
  1  2  1  0
  2  3  2  3
  3  4  1  0
  4  5  1  0
  5  6  1  0
  5  7  2  0
  7  8  1  0
  8  9  2  0
  9 10  1  0
  9 11  1  0
 11 12  2  0
 12 13  1  0
 12 14  1  0
 14 15  1  0
 14 16  2  0
 16 17  1  0
  7 18  1  0
 18 19  1  0
 19 20  1  0
 19 21  1  0
 21 22  2  0
 21 23  2  0
 21 24  1  0
 24 25  2  0
 25 26  1  0
 25 27  1  0
 27 28  1  0
 27 29  2  0
 29 30  1  0
 29 31  1  0
 31 32  1  0
 31 33  2  0
 33 34  1  0
 18  3  1  0
 33 24  1  0
 16  8  1  0
M  END
>  <cnnaffinity>  (1) 
-4.90963

>  <filename>  (1) 
N=c1scc(-c2cccnc2)n1NS(=O)(=O)c1ccccc1

$$$$
