
     RDKit          3D

 31 32  0  0  0  0  0  0  0  0999 V2000
    7.3671    0.6773   24.3768 H   0  0  0  0  0  0  0  0  0  0  0  0
    8.1655    0.1733   24.6251 O   0  0  0  0  0  0  0  0  0  0  0  0
    7.6944   -1.0529   24.3450 C   0  0  0  0  0  0  0  0  0  0  0  0
    6.5617   -1.1171   23.9106 O   0  0  0  0  0  0  0  0  0  0  0  0
    8.7752   -2.1870   24.4175 C   0  0  1  0  0  0  0  0  0  0  0  0
    9.6758   -1.6655   24.7790 H   0  0  0  0  0  0  0  0  0  0  0  0
    8.5035   -3.4437   25.1664 N   0  0  0  0  0  0  0  0  0  0  0  0
    9.3318   -4.0338   25.0799 H   0  0  0  0  0  0  0  0  0  0  0  0
    8.3837   -3.3062   26.1696 H   0  0  0  0  0  0  0  0  0  0  0  0
    8.9551   -2.6455   22.9468 C   0  0  0  0  0  0  0  0  0  0  0  0
    9.6850   -3.4629   22.9416 H   0  0  0  0  0  0  0  0  0  0  0  0
    8.0062   -3.0759   22.6141 H   0  0  0  0  0  0  0  0  0  0  0  0
    9.3815   -1.5659   22.0088 C   0  0  0  0  0  0  0  0  0  0  0  0
    8.6688   -0.7007   21.1925 C   0  0  0  0  0  0  0  0  0  0  0  0
    7.2880   -0.7617   20.9415 N   0  0  0  0  0  0  0  0  0  0  0  0
    6.7179   -0.8606   21.7810 H   0  0  0  0  0  0  0  0  0  0  0  0
    6.6557   -0.0703   19.8922 C   0  0  0  0  0  0  0  0  0  0  0  0
    7.1665    0.0075   18.5698 C   0  0  0  0  0  0  0  0  0  0  0  0
    8.1123   -0.4776   18.3273 H   0  0  0  0  0  0  0  0  0  0  0  0
    6.5637    0.6656   17.5662 N   0  0  0  0  0  0  0  0  0  0  0  0
    5.4093    1.2974   17.8393 C   0  0  0  0  0  0  0  0  0  0  0  0
    4.9478    1.8371   17.0151 H   0  0  0  0  0  0  0  0  0  0  0  0
    4.8152    1.2774   19.1057 C   0  0  0  0  0  0  0  0  0  0  0  0
    3.8887    1.8163   19.2673 H   0  0  0  0  0  0  0  0  0  0  0  0
    5.4401    0.5794   20.1448 C   0  0  0  0  0  0  0  0  0  0  0  0
    5.0186    0.5682   21.1505 H   0  0  0  0  0  0  0  0  0  0  0  0
    9.6482    0.2084   20.7096 C   0  0  0  0  0  0  0  0  0  0  0  0
    9.4842    1.0567   20.0633 H   0  0  0  0  0  0  0  0  0  0  0  0
   10.8657   -0.0728   21.1599 N   0  0  0  0  0  0  0  0  0  0  0  0
   10.6756   -1.1491   21.9328 N   0  0  0  0  0  0  0  0  0  0  0  0
   11.4828   -1.5820   22.3602 H   0  0  0  0  0  0  0  0  0  0  0  0
  1  2  1  0
  2  3  1  0
  3  4  2  0
  3  5  1  0
  5  6  1  1
  5  7  1  0
  7  8  1  0
  7  9  1  0
  5 10  1  0
 10 11  1  0
 10 12  1  0
 10 13  1  0
 13 14  2  0
 14 15  1  0
 15 16  1  0
 15 17  1  0
 17 18  2  0
 18 19  1  0
 18 20  1  0
 20 21  2  0
 21 22  1  0
 21 23  1  0
 23 24  1  0
 23 25  2  0
 25 26  1  0
 14 27  1  0
 27 28  1  0
 27 29  2  0
 29 30  1  0
 30 31  1  0
 30 13  1  0
 25 17  1  0
M  END
>  <cnnaffinity>  (1) 
-4.88536

>  <filename>  (1) 
N[C@@H](Cc1[nH]ncc1Nc1cccnc1)C(=O)O

$$$$
