
     RDKit          3D

 26 28  0  0  0  0  0  0  0  0999 V2000
    4.9251    1.7810   16.9976 H   0  0  0  0  0  0  0  0  0  0  0  0
    5.4045    1.2905   17.8424 C   0  0  0  0  0  0  0  0  0  0  0  0
    6.5724    0.6725   17.5924 N   0  0  0  0  0  0  0  0  0  0  0  0
    7.1813    0.0524   18.6074 C   0  0  0  0  0  0  0  0  0  0  0  0
    8.1256   -0.4393   18.3825 H   0  0  0  0  0  0  0  0  0  0  0  0
    6.6591    0.0090   19.9140 C   0  0  0  0  0  0  0  0  0  0  0  0
    7.3545   -0.6833   20.9417 N   0  0  0  0  0  0  0  0  0  0  0  0
    7.9686   -1.8650   20.7132 N   0  0  0  0  0  0  0  0  0  0  0  0
    8.5156   -2.2585   21.8189 N   0  0  0  0  0  0  0  0  0  0  0  0
    8.2680   -1.3308   22.7751 C   0  0  0  0  0  0  0  0  0  0  0  0
    8.6519   -1.4043   23.7831 H   0  0  0  0  0  0  0  0  0  0  0  0
    7.5239   -0.3100   22.2458 C   0  0  0  0  0  0  0  0  0  0  0  0
    7.1475    0.9934   22.8275 C   0  0  1  0  0  0  0  0  0  0  0  0
    6.1311    1.0291   23.2097 H   0  0  0  0  0  0  0  0  0  0  0  0
    8.1575    1.7267   23.6725 C   0  0  0  0  0  0  0  0  0  0  0  0
    7.8440    2.2002   24.5965 H   0  0  0  0  0  0  0  0  0  0  0  0
    9.1534    1.2964   23.6951 H   0  0  0  0  0  0  0  0  0  0  0  0
    7.7446    2.2951   22.3569 C   0  0  1  0  0  0  0  0  0  0  0  0
    7.0776    3.1634   22.4019 H   0  0  0  0  0  0  0  0  0  0  0  0
    8.7170    2.1973   21.3019 N   0  0  0  0  0  0  0  0  0  0  0  0
    9.4295    2.9108   21.4257 H   0  0  0  0  0  0  0  0  0  0  0  0
    8.2668    2.3659   20.4094 H   0  0  0  0  0  0  0  0  0  0  0  0
    5.4465    0.6588   20.1740 C   0  0  0  0  0  0  0  0  0  0  0  0
    4.9976    0.6339   21.1691 H   0  0  0  0  0  0  0  0  0  0  0  0
    4.8148    1.3066   19.1104 C   0  0  0  0  0  0  0  0  0  0  0  0
    3.8821    1.8337   19.2608 H   0  0  0  0  0  0  0  0  0  0  0  0
  1  2  1  0
  2  3  2  0
  3  4  1  0
  4  5  1  0
  4  6  2  0
  6  7  1  0
  7  8  1  0
  8  9  2  0
  9 10  1  0
 10 11  1  0
 10 12  2  0
 12 13  1  0
 13 14  1  1
 13 15  1  0
 15 16  1  0
 15 17  1  0
 15 18  1  0
 18 19  1  1
 18 20  1  0
 20 21  1  0
 20 22  1  0
  6 23  1  0
 23 24  1  0
 23 25  2  0
 25 26  1  0
 25  2  1  0
 12  7  1  0
 18 13  1  0
M  END
>  <cnnaffinity>  (1) 
-4.65702

>  <filename>  (1) 
N[C@@H]1C[C@@H]1c1cnnn1-c1cccnc1

$$$$
