
     RDKit          3D

 29 30  0  0  0  0  0  0  0  0999 V2000
    8.2789   -5.7954   22.0270 H   0  0  0  0  0  0  0  0  0  0  0  0
    7.5171   -5.1945   22.1239 O   0  0  0  0  0  0  0  0  0  0  0  0
    7.8305   -4.8198   23.3787 C   0  0  0  0  0  0  0  0  0  0  0  0
    8.8774   -5.2391   23.8230 O   0  0  0  0  0  0  0  0  0  0  0  0
    6.8010   -3.8988   24.0956 C   0  0  1  0  0  0  0  0  0  0  0  0
    5.9770   -3.8062   23.3787 H   0  0  0  0  0  0  0  0  0  0  0  0
    6.2595   -4.3447   25.4033 N   0  0  0  0  0  0  0  0  0  0  0  0
    7.0251   -4.4927   26.0666 H   0  0  0  0  0  0  0  0  0  0  0  0
    5.7599   -5.2320   25.3190 H   0  0  0  0  0  0  0  0  0  0  0  0
    7.4242   -2.4976   24.2893 C   0  0  0  0  0  0  0  0  0  0  0  0
    8.2834   -2.5892   24.9693 H   0  0  0  0  0  0  0  0  0  0  0  0
    6.6731   -1.8950   24.8133 H   0  0  0  0  0  0  0  0  0  0  0  0
    7.8263   -1.8348   22.9907 C   0  0  0  0  0  0  0  0  0  0  0  0
    9.0731   -1.8661   22.4360 C   0  0  0  0  0  0  0  0  0  0  0  0
    9.9672   -2.3160   22.8585 H   0  0  0  0  0  0  0  0  0  0  0  0
    9.1151   -1.1014   20.8861 S   0  0  0  0  0  0  0  0  0  0  0  0
    7.4214   -0.7082   20.9614 C   0  0  0  0  0  0  0  0  0  0  0  0
    6.6886    0.0054   19.8919 C   0  0  0  0  0  0  0  0  0  0  0  0
    7.1824    0.0621   18.5695 C   0  0  0  0  0  0  0  0  0  0  0  0
    8.1272   -0.4227   18.3288 H   0  0  0  0  0  0  0  0  0  0  0  0
    6.5595    0.6800   17.5595 N   0  0  0  0  0  0  0  0  0  0  0  0
    5.3976    1.2940   17.8319 C   0  0  0  0  0  0  0  0  0  0  0  0
    4.9222    1.7965   16.9932 H   0  0  0  0  0  0  0  0  0  0  0  0
    4.8089    1.3067   19.1009 C   0  0  0  0  0  0  0  0  0  0  0  0
    3.8750    1.8372   19.2535 H   0  0  0  0  0  0  0  0  0  0  0  0
    5.4614    0.6484   20.1455 C   0  0  0  0  0  0  0  0  0  0  0  0
    5.0290    0.6491   21.1435 H   0  0  0  0  0  0  0  0  0  0  0  0
    6.8949   -1.1751   22.1260 C   0  0  0  0  0  0  0  0  0  0  0  0
    5.8512   -1.0628   22.3449 H   0  0  0  0  0  0  0  0  0  0  0  0
  1  2  1  0
  2  3  1  0
  3  4  2  0
  3  5  1  0
  5  6  1  6
  5  7  1  0
  7  8  1  0
  7  9  1  0
  5 10  1  0
 10 11  1  0
 10 12  1  0
 10 13  1  0
 13 14  2  0
 14 15  1  0
 14 16  1  0
 16 17  1  0
 17 18  1  0
 18 19  2  0
 19 20  1  0
 19 21  1  0
 21 22  2  0
 22 23  1  0
 22 24  1  0
 24 25  1  0
 24 26  2  0
 26 27  1  0
 17 28  2  0
 28 29  1  0
 28 13  1  0
 26 18  1  0
M  END
>  <cnnaffinity>  (1) 
-4.70321

>  <filename>  (1) 
N[C@@H](Cc1csc(-c2cccnc2)c1)C(=O)O

$$$$
