
     RDKit          3D

 25 26  0  0  0  0  0  0  0  0999 V2000
    4.9548    1.8324   16.9809 H   0  0  0  0  0  0  0  0  0  0  0  0
    5.4180    1.3280   17.8254 C   0  0  0  0  0  0  0  0  0  0  0  0
    6.5902    0.7130   17.5734 N   0  0  0  0  0  0  0  0  0  0  0  0
    7.1774    0.0790   18.5944 C   0  0  0  0  0  0  0  0  0  0  0  0
    8.1120   -0.4306   18.3763 H   0  0  0  0  0  0  0  0  0  0  0  0
    6.6598    0.0273   19.9186 C   0  0  0  0  0  0  0  0  0  0  0  0
    7.2464   -0.7910   20.8966 N   0  0  0  0  0  0  0  0  0  0  0  0
    7.6116   -0.4006   22.0337 C   0  0  0  0  0  0  0  0  0  0  0  0
    7.7877    0.8559   22.5502 N   0  0  0  0  0  0  0  0  0  0  0  0
    7.2265    1.4910   22.0013 H   0  0  0  0  0  0  0  0  0  0  0  0
    7.4404    0.7859   23.4913 H   0  0  0  0  0  0  0  0  0  0  0  0
    7.9844   -1.2572   23.0157 N   0  0  0  0  0  0  0  0  0  0  0  0
    8.7011   -0.8244   23.5532 H   0  0  0  0  0  0  0  0  0  0  0  0
    8.0857   -2.6017   22.7800 C   0  0  0  0  0  0  0  0  0  0  0  0
    8.9611   -3.2438   23.5677 O   0  0  0  0  0  0  0  0  0  0  0  0
    8.8484   -4.5751   23.2484 C   0  0  0  0  0  0  0  0  0  0  0  0
    9.4822   -5.2581   23.7972 H   0  0  0  0  0  0  0  0  0  0  0  0
    7.9204   -4.7476   22.2816 C   0  0  0  0  0  0  0  0  0  0  0  0
    7.6124   -5.6946   21.8580 H   0  0  0  0  0  0  0  0  0  0  0  0
    7.4162   -3.4459   21.9627 C   0  0  0  0  0  0  0  0  0  0  0  0
    6.6893   -3.1257   21.2387 H   0  0  0  0  0  0  0  0  0  0  0  0
    5.4427    0.6805   20.1531 C   0  0  0  0  0  0  0  0  0  0  0  0
    4.9993    0.6364   21.1488 H   0  0  0  0  0  0  0  0  0  0  0  0
    4.8133    1.3358   19.0865 C   0  0  0  0  0  0  0  0  0  0  0  0
    3.8745    1.8578   19.2344 H   0  0  0  0  0  0  0  0  0  0  0  0
  1  2  1  0
  2  3  2  0
  3  4  1  0
  4  5  1  0
  4  6  2  0
  6  7  1  0
  7  8  2  3
  8  9  1  0
  9 10  1  0
  9 11  1  0
  8 12  1  0
 12 13  1  0
 12 14  1  0
 14 15  1  0
 15 16  1  0
 16 17  1  0
 16 18  2  0
 18 19  1  0
 18 20  1  0
 20 21  1  0
  6 22  1  0
 22 23  1  0
 22 24  2  0
 24 25  1  0
 24  2  1  0
 20 14  2  0
M  END
>  <cnnaffinity>  (1) 
-4.08581

>  <filename>  (1) 
NC(=Nc1cccnc1)Nc1ccco1

$$$$
