
     RDKit          3D

 28 29  0  0  0  0  0  0  0  0999 V2000
    5.0540    1.7688   16.9856 H   0  0  0  0  0  0  0  0  0  0  0  0
    5.5306    1.2903   17.8358 C   0  0  0  0  0  0  0  0  0  0  0  0
    6.7111    0.6921   17.5950 N   0  0  0  0  0  0  0  0  0  0  0  0
    7.3167    0.0887   18.6200 C   0  0  0  0  0  0  0  0  0  0  0  0
    8.2697   -0.4006   18.4064 H   0  0  0  0  0  0  0  0  0  0  0  0
    6.7645   -0.0024   19.9084 C   0  0  0  0  0  0  0  0  0  0  0  0
    7.5091   -0.7692   20.9184 C   0  0  0  0  0  0  0  0  0  0  0  0
    7.1155   -1.9690   21.4727 C   0  0  0  0  0  0  0  0  0  0  0  0
    5.7912   -2.6133   21.1097 C   0  0  0  0  0  0  0  0  0  0  0  0
    5.4748   -3.2980   21.8965 H   0  0  0  0  0  0  0  0  0  0  0  0
    5.0712   -1.7985   21.1018 H   0  0  0  0  0  0  0  0  0  0  0  0
    5.6921   -3.4022   19.7944 C   0  0  0  0  0  0  0  0  0  0  0  0
    5.7835   -4.6155   19.7326 O   0  0  0  0  0  0  0  0  0  0  0  0
    5.3969   -2.7010   18.6794 N   0  0  0  0  0  0  0  0  0  0  0  0
    5.3389   -1.7035   18.6831 H   0  0  0  0  0  0  0  0  0  0  0  0
    5.2984   -3.2455   17.8369 H   0  0  0  0  0  0  0  0  0  0  0  0
    7.9288   -2.5386   22.5095 C   0  0  0  0  0  0  0  0  0  0  0  0
    7.6087   -3.4727   22.9785 H   0  0  0  0  0  0  0  0  0  0  0  0
    9.0616   -1.9153   22.9366 C   0  0  0  0  0  0  0  0  0  0  0  0
    9.6616   -2.2616   23.7656 H   0  0  0  0  0  0  0  0  0  0  0  0
    9.4964   -0.6629   22.3374 C   0  0  0  0  0  0  0  0  0  0  0  0
   10.4375    0.0195   22.7013 O   0  0  0  0  0  0  0  0  0  0  0  0
    8.7321   -0.2368   21.2614 N   0  0  0  0  0  0  0  0  0  0  0  0
    8.9717    0.7047   21.0013 H   0  0  0  0  0  0  0  0  0  0  0  0
    5.5358    0.6399   20.1485 C   0  0  0  0  0  0  0  0  0  0  0  0
    5.0985    0.6334   21.1496 H   0  0  0  0  0  0  0  0  0  0  0  0
    4.9104    1.2956   19.0872 C   0  0  0  0  0  0  0  0  0  0  0  0
    3.9584    1.7979   19.2207 H   0  0  0  0  0  0  0  0  0  0  0  0
  1  2  1  0
  2  3  2  0
  3  4  1  0
  4  5  1  0
  4  6  2  0
  6  7  1  0
  7  8  2  0
  8  9  1  0
  9 10  1  0
  9 11  1  0
  9 12  1  0
 12 13  2  0
 12 14  1  0
 14 15  1  0
 14 16  1  0
  8 17  1  0
 17 18  1  0
 17 19  2  0
 19 20  1  0
 19 21  1  0
 21 22  2  0
 21 23  1  0
 23 24  1  0
  6 25  1  0
 25 26  1  0
 25 27  2  0
 27 28  1  0
 27  2  1  0
 23  7  1  0
M  END
>  <cnnaffinity>  (1) 
-4.86966

>  <filename>  (1) 
NC(=O)Cc1ccc(=O)[nH]c1-c1cccnc1

$$$$
