
     RDKit          3D

 28 29  0  0  0  0  0  0  0  0999 V2000
    6.1312   -6.9193   21.4668 H   0  0  0  0  0  0  0  0  0  0  0  0
    5.8240   -6.0271   22.0140 C   0  0  0  0  0  0  0  0  0  0  0  0
    5.8772   -4.8786   21.3282 N   0  0  0  0  0  0  0  0  0  0  0  0
    5.6094   -3.7368   21.9913 C   0  0  0  0  0  0  0  0  0  0  0  0
    5.8262   -2.4145   21.2545 C   0  0  0  0  0  0  0  0  0  0  0  0
    4.9859   -1.7491   21.4771 H   0  0  0  0  0  0  0  0  0  0  0  0
    5.7822   -2.6480   20.1803 H   0  0  0  0  0  0  0  0  0  0  0  0
    7.0891   -1.7280   21.6027 N   0  0  0  0  0  0  0  0  0  0  0  0
    7.4426   -0.7295   20.9012 C   0  0  0  0  0  0  0  0  0  0  0  0
    6.6637    0.0411   19.9160 C   0  0  0  0  0  0  0  0  0  0  0  0
    7.1963    0.0795   18.6292 C   0  0  0  0  0  0  0  0  0  0  0  0
    8.1506   -0.4003   18.4219 H   0  0  0  0  0  0  0  0  0  0  0  0
    6.5962    0.6749   17.5968 N   0  0  0  0  0  0  0  0  0  0  0  0
    5.4302    1.2956   17.8347 C   0  0  0  0  0  0  0  0  0  0  0  0
    4.9624    1.7718   16.9760 H   0  0  0  0  0  0  0  0  0  0  0  0
    4.8120    1.3239   19.0914 C   0  0  0  0  0  0  0  0  0  0  0  0
    3.8674    1.8458   19.2155 H   0  0  0  0  0  0  0  0  0  0  0  0
    5.4313    0.6743   20.1604 C   0  0  0  0  0  0  0  0  0  0  0  0
    4.9811    0.6961   21.1579 H   0  0  0  0  0  0  0  0  0  0  0  0
    8.7514   -0.3232   21.0596 N   0  0  0  0  0  0  0  0  0  0  0  0
    9.0185   -0.6803   21.9694 H   0  0  0  0  0  0  0  0  0  0  0  0
    8.8581    0.6680   20.9655 H   0  0  0  0  0  0  0  0  0  0  0  0
    5.1561   -3.7353   23.3209 C   0  0  0  0  0  0  0  0  0  0  0  0
    4.9011   -2.7970   23.8034 H   0  0  0  0  0  0  0  0  0  0  0  0
    5.0730   -4.9401   24.0181 C   0  0  0  0  0  0  0  0  0  0  0  0
    4.7437   -4.9525   25.0593 H   0  0  0  0  0  0  0  0  0  0  0  0
    5.4328   -6.1157   23.3527 C   0  0  0  0  0  0  0  0  0  0  0  0
    5.4302   -7.0805   23.8481 H   0  0  0  0  0  0  0  0  0  0  0  0
  1  2  1  0
  2  3  2  0
  3  4  1  0
  4  5  1  0
  5  6  1  0
  5  7  1  0
  5  8  1  0
  8  9  2  3
  9 10  1  0
 10 11  2  0
 11 12  1  0
 11 13  1  0
 13 14  2  0
 14 15  1  0
 14 16  1  0
 16 17  1  0
 16 18  2  0
 18 19  1  0
  9 20  1  0
 20 21  1  0
 20 22  1  0
  4 23  2  0
 23 24  1  0
 23 25  1  0
 25 26  1  0
 25 27  2  0
 27 28  1  0
 27  2  1  0
 18 10  1  0
M  END
>  <cnnaffinity>  (1) 
-4.37557

>  <filename>  (1) 
NC(=NCc1ccccn1)c1cccnc1

$$$$
