
     RDKit          3D

 32 34  0  0  0  0  0  0  0  0999 V2000
    4.9589    2.0098   17.0244 H   0  0  0  0  0  0  0  0  0  0  0  0
    5.4757    1.4197   17.7803 C   0  0  0  0  0  0  0  0  0  0  0  0
    6.5800    0.7690   17.3738 N   0  0  0  0  0  0  0  0  0  0  0  0
    7.2159    0.0051   18.2738 C   0  0  0  0  0  0  0  0  0  0  0  0
    8.1197   -0.4978   17.9328 H   0  0  0  0  0  0  0  0  0  0  0  0
    6.8018   -0.1663   19.6241 C   0  0  0  0  0  0  0  0  0  0  0  0
    7.4113   -1.0592   20.5374 N   0  0  0  0  0  0  0  0  0  0  0  0
    8.4801   -0.7689   21.1573 C   0  0  0  0  0  0  0  0  0  0  0  0
    9.2518    0.3712   21.0534 N   0  0  0  0  0  0  0  0  0  0  0  0
    8.8442    0.9799   20.3638 H   0  0  0  0  0  0  0  0  0  0  0  0
   10.1575    0.0308   20.7648 H   0  0  0  0  0  0  0  0  0  0  0  0
    9.1434   -1.5748   22.0475 N   0  0  0  0  0  0  0  0  0  0  0  0
    9.6499   -0.9320   22.6230 H   0  0  0  0  0  0  0  0  0  0  0  0
    8.5938   -2.6800   22.6845 C   0  0  0  0  0  0  0  0  0  0  0  0
    8.7790   -3.1590   23.9454 C   0  0  0  0  0  0  0  0  0  0  0  0
    9.4948   -2.8009   24.6707 H   0  0  0  0  0  0  0  0  0  0  0  0
    7.8154   -4.2252   24.1063 C   0  0  0  0  0  0  0  0  0  0  0  0
    7.3603   -5.0064   25.1927 C   0  0  0  0  0  0  0  0  0  0  0  0
    7.7808   -4.8460   26.1848 H   0  0  0  0  0  0  0  0  0  0  0  0
    6.3294   -5.9207   24.9879 C   0  0  0  0  0  0  0  0  0  0  0  0
    5.9954   -6.5562   25.8086 H   0  0  0  0  0  0  0  0  0  0  0  0
    5.7185   -6.0610   23.7170 C   0  0  0  0  0  0  0  0  0  0  0  0
    4.9019   -6.7709   23.5943 H   0  0  0  0  0  0  0  0  0  0  0  0
    6.1238   -5.2791   22.6366 C   0  0  0  0  0  0  0  0  0  0  0  0
    5.6408   -5.3482   21.6673 H   0  0  0  0  0  0  0  0  0  0  0  0
    7.1459   -4.3546   22.8594 C   0  0  0  0  0  0  0  0  0  0  0  0
    7.6787   -3.4163   21.9925 N   0  0  0  0  0  0  0  0  0  0  0  0
    7.2154   -2.9330   21.2293 H   0  0  0  0  0  0  0  0  0  0  0  0
    5.6487    0.5346   20.0208 C   0  0  0  0  0  0  0  0  0  0  0  0
    5.3148    0.4267   21.0542 H   0  0  0  0  0  0  0  0  0  0  0  0
    4.9761    1.3311   19.0861 C   0  0  0  0  0  0  0  0  0  0  0  0
    4.0763    1.8724   19.3603 H   0  0  0  0  0  0  0  0  0  0  0  0
  1  2  1  0
  2  3  2  0
  3  4  1  0
  4  5  1  0
  4  6  2  0
  6  7  1  0
  7  8  2  3
  8  9  1  0
  9 10  1  0
  9 11  1  0
  8 12  1  0
 12 13  1  0
 12 14  1  0
 14 15  2  0
 15 16  1  0
 15 17  1  0
 17 18  2  0
 18 19  1  0
 18 20  1  0
 20 21  1  0
 20 22  2  0
 22 23  1  0
 22 24  1  0
 24 25  1  0
 24 26  2  0
 26 27  1  0
 27 28  1  0
  6 29  1  0
 29 30  1  0
 29 31  2  0
 31 32  1  0
 31  2  1  0
 27 14  1  0
 26 17  1  0
M  END
>  <cnnaffinity>  (1) 
-4.75007

>  <filename>  (1) 
NC(=Nc1cccnc1)Nc1cc2ccccc2[nH]1

$$$$
