
     RDKit          3D

 37 39  0  0  0  0  0  0  0  0999 V2000
    4.9344    1.8109   16.9182 H   0  0  0  0  0  0  0  0  0  0  0  0
    5.3931    1.3255   17.7777 C   0  0  0  0  0  0  0  0  0  0  0  0
    6.5363    0.6620   17.5378 N   0  0  0  0  0  0  0  0  0  0  0  0
    7.1169    0.0505   18.5791 C   0  0  0  0  0  0  0  0  0  0  0  0
    8.0472   -0.4781   18.3669 H   0  0  0  0  0  0  0  0  0  0  0  0
    6.6229    0.0732   19.9036 C   0  0  0  0  0  0  0  0  0  0  0  0
    7.3103   -0.6815   20.9973 C   0  0  0  0  0  0  0  0  0  0  0  0
    7.4076   -2.1075   20.9243 C   0  0  0  0  0  0  0  0  0  0  0  0
    6.9138   -2.6011   20.0845 H   0  0  0  0  0  0  0  0  0  0  0  0
    8.0542   -2.8454   21.8771 C   0  0  0  0  0  0  0  0  0  0  0  0
    8.1448   -3.9197   21.8719 H   0  0  0  0  0  0  0  0  0  0  0  0
    8.6741   -2.1877   23.0154 C   0  0  0  0  0  0  0  0  0  0  0  0
    9.2639   -2.7224   23.9391 O   0  0  0  0  0  0  0  0  0  0  0  0
    8.5602   -0.8146   23.0232 N   0  0  0  0  0  0  0  0  0  0  0  0
    8.9190   -0.3876   23.8603 H   0  0  0  0  0  0  0  0  0  0  0  0
    7.9082   -0.0641   22.0985 C   0  0  0  0  0  0  0  0  0  0  0  0
    7.8857    1.2680   22.3467 N   0  0  0  0  0  0  0  0  0  0  0  0
    7.0007    1.7502   22.2118 H   0  0  0  0  0  0  0  0  0  0  0  0
    8.7856    2.0542   23.0634 C   0  0  0  0  0  0  0  0  0  0  0  0
   10.1703    1.9115   22.9116 C   0  0  0  0  0  0  0  0  0  0  0  0
   10.5226    1.0971   22.2859 H   0  0  0  0  0  0  0  0  0  0  0  0
   11.0402    2.8122   23.5258 C   0  0  0  0  0  0  0  0  0  0  0  0
   12.1103    2.7225   23.3516 H   0  0  0  0  0  0  0  0  0  0  0  0
   10.5181    3.8206   24.3462 C   0  0  0  0  0  0  0  0  0  0  0  0
   11.1894    4.5281   24.8245 H   0  0  0  0  0  0  0  0  0  0  0  0
    9.1436    3.9056   24.5730 C   0  0  0  0  0  0  0  0  0  0  0  0
    8.7653    4.6683   25.2509 H   0  0  0  0  0  0  0  0  0  0  0  0
    8.2497    3.0347   23.9231 C   0  0  0  0  0  0  0  0  0  0  0  0
    6.7654    3.1102   24.0869 C   0  0  0  0  0  0  0  0  0  0  0  0
    5.9485    2.8695   23.2030 O   0  0  0  0  0  0  0  0  0  0  0  0
    6.2872    3.4822   25.3106 N   0  0  0  0  0  0  0  0  0  0  0  0
    6.8174    3.1650   26.1042 H   0  0  0  0  0  0  0  0  0  0  0  0
    5.2951    3.2933   25.3159 H   0  0  0  0  0  0  0  0  0  0  0  0
    5.4368    0.7928   20.1260 C   0  0  0  0  0  0  0  0  0  0  0  0
    5.0287    0.8652   21.1381 H   0  0  0  0  0  0  0  0  0  0  0  0
    4.7992    1.4050   19.0414 C   0  0  0  0  0  0  0  0  0  0  0  0
    3.8712    1.9510   19.1702 H   0  0  0  0  0  0  0  0  0  0  0  0
  1  2  1  0
  2  3  2  0
  3  4  1  0
  4  5  1  0
  4  6  2  0
  6  7  1  0
  7  8  1  0
  8  9  1  0
  8 10  2  0
 10 11  1  0
 10 12  1  0
 12 13  2  0
 12 14  1  0
 14 15  1  0
 14 16  1  0
 16 17  1  0
 17 18  1  0
 17 19  1  0
 19 20  2  0
 20 21  1  0
 20 22  1  0
 22 23  1  0
 22 24  2  0
 24 25  1  0
 24 26  1  0
 26 27  1  0
 26 28  2  0
 28 29  1  0
 29 30  2  0
 29 31  1  0
 31 32  1  0
 31 33  1  0
  6 34  1  0
 34 35  1  0
 34 36  2  0
 36 37  1  0
 36  2  1  0
 16  7  2  0
 28 19  1  0
M  END
>  <cnnaffinity>  (1) 
-5.29575

>  <filename>  (1) 
NC(=O)c1ccccc1Nc1[nH]c(=O)ccc1-c1cccnc1

$$$$
