
     RDKit          3D

 25 26  0  0  0  0  0  0  0  0999 V2000
    4.9214    1.7916   16.9871 H   0  0  0  0  0  0  0  0  0  0  0  0
    5.3985    1.2975   17.8308 C   0  0  0  0  0  0  0  0  0  0  0  0
    6.5587    0.6753   17.5697 N   0  0  0  0  0  0  0  0  0  0  0  0
    7.1783    0.0663   18.5886 C   0  0  0  0  0  0  0  0  0  0  0  0
    8.1132   -0.4405   18.3524 H   0  0  0  0  0  0  0  0  0  0  0  0
    6.6760    0.0317   19.9024 C   0  0  0  0  0  0  0  0  0  0  0  0
    7.3703   -0.6612   20.9361 N   0  0  0  0  0  0  0  0  0  0  0  0
    6.8100   -1.7126   21.6433 C   0  0  0  0  0  0  0  0  0  0  0  0
    5.7960   -2.0178   21.4335 H   0  0  0  0  0  0  0  0  0  0  0  0
    7.7337   -2.1949   22.5368 C   0  0  0  0  0  0  0  0  0  0  0  0
    7.5807   -3.0067   23.2375 H   0  0  0  0  0  0  0  0  0  0  0  0
    8.9120   -1.4085   22.3915 C   0  0  0  0  0  0  0  0  0  0  0  0
    9.8551   -1.4651   22.9186 H   0  0  0  0  0  0  0  0  0  0  0  0
    8.6630   -0.4748   21.4192 C   0  0  0  0  0  0  0  0  0  0  0  0
    9.5252    0.5170   20.9273 N   0  0  0  0  0  0  0  0  0  0  0  0
    9.2708    1.0350   20.1080 H   0  0  0  0  0  0  0  0  0  0  0  0
   10.6367    0.9772   21.6090 C   0  0  0  0  0  0  0  0  0  0  0  0
   10.9509    0.6872   22.7454 O   0  0  0  0  0  0  0  0  0  0  0  0
   11.4163    1.8300   20.9034 N   0  0  0  0  0  0  0  0  0  0  0  0
   11.3162    2.1097   19.9493 H   0  0  0  0  0  0  0  0  0  0  0  0
   12.2188    2.0800   21.4537 H   0  0  0  0  0  0  0  0  0  0  0  0
    5.4432    0.6489   20.1564 C   0  0  0  0  0  0  0  0  0  0  0  0
    5.0168    0.6293   21.1628 H   0  0  0  0  0  0  0  0  0  0  0  0
    4.8095    1.3099   19.1012 C   0  0  0  0  0  0  0  0  0  0  0  0
    3.8770    1.8409   19.2524 H   0  0  0  0  0  0  0  0  0  0  0  0
  1  2  1  0
  2  3  2  0
  3  4  1  0
  4  5  1  0
  4  6  2  0
  6  7  1  0
  7  8  1  0
  8  9  1  0
  8 10  2  0
 10 11  1  0
 10 12  1  0
 12 13  1  0
 12 14  2  0
 14 15  1  0
 15 16  1  0
 15 17  1  0
 17 18  2  0
 17 19  1  0
 19 20  1  0
 19 21  1  0
  6 22  1  0
 22 23  1  0
 22 24  2  0
 24 25  1  0
 24  2  1  0
 14  7  1  0
M  END
>  <cnnaffinity>  (1) 
-4.43016

>  <filename>  (1) 
NC(=O)Nc1cccn1-c1cccnc1

$$$$
