
     RDKit          3D

 32 33  0  0  0  0  0  0  0  0999 V2000
    4.9481    1.7782   16.9667 H   0  0  0  0  0  0  0  0  0  0  0  0
    5.4425    1.2935   17.8019 C   0  0  0  0  0  0  0  0  0  0  0  0
    6.6030    0.6794   17.5161 N   0  0  0  0  0  0  0  0  0  0  0  0
    7.2400    0.0760   18.5285 C   0  0  0  0  0  0  0  0  0  0  0  0
    8.1835   -0.4143   18.2906 H   0  0  0  0  0  0  0  0  0  0  0  0
    6.7725    0.0532   19.8684 C   0  0  0  0  0  0  0  0  0  0  0  0
    7.4086   -0.6223   20.9168 N   0  0  0  0  0  0  0  0  0  0  0  0
    8.5693   -0.3256   21.3313 C   0  0  0  0  0  0  0  0  0  0  0  0
    9.1985   -1.1474   22.1917 N   0  0  0  0  0  0  0  0  0  0  0  0
    8.4593   -1.7602   22.5017 H   0  0  0  0  0  0  0  0  0  0  0  0
    9.6413   -0.5892   22.9118 H   0  0  0  0  0  0  0  0  0  0  0  0
    9.2550    0.8120   20.9641 N   0  0  0  0  0  0  0  0  0  0  0  0
    8.6697    1.3838   20.3856 H   0  0  0  0  0  0  0  0  0  0  0  0
    9.9906    1.4762   21.9166 C   0  0  0  0  0  0  0  0  0  0  0  0
   10.1138    1.0942   23.0655 O   0  0  0  0  0  0  0  0  0  0  0  0
   10.5835    2.6035   21.4183 N   0  0  0  0  0  0  0  0  0  0  0  0
   10.3422    2.8671   20.4865 H   0  0  0  0  0  0  0  0  0  0  0  0
   11.7336    3.2121   21.9968 C   0  0  0  0  0  0  0  0  0  0  0  0
   12.1251    4.5508   21.8092 C   0  0  0  0  0  0  0  0  0  0  0  0
   11.6865    5.2350   21.1066 H   0  0  0  0  0  0  0  0  0  0  0  0
   13.1879    5.0990   22.5403 C   0  0  0  0  0  0  0  0  0  0  0  0
   13.4357    6.1492   22.4058 H   0  0  0  0  0  0  0  0  0  0  0  0
   13.9125    4.3152   23.4326 C   0  0  0  0  0  0  0  0  0  0  0  0
   14.7325    4.7375   24.0065 H   0  0  0  0  0  0  0  0  0  0  0  0
   13.5632    2.9675   23.5442 C   0  0  0  0  0  0  0  0  0  0  0  0
   14.0456    2.2853   24.2214 H   0  0  0  0  0  0  0  0  0  0  0  0
   12.5125    2.4181   22.8390 C   0  0  0  0  0  0  0  0  0  0  0  0
   12.2717    1.3713   22.9526 H   0  0  0  0  0  0  0  0  0  0  0  0
    5.5449    0.6852   20.1313 C   0  0  0  0  0  0  0  0  0  0  0  0
    5.1577    0.6658   21.1505 H   0  0  0  0  0  0  0  0  0  0  0  0
    4.8741    1.3165   19.0814 C   0  0  0  0  0  0  0  0  0  0  0  0
    3.9268    1.8213   19.2410 H   0  0  0  0  0  0  0  0  0  0  0  0
  1  2  1  0
  2  3  2  0
  3  4  1  0
  4  5  1  0
  4  6  2  0
  6  7  1  0
  7  8  2  3
  8  9  1  0
  9 10  1  0
  9 11  1  0
  8 12  1  0
 12 13  1  0
 12 14  1  0
 14 15  2  0
 14 16  1  0
 16 17  1  0
 16 18  1  0
 18 19  2  0
 19 20  1  0
 19 21  1  0
 21 22  1  0
 21 23  2  0
 23 24  1  0
 23 25  1  0
 25 26  1  0
 25 27  2  0
 27 28  1  0
  6 29  1  0
 29 30  1  0
 29 31  2  0
 31 32  1  0
 31  2  1  0
 27 18  1  0
M  END
>  <cnnaffinity>  (1) 
-4.49376

>  <filename>  (1) 
NC(=Nc1cccnc1)NC(=O)Nc1ccccc1

$$$$
