
     RDKit          3D

 33 35  0  0  0  0  0  0  0  0999 V2000
    4.9356    1.8126   16.9901 H   0  0  0  0  0  0  0  0  0  0  0  0
    5.3954    1.2905   17.8251 C   0  0  0  0  0  0  0  0  0  0  0  0
    6.5481    0.6532   17.5612 N   0  0  0  0  0  0  0  0  0  0  0  0
    7.1741    0.0367   18.5719 C   0  0  0  0  0  0  0  0  0  0  0  0
    8.1244   -0.4467   18.3467 H   0  0  0  0  0  0  0  0  0  0  0  0
    6.6586    0.0021   19.8819 C   0  0  0  0  0  0  0  0  0  0  0  0
    7.3327   -0.6786   20.9425 N   0  0  0  0  0  0  0  0  0  0  0  0
    6.7275   -1.6102   21.7796 C   0  0  0  0  0  0  0  0  0  0  0  0
    5.6789   -1.8469   21.6606 H   0  0  0  0  0  0  0  0  0  0  0  0
    7.6591   -2.0688   22.6523 C   0  0  0  0  0  0  0  0  0  0  0  0
    7.5349   -3.0103   23.7716 C   0  0  0  0  0  0  0  0  0  0  0  0
    6.2603   -3.2449   24.3210 C   0  0  0  0  0  0  0  0  0  0  0  0
    5.4051   -2.6995   23.9322 H   0  0  0  0  0  0  0  0  0  0  0  0
    6.0875   -4.1662   25.3530 C   0  0  0  0  0  0  0  0  0  0  0  0
    5.0995   -4.3572   25.7560 H   0  0  0  0  0  0  0  0  0  0  0  0
    7.1855   -4.8491   25.8738 C   0  0  0  0  0  0  0  0  0  0  0  0
    7.0247   -5.5874   26.6590 H   0  0  0  0  0  0  0  0  0  0  0  0
    8.4716   -4.5953   25.3654 C   0  0  0  0  0  0  0  0  0  0  0  0
    9.7192   -5.2489   25.8894 C   0  0  0  0  0  0  0  0  0  0  0  0
   10.6977   -5.4583   25.2018 O   0  0  0  0  0  0  0  0  0  0  0  0
    9.7406   -5.5436   27.2162 N   0  0  0  0  0  0  0  0  0  0  0  0
   10.4635   -6.2138   27.4315 H   0  0  0  0  0  0  0  0  0  0  0  0
    8.8818   -5.5772   27.7343 H   0  0  0  0  0  0  0  0  0  0  0  0
    8.6351   -3.6975   24.3049 C   0  0  0  0  0  0  0  0  0  0  0  0
    9.6401   -3.5616   23.9063 H   0  0  0  0  0  0  0  0  0  0  0  0
    8.8321   -1.4064   22.3136 N   0  0  0  0  0  0  0  0  0  0  0  0
    9.7300   -1.3976   22.7707 H   0  0  0  0  0  0  0  0  0  0  0  0
    8.6449   -0.4945   21.3306 C   0  0  0  0  0  0  0  0  0  0  0  0
    9.7917    0.5983   20.8428 S   0  0  0  0  0  0  0  0  0  0  0  0
    5.4461    0.6506   20.1413 C   0  0  0  0  0  0  0  0  0  0  0  0
    5.0491    0.6429   21.1586 H   0  0  0  0  0  0  0  0  0  0  0  0
    4.8014    1.3139   19.0934 C   0  0  0  0  0  0  0  0  0  0  0  0
    3.8708    1.8541   19.2493 H   0  0  0  0  0  0  0  0  0  0  0  0
  1  2  1  0
  2  3  2  0
  3  4  1  0
  4  5  1  0
  4  6  2  0
  6  7  1  0
  7  8  1  0
  8  9  1  0
  8 10  2  0
 10 11  1  0
 11 12  2  0
 12 13  1  0
 12 14  1  0
 14 15  1  0
 14 16  2  0
 16 17  1  0
 16 18  1  0
 18 19  1  0
 19 20  2  0
 19 21  1  0
 21 22  1  0
 21 23  1  0
 18 24  2  0
 24 25  1  0
 10 26  1  0
 26 27  1  0
 26 28  1  0
 28 29  2  0
  6 30  1  0
 30 31  1  0
 30 32  2  0
 32 33  1  0
 32  2  1  0
 28  7  1  0
 24 11  1  0
M  END
>  <cnnaffinity>  (1) 
-5.52846

>  <filename>  (1) 
NC(=O)c1cccc(-c2cn(-c3cccnc3)c(=S)[nH]2)c1

$$$$
