
     RDKit          3D

 30 31  0  0  0  0  0  0  0  0999 V2000
    4.9409    1.8410   16.9822 H   0  0  0  0  0  0  0  0  0  0  0  0
    5.4117    1.3210   17.8115 C   0  0  0  0  0  0  0  0  0  0  0  0
    6.5787    0.7027   17.5394 N   0  0  0  0  0  0  0  0  0  0  0  0
    7.1752    0.0565   18.5474 C   0  0  0  0  0  0  0  0  0  0  0  0
    8.1132   -0.4487   18.3246 H   0  0  0  0  0  0  0  0  0  0  0  0
    6.6773    0.0081   19.8797 C   0  0  0  0  0  0  0  0  0  0  0  0
    7.3676   -0.7279   20.8531 N   0  0  0  0  0  0  0  0  0  0  0  0
    7.5026   -0.3555   22.0601 C   0  0  0  0  0  0  0  0  0  0  0  0
    7.1896    0.8536   22.6197 N   0  0  0  0  0  0  0  0  0  0  0  0
    7.3123    1.5988   21.9554 H   0  0  0  0  0  0  0  0  0  0  0  0
    7.7194    0.9776   23.4530 H   0  0  0  0  0  0  0  0  0  0  0  0
    8.0191   -1.1791   22.9944 N   0  0  0  0  0  0  0  0  0  0  0  0
    8.3751   -0.7018   23.7889 H   0  0  0  0  0  0  0  0  0  0  0  0
    8.4186   -2.5337   22.6441 C   0  0  0  0  0  0  0  0  0  0  0  0
    9.1181   -2.5085   21.8000 H   0  0  0  0  0  0  0  0  0  0  0  0
    7.5282   -3.0640   22.2905 H   0  0  0  0  0  0  0  0  0  0  0  0
    9.0346   -3.3281   23.7778 C   0  0  0  0  0  0  0  0  0  0  0  0
    8.2537   -3.9707   24.7511 C   0  0  0  0  0  0  0  0  0  0  0  0
    7.1681   -3.8998   24.7361 H   0  0  0  0  0  0  0  0  0  0  0  0
    8.8844   -4.7257   25.7452 C   0  0  0  0  0  0  0  0  0  0  0  0
    8.3013   -5.1795   26.5414 H   0  0  0  0  0  0  0  0  0  0  0  0
   10.2057   -4.9335   25.8061 N   0  0  0  0  0  0  0  0  0  0  0  0
   10.9489   -4.3394   24.8639 C   0  0  0  0  0  0  0  0  0  0  0  0
   12.0149   -4.5475   24.8910 H   0  0  0  0  0  0  0  0  0  0  0  0
   10.4237   -3.5096   23.8658 C   0  0  0  0  0  0  0  0  0  0  0  0
   11.1023   -3.0231   23.1677 H   0  0  0  0  0  0  0  0  0  0  0  0
    5.4508    0.6420   20.1263 C   0  0  0  0  0  0  0  0  0  0  0  0
    5.0447    0.6181   21.1392 H   0  0  0  0  0  0  0  0  0  0  0  0
    4.8121    1.3087   19.0752 C   0  0  0  0  0  0  0  0  0  0  0  0
    3.8744    1.8315   19.2377 H   0  0  0  0  0  0  0  0  0  0  0  0
  1  2  1  0
  2  3  2  0
  3  4  1  0
  4  5  1  0
  4  6  2  0
  6  7  1  0
  7  8  2  3
  8  9  1  0
  9 10  1  0
  9 11  1  0
  8 12  1  0
 12 13  1  0
 12 14  1  0
 14 15  1  0
 14 16  1  0
 14 17  1  0
 17 18  2  0
 18 19  1  0
 18 20  1  0
 20 21  1  0
 20 22  2  0
 22 23  1  0
 23 24  1  0
 23 25  2  0
 25 26  1  0
  6 27  1  0
 27 28  1  0
 27 29  2  0
 29 30  1  0
 29  2  1  0
 25 17  1  0
M  END
>  <cnnaffinity>  (1) 
-4.48807

>  <filename>  (1) 
NC(=Nc1cccnc1)NCc1ccncc1

$$$$
