
     RDKit          3D

 34 36  0  0  0  0  0  0  0  0999 V2000
    4.9664    1.8509   16.9595 H   0  0  0  0  0  0  0  0  0  0  0  0
    5.3970    1.3326   17.8138 C   0  0  0  0  0  0  0  0  0  0  0  0
    6.5644    0.7096   17.5897 N   0  0  0  0  0  0  0  0  0  0  0  0
    7.1232    0.0612   18.6200 C   0  0  0  0  0  0  0  0  0  0  0  0
    8.0890   -0.4077   18.4258 H   0  0  0  0  0  0  0  0  0  0  0  0
    6.5513   -0.0275   19.9099 C   0  0  0  0  0  0  0  0  0  0  0  0
    7.2021   -0.7574   21.0256 C   0  0  0  0  0  0  0  0  0  0  0  0
    7.5648   -2.1253   21.1574 C   0  0  0  0  0  0  0  0  0  0  0  0
    7.3429   -2.9217   20.4644 H   0  0  0  0  0  0  0  0  0  0  0  0
    8.1891   -2.3944   22.2923 N   0  0  0  0  0  0  0  0  0  0  0  0
    8.2448   -1.1915   22.9134 N   0  0  0  0  0  0  0  0  0  0  0  0
    8.5477   -1.0940   23.8679 H   0  0  0  0  0  0  0  0  0  0  0  0
    7.6100   -0.2107   22.2314 C   0  0  0  0  0  0  0  0  0  0  0  0
    7.3802    1.0618   22.7321 N   0  0  0  0  0  0  0  0  0  0  0  0
    6.4022    1.3356   22.5900 H   0  0  0  0  0  0  0  0  0  0  0  0
    7.7798    1.5176   23.9889 C   0  0  0  0  0  0  0  0  0  0  0  0
    9.1179    1.4674   24.4023 C   0  0  0  0  0  0  0  0  0  0  0  0
    9.8526    1.0812   23.7045 H   0  0  0  0  0  0  0  0  0  0  0  0
    9.4902    1.9027   25.6770 C   0  0  0  0  0  0  0  0  0  0  0  0
   10.5290    1.8459   25.9942 H   0  0  0  0  0  0  0  0  0  0  0  0
    8.5004    2.3836   26.5392 C   0  0  0  0  0  0  0  0  0  0  0  0
    8.7250    2.7318   27.5340 H   0  0  0  0  0  0  0  0  0  0  0  0
    7.1764    2.4514   26.1301 C   0  0  0  0  0  0  0  0  0  0  0  0
    6.4346    2.7943   26.8482 H   0  0  0  0  0  0  0  0  0  0  0  0
    6.7902    2.0780   24.8268 C   0  0  0  0  0  0  0  0  0  0  0  0
    5.3848    2.2334   24.3581 C   0  0  0  0  0  0  0  0  0  0  0  0
    4.8797    1.7075   23.3632 O   0  0  0  0  0  0  0  0  0  0  0  0
    4.5541    3.0156   25.1060 N   0  0  0  0  0  0  0  0  0  0  0  0
    4.9440    3.8495   25.5087 H   0  0  0  0  0  0  0  0  0  0  0  0
    3.6902    3.1086   24.5963 H   0  0  0  0  0  0  0  0  0  0  0  0
    5.3434    0.6565   20.1206 C   0  0  0  0  0  0  0  0  0  0  0  0
    4.8800    0.6561   21.1100 H   0  0  0  0  0  0  0  0  0  0  0  0
    4.7535    1.3385   19.0542 C   0  0  0  0  0  0  0  0  0  0  0  0
    3.8388    1.9031   19.1929 H   0  0  0  0  0  0  0  0  0  0  0  0
  1  2  1  0
  2  3  2  0
  3  4  1  0
  4  5  1  0
  4  6  2  0
  6  7  1  0
  7  8  1  0
  8  9  1  0
  8 10  2  0
 10 11  1  0
 11 12  1  0
 11 13  1  0
 13 14  1  0
 14 15  1  0
 14 16  1  0
 16 17  2  0
 17 18  1  0
 17 19  1  0
 19 20  1  0
 19 21  2  0
 21 22  1  0
 21 23  1  0
 23 24  1  0
 23 25  2  0
 25 26  1  0
 26 27  2  0
 26 28  1  0
 28 29  1  0
 28 30  1  0
  6 31  1  0
 31 32  1  0
 31 33  2  0
 33 34  1  0
 33  2  1  0
 13  7  2  0
 25 16  1  0
M  END
>  <cnnaffinity>  (1) 
-4.77157

>  <filename>  (1) 
NC(=O)c1ccccc1Nc1[nH]ncc1-c1cccnc1

$$$$
