
     RDKit          3D

 22 22  0  0  0  0  0  0  0  0999 V2000
    4.9221    1.8231   17.0241 H   0  0  0  0  0  0  0  0  0  0  0  0
    5.4179    1.2941   17.8343 C   0  0  0  0  0  0  0  0  0  0  0  0
    6.5804    0.6888   17.5256 N   0  0  0  0  0  0  0  0  0  0  0  0
    7.2108    0.0406   18.5105 C   0  0  0  0  0  0  0  0  0  0  0  0
    8.1511   -0.4471   18.2610 H   0  0  0  0  0  0  0  0  0  0  0  0
    6.7508   -0.0410   19.8564 C   0  0  0  0  0  0  0  0  0  0  0  0
    7.4996   -0.7784   20.8027 N   0  0  0  0  0  0  0  0  0  0  0  0
    7.6021   -0.4481   22.0220 C   0  0  0  0  0  0  0  0  0  0  0  0
    8.1521   -1.1692   23.0765 O   0  0  0  0  0  0  0  0  0  0  0  0
    8.4546   -2.6677   22.6139 S   0  0  0  0  0  0  0  0  0  0  0  0
    7.2607   -3.2342   22.0633 O   0  0  0  0  0  0  0  0  0  0  0  0
    9.1897   -3.2620   23.6817 O   0  0  0  0  0  0  0  0  0  0  0  0
    9.5056   -2.3572   21.4298 N   0  0  0  0  0  0  0  0  0  0  0  0
   10.0760   -3.1916   21.4355 H   0  0  0  0  0  0  0  0  0  0  0  0
    8.8985   -2.2213   20.6241 H   0  0  0  0  0  0  0  0  0  0  0  0
    7.2109    0.7215   22.5859 N   0  0  0  0  0  0  0  0  0  0  0  0
    7.7693    0.7454   23.4224 H   0  0  0  0  0  0  0  0  0  0  0  0
    7.3060    1.5024   21.9607 H   0  0  0  0  0  0  0  0  0  0  0  0
    5.5213    0.5790   20.1418 C   0  0  0  0  0  0  0  0  0  0  0  0
    5.1126    0.5376   21.1524 H   0  0  0  0  0  0  0  0  0  0  0  0
    4.8547    1.2595   19.1130 C   0  0  0  0  0  0  0  0  0  0  0  0
    3.9207    1.7791   19.3028 H   0  0  0  0  0  0  0  0  0  0  0  0
  1  2  1  0
  2  3  2  0
  3  4  1  0
  4  5  1  0
  4  6  2  0
  6  7  1  0
  7  8  2  3
  8  9  1  0
  9 10  1  0
 10 11  2  0
 10 12  2  0
 10 13  1  0
 13 14  1  0
 13 15  1  0
  8 16  1  0
 16 17  1  0
 16 18  1  0
  6 19  1  0
 19 20  1  0
 19 21  2  0
 21 22  1  0
 21  2  1  0
M  END
>  <cnnaffinity>  (1) 
-4.3291

>  <filename>  (1) 
NC(=Nc1cccnc1)OS(N)(=O)=O

$$$$
