
     RDKit          3D

 36 37  0  0  0  0  0  0  0  0999 V2000
    4.9617    1.7704   17.0226 H   0  0  0  0  0  0  0  0  0  0  0  0
    5.4244    1.2615   17.8669 C   0  0  0  0  0  0  0  0  0  0  0  0
    6.5895    0.6338   17.6223 N   0  0  0  0  0  0  0  0  0  0  0  0
    7.1956    0.0175   18.6476 C   0  0  0  0  0  0  0  0  0  0  0  0
    8.1535   -0.4512   18.4283 H   0  0  0  0  0  0  0  0  0  0  0  0
    6.6753   -0.0583   19.9691 C   0  0  0  0  0  0  0  0  0  0  0  0
    7.4239   -0.6698   21.0079 N   0  0  0  0  0  0  0  0  0  0  0  0
    6.9265   -1.5625   21.7669 C   0  0  0  0  0  0  0  0  0  0  0  0
    5.7552   -2.2162   21.6056 N   0  0  0  0  0  0  0  0  0  0  0  0
    5.3465   -2.3672   22.5146 H   0  0  0  0  0  0  0  0  0  0  0  0
    5.1871   -1.6941   20.9668 H   0  0  0  0  0  0  0  0  0  0  0  0
    7.6345   -1.9034   22.8993 N   0  0  0  0  0  0  0  0  0  0  0  0
    8.4925   -1.3847   22.8796 H   0  0  0  0  0  0  0  0  0  0  0  0
    7.6197   -3.1747   23.4456 C   0  0  0  0  0  0  0  0  0  0  0  0
    6.9169   -4.0526   22.9916 O   0  0  0  0  0  0  0  0  0  0  0  0
    8.4875   -3.4395   24.6823 C   0  0  0  0  0  0  0  0  0  0  0  0
    8.8920   -2.4709   25.0012 H   0  0  0  0  0  0  0  0  0  0  0  0
    7.6222   -4.0395   25.8297 C   0  0  0  0  0  0  0  0  0  0  0  0
    7.1385   -4.9501   25.4473 H   0  0  0  0  0  0  0  0  0  0  0  0
    6.8133   -3.3535   26.1109 H   0  0  0  0  0  0  0  0  0  0  0  0
    8.4581   -4.3818   27.0716 C   0  0  0  0  0  0  0  0  0  0  0  0
    7.8226   -4.8263   27.8487 H   0  0  0  0  0  0  0  0  0  0  0  0
    8.8588   -3.4524   27.4994 H   0  0  0  0  0  0  0  0  0  0  0  0
    9.6210   -5.3267   26.7403 C   0  0  0  0  0  0  0  0  0  0  0  0
    9.2250   -6.3136   26.4613 H   0  0  0  0  0  0  0  0  0  0  0  0
   10.2425   -5.4858   27.6319 H   0  0  0  0  0  0  0  0  0  0  0  0
   10.4739   -4.7748   25.5920 C   0  0  0  0  0  0  0  0  0  0  0  0
   10.9674   -3.8667   25.9356 H   0  0  0  0  0  0  0  0  0  0  0  0
   11.2808   -5.4722   25.3389 H   0  0  0  0  0  0  0  0  0  0  0  0
    9.6521   -4.4125   24.3474 C   0  0  0  0  0  0  0  0  0  0  0  0
    9.2284   -5.3224   23.9010 H   0  0  0  0  0  0  0  0  0  0  0  0
   10.3147   -3.9647   23.5966 H   0  0  0  0  0  0  0  0  0  0  0  0
    5.4557    0.6131   20.1903 C   0  0  0  0  0  0  0  0  0  0  0  0
    5.0409    0.6330   21.1972 H   0  0  0  0  0  0  0  0  0  0  0  0
    4.8277    1.2849   19.1296 C   0  0  0  0  0  0  0  0  0  0  0  0
    3.8974    1.8236   19.2757 H   0  0  0  0  0  0  0  0  0  0  0  0
  1  2  1  0
  2  3  2  0
  3  4  1  0
  4  5  1  0
  4  6  2  0
  6  7  1  0
  7  8  2  3
  8  9  1  0
  9 10  1  0
  9 11  1  0
  8 12  1  0
 12 13  1  0
 12 14  1  0
 14 15  2  0
 14 16  1  0
 16 17  1  0
 16 18  1  0
 18 19  1  0
 18 20  1  0
 18 21  1  0
 21 22  1  0
 21 23  1  0
 21 24  1  0
 24 25  1  0
 24 26  1  0
 24 27  1  0
 27 28  1  0
 27 29  1  0
 27 30  1  0
 30 31  1  0
 30 32  1  0
  6 33  1  0
 33 34  1  0
 33 35  2  0
 35 36  1  0
 35  2  1  0
 30 16  1  0
M  END
>  <cnnaffinity>  (1) 
-4.62953

>  <filename>  (1) 
NC(=Nc1cccnc1)NC(=O)C1CCCCC1

$$$$
