
     RDKit          3D

 34 36  0  0  0  0  0  0  0  0999 V2000
    5.0995    1.7965   17.0629 H   0  0  0  0  0  0  0  0  0  0  0  0
    5.5947    1.2801   17.8830 C   0  0  0  0  0  0  0  0  0  0  0  0
    6.7769    0.7104   17.6047 N   0  0  0  0  0  0  0  0  0  0  0  0
    7.4019    0.0551   18.5941 C   0  0  0  0  0  0  0  0  0  0  0  0
    8.3707   -0.3810   18.3567 H   0  0  0  0  0  0  0  0  0  0  0  0
    6.8546   -0.1035   19.8865 C   0  0  0  0  0  0  0  0  0  0  0  0
    7.4662   -0.9209   20.9104 N   0  0  0  0  0  0  0  0  0  0  0  0
    8.6968   -0.7744   21.5392 C   0  0  0  0  0  0  0  0  0  0  0  0
    9.5964    0.1441   21.0774 N   0  0  0  0  0  0  0  0  0  0  0  0
    9.1785    1.0656   20.9682 H   0  0  0  0  0  0  0  0  0  0  0  0
   10.9067    0.2109   21.5620 C   0  0  0  0  0  0  0  0  0  0  0  0
   11.6723   -0.9579   21.5462 C   0  0  0  0  0  0  0  0  0  0  0  0
   11.1816   -1.8629   21.2096 H   0  0  0  0  0  0  0  0  0  0  0  0
   12.9936   -0.9507   21.9797 C   0  0  0  0  0  0  0  0  0  0  0  0
   13.5569   -1.8784   22.0102 H   0  0  0  0  0  0  0  0  0  0  0  0
   13.5697    0.2431   22.4271 C   0  0  0  0  0  0  0  0  0  0  0  0
   14.5983    0.2625   22.7754 H   0  0  0  0  0  0  0  0  0  0  0  0
   12.8303    1.4250   22.4091 C   0  0  0  0  0  0  0  0  0  0  0  0
   13.3286    2.3511   22.6957 H   0  0  0  0  0  0  0  0  0  0  0  0
   11.4742    1.4302   21.9987 C   0  0  0  0  0  0  0  0  0  0  0  0
   10.5988    2.6298   22.0680 C   0  0  0  0  0  0  0  0  0  0  0  0
    9.4864    2.7162   21.5477 O   0  0  0  0  0  0  0  0  0  0  0  0
   11.0436    3.7292   22.7427 N   0  0  0  0  0  0  0  0  0  0  0  0
   10.2628    4.3549   22.8553 H   0  0  0  0  0  0  0  0  0  0  0  0
   11.6810    3.6457   23.5138 H   0  0  0  0  0  0  0  0  0  0  0  0
    8.8510   -1.6008   22.5379 N   0  0  0  0  0  0  0  0  0  0  0  0
    7.6757   -2.3028   22.5296 N   0  0  0  0  0  0  0  0  0  0  0  0
    7.4336   -3.0280   23.1853 H   0  0  0  0  0  0  0  0  0  0  0  0
    6.8360   -1.9892   21.5379 C   0  0  0  0  0  0  0  0  0  0  0  0
    5.4431   -2.8166   21.1783 S   0  0  0  0  0  0  0  0  0  0  0  0
    5.6290    0.5073   20.1662 C   0  0  0  0  0  0  0  0  0  0  0  0
    5.1941    0.4102   21.1631 H   0  0  0  0  0  0  0  0  0  0  0  0
    4.9927    1.2189   19.1448 C   0  0  0  0  0  0  0  0  0  0  0  0
    4.0464    1.7185   19.3168 H   0  0  0  0  0  0  0  0  0  0  0  0
  1  2  1  0
  2  3  2  0
  3  4  1  0
  4  5  1  0
  4  6  2  0
  6  7  1  0
  7  8  1  0
  8  9  1  0
  9 10  1  0
  9 11  1  0
 11 12  2  0
 12 13  1  0
 12 14  1  0
 14 15  1  0
 14 16  2  0
 16 17  1  0
 16 18  1  0
 18 19  1  0
 18 20  2  0
 20 21  1  0
 21 22  2  0
 21 23  1  0
 23 24  1  0
 23 25  1  0
  8 26  2  0
 26 27  1  0
 27 28  1  0
 27 29  1  0
 29 30  2  0
  6 31  1  0
 31 32  1  0
 31 33  2  0
 33 34  1  0
 33  2  1  0
 29  7  1  0
 20 11  1  0
M  END
>  <cnnaffinity>  (1) 
-5.85618

>  <filename>  (1) 
NC(=O)c1ccccc1Nc1n[nH]c(=S)n1-c1cccnc1

$$$$
