
     RDKit          3D

 34 36  0  0  0  0  0  0  0  0999 V2000
    5.0679    1.7380   16.9852 H   0  0  0  0  0  0  0  0  0  0  0  0
    5.5478    1.2700   17.8433 C   0  0  0  0  0  0  0  0  0  0  0  0
    6.7204    0.6578   17.6186 N   0  0  0  0  0  0  0  0  0  0  0  0
    7.3349    0.0691   18.6539 C   0  0  0  0  0  0  0  0  0  0  0  0
    8.2879   -0.4159   18.4477 H   0  0  0  0  0  0  0  0  0  0  0  0
    6.8001    0.0361   19.9564 C   0  0  0  0  0  0  0  0  0  0  0  0
    7.3811   -0.7245   21.0165 N   0  0  0  0  0  0  0  0  0  0  0  0
    8.6875   -0.8831   21.4634 C   0  0  0  0  0  0  0  0  0  0  0  0
    9.6881   -0.0779   20.9719 N   0  0  0  0  0  0  0  0  0  0  0  0
    9.4132    0.9045   20.9206 H   0  0  0  0  0  0  0  0  0  0  0  0
   11.0164   -0.1970   21.3832 C   0  0  0  0  0  0  0  0  0  0  0  0
   11.6505   -1.4333   21.2719 C   0  0  0  0  0  0  0  0  0  0  0  0
   11.0515   -2.2301   20.8564 H   0  0  0  0  0  0  0  0  0  0  0  0
   12.9665   -1.6038   21.6899 C   0  0  0  0  0  0  0  0  0  0  0  0
   13.4456   -2.5723   21.6085 H   0  0  0  0  0  0  0  0  0  0  0  0
   13.6698   -0.5192   22.2217 C   0  0  0  0  0  0  0  0  0  0  0  0
   14.6928   -0.6603   22.5498 H   0  0  0  0  0  0  0  0  0  0  0  0
   13.0707    0.7323   22.2971 C   0  0  0  0  0  0  0  0  0  0  0  0
   13.6811    1.5666   22.6473 H   0  0  0  0  0  0  0  0  0  0  0  0
   11.7364    0.9218   21.8632 C   0  0  0  0  0  0  0  0  0  0  0  0
   11.1006    2.2525   21.8116 C   0  0  0  0  0  0  0  0  0  0  0  0
   10.0203    2.4934   21.2749 O   0  0  0  0  0  0  0  0  0  0  0  0
   11.7739    3.3193   22.3347 N   0  0  0  0  0  0  0  0  0  0  0  0
   11.1296    4.0966   22.2991 H   0  0  0  0  0  0  0  0  0  0  0  0
   12.2519    3.1636   23.2073 H   0  0  0  0  0  0  0  0  0  0  0  0
    8.7777   -1.7823   22.4069 N   0  0  0  0  0  0  0  0  0  0  0  0
    7.4907   -2.2060   22.6323 C   0  0  0  0  0  0  0  0  0  0  0  0
    7.2756   -2.9078   23.4302 H   0  0  0  0  0  0  0  0  0  0  0  0
    6.6266   -1.5917   21.7888 C   0  0  0  0  0  0  0  0  0  0  0  0
    5.5675   -1.6928   21.6202 H   0  0  0  0  0  0  0  0  0  0  0  0
    5.5803    0.6927   20.1766 C   0  0  0  0  0  0  0  0  0  0  0  0
    5.1418    0.6988   21.1749 H   0  0  0  0  0  0  0  0  0  0  0  0
    4.9462    1.3191   19.1041 C   0  0  0  0  0  0  0  0  0  0  0  0
    3.9997    1.8318   19.2322 H   0  0  0  0  0  0  0  0  0  0  0  0
  1  2  1  0
  2  3  2  0
  3  4  1  0
  4  5  1  0
  4  6  2  0
  6  7  1  0
  7  8  1  0
  8  9  1  0
  9 10  1  0
  9 11  1  0
 11 12  2  0
 12 13  1  0
 12 14  1  0
 14 15  1  0
 14 16  2  0
 16 17  1  0
 16 18  1  0
 18 19  1  0
 18 20  2  0
 20 21  1  0
 21 22  2  0
 21 23  1  0
 23 24  1  0
 23 25  1  0
  8 26  2  0
 26 27  1  0
 27 28  1  0
 27 29  2  0
 29 30  1  0
  6 31  1  0
 31 32  1  0
 31 33  2  0
 33 34  1  0
 33  2  1  0
 29  7  1  0
 20 11  1  0
M  END
>  <cnnaffinity>  (1) 
-6.07475

>  <filename>  (1) 
NC(=O)c1ccccc1Nc1nccn1-c1cccnc1

$$$$
