
     RDKit          3D

 29 31  0  0  0  0  0  0  0  0999 V2000
    5.0040    1.8234   16.9750 H   0  0  0  0  0  0  0  0  0  0  0  0
    5.4432    1.3074   17.8253 C   0  0  0  0  0  0  0  0  0  0  0  0
    6.5928    0.6563   17.5876 N   0  0  0  0  0  0  0  0  0  0  0  0
    7.1530    0.0092   18.6118 C   0  0  0  0  0  0  0  0  0  0  0  0
    8.0793   -0.5226   18.4003 H   0  0  0  0  0  0  0  0  0  0  0  0
    6.6228   -0.0026   19.9109 C   0  0  0  0  0  0  0  0  0  0  0  0
    7.3558   -0.7615   20.9282 C   0  0  0  0  0  0  0  0  0  0  0  0
    7.9423   -1.9255   20.7424 N   0  0  0  0  0  0  0  0  0  0  0  0
    8.4361   -2.3019   21.9378 N   0  0  0  0  0  0  0  0  0  0  0  0
    8.2061   -1.4072   22.8316 N   0  0  0  0  0  0  0  0  0  0  0  0
    7.5346   -0.4056   22.2251 N   0  0  0  0  0  0  0  0  0  0  0  0
    7.3730    0.8729   22.9285 C   0  0  0  0  0  0  0  0  0  0  0  0
    6.8886    0.6903   23.8908 H   0  0  0  0  0  0  0  0  0  0  0  0
    6.7311    1.5237   22.3326 H   0  0  0  0  0  0  0  0  0  0  0  0
    8.7202    1.5722   23.1403 C   0  0  2  0  0  0  0  0  0  0  0  0
    9.3221    0.9317   23.7988 H   0  0  0  0  0  0  0  0  0  0  0  0
    8.5612    2.9096   23.7114 N   0  0  0  0  0  0  0  0  0  0  0  0
    9.3636    3.6307   23.0523 C   0  0  0  0  0  0  0  0  0  0  0  0
    9.5308    4.9737   23.1765 N   0  0  0  0  0  0  0  0  0  0  0  0
    8.6979    5.2911   23.6445 H   0  0  0  0  0  0  0  0  0  0  0  0
    9.5974    5.2949   22.2221 H   0  0  0  0  0  0  0  0  0  0  0  0
   10.0680    3.1125   22.0324 O   0  0  0  0  0  0  0  0  0  0  0  0
    9.5004    1.8138   21.8281 C   0  0  0  0  0  0  0  0  0  0  0  0
    8.8268    1.8622   20.9596 H   0  0  0  0  0  0  0  0  0  0  0  0
   10.3008    1.0993   21.6306 H   0  0  0  0  0  0  0  0  0  0  0  0
    5.4114    0.6670   20.1444 C   0  0  0  0  0  0  0  0  0  0  0  0
    4.9485    0.6650   21.1348 H   0  0  0  0  0  0  0  0  0  0  0  0
    4.8112    1.3275   19.0734 C   0  0  0  0  0  0  0  0  0  0  0  0
    3.8802    1.8669   19.1987 H   0  0  0  0  0  0  0  0  0  0  0  0
  1  2  1  0
  2  3  2  0
  3  4  1  0
  4  5  1  0
  4  6  2  0
  6  7  1  0
  7  8  2  0
  8  9  1  0
  9 10  2  0
 10 11  1  0
 11 12  1  0
 12 13  1  0
 12 14  1  0
 12 15  1  0
 15 16  1  1
 15 17  1  0
 17 18  2  0
 18 19  1  0
 19 20  1  0
 19 21  1  0
 18 22  1  0
 22 23  1  0
 23 24  1  0
 23 25  1  0
  6 26  1  0
 26 27  1  0
 26 28  2  0
 28 29  1  0
 28  2  1  0
 11  7  1  0
 23 15  1  0
M  END
>  <cnnaffinity>  (1) 
-4.45036

>  <filename>  (1) 
NC1=N[C@@H](Cn2nnnc2-c2cccnc2)CO1

$$$$
