
     RDKit          3D

 27 28  0  0  0  0  0  0  0  0999 V2000
    5.0342    1.7497   16.9531 H   0  0  0  0  0  0  0  0  0  0  0  0
    5.4489    1.2733   17.8362 C   0  0  0  0  0  0  0  0  0  0  0  0
    6.6175    0.6175   17.7240 N   0  0  0  0  0  0  0  0  0  0  0  0
    7.1205    0.0478   18.8359 C   0  0  0  0  0  0  0  0  0  0  0  0
    8.0626   -0.4881   18.7682 H   0  0  0  0  0  0  0  0  0  0  0  0
    6.4907    0.1027   20.0891 C   0  0  0  0  0  0  0  0  0  0  0  0
    7.1619   -0.5378   21.2841 C   0  0  2  0  0  0  0  0  0  0  0  0
    6.5970   -0.3409   22.2050 H   0  0  0  0  0  0  0  0  0  0  0  0
    8.9704    0.2746   21.4390 Br  0  0  0  0  0  0  0  0  0  0  0  0
    7.3445   -2.0516   21.0886 C   0  0  0  0  0  0  0  0  0  0  0  0
    8.0653   -2.1985   20.2915 H   0  0  0  0  0  0  0  0  0  0  0  0
    7.7749   -2.4823   22.0009 H   0  0  0  0  0  0  0  0  0  0  0  0
    6.0230   -2.7591   20.7349 C   0  0  2  0  0  0  0  0  0  0  0  0
    5.5354   -2.2499   19.8933 H   0  0  0  0  0  0  0  0  0  0  0  0
    5.1574   -2.7591   21.9001 N   0  0  0  0  0  0  0  0  0  0  0  0
    4.9161   -3.9796   22.2002 C   0  0  0  0  0  0  0  0  0  0  0  0
    4.2419   -4.1170   23.3476 N   0  0  0  0  0  0  0  0  0  0  0  0
    4.3341   -3.2465   23.8619 H   0  0  0  0  0  0  0  0  0  0  0  0
    4.4785   -4.9718   23.8329 H   0  0  0  0  0  0  0  0  0  0  0  0
    5.4360   -4.9487   21.4276 O   0  0  0  0  0  0  0  0  0  0  0  0
    6.1926   -4.2500   20.4390 C   0  0  0  0  0  0  0  0  0  0  0  0
    7.2474   -4.5404   20.4836 H   0  0  0  0  0  0  0  0  0  0  0  0
    5.8018   -4.4735   19.4436 H   0  0  0  0  0  0  0  0  0  0  0  0
    5.2654    0.7692   20.1974 C   0  0  0  0  0  0  0  0  0  0  0  0
    4.7396    0.8333   21.1489 H   0  0  0  0  0  0  0  0  0  0  0  0
    4.7464    1.3584   19.0422 C   0  0  0  0  0  0  0  0  0  0  0  0
    3.8076    1.8979   19.0723 H   0  0  0  0  0  0  0  0  0  0  0  0
  1  2  1  0
  2  3  2  0
  3  4  1  0
  4  5  1  0
  4  6  2  0
  6  7  1  0
  7  8  1  1
  7  9  1  0
  7 10  1  0
 10 11  1  0
 10 12  1  0
 10 13  1  0
 13 14  1  6
 13 15  1  0
 15 16  2  0
 16 17  1  0
 17 18  1  0
 17 19  1  0
 16 20  1  0
 20 21  1  0
 21 22  1  0
 21 23  1  0
  6 24  1  0
 24 25  1  0
 24 26  2  0
 26 27  1  0
 26  2  1  0
 21 13  1  0
M  END
>  <cnnaffinity>  (1) 
-4.58216

>  <filename>  (1) 
NC1=N[C@@H](C[C@@H](Br)c2cccnc2)CO1

$$$$
