
     RDKit          3D

 44 47  0  0  0  0  0  0  0  0999 V2000
    5.8231    3.6662   29.1370 N   0  0  0  0  0  0  0  0  0  0  0  0
    6.2038    3.1176   27.9247 C   0  0  0  0  0  0  0  0  0  0  0  0
    7.3334    3.6139   27.2603 C   0  0  0  0  0  0  0  0  0  0  0  0
    7.7169    3.0794   26.0381 C   0  0  0  0  0  0  0  0  0  0  0  0
    6.9653    2.0465   25.4378 C   0  0  0  0  0  0  0  0  0  0  0  0
    7.3863    1.5145   24.1297 C   0  0  0  0  0  0  0  0  0  0  0  0
    6.7440    0.5678   23.4605 N   0  0  0  0  0  0  0  0  0  0  0  0
    7.4586    0.4573   22.3194 N   0  0  0  0  0  0  0  0  0  0  0  0
    7.0967   -0.4841   21.2669 C   0  0  0  0  0  0  0  0  0  0  0  0
    6.5494    0.1589   20.0034 C   0  0  0  0  0  0  0  0  0  0  0  0
    5.3682    0.9053   20.0681 C   0  0  0  0  0  0  0  0  0  0  0  0
    4.8663    1.4694   18.8933 C   0  0  0  0  0  0  0  0  0  0  0  0
    5.5607    1.2688   17.6955 C   0  0  0  0  0  0  0  0  0  0  0  0
    6.6941    0.5559   17.6110 N   0  0  0  0  0  0  0  0  0  0  0  0
    7.1673    0.0266   18.7472 C   0  0  0  0  0  0  0  0  0  0  0  0
    8.1011   -0.5321   18.6516 H   0  0  0  0  0  0  0  0  0  0  0  0
    5.1916    1.6873   16.7610 H   0  0  0  0  0  0  0  0  0  0  0  0
    3.9589    2.0642   18.8946 H   0  0  0  0  0  0  0  0  0  0  0  0
    4.8667    1.0328   21.0305 H   0  0  0  0  0  0  0  0  0  0  0  0
    6.3618   -1.1563   21.7170 H   0  0  0  0  0  0  0  0  0  0  0  0
    7.9768   -1.0868   21.0237 H   0  0  0  0  0  0  0  0  0  0  0  0
    8.4965    1.3211   22.3524 C   0  0  0  0  0  0  0  0  0  0  0  0
    9.5307    1.4528   21.2709 C   0  0  0  0  0  0  0  0  0  0  0  0
   10.7925    0.6332   21.4890 C   0  0  0  0  0  0  0  0  0  0  0  0
   11.9236    1.1631   22.1288 C   0  0  0  0  0  0  0  0  0  0  0  0
   13.0192    0.3313   22.3654 C   0  0  0  0  0  0  0  0  0  0  0  0
   12.9459   -0.9813   21.8932 C   0  0  0  0  0  0  0  0  0  0  0  0
   14.3347   -1.9925   22.0117 Cl  0  0  0  0  0  0  0  0  0  0  0  0
   11.8992   -1.5135   21.2897 N   0  0  0  0  0  0  0  0  0  0  0  0
   10.8432   -0.7166   21.1143 C   0  0  0  0  0  0  0  0  0  0  0  0
    9.9896   -1.1704   20.6144 H   0  0  0  0  0  0  0  0  0  0  0  0
   13.9126    0.6567   22.8793 H   0  0  0  0  0  0  0  0  0  0  0  0
   11.9501    2.2154   22.4129 H   0  0  0  0  0  0  0  0  0  0  0  0
    9.0695    1.1587   20.3272 H   0  0  0  0  0  0  0  0  0  0  0  0
    9.7545    2.5203   21.1824 H   0  0  0  0  0  0  0  0  0  0  0  0
    8.4827    1.9972   23.4774 N   0  0  0  0  0  0  0  0  0  0  0  0
    5.8180    1.5607   26.1048 C   0  0  0  0  0  0  0  0  0  0  0  0
    5.4438    2.0998   27.3316 C   0  0  0  0  0  0  0  0  0  0  0  0
    4.5541    1.7574   27.8496 H   0  0  0  0  0  0  0  0  0  0  0  0
    5.2342    0.7529   25.6622 H   0  0  0  0  0  0  0  0  0  0  0  0
    8.6119    3.4479   25.5376 H   0  0  0  0  0  0  0  0  0  0  0  0
    7.8872    4.4267   27.7159 H   0  0  0  0  0  0  0  0  0  0  0  0
    6.5797    4.1053   29.6364 H   0  0  0  0  0  0  0  0  0  0  0  0
    5.2980    3.0377   29.7243 H   0  0  0  0  0  0  0  0  0  0  0  0
  1  2  1  0
  2  3  2  0
  3  4  1  0
  4  5  2  0
  5  6  1  0
  6  7  2  0
  7  8  1  0
  8  9  1  0
  9 10  1  0
 10 11  2  0
 11 12  1  0
 12 13  2  0
 13 14  1  0
 14 15  2  0
 15 16  1  0
 13 17  1  0
 12 18  1  0
 11 19  1  0
  9 20  1  0
  9 21  1  0
  8 22  1  0
 22 23  1  0
 23 24  1  0
 24 25  2  0
 25 26  1  0
 26 27  2  0
 27 28  1  0
 27 29  1  0
 29 30  2  0
 30 31  1  0
 26 32  1  0
 25 33  1  0
 23 34  1  0
 23 35  1  0
 22 36  2  0
  5 37  1  0
 37 38  2  0
 38 39  1  0
 37 40  1  0
  4 41  1  0
  3 42  1  0
  1 43  1  0
  1 44  1  0
 38  2  1  0
 36  6  1  0
 15 10  1  0
 30 24  1  0
M  END
>  <cnnaffinity>  (1) 
-6.56647

>  <filename>  (1) 
Nc1ccc(-c2nc(Cc3ccc(Cl)nc3)n(Cc3cccnc3)n2)cc1

$$$$
