
     RDKit          3D

 41 44  0  0  0  0  0  0  0  0999 V2000
    6.7364   -5.9606   26.5074 N   0  0  0  0  0  0  0  0  0  0  0  0
    6.9601   -5.0188   25.5478 C   0  0  0  0  0  0  0  0  0  0  0  0
    5.9096   -4.6122   24.7071 C   0  0  0  0  0  0  0  0  0  0  0  0
    6.1290   -3.6518   23.7307 C   0  0  0  0  0  0  0  0  0  0  0  0
    7.4078   -3.0788   23.5666 C   0  0  0  0  0  0  0  0  0  0  0  0
    7.6172   -2.0595   22.5290 C   0  0  0  0  0  0  0  0  0  0  0  0
    6.6644   -1.6336   21.7096 N   0  0  0  0  0  0  0  0  0  0  0  0
    7.3029   -0.7145   20.9458 N   0  0  0  0  0  0  0  0  0  0  0  0
    6.6331   -0.0218   19.8983 C   0  0  0  0  0  0  0  0  0  0  0  0
    5.4281    0.6334   20.1581 C   0  0  0  0  0  0  0  0  0  0  0  0
    4.8059    1.3136   19.1072 C   0  0  0  0  0  0  0  0  0  0  0  0
    5.3940    1.2955   17.8372 C   0  0  0  0  0  0  0  0  0  0  0  0
    6.5455    0.6590   17.5782 N   0  0  0  0  0  0  0  0  0  0  0  0
    7.1517    0.0281   18.5896 C   0  0  0  0  0  0  0  0  0  0  0  0
    8.1020   -0.4454   18.3490 H   0  0  0  0  0  0  0  0  0  0  0  0
    4.9322    1.8034   16.9935 H   0  0  0  0  0  0  0  0  0  0  0  0
    3.8766    1.8489   19.2543 H   0  0  0  0  0  0  0  0  0  0  0  0
    5.0137    0.5941   21.1660 H   0  0  0  0  0  0  0  0  0  0  0  0
    8.5894   -0.6000   21.3789 C   0  0  0  0  0  0  0  0  0  0  0  0
    9.6250    0.3012   20.8075 C   0  0  0  0  0  0  0  0  0  0  0  0
   10.3131    1.1297   21.8724 C   0  0  0  0  0  0  0  0  0  0  0  0
    9.7033    2.2415   22.4765 C   0  0  0  0  0  0  0  0  0  0  0  0
    8.1369    2.7737   21.9450 Cl  0  0  0  0  0  0  0  0  0  0  0  0
   10.3237    2.8999   23.5521 C   0  0  0  0  0  0  0  0  0  0  0  0
   11.5040    2.5044   24.0492 N   0  0  0  0  0  0  0  0  0  0  0  0
   12.1091    1.4507   23.4849 C   0  0  0  0  0  0  0  0  0  0  0  0
   11.5464    0.7552   22.4083 C   0  0  0  0  0  0  0  0  0  0  0  0
   12.1980   -0.3086   21.9077 F   0  0  0  0  0  0  0  0  0  0  0  0
   13.0645    1.1193   23.8873 H   0  0  0  0  0  0  0  0  0  0  0  0
    9.8361    3.7544   24.0231 H   0  0  0  0  0  0  0  0  0  0  0  0
   10.3388   -0.3647   20.3179 H   0  0  0  0  0  0  0  0  0  0  0  0
    9.1720    0.9621   20.0683 H   0  0  0  0  0  0  0  0  0  0  0  0
    8.8192   -1.4567   22.3456 N   0  0  0  0  0  0  0  0  0  0  0  0
    8.4611   -3.4869   24.4179 C   0  0  0  0  0  0  0  0  0  0  0  0
    8.2368   -4.4484   25.3972 C   0  0  0  0  0  0  0  0  0  0  0  0
    9.0246   -4.7823   26.0666 H   0  0  0  0  0  0  0  0  0  0  0  0
    9.4538   -3.0451   24.3127 H   0  0  0  0  0  0  0  0  0  0  0  0
    5.3136   -3.3242   23.0849 H   0  0  0  0  0  0  0  0  0  0  0  0
    4.9341   -5.0648   24.8492 H   0  0  0  0  0  0  0  0  0  0  0  0
    7.4904   -6.2609   27.0973 H   0  0  0  0  0  0  0  0  0  0  0  0
    5.8224   -6.3600   26.6048 H   0  0  0  0  0  0  0  0  0  0  0  0
  1  2  1  0
  2  3  2  0
  3  4  1  0
  4  5  2  0
  5  6  1  0
  6  7  2  0
  7  8  1  0
  8  9  1  0
  9 10  2  0
 10 11  1  0
 11 12  2  0
 12 13  1  0
 13 14  2  0
 14 15  1  0
 12 16  1  0
 11 17  1  0
 10 18  1  0
  8 19  1  0
 19 20  1  0
 20 21  1  0
 21 22  2  0
 22 23  1  0
 22 24  1  0
 24 25  2  0
 25 26  1  0
 26 27  2  0
 27 28  1  0
 26 29  1  0
 24 30  1  0
 20 31  1  0
 20 32  1  0
 19 33  2  0
  5 34  1  0
 34 35  2  0
 35 36  1  0
 34 37  1  0
  4 38  1  0
  3 39  1  0
  1 40  1  0
  1 41  1  0
 35  2  1  0
 33  6  1  0
 14  9  1  0
 27 21  1  0
M  END
>  <cnnaffinity>  (1) 
-6.63154

>  <filename>  (1) 
Nc1ccc(-c2nc(Cc3c(F)cncc3Cl)n(-c3cccnc3)n2)cc1

$$$$
