
     RDKit          3D

 44 47  0  0  0  0  0  0  0  0999 V2000
    5.9597    3.4209   28.8102 N   0  0  0  0  0  0  0  0  0  0  0  0
    6.3812    2.9294   27.6092 C   0  0  0  0  0  0  0  0  0  0  0  0
    7.5598    3.4155   27.0172 C   0  0  0  0  0  0  0  0  0  0  0  0
    7.9821    2.9129   25.7902 C   0  0  0  0  0  0  0  0  0  0  0  0
    7.2311    1.9170   25.1271 C   0  0  0  0  0  0  0  0  0  0  0  0
    7.6667    1.3824   23.8259 C   0  0  0  0  0  0  0  0  0  0  0  0
    7.0543    0.3929   23.1909 N   0  0  0  0  0  0  0  0  0  0  0  0
    7.8049    0.2215   22.0802 N   0  0  0  0  0  0  0  0  0  0  0  0
    7.3822   -0.6916   21.0218 C   0  0  0  0  0  0  0  0  0  0  0  0
    6.6543    0.0023   19.8862 C   0  0  0  0  0  0  0  0  0  0  0  0
    5.4390    0.6480   20.1393 C   0  0  0  0  0  0  0  0  0  0  0  0
    4.8015    1.3086   19.0876 C   0  0  0  0  0  0  0  0  0  0  0  0
    5.3948    1.2980   17.8211 C   0  0  0  0  0  0  0  0  0  0  0  0
    6.5542    0.6777   17.5589 N   0  0  0  0  0  0  0  0  0  0  0  0
    7.1607    0.0556   18.5787 C   0  0  0  0  0  0  0  0  0  0  0  0
    8.1098   -0.4254   18.3349 H   0  0  0  0  0  0  0  0  0  0  0  0
    4.9235    1.8033   16.9791 H   0  0  0  0  0  0  0  0  0  0  0  0
    3.8743    1.8431   19.2380 H   0  0  0  0  0  0  0  0  0  0  0  0
    5.0314    0.6389   21.1538 H   0  0  0  0  0  0  0  0  0  0  0  0
    8.2611   -1.2324   20.6512 H   0  0  0  0  0  0  0  0  0  0  0  0
    6.7386   -1.4200   21.5252 H   0  0  0  0  0  0  0  0  0  0  0  0
    8.8149    1.1190   22.0836 C   0  0  0  0  0  0  0  0  0  0  0  0
    9.8954    1.1842   21.0480 C   0  0  0  0  0  0  0  0  0  0  0  0
   11.1687    0.4695   21.4784 C   0  0  0  0  0  0  0  0  0  0  0  0
   11.3891   -0.8771   21.1628 C   0  0  0  0  0  0  0  0  0  0  0  0
   12.4488   -1.5903   21.5435 N   0  0  0  0  0  0  0  0  0  0  0  0
   13.3525   -0.9909   22.3184 C   0  0  0  0  0  0  0  0  0  0  0  0
   13.2341    0.3279   22.7550 C   0  0  0  0  0  0  0  0  0  0  0  0
   12.1281    1.0579   22.3143 C   0  0  0  0  0  0  0  0  0  0  0  0
   11.9516    2.6995   22.8476 Cl  0  0  0  0  0  0  0  0  0  0  0  0
   13.9655    0.7745   23.4105 H   0  0  0  0  0  0  0  0  0  0  0  0
   14.2062   -1.6035   22.6151 H   0  0  0  0  0  0  0  0  0  0  0  0
   10.6276   -1.4108   20.5924 H   0  0  0  0  0  0  0  0  0  0  0  0
    9.5247    0.7743   20.1007 H   0  0  0  0  0  0  0  0  0  0  0  0
   10.1106    2.2425   20.8783 H   0  0  0  0  0  0  0  0  0  0  0  0
    8.7509    1.8663   23.1649 N   0  0  0  0  0  0  0  0  0  0  0  0
    6.0520    1.4363   25.7331 C   0  0  0  0  0  0  0  0  0  0  0  0
    5.6301    1.9357   26.9585 C   0  0  0  0  0  0  0  0  0  0  0  0
    4.7248    1.5742   27.4356 H   0  0  0  0  0  0  0  0  0  0  0  0
    5.4720    0.6643   25.2329 H   0  0  0  0  0  0  0  0  0  0  0  0
    8.8969    3.2929   25.3376 H   0  0  0  0  0  0  0  0  0  0  0  0
    8.1144    4.1869   27.5414 H   0  0  0  0  0  0  0  0  0  0  0  0
    6.4942    4.1258   29.2792 H   0  0  0  0  0  0  0  0  0  0  0  0
    5.1239    3.0566   29.2252 H   0  0  0  0  0  0  0  0  0  0  0  0
  1  2  1  0
  2  3  2  0
  3  4  1  0
  4  5  2  0
  5  6  1  0
  6  7  2  0
  7  8  1  0
  8  9  1  0
  9 10  1  0
 10 11  2  0
 11 12  1  0
 12 13  2  0
 13 14  1  0
 14 15  2  0
 15 16  1  0
 13 17  1  0
 12 18  1  0
 11 19  1  0
  9 20  1  0
  9 21  1  0
  8 22  1  0
 22 23  1  0
 23 24  1  0
 24 25  2  0
 25 26  1  0
 26 27  2  0
 27 28  1  0
 28 29  2  0
 29 30  1  0
 28 31  1  0
 27 32  1  0
 25 33  1  0
 23 34  1  0
 23 35  1  0
 22 36  2  0
  5 37  1  0
 37 38  2  0
 38 39  1  0
 37 40  1  0
  4 41  1  0
  3 42  1  0
  1 43  1  0
  1 44  1  0
 38  2  1  0
 36  6  1  0
 15 10  1  0
 29 24  1  0
M  END
>  <cnnaffinity>  (1) 
-6.53469

>  <filename>  (1) 
Nc1ccc(-c2nc(Cc3cnccc3Cl)n(Cc3cccnc3)n2)cc1

$$$$
