
     RDKit          3D

 26 27  0  0  0  0  0  0  0  0999 V2000
    5.1198    3.1576   24.8407 H   0  0  0  0  0  0  0  0  0  0  0  0
    5.9479    2.8461   24.2153 C   0  0  0  0  0  0  0  0  0  0  0  0
    5.9942    1.5553   23.8472 N   0  0  0  0  0  0  0  0  0  0  0  0
    7.0398    1.1990   23.0670 C   0  0  0  0  0  0  0  0  0  0  0  0
    7.4934   -0.4550   22.5729 S   0  0  0  0  0  0  0  0  0  0  0  0
    6.4691   -1.4240   22.8672 O   0  0  0  0  0  0  0  0  0  0  0  0
    8.8665   -0.7032   22.9662 O   0  0  0  0  0  0  0  0  0  0  0  0
    7.7053   -0.3339   20.9238 N   0  0  0  0  0  0  0  0  0  0  0  0
    8.2921   -1.1477   20.7943 H   0  0  0  0  0  0  0  0  0  0  0  0
    6.8037    0.1029   19.9102 C   0  0  0  0  0  0  0  0  0  0  0  0
    7.2281    0.1045   18.5548 C   0  0  0  0  0  0  0  0  0  0  0  0
    8.1746   -0.3777   18.3178 H   0  0  0  0  0  0  0  0  0  0  0  0
    6.5551    0.6629   17.5453 N   0  0  0  0  0  0  0  0  0  0  0  0
    5.3853    1.2588   17.8408 C   0  0  0  0  0  0  0  0  0  0  0  0
    4.8805    1.7381   17.0070 H   0  0  0  0  0  0  0  0  0  0  0  0
    4.8395    1.2536   19.1280 C   0  0  0  0  0  0  0  0  0  0  0  0
    3.8848    1.7391   19.2937 H   0  0  0  0  0  0  0  0  0  0  0  0
    5.5431    0.6477   20.1806 C   0  0  0  0  0  0  0  0  0  0  0  0
    5.1172    0.5927   21.1806 H   0  0  0  0  0  0  0  0  0  0  0  0
    7.9906    2.1050   22.6030 C   0  0  0  0  0  0  0  0  0  0  0  0
    8.8155    1.8137   21.9555 H   0  0  0  0  0  0  0  0  0  0  0  0
    7.9333    3.3912   22.9476 N   0  0  0  0  0  0  0  0  0  0  0  0
    6.9517    3.7588   23.7873 C   0  0  0  0  0  0  0  0  0  0  0  0
    7.1415    5.0723   24.1620 N   0  0  0  0  0  0  0  0  0  0  0  0
    6.3269    5.6434   24.3054 H   0  0  0  0  0  0  0  0  0  0  0  0
    7.7624    5.4086   23.4357 H   0  0  0  0  0  0  0  0  0  0  0  0
  1  2  1  0
  2  3  2  0
  3  4  1  0
  4  5  1  0
  5  6  2  0
  5  7  2  0
  5  8  1  0
  8  9  1  0
  8 10  1  0
 10 11  2  0
 11 12  1  0
 11 13  1  0
 13 14  2  0
 14 15  1  0
 14 16  1  0
 16 17  1  0
 16 18  2  0
 18 19  1  0
  4 20  2  0
 20 21  1  0
 20 22  1  0
 22 23  2  0
 23 24  1  0
 24 25  1  0
 24 26  1  0
 23  2  1  0
 18 10  1  0
M  END
>  <cnnaffinity>  (1) 
-4.43164

>  <filename>  (1) 
Nc1cnc(S(=O)(=O)Nc2cccnc2)cn1

$$$$
