
     RDKit          3D

 45 48  0  0  0  0  0  0  0  0999 V2000
    5.8714    3.6688   28.9642 N   0  0  0  0  0  0  0  0  0  0  0  0
    6.2880    3.0828   27.7793 C   0  0  0  0  0  0  0  0  0  0  0  0
    5.5405    2.0582   27.1843 C   0  0  0  0  0  0  0  0  0  0  0  0
    5.9329    1.5174   25.9643 C   0  0  0  0  0  0  0  0  0  0  0  0
    7.0921    1.9937   25.3137 C   0  0  0  0  0  0  0  0  0  0  0  0
    7.5307    1.4558   24.0131 C   0  0  0  0  0  0  0  0  0  0  0  0
    6.8852    0.5271   23.3236 N   0  0  0  0  0  0  0  0  0  0  0  0
    7.6618    0.3531   22.2328 N   0  0  0  0  0  0  0  0  0  0  0  0
    7.2944   -0.5692   21.1631 C   0  0  0  0  0  0  0  0  0  0  0  0
    6.6513    0.0977   19.9562 C   0  0  0  0  0  0  0  0  0  0  0  0
    5.4414    0.7864   20.1137 C   0  0  0  0  0  0  0  0  0  0  0  0
    4.8558    1.3831   18.9957 C   0  0  0  0  0  0  0  0  0  0  0  0
    5.4991    1.2704   17.7601 C   0  0  0  0  0  0  0  0  0  0  0  0
    6.6540    0.6110   17.5855 N   0  0  0  0  0  0  0  0  0  0  0  0
    7.2113    0.0500   18.6684 C   0  0  0  0  0  0  0  0  0  0  0  0
    8.1552   -0.4733   18.4912 H   0  0  0  0  0  0  0  0  0  0  0  0
    5.0732    1.7305   16.8700 H   0  0  0  0  0  0  0  0  0  0  0  0
    3.9271    1.9386   19.0704 H   0  0  0  0  0  0  0  0  0  0  0  0
    4.9768    0.8533   21.0993 H   0  0  0  0  0  0  0  0  0  0  0  0
    6.6143   -1.2956   21.6195 H   0  0  0  0  0  0  0  0  0  0  0  0
    8.1968   -1.1149   20.8672 H   0  0  0  0  0  0  0  0  0  0  0  0
    8.7318    1.1723   22.3076 C   0  0  0  0  0  0  0  0  0  0  0  0
    9.8293    1.2083   21.2846 C   0  0  0  0  0  0  0  0  0  0  0  0
   11.0374    0.3442   21.6296 C   0  0  0  0  0  0  0  0  0  0  0  0
   11.1831   -0.9282   21.1641 C   0  0  0  0  0  0  0  0  0  0  0  0
   12.3313   -1.6274   21.4532 N   0  0  0  0  0  0  0  0  0  0  0  0
   13.4121   -1.1270   22.1718 C   0  0  0  0  0  0  0  0  0  0  0  0
   14.4218   -1.8044   22.2285 O   0  0  0  0  0  0  0  0  0  0  0  0
   13.1941    0.1833   22.7690 C   0  0  0  0  0  0  0  0  0  0  0  0
   12.0577    0.8859   22.4954 C   0  0  0  0  0  0  0  0  0  0  0  0
   11.8978    1.8773   22.9275 H   0  0  0  0  0  0  0  0  0  0  0  0
   13.9912    0.5505   23.3977 H   0  0  0  0  0  0  0  0  0  0  0  0
   12.5844   -2.5384   21.0928 H   0  0  0  0  0  0  0  0  0  0  0  0
   10.4247   -1.4258   20.5593 H   0  0  0  0  0  0  0  0  0  0  0  0
   10.1431    2.2534   21.2084 H   0  0  0  0  0  0  0  0  0  0  0  0
    9.4098    0.9580   20.3011 H   0  0  0  0  0  0  0  0  0  0  0  0
    8.6775    1.8842   23.4117 N   0  0  0  0  0  0  0  0  0  0  0  0
    7.8548    3.0035   25.9396 C   0  0  0  0  0  0  0  0  0  0  0  0
    7.4550    3.5404   27.1546 C   0  0  0  0  0  0  0  0  0  0  0  0
    8.0370    4.3089   27.6525 H   0  0  0  0  0  0  0  0  0  0  0  0
    8.7731    3.3532   25.4691 H   0  0  0  0  0  0  0  0  0  0  0  0
    5.3533    0.7100   25.5174 H   0  0  0  0  0  0  0  0  0  0  0  0
    4.6634    1.6892   27.7077 H   0  0  0  0  0  0  0  0  0  0  0  0
    6.6379    4.0783   29.4752 H   0  0  0  0  0  0  0  0  0  0  0  0
    5.3279    3.0432   29.5395 H   0  0  0  0  0  0  0  0  0  0  0  0
  1  2  1  0
  2  3  2  0
  3  4  1  0
  4  5  2  0
  5  6  1  0
  6  7  2  0
  7  8  1  0
  8  9  1  0
  9 10  1  0
 10 11  2  0
 11 12  1  0
 12 13  2  0
 13 14  1  0
 14 15  2  0
 15 16  1  0
 13 17  1  0
 12 18  1  0
 11 19  1  0
  9 20  1  0
  9 21  1  0
  8 22  1  0
 22 23  1  0
 23 24  1  0
 24 25  2  0
 25 26  1  0
 26 27  1  0
 27 28  2  0
 27 29  1  0
 29 30  2  0
 30 31  1  0
 29 32  1  0
 26 33  1  0
 25 34  1  0
 23 35  1  0
 23 36  1  0
 22 37  2  0
  5 38  1  0
 38 39  2  0
 39 40  1  0
 38 41  1  0
  4 42  1  0
  3 43  1  0
  1 44  1  0
  1 45  1  0
 39  2  1  0
 37  6  1  0
 15 10  1  0
 30 24  1  0
M  END
>  <cnnaffinity>  (1) 
-6.46816

>  <filename>  (1) 
Nc1ccc(-c2nc(Cc3ccc(=O)[nH]c3)n(Cc3cccnc3)n2)cc1

$$$$
