
     RDKit          3D

 47 50  0  0  0  0  0  0  0  0999 V2000
   15.2555   -1.2614   19.9087 N   0  0  0  0  0  0  0  0  0  0  0  0
   14.2323   -1.1894   20.8310 C   0  0  0  0  0  0  0  0  0  0  0  0
   13.1620   -2.0403   20.5842 C   0  0  0  0  0  0  0  0  0  0  0  0
   11.9447   -1.7811   21.1714 C   0  0  0  0  0  0  0  0  0  0  0  0
   11.7479   -0.6330   21.9475 C   0  0  0  0  0  0  0  0  0  0  0  0
   10.3485   -0.2081   22.0741 C   0  0  0  0  0  0  0  0  0  0  0  0
    9.3701   -0.9728   21.5947 N   0  0  0  0  0  0  0  0  0  0  0  0
    8.2699   -0.2253   21.7605 N   0  0  0  0  0  0  0  0  0  0  0  0
    6.9788   -0.6804   21.2453 C   0  0  0  0  0  0  0  0  0  0  0  0
    6.4565    0.1036   20.0538 C   0  0  0  0  0  0  0  0  0  0  0  0
    5.2413    0.8002   20.0648 C   0  0  0  0  0  0  0  0  0  0  0  0
    4.8336    1.4695   18.9062 C   0  0  0  0  0  0  0  0  0  0  0  0
    5.6567    1.4194   17.7783 C   0  0  0  0  0  0  0  0  0  0  0  0
    6.8201    0.7523   17.7427 N   0  0  0  0  0  0  0  0  0  0  0  0
    7.1976    0.1169   18.8585 C   0  0  0  0  0  0  0  0  0  0  0  0
    8.1399   -0.4270   18.8015 H   0  0  0  0  0  0  0  0  0  0  0  0
    5.3687    1.9283   16.8590 H   0  0  0  0  0  0  0  0  0  0  0  0
    3.9070    2.0328   18.8664 H   0  0  0  0  0  0  0  0  0  0  0  0
    4.6155    0.8198   20.9607 H   0  0  0  0  0  0  0  0  0  0  0  0
    6.2564   -0.6607   22.0690 H   0  0  0  0  0  0  0  0  0  0  0  0
    7.1286   -1.7309   20.9778 H   0  0  0  0  0  0  0  0  0  0  0  0
    8.6205    0.9401   22.3513 C   0  0  0  0  0  0  0  0  0  0  0  0
    7.6421    1.8300   23.0223 C   0  0  0  0  0  0  0  0  0  0  0  0
    7.3344    1.2630   24.4331 C   0  0  0  0  0  0  0  0  0  0  0  0
    6.2631    2.0175   25.1622 C   0  0  0  0  0  0  0  0  0  0  0  0
    4.9308    1.5887   25.1032 C   0  0  0  0  0  0  0  0  0  0  0  0
    3.9343    2.3239   25.7484 C   0  0  0  0  0  0  0  0  0  0  0  0
    4.3102    3.4723   26.4469 C   0  0  0  0  0  0  0  0  0  0  0  0
    5.5748    3.9052   26.5265 N   0  0  0  0  0  0  0  0  0  0  0  0
    6.5030    3.1961   25.9045 C   0  0  0  0  0  0  0  0  0  0  0  0
    8.1303    3.8095   26.0730 Cl  0  0  0  0  0  0  0  0  0  0  0  0
    3.5734    4.0720   26.9765 H   0  0  0  0  0  0  0  0  0  0  0  0
    2.8961    2.0170   25.7191 H   0  0  0  0  0  0  0  0  0  0  0  0
    4.6909    0.6683   24.5669 H   0  0  0  0  0  0  0  0  0  0  0  0
    7.0245    0.2115   24.3337 H   0  0  0  0  0  0  0  0  0  0  0  0
    8.2634    1.2509   25.0164 H   0  0  0  0  0  0  0  0  0  0  0  0
    8.0836    2.8263   23.0869 H   0  0  0  0  0  0  0  0  0  0  0  0
    6.7286    1.9110   22.4222 H   0  0  0  0  0  0  0  0  0  0  0  0
    9.9294    0.9894   22.5366 N   0  0  0  0  0  0  0  0  0  0  0  0
   12.8721    0.1050   22.3602 C   0  0  0  0  0  0  0  0  0  0  0  0
   14.1266   -0.1882   21.8163 C   0  0  0  0  0  0  0  0  0  0  0  0
   14.9772    0.4537   22.0205 H   0  0  0  0  0  0  0  0  0  0  0  0
   12.7762    0.9557   23.0266 H   0  0  0  0  0  0  0  0  0  0  0  0
   11.0719   -2.3774   20.9631 H   0  0  0  0  0  0  0  0  0  0  0  0
   13.2665   -2.8125   19.8290 H   0  0  0  0  0  0  0  0  0  0  0  0
   16.1737   -1.0290   20.2581 H   0  0  0  0  0  0  0  0  0  0  0  0
   15.2891   -2.1676   19.4663 H   0  0  0  0  0  0  0  0  0  0  0  0
  1  2  1  0
  2  3  2  0
  3  4  1  0
  4  5  2  0
  5  6  1  0
  6  7  2  0
  7  8  1  0
  8  9  1  0
  9 10  1  0
 10 11  2  0
 11 12  1  0
 12 13  2  0
 13 14  1  0
 14 15  2  0
 15 16  1  0
 13 17  1  0
 12 18  1  0
 11 19  1  0
  9 20  1  0
  9 21  1  0
  8 22  1  0
 22 23  1  0
 23 24  1  0
 24 25  1  0
 25 26  2  0
 26 27  1  0
 27 28  2  0
 28 29  1  0
 29 30  2  0
 30 31  1  0
 28 32  1  0
 27 33  1  0
 26 34  1  0
 24 35  1  0
 24 36  1  0
 23 37  1  0
 23 38  1  0
 22 39  2  0
  5 40  1  0
 40 41  2  0
 41 42  1  0
 40 43  1  0
  4 44  1  0
  3 45  1  0
  1 46  1  0
  1 47  1  0
 41  2  1  0
 39  6  1  0
 15 10  1  0
 30 25  1  0
M  END
>  <cnnaffinity>  (1) 
-6.72176

>  <filename>  (1) 
Nc1ccc(-c2nc(CCc3cccnc3Cl)n(Cc3cccnc3)n2)cc1

$$$$
