
     RDKit          3D

 49 53  0  0  0  0  0  0  0  0999 V2000
   15.1769   -1.2675   19.9247 N   0  0  0  0  0  0  0  0  0  0  0  0
   14.1801   -1.1705   20.8744 C   0  0  0  0  0  0  0  0  0  0  0  0
   14.0728   -0.1567   21.8512 C   0  0  0  0  0  0  0  0  0  0  0  0
   12.8098    0.1581   22.3713 C   0  0  0  0  0  0  0  0  0  0  0  0
   11.6828   -0.5867   21.9746 C   0  0  0  0  0  0  0  0  0  0  0  0
   10.2778   -0.1576   22.0686 C   0  0  0  0  0  0  0  0  0  0  0  0
    9.2929   -0.9603   21.6808 N   0  0  0  0  0  0  0  0  0  0  0  0
    8.2005   -0.1788   21.7372 N   0  0  0  0  0  0  0  0  0  0  0  0
    6.9234   -0.6762   21.2327 C   0  0  0  0  0  0  0  0  0  0  0  0
    6.4100    0.0845   20.0239 C   0  0  0  0  0  0  0  0  0  0  0  0
    5.1832    0.7552   20.0101 C   0  0  0  0  0  0  0  0  0  0  0  0
    4.7955    1.4374   18.8519 C   0  0  0  0  0  0  0  0  0  0  0  0
    5.6471    1.4136   17.7446 C   0  0  0  0  0  0  0  0  0  0  0  0
    6.8217    0.7639   17.7300 N   0  0  0  0  0  0  0  0  0  0  0  0
    7.1832    0.1271   18.8498 C   0  0  0  0  0  0  0  0  0  0  0  0
    8.1412   -0.3900   18.8144 H   0  0  0  0  0  0  0  0  0  0  0  0
    5.3779    1.9363   16.8280 H   0  0  0  0  0  0  0  0  0  0  0  0
    3.8625    1.9889   18.7992 H   0  0  0  0  0  0  0  0  0  0  0  0
    4.5403    0.7510   20.8926 H   0  0  0  0  0  0  0  0  0  0  0  0
    7.1151   -1.7245   20.9730 H   0  0  0  0  0  0  0  0  0  0  0  0
    6.1969   -0.6571   22.0512 H   0  0  0  0  0  0  0  0  0  0  0  0
    8.5645    1.0472   22.1675 C   0  0  0  0  0  0  0  0  0  0  0  0
    7.5638    2.0203   22.7197 C   0  0  0  0  0  0  0  0  0  0  0  0
    7.0249    1.4584   24.0195 C   0  0  0  0  0  0  0  0  0  0  0  0
    5.8060    1.2178   24.6093 C   0  0  0  0  0  0  0  0  0  0  0  0
    5.9613    0.4925   25.7638 N   0  0  0  0  0  0  0  0  0  0  0  0
    7.2544    0.2713   25.8862 C   0  0  0  0  0  0  0  0  0  0  0  0
    7.9025   -0.5301   26.9474 C   0  0  0  0  0  0  0  0  0  0  0  0
    8.2797   -1.9932   26.7880 C   0  0  0  0  0  0  0  0  0  0  0  0
    9.3493   -0.9489   26.8869 C   0  0  0  0  0  0  0  0  0  0  0  0
    9.9342   -0.8621   27.7987 H   0  0  0  0  0  0  0  0  0  0  0  0
    9.9236   -0.7499   25.9811 H   0  0  0  0  0  0  0  0  0  0  0  0
    8.1322   -2.4744   25.8219 H   0  0  0  0  0  0  0  0  0  0  0  0
    8.0971   -2.6493   27.6354 H   0  0  0  0  0  0  0  0  0  0  0  0
    7.5179   -0.2579   27.9267 H   0  0  0  0  0  0  0  0  0  0  0  0
    7.9290    0.8755   24.8766 N   0  0  0  0  0  0  0  0  0  0  0  0
    8.9271    0.8588   24.7267 H   0  0  0  0  0  0  0  0  0  0  0  0
    4.8152    1.5157   24.2872 H   0  0  0  0  0  0  0  0  0  0  0  0
    8.1070    2.9544   22.8915 H   0  0  0  0  0  0  0  0  0  0  0  0
    6.7660    2.2009   21.9968 H   0  0  0  0  0  0  0  0  0  0  0  0
    9.8687    1.0957   22.3860 N   0  0  0  0  0  0  0  0  0  0  0  0
   11.8882   -1.7597   21.2327 C   0  0  0  0  0  0  0  0  0  0  0  0
   13.1035   -2.0249   20.6494 C   0  0  0  0  0  0  0  0  0  0  0  0
   13.2229   -2.8029   19.9004 H   0  0  0  0  0  0  0  0  0  0  0  0
   11.0296   -2.3849   21.0352 H   0  0  0  0  0  0  0  0  0  0  0  0
   12.7008    1.0096   23.0414 H   0  0  0  0  0  0  0  0  0  0  0  0
   14.9115    0.5014   22.0582 H   0  0  0  0  0  0  0  0  0  0  0  0
   16.0589   -0.8217   20.1126 H   0  0  0  0  0  0  0  0  0  0  0  0
   15.2764   -2.2071   19.5743 H   0  0  0  0  0  0  0  0  0  0  0  0
  1  2  1  0
  2  3  2  0
  3  4  1  0
  4  5  2  0
  5  6  1  0
  6  7  2  0
  7  8  1  0
  8  9  1  0
  9 10  1  0
 10 11  2  0
 11 12  1  0
 12 13  2  0
 13 14  1  0
 14 15  2  0
 15 16  1  0
 13 17  1  0
 12 18  1  0
 11 19  1  0
  9 20  1  0
  9 21  1  0
  8 22  1  0
 22 23  1  0
 23 24  1  0
 24 25  2  0
 25 26  1  0
 26 27  2  0
 27 28  1  0
 28 29  1  0
 29 30  1  0
 30 31  1  0
 30 32  1  0
 29 33  1  0
 29 34  1  0
 28 35  1  0
 27 36  1  0
 36 37  1  0
 25 38  1  0
 23 39  1  0
 23 40  1  0
 22 41  2  0
  5 42  1  0
 42 43  2  0
 43 44  1  0
 42 45  1  0
  4 46  1  0
  3 47  1  0
  1 48  1  0
  1 49  1  0
 43  2  1  0
 41  6  1  0
 15 10  1  0
 36 24  1  0
 30 28  1  0
M  END
>  <cnnaffinity>  (1) 
-7.00138

>  <filename>  (1) 
Nc1ccc(-c2nc(Cc3cnc(C4CC4)[nH]3)n(Cc3cccnc3)n2)cc1

$$$$
