
     RDKit          3D

 45 48  0  0  0  0  0  0  0  0999 V2000
    5.8798    3.6830   28.9129 N   0  0  0  0  0  0  0  0  0  0  0  0
    6.3137    3.0622   27.7492 C   0  0  0  0  0  0  0  0  0  0  0  0
    7.4960    3.4962   27.1423 C   0  0  0  0  0  0  0  0  0  0  0  0
    7.8934    2.9487   25.9323 C   0  0  0  0  0  0  0  0  0  0  0  0
    7.1225    1.9484   25.3020 C   0  0  0  0  0  0  0  0  0  0  0  0
    7.5625    1.4288   23.9936 C   0  0  0  0  0  0  0  0  0  0  0  0
    6.9363    0.4926   23.2980 N   0  0  0  0  0  0  0  0  0  0  0  0
    7.7151    0.3410   22.2015 N   0  0  0  0  0  0  0  0  0  0  0  0
    7.3421   -0.5862   21.1353 C   0  0  0  0  0  0  0  0  0  0  0  0
    6.6595    0.0667   19.9424 C   0  0  0  0  0  0  0  0  0  0  0  0
    5.4431    0.7386   20.1222 C   0  0  0  0  0  0  0  0  0  0  0  0
    4.8470    1.3523   19.0183 C   0  0  0  0  0  0  0  0  0  0  0  0
    5.4810    1.2739   17.7751 C   0  0  0  0  0  0  0  0  0  0  0  0
    6.6367    0.6225   17.5768 N   0  0  0  0  0  0  0  0  0  0  0  0
    7.1987    0.0415   18.6460 C   0  0  0  0  0  0  0  0  0  0  0  0
    8.1436   -0.4676   18.4510 H   0  0  0  0  0  0  0  0  0  0  0  0
    5.0415    1.7482   16.8988 H   0  0  0  0  0  0  0  0  0  0  0  0
    3.9167    1.9026   19.1078 H   0  0  0  0  0  0  0  0  0  0  0  0
    4.9896    0.7961   21.1142 H   0  0  0  0  0  0  0  0  0  0  0  0
    8.2312   -1.1440   20.8160 H   0  0  0  0  0  0  0  0  0  0  0  0
    6.6707   -1.3043   21.6119 H   0  0  0  0  0  0  0  0  0  0  0  0
    8.7620    1.1888   22.2806 C   0  0  0  0  0  0  0  0  0  0  0  0
    9.8727    1.2998   21.2902 C   0  0  0  0  0  0  0  0  0  0  0  0
   11.1058    0.5004   21.6704 C   0  0  0  0  0  0  0  0  0  0  0  0
   11.3581   -0.7543   21.1143 C   0  0  0  0  0  0  0  0  0  0  0  0
   12.5744   -1.4125   21.3366 C   0  0  0  0  0  0  0  0  0  0  0  0
   13.4890   -0.8477   22.2153 C   0  0  0  0  0  0  0  0  0  0  0  0
   14.6606   -1.4589   22.4318 F   0  0  0  0  0  0  0  0  0  0  0  0
   13.1807    0.3408   22.8923 C   0  0  0  0  0  0  0  0  0  0  0  0
   14.0418    0.8047   23.8067 F   0  0  0  0  0  0  0  0  0  0  0  0
   12.0083    1.0343   22.6026 C   0  0  0  0  0  0  0  0  0  0  0  0
   11.7929    1.9727   23.1117 H   0  0  0  0  0  0  0  0  0  0  0  0
   12.8378   -2.3389   20.8379 H   0  0  0  0  0  0  0  0  0  0  0  0
   10.5779   -1.2107   20.5171 H   0  0  0  0  0  0  0  0  0  0  0  0
   10.1348    2.3617   21.2412 H   0  0  0  0  0  0  0  0  0  0  0  0
    9.5142    1.0201   20.2963 H   0  0  0  0  0  0  0  0  0  0  0  0
    8.6925    1.8900   23.3875 N   0  0  0  0  0  0  0  0  0  0  0  0
    5.9594    1.4793   25.9524 C   0  0  0  0  0  0  0  0  0  0  0  0
    5.5682    2.0300   27.1692 C   0  0  0  0  0  0  0  0  0  0  0  0
    4.6883    1.6682   27.6971 H   0  0  0  0  0  0  0  0  0  0  0  0
    5.3667    0.6838   25.4998 H   0  0  0  0  0  0  0  0  0  0  0  0
    8.8081    3.2903   25.4508 H   0  0  0  0  0  0  0  0  0  0  0  0
    8.0889    4.2603   27.6372 H   0  0  0  0  0  0  0  0  0  0  0  0
    6.6527    4.0637   29.4329 H   0  0  0  0  0  0  0  0  0  0  0  0
    5.3349    3.0588   29.4874 H   0  0  0  0  0  0  0  0  0  0  0  0
  1  2  1  0
  2  3  2  0
  3  4  1  0
  4  5  2  0
  5  6  1  0
  6  7  2  0
  7  8  1  0
  8  9  1  0
  9 10  1  0
 10 11  2  0
 11 12  1  0
 12 13  2  0
 13 14  1  0
 14 15  2  0
 15 16  1  0
 13 17  1  0
 12 18  1  0
 11 19  1  0
  9 20  1  0
  9 21  1  0
  8 22  1  0
 22 23  1  0
 23 24  1  0
 24 25  2  0
 25 26  1  0
 26 27  2  0
 27 28  1  0
 27 29  1  0
 29 30  1  0
 29 31  2  0
 31 32  1  0
 26 33  1  0
 25 34  1  0
 23 35  1  0
 23 36  1  0
 22 37  2  0
  5 38  1  0
 38 39  2  0
 39 40  1  0
 38 41  1  0
  4 42  1  0
  3 43  1  0
  1 44  1  0
  1 45  1  0
 39  2  1  0
 37  6  1  0
 15 10  1  0
 31 24  1  0
M  END
>  <cnnaffinity>  (1) 
-6.16807

>  <filename>  (1) 
Nc1ccc(-c2nc(Cc3ccc(F)c(F)c3)n(Cc3cccnc3)n2)cc1

$$$$
