
     RDKit          3D

 47 50  0  0  0  0  0  0  0  0999 V2000
   15.1478   -1.3646   19.9384 N   0  0  0  0  0  0  0  0  0  0  0  0
   14.1085   -1.2383   20.8298 C   0  0  0  0  0  0  0  0  0  0  0  0
   14.0366   -0.2486   21.8289 C   0  0  0  0  0  0  0  0  0  0  0  0
   12.7888    0.1048   22.3598 C   0  0  0  0  0  0  0  0  0  0  0  0
   11.6264   -0.5748   21.9335 C   0  0  0  0  0  0  0  0  0  0  0  0
   10.2236   -0.1193   22.0853 C   0  0  0  0  0  0  0  0  0  0  0  0
    9.2212   -0.8525   21.6033 N   0  0  0  0  0  0  0  0  0  0  0  0
    8.1295   -0.0961   21.8143 N   0  0  0  0  0  0  0  0  0  0  0  0
    6.8240   -0.5433   21.3232 C   0  0  0  0  0  0  0  0  0  0  0  0
    6.3360    0.1698   20.0762 C   0  0  0  0  0  0  0  0  0  0  0  0
    5.1109    0.8420   20.0086 C   0  0  0  0  0  0  0  0  0  0  0  0
    4.7423    1.4627   18.8115 C   0  0  0  0  0  0  0  0  0  0  0  0
    5.6106    1.3866   17.7210 C   0  0  0  0  0  0  0  0  0  0  0  0
    6.7853    0.7404   17.7583 N   0  0  0  0  0  0  0  0  0  0  0  0
    7.1268    0.1558   18.9131 C   0  0  0  0  0  0  0  0  0  0  0  0
    8.0819   -0.3665   18.9167 H   0  0  0  0  0  0  0  0  0  0  0  0
    5.3511    1.8518   16.7714 H   0  0  0  0  0  0  0  0  0  0  0  0
    3.8046    1.9965   18.7105 H   0  0  0  0  0  0  0  0  0  0  0  0
    4.4515    0.8894   20.8769 H   0  0  0  0  0  0  0  0  0  0  0  0
    6.9536   -1.6105   21.1189 H   0  0  0  0  0  0  0  0  0  0  0  0
    6.1050   -0.4569   22.1428 H   0  0  0  0  0  0  0  0  0  0  0  0
    8.5068    1.0472   22.4329 C   0  0  0  0  0  0  0  0  0  0  0  0
    7.5533    1.9433   23.1664 C   0  0  0  0  0  0  0  0  0  0  0  0
    7.4848    1.6008   24.6939 C   0  0  0  0  0  0  0  0  0  0  0  0
    7.2124    0.1368   24.9691 C   0  0  0  0  0  0  0  0  0  0  0  0
    8.2828   -0.7618   25.1519 C   0  0  0  0  0  0  0  0  0  0  0  0
    8.0285   -2.1299   25.2350 C   0  0  0  0  0  0  0  0  0  0  0  0
    6.6972   -2.5493   25.1754 C   0  0  0  0  0  0  0  0  0  0  0  0
    5.6995   -1.5820   25.0370 C   0  0  0  0  0  0  0  0  0  0  0  0
    5.9378   -0.2668   24.9312 N   0  0  0  0  0  0  0  0  0  0  0  0
    4.6545   -1.8804   24.9927 H   0  0  0  0  0  0  0  0  0  0  0  0
    6.4252   -3.5968   25.2320 H   0  0  0  0  0  0  0  0  0  0  0  0
    8.8456   -2.8471   25.3282 H   0  0  0  0  0  0  0  0  0  0  0  0
    9.2915   -0.3650   25.1755 H   0  0  0  0  0  0  0  0  0  0  0  0
    8.4420    1.8705   25.1562 H   0  0  0  0  0  0  0  0  0  0  0  0
    6.7020    2.1999   25.1629 H   0  0  0  0  0  0  0  0  0  0  0  0
    7.8934    2.9731   23.0225 H   0  0  0  0  0  0  0  0  0  0  0  0
    6.5494    1.8724   22.7310 H   0  0  0  0  0  0  0  0  0  0  0  0
    9.8218    1.0651   22.6014 N   0  0  0  0  0  0  0  0  0  0  0  0
   11.7905   -1.7299   21.1565 C   0  0  0  0  0  0  0  0  0  0  0  0
   12.9916   -2.0172   20.5491 C   0  0  0  0  0  0  0  0  0  0  0  0
   13.0744   -2.7816   19.7808 H   0  0  0  0  0  0  0  0  0  0  0  0
   10.9212   -2.3498   20.9847 H   0  0  0  0  0  0  0  0  0  0  0  0
   12.7277    0.9263   23.0712 H   0  0  0  0  0  0  0  0  0  0  0  0
   14.9189    0.3480   22.0455 H   0  0  0  0  0  0  0  0  0  0  0  0
   15.0778   -2.2225   19.4100 H   0  0  0  0  0  0  0  0  0  0  0  0
   16.0743   -1.2181   20.3086 H   0  0  0  0  0  0  0  0  0  0  0  0
  1  2  1  0
  2  3  2  0
  3  4  1  0
  4  5  2  0
  5  6  1  0
  6  7  2  0
  7  8  1  0
  8  9  1  0
  9 10  1  0
 10 11  2  0
 11 12  1  0
 12 13  2  0
 13 14  1  0
 14 15  2  0
 15 16  1  0
 13 17  1  0
 12 18  1  0
 11 19  1  0
  9 20  1  0
  9 21  1  0
  8 22  1  0
 22 23  1  0
 23 24  1  0
 24 25  1  0
 25 26  2  0
 26 27  1  0
 27 28  2  0
 28 29  1  0
 29 30  2  0
 29 31  1  0
 28 32  1  0
 27 33  1  0
 26 34  1  0
 24 35  1  0
 24 36  1  0
 23 37  1  0
 23 38  1  0
 22 39  2  0
  5 40  1  0
 40 41  2  0
 41 42  1  0
 40 43  1  0
  4 44  1  0
  3 45  1  0
  1 46  1  0
  1 47  1  0
 41  2  1  0
 39  6  1  0
 15 10  1  0
 30 25  1  0
M  END
>  <cnnaffinity>  (1) 
-6.69098

>  <filename>  (1) 
Nc1ccc(-c2nc(CCc3ccccn3)n(Cc3cccnc3)n2)cc1

$$$$
