
     RDKit          3D

 44 47  0  0  0  0  0  0  0  0999 V2000
   15.0208   -1.4132   20.1234 N   0  0  0  0  0  0  0  0  0  0  0  0
   13.8981   -1.2160   20.9622 C   0  0  0  0  0  0  0  0  0  0  0  0
   12.7779   -1.9559   20.6410 C   0  0  0  0  0  0  0  0  0  0  0  0
   11.5451   -1.6371   21.1826 C   0  0  0  0  0  0  0  0  0  0  0  0
   11.4053   -0.4973   21.9958 C   0  0  0  0  0  0  0  0  0  0  0  0
   10.0352   -0.0283   22.2434 C   0  0  0  0  0  0  0  0  0  0  0  0
    9.0192   -0.7311   21.7533 N   0  0  0  0  0  0  0  0  0  0  0  0
    7.9399    0.0017   22.0640 N   0  0  0  0  0  0  0  0  0  0  0  0
    6.6329   -0.4005   21.5529 C   0  0  0  0  0  0  0  0  0  0  0  0
    6.2844    0.2077   20.2100 C   0  0  0  0  0  0  0  0  0  0  0  0
    5.1148    0.9456   19.9985 C   0  0  0  0  0  0  0  0  0  0  0  0
    4.9046    1.5325   18.7485 C   0  0  0  0  0  0  0  0  0  0  0  0
    5.8569    1.3407   17.7478 C   0  0  0  0  0  0  0  0  0  0  0  0
    6.9666    0.6063   17.9157 N   0  0  0  0  0  0  0  0  0  0  0  0
    7.1634    0.0644   19.1227 C   0  0  0  0  0  0  0  0  0  0  0  0
    8.0782   -0.5098   19.2521 H   0  0  0  0  0  0  0  0  0  0  0  0
    5.7316    1.7901   16.7653 H   0  0  0  0  0  0  0  0  0  0  0  0
    4.0337    2.1486   18.5484 H   0  0  0  0  0  0  0  0  0  0  0  0
    4.3885    1.0779   20.8017 H   0  0  0  0  0  0  0  0  0  0  0  0
    6.6769   -1.4923   21.4998 H   0  0  0  0  0  0  0  0  0  0  0  0
    5.8994   -0.1340   22.3138 H   0  0  0  0  0  0  0  0  0  0  0  0
    8.3450    1.1169   22.7111 C   0  0  0  0  0  0  0  0  0  0  0  0
    7.3842    2.0513   23.3599 C   0  0  0  0  0  0  0  0  0  0  0  0
    7.0305    1.4156   24.6760 C   0  0  0  0  0  0  0  0  0  0  0  0
    7.8727    1.5550   25.7859 C   0  0  0  0  0  0  0  0  0  0  0  0
    7.6832    0.7263   26.8931 C   0  0  0  0  0  0  0  0  0  0  0  0
    6.6296   -0.1944   26.8472 C   0  0  0  0  0  0  0  0  0  0  0  0
    5.8054   -0.2126   25.7211 C   0  0  0  0  0  0  0  0  0  0  0  0
    5.9831    0.5850   24.6546 N   0  0  0  0  0  0  0  0  0  0  0  0
    4.9883   -0.9254   25.6519 H   0  0  0  0  0  0  0  0  0  0  0  0
    6.4464   -0.8917   27.6559 H   0  0  0  0  0  0  0  0  0  0  0  0
    8.3684    0.7568   27.7385 H   0  0  0  0  0  0  0  0  0  0  0  0
    8.6951    2.2583   25.7216 H   0  0  0  0  0  0  0  0  0  0  0  0
    6.4986    2.1744   22.7339 H   0  0  0  0  0  0  0  0  0  0  0  0
    7.8642    3.0213   23.4929 H   0  0  0  0  0  0  0  0  0  0  0  0
    9.6539    1.1248   22.8528 N   0  0  0  0  0  0  0  0  0  0  0  0
   12.5619    0.1830   22.4280 C   0  0  0  0  0  0  0  0  0  0  0  0
   13.8123   -0.2135   21.9398 C   0  0  0  0  0  0  0  0  0  0  0  0
   14.7083    0.3357   22.2041 H   0  0  0  0  0  0  0  0  0  0  0  0
   12.4851    1.0404   23.0939 H   0  0  0  0  0  0  0  0  0  0  0  0
   10.6651   -2.2224   20.9229 H   0  0  0  0  0  0  0  0  0  0  0  0
   12.9244   -2.7130   19.8790 H   0  0  0  0  0  0  0  0  0  0  0  0
   15.8231   -1.5193   20.7237 H   0  0  0  0  0  0  0  0  0  0  0  0
   15.2014   -0.5811   19.5719 H   0  0  0  0  0  0  0  0  0  0  0  0
  1  2  1  0
  2  3  2  0
  3  4  1  0
  4  5  2  0
  5  6  1  0
  6  7  2  0
  7  8  1  0
  8  9  1  0
  9 10  1  0
 10 11  2  0
 11 12  1  0
 12 13  2  0
 13 14  1  0
 14 15  2  0
 15 16  1  0
 13 17  1  0
 12 18  1  0
 11 19  1  0
  9 20  1  0
  9 21  1  0
  8 22  1  0
 22 23  1  0
 23 24  1  0
 24 25  2  0
 25 26  1  0
 26 27  2  0
 27 28  1  0
 28 29  2  0
 28 30  1  0
 27 31  1  0
 26 32  1  0
 25 33  1  0
 23 34  1  0
 23 35  1  0
 22 36  2  0
  5 37  1  0
 37 38  2  0
 38 39  1  0
 37 40  1  0
  4 41  1  0
  3 42  1  0
  1 43  1  0
  1 44  1  0
 38  2  1  0
 36  6  1  0
 15 10  1  0
 29 24  1  0
M  END
>  <cnnaffinity>  (1) 
-6.53121

>  <filename>  (1) 
Nc1ccc(-c2nc(Cc3ccccn3)n(Cc3cccnc3)n2)cc1

$$$$
