
     RDKit          3D

 42 45  0  0  0  0  0  0  0  0999 V2000
    5.9764    3.7412   28.8710 N   0  0  0  0  0  0  0  0  0  0  0  0
    6.3947    3.1256   27.7031 C   0  0  0  0  0  0  0  0  0  0  0  0
    5.6375    2.0972   27.1268 C   0  0  0  0  0  0  0  0  0  0  0  0
    6.0185    1.5411   25.9091 C   0  0  0  0  0  0  0  0  0  0  0  0
    7.1783    2.0039   25.2508 C   0  0  0  0  0  0  0  0  0  0  0  0
    7.6022    1.4642   23.9516 C   0  0  0  0  0  0  0  0  0  0  0  0
    6.9537    0.5226   23.2814 N   0  0  0  0  0  0  0  0  0  0  0  0
    7.7188    0.3404   22.1836 N   0  0  0  0  0  0  0  0  0  0  0  0
    7.3474   -0.5933   21.1303 C   0  0  0  0  0  0  0  0  0  0  0  0
    6.6821    0.0573   19.9314 C   0  0  0  0  0  0  0  0  0  0  0  0
    5.4742    0.7462   20.1121 C   0  0  0  0  0  0  0  0  0  0  0  0
    4.8773    1.3600   19.0087 C   0  0  0  0  0  0  0  0  0  0  0  0
    5.5096    1.2653   17.7650 C   0  0  0  0  0  0  0  0  0  0  0  0
    6.6580    0.5988   17.5662 N   0  0  0  0  0  0  0  0  0  0  0  0
    7.2232    0.0206   18.6358 C   0  0  0  0  0  0  0  0  0  0  0  0
    8.1653   -0.4994   18.4428 H   0  0  0  0  0  0  0  0  0  0  0  0
    5.0712    1.7393   16.8871 H   0  0  0  0  0  0  0  0  0  0  0  0
    3.9526    1.9248   19.1027 H   0  0  0  0  0  0  0  0  0  0  0  0
    5.0275    0.8103   21.1068 H   0  0  0  0  0  0  0  0  0  0  0  0
    8.2546   -1.1226   20.8279 H   0  0  0  0  0  0  0  0  0  0  0  0
    6.6834   -1.3239   21.5996 H   0  0  0  0  0  0  0  0  0  0  0  0
    8.7756    1.1773   22.2336 C   0  0  0  0  0  0  0  0  0  0  0  0
    9.8760    1.2011   21.2245 C   0  0  0  0  0  0  0  0  0  0  0  0
   10.9840    0.2295   21.5394 C   0  0  0  0  0  0  0  0  0  0  0  0
   12.0492    0.3434   22.4065 C   0  0  0  0  0  0  0  0  0  0  0  0
   12.7314   -0.8873   22.3136 C   0  0  0  0  0  0  0  0  0  0  0  0
   12.1349   -1.7142   21.4694 N   0  0  0  0  0  0  0  0  0  0  0  0
   11.0701   -1.0257   21.0226 N   0  0  0  0  0  0  0  0  0  0  0  0
   10.5558   -1.4242   20.2442 H   0  0  0  0  0  0  0  0  0  0  0  0
   13.6371   -1.2030   22.8213 H   0  0  0  0  0  0  0  0  0  0  0  0
   12.3225    1.1732   23.0500 H   0  0  0  0  0  0  0  0  0  0  0  0
    9.4599    1.0164   20.2290 H   0  0  0  0  0  0  0  0  0  0  0  0
   10.2952    2.2099   21.2510 H   0  0  0  0  0  0  0  0  0  0  0  0
    8.7312    1.9028   23.3242 N   0  0  0  0  0  0  0  0  0  0  0  0
    7.9522    3.0143   25.8608 C   0  0  0  0  0  0  0  0  0  0  0  0
    7.5631    3.5649   27.0721 C   0  0  0  0  0  0  0  0  0  0  0  0
    8.1543    4.3354   27.5567 H   0  0  0  0  0  0  0  0  0  0  0  0
    8.8613    3.3572   25.3693 H   0  0  0  0  0  0  0  0  0  0  0  0
    5.4208    0.7439   25.4695 H   0  0  0  0  0  0  0  0  0  0  0  0
    4.7615    1.7437   27.6593 H   0  0  0  0  0  0  0  0  0  0  0  0
    6.7502    4.1442   29.3766 H   0  0  0  0  0  0  0  0  0  0  0  0
    5.4352    3.1293   29.4629 H   0  0  0  0  0  0  0  0  0  0  0  0
  1  2  1  0
  2  3  2  0
  3  4  1  0
  4  5  2  0
  5  6  1  0
  6  7  2  0
  7  8  1  0
  8  9  1  0
  9 10  1  0
 10 11  2  0
 11 12  1  0
 12 13  2  0
 13 14  1  0
 14 15  2  0
 15 16  1  0
 13 17  1  0
 12 18  1  0
 11 19  1  0
  9 20  1  0
  9 21  1  0
  8 22  1  0
 22 23  1  0
 23 24  1  0
 24 25  2  0
 25 26  1  0
 26 27  2  0
 27 28  1  0
 28 29  1  0
 26 30  1  0
 25 31  1  0
 23 32  1  0
 23 33  1  0
 22 34  2  0
  5 35  1  0
 35 36  2  0
 36 37  1  0
 35 38  1  0
  4 39  1  0
  3 40  1  0
  1 41  1  0
  1 42  1  0
 36  2  1  0
 34  6  1  0
 15 10  1  0
 28 24  1  0
M  END
>  <cnnaffinity>  (1) 
-6.06537

>  <filename>  (1) 
Nc1ccc(-c2nc(Cc3ccn[nH]3)n(Cc3cccnc3)n2)cc1

$$$$
