
     RDKit          3D

 42 45  0  0  0  0  0  0  0  0999 V2000
   15.1751   -1.3192   19.9384 N   0  0  0  0  0  0  0  0  0  0  0  0
   14.1526   -1.2102   20.8608 C   0  0  0  0  0  0  0  0  0  0  0  0
   13.0559   -2.0228   20.5912 C   0  0  0  0  0  0  0  0  0  0  0  0
   11.8369   -1.7495   21.1657 C   0  0  0  0  0  0  0  0  0  0  0  0
   11.6540   -0.6128   21.9710 C   0  0  0  0  0  0  0  0  0  0  0  0
   10.2495   -0.1921   22.1437 C   0  0  0  0  0  0  0  0  0  0  0  0
    9.2572   -0.9306   21.6564 N   0  0  0  0  0  0  0  0  0  0  0  0
    8.1609   -0.1848   21.8627 N   0  0  0  0  0  0  0  0  0  0  0  0
    6.8719   -0.6436   21.3453 C   0  0  0  0  0  0  0  0  0  0  0  0
    6.3979    0.1044   20.1170 C   0  0  0  0  0  0  0  0  0  0  0  0
    5.1894    0.8034   20.0580 C   0  0  0  0  0  0  0  0  0  0  0  0
    4.8477    1.4671   18.8762 C   0  0  0  0  0  0  0  0  0  0  0  0
    5.7300    1.4054   17.7953 C   0  0  0  0  0  0  0  0  0  0  0  0
    6.8884    0.7309   17.8260 N   0  0  0  0  0  0  0  0  0  0  0  0
    7.2029    0.1039   18.9647 C   0  0  0  0  0  0  0  0  0  0  0  0
    8.1431   -0.4442   18.9628 H   0  0  0  0  0  0  0  0  0  0  0  0
    5.5044    1.9232   16.8649 H   0  0  0  0  0  0  0  0  0  0  0  0
    3.9261    2.0295   18.7789 H   0  0  0  0  0  0  0  0  0  0  0  0
    4.5183    0.8291   20.9192 H   0  0  0  0  0  0  0  0  0  0  0  0
    6.1456   -0.5781   22.1576 H   0  0  0  0  0  0  0  0  0  0  0  0
    7.0172   -1.7056   21.1154 H   0  0  0  0  0  0  0  0  0  0  0  0
    8.5271    0.9732   22.4511 C   0  0  0  0  0  0  0  0  0  0  0  0
    7.5420    1.9136   23.0763 C   0  0  0  0  0  0  0  0  0  0  0  0
    7.0911    1.3529   24.4151 C   0  0  0  0  0  0  0  0  0  0  0  0
    7.9575    1.2438   25.4612 C   0  0  0  0  0  0  0  0  0  0  0  0
    7.3134    0.3347   26.7630 S   0  0  0  0  0  0  0  0  0  0  0  0
    5.8355    0.1005   25.9174 C   0  0  0  0  0  0  0  0  0  0  0  0
    5.8458    0.7100   24.6961 C   0  0  0  0  0  0  0  0  0  0  0  0
    4.9917    0.7184   24.0227 H   0  0  0  0  0  0  0  0  0  0  0  0
    5.0556   -0.4963   26.3680 H   0  0  0  0  0  0  0  0  0  0  0  0
    8.9769    1.6109   25.4758 H   0  0  0  0  0  0  0  0  0  0  0  0
    8.0501    2.8736   23.1978 H   0  0  0  0  0  0  0  0  0  0  0  0
    6.6928    2.0776   22.4064 H   0  0  0  0  0  0  0  0  0  0  0  0
    9.8364    1.0022   22.6344 N   0  0  0  0  0  0  0  0  0  0  0  0
   12.7953    0.1141   22.3779 C   0  0  0  0  0  0  0  0  0  0  0  0
   14.0488   -0.2039   21.8422 C   0  0  0  0  0  0  0  0  0  0  0  0
   14.9120    0.4182   22.0562 H   0  0  0  0  0  0  0  0  0  0  0  0
   12.7039    0.9625   23.0588 H   0  0  0  0  0  0  0  0  0  0  0  0
   10.9637   -2.3468   20.9312 H   0  0  0  0  0  0  0  0  0  0  0  0
   13.1764   -2.7804   19.8230 H   0  0  0  0  0  0  0  0  0  0  0  0
   16.0970   -1.0954   20.2789 H   0  0  0  0  0  0  0  0  0  0  0  0
   15.1825   -2.2518   19.5432 H   0  0  0  0  0  0  0  0  0  0  0  0
  1  2  1  0
  2  3  2  0
  3  4  1  0
  4  5  2  0
  5  6  1  0
  6  7  2  0
  7  8  1  0
  8  9  1  0
  9 10  1  0
 10 11  2  0
 11 12  1  0
 12 13  2  0
 13 14  1  0
 14 15  2  0
 15 16  1  0
 13 17  1  0
 12 18  1  0
 11 19  1  0
  9 20  1  0
  9 21  1  0
  8 22  1  0
 22 23  1  0
 23 24  1  0
 24 25  2  0
 25 26  1  0
 26 27  1  0
 27 28  2  0
 28 29  1  0
 27 30  1  0
 25 31  1  0
 23 32  1  0
 23 33  1  0
 22 34  2  0
  5 35  1  0
 35 36  2  0
 36 37  1  0
 35 38  1  0
  4 39  1  0
  3 40  1  0
  1 41  1  0
  1 42  1  0
 36  2  1  0
 34  6  1  0
 15 10  1  0
 28 24  1  0
M  END
>  <cnnaffinity>  (1) 
-6.55937

>  <filename>  (1) 
Nc1ccc(-c2nc(Cc3ccsc3)n(Cc3cccnc3)n2)cc1

$$$$
