
     RDKit          3D

 30 32  0  0  0  0  0  0  0  0999 V2000
    4.9803    1.8289   16.9518 H   0  0  0  0  0  0  0  0  0  0  0  0
    5.4119    1.3033   17.8025 C   0  0  0  0  0  0  0  0  0  0  0  0
    6.5528    0.6362   17.5689 N   0  0  0  0  0  0  0  0  0  0  0  0
    7.1208    0.0146   18.6062 C   0  0  0  0  0  0  0  0  0  0  0  0
    8.0250   -0.5484   18.3836 H   0  0  0  0  0  0  0  0  0  0  0  0
    6.6156    0.0518   19.9185 C   0  0  0  0  0  0  0  0  0  0  0  0
    7.3711   -0.5794   21.0052 C   0  0  0  0  0  0  0  0  0  0  0  0
    7.9597   -1.7585   20.8085 N   0  0  0  0  0  0  0  0  0  0  0  0
    8.5382   -2.0140   21.9797 N   0  0  0  0  0  0  0  0  0  0  0  0
    8.4201   -1.0475   22.8979 C   0  0  0  0  0  0  0  0  0  0  0  0
    7.6411   -0.0592   22.3104 C   0  0  0  0  0  0  0  0  0  0  0  0
    7.1470    1.2195   22.9304 C   0  0  0  0  0  0  0  0  0  0  0  0
    7.9605    1.7648   23.4360 H   0  0  0  0  0  0  0  0  0  0  0  0
    6.7752    1.9003   22.1538 H   0  0  0  0  0  0  0  0  0  0  0  0
    6.0854    0.9841   23.9146 N   0  0  0  0  0  0  0  0  0  0  0  0
    5.3985    0.3627   23.4831 H   0  0  0  0  0  0  0  0  0  0  0  0
    6.4936    0.4147   24.6538 H   0  0  0  0  0  0  0  0  0  0  0  0
    9.2481   -1.3905   24.1063 C   0  0  0  0  0  0  0  0  0  0  0  0
    9.9554   -0.5892   24.3395 H   0  0  0  0  0  0  0  0  0  0  0  0
    8.6244   -1.5519   24.9905 H   0  0  0  0  0  0  0  0  0  0  0  0
    9.9762   -2.7015   23.6908 C   0  0  0  0  0  0  0  0  0  0  0  0
    9.7675   -3.5077   24.3947 H   0  0  0  0  0  0  0  0  0  0  0  0
   11.0527   -2.5555   23.6705 H   0  0  0  0  0  0  0  0  0  0  0  0
    9.4882   -3.0515   22.2640 C   0  0  0  0  0  0  0  0  0  0  0  0
    9.0145   -4.0331   22.1902 H   0  0  0  0  0  0  0  0  0  0  0  0
   10.2943   -2.9551   21.5354 H   0  0  0  0  0  0  0  0  0  0  0  0
    5.3867    0.6944   20.1282 C   0  0  0  0  0  0  0  0  0  0  0  0
    4.9101    0.6793   21.1120 H   0  0  0  0  0  0  0  0  0  0  0  0
    4.7767    1.3308   19.0476 C   0  0  0  0  0  0  0  0  0  0  0  0
    3.8365    1.8574   19.1616 H   0  0  0  0  0  0  0  0  0  0  0  0
  1  2  1  0
  2  3  2  0
  3  4  1  0
  4  5  1  0
  4  6  2  0
  6  7  1  0
  7  8  2  0
  8  9  1  0
  9 10  1  0
 10 11  2  0
 11 12  1  0
 12 13  1  0
 12 14  1  0
 12 15  1  0
 15 16  1  0
 15 17  1  0
 10 18  1  0
 18 19  1  0
 18 20  1  0
 18 21  1  0
 21 22  1  0
 21 23  1  0
 21 24  1  0
 24 25  1  0
 24 26  1  0
  6 27  1  0
 27 28  1  0
 27 29  2  0
 29 30  1  0
 29  2  1  0
 11  7  1  0
 24  9  1  0
M  END
>  <cnnaffinity>  (1) 
-4.64013

>  <filename>  (1) 
NCc1c(-c2cccnc2)nn2c1CCC2

$$$$
