
     RDKit          3D

 25 26  0  0  0  0  0  0  0  0999 V2000
    5.0284    1.8315   16.8557 H   0  0  0  0  0  0  0  0  0  0  0  0
    5.4035    1.3207   17.7451 C   0  0  0  0  0  0  0  0  0  0  0  0
    6.5573    0.6535   17.5907 N   0  0  0  0  0  0  0  0  0  0  0  0
    7.0757    0.0650   18.6707 C   0  0  0  0  0  0  0  0  0  0  0  0
    8.0057   -0.4861   18.5403 H   0  0  0  0  0  0  0  0  0  0  0  0
    6.4955    0.1180   19.9481 C   0  0  0  0  0  0  0  0  0  0  0  0
    7.2707   -0.4891   21.0308 C   0  0  0  0  0  0  0  0  0  0  0  0
    8.3181   -1.2587   20.8105 N   0  0  0  0  0  0  0  0  0  0  0  0
    8.7313   -1.6067   22.0529 C   0  0  0  0  0  0  0  0  0  0  0  0
    9.8264   -2.5897   22.2413 C   0  0  0  0  0  0  0  0  0  0  0  0
    9.9083   -3.0490   21.2600 H   0  0  0  0  0  0  0  0  0  0  0  0
    9.5179   -3.3432   22.9749 H   0  0  0  0  0  0  0  0  0  0  0  0
   11.1858   -1.9927   22.5647 C   0  0  0  0  0  0  0  0  0  0  0  0
   11.1344   -1.3713   23.4656 H   0  0  0  0  0  0  0  0  0  0  0  0
   11.8848   -2.8224   22.7930 H   0  0  0  0  0  0  0  0  0  0  0  0
   11.5638   -1.1682   21.4263 N   0  0  0  0  0  0  0  0  0  0  0  0
   12.4816   -0.7593   21.5569 H   0  0  0  0  0  0  0  0  0  0  0  0
   11.6239   -1.7654   20.6000 H   0  0  0  0  0  0  0  0  0  0  0  0
    8.0105   -1.1059   23.0343 N   0  0  0  0  0  0  0  0  0  0  0  0
    7.0836   -0.3731   22.3574 N   0  0  0  0  0  0  0  0  0  0  0  0
    6.3098    0.0578   22.8429 H   0  0  0  0  0  0  0  0  0  0  0  0
    5.2566    0.7581   20.0856 C   0  0  0  0  0  0  0  0  0  0  0  0
    4.7226    0.7774   21.0370 H   0  0  0  0  0  0  0  0  0  0  0  0
    4.7139    1.3780   18.9600 C   0  0  0  0  0  0  0  0  0  0  0  0
    3.7848    1.9340   19.0077 H   0  0  0  0  0  0  0  0  0  0  0  0
  1  2  1  0
  2  3  2  0
  3  4  1  0
  4  5  1  0
  4  6  2  0
  6  7  1  0
  7  8  2  0
  8  9  1  0
  9 10  1  0
 10 11  1  0
 10 12  1  0
 10 13  1  0
 13 14  1  0
 13 15  1  0
 13 16  1  0
 16 17  1  0
 16 18  1  0
  9 19  2  0
 19 20  1  0
 20 21  1  0
  6 22  1  0
 22 23  1  0
 22 24  2  0
 24 25  1  0
 24  2  1  0
 20  7  1  0
M  END
>  <cnnaffinity>  (1) 
-4.30855

>  <filename>  (1) 
NCCc1n[nH]c(-c2cccnc2)n1

$$$$
