
     RDKit          3D

 27 29  0  0  0  0  0  0  0  0999 V2000
    4.9422    1.8189   16.9654 H   0  0  0  0  0  0  0  0  0  0  0  0
    5.4035    1.2974   17.8056 C   0  0  0  0  0  0  0  0  0  0  0  0
    6.5620    0.6664   17.5583 N   0  0  0  0  0  0  0  0  0  0  0  0
    7.1600    0.0267   18.5698 C   0  0  0  0  0  0  0  0  0  0  0  0
    8.1113   -0.4369   18.3211 H   0  0  0  0  0  0  0  0  0  0  0  0
    6.6289   -0.0424   19.8721 C   0  0  0  0  0  0  0  0  0  0  0  0
    7.3601   -0.7099   20.9657 C   0  0  0  0  0  0  0  0  0  0  0  0
    8.4716   -1.4198   20.7169 N   0  0  0  0  0  0  0  0  0  0  0  0
    8.9041   -1.7392   21.9544 N   0  0  0  0  0  0  0  0  0  0  0  0
   10.1101   -2.1960   22.4757 C   0  0  0  0  0  0  0  0  0  0  0  0
   10.8700   -2.5672   21.8107 H   0  0  0  0  0  0  0  0  0  0  0  0
   10.0294   -2.0108   23.8207 C   0  0  0  0  0  0  0  0  0  0  0  0
   10.7641   -2.1891   24.5947 H   0  0  0  0  0  0  0  0  0  0  0  0
    8.7809   -1.4580   24.1347 N   0  0  0  0  0  0  0  0  0  0  0  0
    8.3563   -0.7565   25.3263 C   0  0  0  0  0  0  0  0  0  0  0  0
    8.7562   -1.2933   26.2100 H   0  0  0  0  0  0  0  0  0  0  0  0
    7.2620   -0.8720   25.3513 H   0  0  0  0  0  0  0  0  0  0  0  0
    8.6839    0.6587   25.2462 N   0  0  0  0  0  0  0  0  0  0  0  0
    8.3411    1.1720   26.0471 H   0  0  0  0  0  0  0  0  0  0  0  0
    9.6819    0.8237   25.1453 H   0  0  0  0  0  0  0  0  0  0  0  0
    8.1206   -1.2654   22.9425 C   0  0  0  0  0  0  0  0  0  0  0  0
    7.0774   -0.5809   22.3498 C   0  0  0  0  0  0  0  0  0  0  0  0
    6.3140    0.0201   22.8112 H   0  0  0  0  0  0  0  0  0  0  0  0
    5.4228    0.6350   20.1115 C   0  0  0  0  0  0  0  0  0  0  0  0
    4.9817    0.6457   21.1071 H   0  0  0  0  0  0  0  0  0  0  0  0
    4.7971    1.3080   19.0657 C   0  0  0  0  0  0  0  0  0  0  0  0
    3.8675    1.8498   19.2202 H   0  0  0  0  0  0  0  0  0  0  0  0
  1  2  1  0
  2  3  2  0
  3  4  1  0
  4  5  1  0
  4  6  2  0
  6  7  1  0
  7  8  2  0
  8  9  1  0
  9 10  1  0
 10 11  1  0
 10 12  2  0
 12 13  1  0
 12 14  1  0
 14 15  1  0
 15 16  1  0
 15 17  1  0
 15 18  1  0
 18 19  1  0
 18 20  1  0
 14 21  1  0
 21 22  2  0
 22 23  1  0
  6 24  1  0
 24 25  1  0
 24 26  2  0
 26 27  1  0
 26  2  1  0
 22  7  1  0
 21  9  1  0
M  END
>  <cnnaffinity>  (1) 
-4.79397

>  <filename>  (1) 
NCn1ccn2nc(-c3cccnc3)cc12

$$$$
