
     RDKit          3D

 24 26  0  0  0  0  0  0  0  0999 V2000
    5.0358    1.7831   16.8292 H   0  0  0  0  0  0  0  0  0  0  0  0
    5.5099    1.3321   17.7003 C   0  0  0  0  0  0  0  0  0  0  0  0
    6.6889    0.7254   17.4834 N   0  0  0  0  0  0  0  0  0  0  0  0
    7.2810    0.1365   18.5284 C   0  0  0  0  0  0  0  0  0  0  0  0
    8.2358   -0.3440   18.3230 H   0  0  0  0  0  0  0  0  0  0  0  0
    6.7306    0.0986   19.8260 C   0  0  0  0  0  0  0  0  0  0  0  0
    7.3499   -0.7086   20.8977 C   0  0  0  0  0  0  0  0  0  0  0  0
    8.5169   -1.3383   20.6817 N   0  0  0  0  0  0  0  0  0  0  0  0
    8.7166   -2.0079   21.8327 N   0  0  0  0  0  0  0  0  0  0  0  0
    9.7428   -2.7926   22.3408 C   0  0  0  0  0  0  0  0  0  0  0  0
   10.6736   -2.8936   21.8142 H   0  0  0  0  0  0  0  0  0  0  0  0
    9.3026   -3.2231   23.5512 C   0  0  0  0  0  0  0  0  0  0  0  0
    9.7241   -3.8345   24.3359 H   0  0  0  0  0  0  0  0  0  0  0  0
    8.0511   -2.7063   23.7822 N   0  0  0  0  0  0  0  0  0  0  0  0
    7.2986   -3.0917   24.9055 N   0  0  0  0  0  0  0  0  0  0  0  0
    7.1298   -4.0964   24.8269 H   0  0  0  0  0  0  0  0  0  0  0  0
    6.3878   -2.6482   24.8003 H   0  0  0  0  0  0  0  0  0  0  0  0
    7.7083   -1.8929   22.7278 C   0  0  0  0  0  0  0  0  0  0  0  0
    6.8116   -0.9759   22.1844 C   0  0  0  0  0  0  0  0  0  0  0  0
    5.9879   -0.5136   22.6937 H   0  0  0  0  0  0  0  0  0  0  0  0
    5.5191    0.7807   20.0390 C   0  0  0  0  0  0  0  0  0  0  0  0
    5.0651    0.8260   21.0309 H   0  0  0  0  0  0  0  0  0  0  0  0
    4.8945    1.3942   18.9551 C   0  0  0  0  0  0  0  0  0  0  0  0
    3.9481    1.9190   19.0639 H   0  0  0  0  0  0  0  0  0  0  0  0
  1  2  1  0
  2  3  2  0
  3  4  1  0
  4  5  1  0
  4  6  2  0
  6  7  1  0
  7  8  2  0
  8  9  1  0
  9 10  1  0
 10 11  1  0
 10 12  2  0
 12 13  1  0
 12 14  1  0
 14 15  1  0
 15 16  1  0
 15 17  1  0
 14 18  1  0
 18 19  2  0
 19 20  1  0
  6 21  1  0
 21 22  1  0
 21 23  2  0
 23 24  1  0
 23  2  1  0
 19  7  1  0
 18  9  1  0
M  END
>  <cnnaffinity>  (1) 
-4.64287

>  <filename>  (1) 
Nn1ccn2nc(-c3cccnc3)cc12

$$$$
