
     RDKit          3D

 25 26  0  0  0  0  0  0  0  0999 V2000
    4.9797    1.9020   16.9717 H   0  0  0  0  0  0  0  0  0  0  0  0
    5.4414    1.3325   17.7754 C   0  0  0  0  0  0  0  0  0  0  0  0
    6.5936    0.7169   17.4700 N   0  0  0  0  0  0  0  0  0  0  0  0
    7.2224    0.0365   18.4344 C   0  0  0  0  0  0  0  0  0  0  0  0
    8.1612   -0.4335   18.1343 H   0  0  0  0  0  0  0  0  0  0  0  0
    6.7162   -0.0829   19.7505 C   0  0  0  0  0  0  0  0  0  0  0  0
    7.4199   -0.7881   20.7735 N   0  0  0  0  0  0  0  0  0  0  0  0
    8.7630   -0.5976   21.0843 C   0  0  0  0  0  0  0  0  0  0  0  0
    9.2822    0.2214   20.6002 H   0  0  0  0  0  0  0  0  0  0  0  0
    9.0992   -1.4270   22.1152 C   0  0  0  0  0  0  0  0  0  0  0  0
   10.4277   -1.7259   22.8112 C   0  0  0  0  0  0  0  0  0  0  0  0
   10.4834   -2.2751   23.8938 O   0  0  0  0  0  0  0  0  0  0  0  0
   11.4769   -1.2913   22.0127 N   0  0  0  0  0  0  0  0  0  0  0  0
   11.1456   -1.1131   21.0710 H   0  0  0  0  0  0  0  0  0  0  0  0
   12.8402   -1.5461   22.2207 N   0  0  0  0  0  0  0  0  0  0  0  0
   13.4100   -0.7161   22.1040 H   0  0  0  0  0  0  0  0  0  0  0  0
   13.2014   -2.3197   21.6679 H   0  0  0  0  0  0  0  0  0  0  0  0
    7.8982   -2.0500   22.4804 N   0  0  0  0  0  0  0  0  0  0  0  0
    7.7053   -2.6855   23.2353 H   0  0  0  0  0  0  0  0  0  0  0  0
    6.8644   -1.7552   21.6365 C   0  0  0  0  0  0  0  0  0  0  0  0
    5.7678   -2.2790   21.6518 O   0  0  0  0  0  0  0  0  0  0  0  0
    5.5018    0.5480   20.0546 C   0  0  0  0  0  0  0  0  0  0  0  0
    5.1001    0.4757   21.0676 H   0  0  0  0  0  0  0  0  0  0  0  0
    4.8633    1.2775   19.0472 C   0  0  0  0  0  0  0  0  0  0  0  0
    3.9458    1.8191   19.2394 H   0  0  0  0  0  0  0  0  0  0  0  0
  1  2  1  0
  2  3  2  0
  3  4  1  0
  4  5  1  0
  4  6  2  0
  6  7  1  0
  7  8  1  0
  8  9  1  0
  8 10  2  0
 10 11  1  0
 11 12  2  0
 11 13  1  0
 13 14  1  0
 13 15  1  0
 15 16  1  0
 15 17  1  0
 10 18  1  0
 18 19  1  0
 18 20  1  0
 20 21  2  0
  6 22  1  0
 22 23  1  0
 22 24  2  0
 24 25  1  0
 24  2  1  0
 20  7  1  0
M  END
>  <cnnaffinity>  (1) 
-4.72632

>  <filename>  (1) 
NNC(=O)c1cn(-c2cccnc2)c(=O)[nH]1

$$$$
