
     RDKit          3D

 24 25  0  0  0  0  0  0  0  0999 V2000
    5.0727    1.9163   17.0170 H   0  0  0  0  0  0  0  0  0  0  0  0
    5.5401    1.3212   17.7997 C   0  0  0  0  0  0  0  0  0  0  0  0
    6.6841    0.7005   17.4698 N   0  0  0  0  0  0  0  0  0  0  0  0
    7.2924   -0.0417   18.4058 C   0  0  0  0  0  0  0  0  0  0  0  0
    8.2197   -0.5420   18.1245 H   0  0  0  0  0  0  0  0  0  0  0  0
    6.7791   -0.1963   19.7072 C   0  0  0  0  0  0  0  0  0  0  0  0
    7.4624   -0.9397   20.7295 N   0  0  0  0  0  0  0  0  0  0  0  0
    8.6299   -0.5057   21.3482 C   0  0  0  0  0  0  0  0  0  0  0  0
    9.1688    0.3431   20.9466 H   0  0  0  0  0  0  0  0  0  0  0  0
    8.8674   -1.2996   22.4119 C   0  0  0  0  0  0  0  0  0  0  0  0
   10.4252   -1.3316   23.2988 S   0  0  0  0  0  0  0  0  0  0  0  0
   11.1694   -0.1166   23.0394 O   0  0  0  0  0  0  0  0  0  0  0  0
   10.2176   -1.9029   24.6106 O   0  0  0  0  0  0  0  0  0  0  0  0
   11.2730   -2.4717   22.4757 N   0  0  0  0  0  0  0  0  0  0  0  0
   12.1870   -2.0376   22.5008 H   0  0  0  0  0  0  0  0  0  0  0  0
   11.2137   -3.2487   23.1187 H   0  0  0  0  0  0  0  0  0  0  0  0
    7.7573   -2.1767   22.4784 N   0  0  0  0  0  0  0  0  0  0  0  0
    7.4954   -2.8764   23.1640 H   0  0  0  0  0  0  0  0  0  0  0  0
    6.8945   -1.9765   21.4468 C   0  0  0  0  0  0  0  0  0  0  0  0
    5.5227   -2.8694   21.1846 S   0  0  0  0  0  0  0  0  0  0  0  0
    5.5759    0.4313   20.0376 C   0  0  0  0  0  0  0  0  0  0  0  0
    5.1570    0.3045   21.0382 H   0  0  0  0  0  0  0  0  0  0  0  0
    4.9558    1.2204   19.0662 C   0  0  0  0  0  0  0  0  0  0  0  0
    4.0385    1.7528   19.2778 H   0  0  0  0  0  0  0  0  0  0  0  0
  1  2  1  0
  2  3  2  0
  3  4  1  0
  4  5  1  0
  4  6  2  0
  6  7  1  0
  7  8  1  0
  8  9  1  0
  8 10  2  0
 10 11  1  0
 11 12  2  0
 11 13  2  0
 11 14  1  0
 14 15  1  0
 14 16  1  0
 10 17  1  0
 17 18  1  0
 17 19  1  0
 19 20  2  0
  6 21  1  0
 21 22  1  0
 21 23  2  0
 23 24  1  0
 23  2  1  0
 19  7  1  0
M  END
>  <cnnaffinity>  (1) 
-4.82493

>  <filename>  (1) 
NS(=O)(=O)c1cn(-c2cccnc2)c(=S)[nH]1

$$$$
