
     RDKit          3D

 32 33  0  0  0  0  0  0  0  0999 V2000
    4.9506    1.8159   16.9748 H   0  0  0  0  0  0  0  0  0  0  0  0
    5.4051    1.2900   17.8138 C   0  0  0  0  0  0  0  0  0  0  0  0
    6.5635    0.6620   17.5677 N   0  0  0  0  0  0  0  0  0  0  0  0
    7.1602    0.0390   18.5936 C   0  0  0  0  0  0  0  0  0  0  0  0
    8.1124   -0.4344   18.3490 H   0  0  0  0  0  0  0  0  0  0  0  0
    6.6449   -0.0318   19.9082 C   0  0  0  0  0  0  0  0  0  0  0  0
    7.3418   -0.8521   21.0133 C   0  0  2  0  0  0  0  0  0  0  0  0
    6.7276   -2.2625   20.9298 C   0  0  0  0  0  0  0  0  0  0  0  0
    6.8227   -2.6239   19.9026 H   0  0  0  0  0  0  0  0  0  0  0  0
    5.6560   -2.1867   21.1502 H   0  0  0  0  0  0  0  0  0  0  0  0
    7.3275   -3.2239   21.8363 O   0  0  0  0  0  0  0  0  0  0  0  0
    6.7151   -4.6821   21.6726 S   0  0  0  0  0  0  0  0  0  0  0  0
    5.3584   -4.7119   22.1732 O   0  0  0  0  0  0  0  0  0  0  0  0
    7.0839   -5.2689   20.4177 O   0  0  0  0  0  0  0  0  0  0  0  0
    7.5375   -5.3761   22.8766 N   0  0  0  0  0  0  0  0  0  0  0  0
    6.9997   -4.9266   23.6119 H   0  0  0  0  0  0  0  0  0  0  0  0
    7.1303   -6.2986   22.7972 H   0  0  0  0  0  0  0  0  0  0  0  0
    7.1853   -0.2364   22.4393 C   0  0  0  0  0  0  0  0  0  0  0  0
    7.1627    0.8614   22.3508 H   0  0  0  0  0  0  0  0  0  0  0  0
    6.2613   -0.5412   22.9446 H   0  0  0  0  0  0  0  0  0  0  0  0
    8.3422   -0.6359   23.2375 N   0  0  0  0  0  0  0  0  0  0  0  0
    8.1135   -1.4832   23.7397 H   0  0  0  0  0  0  0  0  0  0  0  0
    9.4546   -0.9278   22.3266 C   0  0  0  0  0  0  0  0  0  0  0  0
   10.2812   -0.2176   22.4805 H   0  0  0  0  0  0  0  0  0  0  0  0
    9.8534   -1.9297   22.5324 H   0  0  0  0  0  0  0  0  0  0  0  0
    8.8928   -0.8126   20.8924 C   0  0  0  0  0  0  0  0  0  0  0  0
    9.3003   -1.5816   20.2263 H   0  0  0  0  0  0  0  0  0  0  0  0
    9.1746    0.1695   20.4897 H   0  0  0  0  0  0  0  0  0  0  0  0
    5.4270    0.6322   20.1309 C   0  0  0  0  0  0  0  0  0  0  0  0
    4.9740    0.6437   21.1243 H   0  0  0  0  0  0  0  0  0  0  0  0
    4.8029    1.3002   19.0744 C   0  0  0  0  0  0  0  0  0  0  0  0
    3.8772    1.8419   19.2191 H   0  0  0  0  0  0  0  0  0  0  0  0
  1  2  1  0
  2  3  2  0
  3  4  1  0
  4  5  1  0
  4  6  2  0
  6  7  1  0
  7  8  1  1
  8  9  1  0
  8 10  1  0
  8 11  1  0
 11 12  1  0
 12 13  2  0
 12 14  2  0
 12 15  1  0
 15 16  1  0
 15 17  1  0
  7 18  1  0
 18 19  1  0
 18 20  1  0
 18 21  1  0
 21 22  1  0
 21 23  1  0
 23 24  1  0
 23 25  1  0
 23 26  1  0
 26 27  1  0
 26 28  1  0
  6 29  1  0
 29 30  1  0
 29 31  2  0
 31 32  1  0
 31  2  1  0
 26  7  1  0
M  END
>  <cnnaffinity>  (1) 
-4.23435

>  <filename>  (1) 
NS(=O)(=O)OC[C@]1(c2cccnc2)CCNC1

$$$$
