
     RDKit          3D

 26 27  0  0  0  0  0  0  0  0999 V2000
    4.9332    1.8887   17.0130 H   0  0  0  0  0  0  0  0  0  0  0  0
    5.3890    1.2963   17.8053 C   0  0  0  0  0  0  0  0  0  0  0  0
    6.5406    0.6752   17.4946 N   0  0  0  0  0  0  0  0  0  0  0  0
    7.1444   -0.0117   18.4681 C   0  0  0  0  0  0  0  0  0  0  0  0
    8.0871   -0.4998   18.2225 H   0  0  0  0  0  0  0  0  0  0  0  0
    6.6377   -0.1367   19.7764 C   0  0  0  0  0  0  0  0  0  0  0  0
    7.4462   -0.7528   20.7751 N   0  0  0  0  0  0  0  0  0  0  0  0
    8.7689   -0.3348   20.9774 C   0  0  0  0  0  0  0  0  0  0  0  0
    9.1906    0.5389   20.5130 H   0  0  0  0  0  0  0  0  0  0  0  0
    9.2744   -1.1529   21.9090 C   0  0  0  0  0  0  0  0  0  0  0  0
   10.5286   -1.3465   22.4818 N   0  0  0  0  0  0  0  0  0  0  0  0
   10.5586   -1.1843   23.4791 H   0  0  0  0  0  0  0  0  0  0  0  0
   11.7314   -0.2933   22.0448 S   0  0  0  0  0  0  0  0  0  0  0  0
   12.5549   -0.2617   23.2217 O   0  0  0  0  0  0  0  0  0  0  0  0
   11.2354    0.8769   21.3711 O   0  0  0  0  0  0  0  0  0  0  0  0
   12.3320   -1.3246   20.9248 N   0  0  0  0  0  0  0  0  0  0  0  0
   11.4817   -1.4023   20.3700 H   0  0  0  0  0  0  0  0  0  0  0  0
   12.3247   -2.1641   21.4896 H   0  0  0  0  0  0  0  0  0  0  0  0
    8.3140   -2.0305   22.2933 N   0  0  0  0  0  0  0  0  0  0  0  0
    8.4575   -2.8698   22.8248 H   0  0  0  0  0  0  0  0  0  0  0  0
    7.1571   -1.8320   21.5949 C   0  0  0  0  0  0  0  0  0  0  0  0
    5.8170   -2.7972   21.7345 S   0  0  0  0  0  0  0  0  0  0  0  0
    5.4012    0.4430   20.0732 C   0  0  0  0  0  0  0  0  0  0  0  0
    4.9503    0.3195   21.0591 H   0  0  0  0  0  0  0  0  0  0  0  0
    4.7865    1.1998   19.0658 C   0  0  0  0  0  0  0  0  0  0  0  0
    3.8630    1.7370   19.2498 H   0  0  0  0  0  0  0  0  0  0  0  0
  1  2  1  0
  2  3  2  0
  3  4  1  0
  4  5  1  0
  4  6  2  0
  6  7  1  0
  7  8  1  0
  8  9  1  0
  8 10  2  0
 10 11  1  0
 11 12  1  0
 11 13  1  0
 13 14  2  0
 13 15  2  0
 13 16  1  0
 16 17  1  0
 16 18  1  0
 10 19  1  0
 19 20  1  0
 19 21  1  0
 21 22  2  0
  6 23  1  0
 23 24  1  0
 23 25  2  0
 25 26  1  0
 25  2  1  0
 21  7  1  0
M  END
>  <cnnaffinity>  (1) 
-5.07622

>  <filename>  (1) 
NS(=O)(=O)Nc1cn(-c2cccnc2)c(=S)[nH]1

$$$$
