
     RDKit          3D

 27 28  0  0  0  0  0  0  0  0999 V2000
    5.0501    1.8210   16.9597 H   0  0  0  0  0  0  0  0  0  0  0  0
    5.4522    1.2828   17.8163 C   0  0  0  0  0  0  0  0  0  0  0  0
    6.5871    0.5969   17.6050 N   0  0  0  0  0  0  0  0  0  0  0  0
    7.1160   -0.0489   18.6532 C   0  0  0  0  0  0  0  0  0  0  0  0
    8.0353   -0.6052   18.4679 H   0  0  0  0  0  0  0  0  0  0  0  0
    6.5542   -0.0573   19.9415 C   0  0  0  0  0  0  0  0  0  0  0  0
    7.2349   -0.7600   21.0355 C   0  0  0  0  0  0  0  0  0  0  0  0
    8.5670   -0.8196   21.4043 C   0  0  0  0  0  0  0  0  0  0  0  0
    9.7738   -0.2108   20.7929 C   0  0  0  0  0  0  0  0  0  0  0  0
    9.5328    0.5551   20.0455 H   0  0  0  0  0  0  0  0  0  0  0  0
   10.3923   -0.9557   20.2944 H   0  0  0  0  0  0  0  0  0  0  0  0
   10.6513    0.2959   21.8271 O   0  0  0  0  0  0  0  0  0  0  0  0
   10.3471    1.7651   22.3178 S   0  0  0  0  0  0  0  0  0  0  0  0
    8.9459    1.9820   22.5525 O   0  0  0  0  0  0  0  0  0  0  0  0
   11.3946    2.1178   23.2350 O   0  0  0  0  0  0  0  0  0  0  0  0
   10.7145    2.5821   20.9500 N   0  0  0  0  0  0  0  0  0  0  0  0
   10.0474    3.3407   21.0232 H   0  0  0  0  0  0  0  0  0  0  0  0
   11.6195    2.9321   21.2594 H   0  0  0  0  0  0  0  0  0  0  0  0
    8.5957   -1.7248   22.4887 C   0  0  0  0  0  0  0  0  0  0  0  0
    9.4583   -2.0797   23.0390 H   0  0  0  0  0  0  0  0  0  0  0  0
    7.3870   -2.1797   22.7881 N   0  0  0  0  0  0  0  0  0  0  0  0
    6.5770   -1.5686   21.9075 N   0  0  0  0  0  0  0  0  0  0  0  0
    5.5774   -1.6992   21.9733 H   0  0  0  0  0  0  0  0  0  0  0  0
    5.3442    0.6308   20.1303 C   0  0  0  0  0  0  0  0  0  0  0  0
    4.8813    0.6499   21.1190 H   0  0  0  0  0  0  0  0  0  0  0  0
    4.7951    1.3231   19.0535 C   0  0  0  0  0  0  0  0  0  0  0  0
    3.8909    1.9107   19.1667 H   0  0  0  0  0  0  0  0  0  0  0  0
  1  2  1  0
  2  3  2  0
  3  4  1  0
  4  5  1  0
  4  6  2  0
  6  7  1  0
  7  8  2  0
  8  9  1  0
  9 10  1  0
  9 11  1  0
  9 12  1  0
 12 13  1  0
 13 14  2  0
 13 15  2  0
 13 16  1  0
 16 17  1  0
 16 18  1  0
  8 19  1  0
 19 20  1  0
 19 21  2  0
 21 22  1  0
 22 23  1  0
  6 24  1  0
 24 25  1  0
 24 26  2  0
 26 27  1  0
 26  2  1  0
 22  7  1  0
M  END
>  <cnnaffinity>  (1) 
-4.74655

>  <filename>  (1) 
NS(=O)(=O)OCc1cn[nH]c1-c1cccnc1

$$$$
