
     RDKit          3D

 32 34  0  0  0  0  0  0  0  0999 V2000
    4.9306    1.8325   16.8734 H   0  0  0  0  0  0  0  0  0  0  0  0
    5.3745    1.3226   17.7266 C   0  0  0  0  0  0  0  0  0  0  0  0
    6.5127    0.6551   17.4800 N   0  0  0  0  0  0  0  0  0  0  0  0
    7.0943    0.0279   18.5053 C   0  0  0  0  0  0  0  0  0  0  0  0
    8.0056   -0.5215   18.2753 H   0  0  0  0  0  0  0  0  0  0  0  0
    6.6032    0.0641   19.8235 C   0  0  0  0  0  0  0  0  0  0  0  0
    7.3758   -0.5374   20.9144 C   0  0  0  0  0  0  0  0  0  0  0  0
    8.1824   -1.5820   20.7005 N   0  0  0  0  0  0  0  0  0  0  0  0
    8.7136   -1.8139   21.8974 N   0  0  0  0  0  0  0  0  0  0  0  0
    8.3556   -0.9740   22.8784 C   0  0  0  0  0  0  0  0  0  0  0  0
    7.4242   -0.1281   22.3048 C   0  0  0  0  0  0  0  0  0  0  0  0
    6.5706    0.7401   23.0445 N   0  0  0  0  0  0  0  0  0  0  0  0
    6.3275    1.6921   22.7849 H   0  0  0  0  0  0  0  0  0  0  0  0
    6.7729    1.0171   24.6586 S   0  0  0  0  0  0  0  0  0  0  0  0
    6.0339    0.1090   25.4914 O   0  0  0  0  0  0  0  0  0  0  0  0
    8.1067    1.4851   24.9836 O   0  0  0  0  0  0  0  0  0  0  0  0
    5.8649    2.3909   24.5364 N   0  0  0  0  0  0  0  0  0  0  0  0
    6.6034    3.0536   24.7375 H   0  0  0  0  0  0  0  0  0  0  0  0
    5.2848    2.2843   25.3603 H   0  0  0  0  0  0  0  0  0  0  0  0
    9.0840   -1.3220   24.1516 C   0  0  0  0  0  0  0  0  0  0  0  0
    8.3599   -1.5976   24.9222 H   0  0  0  0  0  0  0  0  0  0  0  0
    9.6648   -0.4784   24.5384 H   0  0  0  0  0  0  0  0  0  0  0  0
    9.9798   -2.5218   23.7266 C   0  0  0  0  0  0  0  0  0  0  0  0
   11.0248   -2.2292   23.6863 H   0  0  0  0  0  0  0  0  0  0  0  0
    9.8978   -3.3686   24.4113 H   0  0  0  0  0  0  0  0  0  0  0  0
    9.5486   -2.9129   22.2949 C   0  0  0  0  0  0  0  0  0  0  0  0
    8.9910   -3.8521   22.2675 H   0  0  0  0  0  0  0  0  0  0  0  0
   10.3934   -2.9644   21.6179 H   0  0  0  0  0  0  0  0  0  0  0  0
    5.3875    0.7302   20.0569 C   0  0  0  0  0  0  0  0  0  0  0  0
    4.9521    0.7372   21.0579 H   0  0  0  0  0  0  0  0  0  0  0  0
    4.7637    1.3664   18.9844 C   0  0  0  0  0  0  0  0  0  0  0  0
    3.8276    1.9015   19.1033 H   0  0  0  0  0  0  0  0  0  0  0  0
  1  2  1  0
  2  3  2  0
  3  4  1  0
  4  5  1  0
  4  6  2  0
  6  7  1  0
  7  8  2  0
  8  9  1  0
  9 10  1  0
 10 11  2  0
 11 12  1  0
 12 13  1  0
 12 14  1  0
 14 15  2  0
 14 16  2  0
 14 17  1  0
 17 18  1  0
 17 19  1  0
 10 20  1  0
 20 21  1  0
 20 22  1  0
 20 23  1  0
 23 24  1  0
 23 25  1  0
 23 26  1  0
 26 27  1  0
 26 28  1  0
  6 29  1  0
 29 30  1  0
 29 31  2  0
 31 32  1  0
 31  2  1  0
 11  7  1  0
 26  9  1  0
M  END
>  <cnnaffinity>  (1) 
-4.99366

>  <filename>  (1) 
NS(=O)(=O)Nc1c(-c2cccnc2)nn2c1CCC2

$$$$
