
     RDKit          3D

 31 33  0  0  0  0  0  0  0  0999 V2000
    4.9297    1.7921   16.9949 H   0  0  0  0  0  0  0  0  0  0  0  0
    5.3974    1.2911   17.8389 C   0  0  0  0  0  0  0  0  0  0  0  0
    6.5534    0.6628   17.5781 N   0  0  0  0  0  0  0  0  0  0  0  0
    7.1711    0.0440   18.5886 C   0  0  0  0  0  0  0  0  0  0  0  0
    8.1244   -0.4288   18.3599 H   0  0  0  0  0  0  0  0  0  0  0  0
    6.6523   -0.0019   19.8969 C   0  0  0  0  0  0  0  0  0  0  0  0
    7.3322   -0.6889   20.9439 N   0  0  0  0  0  0  0  0  0  0  0  0
    6.7319   -1.6008   21.8004 C   0  0  0  0  0  0  0  0  0  0  0  0
    5.6863   -1.8435   21.7077 H   0  0  0  0  0  0  0  0  0  0  0  0
    7.6699   -2.0606   22.6646 C   0  0  0  0  0  0  0  0  0  0  0  0
    7.5598   -3.0087   23.7806 C   0  0  0  0  0  0  0  0  0  0  0  0
    8.6671   -3.6965   24.3133 C   0  0  0  0  0  0  0  0  0  0  0  0
    9.6536   -3.5187   23.8938 H   0  0  0  0  0  0  0  0  0  0  0  0
    8.5029   -4.6154   25.3583 C   0  0  0  0  0  0  0  0  0  0  0  0
    9.3691   -5.1362   25.7630 H   0  0  0  0  0  0  0  0  0  0  0  0
    7.2327   -4.8649   25.8872 C   0  0  0  0  0  0  0  0  0  0  0  0
    7.0807   -5.5735   26.6978 H   0  0  0  0  0  0  0  0  0  0  0  0
    6.1347   -4.1762   25.3520 C   0  0  0  0  0  0  0  0  0  0  0  0
    4.7757   -4.4297   25.8962 N   0  0  0  0  0  4  0  0  0  0  0  0
    3.8282   -3.8298   25.4124 O   0  0  0  0  0  0  0  0  0  0  0  0
    4.6809   -5.2360   26.8076 O   0  0  0  0  0  1  0  0  0  0  0  0
    6.2865   -3.2567   24.3185 C   0  0  0  0  0  0  0  0  0  0  0  0
    5.4128   -2.7329   23.9462 H   0  0  0  0  0  0  0  0  0  0  0  0
    8.8442   -1.4176   22.3016 N   0  0  0  0  0  0  0  0  0  0  0  0
    9.7459   -1.4209   22.7478 H   0  0  0  0  0  0  0  0  0  0  0  0
    8.6552   -0.5286   21.3000 C   0  0  0  0  0  0  0  0  0  0  0  0
    9.8169    0.5156   20.7546 S   0  0  0  0  0  0  0  0  0  0  0  0
    5.4436    0.6434   20.1612 C   0  0  0  0  0  0  0  0  0  0  0  0
    5.0332    0.6304   21.1740 H   0  0  0  0  0  0  0  0  0  0  0  0
    4.8119    1.3086   19.1086 C   0  0  0  0  0  0  0  0  0  0  0  0
    3.8824    1.8396   19.2584 H   0  0  0  0  0  0  0  0  0  0  0  0
  1  2  1  0
  2  3  2  0
  3  4  1  0
  4  5  1  0
  4  6  2  0
  6  7  1  0
  7  8  1  0
  8  9  1  0
  8 10  2  0
 10 11  1  0
 11 12  2  0
 12 13  1  0
 12 14  1  0
 14 15  1  0
 14 16  2  0
 16 17  1  0
 16 18  1  0
 18 19  1  0
 19 20  2  0
 19 21  1  0
 18 22  2  0
 22 23  1  0
 10 24  1  0
 24 25  1  0
 24 26  1  0
 26 27  2  0
  6 28  1  0
 28 29  1  0
 28 30  2  0
 30 31  1  0
 30  2  1  0
 26  7  1  0
 22 11  1  0
M  CHG  2  19   1  21  -1
M  END
>  <cnnaffinity>  (1) 
-5.53282

>  <filename>  (1) 
O=[N+]([O-])c1cccc(-c2cn(-c3cccnc3)c(=S)[nH]2)c1

$$$$
