
     RDKit          3D

 34 36  0  0  0  0  0  0  0  0999 V2000
    5.3626   -2.4285   20.9725 H   0  0  0  0  0  0  0  0  0  0  0  0
    5.8945   -2.4127   21.9265 C   0  0  0  0  0  0  0  0  0  0  0  0
    7.0506   -1.7157   21.9811 C   0  0  0  0  0  0  0  0  0  0  0  0
    7.5400   -0.7339   20.9720 C   0  0  0  0  0  0  0  0  0  0  0  0
    6.7106   -0.0480   19.9411 C   0  0  0  0  0  0  0  0  0  0  0  0
    7.2458    0.0425   18.6460 C   0  0  0  0  0  0  0  0  0  0  0  0
    8.2108   -0.4083   18.4239 H   0  0  0  0  0  0  0  0  0  0  0  0
    6.6379    0.6471   17.6219 N   0  0  0  0  0  0  0  0  0  0  0  0
    5.4644    1.2484   17.8713 C   0  0  0  0  0  0  0  0  0  0  0  0
    4.9923    1.7506   17.0265 H   0  0  0  0  0  0  0  0  0  0  0  0
    4.8491    1.2398   19.1262 C   0  0  0  0  0  0  0  0  0  0  0  0
    3.9150    1.7748   19.2565 H   0  0  0  0  0  0  0  0  0  0  0  0
    5.4760    0.5743   20.1842 C   0  0  0  0  0  0  0  0  0  0  0  0
    5.0224    0.5622   21.1777 H   0  0  0  0  0  0  0  0  0  0  0  0
    8.8005   -0.4973   21.0502 N   0  0  0  0  0  0  0  0  0  0  0  0
    9.3829   -1.2581   22.1609 C   0  0  0  0  0  0  0  0  0  0  0  0
    9.9999   -0.6061   22.7886 H   0  0  0  0  0  0  0  0  0  0  0  0
   10.0406   -2.0408   21.7533 H   0  0  0  0  0  0  0  0  0  0  0  0
    8.2026   -1.8565   22.9667 C   0  0  0  0  0  0  0  0  0  0  0  0
    8.3754   -2.8841   23.2943 H   0  0  0  0  0  0  0  0  0  0  0  0
    8.0256   -1.2380   23.8572 H   0  0  0  0  0  0  0  0  0  0  0  0
    5.2797   -3.2313   22.9981 C   0  0  0  0  0  0  0  0  0  0  0  0
    4.4973   -4.3536   22.6517 C   0  0  0  0  0  0  0  0  0  0  0  0
    4.4185   -4.6410   21.6120 H   0  0  0  0  0  0  0  0  0  0  0  0
    3.8566   -5.1282   23.6153 C   0  0  0  0  0  0  0  0  0  0  0  0
    3.2272   -5.9665   23.3261 H   0  0  0  0  0  0  0  0  0  0  0  0
    4.0202   -4.7991   24.9692 C   0  0  0  0  0  0  0  0  0  0  0  0
    3.4130   -5.6608   26.0186 N   0  0  0  0  0  4  0  0  0  0  0  0
    3.5449   -5.3361   27.1876 O   0  0  0  0  0  0  0  0  0  0  0  0
    2.8091   -6.6590   25.6574 O   0  0  0  0  0  1  0  0  0  0  0  0
    4.7550   -3.6687   25.3477 C   0  0  0  0  0  0  0  0  0  0  0  0
    4.7993   -3.3762   26.3913 H   0  0  0  0  0  0  0  0  0  0  0  0
    5.3925   -2.9114   24.3678 C   0  0  0  0  0  0  0  0  0  0  0  0
    5.9641   -2.0405   24.6698 H   0  0  0  0  0  0  0  0  0  0  0  0
  1  2  1  0
  2  3  2  3
  3  4  1  0
  4  5  1  0
  5  6  2  0
  6  7  1  0
  6  8  1  0
  8  9  2  0
  9 10  1  0
  9 11  1  0
 11 12  1  0
 11 13  2  0
 13 14  1  0
  4 15  2  0
 15 16  1  0
 16 17  1  0
 16 18  1  0
 16 19  1  0
 19 20  1  0
 19 21  1  0
  2 22  1  0
 22 23  2  0
 23 24  1  0
 23 25  1  0
 25 26  1  0
 25 27  2  0
 27 28  1  0
 28 29  2  0
 28 30  1  0
 27 31  1  0
 31 32  1  0
 31 33  2  0
 33 34  1  0
 19  3  1  0
 33 22  1  0
 13  5  1  0
M  CHG  2  28   1  30  -1
M  END
>  <cnnaffinity>  (1) 
-5.17669

>  <filename>  (1) 
O=[N+]([O-])c1ccc(C=C2CCN=C2c2cccnc2)cc1

$$$$
