
     RDKit          3D

 34 36  0  0  0  0  0  0  0  0999 V2000
    9.2943    0.7367   20.1465 H   0  0  0  0  0  0  0  0  0  0  0  0
    9.5922   -0.0700   20.8219 C   0  0  0  0  0  0  0  0  0  0  0  0
    8.6630   -0.9371   21.2639 C   0  0  0  0  0  0  0  0  0  0  0  0
    7.2041   -0.9011   20.9900 C   0  0  0  0  0  0  0  0  0  0  0  0
    6.5803   -0.0903   19.9255 C   0  0  0  0  0  0  0  0  0  0  0  0
    7.1915   -0.0330   18.6693 C   0  0  0  0  0  0  0  0  0  0  0  0
    8.1422   -0.5410   18.5099 H   0  0  0  0  0  0  0  0  0  0  0  0
    6.6871    0.6263   17.6212 N   0  0  0  0  0  0  0  0  0  0  0  0
    5.5363    1.2892   17.8107 C   0  0  0  0  0  0  0  0  0  0  0  0
    5.1490    1.8332   16.9521 H   0  0  0  0  0  0  0  0  0  0  0  0
    4.8458    1.3059   19.0303 C   0  0  0  0  0  0  0  0  0  0  0  0
    3.9278    1.8792   19.1182 H   0  0  0  0  0  0  0  0  0  0  0  0
    5.3668    0.5899   20.1069 C   0  0  0  0  0  0  0  0  0  0  0  0
    4.8529    0.5518   21.0696 H   0  0  0  0  0  0  0  0  0  0  0  0
    6.5118   -1.6299   21.7818 N   0  0  0  0  0  0  0  0  0  0  0  0
    7.3904   -2.2494   22.7755 C   0  0  0  0  0  0  0  0  0  0  0  0
    7.1541   -3.3129   22.8445 H   0  0  0  0  0  0  0  0  0  0  0  0
    7.1605   -1.7965   23.7467 H   0  0  0  0  0  0  0  0  0  0  0  0
    8.8549   -1.9704   22.3525 C   0  0  0  0  0  0  0  0  0  0  0  0
    9.3445   -2.8726   21.9722 H   0  0  0  0  0  0  0  0  0  0  0  0
    9.4766   -1.5818   23.1639 H   0  0  0  0  0  0  0  0  0  0  0  0
   10.9751    0.0488   21.3325 C   0  0  0  0  0  0  0  0  0  0  0  0
   11.8777   -1.0225   21.4891 C   0  0  0  0  0  0  0  0  0  0  0  0
   11.5981   -2.0071   21.1233 H   0  0  0  0  0  0  0  0  0  0  0  0
   13.1276   -0.8211   22.0974 C   0  0  0  0  0  0  0  0  0  0  0  0
   13.7900   -1.6661   22.2592 H   0  0  0  0  0  0  0  0  0  0  0  0
   13.5276    0.4583   22.4952 C   0  0  0  0  0  0  0  0  0  0  0  0
   14.5073    0.6466   22.9260 H   0  0  0  0  0  0  0  0  0  0  0  0
   12.6371    1.5232   22.3090 C   0  0  0  0  0  0  0  0  0  0  0  0
   13.0068    2.8869   22.7533 N   0  0  0  0  0  4  0  0  0  0  0  0
   14.1800    3.2101   22.6996 O   0  0  0  0  0  0  0  0  0  0  0  0
   12.1134    3.6229   23.1462 O   0  0  0  0  0  1  0  0  0  0  0  0
   11.3842    1.3335   21.7338 C   0  0  0  0  0  0  0  0  0  0  0  0
   10.7218    2.1873   21.6402 H   0  0  0  0  0  0  0  0  0  0  0  0
  1  2  1  0
  2  3  2  3
  3  4  1  0
  4  5  1  0
  5  6  2  0
  6  7  1  0
  6  8  1  0
  8  9  2  0
  9 10  1  0
  9 11  1  0
 11 12  1  0
 11 13  2  0
 13 14  1  0
  4 15  2  0
 15 16  1  0
 16 17  1  0
 16 18  1  0
 16 19  1  0
 19 20  1  0
 19 21  1  0
  2 22  1  0
 22 23  2  0
 23 24  1  0
 23 25  1  0
 25 26  1  0
 25 27  2  0
 27 28  1  0
 27 29  1  0
 29 30  1  0
 30 31  2  0
 30 32  1  0
 29 33  2  0
 33 34  1  0
 19  3  1  0
 33 22  1  0
 13  5  1  0
M  CHG  2  30   1  32  -1
M  END
>  <cnnaffinity>  (1) 
-6.09018

>  <filename>  (1) 
O=[N+]([O-])c1cccc(C=C2CCN=C2c2cccnc2)c1

$$$$
