
     RDKit          3D

 29 31  0  0  0  0  0  0  0  0999 V2000
    4.9110    1.7828   16.9983 H   0  0  0  0  0  0  0  0  0  0  0  0
    5.3984    1.2931   17.8422 C   0  0  0  0  0  0  0  0  0  0  0  0
    6.5562    0.6710   17.5736 N   0  0  0  0  0  0  0  0  0  0  0  0
    7.1880    0.0601   18.5838 C   0  0  0  0  0  0  0  0  0  0  0  0
    8.1342   -0.4230   18.3620 H   0  0  0  0  0  0  0  0  0  0  0  0
    6.6924    0.0238   19.9009 C   0  0  0  0  0  0  0  0  0  0  0  0
    7.2993   -0.6864   20.9528 O   0  0  0  0  0  0  0  0  0  0  0  0
    8.6329   -0.7790   21.0736 C   0  0  0  0  0  0  0  0  0  0  0  0
    9.5585   -0.0879   20.4569 N   0  0  0  0  0  0  0  0  0  0  0  0
   10.7286   -0.5354   20.9717 N   0  0  0  0  0  0  0  0  0  0  0  0
   10.5431   -1.4572   21.8354 N   0  0  0  0  0  0  0  0  0  0  0  0
    9.1992   -1.6579   21.9289 N   0  0  0  0  0  0  0  0  0  0  0  0
    8.6359   -2.6410   22.8190 C   0  0  0  0  0  0  0  0  0  0  0  0
    9.3179   -2.9706   24.0029 C   0  0  0  0  0  0  0  0  0  0  0  0
   10.2802   -2.5158   24.2305 H   0  0  0  0  0  0  0  0  0  0  0  0
    8.7452   -3.9041   24.8760 C   0  0  0  0  0  0  0  0  0  0  0  0
    9.2614   -4.1740   25.7931 H   0  0  0  0  0  0  0  0  0  0  0  0
    7.5181   -4.5088   24.5949 C   0  0  0  0  0  0  0  0  0  0  0  0
    7.0704   -5.2309   25.2770 H   0  0  0  0  0  0  0  0  0  0  0  0
    6.8635   -4.1684   23.4020 C   0  0  0  0  0  0  0  0  0  0  0  0
    5.5491   -4.8043   23.0825 N   0  0  0  0  0  4  0  0  0  0  0  0
    4.9838   -4.4917   22.0497 O   0  0  0  0  0  0  0  0  0  0  0  0
    5.1122   -5.6170   23.8821 O   0  0  0  0  0  1  0  0  0  0  0  0
    7.4126   -3.2472   22.5050 C   0  0  0  0  0  0  0  0  0  0  0  0
    6.8978   -2.9949   21.5872 H   0  0  0  0  0  0  0  0  0  0  0  0
    5.4661    0.6408   20.1733 C   0  0  0  0  0  0  0  0  0  0  0  0
    5.0334    0.6116   21.1746 H   0  0  0  0  0  0  0  0  0  0  0  0
    4.8204    1.3007   19.1167 C   0  0  0  0  0  0  0  0  0  0  0  0
    3.8857    1.8330   19.2685 H   0  0  0  0  0  0  0  0  0  0  0  0
  1  2  1  0
  2  3  2  0
  3  4  1  0
  4  5  1  0
  4  6  2  0
  6  7  1  0
  7  8  1  0
  8  9  2  0
  9 10  1  0
 10 11  2  0
 11 12  1  0
 12 13  1  0
 13 14  2  0
 14 15  1  0
 14 16  1  0
 16 17  1  0
 16 18  2  0
 18 19  1  0
 18 20  1  0
 20 21  1  0
 21 22  2  0
 21 23  1  0
 20 24  2  0
 24 25  1  0
  6 26  1  0
 26 27  1  0
 26 28  2  0
 28 29  1  0
 28  2  1  0
 12  8  1  0
 24 13  1  0
M  CHG  2  21   1  23  -1
M  END
>  <cnnaffinity>  (1) 
-5.29801

>  <filename>  (1) 
O=[N+]([O-])c1cccc(-n2nnnc2Oc2cccnc2)c1

$$$$
