
     RDKit          3D

 29 30  0  0  0  0  0  0  0  0999 V2000
    4.9430    1.7381   16.8510 H   0  0  0  0  0  0  0  0  0  0  0  0
    5.3758    1.3368   17.7625 C   0  0  0  0  0  0  0  0  0  0  0  0
    6.5660    0.7314   17.6306 N   0  0  0  0  0  0  0  0  0  0  0  0
    7.1126    0.2108   18.7344 C   0  0  0  0  0  0  0  0  0  0  0  0
    8.0775   -0.2796   18.5980 H   0  0  0  0  0  0  0  0  0  0  0  0
    6.5292    0.2784   20.0116 C   0  0  0  0  0  0  0  0  0  0  0  0
    7.2203   -0.3451   21.2016 C   0  0  2  0  0  0  0  0  0  0  0  0
    6.7281   -0.0750   22.1432 H   0  0  0  0  0  0  0  0  0  0  0  0
    8.8929    0.3360   21.3000 Cl  0  0  0  0  0  0  0  0  0  0  0  0
    7.2625   -1.8799   21.0789 C   0  0  0  0  0  0  0  0  0  0  0  0
    7.9043   -2.1113   20.2279 H   0  0  0  0  0  0  0  0  0  0  0  0
    6.2515   -2.2000   20.8092 H   0  0  0  0  0  0  0  0  0  0  0  0
    7.7381   -2.6610   22.2769 C   0  0  0  0  0  0  0  0  0  0  0  0
    9.1119   -2.8643   22.4674 C   0  0  0  0  0  0  0  0  0  0  0  0
    9.8059   -2.4265   21.7568 H   0  0  0  0  0  0  0  0  0  0  0  0
    9.5896   -3.6306   23.5290 C   0  0  0  0  0  0  0  0  0  0  0  0
   10.6475   -3.8417   23.6486 H   0  0  0  0  0  0  0  0  0  0  0  0
    8.6751   -4.2041   24.4188 C   0  0  0  0  0  0  0  0  0  0  0  0
    9.1821   -5.0739   25.5134 N   0  0  0  0  0  4  0  0  0  0  0  0
   10.3480   -5.4350   25.4661 O   0  0  0  0  0  0  0  0  0  0  0  0
    8.4092   -5.3832   26.4074 O   0  0  0  0  0  1  0  0  0  0  0  0
    7.2982   -3.9982   24.2715 C   0  0  0  0  0  0  0  0  0  0  0  0
    6.6116   -4.4233   24.9960 H   0  0  0  0  0  0  0  0  0  0  0  0
    6.8393   -3.2321   23.1924 C   0  0  0  0  0  0  0  0  0  0  0  0
    5.7687   -3.1092   23.0555 H   0  0  0  0  0  0  0  0  0  0  0  0
    5.2781    0.8940   20.1220 C   0  0  0  0  0  0  0  0  0  0  0  0
    4.7915    0.9584   21.0966 H   0  0  0  0  0  0  0  0  0  0  0  0
    4.6900    1.4339   18.9763 C   0  0  0  0  0  0  0  0  0  0  0  0
    3.7260    1.9272   19.0135 H   0  0  0  0  0  0  0  0  0  0  0  0
  1  2  1  0
  2  3  2  0
  3  4  1  0
  4  5  1  0
  4  6  2  0
  6  7  1  0
  7  8  1  1
  7  9  1  0
  7 10  1  0
 10 11  1  0
 10 12  1  0
 10 13  1  0
 13 14  2  0
 14 15  1  0
 14 16  1  0
 16 17  1  0
 16 18  2  0
 18 19  1  0
 19 20  2  0
 19 21  1  0
 18 22  1  0
 22 23  1  0
 22 24  2  0
 24 25  1  0
  6 26  1  0
 26 27  1  0
 26 28  2  0
 28 29  1  0
 28  2  1  0
 24 13  1  0
M  CHG  2  19   1  21  -1
M  END
>  <cnnaffinity>  (1) 
-4.8604

>  <filename>  (1) 
O=[N+]([O-])c1ccc(C[C@@H](Cl)c2cccnc2)cc1

$$$$
