
     RDKit          3D

 34 35  0  0  0  0  0  0  0  0999 V2000
    4.9494    1.7996   16.9881 H   0  0  0  0  0  0  0  0  0  0  0  0
    5.4158    1.3134   17.8433 C   0  0  0  0  0  0  0  0  0  0  0  0
    6.5788    0.6905   17.5979 N   0  0  0  0  0  0  0  0  0  0  0  0
    7.1791    0.0785   18.6221 C   0  0  0  0  0  0  0  0  0  0  0  0
    8.1162   -0.4269   18.3941 H   0  0  0  0  0  0  0  0  0  0  0  0
    6.6620    0.0623   19.9200 C   0  0  0  0  0  0  0  0  0  0  0  0
    7.4931   -0.9804   21.1288 S   0  0  0  0  0  4  0  0  0  0  0  0
    6.4190   -1.8738   21.6861 O   0  0  0  0  0  0  0  0  0  0  0  0
    7.8749    0.3532   22.3951 C   0  0  0  0  0  0  0  0  0  0  0  0
    8.1198    1.2520   21.8216 H   0  0  0  0  0  0  0  0  0  0  0  0
    6.9226    0.5148   22.9215 H   0  0  0  0  0  0  0  0  0  0  0  0
    8.9350    0.0364   23.3366 N   0  0  0  0  0  0  0  0  0  0  0  0
    9.7791   -0.2923   22.8743 H   0  0  0  0  0  0  0  0  0  0  0  0
    8.5322   -0.9120   24.3759 C   0  0  0  0  0  0  0  0  0  0  0  0
    7.7334   -1.5776   23.9973 H   0  0  0  0  0  0  0  0  0  0  0  0
    7.9719   -0.1435   25.5824 C   0  0  0  0  0  0  0  0  0  0  0  0
    8.7357    0.5787   25.9100 H   0  0  0  0  0  0  0  0  0  0  0  0
    7.1051    0.4445   25.2493 H   0  0  0  0  0  0  0  0  0  0  0  0
    7.5916   -1.0954   26.7295 C   0  0  0  0  0  0  0  0  0  0  0  0
    6.7388   -1.7200   26.4187 H   0  0  0  0  0  0  0  0  0  0  0  0
    7.2491   -0.5288   27.6055 H   0  0  0  0  0  0  0  0  0  0  0  0
    8.7518   -2.0325   27.1106 C   0  0  0  0  0  0  0  0  0  0  0  0
    8.3893   -2.7552   27.8484 H   0  0  0  0  0  0  0  0  0  0  0  0
    9.5591   -1.4527   27.5860 H   0  0  0  0  0  0  0  0  0  0  0  0
    9.3010   -2.7866   25.8853 C   0  0  0  0  0  0  0  0  0  0  0  0
   10.1173   -3.4639   26.1736 H   0  0  0  0  0  0  0  0  0  0  0  0
    8.5012   -3.4355   25.4915 H   0  0  0  0  0  0  0  0  0  0  0  0
    9.7193   -1.8000   24.7749 C   0  0  0  0  0  0  0  0  0  0  0  0
   10.5376   -1.1355   25.0964 H   0  0  0  0  0  0  0  0  0  0  0  0
   10.0860   -2.3312   23.8835 H   0  0  0  0  0  0  0  0  0  0  0  0
    5.4360    0.6950   20.1704 C   0  0  0  0  0  0  0  0  0  0  0  0
    4.9657    0.6395   21.1529 H   0  0  0  0  0  0  0  0  0  0  0  0
    4.8084    1.3434   19.1029 C   0  0  0  0  0  0  0  0  0  0  0  0
    3.8530    1.8466   19.2200 H   0  0  0  0  0  0  0  0  0  0  0  0
  1  2  1  0
  2  3  2  0
  3  4  1  0
  4  5  1  0
  4  6  2  0
  6  7  1  0
  7  8  2  0
  7  9  1  1
  9 10  1  0
  9 11  1  0
  9 12  1  0
 12 13  1  0
 12 14  1  0
 14 15  1  0
 14 16  1  0
 16 17  1  0
 16 18  1  0
 16 19  1  0
 19 20  1  0
 19 21  1  0
 19 22  1  0
 22 23  1  0
 22 24  1  0
 22 25  1  0
 25 26  1  0
 25 27  1  0
 25 28  1  0
 28 29  1  0
 28 30  1  0
  6 31  1  0
 31 32  1  0
 31 33  2  0
 33 34  1  0
 33  2  1  0
 28 14  1  0
M  END
>  <cnnaffinity>  (1) 
-4.48273

>  <filename>  (1) 
O=[S@](CNC1CCCCC1)c1cccnc1

$$$$
