
     RDKit          3D

 35 37  0  0  0  0  0  0  0  0999 V2000
    4.9695    1.7566   16.9129 H   0  0  0  0  0  0  0  0  0  0  0  0
    5.4120    1.2802   17.7866 C   0  0  0  0  0  0  0  0  0  0  0  0
    6.5964    0.6747   17.5998 N   0  0  0  0  0  0  0  0  0  0  0  0
    7.1816    0.1255   18.6680 C   0  0  0  0  0  0  0  0  0  0  0  0
    8.1537   -0.3401   18.5065 H   0  0  0  0  0  0  0  0  0  0  0  0
    6.6020    0.1278   19.9447 C   0  0  0  0  0  0  0  0  0  0  0  0
    7.6260   -0.3780   21.3391 S   0  0  0  0  0  4  0  0  0  0  0  0
    8.9868    0.1787   21.0003 O   0  0  0  0  0  0  0  0  0  0  0  0
    7.6570   -2.2128   20.9257 C   0  0  0  0  0  0  0  0  0  0  0  0
    8.5549   -2.2538   20.3048 H   0  0  0  0  0  0  0  0  0  0  0  0
    6.7847   -2.4169   20.2980 H   0  0  0  0  0  0  0  0  0  0  0  0
    7.7763   -3.1859   21.9751 N   0  0  0  0  0  0  0  0  0  0  0  0
    9.0026   -3.0107   22.7475 C   0  0  0  0  0  0  0  0  0  0  0  0
    9.8639   -2.9959   22.0607 H   0  0  0  0  0  0  0  0  0  0  0  0
    9.0368   -2.0224   23.2452 H   0  0  0  0  0  0  0  0  0  0  0  0
    9.2225   -4.0903   23.7751 C   0  0  0  0  0  0  0  0  0  0  0  0
   10.4999   -4.2305   24.3272 C   0  0  0  0  0  0  0  0  0  0  0  0
   11.2933   -3.5442   24.0339 H   0  0  0  0  0  0  0  0  0  0  0  0
   10.7700   -5.2697   25.2082 C   0  0  0  0  0  0  0  0  0  0  0  0
   11.7813   -5.4007   25.5689 H   0  0  0  0  0  0  0  0  0  0  0  0
    9.7394   -6.1280   25.6053 C   0  0  0  0  0  0  0  0  0  0  0  0
    9.9460   -6.9391   26.2929 H   0  0  0  0  0  0  0  0  0  0  0  0
    8.4413   -5.9312   25.1307 C   0  0  0  0  0  0  0  0  0  0  0  0
    7.6252   -6.5403   25.5146 H   0  0  0  0  0  0  0  0  0  0  0  0
    8.1720   -4.9259   24.1900 C   0  0  0  0  0  0  0  0  0  0  0  0
    6.7941   -4.7777   23.5669 C   0  0  0  0  0  0  0  0  0  0  0  0
    6.6447   -5.6206   22.8814 H   0  0  0  0  0  0  0  0  0  0  0  0
    6.0225   -4.8543   24.3400 H   0  0  0  0  0  0  0  0  0  0  0  0
    6.6007   -3.4628   22.7992 C   0  0  0  0  0  0  0  0  0  0  0  0
    6.4089   -2.6351   23.5051 H   0  0  0  0  0  0  0  0  0  0  0  0
    5.7195   -3.5415   22.1460 H   0  0  0  0  0  0  0  0  0  0  0  0
    5.3454    0.7067   20.1288 C   0  0  0  0  0  0  0  0  0  0  0  0
    4.8598    0.6925   21.1075 H   0  0  0  0  0  0  0  0  0  0  0  0
    4.7489    1.3122   19.0197 C   0  0  0  0  0  0  0  0  0  0  0  0
    3.7933    1.8150   19.1055 H   0  0  0  0  0  0  0  0  0  0  0  0
  1  2  1  0
  2  3  2  0
  3  4  1  0
  4  5  1  0
  4  6  2  0
  6  7  1  0
  7  8  2  0
  7  9  1  6
  9 10  1  0
  9 11  1  0
  9 12  1  0
 12 13  1  0
 13 14  1  0
 13 15  1  0
 13 16  1  0
 16 17  2  0
 17 18  1  0
 17 19  1  0
 19 20  1  0
 19 21  2  0
 21 22  1  0
 21 23  1  0
 23 24  1  0
 23 25  2  0
 25 26  1  0
 26 27  1  0
 26 28  1  0
 26 29  1  0
 29 30  1  0
 29 31  1  0
  6 32  1  0
 32 33  1  0
 32 34  2  0
 34 35  1  0
 34  2  1  0
 29 12  1  0
 25 16  1  0
M  END
>  <cnnaffinity>  (1) 
-5.1201

>  <filename>  (1) 
O=[S@](CN1CCc2ccccc2C1)c1cccnc1

$$$$
