
     RDKit          3D

 25 26  0  0  0  0  0  0  0  0999 V2000
    5.0121    1.7855   16.9979 H   0  0  0  0  0  0  0  0  0  0  0  0
    5.4616    1.2932   17.8586 C   0  0  0  0  0  0  0  0  0  0  0  0
    6.6021    0.6195   17.6334 N   0  0  0  0  0  0  0  0  0  0  0  0
    7.1651   -0.0137   18.6699 C   0  0  0  0  0  0  0  0  0  0  0  0
    8.0569   -0.6070   18.4577 H   0  0  0  0  0  0  0  0  0  0  0  0
    6.6442    0.0623   19.9730 C   0  0  0  0  0  0  0  0  0  0  0  0
    7.4258   -0.8806   21.3102 S   0  0  0  0  0  4  0  0  0  0  0  0
    8.0454   -2.0407   20.5861 O   0  0  0  0  0  0  0  0  0  0  0  0
    8.8059    0.2600   21.7519 C   0  0  0  0  0  0  0  0  0  0  0  0
    8.7150    0.9724   22.8683 N   0  0  0  0  0  0  0  0  0  0  0  0
    9.7737    1.7340   23.2127 C   0  0  0  0  0  0  0  0  0  0  0  0
    9.8361    2.4647   24.5640 C   0  0  0  0  0  0  0  0  0  0  0  0
    8.7551    2.3411   25.3303 F   0  0  0  0  0  0  0  0  0  0  0  0
   10.8987    2.0037   25.2664 F   0  0  0  0  0  0  0  0  0  0  0  0
   10.0627    3.7849   24.3786 F   0  0  0  0  0  0  0  0  0  0  0  0
   10.9059    1.8646   22.4037 C   0  0  0  0  0  0  0  0  0  0  0  0
   11.7435    2.4664   22.7442 H   0  0  0  0  0  0  0  0  0  0  0  0
   10.9690    1.1418   21.2188 C   0  0  0  0  0  0  0  0  0  0  0  0
   11.8225    1.2986   20.5630 H   0  0  0  0  0  0  0  0  0  0  0  0
    9.9344    0.2555   20.9146 C   0  0  0  0  0  0  0  0  0  0  0  0
   10.0068   -0.4670   20.1064 H   0  0  0  0  0  0  0  0  0  0  0  0
    5.4420    0.7340   20.1977 C   0  0  0  0  0  0  0  0  0  0  0  0
    4.9949    0.7573   21.1935 H   0  0  0  0  0  0  0  0  0  0  0  0
    4.8294    1.3510   19.1052 C   0  0  0  0  0  0  0  0  0  0  0  0
    3.8748    1.8581   19.2114 H   0  0  0  0  0  0  0  0  0  0  0  0
  1  2  1  0
  2  3  2  0
  3  4  1  0
  4  5  1  0
  4  6  2  0
  7  6  1  6
  7  8  2  0
  7  9  1  0
  9 10  2  0
 10 11  1  0
 11 12  1  0
 12 13  1  0
 12 14  1  0
 12 15  1  0
 11 16  2  0
 16 17  1  0
 16 18  1  0
 18 19  1  0
 18 20  2  0
 20 21  1  0
  6 22  1  0
 22 23  1  0
 22 24  2  0
 24 25  1  0
 24  2  1  0
 20  9  1  0
M  END
>  <cnnaffinity>  (1) 
-4.39368

>  <filename>  (1) 
O=[S@](c1cccnc1)c1cccc(C(F)(F)F)n1

$$$$
