
     RDKit          3D

 36 38  0  0  0  0  0  0  0  0999 V2000
    5.0229    1.7496   17.0539 H   0  0  0  0  0  0  0  0  0  0  0  0
    5.4866    1.2389   17.8913 C   0  0  0  0  0  0  0  0  0  0  0  0
    6.6454    0.6104   17.6303 N   0  0  0  0  0  0  0  0  0  0  0  0
    7.2419   -0.0217   18.6487 C   0  0  0  0  0  0  0  0  0  0  0  0
    8.1818   -0.5281   18.4291 H   0  0  0  0  0  0  0  0  0  0  0  0
    6.7283   -0.0674   19.9785 C   0  0  0  0  0  0  0  0  0  0  0  0
    7.3884   -0.7049   20.9939 N   0  0  0  0  0  0  0  0  0  0  0  0
    7.0223   -0.9116   22.3787 C   0  0  0  0  0  0  0  0  0  0  0  0
    6.1112   -1.5128   22.5161 H   0  0  0  0  0  0  0  0  0  0  0  0
    6.9343    0.0124   22.9669 H   0  0  0  0  0  0  0  0  0  0  0  0
    8.3676   -1.6760   22.5362 C   0  0  0  0  0  0  0  0  0  0  0  0
    9.0410   -1.2099   23.2575 H   0  0  0  0  0  0  0  0  0  0  0  0
    8.2120   -3.1440   22.8372 C   0  0  0  0  0  0  0  0  0  0  0  0
    8.5372   -4.0421   22.0830 O   0  0  0  0  0  0  0  0  0  0  0  0
    7.6517   -3.3730   24.0623 N   0  0  0  0  0  0  0  0  0  0  0  0
    7.0858   -2.6079   24.3846 H   0  0  0  0  0  0  0  0  0  0  0  0
    7.1794   -4.7101   24.4079 C   0  0  0  0  0  0  0  0  0  0  0  0
    8.0199   -5.4076   24.3532 H   0  0  0  0  0  0  0  0  0  0  0  0
    6.8391   -4.6852   25.4485 H   0  0  0  0  0  0  0  0  0  0  0  0
    6.0526   -5.1893   23.5050 C   0  0  0  0  0  0  0  0  0  0  0  0
    6.2755   -6.1494   22.5047 C   0  0  0  0  0  0  0  0  0  0  0  0
    7.2663   -6.5420   22.3074 H   0  0  0  0  0  0  0  0  0  0  0  0
    5.2067   -6.5568   21.7028 C   0  0  0  0  0  0  0  0  0  0  0  0
    5.3342   -7.3268   20.9459 H   0  0  0  0  0  0  0  0  0  0  0  0
    3.9743   -6.0533   21.8138 N   0  0  0  0  0  0  0  0  0  0  0  0
    3.7720   -5.1065   22.7349 C   0  0  0  0  0  0  0  0  0  0  0  0
    2.7588   -4.7213   22.8037 H   0  0  0  0  0  0  0  0  0  0  0  0
    4.7679   -4.6341   23.5904 C   0  0  0  0  0  0  0  0  0  0  0  0
    4.5280   -3.8340   24.2907 H   0  0  0  0  0  0  0  0  0  0  0  0
    8.6686   -1.3858   21.0536 C   0  0  0  0  0  0  0  0  0  0  0  0
    8.7211   -2.2834   20.4312 H   0  0  0  0  0  0  0  0  0  0  0  0
    9.5363   -0.7464   20.8409 H   0  0  0  0  0  0  0  0  0  0  0  0
    5.5001    0.5860   20.2169 C   0  0  0  0  0  0  0  0  0  0  0  0
    5.0702    0.5760   21.2199 H   0  0  0  0  0  0  0  0  0  0  0  0
    4.8799    1.2468   19.1546 C   0  0  0  0  0  0  0  0  0  0  0  0
    3.9452    1.7789   19.3015 H   0  0  0  0  0  0  0  0  0  0  0  0
  1  2  1  0
  2  3  2  0
  3  4  1  0
  4  5  1  0
  4  6  2  0
  6  7  1  0
  7  8  1  0
  8  9  1  0
  8 10  1  0
  8 11  1  0
 11 12  1  0
 11 13  1  0
 13 14  2  0
 13 15  1  0
 15 16  1  0
 15 17  1  0
 17 18  1  0
 17 19  1  0
 17 20  1  0
 20 21  2  0
 21 22  1  0
 21 23  1  0
 23 24  1  0
 23 25  2  0
 25 26  1  0
 26 27  1  0
 26 28  2  0
 28 29  1  0
 11 30  1  0
 30 31  1  0
 30 32  1  0
  6 33  1  0
 33 34  1  0
 33 35  2  0
 35 36  1  0
 35  2  1  0
 30  7  1  0
 28 20  1  0
M  END
>  <cnnaffinity>  (1) 
-4.95708

>  <filename>  (1) 
O=C(NCc1ccncc1)C1CN(c2cccnc2)C1

$$$$
