
     RDKit          3D

 34 36  0  0  0  0  0  0  0  0999 V2000
    8.6037   -0.8570   20.8686 O   0  0  0  0  0  0  0  0  0  0  0  0
    7.3991   -0.7279   21.0157 C   0  0  0  0  0  0  0  0  0  0  0  0
    6.7508   -1.1802   22.1194 N   0  0  0  0  0  0  0  0  0  0  0  0
    7.3698   -1.5382   23.3001 C   0  0  0  0  0  0  0  0  0  0  0  0
    6.6854   -2.2727   24.1512 N   0  0  0  0  0  0  0  0  0  0  0  0
    7.5124   -2.3643   25.2496 N   0  0  0  0  0  0  0  0  0  0  0  0
    7.2343   -3.1346   26.4230 C   0  0  0  0  0  0  0  0  0  0  0  0
    8.3100   -3.7275   26.9419 N   0  0  0  0  0  0  0  0  0  0  0  0
    8.1756   -4.5564   27.9727 C   0  0  0  0  0  0  0  0  0  0  0  0
    6.9606   -4.7785   28.6116 C   0  0  0  0  0  0  0  0  0  0  0  0
    5.8357   -4.1040   28.1514 C   0  0  0  0  0  0  0  0  0  0  0  0
    5.9645   -3.2552   27.0446 C   0  0  0  0  0  0  0  0  0  0  0  0
    4.7724   -2.5054   26.5189 C   0  0  0  0  0  0  0  0  0  0  0  0
    4.3121   -3.0504   25.3822 F   0  0  0  0  0  0  0  0  0  0  0  0
    3.7384   -2.5068   27.3891 F   0  0  0  0  0  0  0  0  0  0  0  0
    5.0481   -1.2142   26.2814 F   0  0  0  0  0  0  0  0  0  0  0  0
    4.8773   -4.2137   28.6627 H   0  0  0  0  0  0  0  0  0  0  0  0
    6.9182   -5.4290   29.4717 H   0  0  0  0  0  0  0  0  0  0  0  0
    9.0893   -5.0404   28.3087 H   0  0  0  0  0  0  0  0  0  0  0  0
    8.6883   -1.6869   25.0365 C   0  0  0  0  0  0  0  0  0  0  0  0
    8.6257   -1.1385   23.7897 C   0  0  0  0  0  0  0  0  0  0  0  0
    9.3219   -0.5287   23.2368 H   0  0  0  0  0  0  0  0  0  0  0  0
    9.4576   -1.6774   25.8095 H   0  0  0  0  0  0  0  0  0  0  0  0
    5.7650   -1.3586   22.1260 H   0  0  0  0  0  0  0  0  0  0  0  0
    6.5717   -0.0605   19.9831 C   0  0  0  0  0  0  0  0  0  0  0  0
    5.3624    0.6143   20.2032 C   0  0  0  0  0  0  0  0  0  0  0  0
    4.7821    1.2756   19.1239 C   0  0  0  0  0  0  0  0  0  0  0  0
    5.4323    1.2414   17.8841 C   0  0  0  0  0  0  0  0  0  0  0  0
    6.5893    0.5990   17.6673 N   0  0  0  0  0  0  0  0  0  0  0  0
    7.1511   -0.0138   18.7087 C   0  0  0  0  0  0  0  0  0  0  0  0
    8.1188   -0.4857   18.5362 H   0  0  0  0  0  0  0  0  0  0  0  0
    5.0107    1.7686   17.0336 H   0  0  0  0  0  0  0  0  0  0  0  0
    3.8689    1.8493   19.2420 H   0  0  0  0  0  0  0  0  0  0  0  0
    4.9035    0.6811   21.1929 H   0  0  0  0  0  0  0  0  0  0  0  0
  1  2  2  0
  2  3  1  0
  3  4  1  0
  4  5  2  0
  5  6  1  0
  6  7  1  0
  7  8  2  0
  8  9  1  0
  9 10  2  0
 10 11  1  0
 11 12  2  0
 12 13  1  0
 13 14  1  0
 13 15  1  0
 13 16  1  0
 11 17  1  0
 10 18  1  0
  9 19  1  0
  6 20  1  0
 20 21  2  0
 21 22  1  0
 20 23  1  0
  3 24  1  0
  2 25  1  0
 25 26  2  0
 26 27  1  0
 27 28  2  0
 28 29  1  0
 29 30  2  0
 30 31  1  0
 28 32  1  0
 27 33  1  0
 26 34  1  0
 21  4  1  0
 30 25  1  0
 12  7  1  0
M  END
>  <cnnaffinity>  (1) 
-6.03462

>  <filename>  (1) 
O=C(Nc1ccn(-c2ncccc2C(F)(F)F)n1)c1cccnc1

$$$$
