
     RDKit          3D

 33 34  0  0  0  0  0  0  0  0999 V2000
    4.9451    1.7827   17.0099 H   0  0  0  0  0  0  0  0  0  0  0  0
    5.4055    1.2821   17.8596 C   0  0  0  0  0  0  0  0  0  0  0  0
    6.5705    0.6588   17.6159 N   0  0  0  0  0  0  0  0  0  0  0  0
    7.1704    0.0430   18.6392 C   0  0  0  0  0  0  0  0  0  0  0  0
    8.1218   -0.4319   18.3857 H   0  0  0  0  0  0  0  0  0  0  0  0
    6.6663   -0.0181   19.9649 C   0  0  0  0  0  0  0  0  0  0  0  0
    7.3726   -0.7009   20.9426 N   0  0  0  0  0  0  0  0  0  0  0  0
    8.2627   -1.1753   20.8293 H   0  0  0  0  0  0  0  0  0  0  0  0
    6.8622   -0.7501   22.2405 O   0  0  0  0  0  0  0  0  0  0  0  0
    7.5962   -1.4263   23.1707 C   0  0  0  0  0  0  0  0  0  0  0  0
    8.6388   -1.9948   22.9183 O   0  0  0  0  0  0  0  0  0  0  0  0
    6.9015   -1.3597   24.5933 C   0  0  0  0  0  0  0  0  0  0  0  0
    5.8536   -0.7756   24.7979 O   0  0  0  0  0  0  0  0  0  0  0  0
    7.5812   -1.9930   25.5988 N   0  0  0  0  0  0  0  0  0  0  0  0
    8.4248   -2.4951   25.3668 H   0  0  0  0  0  0  0  0  0  0  0  0
    6.9927   -2.1500   26.9393 C   0  0  0  0  0  0  0  0  0  0  0  0
    7.8080   -2.4855   27.5913 H   0  0  0  0  0  0  0  0  0  0  0  0
    6.6587   -1.1726   27.3138 H   0  0  0  0  0  0  0  0  0  0  0  0
    5.8256   -3.1338   26.9920 C   0  0  0  0  0  0  0  0  0  0  0  0
    6.0502   -4.5148   26.8800 C   0  0  0  0  0  0  0  0  0  0  0  0
    7.0708   -4.8823   26.7911 H   0  0  0  0  0  0  0  0  0  0  0  0
    4.9819   -5.4170   26.8692 C   0  0  0  0  0  0  0  0  0  0  0  0
    5.1802   -6.4819   26.7701 H   0  0  0  0  0  0  0  0  0  0  0  0
    3.6668   -4.9506   26.9772 C   0  0  0  0  0  0  0  0  0  0  0  0
    2.8370   -5.6538   26.9600 H   0  0  0  0  0  0  0  0  0  0  0  0
    3.4266   -3.5785   27.1043 C   0  0  0  0  0  0  0  0  0  0  0  0
    2.4074   -3.2053   27.1799 H   0  0  0  0  0  0  0  0  0  0  0  0
    4.4994   -2.6803   27.1149 C   0  0  0  0  0  0  0  0  0  0  0  0
    4.3114   -1.6103   27.1839 H   0  0  0  0  0  0  0  0  0  0  0  0
    5.4417    0.6408   20.1916 C   0  0  0  0  0  0  0  0  0  0  0  0
    4.9944    0.6413   21.1860 H   0  0  0  0  0  0  0  0  0  0  0  0
    4.8166    1.2956   19.1262 C   0  0  0  0  0  0  0  0  0  0  0  0
    3.8839    1.8298   19.2631 H   0  0  0  0  0  0  0  0  0  0  0  0
  1  2  1  0
  2  3  2  0
  3  4  1  0
  4  5  1  0
  4  6  2  0
  6  7  1  0
  7  8  1  0
  7  9  1  0
  9 10  1  0
 10 11  2  0
 10 12  1  0
 12 13  2  0
 12 14  1  0
 14 15  1  0
 14 16  1  0
 16 17  1  0
 16 18  1  0
 16 19  1  0
 19 20  2  0
 20 21  1  0
 20 22  1  0
 22 23  1  0
 22 24  2  0
 24 25  1  0
 24 26  1  0
 26 27  1  0
 26 28  2  0
 28 29  1  0
  6 30  1  0
 30 31  1  0
 30 32  2  0
 32 33  1  0
 32  2  1  0
 28 19  1  0
M  END
>  <cnnaffinity>  (1) 
-4.30993

>  <filename>  (1) 
O=C(NCc1ccccc1)C(=O)ONc1cccnc1

$$$$
