
     RDKit          3D

 39 41  0  0  0  0  0  0  0  0999 V2000
    5.1000    1.9695   16.9042 H   0  0  0  0  0  0  0  0  0  0  0  0
    5.5739    1.3899   17.6941 C   0  0  0  0  0  0  0  0  0  0  0  0
    6.7671    0.8482   17.3992 N   0  0  0  0  0  0  0  0  0  0  0  0
    7.3923    0.1575   18.3648 C   0  0  0  0  0  0  0  0  0  0  0  0
    8.3627   -0.2543   18.0862 H   0  0  0  0  0  0  0  0  0  0  0  0
    6.8706   -0.0718   19.6704 C   0  0  0  0  0  0  0  0  0  0  0  0
    7.5803   -0.8010   20.6592 N   0  0  0  0  0  0  0  0  0  0  0  0
    6.8880   -1.6762   21.6076 C   0  0  0  0  0  0  0  0  0  0  0  0
    7.3880   -2.6564   21.6141 H   0  0  0  0  0  0  0  0  0  0  0  0
    5.8737   -1.8569   21.2300 H   0  0  0  0  0  0  0  0  0  0  0  0
    6.8206   -1.1871   23.0735 C   0  0  0  0  0  0  0  0  0  0  0  0
    6.6873   -0.0931   23.0858 H   0  0  0  0  0  0  0  0  0  0  0  0
    5.9575   -1.6356   23.5651 H   0  0  0  0  0  0  0  0  0  0  0  0
    7.9968   -1.5586   23.8817 N   0  0  0  0  0  0  0  0  0  0  0  0
    7.7783   -2.2836   25.0634 C   0  0  0  0  0  0  0  0  0  0  0  0
    6.7048   -2.2109   25.6451 O   0  0  0  0  0  0  0  0  0  0  0  0
    8.8362   -3.2794   25.5708 C   0  0  0  0  0  0  0  0  0  0  0  0
    9.9352   -3.6778   24.7929 C   0  0  0  0  0  0  0  0  0  0  0  0
   10.1238   -3.2545   23.8189 H   0  0  0  0  0  0  0  0  0  0  0  0
   10.7819   -4.6975   25.2355 C   0  0  0  0  0  0  0  0  0  0  0  0
   11.6237   -5.0081   24.6254 H   0  0  0  0  0  0  0  0  0  0  0  0
   10.6126   -5.3437   26.3910 N   0  0  0  0  0  0  0  0  0  0  0  0
    9.5599   -4.9906   27.1424 C   0  0  0  0  0  0  0  0  0  0  0  0
    9.4003   -5.5761   28.0440 H   0  0  0  0  0  0  0  0  0  0  0  0
    8.6652   -3.9714   26.7953 C   0  0  0  0  0  0  0  0  0  0  0  0
    7.8335   -3.7553   27.4554 H   0  0  0  0  0  0  0  0  0  0  0  0
    9.2054   -0.8103   23.5323 C   0  0  0  0  0  0  0  0  0  0  0  0
   10.0021   -1.0352   24.2502 H   0  0  0  0  0  0  0  0  0  0  0  0
    9.0015    0.2685   23.6532 H   0  0  0  0  0  0  0  0  0  0  0  0
    9.6778   -1.0437   22.0881 C   0  0  0  0  0  0  0  0  0  0  0  0
    9.6707   -2.1122   21.8545 H   0  0  0  0  0  0  0  0  0  0  0  0
   10.7217   -0.7122   22.0184 H   0  0  0  0  0  0  0  0  0  0  0  0
    8.9111   -0.2935   20.9896 C   0  0  0  0  0  0  0  0  0  0  0  0
    9.5097   -0.3232   20.0667 H   0  0  0  0  0  0  0  0  0  0  0  0
    8.8544    0.7799   21.2509 H   0  0  0  0  0  0  0  0  0  0  0  0
    5.6002    0.4826   19.9298 C   0  0  0  0  0  0  0  0  0  0  0  0
    5.1570    0.3458   20.9143 H   0  0  0  0  0  0  0  0  0  0  0  0
    4.9551    1.2296   18.9373 C   0  0  0  0  0  0  0  0  0  0  0  0
    3.9909    1.6926   19.1220 H   0  0  0  0  0  0  0  0  0  0  0  0
  1  2  1  0
  2  3  2  0
  3  4  1  0
  4  5  1  0
  4  6  2  0
  6  7  1  0
  7  8  1  0
  8  9  1  0
  8 10  1  0
  8 11  1  0
 11 12  1  0
 11 13  1  0
 11 14  1  0
 14 15  1  0
 15 16  2  0
 15 17  1  0
 17 18  2  0
 18 19  1  0
 18 20  1  0
 20 21  1  0
 20 22  2  0
 22 23  1  0
 23 24  1  0
 23 25  2  0
 25 26  1  0
 14 27  1  0
 27 28  1  0
 27 29  1  0
 27 30  1  0
 30 31  1  0
 30 32  1  0
 30 33  1  0
 33 34  1  0
 33 35  1  0
  6 36  1  0
 36 37  1  0
 36 38  2  0
 38 39  1  0
 38  2  1  0
 33  7  1  0
 25 17  1  0
M  END
>  <cnnaffinity>  (1) 
-4.99064

>  <filename>  (1) 
O=C(c1ccncc1)N1CCCN(c2cccnc2)CC1

$$$$
