
     RDKit          3D

 18 18  0  0  0  0  0  0  0  0999 V2000
    4.8961    1.7869   17.0188 H   0  0  0  0  0  0  0  0  0  0  0  0
    5.4085    1.2874   17.8407 C   0  0  0  0  0  0  0  0  0  0  0  0
    6.5791    0.6664   17.6101 N   0  0  0  0  0  0  0  0  0  0  0  0
    7.1925    0.0488   18.6300 C   0  0  0  0  0  0  0  0  0  0  0  0
    8.1355   -0.4404   18.4069 H   0  0  0  0  0  0  0  0  0  0  0  0
    6.6427   -0.0104   19.9141 C   0  0  0  0  0  0  0  0  0  0  0  0
    7.3651   -0.7199   20.9488 C   0  0  0  0  0  0  0  0  0  0  0  0
    8.5788   -0.7728   20.9060 O   0  0  0  0  0  0  0  0  0  0  0  0
    6.7103   -1.2958   22.0195 N   0  0  0  0  0  0  0  0  0  0  0  0
    5.7005   -1.3092   21.9838 H   0  0  0  0  0  0  0  0  0  0  0  0
    7.3870   -1.9106   23.1548 C   0  0  0  0  0  0  0  0  0  0  0  0
    8.1372   -1.2289   23.5658 H   0  0  0  0  0  0  0  0  0  0  0  0
    6.6696   -2.1197   23.9561 H   0  0  0  0  0  0  0  0  0  0  0  0
    8.3034   -3.7587   22.5412 I   0  0  0  0  0  0  0  0  0  0  0  0
    5.4337    0.6376   20.1696 C   0  0  0  0  0  0  0  0  0  0  0  0
    4.9883    0.6427   21.1656 H   0  0  0  0  0  0  0  0  0  0  0  0
    4.8197    1.3009   19.1103 C   0  0  0  0  0  0  0  0  0  0  0  0
    3.8867    1.8323   19.2611 H   0  0  0  0  0  0  0  0  0  0  0  0
  1  2  1  0
  2  3  2  0
  3  4  1  0
  4  5  1  0
  4  6  2  0
  6  7  1  0
  7  8  2  0
  7  9  1  0
  9 10  1  0
  9 11  1  0
 11 12  1  0
 11 13  1  0
 11 14  1  0
  6 15  1  0
 15 16  1  0
 15 17  2  0
 17 18  1  0
 17  2  1  0
M  END
>  <cnnaffinity>  (1) 
-3.78861

>  <filename>  (1) 
O=C(NCI)c1cccnc1

$$$$
