
     RDKit          3D

 19 19  0  0  0  0  0  0  0  0999 V2000
    7.0707   -2.8882   23.0246 H   0  0  0  0  0  0  0  0  0  0  0  0
    7.9254   -3.7331   22.4276 S   0  0  0  0  0  0  0  0  0  0  0  0
    8.9709   -2.4255   21.6927 C   0  0  0  0  0  0  0  0  0  0  0  0
    9.8447   -2.9302   21.2716 H   0  0  0  0  0  0  0  0  0  0  0  0
    9.2913   -1.7479   22.4915 H   0  0  0  0  0  0  0  0  0  0  0  0
    8.3104   -1.6563   20.6646 N   0  0  0  0  0  0  0  0  0  0  0  0
    8.0147   -2.1753   19.8506 H   0  0  0  0  0  0  0  0  0  0  0  0
    7.3984   -0.6969   21.0331 C   0  0  0  0  0  0  0  0  0  0  0  0
    7.2145   -0.3828   22.1961 O   0  0  0  0  0  0  0  0  0  0  0  0
    6.6550   -0.0557   19.9139 C   0  0  0  0  0  0  0  0  0  0  0  0
    7.1793    0.0051   18.6164 C   0  0  0  0  0  0  0  0  0  0  0  0
    8.1455   -0.4234   18.3551 H   0  0  0  0  0  0  0  0  0  0  0  0
    6.5850    0.6406   17.6007 N   0  0  0  0  0  0  0  0  0  0  0  0
    5.4247    1.2659   17.8471 C   0  0  0  0  0  0  0  0  0  0  0  0
    4.9653    1.7819   17.0044 H   0  0  0  0  0  0  0  0  0  0  0  0
    4.8193    1.2772   19.1087 C   0  0  0  0  0  0  0  0  0  0  0  0
    3.8967    1.8300   19.2522 H   0  0  0  0  0  0  0  0  0  0  0  0
    5.4434    0.6139   20.1607 C   0  0  0  0  0  0  0  0  0  0  0  0
    5.0274    0.6407   21.1698 H   0  0  0  0  0  0  0  0  0  0  0  0
  1  2  1  0
  2  3  1  0
  3  4  1  0
  3  5  1  0
  3  6  1  0
  6  7  1  0
  6  8  1  0
  8  9  2  0
  8 10  1  0
 10 11  2  0
 11 12  1  0
 11 13  1  0
 13 14  2  0
 14 15  1  0
 14 16  1  0
 16 17  1  0
 16 18  2  0
 18 19  1  0
 18 10  1  0
M  END
>  <cnnaffinity>  (1) 
-3.75676

>  <filename>  (1) 
O=C(NCS)c1cccnc1

$$$$
