
     RDKit          3D

 34 36  0  0  0  0  0  0  0  0999 V2000
    7.3280   -0.4216   25.4201 O   0  0  0  0  0  0  0  0  0  0  0  0
    8.0921   -1.3658   25.4967 C   0  0  0  0  0  0  0  0  0  0  0  0
    8.4340   -1.9236   26.8486 C   0  0  0  0  0  0  0  0  0  0  0  0
    7.5809   -3.1256   27.1117 C   0  0  0  0  0  0  0  0  0  0  0  0
    6.2734   -2.9606   27.5821 C   0  0  0  0  0  0  0  0  0  0  0  0
    5.5367   -4.0833   27.9756 C   0  0  0  0  0  0  0  0  0  0  0  0
    6.0629   -5.3695   27.7995 C   0  0  0  0  0  0  0  0  0  0  0  0
    5.0612   -6.9058   28.3337 Br  0  0  0  0  0  0  0  0  0  0  0  0
    7.3353   -5.5312   27.2403 C   0  0  0  0  0  0  0  0  0  0  0  0
    8.0976   -4.4078   26.9079 C   0  0  0  0  0  0  0  0  0  0  0  0
    9.1014   -4.5308   26.5129 H   0  0  0  0  0  0  0  0  0  0  0  0
    7.7279   -6.5306   27.0755 H   0  0  0  0  0  0  0  0  0  0  0  0
    4.5696   -3.9553   28.4524 H   0  0  0  0  0  0  0  0  0  0  0  0
    5.8710   -1.9577   27.7052 H   0  0  0  0  0  0  0  0  0  0  0  0
    8.2578   -1.1466   27.5991 H   0  0  0  0  0  0  0  0  0  0  0  0
    9.4886   -2.1944   26.8642 H   0  0  0  0  0  0  0  0  0  0  0  0
    8.6182   -1.9051   24.3583 N   0  0  0  0  0  0  0  0  0  0  0  0
    8.1983   -1.5224   23.1243 C   0  0  0  0  0  0  0  0  0  0  0  0
    8.8678   -2.0725   22.1652 N   0  0  0  0  0  0  0  0  0  0  0  0
    8.3995   -1.5674   20.9657 C   0  0  0  0  0  0  0  0  0  0  0  0
    7.3632   -0.6583   21.0377 C   0  0  0  0  0  0  0  0  0  0  0  0
    6.6788    0.0087   19.9139 C   0  0  0  0  0  0  0  0  0  0  0  0
    5.4640    0.6604   20.1527 C   0  0  0  0  0  0  0  0  0  0  0  0
    4.8324    1.3014   19.0889 C   0  0  0  0  0  0  0  0  0  0  0  0
    5.4283    1.2765   17.8233 C   0  0  0  0  0  0  0  0  0  0  0  0
    6.5851    0.6340   17.5669 N   0  0  0  0  0  0  0  0  0  0  0  0
    7.1931    0.0140   18.5965 C   0  0  0  0  0  0  0  0  0  0  0  0
    8.1315   -0.4992   18.3979 H   0  0  0  0  0  0  0  0  0  0  0  0
    4.9402    1.8085   17.0186 H   0  0  0  0  0  0  0  0  0  0  0  0
    3.8971    1.8364   19.2352 H   0  0  0  0  0  0  0  0  0  0  0  0
    5.0345    0.6675   21.1546 H   0  0  0  0  0  0  0  0  0  0  0  0
    6.9213   -0.3895   22.7079 S   0  0  0  0  0  0  0  0  0  0  0  0
    8.8399   -1.8934   20.0320 H   0  0  0  0  0  0  0  0  0  0  0  0
    9.2800   -2.6684   24.4066 H   0  0  0  0  0  0  0  0  0  0  0  0
  1  2  2  0
  2  3  1  0
  3  4  1  0
  4  5  2  0
  5  6  1  0
  6  7  2  0
  7  8  1  0
  7  9  1  0
  9 10  2  0
 10 11  1  0
  9 12  1  0
  6 13  1  0
  5 14  1  0
  3 15  1  0
  3 16  1  0
  2 17  1  0
 17 18  1  0
 18 19  2  0
 19 20  1  0
 20 21  2  0
 21 22  1  0
 22 23  2  0
 23 24  1  0
 24 25  2  0
 25 26  1  0
 26 27  2  0
 27 28  1  0
 25 29  1  0
 24 30  1  0
 23 31  1  0
 21 32  1  0
 20 33  1  0
 17 34  1  0
 10  4  1  0
 32 18  1  0
 27 22  1  0
M  END
>  <cnnaffinity>  (1) 
-5.08241

>  <filename>  (1) 
O=C(Cc1ccc(Br)cc1)Nc1ncc(-c2cccnc2)s1

$$$$
