
     RDKit          3D

 33 35  0  0  0  0  0  0  0  0999 V2000
   10.9223    1.8445   24.6583 H   0  0  0  0  0  0  0  0  0  0  0  0
   10.3225    2.4835   24.2361 O   0  0  0  0  0  0  0  0  0  0  0  0
    9.3672    1.7399   23.5344 N   0  0  0  0  0  0  0  0  0  0  0  0
    9.3183    2.0310   22.5656 H   0  0  0  0  0  0  0  0  0  0  0  0
    8.1225    1.4703   24.0861 C   0  0  0  0  0  0  0  0  0  0  0  0
    7.9078    1.3984   25.2752 O   0  0  0  0  0  0  0  0  0  0  0  0
    7.0828    1.1148   23.0118 C   0  0  0  0  0  0  0  0  0  0  0  0
    6.1206    1.1457   23.5367 H   0  0  0  0  0  0  0  0  0  0  0  0
    7.0535    1.9088   22.2580 H   0  0  0  0  0  0  0  0  0  0  0  0
    7.3246   -0.2451   22.3694 C   0  0  0  0  0  0  0  0  0  0  0  0
    7.2296   -0.6962   21.0109 C   0  0  0  0  0  0  0  0  0  0  0  0
    6.5965    0.0089   19.8904 C   0  0  0  0  0  0  0  0  0  0  0  0
    7.1497    0.0009   18.5955 C   0  0  0  0  0  0  0  0  0  0  0  0
    8.0718   -0.5384   18.3752 H   0  0  0  0  0  0  0  0  0  0  0  0
    6.6079    0.6559   17.5609 N   0  0  0  0  0  0  0  0  0  0  0  0
    5.4615    1.3250   17.7693 C   0  0  0  0  0  0  0  0  0  0  0  0
    5.0265    1.8215   16.9038 H   0  0  0  0  0  0  0  0  0  0  0  0
    4.8086    1.3611   19.0041 C   0  0  0  0  0  0  0  0  0  0  0  0
    3.8641    1.8825   19.1081 H   0  0  0  0  0  0  0  0  0  0  0  0
    5.3898    0.7003   20.0810 C   0  0  0  0  0  0  0  0  0  0  0  0
    4.9178    0.7084   21.0639 H   0  0  0  0  0  0  0  0  0  0  0  0
    7.7499   -1.9158   20.8562 N   0  0  0  0  0  0  0  0  0  0  0  0
    8.1086   -2.2587   22.0941 N   0  0  0  0  0  0  0  0  0  0  0  0
    7.8725   -1.3294   23.0268 C   0  0  0  0  0  0  0  0  0  0  0  0
    8.4578   -1.7579   24.3413 C   0  0  0  0  0  0  0  0  0  0  0  0
    9.2959   -1.1103   24.6212 H   0  0  0  0  0  0  0  0  0  0  0  0
    7.7243   -1.6903   25.1431 H   0  0  0  0  0  0  0  0  0  0  0  0
    8.9186   -3.2124   24.0649 C   0  0  0  0  0  0  0  0  0  0  0  0
    9.9110   -3.4117   24.4682 H   0  0  0  0  0  0  0  0  0  0  0  0
    8.2301   -3.9297   24.5193 H   0  0  0  0  0  0  0  0  0  0  0  0
    8.8994   -3.3850   22.5270 C   0  0  0  0  0  0  0  0  0  0  0  0
    9.9004   -3.2963   22.0949 H   0  0  0  0  0  0  0  0  0  0  0  0
    8.4260   -4.3160   22.2166 H   0  0  0  0  0  0  0  0  0  0  0  0
  1  2  1  0
  2  3  1  0
  3  4  1  0
  3  5  1  0
  5  6  2  0
  5  7  1  0
  7  8  1  0
  7  9  1  0
  7 10  1  0
 10 11  1  0
 11 12  1  0
 12 13  2  0
 13 14  1  0
 13 15  1  0
 15 16  2  0
 16 17  1  0
 16 18  1  0
 18 19  1  0
 18 20  2  0
 20 21  1  0
 11 22  2  0
 22 23  1  0
 23 24  1  0
 24 25  1  0
 25 26  1  0
 25 27  1  0
 25 28  1  0
 28 29  1  0
 28 30  1  0
 28 31  1  0
 31 32  1  0
 31 33  1  0
 24 10  2  0
 20 12  1  0
 31 23  1  0
M  END
>  <cnnaffinity>  (1) 
-5.00912

>  <filename>  (1) 
O=C(Cc1c(-c2cccnc2)nn2c1CCC2)NO

$$$$
