
     RDKit          3D

 28 29  0  0  0  0  0  0  0  0999 V2000
    8.8450   -4.8075   27.8099 H   0  0  0  0  0  0  0  0  0  0  0  0
    9.3912   -4.4602   27.0834 O   0  0  0  0  0  0  0  0  0  0  0  0
    8.4392   -3.7648   26.4418 C   0  0  0  0  0  0  0  0  0  0  0  0
    7.3256   -3.7418   26.9205 O   0  0  0  0  0  0  0  0  0  0  0  0
    8.8624   -3.1088   25.1786 C   0  0  0  0  0  0  0  0  0  0  0  0
   10.1605   -3.2423   24.6632 C   0  0  0  0  0  0  0  0  0  0  0  0
   10.9020   -3.8327   25.2028 H   0  0  0  0  0  0  0  0  0  0  0  0
   10.4870   -2.6002   23.4669 C   0  0  0  0  0  0  0  0  0  0  0  0
   11.4858   -2.7195   23.0613 H   0  0  0  0  0  0  0  0  0  0  0  0
    9.5439   -1.8423   22.7591 C   0  0  0  0  0  0  0  0  0  0  0  0
    9.8647   -1.3182   21.8586 H   0  0  0  0  0  0  0  0  0  0  0  0
    8.2276   -1.7789   23.2488 C   0  0  0  0  0  0  0  0  0  0  0  0
    6.8414   -1.0935   22.3720 S   0  0  0  0  0  0  0  0  0  0  0  0
    5.9488   -2.1636   21.9720 O   0  0  0  0  0  0  0  0  0  0  0  0
    6.3454    0.0648   23.0960 O   0  0  0  0  0  0  0  0  0  0  0  0
    7.5905   -0.5419   21.0089 O   0  0  0  0  0  0  0  0  0  0  0  0
    6.8055    0.0277   19.9773 C   0  0  0  0  0  0  0  0  0  0  0  0
    7.3021    0.0325   18.6556 C   0  0  0  0  0  0  0  0  0  0  0  0
    8.2400   -0.4579   18.4068 H   0  0  0  0  0  0  0  0  0  0  0  0
    6.6514    0.6143   17.6358 N   0  0  0  0  0  0  0  0  0  0  0  0
    5.4812    1.2219   17.8942 C   0  0  0  0  0  0  0  0  0  0  0  0
    4.9783    1.7077   17.0573 H   0  0  0  0  0  0  0  0  0  0  0  0
    4.9086    1.2407   19.1670 C   0  0  0  0  0  0  0  0  0  0  0  0
    3.9584    1.7334   19.3286 H   0  0  0  0  0  0  0  0  0  0  0  0
    5.5782    0.6350   20.2367 C   0  0  0  0  0  0  0  0  0  0  0  0
    5.1693    0.6396   21.2423 H   0  0  0  0  0  0  0  0  0  0  0  0
    7.8951   -2.3854   24.4687 C   0  0  0  0  0  0  0  0  0  0  0  0
    6.8920   -2.3311   24.8924 H   0  0  0  0  0  0  0  0  0  0  0  0
  1  2  1  0
  2  3  1  0
  3  4  2  0
  3  5  1  0
  5  6  2  0
  6  7  1  0
  6  8  1  0
  8  9  1  0
  8 10  2  0
 10 11  1  0
 10 12  1  0
 12 13  1  0
 13 14  2  0
 13 15  2  0
 13 16  1  0
 16 17  1  0
 17 18  2  0
 18 19  1  0
 18 20  1  0
 20 21  2  0
 21 22  1  0
 21 23  1  0
 23 24  1  0
 23 25  2  0
 25 26  1  0
 12 27  2  0
 27 28  1  0
 27  5  1  0
 25 17  1  0
M  END
>  <cnnaffinity>  (1) 
-4.27903

>  <filename>  (1) 
O=C(O)c1cccc(S(=O)(=O)Oc2cccnc2)c1

$$$$
