
     RDKit          3D

 33 35  0  0  0  0  0  0  0  0999 V2000
    8.9014    3.5618   23.7050 H   0  0  0  0  0  0  0  0  0  0  0  0
    9.7305    4.0617   23.7235 O   0  0  0  0  0  0  0  0  0  0  0  0
   10.7480    3.2730   23.3072 C   0  0  0  0  0  0  0  0  0  0  0  0
   11.9900    3.8944   23.2154 C   0  0  0  0  0  0  0  0  0  0  0  0
   12.0413    4.9517   23.4379 H   0  0  0  0  0  0  0  0  0  0  0  0
   13.1096    3.1734   22.8068 C   0  0  0  0  0  0  0  0  0  0  0  0
   14.5772    4.0645   22.5760 Cl  0  0  0  0  0  0  0  0  0  0  0  0
   13.0224    1.8054   22.5327 C   0  0  0  0  0  0  0  0  0  0  0  0
   13.8999    1.2364   22.2364 H   0  0  0  0  0  0  0  0  0  0  0  0
   11.7679    1.1910   22.5897 C   0  0  0  0  0  0  0  0  0  0  0  0
   11.6634    0.1557   22.2857 H   0  0  0  0  0  0  0  0  0  0  0  0
   10.6329    1.9197   22.9330 C   0  0  0  0  0  0  0  0  0  0  0  0
    9.3573    1.3348   22.9757 O   0  0  0  0  0  0  0  0  0  0  0  0
    8.8410    0.7888   21.8426 C   0  0  0  0  0  0  0  0  0  0  0  0
    9.3934    0.7023   20.7786 O   0  0  0  0  0  0  0  0  0  0  0  0
    7.6144    0.3636   22.1605 O   0  0  0  0  0  0  0  0  0  0  0  0
    6.9652   -0.5141   21.2406 C   0  0  0  0  0  0  0  0  0  0  0  0
    6.3501    0.1310   20.0449 C   0  0  0  0  0  0  0  0  0  0  0  0
    6.9858    0.0544   18.7961 C   0  0  0  0  0  0  0  0  0  0  0  0
    7.9222   -0.4998   18.7175 H   0  0  0  0  0  0  0  0  0  0  0  0
    6.5375    0.6325   17.6743 N   0  0  0  0  0  0  0  0  0  0  0  0
    5.4032    1.3408   17.7684 C   0  0  0  0  0  0  0  0  0  0  0  0
    5.0573    1.8111   16.8496 H   0  0  0  0  0  0  0  0  0  0  0  0
    4.6774    1.4775   18.9575 C   0  0  0  0  0  0  0  0  0  0  0  0
    3.7710    2.0726   18.9621 H   0  0  0  0  0  0  0  0  0  0  0  0
    5.1468    0.8500   20.1105 C   0  0  0  0  0  0  0  0  0  0  0  0
    4.6070    0.9142   21.0558 H   0  0  0  0  0  0  0  0  0  0  0  0
    7.5562   -1.8841   21.1588 C   0  0  0  0  0  0  0  0  0  0  0  0
    7.3970   -2.4064   20.2258 H   0  0  0  0  0  0  0  0  0  0  0  0
    8.5082   -2.0542   21.6536 H   0  0  0  0  0  0  0  0  0  0  0  0
    6.3127   -1.6492   21.9672 C   0  0  0  0  0  0  0  0  0  0  0  0
    6.3980   -1.6192   23.0483 H   0  0  0  0  0  0  0  0  0  0  0  0
    5.3841   -2.0708   21.5943 H   0  0  0  0  0  0  0  0  0  0  0  0
  1  2  1  0
  2  3  1  0
  3  4  2  0
  4  5  1  0
  4  6  1  0
  6  7  1  0
  6  8  2  0
  8  9  1  0
  8 10  1  0
 10 11  1  0
 10 12  2  0
 12 13  1  0
 13 14  1  0
 14 15  2  0
 14 16  1  0
 16 17  1  0
 17 18  1  0
 18 19  2  0
 19 20  1  0
 19 21  1  0
 21 22  2  0
 22 23  1  0
 22 24  1  0
 24 25  1  0
 24 26  2  0
 26 27  1  0
 17 28  1  0
 28 29  1  0
 28 30  1  0
 28 31  1  0
 31 32  1  0
 31 33  1  0
 12  3  1  0
 31 17  1  0
 26 18  1  0
M  END
>  <cnnaffinity>  (1) 
-5.13203

>  <filename>  (1) 
O=C(Oc1ccc(Cl)cc1O)OC1(c2cccnc2)CC1

$$$$
