
     RDKit          3D

 31 32  0  0  0  0  0  0  0  0999 V2000
   10.9218    0.0654   27.8236 H   0  0  0  0  0  0  0  0  0  0  0  0
   10.0265   -0.2951   27.3293 C   0  0  0  0  0  0  0  0  0  0  0  0
   10.2335   -0.7256   26.0873 N   0  0  0  0  0  0  0  0  0  0  0  0
    9.2304   -1.3427   25.4516 C   0  0  0  0  0  0  0  0  0  0  0  0
    9.6186   -2.0850   24.1788 C   0  0  0  0  0  0  0  0  0  0  0  0
    9.3406   -3.1488   24.2739 H   0  0  0  0  0  0  0  0  0  0  0  0
   10.7038   -2.0020   24.0661 H   0  0  0  0  0  0  0  0  0  0  0  0
    8.9641   -1.5150   23.0197 O   0  0  0  0  0  0  0  0  0  0  0  0
    9.4246   -2.0844   21.5743 S   0  0  0  0  0  0  0  0  0  0  0  0
   10.8338   -1.8125   21.4348 O   0  0  0  0  0  0  0  0  0  0  0  0
    8.8045   -3.3613   21.3566 O   0  0  0  0  0  0  0  0  0  0  0  0
    8.7119   -0.9292   20.6748 N   0  0  0  0  0  0  0  0  0  0  0  0
    9.2068   -0.0934   20.9413 H   0  0  0  0  0  0  0  0  0  0  0  0
    7.3194   -0.8963   20.8368 C   0  0  0  0  0  0  0  0  0  0  0  0
    6.7261   -1.5347   21.6670 O   0  0  0  0  0  0  0  0  0  0  0  0
    6.6716   -0.0198   19.8478 C   0  0  0  0  0  0  0  0  0  0  0  0
    7.2153    0.0558   18.5595 C   0  0  0  0  0  0  0  0  0  0  0  0
    8.1481   -0.4567   18.3317 H   0  0  0  0  0  0  0  0  0  0  0  0
    6.6331    0.7030   17.5460 N   0  0  0  0  0  0  0  0  0  0  0  0
    5.4846    1.3435   17.7985 C   0  0  0  0  0  0  0  0  0  0  0  0
    5.0431    1.8827   16.9610 H   0  0  0  0  0  0  0  0  0  0  0  0
    4.8697    1.3478   19.0593 C   0  0  0  0  0  0  0  0  0  0  0  0
    3.9603    1.9159   19.2049 H   0  0  0  0  0  0  0  0  0  0  0  0
    5.4598    0.6443   20.1048 C   0  0  0  0  0  0  0  0  0  0  0  0
    5.0019    0.6050   21.0978 H   0  0  0  0  0  0  0  0  0  0  0  0
    7.9280   -1.3778   25.9687 C   0  0  0  0  0  0  0  0  0  0  0  0
    7.1303   -1.7876   25.3583 H   0  0  0  0  0  0  0  0  0  0  0  0
    7.7025   -0.8784   27.2555 C   0  0  0  0  0  0  0  0  0  0  0  0
    6.7128   -0.9380   27.7088 H   0  0  0  0  0  0  0  0  0  0  0  0
    8.7786   -0.3308   27.9575 C   0  0  0  0  0  0  0  0  0  0  0  0
    8.6681    0.0750   28.9575 H   0  0  0  0  0  0  0  0  0  0  0  0
  1  2  1  0
  2  3  2  0
  3  4  1  0
  4  5  1  0
  5  6  1  0
  5  7  1  0
  5  8  1  0
  8  9  1  0
  9 10  2  0
  9 11  2  0
  9 12  1  0
 12 13  1  0
 12 14  1  0
 14 15  2  0
 14 16  1  0
 16 17  2  0
 17 18  1  0
 17 19  1  0
 19 20  2  0
 20 21  1  0
 20 22  1  0
 22 23  1  0
 22 24  2  0
 24 25  1  0
  4 26  2  0
 26 27  1  0
 26 28  1  0
 28 29  1  0
 28 30  2  0
 30 31  1  0
 30  2  1  0
 24 16  1  0
M  END
>  <cnnaffinity>  (1) 
-4.93762

>  <filename>  (1) 
O=C(NS(=O)(=O)OCc1ccccn1)c1cccnc1

$$$$
