
     RDKit          3D

 39 41  0  0  0  0  0  0  0  0999 V2000
    5.2074    2.2543   16.5363 H   0  0  0  0  0  0  0  0  0  0  0  0
    5.6049    1.5968   17.3113 C   0  0  0  0  0  0  0  0  0  0  0  0
    6.7770    1.0011   17.0459 N   0  0  0  0  0  0  0  0  0  0  0  0
    7.3222    0.2424   18.0103 C   0  0  0  0  0  0  0  0  0  0  0  0
    8.2610   -0.2480   17.7491 H   0  0  0  0  0  0  0  0  0  0  0  0
    6.7462    0.0444   19.2881 C   0  0  0  0  0  0  0  0  0  0  0  0
    7.4228   -0.6818   20.3954 C   0  0  0  0  0  0  0  0  0  0  0  0
    8.6959   -0.5330   20.8745 C   0  0  0  0  0  0  0  0  0  0  0  0
    9.4961    0.0843   20.4836 H   0  0  0  0  0  0  0  0  0  0  0  0
    8.9070   -1.2953   21.9724 N   0  0  0  0  0  0  0  0  0  0  0  0
    9.5469   -1.2655   22.7896 H   0  0  0  0  0  0  0  0  0  0  0  0
    7.7104   -1.8961   22.2835 N   0  0  0  0  0  0  0  0  0  0  0  0
    7.8838   -2.9341   23.2121 N   0  0  0  0  0  0  0  0  0  0  0  0
    7.0390   -3.4341   23.4374 H   0  0  0  0  0  0  0  0  0  0  0  0
    8.7792   -2.8654   24.2685 C   0  0  0  0  0  0  0  0  0  0  0  0
    9.6431   -1.9973   24.3659 O   0  0  0  0  0  0  0  0  0  0  0  0
    8.6001   -3.9894   25.2742 C   0  0  0  0  0  0  0  0  0  0  0  0
    7.9009   -4.7120   24.8288 H   0  0  0  0  0  0  0  0  0  0  0  0
    8.0126   -3.4915   26.6277 C   0  0  0  0  0  0  0  0  0  0  0  0
    8.7029   -2.7442   27.0479 H   0  0  0  0  0  0  0  0  0  0  0  0
    7.0544   -2.9746   26.4821 H   0  0  0  0  0  0  0  0  0  0  0  0
    7.8636   -4.6584   27.6174 C   0  0  0  0  0  0  0  0  0  0  0  0
    7.0854   -5.3627   27.2768 H   0  0  0  0  0  0  0  0  0  0  0  0
    7.5278   -4.3195   28.5997 H   0  0  0  0  0  0  0  0  0  0  0  0
    9.1826   -5.4185   27.7943 C   0  0  0  0  0  0  0  0  0  0  0  0
    8.9918   -6.2283   28.5017 H   0  0  0  0  0  0  0  0  0  0  0  0
    9.9459   -4.7707   28.2583 H   0  0  0  0  0  0  0  0  0  0  0  0
    9.7305   -5.9220   26.4488 C   0  0  0  0  0  0  0  0  0  0  0  0
   10.6898   -6.4428   26.5662 H   0  0  0  0  0  0  0  0  0  0  0  0
    9.0149   -6.6376   26.0080 H   0  0  0  0  0  0  0  0  0  0  0  0
    9.9359   -4.7324   25.5103 C   0  0  0  0  0  0  0  0  0  0  0  0
   10.4017   -5.0450   24.5674 H   0  0  0  0  0  0  0  0  0  0  0  0
   10.6394   -4.0335   25.9816 H   0  0  0  0  0  0  0  0  0  0  0  0
    6.7383   -1.6559   21.2656 C   0  0  0  0  0  0  0  0  0  0  0  0
    5.6454   -2.1846   21.1857 O   0  0  0  0  0  0  0  0  0  0  0  0
    5.4623    0.5834   19.4890 C   0  0  0  0  0  0  0  0  0  0  0  0
    4.9368    0.3611   20.4189 H   0  0  0  0  0  0  0  0  0  0  0  0
    4.8957    1.3917   18.4992 C   0  0  0  0  0  0  0  0  0  0  0  0
    3.9380    1.8798   18.6458 H   0  0  0  0  0  0  0  0  0  0  0  0
  1  2  1  0
  2  3  2  0
  3  4  1  0
  4  5  1  0
  4  6  2  0
  6  7  1  0
  7  8  2  0
  8  9  1  0
  8 10  1  0
 10 11  1  0
 10 12  1  0
 12 13  1  0
 13 14  1  0
 13 15  1  0
 15 16  2  0
 15 17  1  0
 17 18  1  0
 17 19  1  0
 19 20  1  0
 19 21  1  0
 19 22  1  0
 22 23  1  0
 22 24  1  0
 22 25  1  0
 25 26  1  0
 25 27  1  0
 25 28  1  0
 28 29  1  0
 28 30  1  0
 28 31  1  0
 31 32  1  0
 31 33  1  0
 12 34  1  0
 34 35  2  0
  6 36  1  0
 36 37  1  0
 36 38  2  0
 38 39  1  0
 38  2  1  0
 34  7  1  0
 31 17  1  0
M  END
>  <cnnaffinity>  (1) 
-4.99199

>  <filename>  (1) 
O=C(Nn1[nH]cc(-c2cccnc2)c1=O)C1CCCCC1

$$$$
