
     RDKit          3D

 32 34  0  0  0  0  0  0  0  0999 V2000
    5.0083    1.8321   16.9753 H   0  0  0  0  0  0  0  0  0  0  0  0
    5.4659    1.3163   17.8153 C   0  0  0  0  0  0  0  0  0  0  0  0
    6.6324    0.7007   17.5606 N   0  0  0  0  0  0  0  0  0  0  0  0
    7.2093    0.0448   18.5783 C   0  0  0  0  0  0  0  0  0  0  0  0
    8.1458   -0.4751   18.3603 H   0  0  0  0  0  0  0  0  0  0  0  0
    6.6805   -0.0191   19.8799 C   0  0  0  0  0  0  0  0  0  0  0  0
    7.3351   -0.8013   20.9969 C   0  0  0  0  0  0  0  0  0  0  0  0
    6.7594   -2.2295   21.1722 C   0  0  0  0  0  0  0  0  0  0  0  0
    5.9676   -2.6853   20.3661 O   0  0  0  0  0  0  0  0  0  0  0  0
    7.1279   -2.9573   22.2767 N   0  0  0  0  0  0  0  0  0  0  0  0
    8.0210   -2.7501   22.7015 H   0  0  0  0  0  0  0  0  0  0  0  0
    6.6979   -4.3461   22.3925 C   0  0  0  0  0  0  0  0  0  0  0  0
    5.6234   -4.3710   22.5995 H   0  0  0  0  0  0  0  0  0  0  0  0
    6.8554   -4.9022   21.4547 H   0  0  0  0  0  0  0  0  0  0  0  0
    7.4255   -4.9737   23.4670 N   0  0  0  0  0  0  0  0  0  0  0  0
    7.3159   -4.6346   24.7867 C   0  0  0  0  0  0  0  0  0  0  0  0
    6.5318   -3.9828   25.1556 H   0  0  0  0  0  0  0  0  0  0  0  0
    8.2403   -5.1992   25.5178 N   0  0  0  0  0  0  0  0  0  0  0  0
    8.9929   -5.9507   24.6463 C   0  0  0  0  0  0  0  0  0  0  0  0
    9.8530   -6.5144   24.9775 H   0  0  0  0  0  0  0  0  0  0  0  0
    8.5015   -5.8385   23.3794 C   0  0  0  0  0  0  0  0  0  0  0  0
    8.8134   -6.2900   22.4507 H   0  0  0  0  0  0  0  0  0  0  0  0
    7.7277    0.0033   22.2308 C   0  0  0  0  0  0  0  0  0  0  0  0
    7.4674    1.0626   22.2483 H   0  0  0  0  0  0  0  0  0  0  0  0
    7.6665   -0.4789   23.2041 H   0  0  0  0  0  0  0  0  0  0  0  0
    8.7889   -0.4367   21.2754 C   0  0  0  0  0  0  0  0  0  0  0  0
    9.2246    0.3476   20.6521 H   0  0  0  0  0  0  0  0  0  0  0  0
    9.5017   -1.2039   21.5676 H   0  0  0  0  0  0  0  0  0  0  0  0
    5.4560    0.6193   20.1113 C   0  0  0  0  0  0  0  0  0  0  0  0
    5.0272    0.5749   21.1127 H   0  0  0  0  0  0  0  0  0  0  0  0
    4.8354    1.2986   19.0642 C   0  0  0  0  0  0  0  0  0  0  0  0
    3.8865    1.8033   19.2036 H   0  0  0  0  0  0  0  0  0  0  0  0
  1  2  1  0
  2  3  2  0
  3  4  1  0
  4  5  1  0
  4  6  2  0
  6  7  1  0
  7  8  1  0
  8  9  2  0
  8 10  1  0
 10 11  1  0
 10 12  1  0
 12 13  1  0
 12 14  1  0
 12 15  1  0
 15 16  1  0
 16 17  1  0
 16 18  2  0
 18 19  1  0
 19 20  1  0
 19 21  2  0
 21 22  1  0
  7 23  1  0
 23 24  1  0
 23 25  1  0
 23 26  1  0
 26 27  1  0
 26 28  1  0
  6 29  1  0
 29 30  1  0
 29 31  2  0
 31 32  1  0
 31  2  1  0
 26  7  1  0
 21 15  1  0
M  END
>  <cnnaffinity>  (1) 
-4.68928

>  <filename>  (1) 
O=C(NCn1ccnc1)C1(c2cccnc2)CC1

$$$$
