
     RDKit          3D

 40 41  0  0  0  0  0  0  0  0999 V2000
   10.5807   -2.6842   22.6132 H   0  0  0  0  0  0  0  0  0  0  0  0
   10.5491   -1.7763   22.1781 O   0  0  0  0  0  0  0  0  0  0  0  0
    9.1873   -1.5544   22.0977 N   0  0  0  0  0  0  0  0  0  0  0  0
    8.7290   -0.5599   21.1447 C   0  0  0  0  0  0  0  0  0  0  0  0
    9.4315    0.2482   20.5833 O   0  0  0  0  0  0  0  0  0  0  0  0
    7.3721   -0.6768   20.9150 N   0  0  0  0  0  0  0  0  0  0  0  0
    6.9078   -1.3930   21.4499 H   0  0  0  0  0  0  0  0  0  0  0  0
    6.6751   -0.0206   19.8620 C   0  0  0  0  0  0  0  0  0  0  0  0
    7.1725    0.0524   18.5372 C   0  0  0  0  0  0  0  0  0  0  0  0
    8.1238   -0.4237   18.3114 H   0  0  0  0  0  0  0  0  0  0  0  0
    6.5473    0.6784   17.5338 N   0  0  0  0  0  0  0  0  0  0  0  0
    5.3864    1.2937   17.8144 C   0  0  0  0  0  0  0  0  0  0  0  0
    4.9063    1.8119   16.9859 H   0  0  0  0  0  0  0  0  0  0  0  0
    4.8066    1.2871   19.0882 C   0  0  0  0  0  0  0  0  0  0  0  0
    3.8765    1.8217   19.2557 H   0  0  0  0  0  0  0  0  0  0  0  0
    5.4550    0.6096   20.1299 C   0  0  0  0  0  0  0  0  0  0  0  0
    5.0550    0.5951   21.1445 H   0  0  0  0  0  0  0  0  0  0  0  0
    8.5057   -1.9238   23.2792 N   0  0  0  0  0  0  0  0  0  0  0  0
    8.3264   -1.1471   23.9067 H   0  0  0  0  0  0  0  0  0  0  0  0
    9.0093   -2.9901   24.0598 C   0  0  0  0  0  0  0  0  0  0  0  0
    9.9252   -3.7204   23.7020 O   0  0  0  0  0  0  0  0  0  0  0  0
    8.3821   -3.0882   25.2417 N   0  0  0  0  0  0  0  0  0  0  0  0
    7.6238   -2.4552   25.4116 H   0  0  0  0  0  0  0  0  0  0  0  0
    8.6503   -4.1576   26.2142 C   0  0  0  0  0  0  0  0  0  0  0  0
    9.7370   -4.2090   26.3696 H   0  0  0  0  0  0  0  0  0  0  0  0
    7.9901   -3.8018   27.5560 C   0  0  0  0  0  0  0  0  0  0  0  0
    8.4802   -4.4180   28.3193 H   0  0  0  0  0  0  0  0  0  0  0  0
    8.2295   -2.7573   27.7936 H   0  0  0  0  0  0  0  0  0  0  0  0
    6.4672   -4.0573   27.6288 C   0  0  0  0  0  0  0  0  0  0  0  0
    5.9319   -3.3095   27.0247 H   0  0  0  0  0  0  0  0  0  0  0  0
    6.0961   -3.9456   28.6545 H   0  0  0  0  0  0  0  0  0  0  0  0
    6.1073   -5.4601   27.1315 C   0  0  0  0  0  0  0  0  0  0  0  0
    5.0196   -5.6067   27.1449 H   0  0  0  0  0  0  0  0  0  0  0  0
    6.5330   -6.2108   27.8186 H   0  0  0  0  0  0  0  0  0  0  0  0
    6.6648   -5.6951   25.7256 C   0  0  0  0  0  0  0  0  0  0  0  0
    6.2384   -4.9661   25.0205 H   0  0  0  0  0  0  0  0  0  0  0  0
    6.3369   -6.6744   25.3820 H   0  0  0  0  0  0  0  0  0  0  0  0
    8.1954   -5.5503   25.7188 C   0  0  0  0  0  0  0  0  0  0  0  0
    8.6238   -5.7259   24.7269 H   0  0  0  0  0  0  0  0  0  0  0  0
    8.6407   -6.2975   26.3942 H   0  0  0  0  0  0  0  0  0  0  0  0
  1  2  1  0
  2  3  1  0
  3  4  1  0
  4  5  2  0
  4  6  1  0
  6  7  1  0
  6  8  1  0
  8  9  2  0
  9 10  1  0
  9 11  1  0
 11 12  2  0
 12 13  1  0
 12 14  1  0
 14 15  1  0
 14 16  2  0
 16 17  1  0
  3 18  1  0
 18 19  1  0
 18 20  1  0
 20 21  2  0
 20 22  1  0
 22 23  1  0
 22 24  1  0
 24 25  1  0
 24 26  1  0
 26 27  1  0
 26 28  1  0
 26 29  1  0
 29 30  1  0
 29 31  1  0
 29 32  1  0
 32 33  1  0
 32 34  1  0
 32 35  1  0
 35 36  1  0
 35 37  1  0
 35 38  1  0
 38 39  1  0
 38 40  1  0
 16  8  1  0
 38 24  1  0
M  END
>  <cnnaffinity>  (1) 
-4.48821

>  <filename>  (1) 
O=C(NC1CCCCC1)NN(O)C(=O)Nc1cccnc1

$$$$
