
     RDKit          3D

 46 49  0  0  0  0  0  0  0  0999 V2000
    6.6107   -0.3721   23.5169 O   0  0  0  0  0  0  0  0  0  0  0  0
    7.0764    0.0762   22.4751 C   0  0  0  0  0  0  0  0  0  0  0  0
    7.7158    1.2967   22.4689 N   0  0  0  0  0  0  0  0  0  0  0  0
    8.6669    1.7540   21.4503 C   0  0  0  0  0  0  0  0  0  0  0  0
   10.0697    1.8913   22.0515 C   0  0  0  0  0  0  0  0  0  0  0  0
   10.0754    2.7754   23.2225 N   0  0  0  0  0  0  0  0  0  0  0  0
   11.1956    3.5120   23.5226 C   0  0  0  0  0  0  0  0  0  0  0  0
   12.4701    3.1808   22.9838 C   0  0  0  0  0  0  0  0  0  0  0  0
   13.5675    3.9530   23.3358 C   0  0  0  0  0  0  0  0  0  0  0  0
   13.3635    5.0112   24.2267 C   0  0  0  0  0  0  0  0  0  0  0  0
   12.0827    5.2635   24.6945 C   0  0  0  0  0  0  0  0  0  0  0  0
   11.0182    4.5415   24.3665 N   0  0  0  0  0  0  0  0  0  0  0  0
   11.9194    6.0927   25.3839 H   0  0  0  0  0  0  0  0  0  0  0  0
   14.1616    5.5952   24.6259 H   0  0  0  0  0  0  0  0  0  0  0  0
   14.5581    3.7367   22.9277 H   0  0  0  0  0  0  0  0  0  0  0  0
   12.5632    2.3202   22.3341 H   0  0  0  0  0  0  0  0  0  0  0  0
    8.7750    3.1859   23.7847 C   0  0  0  0  0  0  0  0  0  0  0  0
    7.6843    2.1047   23.7057 C   0  0  0  0  0  0  0  0  0  0  0  0
    6.7085    2.6020   23.7893 H   0  0  0  0  0  0  0  0  0  0  0  0
    7.7689    1.4254   24.5606 H   0  0  0  0  0  0  0  0  0  0  0  0
    8.4314    4.1050   23.2812 H   0  0  0  0  0  0  0  0  0  0  0  0
    8.9162    3.4338   24.8399 H   0  0  0  0  0  0  0  0  0  0  0  0
   10.7314    2.2861   21.2719 H   0  0  0  0  0  0  0  0  0  0  0  0
   10.4429    0.8949   22.3365 H   0  0  0  0  0  0  0  0  0  0  0  0
    8.3376    2.7244   21.0524 H   0  0  0  0  0  0  0  0  0  0  0  0
    8.7148    1.0669   20.6114 H   0  0  0  0  0  0  0  0  0  0  0  0
    7.0506   -0.7338   21.1415 C   0  0  0  0  0  0  0  0  0  0  0  0
    6.4972    0.0362   19.9365 C   0  0  0  0  0  0  0  0  0  0  0  0
    5.2925    0.7500   20.0506 C   0  0  0  0  0  0  0  0  0  0  0  0
    4.7808    1.3936   18.9190 C   0  0  0  0  0  0  0  0  0  0  0  0
    5.4840    1.3078   17.7129 C   0  0  0  0  0  0  0  0  0  0  0  0
    6.6228    0.6165   17.5681 N   0  0  0  0  0  0  0  0  0  0  0  0
    7.0999    0.0034   18.6577 C   0  0  0  0  0  0  0  0  0  0  0  0
    8.0402   -0.5218   18.5105 H   0  0  0  0  0  0  0  0  0  0  0  0
    5.1127    1.8008   16.8183 H   0  0  0  0  0  0  0  0  0  0  0  0
    3.8649    1.9730   18.9622 H   0  0  0  0  0  0  0  0  0  0  0  0
    4.7722    0.8129   21.0107 H   0  0  0  0  0  0  0  0  0  0  0  0
    6.3997   -2.1408   21.3572 C   0  0  0  0  0  0  0  0  0  0  0  0
    7.7965   -2.7206   21.6539 C   0  0  0  0  0  0  0  0  0  0  0  0
    8.4213   -1.4826   20.9887 C   0  0  0  0  0  0  0  0  0  0  0  0
    9.2939   -1.0348   21.4832 H   0  0  0  0  0  0  0  0  0  0  0  0
    8.6766   -1.6529   19.9452 H   0  0  0  0  0  0  0  0  0  0  0  0
    8.0079   -2.7485   22.7268 H   0  0  0  0  0  0  0  0  0  0  0  0
    8.0188   -3.6968   21.2148 H   0  0  0  0  0  0  0  0  0  0  0  0
    5.6476   -2.2077   22.1505 H   0  0  0  0  0  0  0  0  0  0  0  0
    5.9865   -2.5088   20.4129 H   0  0  0  0  0  0  0  0  0  0  0  0
  1  2  2  0
  2  3  1  0
  3  4  1  0
  4  5  1  0
  5  6  1  0
  6  7  1  0
  7  8  2  0
  8  9  1  0
  9 10  2  0
 10 11  1  0
 11 12  2  0
 11 13  1  0
 10 14  1  0
  9 15  1  0
  8 16  1  0
  6 17  1  0
 17 18  1  0
 18 19  1  0
 18 20  1  0
 17 21  1  0
 17 22  1  0
  5 23  1  0
  5 24  1  0
  4 25  1  0
  4 26  1  0
  2 27  1  0
 27 28  1  0
 28 29  2  0
 29 30  1  0
 30 31  2  0
 31 32  1  0
 32 33  2  0
 33 34  1  0
 31 35  1  0
 30 36  1  0
 29 37  1  0
 27 38  1  0
 38 39  1  0
 39 40  1  0
 40 41  1  0
 40 42  1  0
 39 43  1  0
 39 44  1  0
 38 45  1  0
 38 46  1  0
 18  3  1  0
 40 27  1  0
 12  7  1  0
 33 28  1  0
M  END
>  <cnnaffinity>  (1) 
-5.5386

>  <filename>  (1) 
O=C(N1CCN(c2ccccn2)CC1)C1(c2cccnc2)CCC1

$$$$
