
     RDKit          3D

 32 34  0  0  0  0  0  0  0  0999 V2000
    8.4718   -1.1456   20.7973 O   0  0  0  0  0  0  0  0  0  0  0  0
    7.3264   -0.7657   21.0105 C   0  0  0  0  0  0  0  0  0  0  0  0
    6.7097   -0.9933   22.2310 N   0  0  0  0  0  0  0  0  0  0  0  0
    7.3013   -1.7073   23.2807 C   0  0  0  0  0  0  0  0  0  0  0  0
    8.4405   -2.4252   23.1521 C   0  0  0  0  0  0  0  0  0  0  0  0
    8.6560   -3.0856   24.4151 C   0  0  0  0  0  0  0  0  0  0  0  0
    7.6996   -2.7839   25.2615 N   0  0  0  0  0  0  0  0  0  0  0  0
    6.8631   -1.9220   24.5930 N   0  0  0  0  0  0  0  0  0  0  0  0
    5.6838   -1.3779   25.1182 C   0  0  0  0  0  0  0  0  0  0  0  0
    5.3870   -0.0198   24.9296 C   0  0  0  0  0  0  0  0  0  0  0  0
    4.1596    0.5198   25.3210 C   0  0  0  0  0  0  0  0  0  0  0  0
    3.7741    2.3612   24.9858 Br  0  0  0  0  0  0  0  0  0  0  0  0
    3.2199   -0.3068   25.9414 C   0  0  0  0  0  0  0  0  0  0  0  0
    3.5119   -1.6555   26.1737 C   0  0  0  0  0  0  0  0  0  0  0  0
    4.7461   -2.1867   25.7778 C   0  0  0  0  0  0  0  0  0  0  0  0
    4.9636   -3.2384   25.9425 H   0  0  0  0  0  0  0  0  0  0  0  0
    2.7851   -2.2928   26.6693 H   0  0  0  0  0  0  0  0  0  0  0  0
    2.2608    0.1033   26.2446 H   0  0  0  0  0  0  0  0  0  0  0  0
    6.1245    0.6173   24.4574 H   0  0  0  0  0  0  0  0  0  0  0  0
    9.4941   -3.7399   24.6431 H   0  0  0  0  0  0  0  0  0  0  0  0
    9.0513   -2.5115   22.2629 H   0  0  0  0  0  0  0  0  0  0  0  0
    5.7423   -0.6958   22.3338 H   0  0  0  0  0  0  0  0  0  0  0  0
    6.6219   -0.0610   19.9631 C   0  0  0  0  0  0  0  0  0  0  0  0
    5.4011    0.5836   20.1751 C   0  0  0  0  0  0  0  0  0  0  0  0
    4.8425    1.2548   19.0966 C   0  0  0  0  0  0  0  0  0  0  0  0
    5.4902    1.2673   17.8610 C   0  0  0  0  0  0  0  0  0  0  0  0
    6.6601    0.6400   17.6639 N   0  0  0  0  0  0  0  0  0  0  0  0
    7.2117   -0.0064   18.6978 C   0  0  0  0  0  0  0  0  0  0  0  0
    8.1609   -0.5064   18.5331 H   0  0  0  0  0  0  0  0  0  0  0  0
    5.0324    1.7902   17.0280 H   0  0  0  0  0  0  0  0  0  0  0  0
    3.9056    1.7807   19.2024 H   0  0  0  0  0  0  0  0  0  0  0  0
    4.9039    0.5858   21.1460 H   0  0  0  0  0  0  0  0  0  0  0  0
  1  2  2  0
  2  3  1  0
  3  4  1  0
  4  5  2  0
  5  6  1  0
  6  7  2  0
  7  8  1  0
  8  9  1  0
  9 10  2  0
 10 11  1  0
 11 12  1  0
 11 13  2  0
 13 14  1  0
 14 15  2  0
 15 16  1  0
 14 17  1  0
 13 18  1  0
 10 19  1  0
  6 20  1  0
  5 21  1  0
  3 22  1  0
  2 23  1  0
 23 24  2  0
 24 25  1  0
 25 26  2  0
 26 27  1  0
 27 28  2  0
 28 29  1  0
 26 30  1  0
 25 31  1  0
 24 32  1  0
  8  4  1  0
 15  9  1  0
 28 23  1  0
M  END
>  <cnnaffinity>  (1) 
-5.35064

>  <filename>  (1) 
O=C(Nc1ccnn1-c1cccc(Br)c1)c1cccnc1

$$$$
