
     RDKit          3D

 22 23  0  0  0  0  0  0  0  0999 V2000
    4.8870    1.7957   17.0147 H   0  0  0  0  0  0  0  0  0  0  0  0
    5.4042    1.2929   17.8316 C   0  0  0  0  0  0  0  0  0  0  0  0
    6.5731    0.6726   17.5800 N   0  0  0  0  0  0  0  0  0  0  0  0
    7.1895    0.0484   18.6120 C   0  0  0  0  0  0  0  0  0  0  0  0
    8.1319   -0.4408   18.3993 H   0  0  0  0  0  0  0  0  0  0  0  0
    6.6916   -0.0203   19.9387 C   0  0  0  0  0  0  0  0  0  0  0  0
    7.3735   -0.7131   20.9800 N   0  0  0  0  0  0  0  0  0  0  0  0
    7.0640   -0.8903   22.3915 C   0  0  0  0  0  0  0  0  0  0  0  0
    7.0663    0.0373   22.9849 H   0  0  0  0  0  0  0  0  0  0  0  0
    6.1576   -1.4779   22.5746 H   0  0  0  0  0  0  0  0  0  0  0  0
    8.3715   -1.7005   22.4812 C   0  0  0  0  0  0  0  0  0  0  0  0
    9.1141   -1.2444   23.1341 H   0  0  0  0  0  0  0  0  0  0  0  0
    8.1848   -3.1735   22.8365 C   0  0  0  0  0  0  0  0  0  0  0  0
    7.3953   -3.8464   22.1847 O   0  0  0  0  0  0  0  0  0  0  0  0
    9.3685   -4.1166   24.5193 I   0  0  0  0  0  0  0  0  0  0  0  0
    8.6446   -1.4217   20.9942 C   0  0  0  0  0  0  0  0  0  0  0  0
    8.6573   -2.3206   20.3806 H   0  0  0  0  0  0  0  0  0  0  0  0
    9.5333   -0.8036   20.7947 H   0  0  0  0  0  0  0  0  0  0  0  0
    5.4705    0.6297   20.1776 C   0  0  0  0  0  0  0  0  0  0  0  0
    5.0253    0.6216   21.1707 H   0  0  0  0  0  0  0  0  0  0  0  0
    4.8316    1.2965   19.1137 C   0  0  0  0  0  0  0  0  0  0  0  0
    3.8917    1.8259   19.2626 H   0  0  0  0  0  0  0  0  0  0  0  0
  1  2  1  0
  2  3  2  0
  3  4  1  0
  4  5  1  0
  4  6  2  0
  6  7  1  0
  7  8  1  0
  8  9  1  0
  8 10  1  0
  8 11  1  0
 11 12  1  0
 11 13  1  0
 13 14  2  0
 13 15  1  0
 11 16  1  0
 16 17  1  0
 16 18  1  0
  6 19  1  0
 19 20  1  0
 19 21  2  0
 21 22  1  0
 21  2  1  0
 16  7  1  0
M  END
>  <cnnaffinity>  (1) 
-4.55884

>  <filename>  (1) 
O=C(I)C1CN(c2cccnc2)C1

$$$$
