
     RDKit          3D

 37 39  0  0  0  0  0  0  0  0999 V2000
    9.5646   -2.1862   24.9608 O   0  0  0  0  0  0  0  0  0  0  0  0
    8.5090   -1.7129   25.3517 C   0  0  0  0  0  0  0  0  0  0  0  0
    8.0550   -1.8182   26.7871 C   0  0  0  0  0  0  0  0  0  0  0  0
    8.0206   -3.2825   27.1897 C   0  0  0  0  0  0  0  0  0  0  0  0
    9.2449   -3.9452   27.2889 C   0  0  0  0  0  0  0  0  0  0  0  0
    9.3392   -5.1855   27.8938 C   0  0  0  0  0  0  0  0  0  0  0  0
    8.1787   -5.8557   28.2883 C   0  0  0  0  0  0  0  0  0  0  0  0
    6.9300   -5.2855   28.0297 C   0  0  0  0  0  0  0  0  0  0  0  0
    6.8456   -4.0130   27.4313 C   0  0  0  0  0  0  0  0  0  0  0  0
    5.5378   -3.3940   26.9995 C   0  0  0  0  0  0  0  0  0  0  0  0
    5.6265   -2.8933   25.7434 F   0  0  0  0  0  0  0  0  0  0  0  0
    5.1880   -2.3554   27.7945 F   0  0  0  0  0  0  0  0  0  0  0  0
    4.5070   -4.2538   27.0055 F   0  0  0  0  0  0  0  0  0  0  0  0
    6.0364   -5.8345   28.3223 H   0  0  0  0  0  0  0  0  0  0  0  0
    8.2595   -6.8323   28.7530 H   0  0  0  0  0  0  0  0  0  0  0  0
   10.3278   -5.5940   28.0696 H   0  0  0  0  0  0  0  0  0  0  0  0
   10.1234   -3.4660   26.8862 H   0  0  0  0  0  0  0  0  0  0  0  0
    8.8353   -1.3152   27.3691 H   0  0  0  0  0  0  0  0  0  0  0  0
    7.1150   -1.3030   26.9758 H   0  0  0  0  0  0  0  0  0  0  0  0
    7.6959   -1.0809   24.4715 N   0  0  0  0  0  0  0  0  0  0  0  0
    7.8676   -1.1549   23.1147 C   0  0  0  0  0  0  0  0  0  0  0  0
    7.0837   -0.4416   22.3803 N   0  0  0  0  0  0  0  0  0  0  0  0
    7.3852   -0.6559   21.0561 C   0  0  0  0  0  0  0  0  0  0  0  0
    6.6313    0.0335   20.0105 C   0  0  0  0  0  0  0  0  0  0  0  0
    5.4042    0.6857   20.2224 C   0  0  0  0  0  0  0  0  0  0  0  0
    4.8015    1.3058   19.1314 C   0  0  0  0  0  0  0  0  0  0  0  0
    5.4371    1.2668   17.8842 C   0  0  0  0  0  0  0  0  0  0  0  0
    6.6052    0.6447   17.6711 N   0  0  0  0  0  0  0  0  0  0  0  0
    7.1732    0.0519   18.7184 C   0  0  0  0  0  0  0  0  0  0  0  0
    8.1277   -0.4317   18.5199 H   0  0  0  0  0  0  0  0  0  0  0  0
    4.9943    1.7509   17.0185 H   0  0  0  0  0  0  0  0  0  0  0  0
    3.8598    1.8316   19.2332 H   0  0  0  0  0  0  0  0  0  0  0  0
    4.9524    0.7090   21.2162 H   0  0  0  0  0  0  0  0  0  0  0  0
    8.3993   -1.5326   20.8195 C   0  0  0  0  0  0  0  0  0  0  0  0
    9.0206   -2.1592   22.2966 S   0  0  0  0  0  0  0  0  0  0  0  0
    8.8249   -1.8182   19.8745 H   0  0  0  0  0  0  0  0  0  0  0  0
    6.9165   -0.4979   24.7238 H   0  0  0  0  0  0  0  0  0  0  0  0
  1  2  2  0
  2  3  1  0
  3  4  1  0
  4  5  2  0
  5  6  1  0
  6  7  2  0
  7  8  1  0
  8  9  2  0
  9 10  1  0
 10 11  1  0
 10 12  1  0
 10 13  1  0
  8 14  1  0
  7 15  1  0
  6 16  1  0
  5 17  1  0
  3 18  1  0
  3 19  1  0
  2 20  1  0
 20 21  1  0
 21 22  2  0
 22 23  1  0
 23 24  1  0
 24 25  2  0
 25 26  1  0
 26 27  2  0
 27 28  1  0
 28 29  2  0
 29 30  1  0
 27 31  1  0
 26 32  1  0
 25 33  1  0
 23 34  2  0
 34 35  1  0
 34 36  1  0
 20 37  1  0
  9  4  1  0
 35 21  1  0
 29 24  1  0
M  END
>  <cnnaffinity>  (1) 
-5.57817

>  <filename>  (1) 
O=C(Cc1ccccc1C(F)(F)F)Nc1nc(-c2cccnc2)cs1

$$$$
