
     RDKit          3D

 24 25  0  0  0  0  0  0  0  0999 V2000
   13.0878   -2.3565   22.3071 H   0  0  0  0  0  0  0  0  0  0  0  0
   12.7656   -1.4435   22.4155 O   0  0  0  0  0  0  0  0  0  0  0  0
   11.4458   -1.4568   21.9688 N   0  0  0  0  0  0  0  0  0  0  0  0
   11.2701   -0.6130   21.4460 H   0  0  0  0  0  0  0  0  0  0  0  0
   10.4017   -1.8062   22.8163 C   0  0  0  0  0  0  0  0  0  0  0  0
   10.5043   -2.4923   23.8139 O   0  0  0  0  0  0  0  0  0  0  0  0
    9.0752   -1.3567   22.2315 C   0  0  0  0  0  0  0  0  0  0  0  0
    8.7709   -0.6125   21.1287 C   0  0  0  0  0  0  0  0  0  0  0  0
    9.3561   -0.0095   20.4400 H   0  0  0  0  0  0  0  0  0  0  0  0
    7.4133   -0.7363   20.8568 N   0  0  0  0  0  0  0  0  0  0  0  0
    6.7037   -0.0214   19.8434 C   0  0  0  0  0  0  0  0  0  0  0  0
    7.2081    0.0645   18.5287 C   0  0  0  0  0  0  0  0  0  0  0  0
    8.1485   -0.4286   18.2755 H   0  0  0  0  0  0  0  0  0  0  0  0
    6.5794    0.7060   17.5379 N   0  0  0  0  0  0  0  0  0  0  0  0
    5.4162    1.3149   17.8181 C   0  0  0  0  0  0  0  0  0  0  0  0
    4.9217    1.8187   16.9892 H   0  0  0  0  0  0  0  0  0  0  0  0
    4.8435    1.3032   19.0923 C   0  0  0  0  0  0  0  0  0  0  0  0
    3.9063    1.8160   19.2571 H   0  0  0  0  0  0  0  0  0  0  0  0
    5.4895    0.6197   20.1261 C   0  0  0  0  0  0  0  0  0  0  0  0
    5.0768    0.5746   21.1319 H   0  0  0  0  0  0  0  0  0  0  0  0
    6.8377   -1.6511   21.7618 C   0  0  0  0  0  0  0  0  0  0  0  0
    5.7407   -2.1654   21.7593 O   0  0  0  0  0  0  0  0  0  0  0  0
    7.8525   -1.9151   22.6432 N   0  0  0  0  0  0  0  0  0  0  0  0
    7.6595   -2.5661   23.3897 H   0  0  0  0  0  0  0  0  0  0  0  0
  1  2  1  0
  2  3  1  0
  3  4  1  0
  3  5  1  0
  5  6  2  0
  5  7  1  0
  7  8  2  0
  8  9  1  0
  8 10  1  0
 10 11  1  0
 11 12  2  0
 12 13  1  0
 12 14  1  0
 14 15  2  0
 15 16  1  0
 15 17  1  0
 17 18  1  0
 17 19  2  0
 19 20  1  0
 10 21  1  0
 21 22  2  0
 21 23  1  0
 23 24  1  0
 23  7  1  0
 19 11  1  0
M  END
>  <cnnaffinity>  (1) 
-4.60325

>  <filename>  (1) 
O=C(NO)c1cn(-c2cccnc2)c(=O)[nH]1

$$$$
