
     RDKit          3D

 30 32  0  0  0  0  0  0  0  0999 V2000
    4.9461    1.8070   17.0033 H   0  0  0  0  0  0  0  0  0  0  0  0
    5.4040    1.2825   17.8392 C   0  0  0  0  0  0  0  0  0  0  0  0
    6.5589    0.6449   17.5781 N   0  0  0  0  0  0  0  0  0  0  0  0
    7.1762    0.0212   18.5916 C   0  0  0  0  0  0  0  0  0  0  0  0
    8.1305   -0.4605   18.3739 H   0  0  0  0  0  0  0  0  0  0  0  0
    6.6531   -0.0255   19.9006 C   0  0  0  0  0  0  0  0  0  0  0  0
    7.3129   -0.7232   20.9627 N   0  0  0  0  0  0  0  0  0  0  0  0
    6.6950   -1.6850   21.7827 C   0  0  0  0  0  0  0  0  0  0  0  0
    5.6471   -1.9180   21.7179 H   0  0  0  0  0  0  0  0  0  0  0  0
    7.6437   -2.1206   22.6383 C   0  0  0  0  0  0  0  0  0  0  0  0
    7.6130   -3.0574   23.6522 N   0  0  0  0  0  0  0  0  0  0  0  0
    6.8243   -3.6814   23.6745 H   0  0  0  0  0  0  0  0  0  0  0  0
    8.5322   -3.1654   24.6661 C   0  0  0  0  0  0  0  0  0  0  0  0
    9.4509   -2.3756   24.8368 O   0  0  0  0  0  0  0  0  0  0  0  0
    8.3612   -4.3198   25.5822 C   0  0  0  0  0  0  0  0  0  0  0  0
    7.3983   -5.2700   25.3335 O   0  0  0  0  0  0  0  0  0  0  0  0
    7.4759   -6.1707   26.3373 C   0  0  0  0  0  0  0  0  0  0  0  0
    6.8042   -7.0122   26.2706 H   0  0  0  0  0  0  0  0  0  0  0  0
    8.4406   -5.8221   27.2230 C   0  0  0  0  0  0  0  0  0  0  0  0
    8.6858   -6.3655   28.1236 H   0  0  0  0  0  0  0  0  0  0  0  0
    9.0337   -4.6251   26.7261 C   0  0  0  0  0  0  0  0  0  0  0  0
    9.8683   -4.0602   27.1274 H   0  0  0  0  0  0  0  0  0  0  0  0
    8.7975   -1.4506   22.3655 N   0  0  0  0  0  0  0  0  0  0  0  0
    9.6197   -1.4622   22.9450 H   0  0  0  0  0  0  0  0  0  0  0  0
    8.6216   -0.5418   21.3735 C   0  0  0  0  0  0  0  0  0  0  0  0
    9.7831    0.5320   20.8887 S   0  0  0  0  0  0  0  0  0  0  0  0
    5.4443    0.6361   20.1539 C   0  0  0  0  0  0  0  0  0  0  0  0
    5.0410    0.6399   21.1660 H   0  0  0  0  0  0  0  0  0  0  0  0
    4.8045    1.3055   19.1040 C   0  0  0  0  0  0  0  0  0  0  0  0
    3.8747    1.8513   19.2616 H   0  0  0  0  0  0  0  0  0  0  0  0
  1  2  1  0
  2  3  2  0
  3  4  1  0
  4  5  1  0
  4  6  2  0
  6  7  1  0
  7  8  1  0
  8  9  1  0
  8 10  2  0
 10 11  1  0
 11 12  1  0
 11 13  1  0
 13 14  2  0
 13 15  1  0
 15 16  1  0
 16 17  1  0
 17 18  1  0
 17 19  2  0
 19 20  1  0
 19 21  1  0
 21 22  1  0
 10 23  1  0
 23 24  1  0
 23 25  1  0
 25 26  2  0
  6 27  1  0
 27 28  1  0
 27 29  2  0
 29 30  1  0
 29  2  1  0
 25  7  1  0
 21 15  2  0
M  END
>  <cnnaffinity>  (1) 
-5.03309

>  <filename>  (1) 
O=C(Nc1cn(-c2cccnc2)c(=S)[nH]1)c1ccco1

$$$$
