
     RDKit          3D

 32 34  0  0  0  0  0  0  0  0999 V2000
    4.9300    1.8234   16.9570 H   0  0  0  0  0  0  0  0  0  0  0  0
    5.3834    1.3127   17.8073 C   0  0  0  0  0  0  0  0  0  0  0  0
    6.5388    0.6755   17.5616 N   0  0  0  0  0  0  0  0  0  0  0  0
    7.1331    0.0612   18.5966 C   0  0  0  0  0  0  0  0  0  0  0  0
    8.0772   -0.4316   18.3685 H   0  0  0  0  0  0  0  0  0  0  0  0
    6.6178    0.0189   19.9082 C   0  0  0  0  0  0  0  0  0  0  0  0
    7.3424   -0.6933   20.9877 C   0  0  0  0  0  0  0  0  0  0  0  0
    8.6774   -0.6686   21.3432 C   0  0  0  0  0  0  0  0  0  0  0  0
    9.8016    0.1575   20.7679 C   0  0  0  0  0  0  0  0  0  0  0  0
   10.5400   -0.5130   20.3215 H   0  0  0  0  0  0  0  0  0  0  0  0
    9.4276    0.8345   19.9973 H   0  0  0  0  0  0  0  0  0  0  0  0
   10.5658    1.0089   21.7816 C   0  0  0  0  0  0  0  0  0  0  0  0
   11.7104    0.7180   22.0759 O   0  0  0  0  0  0  0  0  0  0  0  0
    9.8407    2.1967   22.4266 C   0  0  0  0  0  0  0  0  0  0  0  0
   10.4661    2.8947   23.4807 C   0  0  0  0  0  0  0  0  0  0  0  0
   11.4477    2.5927   23.8385 H   0  0  0  0  0  0  0  0  0  0  0  0
    9.8107    3.9771   24.0801 C   0  0  0  0  0  0  0  0  0  0  0  0
   10.2791    4.5219   24.8985 H   0  0  0  0  0  0  0  0  0  0  0  0
    8.5992    4.4142   23.7150 N   0  0  0  0  0  0  0  0  0  0  0  0
    8.0011    3.7648   22.7079 C   0  0  0  0  0  0  0  0  0  0  0  0
    7.0203    4.1473   22.4266 H   0  0  0  0  0  0  0  0  0  0  0  0
    8.5580    2.6628   22.0397 C   0  0  0  0  0  0  0  0  0  0  0  0
    7.9555    2.1983   21.2565 H   0  0  0  0  0  0  0  0  0  0  0  0
    8.7778   -1.5827   22.4250 C   0  0  0  0  0  0  0  0  0  0  0  0
    9.6668   -1.8387   22.9895 H   0  0  0  0  0  0  0  0  0  0  0  0
    7.6094   -2.1276   22.7271 N   0  0  0  0  0  0  0  0  0  0  0  0
    6.7585   -1.5619   21.8536 N   0  0  0  0  0  0  0  0  0  0  0  0
    5.7814   -1.8177   21.8901 H   0  0  0  0  0  0  0  0  0  0  0  0
    5.3970    0.6761   20.1305 C   0  0  0  0  0  0  0  0  0  0  0  0
    4.9598    0.6798   21.1273 H   0  0  0  0  0  0  0  0  0  0  0  0
    4.7737    1.3354   19.0681 C   0  0  0  0  0  0  0  0  0  0  0  0
    3.8414    1.8758   19.2025 H   0  0  0  0  0  0  0  0  0  0  0  0
  1  2  1  0
  2  3  2  0
  3  4  1  0
  4  5  1  0
  4  6  2  0
  6  7  1  0
  7  8  2  0
  8  9  1  0
  9 10  1  0
  9 11  1  0
  9 12  1  0
 12 13  2  0
 12 14  1  0
 14 15  2  0
 15 16  1  0
 15 17  1  0
 17 18  1  0
 17 19  2  0
 19 20  1  0
 20 21  1  0
 20 22  2  0
 22 23  1  0
  8 24  1  0
 24 25  1  0
 24 26  2  0
 26 27  1  0
 27 28  1  0
  6 29  1  0
 29 30  1  0
 29 31  2  0
 31 32  1  0
 31  2  1  0
 27  7  1  0
 22 14  1  0
M  END
>  <cnnaffinity>  (1) 
-5.17843

>  <filename>  (1) 
O=C(Cc1cn[nH]c1-c1cccnc1)c1ccncc1

$$$$
