
     RDKit          3D

 27 28  0  0  0  0  0  0  0  0999 V2000
    9.0948   -3.5076   23.5651 H   0  0  0  0  0  0  0  0  0  0  0  0
    8.7543   -4.1798   24.1754 O   0  0  0  0  0  0  0  0  0  0  0  0
    7.5782   -3.7541   24.7011 C   0  0  0  0  0  0  0  0  0  0  0  0
    7.0251   -4.5504   25.7129 C   0  0  0  0  0  0  0  0  0  0  0  0
    7.5767   -5.4390   25.9930 H   0  0  0  0  0  0  0  0  0  0  0  0
    5.8318   -4.1762   26.3321 C   0  0  0  0  0  0  0  0  0  0  0  0
    5.1331   -5.2202   27.5357 Cl  0  0  0  0  0  0  0  0  0  0  0  0
    5.1983   -2.9781   26.0024 C   0  0  0  0  0  0  0  0  0  0  0  0
    4.2863   -2.6780   26.5114 H   0  0  0  0  0  0  0  0  0  0  0  0
    5.7443   -2.1856   24.9847 C   0  0  0  0  0  0  0  0  0  0  0  0
    5.2631   -1.2604   24.7015 H   0  0  0  0  0  0  0  0  0  0  0  0
    6.8879   -2.5896   24.3008 C   0  0  0  0  0  0  0  0  0  0  0  0
    7.3652   -1.7905   23.2524 O   0  0  0  0  0  0  0  0  0  0  0  0
    6.7534   -1.8330   22.0325 C   0  0  0  0  0  0  0  0  0  0  0  0
    5.8567   -2.5727   21.7300 O   0  0  0  0  0  0  0  0  0  0  0  0
    7.4623   -0.8747   21.0508 C   0  0  0  0  0  0  0  0  0  0  0  0
    9.0867   -0.7649   21.1090 S   0  0  0  0  0  0  0  0  0  0  0  0
    6.6838   -0.1565   20.0005 C   0  0  0  0  0  0  0  0  0  0  0  0
    7.2448   -0.0396   18.7049 C   0  0  0  0  0  0  0  0  0  0  0  0
    8.2127   -0.4993   18.5007 H   0  0  0  0  0  0  0  0  0  0  0  0
    6.6729    0.6172   17.7000 N   0  0  0  0  0  0  0  0  0  0  0  0
    5.5055    1.2328   17.9513 C   0  0  0  0  0  0  0  0  0  0  0  0
    5.0753    1.7754   17.1115 H   0  0  0  0  0  0  0  0  0  0  0  0
    4.8609    1.1922   19.1900 C   0  0  0  0  0  0  0  0  0  0  0  0
    3.9337    1.7427   19.3165 H   0  0  0  0  0  0  0  0  0  0  0  0
    5.4500    0.4745   20.2399 C   0  0  0  0  0  0  0  0  0  0  0  0
    4.9762    0.4416   21.2234 H   0  0  0  0  0  0  0  0  0  0  0  0
  1  2  1  0
  2  3  1  0
  3  4  2  0
  4  5  1  0
  4  6  1  0
  6  7  1  0
  6  8  2  0
  8  9  1  0
  8 10  1  0
 10 11  1  0
 10 12  2  0
 12 13  1  0
 13 14  1  0
 14 15  2  0
 14 16  1  0
 16 17  2  0
 16 18  1  0
 18 19  2  0
 19 20  1  0
 19 21  1  0
 21 22  2  0
 22 23  1  0
 22 24  1  0
 24 25  1  0
 24 26  2  0
 26 27  1  0
 12  3  1  0
 26 18  1  0
M  END
>  <cnnaffinity>  (1) 
-4.64486

>  <filename>  (1) 
O=C(Oc1ccc(Cl)cc1O)C(=S)c1cccnc1

$$$$
