
     RDKit          3D

 28 29  0  0  0  0  0  0  0  0999 V2000
    4.9760    1.7944   16.9688 H   0  0  0  0  0  0  0  0  0  0  0  0
    5.4437    1.3169   17.8263 C   0  0  0  0  0  0  0  0  0  0  0  0
    6.6202    0.7153   17.5983 N   0  0  0  0  0  0  0  0  0  0  0  0
    7.2084    0.1036   18.6313 C   0  0  0  0  0  0  0  0  0  0  0  0
    8.1640   -0.3716   18.4266 H   0  0  0  0  0  0  0  0  0  0  0  0
    6.6525    0.0443   19.9218 C   0  0  0  0  0  0  0  0  0  0  0  0
    7.3027   -0.8364   20.9771 C   0  0  0  0  0  0  0  0  0  0  0  0
    7.3283   -0.1841   22.1901 F   0  0  0  0  0  0  0  0  0  0  0  0
    8.6057   -1.0860   20.6453 F   0  0  0  0  0  0  0  0  0  0  0  0
    6.6051   -2.2564   21.1669 C   0  0  0  0  0  0  0  0  0  0  0  0
    6.2145   -2.8608   20.1877 O   0  0  0  0  0  0  0  0  0  0  0  0
    6.5096   -2.7557   22.4484 N   0  0  0  0  0  0  0  0  0  0  0  0
    6.9312   -2.2352   23.2038 H   0  0  0  0  0  0  0  0  0  0  0  0
    5.7208   -3.8752   22.7969 C   0  0  0  0  0  0  0  0  0  0  0  0
    4.5147   -4.0910   22.1252 C   0  0  0  0  0  0  0  0  0  0  0  0
    4.2583   -3.3974   21.3471 H   0  0  0  0  0  0  0  0  0  0  0  0
    3.6994   -5.1708   22.4351 C   0  0  0  0  0  0  0  0  0  0  0  0
    2.7487   -5.2653   21.9249 H   0  0  0  0  0  0  0  0  0  0  0  0
    4.1138   -6.1019   23.3847 C   0  0  0  0  0  0  0  0  0  0  0  0
    3.5124   -6.9827   23.5696 H   0  0  0  0  0  0  0  0  0  0  0  0
    5.3052   -5.8960   24.0828 C   0  0  0  0  0  0  0  0  0  0  0  0
    5.6263   -6.5992   24.8402 H   0  0  0  0  0  0  0  0  0  0  0  0
    6.0874   -4.7668   23.8178 C   0  0  0  0  0  0  0  0  0  0  0  0
    7.5192   -4.4890   24.7634 Cl  0  0  0  0  0  0  0  0  0  0  0  0
    5.4416    0.7164   20.1595 C   0  0  0  0  0  0  0  0  0  0  0  0
    5.0040    0.7704   21.1590 H   0  0  0  0  0  0  0  0  0  0  0  0
    4.8196    1.3417   19.0780 C   0  0  0  0  0  0  0  0  0  0  0  0
    3.8621    1.8373   19.1826 H   0  0  0  0  0  0  0  0  0  0  0  0
  1  2  1  0
  2  3  2  0
  3  4  1  0
  4  5  1  0
  4  6  2  0
  6  7  1  0
  7  8  1  0
  7  9  1  0
  7 10  1  0
 10 11  2  0
 10 12  1  0
 12 13  1  0
 12 14  1  0
 14 15  2  0
 15 16  1  0
 15 17  1  0
 17 18  1  0
 17 19  2  0
 19 20  1  0
 19 21  1  0
 21 22  1  0
 21 23  2  0
 23 24  1  0
  6 25  1  0
 25 26  1  0
 25 27  2  0
 27 28  1  0
 27  2  1  0
 23 14  1  0
M  END
>  <cnnaffinity>  (1) 
-4.94383

>  <filename>  (1) 
O=C(Nc1ccccc1Cl)C(F)(F)c1cccnc1

$$$$
