
     RDKit          3D

 28 30  0  0  0  0  0  0  0  0999 V2000
    6.7272    0.7772   22.5584 O   0  0  0  0  0  0  0  0  0  0  0  0
    7.3043   -0.2539   22.2338 C   0  0  0  0  0  0  0  0  0  0  0  0
    7.3975   -0.5990   20.8843 N   0  0  0  0  0  0  0  0  0  0  0  0
    6.7173    0.0442   19.8210 C   0  0  0  0  0  0  0  0  0  0  0  0
    5.5378    0.7419   20.0860 C   0  0  0  0  0  0  0  0  0  0  0  0
    4.8835    1.3794   19.0258 C   0  0  0  0  0  0  0  0  0  0  0  0
    5.4177    1.3103   17.7334 C   0  0  0  0  0  0  0  0  0  0  0  0
    6.5374    0.6196   17.4502 N   0  0  0  0  0  0  0  0  0  0  0  0
    7.1635   -0.0029   18.4746 C   0  0  0  0  0  0  0  0  0  0  0  0
    8.0691   -0.5598   18.2557 H   0  0  0  0  0  0  0  0  0  0  0  0
    4.9146    1.8369   16.9292 H   0  0  0  0  0  0  0  0  0  0  0  0
    3.9703    1.9418   19.1870 H   0  0  0  0  0  0  0  0  0  0  0  0
    5.1428    0.7777   21.0999 H   0  0  0  0  0  0  0  0  0  0  0  0
    7.9549   -1.4200   20.6680 H   0  0  0  0  0  0  0  0  0  0  0  0
    7.8473   -1.1655   23.2689 C   0  0  0  0  0  0  0  0  0  0  0  0
    8.1850   -2.4784   23.0209 C   0  0  0  0  0  0  0  0  0  0  0  0
    8.4497   -3.0847   24.2888 C   0  0  0  0  0  0  0  0  0  0  0  0
    8.3579   -2.0683   25.2348 C   0  0  0  0  0  0  0  0  0  0  0  0
    8.5898   -2.3587   26.5888 C   0  0  0  0  0  0  0  0  0  0  0  0
    8.8590   -3.6925   26.9623 C   0  0  0  0  0  0  0  0  0  0  0  0
    8.8712   -4.7138   25.9977 C   0  0  0  0  0  0  0  0  0  0  0  0
    8.6663   -4.4170   24.6534 C   0  0  0  0  0  0  0  0  0  0  0  0
    8.5574   -5.8379   23.3762 Br  0  0  0  0  0  0  0  0  0  0  0  0
    9.0429   -5.7519   26.2647 H   0  0  0  0  0  0  0  0  0  0  0  0
    9.0315   -3.9710   27.9938 H   0  0  0  0  0  0  0  0  0  0  0  0
    8.5325   -1.5688   27.3382 H   0  0  0  0  0  0  0  0  0  0  0  0
    7.9975   -0.8887   24.6215 O   0  0  0  0  0  0  0  0  0  0  0  0
    8.1763   -3.0013   22.0696 H   0  0  0  0  0  0  0  0  0  0  0  0
  1  2  2  0
  2  3  1  0
  3  4  1  0
  4  5  2  0
  5  6  1  0
  6  7  2  0
  7  8  1  0
  8  9  2  0
  9 10  1  0
  7 11  1  0
  6 12  1  0
  5 13  1  0
  3 14  1  0
  2 15  1  0
 15 16  2  0
 16 17  1  0
 17 18  2  0
 18 19  1  0
 19 20  2  0
 20 21  1  0
 21 22  2  0
 22 23  1  0
 21 24  1  0
 20 25  1  0
 19 26  1  0
 18 27  1  0
 16 28  1  0
  9  4  1  0
 27 15  1  0
 22 17  1  0
M  END
>  <cnnaffinity>  (1) 
-4.88211

>  <filename>  (1) 
O=C(Nc1cccnc1)c1cc2c(Br)cccc2o1

$$$$
