
     RDKit          3D

 31 33  0  0  0  0  0  0  0  0999 V2000
    8.2140   -1.6324   20.5951 O   0  0  0  0  0  0  0  0  0  0  0  0
    7.4558   -0.7674   20.9745 C   0  0  0  0  0  0  0  0  0  0  0  0
    7.2702   -0.4312   22.2863 N   0  0  0  0  0  0  0  0  0  0  0  0
    7.7255   -1.1475   23.3776 C   0  0  0  0  0  0  0  0  0  0  0  0
    8.2491   -2.3461   23.2622 N   0  0  0  0  0  0  0  0  0  0  0  0
    8.5299   -2.7397   24.5396 N   0  0  0  0  0  0  0  0  0  0  0  0
    9.0808   -4.0218   24.8641 C   0  0  0  0  0  0  0  0  0  0  0  0
    9.6440   -4.0939   26.0812 N   0  0  0  0  0  0  0  0  0  0  0  0
   10.1534   -5.2533   26.5006 C   0  0  0  0  0  0  0  0  0  0  0  0
   10.1113   -6.4119   25.7377 C   0  0  0  0  0  0  0  0  0  0  0  0
    9.5556   -6.3550   24.4625 C   0  0  0  0  0  0  0  0  0  0  0  0
    9.0293   -5.1501   23.9989 C   0  0  0  0  0  0  0  0  0  0  0  0
    8.3886   -5.1456   22.3853 Cl  0  0  0  0  0  0  0  0  0  0  0  0
    9.5708   -7.2052   23.7862 H   0  0  0  0  0  0  0  0  0  0  0  0
   10.5519   -7.3177   26.1308 H   0  0  0  0  0  0  0  0  0  0  0  0
   10.6222   -5.2447   27.4801 H   0  0  0  0  0  0  0  0  0  0  0  0
    8.1762   -1.7661   25.4420 C   0  0  0  0  0  0  0  0  0  0  0  0
    7.6518   -0.7289   24.7257 C   0  0  0  0  0  0  0  0  0  0  0  0
    7.2677    0.2129   25.0863 H   0  0  0  0  0  0  0  0  0  0  0  0
    8.3461   -1.9340   26.5045 H   0  0  0  0  0  0  0  0  0  0  0  0
    6.8576    0.4572   22.4638 H   0  0  0  0  0  0  0  0  0  0  0  0
    6.6600    0.0425   19.9933 C   0  0  0  0  0  0  0  0  0  0  0  0
    5.4309    0.6882   20.2173 C   0  0  0  0  0  0  0  0  0  0  0  0
    4.8075    1.3177   19.1371 C   0  0  0  0  0  0  0  0  0  0  0  0
    5.4224    1.2780   17.8813 C   0  0  0  0  0  0  0  0  0  0  0  0
    6.5846    0.6533   17.6528 N   0  0  0  0  0  0  0  0  0  0  0  0
    7.1766    0.0552   18.6882 C   0  0  0  0  0  0  0  0  0  0  0  0
    8.1092   -0.4587   18.4650 H   0  0  0  0  0  0  0  0  0  0  0  0
    4.9740    1.7619   17.0150 H   0  0  0  0  0  0  0  0  0  0  0  0
    3.8614    1.8401   19.2399 H   0  0  0  0  0  0  0  0  0  0  0  0
    4.9202    0.6760   21.1832 H   0  0  0  0  0  0  0  0  0  0  0  0
  1  2  2  0
  2  3  1  0
  3  4  1  0
  4  5  2  0
  5  6  1  0
  6  7  1  0
  7  8  2  0
  8  9  1  0
  9 10  2  0
 10 11  1  0
 11 12  2  0
 12 13  1  0
 11 14  1  0
 10 15  1  0
  9 16  1  0
  6 17  1  0
 17 18  2  0
 18 19  1  0
 17 20  1  0
  3 21  1  0
  2 22  1  0
 22 23  2  0
 23 24  1  0
 24 25  2  0
 25 26  1  0
 26 27  2  0
 27 28  1  0
 25 29  1  0
 24 30  1  0
 23 31  1  0
 18  4  1  0
 27 22  1  0
 12  7  1  0
M  END
>  <cnnaffinity>  (1) 
-5.51401

>  <filename>  (1) 
O=C(Nc1ccn(-c2ncccc2Cl)n1)c1cccnc1

$$$$
