
     RDKit          3D

 30 32  0  0  0  0  0  0  0  0999 V2000
    5.0173    1.7804   16.9570 H   0  0  0  0  0  0  0  0  0  0  0  0
    5.4532    1.2765   17.8139 C   0  0  0  0  0  0  0  0  0  0  0  0
    6.6149    0.6381   17.5925 N   0  0  0  0  0  0  0  0  0  0  0  0
    7.1678   -0.0039   18.6258 C   0  0  0  0  0  0  0  0  0  0  0  0
    8.0941   -0.5472   18.4184 H   0  0  0  0  0  0  0  0  0  0  0  0
    6.6244   -0.0436   19.9293 C   0  0  0  0  0  0  0  0  0  0  0  0
    7.2976   -0.7811   20.9337 N   0  0  0  0  0  0  0  0  0  0  0  0
    8.2725   -0.9527   20.6827 H   0  0  0  0  0  0  0  0  0  0  0  0
    7.1630   -0.3531   22.2655 N   0  0  0  0  0  0  0  0  0  0  0  0
    6.5219   -0.9066   22.8154 H   0  0  0  0  0  0  0  0  0  0  0  0
    7.3564    0.9317   22.7487 C   0  0  0  0  0  0  0  0  0  0  0  0
    7.8550    1.8352   22.1070 O   0  0  0  0  0  0  0  0  0  0  0  0
    6.9051    1.0920   24.1736 C   0  0  0  0  0  0  0  0  0  0  0  0
    7.1310    2.6751   24.8726 S   0  0  0  0  0  0  0  0  0  0  0  0
    6.4446    2.1605   26.3773 C   0  0  0  0  0  0  0  0  0  0  0  0
    6.2457    2.9320   27.5344 C   0  0  0  0  0  0  0  0  0  0  0  0
    6.5083    3.9844   27.5353 H   0  0  0  0  0  0  0  0  0  0  0  0
    5.6951    2.3355   28.6611 C   0  0  0  0  0  0  0  0  0  0  0  0
    5.5223    2.9208   29.5622 H   0  0  0  0  0  0  0  0  0  0  0  0
    5.3374    0.9679   28.6376 C   0  0  0  0  0  0  0  0  0  0  0  0
    4.9098    0.5158   29.5262 H   0  0  0  0  0  0  0  0  0  0  0  0
    5.5190    0.2053   27.4923 C   0  0  0  0  0  0  0  0  0  0  0  0
    5.2428   -0.8452   27.4788 H   0  0  0  0  0  0  0  0  0  0  0  0
    6.0748    0.7964   26.3368 C   0  0  0  0  0  0  0  0  0  0  0  0
    6.3472    0.2063   25.0574 C   0  0  0  0  0  0  0  0  0  0  0  0
    6.1210   -0.8433   24.8701 H   0  0  0  0  0  0  0  0  0  0  0  0
    5.3908    0.6019   20.1285 C   0  0  0  0  0  0  0  0  0  0  0  0
    4.8937    0.5615   21.0984 H   0  0  0  0  0  0  0  0  0  0  0  0
    4.8059    1.2760   19.0527 C   0  0  0  0  0  0  0  0  0  0  0  0
    3.8590    1.7918   19.1674 H   0  0  0  0  0  0  0  0  0  0  0  0
  1  2  1  0
  2  3  2  0
  3  4  1  0
  4  5  1  0
  4  6  2  0
  6  7  1  0
  7  8  1  0
  7  9  1  0
  9 10  1  0
  9 11  1  0
 11 12  2  0
 11 13  1  0
 13 14  1  0
 14 15  1  0
 15 16  2  0
 16 17  1  0
 16 18  1  0
 18 19  1  0
 18 20  2  0
 20 21  1  0
 20 22  1  0
 22 23  1  0
 22 24  2  0
 24 25  1  0
 25 26  1  0
  6 27  1  0
 27 28  1  0
 27 29  2  0
 29 30  1  0
 29  2  1  0
 25 13  2  0
 24 15  1  0
M  END
>  <cnnaffinity>  (1) 
-4.81867

>  <filename>  (1) 
O=C(NNc1cccnc1)c1cc2ccccc2s1

$$$$
