
     RDKit          3D

 38 40  0  0  0  0  0  0  0  0999 V2000
    4.9413    1.7891   16.9932 H   0  0  0  0  0  0  0  0  0  0  0  0
    5.4022    1.2812   17.8398 C   0  0  0  0  0  0  0  0  0  0  0  0
    6.5649    0.6545   17.5995 N   0  0  0  0  0  0  0  0  0  0  0  0
    7.1767    0.0503   18.6242 C   0  0  0  0  0  0  0  0  0  0  0  0
    8.1260   -0.4264   18.3807 H   0  0  0  0  0  0  0  0  0  0  0  0
    6.6680    0.0313   19.9385 C   0  0  0  0  0  0  0  0  0  0  0  0
    7.3537   -0.6724   20.9805 N   0  0  0  0  0  0  0  0  0  0  0  0
    7.7075   -0.2678   22.2525 C   0  0  0  0  0  0  0  0  0  0  0  0
    7.5235    1.1657   22.7212 C   0  0  0  0  0  0  0  0  0  0  0  0
    7.3352    2.0987   21.9523 O   0  0  0  0  0  0  0  0  0  0  0  0
    7.5685    1.3497   24.0715 N   0  0  0  0  0  0  0  0  0  0  0  0
    7.7823    0.5348   24.6339 H   0  0  0  0  0  0  0  0  0  0  0  0
    7.5525    2.6874   24.6498 C   0  0  0  0  0  0  0  0  0  0  0  0
    6.7146    3.2338   24.1873 H   0  0  0  0  0  0  0  0  0  0  0  0
    7.3141    2.6212   26.1592 C   0  0  0  0  0  0  0  0  0  0  0  0
    6.4347    1.9965   26.3592 H   0  0  0  0  0  0  0  0  0  0  0  0
    8.1746    2.1104   26.6244 H   0  0  0  0  0  0  0  0  0  0  0  0
    7.1323    4.0406   26.7769 C   0  0  0  0  0  0  0  0  0  0  0  0
    7.4698    4.0013   27.8223 H   0  0  0  0  0  0  0  0  0  0  0  0
    6.0657    4.2995   26.8057 H   0  0  0  0  0  0  0  0  0  0  0  0
    7.8881    5.1605   26.0020 C   0  0  0  0  0  0  0  0  0  0  0  0
    7.2280    5.6113   25.2446 H   0  0  0  0  0  0  0  0  0  0  0  0
    8.1630    5.9680   26.6925 H   0  0  0  0  0  0  0  0  0  0  0  0
    9.1530    4.6027   25.3359 C   0  0  0  0  0  0  0  0  0  0  0  0
    9.7494    5.3914   24.8608 H   0  0  0  0  0  0  0  0  0  0  0  0
    9.7512    4.1955   26.1557 H   0  0  0  0  0  0  0  0  0  0  0  0
    8.8467    3.4813   24.3129 C   0  0  0  0  0  0  0  0  0  0  0  0
    8.7177    3.8792   23.2985 H   0  0  0  0  0  0  0  0  0  0  0  0
    9.6974    2.7869   24.2652 H   0  0  0  0  0  0  0  0  0  0  0  0
    8.2329   -1.2747   22.9347 N   0  0  0  0  0  0  0  0  0  0  0  0
    8.2349   -2.3521   22.0951 C   0  0  0  0  0  0  0  0  0  0  0  0
    8.6453   -3.3109   22.3871 H   0  0  0  0  0  0  0  0  0  0  0  0
    7.6730   -1.9998   20.9013 C   0  0  0  0  0  0  0  0  0  0  0  0
    7.3047   -2.5443   20.0546 H   0  0  0  0  0  0  0  0  0  0  0  0
    5.4392    0.6570   20.1698 C   0  0  0  0  0  0  0  0  0  0  0  0
    5.0004    0.6592   21.1646 H   0  0  0  0  0  0  0  0  0  0  0  0
    4.8047    1.2984   19.1018 C   0  0  0  0  0  0  0  0  0  0  0  0
    3.8747    1.8363   19.2464 H   0  0  0  0  0  0  0  0  0  0  0  0
  1  2  1  0
  2  3  2  0
  3  4  1  0
  4  5  1  0
  4  6  2  0
  6  7  1  0
  7  8  1  0
  8  9  1  0
  9 10  2  0
  9 11  1  0
 11 12  1  0
 11 13  1  0
 13 14  1  0
 13 15  1  0
 15 16  1  0
 15 17  1  0
 15 18  1  0
 18 19  1  0
 18 20  1  0
 18 21  1  0
 21 22  1  0
 21 23  1  0
 21 24  1  0
 24 25  1  0
 24 26  1  0
 24 27  1  0
 27 28  1  0
 27 29  1  0
  8 30  2  0
 30 31  1  0
 31 32  1  0
 31 33  2  0
 33 34  1  0
  6 35  1  0
 35 36  1  0
 35 37  2  0
 37 38  1  0
 37  2  1  0
 33  7  1  0
 27 13  1  0
M  END
>  <cnnaffinity>  (1) 
-4.82771

>  <filename>  (1) 
O=C(NC1CCCCC1)c1nccn1-c1cccnc1

$$$$
