
     RDKit          3D

 39 42  0  0  0  0  0  0  0  0999 V2000
    4.9955    1.8297   16.8252 H   0  0  0  0  0  0  0  0  0  0  0  0
    5.3890    1.3622   17.7247 C   0  0  0  0  0  0  0  0  0  0  0  0
    6.5423    0.6911   17.5755 N   0  0  0  0  0  0  0  0  0  0  0  0
    7.0520    0.1108   18.6660 C   0  0  0  0  0  0  0  0  0  0  0  0
    7.9847   -0.4346   18.5181 H   0  0  0  0  0  0  0  0  0  0  0  0
    6.4875    0.1746   19.9628 C   0  0  0  0  0  0  0  0  0  0  0  0
    7.1551   -0.5081   21.0956 C   0  0  0  0  0  0  0  0  0  0  0  0
    7.3473   -0.0843   22.3661 C   0  0  0  0  0  0  0  0  0  0  0  0
    7.2185    1.2397   22.8054 N   0  0  0  0  0  0  0  0  0  0  0  0
    7.3108    1.9467   22.0923 H   0  0  0  0  0  0  0  0  0  0  0  0
    7.3197    1.6811   24.1035 C   0  0  0  0  0  0  0  0  0  0  0  0
    7.1753    0.9503   25.0669 O   0  0  0  0  0  0  0  0  0  0  0  0
    7.6017    3.1761   24.2718 C   0  0  0  0  0  0  0  0  0  0  0  0
    8.3012    3.9858   23.3506 C   0  0  0  0  0  0  0  0  0  0  0  0
    8.6971    3.6232   22.4060 H   0  0  0  0  0  0  0  0  0  0  0  0
    8.5506    5.3275   23.6590 C   0  0  0  0  0  0  0  0  0  0  0  0
    9.0866    5.9583   22.9519 H   0  0  0  0  0  0  0  0  0  0  0  0
    8.1600    5.9168   24.7967 N   0  0  0  0  0  0  0  0  0  0  0  0
    7.4947    5.1575   25.6749 C   0  0  0  0  0  0  0  0  0  0  0  0
    7.1776    5.6491   26.5940 H   0  0  0  0  0  0  0  0  0  0  0  0
    7.2019    3.8073   25.4666 C   0  0  0  0  0  0  0  0  0  0  0  0
    6.6763    3.2546   26.2367 H   0  0  0  0  0  0  0  0  0  0  0  0
    7.8922   -1.1511   23.2806 C   0  0  0  0  0  0  0  0  0  0  0  0
    7.1286   -1.4498   24.0121 H   0  0  0  0  0  0  0  0  0  0  0  0
    8.7164   -0.7467   23.8832 H   0  0  0  0  0  0  0  0  0  0  0  0
    8.3524   -2.2470   22.2994 C   0  0  0  0  0  0  0  0  0  0  0  0
    7.8195   -1.8534   20.9146 C   0  0  0  0  0  0  0  0  0  0  0  0
    8.6628   -1.7815   20.2080 H   0  0  0  0  0  0  0  0  0  0  0  0
    7.1149   -2.5955   20.5097 H   0  0  0  0  0  0  0  0  0  0  0  0
    8.5412   -3.7000   22.6189 C   0  0  0  0  0  0  0  0  0  0  0  0
    8.2849   -4.4437   21.8670 H   0  0  0  0  0  0  0  0  0  0  0  0
    8.3215   -4.0127   23.6313 H   0  0  0  0  0  0  0  0  0  0  0  0
    9.7426   -2.8224   22.4144 C   0  0  0  0  0  0  0  0  0  0  0  0
   10.3188   -2.8705   21.4973 H   0  0  0  0  0  0  0  0  0  0  0  0
   10.3542   -2.5791   23.2807 H   0  0  0  0  0  0  0  0  0  0  0  0
    5.2726    0.8811   20.0842 C   0  0  0  0  0  0  0  0  0  0  0  0
    4.7732    0.9490   21.0521 H   0  0  0  0  0  0  0  0  0  0  0  0
    4.7186    1.4727   18.9464 C   0  0  0  0  0  0  0  0  0  0  0  0
    3.7813    2.0146   18.9870 H   0  0  0  0  0  0  0  0  0  0  0  0
  1  2  1  0
  2  3  2  0
  3  4  1  0
  4  5  1  0
  4  6  2  0
  6  7  1  0
  7  8  2  0
  8  9  1  0
  9 10  1  0
  9 11  1  0
 11 12  2  0
 11 13  1  0
 13 14  2  0
 14 15  1  0
 14 16  1  0
 16 17  1  0
 16 18  2  0
 18 19  1  0
 19 20  1  0
 19 21  2  0
 21 22  1  0
  8 23  1  0
 23 24  1  0
 23 25  1  0
 23 26  1  0
 26 27  1  0
 27 28  1  0
 27 29  1  0
 26 30  1  0
 30 31  1  0
 30 32  1  0
 30 33  1  0
 33 34  1  0
 33 35  1  0
  6 36  1  0
 36 37  1  0
 36 38  2  0
 38 39  1  0
 38  2  1  0
 27  7  1  0
 21 13  1  0
 33 26  1  0
M  END
>  <cnnaffinity>  (1) 
-5.16927

>  <filename>  (1) 
O=C(NC1=C(c2cccnc2)CC2(CC2)C1)c1ccncc1

$$$$
