
     RDKit          3D

 31 33  0  0  0  0  0  0  0  0999 V2000
    4.9386    1.8084   16.9756 H   0  0  0  0  0  0  0  0  0  0  0  0
    5.3975    1.3020   17.8224 C   0  0  0  0  0  0  0  0  0  0  0  0
    6.5610    0.6724   17.5791 N   0  0  0  0  0  0  0  0  0  0  0  0
    7.1715    0.0648   18.6005 C   0  0  0  0  0  0  0  0  0  0  0  0
    8.1109   -0.4457   18.3858 H   0  0  0  0  0  0  0  0  0  0  0  0
    6.6396    0.0588   19.9011 C   0  0  0  0  0  0  0  0  0  0  0  0
    7.3161   -0.5849   20.9767 N   0  0  0  0  0  0  0  0  0  0  0  0
    7.9162   -1.7922   20.8378 N   0  0  0  0  0  0  0  0  0  0  0  0
    8.3450   -2.1293   21.9921 N   0  0  0  0  0  0  0  0  0  0  0  0
    8.0558   -1.1917   22.9319 N   0  0  0  0  0  0  0  0  0  0  0  0
    7.4344   -0.2494   22.2868 C   0  0  0  0  0  0  0  0  0  0  0  0
    6.9525    0.8813   22.8348 O   0  0  0  0  0  0  0  0  0  0  0  0
    7.3436    2.0634   22.2149 C   0  0  0  0  0  0  0  0  0  0  0  0
    8.1264    2.1193   21.3025 O   0  0  0  0  0  0  0  0  0  0  0  0
    6.6512    3.0470   22.8038 N   0  0  0  0  0  0  0  0  0  0  0  0
    6.1306    2.6997   23.5856 H   0  0  0  0  0  0  0  0  0  0  0  0
    6.7203    4.4327   22.3749 C   0  0  0  0  0  0  0  0  0  0  0  0
    6.6006    4.4589   21.2859 H   0  0  0  0  0  0  0  0  0  0  0  0
    5.8671    4.9759   22.8081 H   0  0  0  0  0  0  0  0  0  0  0  0
    8.0291    5.0972   22.7384 C   0  0  0  0  0  0  0  0  0  0  0  0
    8.8974    4.5905   22.3238 H   0  0  0  0  0  0  0  0  0  0  0  0
    8.1982    5.7546   24.0768 C   0  0  0  0  0  0  0  0  0  0  0  0
    7.3449    5.7574   24.7499 H   0  0  0  0  0  0  0  0  0  0  0  0
    9.1557    5.6611   24.5806 H   0  0  0  0  0  0  0  0  0  0  0  0
    8.1206    6.5931   22.8334 C   0  0  0  0  0  0  0  0  0  0  0  0
    9.0297    7.0699   22.4777 H   0  0  0  0  0  0  0  0  0  0  0  0
    7.2199    7.1758   22.6561 H   0  0  0  0  0  0  0  0  0  0  0  0
    5.4129    0.6736   20.1449 C   0  0  0  0  0  0  0  0  0  0  0  0
    4.9749    0.6398   21.1418 H   0  0  0  0  0  0  0  0  0  0  0  0
    4.7827    1.3184   19.0779 C   0  0  0  0  0  0  0  0  0  0  0  0
    3.8439    1.8457   19.2159 H   0  0  0  0  0  0  0  0  0  0  0  0
  1  2  1  0
  2  3  2  0
  3  4  1  0
  4  5  1  0
  4  6  2  0
  6  7  1  0
  7  8  1  0
  8  9  2  0
  9 10  1  0
 10 11  2  0
 11 12  1  0
 12 13  1  0
 13 14  2  0
 13 15  1  0
 15 16  1  0
 15 17  1  0
 17 18  1  0
 17 19  1  0
 17 20  1  0
 20 21  1  0
 20 22  1  0
 22 23  1  0
 22 24  1  0
 22 25  1  0
 25 26  1  0
 25 27  1  0
  6 28  1  0
 28 29  1  0
 28 30  2  0
 30 31  1  0
 30  2  1  0
 11  7  1  0
 25 20  1  0
M  END
>  <cnnaffinity>  (1) 
-4.9323

>  <filename>  (1) 
O=C(NCC1CC1)Oc1nnnn1-c1cccnc1

$$$$
