
     RDKit          3D

 36 38  0  0  0  0  0  0  0  0999 V2000
    5.0078    1.7453   17.0105 H   0  0  0  0  0  0  0  0  0  0  0  0
    5.4549    1.2673   17.8787 C   0  0  0  0  0  0  0  0  0  0  0  0
    6.6159    0.6263   17.6784 N   0  0  0  0  0  0  0  0  0  0  0  0
    7.1816    0.0261   18.7275 C   0  0  0  0  0  0  0  0  0  0  0  0
    8.1199   -0.4960   18.5387 H   0  0  0  0  0  0  0  0  0  0  0  0
    6.6330    0.0549   20.0112 C   0  0  0  0  0  0  0  0  0  0  0  0
    7.4081   -0.6649   21.0560 C   0  0  0  0  0  0  0  0  0  0  0  0
    8.1315   -1.6152   20.7887 O   0  0  0  0  0  0  0  0  0  0  0  0
    7.2810   -0.1970   22.3327 N   0  0  0  0  0  0  0  0  0  0  0  0
    8.0225   -0.7148   23.4765 C   0  0  0  0  0  0  0  0  0  0  0  0
    7.6071   -1.6635   23.8471 H   0  0  0  0  0  0  0  0  0  0  0  0
    9.0933   -0.8700   23.2694 H   0  0  0  0  0  0  0  0  0  0  0  0
    7.7030    0.6156   24.2240 C   0  0  0  0  0  0  0  0  0  0  0  0
    8.5897    1.1508   24.5638 H   0  0  0  0  0  0  0  0  0  0  0  0
    6.7837    0.5547   25.4235 C   0  0  0  0  0  0  0  0  0  0  0  0
    7.0803    1.0681   26.4910 O   0  0  0  0  0  0  0  0  0  0  0  0
    5.6010   -0.0840   25.2209 N   0  0  0  0  0  0  0  0  0  0  0  0
    5.4921   -0.5687   24.3439 H   0  0  0  0  0  0  0  0  0  0  0  0
    4.6653   -0.3302   26.3048 C   0  0  0  0  0  0  0  0  0  0  0  0
    3.7014   -0.6209   25.8717 H   0  0  0  0  0  0  0  0  0  0  0  0
    4.5027    0.6096   26.8378 H   0  0  0  0  0  0  0  0  0  0  0  0
    5.1452   -1.3626   27.3021 C   0  0  0  0  0  0  0  0  0  0  0  0
    6.0558   -1.0651   27.8111 H   0  0  0  0  0  0  0  0  0  0  0  0
    4.9652   -2.8255   27.0389 C   0  0  0  0  0  0  0  0  0  0  0  0
    5.7612   -3.5059   27.3329 H   0  0  0  0  0  0  0  0  0  0  0  0
    4.4551   -3.1052   26.1200 H   0  0  0  0  0  0  0  0  0  0  0  0
    4.1640   -2.1509   28.1204 C   0  0  0  0  0  0  0  0  0  0  0  0
    3.1019   -1.9822   27.9491 H   0  0  0  0  0  0  0  0  0  0  0  0
    4.4119   -2.3730   29.1576 H   0  0  0  0  0  0  0  0  0  0  0  0
    7.1009    1.1545   22.8881 C   0  0  0  0  0  0  0  0  0  0  0  0
    6.0517    1.4847   22.8990 H   0  0  0  0  0  0  0  0  0  0  0  0
    7.7002    1.9453   22.4055 H   0  0  0  0  0  0  0  0  0  0  0  0
    5.4041    0.7027   20.2111 C   0  0  0  0  0  0  0  0  0  0  0  0
    4.9184    0.7215   21.1890 H   0  0  0  0  0  0  0  0  0  0  0  0
    4.8085    1.3175   19.1174 C   0  0  0  0  0  0  0  0  0  0  0  0
    3.8636    1.8344   19.2250 H   0  0  0  0  0  0  0  0  0  0  0  0
  1  2  1  0
  2  3  2  0
  3  4  1  0
  4  5  1  0
  4  6  2  0
  6  7  1  0
  7  8  2  0
  7  9  1  0
  9 10  1  0
 10 11  1  0
 10 12  1  0
 10 13  1  0
 13 14  1  0
 13 15  1  0
 15 16  2  0
 15 17  1  0
 17 18  1  0
 17 19  1  0
 19 20  1  0
 19 21  1  0
 19 22  1  0
 22 23  1  0
 22 24  1  0
 24 25  1  0
 24 26  1  0
 24 27  1  0
 27 28  1  0
 27 29  1  0
 13 30  1  0
 30 31  1  0
 30 32  1  0
  6 33  1  0
 33 34  1  0
 33 35  2  0
 35 36  1  0
 35  2  1  0
 30  9  1  0
 27 22  1  0
M  END
>  <cnnaffinity>  (1) 
-4.56072

>  <filename>  (1) 
O=C(NCC1CC1)C1CN(C(=O)c2cccnc2)C1

$$$$
