
     RDKit          3D

 40 42  0  0  0  0  0  0  0  0999 V2000
    4.9908    1.7582   17.0090 H   0  0  0  0  0  0  0  0  0  0  0  0
    5.4493    1.2566   17.8590 C   0  0  0  0  0  0  0  0  0  0  0  0
    6.6097    0.6288   17.6219 N   0  0  0  0  0  0  0  0  0  0  0  0
    7.2099    0.0308   18.6535 C   0  0  0  0  0  0  0  0  0  0  0  0
    8.1658   -0.4508   18.4529 H   0  0  0  0  0  0  0  0  0  0  0  0
    6.6742   -0.0104   19.9438 C   0  0  0  0  0  0  0  0  0  0  0  0
    7.4327   -0.7414   20.9754 C   0  0  0  0  0  0  0  0  0  0  0  0
    8.7376   -0.7074   20.8910 N   0  0  0  0  0  0  0  0  0  0  0  0
    9.4606   -1.3390   21.8682 C   0  0  0  0  0  0  0  0  0  0  0  0
   10.6651   -1.3411   21.9385 O   0  0  0  0  0  0  0  0  0  0  0  0
    8.7708   -2.0471   22.8486 N   0  0  0  0  0  0  0  0  0  0  0  0
    9.3451   -2.5989   23.4559 H   0  0  0  0  0  0  0  0  0  0  0  0
    7.4404   -2.0753   22.9112 C   0  0  0  0  0  0  0  0  0  0  0  0
    6.8756   -2.7487   23.9510 N   0  0  0  0  0  0  0  0  0  0  0  0
    5.9391   -2.4894   24.1986 H   0  0  0  0  0  0  0  0  0  0  0  0
    7.3985   -3.8964   24.4998 C   0  0  0  0  0  0  0  0  0  0  0  0
    8.4037   -4.4223   24.0545 O   0  0  0  0  0  0  0  0  0  0  0  0
    6.6402   -4.3508   25.7559 C   0  0  0  0  0  0  0  0  0  0  0  0
    5.5800   -4.3848   25.4672 H   0  0  0  0  0  0  0  0  0  0  0  0
    7.0986   -5.7362   26.2586 C   0  0  0  0  0  0  0  0  0  0  0  0
    6.9599   -6.4776   25.4738 H   0  0  0  0  0  0  0  0  0  0  0  0
    6.4335   -6.0273   27.0858 H   0  0  0  0  0  0  0  0  0  0  0  0
    8.5483   -5.7437   26.7746 C   0  0  0  0  0  0  0  0  0  0  0  0
    8.7627   -6.7298   27.1998 H   0  0  0  0  0  0  0  0  0  0  0  0
    9.2396   -5.5887   25.9397 H   0  0  0  0  0  0  0  0  0  0  0  0
    8.7340   -4.6354   27.8176 C   0  0  0  0  0  0  0  0  0  0  0  0
    8.0443   -4.8524   28.6479 H   0  0  0  0  0  0  0  0  0  0  0  0
    9.7517   -4.6457   28.2202 H   0  0  0  0  0  0  0  0  0  0  0  0
    8.3390   -3.2685   27.2289 C   0  0  0  0  0  0  0  0  0  0  0  0
    8.9279   -3.0817   26.3162 H   0  0  0  0  0  0  0  0  0  0  0  0
    8.5411   -2.4176   27.8813 H   0  0  0  0  0  0  0  0  0  0  0  0
    6.8453   -3.3055   26.8819 C   0  0  0  0  0  0  0  0  0  0  0  0
    6.4708   -2.3212   26.5852 H   0  0  0  0  0  0  0  0  0  0  0  0
    6.2613   -3.5992   27.7690 H   0  0  0  0  0  0  0  0  0  0  0  0
    6.7115   -1.4404   21.9601 C   0  0  0  0  0  0  0  0  0  0  0  0
    5.6463   -1.5487   21.9063 H   0  0  0  0  0  0  0  0  0  0  0  0
    5.4569    0.6431   20.1815 C   0  0  0  0  0  0  0  0  0  0  0  0
    5.0178    0.6713   21.1811 H   0  0  0  0  0  0  0  0  0  0  0  0
    4.8382    1.2919   19.1164 C   0  0  0  0  0  0  0  0  0  0  0  0
    3.9034    1.8234   19.2450 H   0  0  0  0  0  0  0  0  0  0  0  0
  1  2  1  0
  2  3  2  0
  3  4  1  0
  4  5  1  0
  4  6  2  0
  6  7  1  0
  7  8  2  0
  8  9  1  0
  9 10  2  0
  9 11  1  0
 11 12  1  0
 11 13  1  0
 13 14  1  0
 14 15  1  0
 14 16  1  0
 16 17  2  0
 16 18  1  0
 18 19  1  0
 18 20  1  0
 20 21  1  0
 20 22  1  0
 20 23  1  0
 23 24  1  0
 23 25  1  0
 23 26  1  0
 26 27  1  0
 26 28  1  0
 26 29  1  0
 29 30  1  0
 29 31  1  0
 29 32  1  0
 32 33  1  0
 32 34  1  0
 13 35  2  0
 35 36  1  0
  6 37  1  0
 37 38  1  0
 37 39  2  0
 39 40  1  0
 39  2  1  0
 35  7  1  0
 32 18  1  0
M  END
>  <cnnaffinity>  (1) 
-5.29502

>  <filename>  (1) 
O=C(Nc1cc(-c2cccnc2)nc(=O)[nH]1)C1CCCCC1

$$$$
