
     RDKit          3D

 31 33  0  0  0  0  0  0  0  0999 V2000
    4.9195    1.7840   16.9898 H   0  0  0  0  0  0  0  0  0  0  0  0
    5.3966    1.2965   17.8326 C   0  0  0  0  0  0  0  0  0  0  0  0
    6.5601    0.6801   17.5747 N   0  0  0  0  0  0  0  0  0  0  0  0
    7.1604    0.0678   18.5985 C   0  0  0  0  0  0  0  0  0  0  0  0
    8.1046   -0.4280   18.3786 H   0  0  0  0  0  0  0  0  0  0  0  0
    6.6387    0.0130   19.8998 C   0  0  0  0  0  0  0  0  0  0  0  0
    7.3845   -0.7002   20.9401 C   0  0  0  0  0  0  0  0  0  0  0  0
    8.7061   -0.9750   21.0260 C   0  0  0  0  0  0  0  0  0  0  0  0
    9.4812   -0.6780   20.3468 H   0  0  0  0  0  0  0  0  0  0  0  0
    8.9773   -1.6922   22.2498 C   0  0  0  0  0  0  0  0  0  0  0  0
   10.0191   -2.0967   22.7081 O   0  0  0  0  0  0  0  0  0  0  0  0
    7.6925   -1.8057   22.8585 N   0  0  0  0  0  0  0  0  0  0  0  0
    7.5007   -2.5212   24.0629 C   0  0  0  0  0  0  0  0  0  0  0  0
    8.2513   -3.4246   24.3445 O   0  0  0  0  0  0  0  0  0  0  0  0
    6.3190   -2.1248   24.9210 C   0  0  0  0  0  0  0  0  0  0  0  0
    5.6808   -3.1154   25.6952 C   0  0  0  0  0  0  0  0  0  0  0  0
    6.0379   -4.1424   25.6599 H   0  0  0  0  0  0  0  0  0  0  0  0
    4.6107   -2.7955   26.5298 C   0  0  0  0  0  0  0  0  0  0  0  0
    4.1185   -3.5431   27.1462 H   0  0  0  0  0  0  0  0  0  0  0  0
    4.1807   -1.4717   26.5847 C   0  0  0  0  0  0  0  0  0  0  0  0
    3.1525   -1.1573   27.3881 F   0  0  0  0  0  0  0  0  0  0  0  0
    4.7862   -0.4634   25.8368 C   0  0  0  0  0  0  0  0  0  0  0  0
    4.4142    0.5540   25.9169 H   0  0  0  0  0  0  0  0  0  0  0  0
    5.8574   -0.7943   25.0038 C   0  0  0  0  0  0  0  0  0  0  0  0
    6.3312   -0.0049   24.4228 H   0  0  0  0  0  0  0  0  0  0  0  0
    6.7527   -1.1635   22.0438 N   0  0  0  0  0  0  0  0  0  0  0  0
    5.7559   -1.2128   22.2155 H   0  0  0  0  0  0  0  0  0  0  0  0
    5.4195    0.6591   20.1534 C   0  0  0  0  0  0  0  0  0  0  0  0
    4.9970    0.6502   21.1652 H   0  0  0  0  0  0  0  0  0  0  0  0
    4.7965    1.3185   19.0983 C   0  0  0  0  0  0  0  0  0  0  0  0
    3.8649    1.8510   19.2511 H   0  0  0  0  0  0  0  0  0  0  0  0
  1  2  1  0
  2  3  2  0
  3  4  1  0
  4  5  1  0
  4  6  2  0
  6  7  1  0
  7  8  2  0
  8  9  1  0
  8 10  1  0
 10 11  2  0
 10 12  1  0
 12 13  1  0
 13 14  2  0
 13 15  1  0
 15 16  2  0
 16 17  1  0
 16 18  1  0
 18 19  1  0
 18 20  2  0
 20 21  1  0
 20 22  1  0
 22 23  1  0
 22 24  2  0
 24 25  1  0
 12 26  1  0
 26 27  1  0
  6 28  1  0
 28 29  1  0
 28 30  2  0
 30 31  1  0
 30  2  1  0
 26  7  1  0
 24 15  1  0
M  END
>  <cnnaffinity>  (1) 
-5.09642

>  <filename>  (1) 
O=C(c1ccc(F)cc1)n1[nH]c(-c2cccnc2)cc1=O

$$$$
