
     RDKit          3D

 32 34  0  0  0  0  0  0  0  0999 V2000
    4.9394    1.8094   16.9638 H   0  0  0  0  0  0  0  0  0  0  0  0
    5.4116    1.3075   17.8035 C   0  0  0  0  0  0  0  0  0  0  0  0
    6.5608    0.6663   17.5352 N   0  0  0  0  0  0  0  0  0  0  0  0
    7.1689    0.0374   18.5488 C   0  0  0  0  0  0  0  0  0  0  0  0
    8.1072   -0.4619   18.3198 H   0  0  0  0  0  0  0  0  0  0  0  0
    6.6493   -0.0041   19.8603 C   0  0  0  0  0  0  0  0  0  0  0  0
    7.3025   -0.7129   20.9115 N   0  0  0  0  0  0  0  0  0  0  0  0
    6.6813   -1.6950   21.6953 C   0  0  0  0  0  0  0  0  0  0  0  0
    5.6365   -1.9371   21.5962 H   0  0  0  0  0  0  0  0  0  0  0  0
    7.6037   -2.1062   22.5799 C   0  0  0  0  0  0  0  0  0  0  0  0
    7.5541   -3.0319   23.6037 N   0  0  0  0  0  0  0  0  0  0  0  0
    6.7690   -3.6554   23.6007 H   0  0  0  0  0  0  0  0  0  0  0  0
    8.4786   -3.1520   24.6059 C   0  0  0  0  0  0  0  0  0  0  0  0
    9.5124   -2.4953   24.6449 O   0  0  0  0  0  0  0  0  0  0  0  0
    8.1658   -4.1785   25.6863 C   0  0  0  0  0  0  0  0  0  0  0  0
    6.9098   -4.7775   25.8980 C   0  0  0  0  0  0  0  0  0  0  0  0
    6.0294   -4.5361   25.3086 H   0  0  0  0  0  0  0  0  0  0  0  0
    6.7578   -5.7117   26.9289 C   0  0  0  0  0  0  0  0  0  0  0  0
    5.8108   -6.2319   27.0581 H   0  0  0  0  0  0  0  0  0  0  0  0
    7.7342   -6.0470   27.7819 N   0  0  0  0  0  0  0  0  0  0  0  0
    8.9280   -5.4740   27.5905 C   0  0  0  0  0  0  0  0  0  0  0  0
    9.7250   -5.7178   28.2870 H   0  0  0  0  0  0  0  0  0  0  0  0
    9.1948   -4.5679   26.5661 C   0  0  0  0  0  0  0  0  0  0  0  0
   10.1969   -4.1814   26.4386 H   0  0  0  0  0  0  0  0  0  0  0  0
    8.7462   -1.3978   22.3684 N   0  0  0  0  0  0  0  0  0  0  0  0
    9.5052   -1.4140   23.0302 H   0  0  0  0  0  0  0  0  0  0  0  0
    8.5885   -0.4918   21.3667 C   0  0  0  0  0  0  0  0  0  0  0  0
    9.7123    0.6279   20.8968 S   0  0  0  0  0  0  0  0  0  0  0  0
    5.4511    0.6675   20.1268 C   0  0  0  0  0  0  0  0  0  0  0  0
    5.0444    0.6677   21.1422 H   0  0  0  0  0  0  0  0  0  0  0  0
    4.8203    1.3376   19.0738 C   0  0  0  0  0  0  0  0  0  0  0  0
    3.8871    1.8740   19.2246 H   0  0  0  0  0  0  0  0  0  0  0  0
  1  2  1  0
  2  3  2  0
  3  4  1  0
  4  5  1  0
  4  6  2  0
  6  7  1  0
  7  8  1  0
  8  9  1  0
  8 10  2  0
 10 11  1  0
 11 12  1  0
 11 13  1  0
 13 14  2  0
 13 15  1  0
 15 16  2  0
 16 17  1  0
 16 18  1  0
 18 19  1  0
 18 20  2  0
 20 21  1  0
 21 22  1  0
 21 23  2  0
 23 24  1  0
 10 25  1  0
 25 26  1  0
 25 27  1  0
 27 28  2  0
  6 29  1  0
 29 30  1  0
 29 31  2  0
 31 32  1  0
 31  2  1  0
 27  7  1  0
 23 15  1  0
M  END
>  <cnnaffinity>  (1) 
-5.22476

>  <filename>  (1) 
O=C(Nc1cn(-c2cccnc2)c(=S)[nH]1)c1ccncc1

$$$$
