
     RDKit          3D

 28 29  0  0  0  0  0  0  0  0999 V2000
    5.6271   -5.9032   23.2892 H   0  0  0  0  0  0  0  0  0  0  0  0
    6.5160   -5.6364   23.5844 O   0  0  0  0  0  0  0  0  0  0  0  0
    6.2732   -4.3339   23.6875 C   0  0  0  0  0  0  0  0  0  0  0  0
    5.1928   -3.9057   23.3719 O   0  0  0  0  0  0  0  0  0  0  0  0
    7.4413   -3.5297   24.1383 C   0  0  0  0  0  0  0  0  0  0  0  0
    7.1112   -2.6550   24.6936 H   0  0  0  0  0  0  0  0  0  0  0  0
    8.0957   -4.1556   24.7380 H   0  0  0  0  0  0  0  0  0  0  0  0
    8.1576   -3.1823   22.8589 C   0  0  0  0  0  0  0  0  0  0  0  0
    8.5810   -4.0711   22.1552 O   0  0  0  0  0  0  0  0  0  0  0  0
    8.3211   -1.7319   22.5135 C   0  0  0  0  0  0  0  0  0  0  0  0
    9.0399   -1.2957   23.2106 H   0  0  0  0  0  0  0  0  0  0  0  0
    7.0025   -0.9112   22.3753 C   0  0  0  0  0  0  0  0  0  0  0  0
    6.0706   -1.4804   22.5206 H   0  0  0  0  0  0  0  0  0  0  0  0
    6.9729    0.0221   22.9614 H   0  0  0  0  0  0  0  0  0  0  0  0
    7.3511   -0.7203   20.9795 N   0  0  0  0  0  0  0  0  0  0  0  0
    6.7093   -0.0566   19.9653 C   0  0  0  0  0  0  0  0  0  0  0  0
    7.2209    0.0068   18.6346 C   0  0  0  0  0  0  0  0  0  0  0  0
    8.1725   -0.4746   18.4005 H   0  0  0  0  0  0  0  0  0  0  0  0
    6.6095    0.6342   17.6212 N   0  0  0  0  0  0  0  0  0  0  0  0
    5.4467    1.2565   17.8826 C   0  0  0  0  0  0  0  0  0  0  0  0
    4.9748    1.7669   17.0474 H   0  0  0  0  0  0  0  0  0  0  0  0
    4.8526    1.2641   19.1503 C   0  0  0  0  0  0  0  0  0  0  0  0
    3.9171    1.7942   19.3052 H   0  0  0  0  0  0  0  0  0  0  0  0
    5.4842    0.6054   20.2059 C   0  0  0  0  0  0  0  0  0  0  0  0
    5.0560    0.6024   21.2084 H   0  0  0  0  0  0  0  0  0  0  0  0
    8.6113   -1.4352   21.0205 C   0  0  0  0  0  0  0  0  0  0  0  0
    9.4902   -0.8038   20.8209 H   0  0  0  0  0  0  0  0  0  0  0  0
    8.6307   -2.3175   20.3767 H   0  0  0  0  0  0  0  0  0  0  0  0
  1  2  1  0
  2  3  1  0
  3  4  2  0
  3  5  1  0
  5  6  1  0
  5  7  1  0
  5  8  1  0
  8  9  2  0
  8 10  1  0
 10 11  1  0
 10 12  1  0
 12 13  1  0
 12 14  1  0
 12 15  1  0
 15 16  1  0
 16 17  2  0
 17 18  1  0
 17 19  1  0
 19 20  2  0
 20 21  1  0
 20 22  1  0
 22 23  1  0
 22 24  2  0
 24 25  1  0
 15 26  1  0
 26 27  1  0
 26 28  1  0
 26 10  1  0
 24 16  1  0
M  END
>  <cnnaffinity>  (1) 
-4.56608

>  <filename>  (1) 
O=C(O)CC(=O)C1CN(c2cccnc2)C1

$$$$
