
     RDKit          3D

 42 44  0  0  0  0  0  0  0  0999 V2000
    5.2464    1.6255   17.0087 H   0  0  0  0  0  0  0  0  0  0  0  0
    5.6717    1.1104   17.8688 C   0  0  0  0  0  0  0  0  0  0  0  0
    6.8034    0.4240   17.6558 N   0  0  0  0  0  0  0  0  0  0  0  0
    7.3531   -0.2008   18.7089 C   0  0  0  0  0  0  0  0  0  0  0  0
    8.2707   -0.7490   18.4906 H   0  0  0  0  0  0  0  0  0  0  0  0
    6.8365   -0.1889   20.0232 C   0  0  0  0  0  0  0  0  0  0  0  0
    7.6722   -0.7778   21.1982 C   0  0  0  0  0  0  0  0  0  0  0  0
    8.0661   -2.3105   20.9972 C   0  0  0  0  0  0  0  0  0  0  0  0
    9.2355   -2.6451   20.8475 O   0  0  0  0  0  0  0  0  0  0  0  0
    7.0757   -3.2681   21.0804 N   0  0  0  0  0  0  0  0  0  0  0  0
    5.6564   -3.0377   20.8120 C   0  0  0  0  0  0  0  0  0  0  0  0
    5.3937   -3.5029   19.8431 H   0  0  0  0  0  0  0  0  0  0  0  0
    5.4407   -1.9786   20.6973 H   0  0  0  0  0  0  0  0  0  0  0  0
    4.8233   -3.6223   21.9509 C   0  0  0  0  0  0  0  0  0  0  0  0
    3.7670   -3.4433   21.7769 H   0  0  0  0  0  0  0  0  0  0  0  0
    5.0896   -3.0937   22.8807 H   0  0  0  0  0  0  0  0  0  0  0  0
    5.0876   -5.1202   22.1124 C   0  0  0  0  0  0  0  0  0  0  0  0
    4.7738   -5.6388   21.1903 H   0  0  0  0  0  0  0  0  0  0  0  0
    4.4885   -5.5261   22.9388 H   0  0  0  0  0  0  0  0  0  0  0  0
    6.5840   -5.3573   22.3501 C   0  0  0  0  0  0  0  0  0  0  0  0
    6.8070   -6.4325   22.3960 H   0  0  0  0  0  0  0  0  0  0  0  0
    6.8724   -4.9386   23.3247 H   0  0  0  0  0  0  0  0  0  0  0  0
    7.4260   -4.6951   21.2498 C   0  0  0  0  0  0  0  0  0  0  0  0
    8.4888   -4.7676   21.4773 H   0  0  0  0  0  0  0  0  0  0  0  0
    7.2649   -5.2271   20.3004 H   0  0  0  0  0  0  0  0  0  0  0  0
    6.9607   -0.6335   22.5843 C   0  0  0  0  0  0  0  0  0  0  0  0
    6.6517    0.4121   22.7096 H   0  0  0  0  0  0  0  0  0  0  0  0
    6.0760   -1.2655   22.6444 H   0  0  0  0  0  0  0  0  0  0  0  0
    7.8889   -0.9822   23.7448 C   0  0  0  0  0  0  0  0  0  0  0  0
    8.2126   -2.0368   23.6821 H   0  0  0  0  0  0  0  0  0  0  0  0
    7.3686   -0.8458   24.6992 H   0  0  0  0  0  0  0  0  0  0  0  0
    9.0128   -0.1209   23.7651 O   0  0  0  0  0  0  0  0  0  0  0  0
    9.7916   -0.1937   22.5790 C   0  0  0  0  0  0  0  0  0  0  0  0
   10.2691   -1.1801   22.4939 H   0  0  0  0  0  0  0  0  0  0  0  0
   10.5750    0.5639   22.6916 H   0  0  0  0  0  0  0  0  0  0  0  0
    8.9605    0.1101   21.3273 C   0  0  0  0  0  0  0  0  0  0  0  0
    8.6311    1.1567   21.3880 H   0  0  0  0  0  0  0  0  0  0  0  0
    9.5865    0.0077   20.4368 H   0  0  0  0  0  0  0  0  0  0  0  0
    5.6143    0.4912   20.1929 C   0  0  0  0  0  0  0  0  0  0  0  0
    5.1093    0.4900   21.1595 H   0  0  0  0  0  0  0  0  0  0  0  0
    5.0348    1.1645   19.1113 C   0  0  0  0  0  0  0  0  0  0  0  0
    4.1085    1.7210   19.2172 H   0  0  0  0  0  0  0  0  0  0  0  0
  1  2  1  0
  2  3  2  0
  3  4  1  0
  4  5  1  0
  4  6  2  0
  6  7  1  0
  7  8  1  0
  8  9  2  0
  8 10  1  0
 10 11  1  0
 11 12  1  0
 11 13  1  0
 11 14  1  0
 14 15  1  0
 14 16  1  0
 14 17  1  0
 17 18  1  0
 17 19  1  0
 17 20  1  0
 20 21  1  0
 20 22  1  0
 20 23  1  0
 23 24  1  0
 23 25  1  0
  7 26  1  0
 26 27  1  0
 26 28  1  0
 26 29  1  0
 29 30  1  0
 29 31  1  0
 29 32  1  0
 32 33  1  0
 33 34  1  0
 33 35  1  0
 33 36  1  0
 36 37  1  0
 36 38  1  0
  6 39  1  0
 39 40  1  0
 39 41  2  0
 41 42  1  0
 41  2  1  0
 36  7  1  0
 23 10  1  0
M  END
>  <cnnaffinity>  (1) 
-4.60135

>  <filename>  (1) 
O=C(N1CCCCC1)C1(c2cccnc2)CCOCC1

$$$$
