
     RDKit          3D

 32 35  0  0  0  0  0  0  0  0999 V2000
    5.2229    4.8465   27.9072 H   0  0  0  0  0  0  0  0  0  0  0  0
    5.6710    3.9331   28.2921 C   0  0  0  0  0  0  0  0  0  0  0  0
    5.9777    3.0042   27.3764 N   0  0  0  0  0  0  0  0  0  0  0  0
    6.5462    1.8520   27.7899 C   0  0  0  0  0  0  0  0  0  0  0  0
    6.9360    0.7608   26.7408 C   0  0  0  0  0  0  0  0  0  0  0  0
    7.4956   -0.2713   27.0731 O   0  0  0  0  0  0  0  0  0  0  0  0
    6.6553    0.9769   25.4041 N   0  0  0  0  0  0  0  0  0  0  0  0
    6.0989    1.7632   25.0935 H   0  0  0  0  0  0  0  0  0  0  0  0
    7.0972    0.1675   24.3822 C   0  0  0  0  0  0  0  0  0  0  0  0
    6.6551    0.4112   23.1889 N   0  0  0  0  0  0  0  0  0  0  0  0
    7.2895   -0.4515   22.3233 N   0  0  0  0  0  0  0  0  0  0  0  0
    7.3990   -0.6625   20.9598 C   0  0  0  0  0  0  0  0  0  0  0  0
    6.6419    0.0207   19.9085 C   0  0  0  0  0  0  0  0  0  0  0  0
    7.1648    0.0457   18.6019 C   0  0  0  0  0  0  0  0  0  0  0  0
    8.1125   -0.4376   18.3636 H   0  0  0  0  0  0  0  0  0  0  0  0
    6.5625    0.6649   17.5836 N   0  0  0  0  0  0  0  0  0  0  0  0
    5.4012    1.2888   17.8348 C   0  0  0  0  0  0  0  0  0  0  0  0
    4.9352    1.7922   16.9886 H   0  0  0  0  0  0  0  0  0  0  0  0
    4.7976    1.3074   19.0956 C   0  0  0  0  0  0  0  0  0  0  0  0
    3.8695    1.8452   19.2379 H   0  0  0  0  0  0  0  0  0  0  0  0
    5.4214    0.6590   20.1583 C   0  0  0  0  0  0  0  0  0  0  0  0
    4.9981    0.6564   21.1630 H   0  0  0  0  0  0  0  0  0  0  0  0
    8.3026   -1.5871   20.7459 N   0  0  0  0  0  0  0  0  0  0  0  0
    8.8127   -2.0093   21.9504 N   0  0  0  0  0  0  0  0  0  0  0  0
    8.2002   -1.3086   22.8617 C   0  0  0  0  0  0  0  0  0  0  0  0
    8.2866   -1.1254   24.5822 S   0  0  0  0  0  0  0  0  0  0  0  0
    6.8117    1.6103   29.1544 C   0  0  0  0  0  0  0  0  0  0  0  0
    7.2713    0.6709   29.4355 H   0  0  0  0  0  0  0  0  0  0  0  0
    6.4797    2.5808   30.1038 C   0  0  0  0  0  0  0  0  0  0  0  0
    6.6684    2.4058   31.1643 H   0  0  0  0  0  0  0  0  0  0  0  0
    5.8975    3.7708   29.6629 C   0  0  0  0  0  0  0  0  0  0  0  0
    5.6141    4.5599   30.3520 H   0  0  0  0  0  0  0  0  0  0  0  0
  1  2  1  0
  2  3  2  0
  3  4  1  0
  4  5  1  0
  5  6  2  0
  5  7  1  0
  7  8  1  0
  7  9  1  0
  9 10  2  0
 10 11  1  0
 11 12  1  0
 12 13  1  0
 13 14  2  0
 14 15  1  0
 14 16  1  0
 16 17  2  0
 17 18  1  0
 17 19  1  0
 19 20  1  0
 19 21  2  0
 21 22  1  0
 12 23  2  0
 23 24  1  0
 24 25  2  0
 25 26  1  0
  4 27  2  0
 27 28  1  0
 27 29  1  0
 29 30  1  0
 29 31  2  0
 31 32  1  0
 31  2  1  0
 26  9  1  0
 25 11  1  0
 21 13  1  0
M  END
>  <cnnaffinity>  (1) 
-5.34641

>  <filename>  (1) 
O=C(Nc1nn2c(-c3cccnc3)nnc2s1)c1ccccn1

$$$$
