
     RDKit          3D

 31 33  0  0  0  0  0  0  0  0999 V2000
    7.8989    0.9243   22.8298 O   0  0  0  0  0  0  0  0  0  0  0  0
    8.3525    0.4393   21.8181 C   0  0  0  0  0  0  0  0  0  0  0  0
    9.6210    0.7270   21.3708 N   0  0  0  0  0  0  0  0  0  0  0  0
   10.4931    1.5173   22.0866 C   0  0  0  0  0  0  0  0  0  0  0  0
   10.5990    1.4928   23.4960 C   0  0  0  0  0  0  0  0  0  0  0  0
   11.5473    2.3107   24.0966 C   0  0  0  0  0  0  0  0  0  0  0  0
   12.3184    3.1619   23.2817 C   0  0  0  0  0  0  0  0  0  0  0  0
   13.3435    4.1653   23.4269 C   0  0  0  0  0  0  0  0  0  0  0  0
   13.6809    4.5739   22.1689 C   0  0  0  0  0  0  0  0  0  0  0  0
   12.9017    3.9088   21.2438 N   0  0  0  0  0  0  0  0  0  0  0  0
   12.0822    3.0398   21.8834 C   0  0  0  0  0  0  0  0  0  0  0  0
   11.2405    2.2292   21.2549 N   0  0  0  0  0  0  0  0  0  0  0  0
   12.9419    3.9028   20.2421 H   0  0  0  0  0  0  0  0  0  0  0  0
   14.4306    5.2884   21.8570 H   0  0  0  0  0  0  0  0  0  0  0  0
   13.7620    4.5661   24.3420 H   0  0  0  0  0  0  0  0  0  0  0  0
   11.6791    2.2892   25.1739 H   0  0  0  0  0  0  0  0  0  0  0  0
    9.9508    0.8510   24.0734 H   0  0  0  0  0  0  0  0  0  0  0  0
    9.8548    0.8211   20.3968 H   0  0  0  0  0  0  0  0  0  0  0  0
    7.5106   -0.5885   20.9440 C   0  0  0  0  0  0  0  0  0  0  0  0
    6.6821   -1.2653   21.7836 F   0  0  0  0  0  0  0  0  0  0  0  0
    8.3621   -1.5225   20.4047 F   0  0  0  0  0  0  0  0  0  0  0  0
    6.6869    0.0303   19.8394 C   0  0  0  0  0  0  0  0  0  0  0  0
    5.4740    0.6745   20.1237 C   0  0  0  0  0  0  0  0  0  0  0  0
    4.8276    1.3268   19.0751 C   0  0  0  0  0  0  0  0  0  0  0  0
    5.4075    1.3077   17.8013 C   0  0  0  0  0  0  0  0  0  0  0  0
    6.5384    0.6471   17.5126 N   0  0  0  0  0  0  0  0  0  0  0  0
    7.1498    0.0140   18.5166 C   0  0  0  0  0  0  0  0  0  0  0  0
    8.0477   -0.5496   18.2731 H   0  0  0  0  0  0  0  0  0  0  0  0
    4.9368    1.8286   16.9696 H   0  0  0  0  0  0  0  0  0  0  0  0
    3.8897    1.8490   19.2234 H   0  0  0  0  0  0  0  0  0  0  0  0
    5.0358    0.6531   21.1250 H   0  0  0  0  0  0  0  0  0  0  0  0
  1  2  2  0
  2  3  1  0
  3  4  1  0
  4  5  2  0
  5  6  1  0
  6  7  2  0
  7  8  1  0
  8  9  2  0
  9 10  1  0
 10 11  1  0
 11 12  2  0
 10 13  1  0
  9 14  1  0
  8 15  1  0
  6 16  1  0
  5 17  1  0
  3 18  1  0
  2 19  1  0
 19 20  1  0
 19 21  1  0
 19 22  1  0
 22 23  2  0
 23 24  1  0
 24 25  2  0
 25 26  1  0
 26 27  2  0
 27 28  1  0
 25 29  1  0
 24 30  1  0
 23 31  1  0
 12  4  1  0
 27 22  1  0
 11  7  1  0
M  END
>  <cnnaffinity>  (1) 
-5.41101

>  <filename>  (1) 
O=C(Nc1ccc2cc[nH]c2n1)C(F)(F)c1cccnc1

$$$$
