
     RDKit          3D

 37 39  0  0  0  0  0  0  0  0999 V2000
    4.9261    1.8337   16.9562 H   0  0  0  0  0  0  0  0  0  0  0  0
    5.3955    1.3232   17.7966 C   0  0  0  0  0  0  0  0  0  0  0  0
    6.5493    0.6908   17.5351 N   0  0  0  0  0  0  0  0  0  0  0  0
    7.1567    0.0660   18.5528 C   0  0  0  0  0  0  0  0  0  0  0  0
    8.0897   -0.4403   18.3057 H   0  0  0  0  0  0  0  0  0  0  0  0
    6.6626    0.0147   19.8744 C   0  0  0  0  0  0  0  0  0  0  0  0
    7.3624   -0.7262   20.9792 C   0  0  0  0  0  0  0  0  0  0  0  0
    8.7513   -0.6239   21.2257 C   0  0  0  0  0  0  0  0  0  0  0  0
    9.3680    0.0084   20.5883 H   0  0  0  0  0  0  0  0  0  0  0  0
    9.3937   -1.2644   22.2094 N   0  0  0  0  0  0  0  0  0  0  0  0
    8.6770   -2.0647   23.0030 C   0  0  0  0  0  0  0  0  0  0  0  0
    9.1962   -2.5966   23.7969 H   0  0  0  0  0  0  0  0  0  0  0  0
    7.3040   -2.2456   22.8666 C   0  0  0  0  0  0  0  0  0  0  0  0
    6.7036   -3.2107   23.8346 C   0  0  0  0  0  0  0  0  0  0  0  0
    7.3624   -4.0655   24.4046 O   0  0  0  0  0  0  0  0  0  0  0  0
    5.3681   -3.0317   24.0005 N   0  0  0  0  0  0  0  0  0  0  0  0
    5.0707   -2.0971   23.7688 H   0  0  0  0  0  0  0  0  0  0  0  0
    4.5652   -3.8174   24.9223 C   0  0  0  0  0  0  0  0  0  0  0  0
    3.5147   -3.6277   24.6704 H   0  0  0  0  0  0  0  0  0  0  0  0
    4.7400   -4.8774   24.7023 H   0  0  0  0  0  0  0  0  0  0  0  0
    4.8436   -3.5440   26.3985 C   0  0  0  0  0  0  0  0  0  0  0  0
    4.3839   -2.3746   27.0286 C   0  0  0  0  0  0  0  0  0  0  0  0
    3.8692   -1.6113   26.4460 H   0  0  0  0  0  0  0  0  0  0  0  0
    4.5747   -2.1829   28.4015 C   0  0  0  0  0  0  0  0  0  0  0  0
    4.2265   -1.2658   28.8722 H   0  0  0  0  0  0  0  0  0  0  0  0
    5.2190   -3.1669   29.1577 C   0  0  0  0  0  0  0  0  0  0  0  0
    5.3430   -3.0425   30.2301 H   0  0  0  0  0  0  0  0  0  0  0  0
    5.7437   -4.3020   28.5305 C   0  0  0  0  0  0  0  0  0  0  0  0
    6.3009   -5.0398   29.1060 H   0  0  0  0  0  0  0  0  0  0  0  0
    5.5676   -4.4807   27.1572 C   0  0  0  0  0  0  0  0  0  0  0  0
    6.0093   -5.3460   26.6603 H   0  0  0  0  0  0  0  0  0  0  0  0
    6.6348   -1.5515   21.8441 C   0  0  0  0  0  0  0  0  0  0  0  0
    5.5595   -1.6651   21.6725 H   0  0  0  0  0  0  0  0  0  0  0  0
    5.4387    0.6627   20.1108 C   0  0  0  0  0  0  0  0  0  0  0  0
    5.0127    0.6659   21.1153 H   0  0  0  0  0  0  0  0  0  0  0  0
    4.8045    1.3325   19.0626 C   0  0  0  0  0  0  0  0  0  0  0  0
    3.8705    1.8606   19.2070 H   0  0  0  0  0  0  0  0  0  0  0  0
  1  2  1  0
  2  3  2  0
  3  4  1  0
  4  5  1  0
  4  6  2  0
  6  7  1  0
  7  8  2  0
  8  9  1  0
  8 10  1  0
 10 11  2  0
 11 12  1  0
 11 13  1  0
 13 14  1  0
 14 15  2  0
 14 16  1  0
 16 17  1  0
 16 18  1  0
 18 19  1  0
 18 20  1  0
 18 21  1  0
 21 22  2  0
 22 23  1  0
 22 24  1  0
 24 25  1  0
 24 26  2  0
 26 27  1  0
 26 28  1  0
 28 29  1  0
 28 30  2  0
 30 31  1  0
 13 32  2  0
 32 33  1  0
  6 34  1  0
 34 35  1  0
 34 36  2  0
 36 37  1  0
 36  2  1  0
 32  7  1  0
 30 21  1  0
M  END
>  <cnnaffinity>  (1) 
-4.95288

>  <filename>  (1) 
O=C(NCc1ccccc1)c1cncc(-c2cccnc2)c1

$$$$
