
     RDKit          3D

 34 35  0  0  0  0  0  0  0  0999 V2000
    5.0615    1.6494   16.9488 H   0  0  0  0  0  0  0  0  0  0  0  0
    5.4913    1.2365   17.8607 C   0  0  0  0  0  0  0  0  0  0  0  0
    6.6824    0.6351   17.7322 N   0  0  0  0  0  0  0  0  0  0  0  0
    7.2608    0.1626   18.8324 C   0  0  0  0  0  0  0  0  0  0  0  0
    8.2394   -0.2965   18.6987 H   0  0  0  0  0  0  0  0  0  0  0  0
    6.6545    0.2432   20.0773 C   0  0  0  0  0  0  0  0  0  0  0  0
    7.5280   -0.6067   21.2953 S   0  0  0  0  0  0  0  0  0  0  0  0
    6.8928   -1.8480   21.6833 O   0  0  0  0  0  0  0  0  0  0  0  0
    8.9274   -0.5876   20.9411 O   0  0  0  0  0  0  0  0  0  0  0  0
    7.1714    0.3343   22.5860 N   0  0  0  0  0  0  0  0  0  0  0  0
    7.2527   -0.3037   23.3568 H   0  0  0  0  0  0  0  0  0  0  0  0
    7.9671    1.4377   22.7066 C   0  0  0  0  0  0  0  0  0  0  0  0
    8.5886    1.9656   21.8245 O   0  0  0  0  0  0  0  0  0  0  0  0
    7.8882    1.8428   23.9962 N   0  0  0  0  0  0  0  0  0  0  0  0
    6.9994    1.6666   24.4223 H   0  0  0  0  0  0  0  0  0  0  0  0
    8.2526    3.1104   24.4056 C   0  0  0  0  0  0  0  0  0  0  0  0
    7.5370    3.6443   25.2234 O   0  0  0  0  0  0  0  0  0  0  0  0
    9.4033    3.5556   23.8683 N   0  0  0  0  0  0  0  0  0  0  0  0
    9.6266    3.1016   22.9946 H   0  0  0  0  0  0  0  0  0  0  0  0
   10.1192    4.6800   24.2949 C   0  0  0  0  0  0  0  0  0  0  0  0
    9.8926    5.2767   25.5441 C   0  0  0  0  0  0  0  0  0  0  0  0
    9.1062    4.8827   26.1721 H   0  0  0  0  0  0  0  0  0  0  0  0
   10.6711    6.3672   25.9388 C   0  0  0  0  0  0  0  0  0  0  0  0
   10.5250    6.8226   26.9134 H   0  0  0  0  0  0  0  0  0  0  0  0
   11.6605    6.8572   25.0805 C   0  0  0  0  0  0  0  0  0  0  0  0
   12.6603    8.1948   25.5745 Cl  0  0  0  0  0  0  0  0  0  0  0  0
   11.8893    6.2653   23.8349 C   0  0  0  0  0  0  0  0  0  0  0  0
   12.6630    6.6669   23.1890 H   0  0  0  0  0  0  0  0  0  0  0  0
   11.1131    5.1701   23.4455 C   0  0  0  0  0  0  0  0  0  0  0  0
   11.2554    4.6900   22.4802 H   0  0  0  0  0  0  0  0  0  0  0  0
    5.3969    0.8379   20.2343 C   0  0  0  0  0  0  0  0  0  0  0  0
    4.8806    0.9216   21.1942 H   0  0  0  0  0  0  0  0  0  0  0  0
    4.8149    1.3503   19.0792 C   0  0  0  0  0  0  0  0  0  0  0  0
    3.8560    1.8549   19.1048 H   0  0  0  0  0  0  0  0  0  0  0  0
  1  2  1  0
  2  3  2  0
  3  4  1  0
  4  5  1  0
  4  6  2  0
  6  7  1  0
  7  8  2  0
  7  9  2  0
  7 10  1  0
 10 11  1  0
 10 12  1  0
 12 13  2  0
 12 14  1  0
 14 15  1  0
 14 16  1  0
 16 17  2  0
 16 18  1  0
 18 19  1  0
 18 20  1  0
 20 21  2  0
 21 22  1  0
 21 23  1  0
 23 24  1  0
 23 25  2  0
 25 26  1  0
 25 27  1  0
 27 28  1  0
 27 29  2  0
 29 30  1  0
  6 31  1  0
 31 32  1  0
 31 33  2  0
 33 34  1  0
 33  2  1  0
 29 20  1  0
M  END
>  <cnnaffinity>  (1) 
-5.19279

>  <filename>  (1) 
O=C(NC(=O)NS(=O)(=O)c1cccnc1)Nc1ccc(Cl)cc1

$$$$
