
     RDKit          3D

 37 39  0  0  0  0  0  0  0  0999 V2000
    4.9463    1.8105   17.0495 H   0  0  0  0  0  0  0  0  0  0  0  0
    5.4289    1.2645   17.8590 C   0  0  0  0  0  0  0  0  0  0  0  0
    6.5838    0.6447   17.5544 N   0  0  0  0  0  0  0  0  0  0  0  0
    7.2217    0.0141   18.5395 C   0  0  0  0  0  0  0  0  0  0  0  0
    8.1725   -0.4641   18.3102 H   0  0  0  0  0  0  0  0  0  0  0  0
    6.7300   -0.0571   19.8521 C   0  0  0  0  0  0  0  0  0  0  0  0
    7.5324   -0.6908   20.8402 N   0  0  0  0  0  0  0  0  0  0  0  0
    8.8641   -0.4395   20.9158 N   0  0  0  0  0  0  0  0  0  0  0  0
    9.3243   -1.1572   21.8654 N   0  0  0  0  0  0  0  0  0  0  0  0
    8.3511   -1.9090   22.4478 N   0  0  0  0  0  0  0  0  0  0  0  0
    7.2644   -1.6001   21.7957 C   0  0  0  0  0  0  0  0  0  0  0  0
    6.0165   -2.1128   21.8855 O   0  0  0  0  0  0  0  0  0  0  0  0
    5.7825   -2.7761   23.0969 N   0  0  0  0  0  0  0  0  0  0  0  0
    4.9885   -2.3543   23.5562 H   0  0  0  0  0  0  0  0  0  0  0  0
    5.8554   -4.1610   23.1106 C   0  0  0  0  0  0  0  0  0  0  0  0
    6.3777   -4.8036   22.2254 O   0  0  0  0  0  0  0  0  0  0  0  0
    5.2707   -4.7507   24.4063 C   0  0  0  0  0  0  0  0  0  0  0  0
    4.8181   -3.9516   25.0134 H   0  0  0  0  0  0  0  0  0  0  0  0
    6.4287   -5.3530   25.2491 C   0  0  0  0  0  0  0  0  0  0  0  0
    7.0501   -5.9791   24.5915 H   0  0  0  0  0  0  0  0  0  0  0  0
    7.0768   -4.5425   25.6142 H   0  0  0  0  0  0  0  0  0  0  0  0
    5.9246   -6.1933   26.4328 C   0  0  0  0  0  0  0  0  0  0  0  0
    6.7767   -6.7043   26.8967 H   0  0  0  0  0  0  0  0  0  0  0  0
    5.4900   -5.5521   27.2150 H   0  0  0  0  0  0  0  0  0  0  0  0
    4.8956   -7.2232   25.9617 C   0  0  0  0  0  0  0  0  0  0  0  0
    5.3846   -7.8377   25.1953 H   0  0  0  0  0  0  0  0  0  0  0  0
    4.5882   -7.8784   26.7858 H   0  0  0  0  0  0  0  0  0  0  0  0
    3.6894   -6.5774   25.2790 C   0  0  0  0  0  0  0  0  0  0  0  0
    2.9911   -7.3578   24.9514 H   0  0  0  0  0  0  0  0  0  0  0  0
    3.1413   -5.9433   25.9910 H   0  0  0  0  0  0  0  0  0  0  0  0
    4.1481   -5.7647   24.0600 C   0  0  0  0  0  0  0  0  0  0  0  0
    3.2929   -5.2282   23.6226 H   0  0  0  0  0  0  0  0  0  0  0  0
    4.5266   -6.4553   23.2912 H   0  0  0  0  0  0  0  0  0  0  0  0
    5.5110    0.5434   20.1665 C   0  0  0  0  0  0  0  0  0  0  0  0
    5.1104    0.4933   21.1781 H   0  0  0  0  0  0  0  0  0  0  0  0
    4.8605    1.2353   19.1353 C   0  0  0  0  0  0  0  0  0  0  0  0
    3.9414    1.7763   19.3216 H   0  0  0  0  0  0  0  0  0  0  0  0
  1  2  1  0
  2  3  2  0
  3  4  1  0
  4  5  1  0
  4  6  2  0
  6  7  1  0
  7  8  1  0
  8  9  2  0
  9 10  1  0
 10 11  2  0
 11 12  1  0
 12 13  1  0
 13 14  1  0
 13 15  1  0
 15 16  2  0
 15 17  1  0
 17 18  1  0
 17 19  1  0
 19 20  1  0
 19 21  1  0
 19 22  1  0
 22 23  1  0
 22 24  1  0
 22 25  1  0
 25 26  1  0
 25 27  1  0
 25 28  1  0
 28 29  1  0
 28 30  1  0
 28 31  1  0
 31 32  1  0
 31 33  1  0
  6 34  1  0
 34 35  1  0
 34 36  2  0
 36 37  1  0
 36  2  1  0
 11  7  1  0
 31 17  1  0
M  END
>  <cnnaffinity>  (1) 
-5.41582

>  <filename>  (1) 
O=C(NOc1nnnn1-c1cccnc1)C1CCCCC1

$$$$
