
     RDKit          3D

 27 29  0  0  0  0  0  0  0  0999 V2000
    4.9220    1.8692   16.9451 H   0  0  0  0  0  0  0  0  0  0  0  0
    5.3665    1.3032   17.7638 C   0  0  0  0  0  0  0  0  0  0  0  0
    6.4993    0.6379   17.4859 N   0  0  0  0  0  0  0  0  0  0  0  0
    7.1061   -0.0078   18.4889 C   0  0  0  0  0  0  0  0  0  0  0  0
    8.0422   -0.5153   18.2541 H   0  0  0  0  0  0  0  0  0  0  0  0
    6.6285   -0.0118   19.8175 C   0  0  0  0  0  0  0  0  0  0  0  0
    7.5885   -0.7537   21.1482 S   0  0  0  0  0  0  0  0  0  0  0  0
    8.5445    0.6958   21.8244 C   0  0  0  0  0  0  0  0  0  0  0  0
    9.6343    0.9426   21.3732 O   0  0  0  0  0  0  0  0  0  0  0  0
    7.8595    1.5335   22.8591 C   0  0  0  0  0  0  0  0  0  0  0  0
    6.8348    1.1516   23.6686 C   0  0  0  0  0  0  0  0  0  0  0  0
    6.4166    0.1534   23.7630 H   0  0  0  0  0  0  0  0  0  0  0  0
    6.2535    2.4136   24.6941 S   0  0  0  0  0  0  0  0  0  0  0  0
    7.4017    3.5484   24.0399 C   0  0  0  0  0  0  0  0  0  0  0  0
    7.5572    4.9135   24.3528 C   0  0  0  0  0  0  0  0  0  0  0  0
    6.9232    5.4010   25.0850 H   0  0  0  0  0  0  0  0  0  0  0  0
    8.5360    5.6480   23.6927 C   0  0  0  0  0  0  0  0  0  0  0  0
    8.6556    6.7064   23.9112 H   0  0  0  0  0  0  0  0  0  0  0  0
    9.3826    5.0260   22.7522 C   0  0  0  0  0  0  0  0  0  0  0  0
   10.1654    5.6046   22.2753 H   0  0  0  0  0  0  0  0  0  0  0  0
    9.2278    3.6800   22.4381 C   0  0  0  0  0  0  0  0  0  0  0  0
    9.8745    3.1825   21.7259 H   0  0  0  0  0  0  0  0  0  0  0  0
    8.2138    2.9314   23.0670 C   0  0  0  0  0  0  0  0  0  0  0  0
    5.4022    0.6116   20.0731 C   0  0  0  0  0  0  0  0  0  0  0  0
    4.9606    0.5738   21.0704 H   0  0  0  0  0  0  0  0  0  0  0  0
    4.7761    1.2989   19.0314 C   0  0  0  0  0  0  0  0  0  0  0  0
    3.8588    1.8498   19.1971 H   0  0  0  0  0  0  0  0  0  0  0  0
  1  2  1  0
  2  3  2  0
  3  4  1  0
  4  5  1  0
  4  6  2  0
  6  7  1  0
  7  8  1  0
  8  9  2  0
  8 10  1  0
 10 11  2  0
 11 12  1  0
 11 13  1  0
 13 14  1  0
 14 15  2  0
 15 16  1  0
 15 17  1  0
 17 18  1  0
 17 19  2  0
 19 20  1  0
 19 21  1  0
 21 22  1  0
 21 23  2  0
  6 24  1  0
 24 25  1  0
 24 26  2  0
 26 27  1  0
 26  2  1  0
 23 10  1  0
 23 14  1  0
M  END
>  <cnnaffinity>  (1) 
-4.45176

>  <filename>  (1) 
O=C(Sc1cccnc1)c1csc2ccccc12

$$$$
