
     RDKit          3D

 30 32  0  0  0  0  0  0  0  0999 V2000
    4.9496    1.8083   16.9454 H   0  0  0  0  0  0  0  0  0  0  0  0
    5.4095    1.3051   17.7920 C   0  0  0  0  0  0  0  0  0  0  0  0
    6.5512    0.6504   17.5302 N   0  0  0  0  0  0  0  0  0  0  0  0
    7.1676    0.0249   18.5378 C   0  0  0  0  0  0  0  0  0  0  0  0
    8.1033   -0.4827   18.3011 H   0  0  0  0  0  0  0  0  0  0  0  0
    6.6544    0.0058   19.8486 C   0  0  0  0  0  0  0  0  0  0  0  0
    7.3358   -0.6613   20.9052 N   0  0  0  0  0  0  0  0  0  0  0  0
    6.7493   -1.6397   21.7187 C   0  0  0  0  0  0  0  0  0  0  0  0
    5.7238   -1.9509   21.5972 H   0  0  0  0  0  0  0  0  0  0  0  0
    7.6805   -1.9691   22.6319 C   0  0  0  0  0  0  0  0  0  0  0  0
    7.6710   -2.8919   23.6557 N   0  0  0  0  0  0  0  0  0  0  0  0
    6.8153   -3.4065   23.7553 H   0  0  0  0  0  0  0  0  0  0  0  0
    8.6682   -3.1560   24.5602 C   0  0  0  0  0  0  0  0  0  0  0  0
    9.6878   -2.4916   24.6617 O   0  0  0  0  0  0  0  0  0  0  0  0
    8.3654   -4.3316   25.4235 C   0  0  0  0  0  0  0  0  0  0  0  0
    9.1781   -4.4861   26.9399 S   0  0  0  0  0  0  0  0  0  0  0  0
    8.3102   -5.9109   27.3176 C   0  0  0  0  0  0  0  0  0  0  0  0
    8.4765   -6.4198   28.2575 H   0  0  0  0  0  0  0  0  0  0  0  0
    7.4439   -6.2654   26.3257 C   0  0  0  0  0  0  0  0  0  0  0  0
    6.7380   -7.0859   26.3842 H   0  0  0  0  0  0  0  0  0  0  0  0
    7.5046   -5.3855   25.2154 C   0  0  0  0  0  0  0  0  0  0  0  0
    6.9949   -5.6077   24.2802 H   0  0  0  0  0  0  0  0  0  0  0  0
    8.7911   -1.2180   22.4057 N   0  0  0  0  0  0  0  0  0  0  0  0
    9.5770   -1.1941   23.0328 H   0  0  0  0  0  0  0  0  0  0  0  0
    8.6085   -0.3692   21.3578 C   0  0  0  0  0  0  0  0  0  0  0  0
    9.7123    0.7454   20.8256 S   0  0  0  0  0  0  0  0  0  0  0  0
    5.4547    0.6730   20.1132 C   0  0  0  0  0  0  0  0  0  0  0  0
    5.0522    0.6671   21.1286 H   0  0  0  0  0  0  0  0  0  0  0  0
    4.8236    1.3427   19.0619 C   0  0  0  0  0  0  0  0  0  0  0  0
    3.8977    1.8855   19.2083 H   0  0  0  0  0  0  0  0  0  0  0  0
  1  2  1  0
  2  3  2  0
  3  4  1  0
  4  5  1  0
  4  6  2  0
  6  7  1  0
  7  8  1  0
  8  9  1  0
  8 10  2  0
 10 11  1  0
 11 12  1  0
 11 13  1  0
 13 14  2  0
 13 15  1  0
 15 16  1  0
 16 17  1  0
 17 18  1  0
 17 19  2  0
 19 20  1  0
 19 21  1  0
 21 22  1  0
 10 23  1  0
 23 24  1  0
 23 25  1  0
 25 26  2  0
  6 27  1  0
 27 28  1  0
 27 29  2  0
 29 30  1  0
 29  2  1  0
 25  7  1  0
 21 15  2  0
M  END
>  <cnnaffinity>  (1) 
-4.98128

>  <filename>  (1) 
O=C(Nc1cn(-c2cccnc2)c(=S)[nH]1)c1cccs1

$$$$
