
     RDKit          3D

 41 43  0  0  0  0  0  0  0  0999 V2000
    4.9750    1.8230   16.9336 H   0  0  0  0  0  0  0  0  0  0  0  0
    5.4139    1.3391   17.8016 C   0  0  0  0  0  0  0  0  0  0  0  0
    6.5938    0.7324   17.5974 N   0  0  0  0  0  0  0  0  0  0  0  0
    7.1684    0.1330   18.6449 C   0  0  0  0  0  0  0  0  0  0  0  0
    8.1176   -0.3701   18.4503 H   0  0  0  0  0  0  0  0  0  0  0  0
    6.6107    0.1058   19.9333 C   0  0  0  0  0  0  0  0  0  0  0  0
    7.3721   -0.5546   21.0573 C   0  0  0  0  0  0  0  0  0  0  0  0
    6.7862   -0.5185   21.9850 H   0  0  0  0  0  0  0  0  0  0  0  0
    7.5223   -1.6147   20.8235 H   0  0  0  0  0  0  0  0  0  0  0  0
    8.6920    0.0373   21.2715 N   0  0  0  0  0  0  0  0  0  0  0  0
    9.9060   -0.5786   21.0678 C   0  0  0  0  0  0  0  0  0  0  0  0
    9.9780   -1.6028   20.7094 H   0  0  0  0  0  0  0  0  0  0  0  0
   10.9205    0.1902   21.3688 N   0  0  0  0  0  0  0  0  0  0  0  0
   10.3618    1.3743   21.7914 C   0  0  0  0  0  0  0  0  0  0  0  0
   10.9213    2.2244   22.1528 H   0  0  0  0  0  0  0  0  0  0  0  0
    8.9911    1.3082   21.7274 C   0  0  0  0  0  0  0  0  0  0  0  0
    7.9841    2.2425   22.0488 N   0  0  0  0  0  0  0  0  0  0  0  0
    7.0650    2.0865   21.6657 H   0  0  0  0  0  0  0  0  0  0  0  0
    8.1936    3.4443   22.6989 C   0  0  0  0  0  0  0  0  0  0  0  0
    9.2874    3.7511   23.1358 O   0  0  0  0  0  0  0  0  0  0  0  0
    6.9772    4.3603   22.9114 C   0  0  0  0  0  0  0  0  0  0  0  0
    7.4475    5.2640   23.3225 H   0  0  0  0  0  0  0  0  0  0  0  0
    5.9795    3.8399   23.9798 C   0  0  0  0  0  0  0  0  0  0  0  0
    6.5066    3.6410   24.9205 H   0  0  0  0  0  0  0  0  0  0  0  0
    5.5664    2.8695   23.6637 H   0  0  0  0  0  0  0  0  0  0  0  0
    4.8390    4.8491   24.2155 C   0  0  0  0  0  0  0  0  0  0  0  0
    5.2619    5.7665   24.6559 H   0  0  0  0  0  0  0  0  0  0  0  0
    4.1306    4.4544   24.9526 H   0  0  0  0  0  0  0  0  0  0  0  0
    4.1318    5.2149   22.9027 C   0  0  0  0  0  0  0  0  0  0  0  0
    3.2931    5.8976   23.0704 H   0  0  0  0  0  0  0  0  0  0  0  0
    3.6951    4.3099   22.4533 H   0  0  0  0  0  0  0  0  0  0  0  0
    5.1400    5.8053   21.9140 C   0  0  0  0  0  0  0  0  0  0  0  0
    4.6273    6.1251   21.0024 H   0  0  0  0  0  0  0  0  0  0  0  0
    5.5943    6.7194   22.3301 H   0  0  0  0  0  0  0  0  0  0  0  0
    6.2469    4.7787   21.6151 C   0  0  0  0  0  0  0  0  0  0  0  0
    5.8066    3.8973   21.1167 H   0  0  0  0  0  0  0  0  0  0  0  0
    6.9618    5.2144   20.9124 H   0  0  0  0  0  0  0  0  0  0  0  0
    5.3637    0.7137   20.1160 C   0  0  0  0  0  0  0  0  0  0  0  0
    4.8836    0.6808   21.0957 H   0  0  0  0  0  0  0  0  0  0  0  0
    4.7508    1.3513   19.0315 C   0  0  0  0  0  0  0  0  0  0  0  0
    3.7961    1.8602   19.1298 H   0  0  0  0  0  0  0  0  0  0  0  0
  1  2  1  0
  2  3  2  0
  3  4  1  0
  4  5  1  0
  4  6  2  0
  6  7  1  0
  7  8  1  0
  7  9  1  0
  7 10  1  0
 10 11  1  0
 11 12  1  0
 11 13  2  0
 13 14  1  0
 14 15  1  0
 14 16  2  0
 16 17  1  0
 17 18  1  0
 17 19  1  0
 19 20  2  0
 19 21  1  0
 21 22  1  0
 21 23  1  0
 23 24  1  0
 23 25  1  0
 23 26  1  0
 26 27  1  0
 26 28  1  0
 26 29  1  0
 29 30  1  0
 29 31  1  0
 29 32  1  0
 32 33  1  0
 32 34  1  0
 32 35  1  0
 35 36  1  0
 35 37  1  0
  6 38  1  0
 38 39  1  0
 38 40  2  0
 40 41  1  0
 40  2  1  0
 16 10  1  0
 35 21  1  0
M  END
>  <cnnaffinity>  (1) 
-4.8444

>  <filename>  (1) 
O=C(Nc1cncn1Cc1cccnc1)C1CCCCC1

$$$$
