
     RDKit          3D

 30 32  0  0  0  0  0  0  0  0999 V2000
    3.5901   -6.3977   29.0193 H   0  0  0  0  0  0  0  0  0  0  0  0
    3.1138   -6.0315   28.2448 O   0  0  0  0  0  0  0  0  0  0  0  0
    4.1776   -5.5418   27.6054 C   0  0  0  0  0  0  0  0  0  0  0  0
    5.2711   -5.7510   28.0844 O   0  0  0  0  0  0  0  0  0  0  0  0
    3.9214   -4.7223   26.2658 C   0  0  0  0  0  0  0  0  0  0  0  0
    2.7958   -4.3274   25.9626 O   0  0  0  0  0  0  0  0  0  0  0  0
    5.0802   -4.4370   25.4433 C   0  0  0  0  0  0  0  0  0  0  0  0
    6.0371   -4.8128   25.7623 H   0  0  0  0  0  0  0  0  0  0  0  0
    5.0071   -3.6830   24.3049 C   0  0  0  0  0  0  0  0  0  0  0  0
    3.8430   -3.3166   23.8176 O   0  0  0  0  0  0  0  0  0  0  0  0
    3.1603   -3.5980   24.4836 H   0  0  0  0  0  0  0  0  0  0  0  0
    6.2152   -3.2147   23.5614 C   0  0  0  0  0  0  0  0  0  0  0  0
    6.1202   -2.5583   22.4434 N   0  0  0  0  0  0  0  0  0  0  0  0
    7.3539   -2.1644   22.0784 N   0  0  0  0  0  0  0  0  0  0  0  0
    7.8368   -1.4206   21.0156 C   0  0  0  0  0  0  0  0  0  0  0  0
    6.9490   -0.7444   20.0560 C   0  0  0  0  0  0  0  0  0  0  0  0
    7.3297   -0.5854   18.7069 C   0  0  0  0  0  0  0  0  0  0  0  0
    8.2570   -1.0391   18.3576 H   0  0  0  0  0  0  0  0  0  0  0  0
    6.6194    0.0893   17.7941 N   0  0  0  0  0  0  0  0  0  0  0  0
    5.4642    0.6388   18.1985 C   0  0  0  0  0  0  0  0  0  0  0  0
    4.9052    1.1961   17.4484 H   0  0  0  0  0  0  0  0  0  0  0  0
    4.9656    0.5121   19.4997 C   0  0  0  0  0  0  0  0  0  0  0  0
    4.0190    0.9677   19.7695 H   0  0  0  0  0  0  0  0  0  0  0  0
    5.7141   -0.1882   20.4431 C   0  0  0  0  0  0  0  0  0  0  0  0
    5.3672   -0.3062   21.4685 H   0  0  0  0  0  0  0  0  0  0  0  0
    9.1998   -1.4137   21.2308 C   0  0  0  0  0  0  0  0  0  0  0  0
    9.9474   -0.9130   20.6275 H   0  0  0  0  0  0  0  0  0  0  0  0
    9.5661   -2.1086   22.3593 N   0  0  0  0  0  0  0  0  0  0  0  0
    8.4234   -2.5350   22.8339 C   0  0  0  0  0  0  0  0  0  0  0  0
    7.8530   -3.4524   24.1917 S   0  0  0  0  0  0  0  0  0  0  0  0
  1  2  1  0
  2  3  1  0
  3  4  2  0
  3  5  1  0
  5  6  2  0
  5  7  1  0
  7  8  1  0
  7  9  2  3
  9 10  1  0
 10 11  1  0
  9 12  1  0
 12 13  2  0
 13 14  1  0
 14 15  1  0
 15 16  1  0
 16 17  2  0
 17 18  1  0
 17 19  1  0
 19 20  2  0
 20 21  1  0
 20 22  1  0
 22 23  1  0
 22 24  2  0
 24 25  1  0
 15 26  2  0
 26 27  1  0
 26 28  1  0
 28 29  2  0
 29 30  1  0
 30 12  1  0
 29 14  1  0
 24 16  1  0
M  END
>  <cnnaffinity>  (1) 
-4.79228

>  <filename>  (1) 
O=C(O)C(=O)C=C(O)c1nn2c(-c3cccnc3)cnc2s1

$$$$
