
     RDKit          3D

 41 44  0  0  0  0  0  0  0  0999 V2000
    4.9539    1.7934   16.9886 H   0  0  0  0  0  0  0  0  0  0  0  0
    5.4028    1.2828   17.8406 C   0  0  0  0  0  0  0  0  0  0  0  0
    6.5614    0.6461   17.6075 N   0  0  0  0  0  0  0  0  0  0  0  0
    7.1634    0.0442   18.6368 C   0  0  0  0  0  0  0  0  0  0  0  0
    8.0999   -0.4572   18.3925 H   0  0  0  0  0  0  0  0  0  0  0  0
    6.6453    0.0492   19.9463 C   0  0  0  0  0  0  0  0  0  0  0  0
    7.3958   -0.6262   21.0134 C   0  0  0  0  0  0  0  0  0  0  0  0
    8.2886   -1.5654   20.8035 N   0  0  0  0  0  0  0  0  0  0  0  0
    8.7923   -1.9928   22.0083 N   0  0  0  0  0  0  0  0  0  0  0  0
    8.1860   -1.2817   22.9181 C   0  0  0  0  0  0  0  0  0  0  0  0
    8.2662   -1.1187   24.6440 S   0  0  0  0  0  0  0  0  0  0  0  0
    7.1011    0.1869   24.4527 C   0  0  0  0  0  0  0  0  0  0  0  0
    6.6625    0.9791   25.4803 N   0  0  0  0  0  0  0  0  0  0  0  0
    5.9994    1.6678   25.1825 H   0  0  0  0  0  0  0  0  0  0  0  0
    6.9533    0.7501   26.8065 C   0  0  0  0  0  0  0  0  0  0  0  0
    7.6216   -0.2083   27.1473 O   0  0  0  0  0  0  0  0  0  0  0  0
    6.4523    1.6769   27.6595 N   0  0  0  0  0  0  0  0  0  0  0  0
    5.9711    2.4590   27.2616 H   0  0  0  0  0  0  0  0  0  0  0  0
    6.6893    1.5648   29.1073 C   0  0  0  0  0  0  0  0  0  0  0  0
    7.7475    1.2983   29.2397 H   0  0  0  0  0  0  0  0  0  0  0  0
    5.8650    0.4260   29.7444 C   0  0  0  0  0  0  0  0  0  0  0  0
    6.0453   -0.4908   29.1748 H   0  0  0  0  0  0  0  0  0  0  0  0
    6.2698    0.2640   30.7570 H   0  0  0  0  0  0  0  0  0  0  0  0
    4.3641    0.7537   29.8389 C   0  0  0  0  0  0  0  0  0  0  0  0
    3.9570    0.8610   28.8210 H   0  0  0  0  0  0  0  0  0  0  0  0
    3.8291   -0.0819   30.3071 H   0  0  0  0  0  0  0  0  0  0  0  0
    4.1267    2.0553   30.6251 C   0  0  0  0  0  0  0  0  0  0  0  0
    3.0565    2.2982   30.6526 H   0  0  0  0  0  0  0  0  0  0  0  0
    4.4248    1.9100   31.6763 H   0  0  0  0  0  0  0  0  0  0  0  0
    4.9234    3.2264   30.0178 C   0  0  0  0  0  0  0  0  0  0  0  0
    4.4902    3.4906   29.0387 H   0  0  0  0  0  0  0  0  0  0  0  0
    4.8203    4.1183   30.6496 H   0  0  0  0  0  0  0  0  0  0  0  0
    6.4202    2.8772   29.8605 C   0  0  0  0  0  0  0  0  0  0  0  0
    6.8476    2.7411   30.8703 H   0  0  0  0  0  0  0  0  0  0  0  0
    6.9744    3.6993   29.3898 H   0  0  0  0  0  0  0  0  0  0  0  0
    6.6551    0.4553   23.2625 N   0  0  0  0  0  0  0  0  0  0  0  0
    7.2877   -0.4097   22.3811 N   0  0  0  0  0  0  0  0  0  0  0  0
    5.4160    0.6856   20.1670 C   0  0  0  0  0  0  0  0  0  0  0  0
    4.9732    0.6849   21.1614 H   0  0  0  0  0  0  0  0  0  0  0  0
    4.7853    1.3155   19.0934 C   0  0  0  0  0  0  0  0  0  0  0  0
    3.8491    1.8529   19.2169 H   0  0  0  0  0  0  0  0  0  0  0  0
  1  2  1  0
  2  3  2  0
  3  4  1  0
  4  5  1  0
  4  6  2  0
  6  7  1  0
  7  8  2  0
  8  9  1  0
  9 10  2  0
 10 11  1  0
 11 12  1  0
 12 13  1  0
 13 14  1  0
 13 15  1  0
 15 16  2  0
 15 17  1  0
 17 18  1  0
 17 19  1  0
 19 20  1  0
 19 21  1  0
 21 22  1  0
 21 23  1  0
 21 24  1  0
 24 25  1  0
 24 26  1  0
 24 27  1  0
 27 28  1  0
 27 29  1  0
 27 30  1  0
 30 31  1  0
 30 32  1  0
 30 33  1  0
 33 34  1  0
 33 35  1  0
 12 36  2  0
 36 37  1  0
  6 38  1  0
 38 39  1  0
 38 40  2  0
 40 41  1  0
 40  2  1  0
 37  7  1  0
 37 10  1  0
 33 19  1  0
M  END
>  <cnnaffinity>  (1) 
-5.13412

>  <filename>  (1) 
O=C(Nc1nn2c(-c3cccnc3)nnc2s1)NC1CCCCC1

$$$$
