
     RDKit          3D

 36 38  0  0  0  0  0  0  0  0999 V2000
    5.1193    2.8832   15.8639 H   0  0  0  0  0  0  0  0  0  0  0  0
    5.3722    2.2407   16.7033 C   0  0  0  0  0  0  0  0  0  0  0  0
    6.2242    1.2320   16.4559 N   0  0  0  0  0  0  0  0  0  0  0  0
    6.5090    0.4055   17.4605 C   0  0  0  0  0  0  0  0  0  0  0  0
    7.1757   -0.4230   17.2337 H   0  0  0  0  0  0  0  0  0  0  0  0
    5.9841    0.5366   18.7558 C   0  0  0  0  0  0  0  0  0  0  0  0
    6.3256   -0.4095   19.7471 N   0  0  0  0  0  0  0  0  0  0  0  0
    5.4975   -0.8971   20.7380 C   0  0  0  0  0  0  0  0  0  0  0  0
    4.4988   -0.4900   20.8394 H   0  0  0  0  0  0  0  0  0  0  0  0
    6.1766   -1.8290   21.4618 C   0  0  0  0  0  0  0  0  0  0  0  0
    5.7851   -2.3987   22.2981 H   0  0  0  0  0  0  0  0  0  0  0  0
    7.5083   -1.8898   20.9333 C   0  0  0  0  0  0  0  0  0  0  0  0
    8.6520   -2.6537   21.5182 C   0  0  0  0  0  0  0  0  0  0  0  0
    8.5709   -3.8055   21.9067 O   0  0  0  0  0  0  0  0  0  0  0  0
    9.7979   -1.9074   21.6145 N   0  0  0  0  0  0  0  0  0  0  0  0
    9.6776   -0.9350   21.3778 H   0  0  0  0  0  0  0  0  0  0  0  0
   10.8196   -2.2114   22.6007 C   0  0  0  0  0  0  0  0  0  0  0  0
   10.4295   -2.1062   23.6268 H   0  0  0  0  0  0  0  0  0  0  0  0
   11.0962   -3.2641   22.4873 H   0  0  0  0  0  0  0  0  0  0  0  0
   12.0279   -1.3233   22.4047 C   0  0  0  0  0  0  0  0  0  0  0  0
   12.2776   -0.2373   23.2620 C   0  0  0  0  0  0  0  0  0  0  0  0
   11.5503    0.0265   24.0267 H   0  0  0  0  0  0  0  0  0  0  0  0
   13.4709    0.4850   23.1740 C   0  0  0  0  0  0  0  0  0  0  0  0
   13.6607    1.3069   23.8601 H   0  0  0  0  0  0  0  0  0  0  0  0
   14.4269    0.1393   22.2170 C   0  0  0  0  0  0  0  0  0  0  0  0
   15.3402    0.7235   22.1467 H   0  0  0  0  0  0  0  0  0  0  0  0
   14.1752   -0.9197   21.3335 C   0  0  0  0  0  0  0  0  0  0  0  0
   14.8839   -1.1946   20.5548 H   0  0  0  0  0  0  0  0  0  0  0  0
   12.9652   -1.6097   21.3994 C   0  0  0  0  0  0  0  0  0  0  0  0
   12.7565   -2.3765   20.6596 H   0  0  0  0  0  0  0  0  0  0  0  0
    7.5456   -1.0291   19.8631 C   0  0  0  0  0  0  0  0  0  0  0  0
    8.3324   -0.7939   19.1557 H   0  0  0  0  0  0  0  0  0  0  0  0
    5.1203    1.6087   19.0178 C   0  0  0  0  0  0  0  0  0  0  0  0
    4.7280    1.7814   20.0200 H   0  0  0  0  0  0  0  0  0  0  0  0
    4.8026    2.4609   17.9604 C   0  0  0  0  0  0  0  0  0  0  0  0
    4.1176    3.2898   18.1021 H   0  0  0  0  0  0  0  0  0  0  0  0
  1  2  1  0
  2  3  2  0
  3  4  1  0
  4  5  1  0
  4  6  2  0
  6  7  1  0
  7  8  1  0
  8  9  1  0
  8 10  2  0
 10 11  1  0
 10 12  1  0
 12 13  1  0
 13 14  2  0
 13 15  1  0
 15 16  1  0
 15 17  1  0
 17 18  1  0
 17 19  1  0
 17 20  1  0
 20 21  2  0
 21 22  1  0
 21 23  1  0
 23 24  1  0
 23 25  2  0
 25 26  1  0
 25 27  1  0
 27 28  1  0
 27 29  2  0
 29 30  1  0
 12 31  2  0
 31 32  1  0
  6 33  1  0
 33 34  1  0
 33 35  2  0
 35 36  1  0
 35  2  1  0
 31  7  1  0
 29 20  1  0
M  END
>  <cnnaffinity>  (1) 
-5.32962

>  <filename>  (1) 
O=C(NCc1ccccc1)c1ccn(-c2cccnc2)c1

$$$$
