
     RDKit          3D

 40 43  0  0  0  0  0  0  0  0999 V2000
    5.0333    1.8298   17.2284 H   0  0  0  0  0  0  0  0  0  0  0  0
    5.4879    1.1974   17.9913 C   0  0  0  0  0  0  0  0  0  0  0  0
    6.5987    0.5408   17.6215 N   0  0  0  0  0  0  0  0  0  0  0  0
    7.2126   -0.2093   18.5433 C   0  0  0  0  0  0  0  0  0  0  0  0
    8.1237   -0.7093   18.2071 H   0  0  0  0  0  0  0  0  0  0  0  0
    6.7511   -0.3675   19.8694 C   0  0  0  0  0  0  0  0  0  0  0  0
    7.5586   -1.0859   20.8720 C   0  0  0  0  0  0  0  0  0  0  0  0
    8.8908   -0.9456   21.1788 C   0  0  0  0  0  0  0  0  0  0  0  0
    9.5934   -0.3533   20.6044 H   0  0  0  0  0  0  0  0  0  0  0  0
    9.2561   -1.6037   22.3252 N   0  0  0  0  0  0  0  0  0  0  0  0
    8.1291   -2.1419   22.7232 C   0  0  0  0  0  0  0  0  0  0  0  0
    7.5956   -2.9732   24.1545 S   0  0  0  0  0  0  0  0  0  0  0  0
    5.9909   -2.8753   23.4643 C   0  0  0  0  0  0  0  0  0  0  0  0
    4.8429   -3.2929   24.0993 N   0  0  0  0  0  0  0  0  0  0  0  0
    4.0230   -3.0542   23.5642 H   0  0  0  0  0  0  0  0  0  0  0  0
    4.7468   -3.6568   25.4266 C   0  0  0  0  0  0  0  0  0  0  0  0
    5.7531   -3.9273   26.0526 O   0  0  0  0  0  0  0  0  0  0  0  0
    3.3302   -3.7595   26.0179 C   0  0  0  0  0  0  0  0  0  0  0  0
    2.6671   -3.0825   25.4605 H   0  0  0  0  0  0  0  0  0  0  0  0
    3.3015   -3.3204   27.5067 C   0  0  0  0  0  0  0  0  0  0  0  0
    3.5358   -2.2509   27.5865 H   0  0  0  0  0  0  0  0  0  0  0  0
    4.1009   -3.8480   28.0462 H   0  0  0  0  0  0  0  0  0  0  0  0
    1.9458   -3.5931   28.1796 C   0  0  0  0  0  0  0  0  0  0  0  0
    2.0049   -3.3325   29.2444 H   0  0  0  0  0  0  0  0  0  0  0  0
    1.1759   -2.9320   27.7530 H   0  0  0  0  0  0  0  0  0  0  0  0
    1.5098   -5.0546   28.0101 C   0  0  0  0  0  0  0  0  0  0  0  0
    2.2363   -5.7032   28.5217 H   0  0  0  0  0  0  0  0  0  0  0  0
    0.5414   -5.2287   28.4968 H   0  0  0  0  0  0  0  0  0  0  0  0
    1.4540   -5.4467   26.5276 C   0  0  0  0  0  0  0  0  0  0  0  0
    0.6652   -4.8650   26.0269 H   0  0  0  0  0  0  0  0  0  0  0  0
    1.1617   -6.4992   26.4222 H   0  0  0  0  0  0  0  0  0  0  0  0
    2.8057   -5.2104   25.8333 C   0  0  0  0  0  0  0  0  0  0  0  0
    2.7144   -5.4395   24.7640 H   0  0  0  0  0  0  0  0  0  0  0  0
    3.5489   -5.9117   26.2429 H   0  0  0  0  0  0  0  0  0  0  0  0
    5.8545   -2.3623   22.2779 N   0  0  0  0  0  0  0  0  0  0  0  0
    7.0803   -1.9082   21.8825 N   0  0  0  0  0  0  0  0  0  0  0  0
    5.5508    0.2787   20.2146 C   0  0  0  0  0  0  0  0  0  0  0  0
    5.1378    0.1422   21.2136 H   0  0  0  0  0  0  0  0  0  0  0  0
    4.9262    1.0908   19.2667 C   0  0  0  0  0  0  0  0  0  0  0  0
    4.0287    1.6523   19.4989 H   0  0  0  0  0  0  0  0  0  0  0  0
  1  2  1  0
  2  3  2  0
  3  4  1  0
  4  5  1  0
  4  6  2  0
  6  7  1  0
  7  8  2  0
  8  9  1  0
  8 10  1  0
 10 11  2  0
 11 12  1  0
 12 13  1  0
 13 14  1  0
 14 15  1  0
 14 16  1  0
 16 17  2  0
 16 18  1  0
 18 19  1  0
 18 20  1  0
 20 21  1  0
 20 22  1  0
 20 23  1  0
 23 24  1  0
 23 25  1  0
 23 26  1  0
 26 27  1  0
 26 28  1  0
 26 29  1  0
 29 30  1  0
 29 31  1  0
 29 32  1  0
 32 33  1  0
 32 34  1  0
 13 35  2  0
 35 36  1  0
  6 37  1  0
 37 38  1  0
 37 39  2  0
 39 40  1  0
 39  2  1  0
 36  7  1  0
 36 11  1  0
 32 18  1  0
M  END
>  <cnnaffinity>  (1) 
-5.36318

>  <filename>  (1) 
O=C(Nc1nn2c(-c3cccnc3)cnc2s1)C1CCCCC1

$$$$
