
     RDKit          3D

 36 38  0  0  0  0  0  0  0  0999 V2000
    4.9567    1.7903   16.9710 H   0  0  0  0  0  0  0  0  0  0  0  0
    5.3962    1.3039   17.8384 C   0  0  0  0  0  0  0  0  0  0  0  0
    6.5625    0.6740   17.6278 N   0  0  0  0  0  0  0  0  0  0  0  0
    7.1471    0.0904   18.6774 C   0  0  0  0  0  0  0  0  0  0  0  0
    8.0760   -0.4535   18.4971 H   0  0  0  0  0  0  0  0  0  0  0  0
    6.6195    0.1378   19.9716 C   0  0  0  0  0  0  0  0  0  0  0  0
    7.3703   -0.5284   21.0475 C   0  0  0  0  0  0  0  0  0  0  0  0
    8.0582   -1.5768   20.6887 N   0  0  0  0  0  0  0  0  0  0  0  0
    8.6105   -2.3300   21.6743 C   0  0  0  0  0  0  0  0  0  0  0  0
    8.9505   -3.4821   21.5595 O   0  0  0  0  0  0  0  0  0  0  0  0
    8.7972   -1.7416   22.9410 N   0  0  0  0  0  0  0  0  0  0  0  0
    9.0869   -2.4743   23.5593 H   0  0  0  0  0  0  0  0  0  0  0  0
    7.9963   -0.7295   23.3142 C   0  0  0  0  0  0  0  0  0  0  0  0
    7.9932   -0.4059   24.6360 N   0  0  0  0  0  0  0  0  0  0  0  0
    8.7165   -0.7830   25.2137 H   0  0  0  0  0  0  0  0  0  0  0  0
    6.8661    0.0779   25.2735 C   0  0  0  0  0  0  0  0  0  0  0  0
    5.7647    0.1497   24.7694 O   0  0  0  0  0  0  0  0  0  0  0  0
    7.1658    0.4349   26.5689 N   0  0  0  0  0  0  0  0  0  0  0  0
    8.1195    0.7200   26.7148 H   0  0  0  0  0  0  0  0  0  0  0  0
    6.1740    0.9523   27.4388 C   0  0  0  0  0  0  0  0  0  0  0  0
    6.4303    2.0733   28.2343 C   0  0  0  0  0  0  0  0  0  0  0  0
    7.3873    2.5831   28.1587 H   0  0  0  0  0  0  0  0  0  0  0  0
    5.4343    2.5462   29.1003 C   0  0  0  0  0  0  0  0  0  0  0  0
    5.6221    3.4234   29.7160 H   0  0  0  0  0  0  0  0  0  0  0  0
    4.1976    1.8938   29.1797 C   0  0  0  0  0  0  0  0  0  0  0  0
    3.4272    2.2506   29.8575 H   0  0  0  0  0  0  0  0  0  0  0  0
    3.9484    0.7708   28.3806 C   0  0  0  0  0  0  0  0  0  0  0  0
    2.9924    0.2497   28.4277 H   0  0  0  0  0  0  0  0  0  0  0  0
    4.9269    0.3107   27.5014 C   0  0  0  0  0  0  0  0  0  0  0  0
    4.7457   -0.5258   26.8372 H   0  0  0  0  0  0  0  0  0  0  0  0
    7.2830   -0.0609   22.3714 C   0  0  0  0  0  0  0  0  0  0  0  0
    6.6677    0.7553   22.6904 H   0  0  0  0  0  0  0  0  0  0  0  0
    5.3783    0.7512   20.1710 C   0  0  0  0  0  0  0  0  0  0  0  0
    4.9081    0.7226   21.1558 H   0  0  0  0  0  0  0  0  0  0  0  0
    4.7558    1.3517   19.0813 C   0  0  0  0  0  0  0  0  0  0  0  0
    3.8070    1.8656   19.1849 H   0  0  0  0  0  0  0  0  0  0  0  0
  1  2  1  0
  2  3  2  0
  3  4  1  0
  4  5  1  0
  4  6  2  0
  6  7  1  0
  7  8  2  0
  8  9  1  0
  9 10  2  0
  9 11  1  0
 11 12  1  0
 11 13  1  0
 13 14  1  0
 14 15  1  0
 14 16  1  0
 16 17  2  0
 16 18  1  0
 18 19  1  0
 18 20  1  0
 20 21  2  0
 21 22  1  0
 21 23  1  0
 23 24  1  0
 23 25  2  0
 25 26  1  0
 25 27  1  0
 27 28  1  0
 27 29  2  0
 29 30  1  0
 13 31  2  0
 31 32  1  0
  6 33  1  0
 33 34  1  0
 33 35  2  0
 35 36  1  0
 35  2  1  0
 31  7  1  0
 29 20  1  0
M  END
>  <cnnaffinity>  (1) 
-5.20587

>  <filename>  (1) 
O=C(Nc1ccccc1)Nc1cc(-c2cccnc2)nc(=O)[nH]1

$$$$
