
     RDKit          3D

 31 33  0  0  0  0  0  0  0  0999 V2000
    4.9519    1.7446   16.8800 H   0  0  0  0  0  0  0  0  0  0  0  0
    5.3861    1.3404   17.7896 C   0  0  0  0  0  0  0  0  0  0  0  0
    6.5992    0.7862   17.6542 N   0  0  0  0  0  0  0  0  0  0  0  0
    7.1608    0.2794   18.7559 C   0  0  0  0  0  0  0  0  0  0  0  0
    8.1578   -0.1367   18.6132 H   0  0  0  0  0  0  0  0  0  0  0  0
    6.5604    0.2882   20.0298 C   0  0  0  0  0  0  0  0  0  0  0  0
    7.2365   -0.4267   21.1452 C   0  0  0  0  0  0  0  0  0  0  0  0
    7.5540    0.5301   22.5786 S   0  0  0  0  0  0  0  0  0  0  0  0
    8.1829   -0.6969   23.6814 C   0  0  0  0  0  0  0  0  0  0  0  0
    8.3145   -0.3224   25.0212 N   0  0  0  0  0  0  0  0  0  0  0  0
    8.4335   -1.0842   25.6684 H   0  0  0  0  0  0  0  0  0  0  0  0
    8.3239    0.9620   25.5204 C   0  0  0  0  0  0  0  0  0  0  0  0
    8.5511    1.9368   24.8259 O   0  0  0  0  0  0  0  0  0  0  0  0
    7.9673    1.0952   26.9617 C   0  0  0  0  0  0  0  0  0  0  0  0
    7.8502    2.7202   27.5467 S   0  0  0  0  0  0  0  0  0  0  0  0
    7.4186    2.1952   29.1119 C   0  0  0  0  0  0  0  0  0  0  0  0
    7.2373    2.9143   29.9026 H   0  0  0  0  0  0  0  0  0  0  0  0
    7.3487    0.8343   29.1938 C   0  0  0  0  0  0  0  0  0  0  0  0
    7.1052    0.3043   30.1101 H   0  0  0  0  0  0  0  0  0  0  0  0
    7.6415    0.1978   27.9510 C   0  0  0  0  0  0  0  0  0  0  0  0
    7.5750   -0.8823   27.8310 H   0  0  0  0  0  0  0  0  0  0  0  0
    8.5129   -1.9566   23.3398 C   0  0  0  0  0  0  0  0  0  0  0  0
    8.9906   -2.6321   24.0480 H   0  0  0  0  0  0  0  0  0  0  0  0
    8.2443   -2.5506   22.0417 C   0  0  0  0  0  0  0  0  0  0  0  0
    8.5297   -3.7151   21.7963 O   0  0  0  0  0  0  0  0  0  0  0  0
    7.6087   -1.7123   21.0041 C   0  0  0  0  0  0  0  0  0  0  0  0
    7.4429   -2.2280   20.0672 H   0  0  0  0  0  0  0  0  0  0  0  0
    5.3155    0.9271   20.1612 C   0  0  0  0  0  0  0  0  0  0  0  0
    4.8552    1.0324   21.1456 H   0  0  0  0  0  0  0  0  0  0  0  0
    4.7055    1.4326   19.0096 C   0  0  0  0  0  0  0  0  0  0  0  0
    3.7405    1.9277   19.0501 H   0  0  0  0  0  0  0  0  0  0  0  0
  1  2  1  0
  2  3  2  0
  3  4  1  0
  4  5  1  0
  4  6  2  0
  6  7  1  0
  7  8  1  0
  8  9  1  0
  9 10  1  0
 10 11  1  0
 10 12  1  0
 12 13  2  0
 12 14  1  0
 14 15  1  0
 15 16  1  0
 16 17  1  0
 16 18  2  0
 18 19  1  0
 18 20  1  0
 20 21  1  0
  9 22  2  0
 22 23  1  0
 22 24  1  0
 24 25  2  0
 24 26  1  0
 26 27  1  0
  6 28  1  0
 28 29  1  0
 28 30  2  0
 30 31  1  0
 30  2  1  0
 26  7  2  0
 20 14  2  0
M  END
>  <cnnaffinity>  (1) 
-5.27736

>  <filename>  (1) 
O=C(Nc1cc(=O)cc(-c2cccnc2)s1)c1cccs1

$$$$
