
     RDKit          3D

 28 29  0  0  0  0  0  0  0  0999 V2000
    4.9237    1.7848   16.8045 H   0  0  0  0  0  0  0  0  0  0  0  0
    5.4327    1.3172   17.6448 C   0  0  0  0  0  0  0  0  0  0  0  0
    6.6056    0.7281   17.3709 N   0  0  0  0  0  0  0  0  0  0  0  0
    7.2808    0.1939   18.3901 C   0  0  0  0  0  0  0  0  0  0  0  0
    8.2411   -0.2519   18.1469 H   0  0  0  0  0  0  0  0  0  0  0  0
    6.8112    0.1876   19.7153 C   0  0  0  0  0  0  0  0  0  0  0  0
    7.7359   -0.3961   20.7296 C   0  0  0  0  0  0  0  0  0  0  0  0
    8.9001   -0.5947   20.4803 O   0  0  0  0  0  0  0  0  0  0  0  0
    7.0748   -0.7720   22.4475 S   0  0  0  0  0  0  0  0  0  0  0  0
    6.2285   -2.2606   22.3257 N   0  0  0  0  0  0  0  0  0  0  0  0
    5.3248   -2.2233   22.7869 H   0  0  0  0  0  0  0  0  0  0  0  0
    6.9881   -3.4926   22.5727 C   0  0  0  0  0  0  0  0  0  0  0  0
    7.7844   -3.5210   21.8177 H   0  0  0  0  0  0  0  0  0  0  0  0
    7.4884   -3.4682   23.5564 H   0  0  0  0  0  0  0  0  0  0  0  0
    6.0934   -4.7176   22.4699 C   0  0  0  0  0  0  0  0  0  0  0  0
    5.2191   -5.0419   23.5170 C   0  0  0  0  0  0  0  0  0  0  0  0
    5.2236   -4.4720   24.4378 H   0  0  0  0  0  0  0  0  0  0  0  0
    4.3338   -6.1098   23.3768 C   0  0  0  0  0  0  0  0  0  0  0  0
    3.6671   -6.3952   24.1902 H   0  0  0  0  0  0  0  0  0  0  0  0
    4.2441   -6.8388   22.2621 N   0  0  0  0  0  0  0  0  0  0  0  0
    5.1015   -6.5623   21.2734 C   0  0  0  0  0  0  0  0  0  0  0  0
    5.0337   -7.1997   20.3941 H   0  0  0  0  0  0  0  0  0  0  0  0
    6.0422   -5.5332   21.3311 C   0  0  0  0  0  0  0  0  0  0  0  0
    6.7229   -5.3896   20.5028 H   0  0  0  0  0  0  0  0  0  0  0  0
    5.5661    0.7674   19.9873 C   0  0  0  0  0  0  0  0  0  0  0  0
    5.1525    0.7946   20.9974 H   0  0  0  0  0  0  0  0  0  0  0  0
    4.8711    1.3424   18.9248 C   0  0  0  0  0  0  0  0  0  0  0  0
    3.9184    1.8291   19.0825 H   0  0  0  0  0  0  0  0  0  0  0  0
  1  2  1  0
  2  3  2  0
  3  4  1  0
  4  5  1  0
  4  6  2  0
  6  7  1  0
  7  8  2  0
  7  9  1  0
  9 10  1  0
 10 11  1  0
 10 12  1  0
 12 13  1  0
 12 14  1  0
 12 15  1  0
 15 16  2  0
 16 17  1  0
 16 18  1  0
 18 19  1  0
 18 20  2  0
 20 21  1  0
 21 22  1  0
 21 23  2  0
 23 24  1  0
  6 25  1  0
 25 26  1  0
 25 27  2  0
 27 28  1  0
 27  2  1  0
 23 15  1  0
M  END
>  <cnnaffinity>  (1) 
-4.18907

>  <filename>  (1) 
O=C(SNCc1ccncc1)c1cccnc1

$$$$
