
     RDKit          3D

 32 34  0  0  0  0  0  0  0  0999 V2000
    4.9938    1.7881   16.8994 H   0  0  0  0  0  0  0  0  0  0  0  0
    5.4527    1.3211   17.7704 C   0  0  0  0  0  0  0  0  0  0  0  0
    6.6348    0.7216   17.5656 N   0  0  0  0  0  0  0  0  0  0  0  0
    7.2233    0.1436   18.6194 C   0  0  0  0  0  0  0  0  0  0  0  0
    8.1699   -0.3425   18.3916 H   0  0  0  0  0  0  0  0  0  0  0  0
    6.6982    0.1231   19.9319 C   0  0  0  0  0  0  0  0  0  0  0  0
    7.4421   -0.5438   21.0266 C   0  0  0  0  0  0  0  0  0  0  0  0
    6.9429   -0.4927   22.6873 S   0  0  0  0  0  0  0  0  0  0  0  0
    8.1917   -1.5798   23.1730 C   0  0  0  0  0  0  0  0  0  0  0  0
    8.2324   -1.9586   24.6098 C   0  0  0  0  0  0  0  0  0  0  0  0
    7.5348   -1.4239   25.4579 O   0  0  0  0  0  0  0  0  0  0  0  0
    9.1266   -2.9383   24.9070 N   0  0  0  0  0  0  0  0  0  0  0  0
    9.5103   -3.4486   24.1308 H   0  0  0  0  0  0  0  0  0  0  0  0
    9.3331   -3.4466   26.2483 C   0  0  0  0  0  0  0  0  0  0  0  0
   10.3437   -3.8748   26.2833 H   0  0  0  0  0  0  0  0  0  0  0  0
    9.3048   -2.5913   26.9378 H   0  0  0  0  0  0  0  0  0  0  0  0
    8.3188   -4.4849   26.6906 C   0  0  0  0  0  0  0  0  0  0  0  0
    7.2890   -4.1266   26.6728 H   0  0  0  0  0  0  0  0  0  0  0  0
    8.4985   -5.9510   26.3888 C   0  0  0  0  0  0  0  0  0  0  0  0
    9.3578   -6.2674   25.7972 H   0  0  0  0  0  0  0  0  0  0  0  0
    7.5900   -6.5213   26.2044 H   0  0  0  0  0  0  0  0  0  0  0  0
    8.7223   -5.4379   27.7837 C   0  0  0  0  0  0  0  0  0  0  0  0
    9.7543   -5.3775   28.1304 H   0  0  0  0  0  0  0  0  0  0  0  0
    8.0103   -5.6891   28.5658 H   0  0  0  0  0  0  0  0  0  0  0  0
    8.9902   -1.9247   22.1059 C   0  0  0  0  0  0  0  0  0  0  0  0
    9.8693   -2.5669   22.1443 H   0  0  0  0  0  0  0  0  0  0  0  0
    8.5690   -1.3180   20.8996 C   0  0  0  0  0  0  0  0  0  0  0  0
    9.1037   -1.4506   19.9656 H   0  0  0  0  0  0  0  0  0  0  0  0
    5.4386    0.7384   20.1083 C   0  0  0  0  0  0  0  0  0  0  0  0
    4.9514    0.7352   21.0829 H   0  0  0  0  0  0  0  0  0  0  0  0
    4.8141    1.3419   19.0137 C   0  0  0  0  0  0  0  0  0  0  0  0
    3.8493    1.8259   19.1187 H   0  0  0  0  0  0  0  0  0  0  0  0
  1  2  1  0
  2  3  2  0
  3  4  1  0
  4  5  1  0
  4  6  2  0
  6  7  1  0
  7  8  1  0
  8  9  1  0
  9 10  1  0
 10 11  2  0
 10 12  1  0
 12 13  1  0
 12 14  1  0
 14 15  1  0
 14 16  1  0
 14 17  1  0
 17 18  1  0
 17 19  1  0
 19 20  1  0
 19 21  1  0
 19 22  1  0
 22 23  1  0
 22 24  1  0
  9 25  2  0
 25 26  1  0
 25 27  1  0
 27 28  1  0
  6 29  1  0
 29 30  1  0
 29 31  2  0
 31 32  1  0
 31  2  1  0
 27  7  2  0
 22 17  1  0
M  END
>  <cnnaffinity>  (1) 
-4.41041

>  <filename>  (1) 
O=C(NCC1CC1)c1ccc(-c2cccnc2)s1

$$$$
