
     RDKit          3D

 35 37  0  0  0  0  0  0  0  0999 V2000
    5.0124    1.7954   16.9666 H   0  0  0  0  0  0  0  0  0  0  0  0
    5.4295    1.2897   17.8352 C   0  0  0  0  0  0  0  0  0  0  0  0
    6.5982    0.6551   17.6478 N   0  0  0  0  0  0  0  0  0  0  0  0
    7.1415    0.0359   18.7021 C   0  0  0  0  0  0  0  0  0  0  0  0
    8.0884   -0.4802   18.5451 H   0  0  0  0  0  0  0  0  0  0  0  0
    6.5536    0.0136   19.9804 C   0  0  0  0  0  0  0  0  0  0  0  0
    7.1799   -0.6989   21.0658 N   0  0  0  0  0  0  0  0  0  0  0  0
    7.9121   -0.1548   22.1099 C   0  0  0  0  0  0  0  0  0  0  0  0
    7.9496    1.3351   22.4527 C   0  0  0  0  0  0  0  0  0  0  0  0
    7.7274    2.2219   21.6448 O   0  0  0  0  0  0  0  0  0  0  0  0
    8.2087    1.5704   23.7673 N   0  0  0  0  0  0  0  0  0  0  0  0
    8.6052    0.7965   24.2790 H   0  0  0  0  0  0  0  0  0  0  0  0
    8.3202    2.9116   24.3186 C   0  0  0  0  0  0  0  0  0  0  0  0
    7.4278    3.4829   24.0425 H   0  0  0  0  0  0  0  0  0  0  0  0
    8.3145    2.8102   25.4090 H   0  0  0  0  0  0  0  0  0  0  0  0
    9.5653    3.6391   23.8504 C   0  0  0  0  0  0  0  0  0  0  0  0
   10.8428    3.1521   24.1634 C   0  0  0  0  0  0  0  0  0  0  0  0
   10.9444    2.2755   24.8047 H   0  0  0  0  0  0  0  0  0  0  0  0
   11.9837    3.7848   23.6636 C   0  0  0  0  0  0  0  0  0  0  0  0
   12.9649    3.3614   23.8565 H   0  0  0  0  0  0  0  0  0  0  0  0
   11.8618    4.9366   22.8764 C   0  0  0  0  0  0  0  0  0  0  0  0
   12.7517    5.4326   22.4969 H   0  0  0  0  0  0  0  0  0  0  0  0
   10.5945    5.4305   22.5611 C   0  0  0  0  0  0  0  0  0  0  0  0
   10.4846    6.2660   21.8733 H   0  0  0  0  0  0  0  0  0  0  0  0
    9.4541    4.7720   23.0308 C   0  0  0  0  0  0  0  0  0  0  0  0
    8.4619    5.0990   22.7225 H   0  0  0  0  0  0  0  0  0  0  0  0
    8.4682   -1.0977   22.8294 N   0  0  0  0  0  0  0  0  0  0  0  0
    8.0531   -2.2424   22.2456 N   0  0  0  0  0  0  0  0  0  0  0  0
    8.2124   -3.1445   22.6668 H   0  0  0  0  0  0  0  0  0  0  0  0
    7.1709   -2.0784   21.2364 C   0  0  0  0  0  0  0  0  0  0  0  0
    6.2817   -3.2508   20.4794 S   0  0  0  0  0  0  0  0  0  0  0  0
    5.3339    0.6673   20.1645 C   0  0  0  0  0  0  0  0  0  0  0  0
    4.8655    0.6769   21.1488 H   0  0  0  0  0  0  0  0  0  0  0  0
    4.7627    1.3163   19.0627 C   0  0  0  0  0  0  0  0  0  0  0  0
    3.8306    1.8627   19.1508 H   0  0  0  0  0  0  0  0  0  0  0  0
  1  2  1  0
  2  3  2  0
  3  4  1  0
  4  5  1  0
  4  6  2  0
  6  7  1  0
  7  8  1  0
  8  9  1  0
  9 10  2  0
  9 11  1  0
 11 12  1  0
 11 13  1  0
 13 14  1  0
 13 15  1  0
 13 16  1  0
 16 17  2  0
 17 18  1  0
 17 19  1  0
 19 20  1  0
 19 21  2  0
 21 22  1  0
 21 23  1  0
 23 24  1  0
 23 25  2  0
 25 26  1  0
  8 27  2  0
 27 28  1  0
 28 29  1  0
 28 30  1  0
 30 31  2  0
  6 32  1  0
 32 33  1  0
 32 34  2  0
 34 35  1  0
 34  2  1  0
 30  7  1  0
 25 16  1  0
M  END
>  <cnnaffinity>  (1) 
-5.01661

>  <filename>  (1) 
O=C(NCc1ccccc1)c1n[nH]c(=S)n1-c1cccnc1

$$$$
