
     RDKit          3D

 31 32  0  0  0  0  0  0  0  0999 V2000
    5.0260    1.7006   17.0078 H   0  0  0  0  0  0  0  0  0  0  0  0
    5.4630    1.2521   17.8983 C   0  0  0  0  0  0  0  0  0  0  0  0
    6.6381    0.6293   17.7247 N   0  0  0  0  0  0  0  0  0  0  0  0
    7.2165    0.0887   18.7944 C   0  0  0  0  0  0  0  0  0  0  0  0
    8.1725   -0.4145   18.6390 H   0  0  0  0  0  0  0  0  0  0  0  0
    6.6326    0.1407   20.0487 C   0  0  0  0  0  0  0  0  0  0  0  0
    7.5457   -0.7525   21.2071 S   0  0  0  0  0  0  0  0  0  0  0  0
    6.9352   -2.0450   21.4544 O   0  0  0  0  0  0  0  0  0  0  0  0
    8.9456   -0.6054   20.8919 O   0  0  0  0  0  0  0  0  0  0  0  0
    7.1432    0.0248   22.5752 N   0  0  0  0  0  0  0  0  0  0  0  0
    6.7540   -0.6318   23.2214 H   0  0  0  0  0  0  0  0  0  0  0  0
    7.5880    1.3063   22.7529 C   0  0  0  0  0  0  0  0  0  0  0  0
    8.1450    1.8811   21.8432 O   0  0  0  0  0  0  0  0  0  0  0  0
    7.2330    1.9519   24.0858 C   0  0  0  0  0  0  0  0  0  0  0  0
    6.8447    1.1756   24.7658 H   0  0  0  0  0  0  0  0  0  0  0  0
    8.4131    2.7008   24.7566 C   0  0  0  0  0  0  0  0  0  0  0  0
    9.0289    3.1644   23.9758 H   0  0  0  0  0  0  0  0  0  0  0  0
    9.0632    2.0305   25.3296 H   0  0  0  0  0  0  0  0  0  0  0  0
    7.7781    3.7932   25.6412 C   0  0  0  0  0  0  0  0  0  0  0  0
    7.7026    3.4615   26.6833 H   0  0  0  0  0  0  0  0  0  0  0  0
    8.3953    4.6990   25.6522 H   0  0  0  0  0  0  0  0  0  0  0  0
    6.3683    4.0640   25.0645 C   0  0  0  0  0  0  0  0  0  0  0  0
    5.6048    3.9195   25.8367 H   0  0  0  0  0  0  0  0  0  0  0  0
    6.2631    5.0982   24.7169 H   0  0  0  0  0  0  0  0  0  0  0  0
    6.1777    3.0775   23.8948 C   0  0  0  0  0  0  0  0  0  0  0  0
    6.3819    3.5939   22.9477 H   0  0  0  0  0  0  0  0  0  0  0  0
    5.1582    2.6796   23.8363 H   0  0  0  0  0  0  0  0  0  0  0  0
    5.3889    0.7456   20.2506 C   0  0  0  0  0  0  0  0  0  0  0  0
    4.8843    0.7733   21.2199 H   0  0  0  0  0  0  0  0  0  0  0  0
    4.8047    1.3245   19.1303 C   0  0  0  0  0  0  0  0  0  0  0  0
    3.8538    1.8349   19.1941 H   0  0  0  0  0  0  0  0  0  0  0  0
  1  2  1  0
  2  3  2  0
  3  4  1  0
  4  5  1  0
  4  6  2  0
  6  7  1  0
  7  8  2  0
  7  9  2  0
  7 10  1  0
 10 11  1  0
 10 12  1  0
 12 13  2  0
 12 14  1  0
 14 15  1  0
 14 16  1  0
 16 17  1  0
 16 18  1  0
 16 19  1  0
 19 20  1  0
 19 21  1  0
 19 22  1  0
 22 23  1  0
 22 24  1  0
 22 25  1  0
 25 26  1  0
 25 27  1  0
  6 28  1  0
 28 29  1  0
 28 30  2  0
 30 31  1  0
 30  2  1  0
 25 14  1  0
M  END
>  <cnnaffinity>  (1) 
-4.7578

>  <filename>  (1) 
O=C(NS(=O)(=O)c1cccnc1)C1CCCC1

$$$$
