
     RDKit          3D

 37 39  0  0  0  0  0  0  0  0999 V2000
    5.0535    1.7997   16.9292 H   0  0  0  0  0  0  0  0  0  0  0  0
    5.4961    1.2949   17.7876 C   0  0  0  0  0  0  0  0  0  0  0  0
    6.6717    0.6770   17.5810 N   0  0  0  0  0  0  0  0  0  0  0  0
    7.2273    0.0201   18.6137 C   0  0  0  0  0  0  0  0  0  0  0  0
    8.1718   -0.4851   18.4209 H   0  0  0  0  0  0  0  0  0  0  0  0
    6.6431   -0.0693   19.8959 C   0  0  0  0  0  0  0  0  0  0  0  0
    7.1882   -0.8732   20.9348 N   0  0  0  0  0  0  0  0  0  0  0  0
    6.6930   -1.7664   21.0396 H   0  0  0  0  0  0  0  0  0  0  0  0
    7.3784   -0.3561   22.2287 C   0  0  0  0  0  0  0  0  0  0  0  0
    7.2921    0.9598   22.7709 C   0  0  0  0  0  0  0  0  0  0  0  0
    7.1208    1.8930   22.2531 H   0  0  0  0  0  0  0  0  0  0  0  0
    7.4341    0.9527   24.0957 N   0  0  0  0  0  0  0  0  0  0  0  0
    7.6286   -0.3404   24.3977 N   0  0  0  0  0  0  0  0  0  0  0  0
    7.7282   -0.5929   25.3702 H   0  0  0  0  0  0  0  0  0  0  0  0
    7.6374   -1.1708   23.3162 C   0  0  0  0  0  0  0  0  0  0  0  0
    7.8659   -2.6599   23.4309 C   0  0  0  0  0  0  0  0  0  0  0  0
    8.2123   -3.0595   22.4682 H   0  0  0  0  0  0  0  0  0  0  0  0
    8.6580   -2.8771   24.1627 H   0  0  0  0  0  0  0  0  0  0  0  0
    6.6639   -3.3902   23.8375 N   0  0  0  0  0  0  0  0  0  0  0  0
    6.4138   -3.3625   24.8107 H   0  0  0  0  0  0  0  0  0  0  0  0
    5.6092   -3.5207   22.9864 C   0  0  0  0  0  0  0  0  0  0  0  0
    5.7382   -3.3278   21.7780 O   0  0  0  0  0  0  0  0  0  0  0  0
    4.3013   -3.9706   23.5924 C   0  0  0  0  0  0  0  0  0  0  0  0
    3.4842   -4.8444   22.8519 C   0  0  0  0  0  0  0  0  0  0  0  0
    3.8273   -5.2131   21.8919 H   0  0  0  0  0  0  0  0  0  0  0  0
    2.2067   -5.1759   23.3050 C   0  0  0  0  0  0  0  0  0  0  0  0
    1.5708   -5.8462   22.7347 H   0  0  0  0  0  0  0  0  0  0  0  0
    1.7219   -4.6203   24.4897 C   0  0  0  0  0  0  0  0  0  0  0  0
    0.7049   -4.8242   24.8092 H   0  0  0  0  0  0  0  0  0  0  0  0
    2.5389   -3.7843   25.2568 C   0  0  0  0  0  0  0  0  0  0  0  0
    2.1543   -3.3336   26.1685 H   0  0  0  0  0  0  0  0  0  0  0  0
    3.8278   -3.4744   24.8215 C   0  0  0  0  0  0  0  0  0  0  0  0
    4.4239   -2.7952   25.4361 H   0  0  0  0  0  0  0  0  0  0  0  0
    5.4295    0.6033   20.0933 C   0  0  0  0  0  0  0  0  0  0  0  0
    4.9776    0.5703   21.0848 H   0  0  0  0  0  0  0  0  0  0  0  0
    4.8451    1.2949   19.0272 C   0  0  0  0  0  0  0  0  0  0  0  0
    3.9043    1.8209   19.1451 H   0  0  0  0  0  0  0  0  0  0  0  0
  1  2  1  0
  2  3  2  0
  3  4  1  0
  4  5  1  0
  4  6  2  0
  6  7  1  0
  7  8  1  0
  7  9  1  0
  9 10  1  0
 10 11  1  0
 10 12  2  0
 12 13  1  0
 13 14  1  0
 13 15  1  0
 15 16  1  0
 16 17  1  0
 16 18  1  0
 16 19  1  0
 19 20  1  0
 19 21  1  0
 21 22  2  0
 21 23  1  0
 23 24  2  0
 24 25  1  0
 24 26  1  0
 26 27  1  0
 26 28  2  0
 28 29  1  0
 28 30  1  0
 30 31  1  0
 30 32  2  0
 32 33  1  0
  6 34  1  0
 34 35  1  0
 34 36  2  0
 36 37  1  0
 36  2  1  0
 15  9  2  0
 32 23  1  0
M  END
>  <cnnaffinity>  (1) 
-5.23426

>  <filename>  (1) 
O=C(NCc1[nH]ncc1Nc1cccnc1)c1ccccc1

$$$$
