
     RDKit          3D

 24 25  0  0  0  0  0  0  0  0999 V2000
    7.9655    3.1909   21.3856 H   0  0  0  0  0  0  0  0  0  0  0  0
    8.1859    2.4088   20.8532 O   0  0  0  0  0  0  0  0  0  0  0  0
    9.1104    1.8378   21.6264 C   0  0  0  0  0  0  0  0  0  0  0  0
    9.4778    2.3582   22.6468 O   0  0  0  0  0  0  0  0  0  0  0  0
    9.5869    0.5179   21.0739 C   0  0  0  0  0  0  0  0  0  0  0  0
   10.5895    0.3534   21.4599 H   0  0  0  0  0  0  0  0  0  0  0  0
    9.6155    0.5598   19.9864 H   0  0  0  0  0  0  0  0  0  0  0  0
    8.6820   -0.5813   21.5035 C   0  0  0  0  0  0  0  0  0  0  0  0
    8.7883   -1.4582   22.5072 C   0  0  0  0  0  0  0  0  0  0  0  0
    9.5619   -1.6844   23.2248 H   0  0  0  0  0  0  0  0  0  0  0  0
    7.6476   -2.2145   22.6003 O   0  0  0  0  0  0  0  0  0  0  0  0
    6.7618   -1.8007   21.6490 C   0  0  0  0  0  0  0  0  0  0  0  0
    5.6770   -2.2915   21.4722 O   0  0  0  0  0  0  0  0  0  0  0  0
    7.3999   -0.7645   20.9487 N   0  0  0  0  0  0  0  0  0  0  0  0
    6.7441   -0.0263   19.8985 C   0  0  0  0  0  0  0  0  0  0  0  0
    7.2507    0.0551   18.5815 C   0  0  0  0  0  0  0  0  0  0  0  0
    8.1781   -0.4475   18.3218 H   0  0  0  0  0  0  0  0  0  0  0  0
    6.6408    0.6979   17.5745 N   0  0  0  0  0  0  0  0  0  0  0  0
    5.4782    1.3094   17.8444 C   0  0  0  0  0  0  0  0  0  0  0  0
    4.9987    1.8330   17.0179 H   0  0  0  0  0  0  0  0  0  0  0  0
    4.8825    1.2877   19.1094 C   0  0  0  0  0  0  0  0  0  0  0  0
    3.9372    1.7993   19.2643 H   0  0  0  0  0  0  0  0  0  0  0  0
    5.5192    0.6071   20.1539 C   0  0  0  0  0  0  0  0  0  0  0  0
    5.0786    0.5602   21.1524 H   0  0  0  0  0  0  0  0  0  0  0  0
  1  2  1  0
  2  3  1  0
  3  4  2  0
  3  5  1  0
  5  6  1  0
  5  7  1  0
  5  8  1  0
  8  9  2  0
  9 10  1  0
  9 11  1  0
 11 12  1  0
 12 13  2  0
 12 14  1  0
 14 15  1  0
 15 16  2  0
 16 17  1  0
 16 18  1  0
 18 19  2  0
 19 20  1  0
 19 21  1  0
 21 22  1  0
 21 23  2  0
 23 24  1  0
 14  8  1  0
 23 15  1  0
M  END
>  <cnnaffinity>  (1) 
-4.44648

>  <filename>  (1) 
O=C(O)Cc1coc(=O)n1-c1cccnc1

$$$$
