
     RDKit          3D

 30 31  0  0  0  0  0  0  0  0999 V2000
    5.2033    1.6072   16.9530 H   0  0  0  0  0  0  0  0  0  0  0  0
    5.6310    1.2151   17.8734 C   0  0  0  0  0  0  0  0  0  0  0  0
    6.7905    0.5502   17.7503 N   0  0  0  0  0  0  0  0  0  0  0  0
    7.3270    0.0476   18.8697 C   0  0  0  0  0  0  0  0  0  0  0  0
    8.3046   -0.4213   18.7628 H   0  0  0  0  0  0  0  0  0  0  0  0
    6.7295    0.1276   20.1475 C   0  0  0  0  0  0  0  0  0  0  0  0
    7.2864   -0.5765   21.3797 C   0  0  0  0  0  0  0  0  0  0  0  0
    6.4890   -1.0512   21.9675 H   0  0  0  0  0  0  0  0  0  0  0  0
    7.9778   -1.3668   21.0626 H   0  0  0  0  0  0  0  0  0  0  0  0
    8.0577    0.3194   22.3534 C   0  0  0  0  0  0  0  0  0  0  0  0
    7.6736    0.5132   23.4883 O   0  0  0  0  0  0  0  0  0  0  0  0
    9.4149    0.8998   21.7919 C   0  0  0  0  0  0  0  0  0  0  0  0
    9.6218    0.8002   20.5923 O   0  0  0  0  0  0  0  0  0  0  0  0
   10.3023    1.4405   22.6909 N   0  0  0  0  0  0  0  0  0  0  0  0
   10.0957    1.3314   23.6695 H   0  0  0  0  0  0  0  0  0  0  0  0
   11.3108    2.3907   22.4199 C   0  0  0  0  0  0  0  0  0  0  0  0
   11.5790    2.8118   21.1135 C   0  0  0  0  0  0  0  0  0  0  0  0
   11.0360    2.3381   20.3163 H   0  0  0  0  0  0  0  0  0  0  0  0
   12.4630    3.8623   20.8674 C   0  0  0  0  0  0  0  0  0  0  0  0
   12.5951    4.2486   19.8621 H   0  0  0  0  0  0  0  0  0  0  0  0
   13.1154    4.4565   21.9424 C   0  0  0  0  0  0  0  0  0  0  0  0
   13.9115    5.5142   21.7130 F   0  0  0  0  0  0  0  0  0  0  0  0
   12.9132    4.0103   23.2488 C   0  0  0  0  0  0  0  0  0  0  0  0
   13.4520    4.5026   24.0470 H   0  0  0  0  0  0  0  0  0  0  0  0
   12.0144    2.9640   23.4889 C   0  0  0  0  0  0  0  0  0  0  0  0
   11.8461    2.6194   24.5048 H   0  0  0  0  0  0  0  0  0  0  0  0
    5.5455    0.8694   20.2492 C   0  0  0  0  0  0  0  0  0  0  0  0
    5.0774    1.0089   21.2247 H   0  0  0  0  0  0  0  0  0  0  0  0
    4.9807    1.4135   19.0940 C   0  0  0  0  0  0  0  0  0  0  0  0
    4.0571    1.9831   19.1280 H   0  0  0  0  0  0  0  0  0  0  0  0
  1  2  1  0
  2  3  2  0
  3  4  1  0
  4  5  1  0
  4  6  2  0
  6  7  1  0
  7  8  1  0
  7  9  1  0
  7 10  1  0
 10 11  2  0
 10 12  1  0
 12 13  2  0
 12 14  1  0
 14 15  1  0
 14 16  1  0
 16 17  2  0
 17 18  1  0
 17 19  1  0
 19 20  1  0
 19 21  2  0
 21 22  1  0
 21 23  1  0
 23 24  1  0
 23 25  2  0
 25 26  1  0
  6 27  1  0
 27 28  1  0
 27 29  2  0
 29 30  1  0
 29  2  1  0
 25 16  1  0
M  END
>  <cnnaffinity>  (1) 
-4.96874

>  <filename>  (1) 
O=C(Cc1cccnc1)C(=O)Nc1ccc(F)cc1

$$$$
