
     RDKit          3D

 36 37  0  0  0  0  0  0  0  0999 V2000
    4.9634    1.8887   16.8698 H   0  0  0  0  0  0  0  0  0  0  0  0
    5.4220    1.4088   17.7305 C   0  0  0  0  0  0  0  0  0  0  0  0
    6.6101    0.8307   17.5013 N   0  0  0  0  0  0  0  0  0  0  0  0
    7.2075    0.2294   18.5318 C   0  0  0  0  0  0  0  0  0  0  0  0
    8.1892   -0.2020   18.3347 H   0  0  0  0  0  0  0  0  0  0  0  0
    6.6347    0.1397   19.8071 C   0  0  0  0  0  0  0  0  0  0  0  0
    7.3040   -0.7087   20.8570 C   0  0  0  0  0  0  0  0  0  0  0  0
    8.6771   -0.6746   20.6568 F   0  0  0  0  0  0  0  0  0  0  0  0
    7.1112   -0.1817   22.1023 F   0  0  0  0  0  0  0  0  0  0  0  0
    6.8147   -2.2145   20.9065 C   0  0  0  0  0  0  0  0  0  0  0  0
    5.6513   -2.5195   20.7164 O   0  0  0  0  0  0  0  0  0  0  0  0
    7.8272   -3.0914   21.2018 N   0  0  0  0  0  0  0  0  0  0  0  0
    8.7602   -2.7073   21.3297 H   0  0  0  0  0  0  0  0  0  0  0  0
    7.5979   -4.4338   21.4391 N   0  0  0  0  0  0  0  0  0  0  0  0
    8.0907   -5.0632   20.8134 H   0  0  0  0  0  0  0  0  0  0  0  0
    7.6420   -4.8598   22.8376 C   0  0  0  0  0  0  0  0  0  0  0  0
    8.5437   -4.4438   23.3212 H   0  0  0  0  0  0  0  0  0  0  0  0
    6.3984   -4.3333   23.5858 C   0  0  0  0  0  0  0  0  0  0  0  0
    6.4963   -4.5807   24.6497 H   0  0  0  0  0  0  0  0  0  0  0  0
    6.3751   -3.2382   23.5211 H   0  0  0  0  0  0  0  0  0  0  0  0
    5.1009   -4.9360   23.0340 C   0  0  0  0  0  0  0  0  0  0  0  0
    4.2328   -4.5483   23.5815 H   0  0  0  0  0  0  0  0  0  0  0  0
    4.9899   -4.5806   22.0048 H   0  0  0  0  0  0  0  0  0  0  0  0
    5.1445   -6.4720   23.0982 C   0  0  0  0  0  0  0  0  0  0  0  0
    4.2263   -6.8980   22.6718 H   0  0  0  0  0  0  0  0  0  0  0  0
    5.1639   -6.7718   24.1532 H   0  0  0  0  0  0  0  0  0  0  0  0
    6.3826   -7.0479   22.3884 C   0  0  0  0  0  0  0  0  0  0  0  0
    6.2705   -6.8597   21.3143 H   0  0  0  0  0  0  0  0  0  0  0  0
    6.4244   -8.1351   22.5085 H   0  0  0  0  0  0  0  0  0  0  0  0
    7.7096   -6.3947   22.8384 C   0  0  0  0  0  0  0  0  0  0  0  0
    8.5195   -6.6781   22.1565 H   0  0  0  0  0  0  0  0  0  0  0  0
    8.0408   -6.7229   23.8269 H   0  0  0  0  0  0  0  0  0  0  0  0
    5.4038    0.7669   20.0473 C   0  0  0  0  0  0  0  0  0  0  0  0
    4.9673    0.7840   21.0476 H   0  0  0  0  0  0  0  0  0  0  0  0
    4.7869    1.4135   18.9752 C   0  0  0  0  0  0  0  0  0  0  0  0
    3.8356    1.9174   19.0898 H   0  0  0  0  0  0  0  0  0  0  0  0
  1  2  1  0
  2  3  2  0
  3  4  1  0
  4  5  1  0
  4  6  2  0
  6  7  1  0
  7  8  1  0
  7  9  1  0
  7 10  1  0
 10 11  2  0
 10 12  1  0
 12 13  1  0
 12 14  1  0
 14 15  1  0
 14 16  1  0
 16 17  1  0
 16 18  1  0
 18 19  1  0
 18 20  1  0
 18 21  1  0
 21 22  1  0
 21 23  1  0
 21 24  1  0
 24 25  1  0
 24 26  1  0
 24 27  1  0
 27 28  1  0
 27 29  1  0
 27 30  1  0
 30 31  1  0
 30 32  1  0
  6 33  1  0
 33 34  1  0
 33 35  2  0
 35 36  1  0
 35  2  1  0
 30 16  1  0
M  END
>  <cnnaffinity>  (1) 
-4.17273

>  <filename>  (1) 
O=C(NNC1CCCCC1)C(F)(F)c1cccnc1

$$$$
