
     RDKit          3D

 33 35  0  0  0  0  0  0  0  0999 V2000
    4.9159    1.7498   16.9873 H   0  0  0  0  0  0  0  0  0  0  0  0
    5.4540    1.2608   17.7985 C   0  0  0  0  0  0  0  0  0  0  0  0
    6.6056    0.6590   17.4712 N   0  0  0  0  0  0  0  0  0  0  0  0
    7.2949    0.0644   18.4497 C   0  0  0  0  0  0  0  0  0  0  0  0
    8.2267   -0.4096   18.1553 H   0  0  0  0  0  0  0  0  0  0  0  0
    6.8747    0.0317   19.7913 C   0  0  0  0  0  0  0  0  0  0  0  0
    7.8042   -0.6094   20.7804 C   0  0  0  0  0  0  0  0  0  0  0  0
    8.9159   -0.9646   20.4439 O   0  0  0  0  0  0  0  0  0  0  0  0
    7.3070   -0.8038   22.2143 C   0  0  0  0  0  0  0  0  0  0  0  0
    6.2961   -1.9345   22.3711 C   0  0  0  0  0  0  0  0  0  0  0  0
    5.9218   -1.8992   23.4049 H   0  0  0  0  0  0  0  0  0  0  0  0
    5.4432   -1.7296   21.7134 H   0  0  0  0  0  0  0  0  0  0  0  0
    6.7184   -3.3688   22.1253 C   0  0  0  0  0  0  0  0  0  0  0  0
    7.2983   -4.1059   23.1665 C   0  0  0  0  0  0  0  0  0  0  0  0
    7.6652   -3.5913   24.0495 H   0  0  0  0  0  0  0  0  0  0  0  0
    7.3643   -5.4966   23.1227 C   0  0  0  0  0  0  0  0  0  0  0  0
    7.7040   -6.0546   23.9905 H   0  0  0  0  0  0  0  0  0  0  0  0
    6.8694   -6.1767   22.0034 C   0  0  0  0  0  0  0  0  0  0  0  0
    6.8543   -7.8999   22.0586 Cl  0  0  0  0  0  0  0  0  0  0  0  0
    6.3694   -5.4548   20.9077 C   0  0  0  0  0  0  0  0  0  0  0  0
    5.7143   -6.2297   19.5015 Cl  0  0  0  0  0  0  0  0  0  0  0  0
    6.3217   -4.0606   20.9730 C   0  0  0  0  0  0  0  0  0  0  0  0
    5.9138   -3.5305   20.1197 H   0  0  0  0  0  0  0  0  0  0  0  0
    8.2272   -0.4772   23.3641 C   0  0  0  0  0  0  0  0  0  0  0  0
    9.2245   -0.1206   23.1228 H   0  0  0  0  0  0  0  0  0  0  0  0
    8.1805   -1.1133   24.2478 H   0  0  0  0  0  0  0  0  0  0  0  0
    7.0685    0.4295   23.0736 C   0  0  0  0  0  0  0  0  0  0  0  0
    6.2073    0.4152   23.7443 H   0  0  0  0  0  0  0  0  0  0  0  0
    7.2826    1.4034   22.6409 H   0  0  0  0  0  0  0  0  0  0  0  0
    5.6547    0.6471   20.1154 C   0  0  0  0  0  0  0  0  0  0  0  0
    5.2560    0.6608   21.1316 H   0  0  0  0  0  0  0  0  0  0  0  0
    4.9379    1.2776   19.0980 C   0  0  0  0  0  0  0  0  0  0  0  0
    3.9997    1.7790   19.3003 H   0  0  0  0  0  0  0  0  0  0  0  0
  1  2  1  0
  2  3  2  0
  3  4  1  0
  4  5  1  0
  4  6  2  0
  6  7  1  0
  7  8  2  0
  7  9  1  0
  9 10  1  0
 10 11  1  0
 10 12  1  0
 10 13  1  0
 13 14  2  0
 14 15  1  0
 14 16  1  0
 16 17  1  0
 16 18  2  0
 18 19  1  0
 18 20  1  0
 20 21  1  0
 20 22  2  0
 22 23  1  0
  9 24  1  0
 24 25  1  0
 24 26  1  0
 24 27  1  0
 27 28  1  0
 27 29  1  0
  6 30  1  0
 30 31  1  0
 30 32  2  0
 32 33  1  0
 32  2  1  0
 27  9  1  0
 22 13  1  0
M  END
>  <cnnaffinity>  (1) 
-4.80805

>  <filename>  (1) 
O=C(c1cccnc1)C1(Cc2ccc(Cl)c(Cl)c2)CC1

$$$$
