
     RDKit          3D

 33 34  0  0  0  0  0  0  0  0999 V2000
    5.0133    1.7621   16.9643 H   0  0  0  0  0  0  0  0  0  0  0  0
    5.4430    1.2676   17.8335 C   0  0  0  0  0  0  0  0  0  0  0  0
    6.6055    0.6239   17.6317 N   0  0  0  0  0  0  0  0  0  0  0  0
    7.1559    0.0098   18.6831 C   0  0  0  0  0  0  0  0  0  0  0  0
    8.0990   -0.5082   18.4985 H   0  0  0  0  0  0  0  0  0  0  0  0
    6.6066   -0.0069   19.9854 C   0  0  0  0  0  0  0  0  0  0  0  0
    7.2662   -0.7289   21.0153 N   0  0  0  0  0  0  0  0  0  0  0  0
    8.2254   -0.9533   20.7400 H   0  0  0  0  0  0  0  0  0  0  0  0
    7.1826   -0.2256   22.3200 N   0  0  0  0  0  0  0  0  0  0  0  0
    6.7220   -0.8013   23.0036 H   0  0  0  0  0  0  0  0  0  0  0  0
    7.5627    1.0075   22.7820 C   0  0  0  0  0  0  0  0  0  0  0  0
    8.1059    1.8919   22.1437 O   0  0  0  0  0  0  0  0  0  0  0  0
    7.2752    1.1180   24.1164 N   0  0  0  0  0  0  0  0  0  0  0  0
    6.5145    0.6099   24.5215 H   0  0  0  0  0  0  0  0  0  0  0  0
    7.3966    2.2504   24.8940 C   0  0  0  0  0  0  0  0  0  0  0  0
    6.6626    2.2961   25.8592 O   0  0  0  0  0  0  0  0  0  0  0  0
    8.3364    3.1290   24.4885 N   0  0  0  0  0  0  0  0  0  0  0  0
    8.5859    2.9912   23.5138 H   0  0  0  0  0  0  0  0  0  0  0  0
    8.6669    4.3288   25.1364 C   0  0  0  0  0  0  0  0  0  0  0  0
    8.5171    4.4976   26.5200 C   0  0  0  0  0  0  0  0  0  0  0  0
    8.1045    3.6922   27.1175 H   0  0  0  0  0  0  0  0  0  0  0  0
    8.8803    5.7173   27.1023 C   0  0  0  0  0  0  0  0  0  0  0  0
    8.7468    5.8621   28.1718 H   0  0  0  0  0  0  0  0  0  0  0  0
    9.3774    6.7636   26.3160 C   0  0  0  0  0  0  0  0  0  0  0  0
    9.6474    7.7126   26.7719 H   0  0  0  0  0  0  0  0  0  0  0  0
    9.5164    6.5862   24.9349 C   0  0  0  0  0  0  0  0  0  0  0  0
    9.8742    7.3951   24.3048 H   0  0  0  0  0  0  0  0  0  0  0  0
    9.1708    5.3665   24.3458 C   0  0  0  0  0  0  0  0  0  0  0  0
    9.2582    5.1998   23.2743 H   0  0  0  0  0  0  0  0  0  0  0  0
    5.3851    0.6540   20.1686 C   0  0  0  0  0  0  0  0  0  0  0  0
    4.9233    0.6713   21.1542 H   0  0  0  0  0  0  0  0  0  0  0  0
    4.7992    1.3014   19.0741 C   0  0  0  0  0  0  0  0  0  0  0  0
    3.8653    1.8434   19.1799 H   0  0  0  0  0  0  0  0  0  0  0  0
  1  2  1  0
  2  3  2  0
  3  4  1  0
  4  5  1  0
  4  6  2  0
  6  7  1  0
  7  8  1  0
  7  9  1  0
  9 10  1  0
  9 11  1  0
 11 12  2  0
 11 13  1  0
 13 14  1  0
 13 15  1  0
 15 16  2  0
 15 17  1  0
 17 18  1  0
 17 19  1  0
 19 20  2  0
 20 21  1  0
 20 22  1  0
 22 23  1  0
 22 24  2  0
 24 25  1  0
 24 26  1  0
 26 27  1  0
 26 28  2  0
 28 29  1  0
  6 30  1  0
 30 31  1  0
 30 32  2  0
 32 33  1  0
 32  2  1  0
 28 19  1  0
M  END
>  <cnnaffinity>  (1) 
-4.56093

>  <filename>  (1) 
O=C(NNc1cccnc1)NC(=O)Nc1ccccc1

$$$$
