
     RDKit          3D

 41 43  0  0  0  0  0  0  0  0999 V2000
    5.0143    1.7975   16.9891 H   0  0  0  0  0  0  0  0  0  0  0  0
    5.4384    1.2585   17.8345 C   0  0  0  0  0  0  0  0  0  0  0  0
    6.5873    0.6075   17.6002 N   0  0  0  0  0  0  0  0  0  0  0  0
    7.1467   -0.0268   18.6363 C   0  0  0  0  0  0  0  0  0  0  0  0
    8.0797   -0.5538   18.4431 H   0  0  0  0  0  0  0  0  0  0  0  0
    6.6102   -0.0670   19.9389 C   0  0  0  0  0  0  0  0  0  0  0  0
    7.3667   -0.7580   21.0450 C   0  0  0  0  0  0  0  0  0  0  0  0
    7.1052   -2.2591   21.2693 C   0  0  0  0  0  0  0  0  0  0  0  0
    7.9552   -3.1289   21.1911 O   0  0  0  0  0  0  0  0  0  0  0  0
    5.8107   -2.4972   21.6501 N   0  0  0  0  0  0  0  0  0  0  0  0
    5.2666   -1.7093   21.9736 H   0  0  0  0  0  0  0  0  0  0  0  0
    5.4594   -3.6911   22.2407 O   0  0  0  0  0  0  0  0  0  0  0  0
    6.1831   -3.9483   23.4613 C   0  0  0  0  0  0  0  0  0  0  0  0
    7.2550   -3.7644   23.3069 H   0  0  0  0  0  0  0  0  0  0  0  0
    5.8228   -3.2884   24.2649 H   0  0  0  0  0  0  0  0  0  0  0  0
    5.9489   -5.4204   23.7710 C   0  0  0  0  0  0  0  0  0  0  0  0
    4.8700   -5.6037   23.8480 H   0  0  0  0  0  0  0  0  0  0  0  0
    6.2939   -6.0124   22.9150 H   0  0  0  0  0  0  0  0  0  0  0  0
    6.5812   -5.9608   24.9683 N   0  0  0  0  0  0  0  0  0  0  0  0
    8.0446   -5.9934   25.0363 C   0  0  0  0  0  0  0  0  0  0  0  0
    8.5021   -6.0456   24.0363 H   0  0  0  0  0  0  0  0  0  0  0  0
    8.3495   -6.9043   25.5747 H   0  0  0  0  0  0  0  0  0  0  0  0
    8.4775   -4.7550   25.8512 C   0  0  0  0  0  0  0  0  0  0  0  0
    8.7399   -3.9405   25.1692 H   0  0  0  0  0  0  0  0  0  0  0  0
    9.3667   -4.9584   26.4566 H   0  0  0  0  0  0  0  0  0  0  0  0
    7.2281   -4.3992   26.6951 C   0  0  0  0  0  0  0  0  0  0  0  0
    6.8861   -3.3787   26.4943 H   0  0  0  0  0  0  0  0  0  0  0  0
    7.4080   -4.4653   27.7707 H   0  0  0  0  0  0  0  0  0  0  0  0
    6.1629   -5.4337   26.2631 C   0  0  0  0  0  0  0  0  0  0  0  0
    6.1320   -6.2691   26.9790 H   0  0  0  0  0  0  0  0  0  0  0  0
    5.1438   -5.0280   26.2098 H   0  0  0  0  0  0  0  0  0  0  0  0
    7.7216    0.0734   22.2709 C   0  0  0  0  0  0  0  0  0  0  0  0
    7.3722    1.1062   22.2847 H   0  0  0  0  0  0  0  0  0  0  0  0
    7.7398   -0.4070   23.2477 H   0  0  0  0  0  0  0  0  0  0  0  0
    8.7883   -0.3030   21.2890 C   0  0  0  0  0  0  0  0  0  0  0  0
    9.2038    0.4570   20.6271 H   0  0  0  0  0  0  0  0  0  0  0  0
    9.4992   -1.0776   21.5659 H   0  0  0  0  0  0  0  0  0  0  0  0
    5.3892    0.5869   20.1489 C   0  0  0  0  0  0  0  0  0  0  0  0
    4.9282    0.5918   21.1423 H   0  0  0  0  0  0  0  0  0  0  0  0
    4.7994    1.2663   19.0812 C   0  0  0  0  0  0  0  0  0  0  0  0
    3.8760    1.8205   19.2019 H   0  0  0  0  0  0  0  0  0  0  0  0
  1  2  1  0
  2  3  2  0
  3  4  1  0
  4  5  1  0
  4  6  2  0
  6  7  1  0
  7  8  1  0
  8  9  2  0
  8 10  1  0
 10 11  1  0
 10 12  1  0
 12 13  1  0
 13 14  1  0
 13 15  1  0
 13 16  1  0
 16 17  1  0
 16 18  1  0
 16 19  1  0
 19 20  1  0
 20 21  1  0
 20 22  1  0
 20 23  1  0
 23 24  1  0
 23 25  1  0
 23 26  1  0
 26 27  1  0
 26 28  1  0
 26 29  1  0
 29 30  1  0
 29 31  1  0
  7 32  1  0
 32 33  1  0
 32 34  1  0
 32 35  1  0
 35 36  1  0
 35 37  1  0
  6 38  1  0
 38 39  1  0
 38 40  2  0
 40 41  1  0
 40  2  1  0
 35  7  1  0
 29 19  1  0
M  END
>  <cnnaffinity>  (1) 
-5.09628

>  <filename>  (1) 
O=C(NOCCN1CCCC1)C1(c2cccnc2)CC1

$$$$
