
     RDKit          3D

 38 40  0  0  0  0  0  0  0  0999 V2000
    4.9294    1.8029   16.9806 H   0  0  0  0  0  0  0  0  0  0  0  0
    5.3919    1.2991   17.8296 C   0  0  0  0  0  0  0  0  0  0  0  0
    6.5554    0.6767   17.5825 N   0  0  0  0  0  0  0  0  0  0  0  0
    7.1738    0.0727   18.6025 C   0  0  0  0  0  0  0  0  0  0  0  0
    8.1229   -0.4035   18.3627 H   0  0  0  0  0  0  0  0  0  0  0  0
    6.6686    0.0446   19.9214 C   0  0  0  0  0  0  0  0  0  0  0  0
    7.3628   -0.6375   20.9736 N   0  0  0  0  0  0  0  0  0  0  0  0
    7.6631   -1.9798   20.9436 C   0  0  0  0  0  0  0  0  0  0  0  0
    7.2957   -2.5757   20.1232 H   0  0  0  0  0  0  0  0  0  0  0  0
    8.2791   -2.3974   22.0181 N   0  0  0  0  0  0  0  0  0  0  0  0
    8.3710   -1.2917   22.8333 C   0  0  0  0  0  0  0  0  0  0  0  0
    8.7974   -1.3151   23.8317 H   0  0  0  0  0  0  0  0  0  0  0  0
    7.8060   -0.2011   22.2149 C   0  0  0  0  0  0  0  0  0  0  0  0
    7.6031    1.1095   22.6632 N   0  0  0  0  0  0  0  0  0  0  0  0
    7.0322    1.7221   22.0993 H   0  0  0  0  0  0  0  0  0  0  0  0
    8.2734    1.6362   23.7515 C   0  0  0  0  0  0  0  0  0  0  0  0
    9.2227    1.0621   24.2585 O   0  0  0  0  0  0  0  0  0  0  0  0
    7.7795    2.9757   24.2781 C   0  0  0  0  0  0  0  0  0  0  0  0
    6.7824    3.1826   23.8625 H   0  0  0  0  0  0  0  0  0  0  0  0
    7.6729    2.9328   25.8261 C   0  0  0  0  0  0  0  0  0  0  0  0
    8.6527    2.6188   26.2177 H   0  0  0  0  0  0  0  0  0  0  0  0
    6.9619    2.1582   26.1442 H   0  0  0  0  0  0  0  0  0  0  0  0
    7.2678    4.2973   26.4042 C   0  0  0  0  0  0  0  0  0  0  0  0
    7.2320    4.2444   27.5000 H   0  0  0  0  0  0  0  0  0  0  0  0
    6.2422    4.5348   26.0775 H   0  0  0  0  0  0  0  0  0  0  0  0
    8.2255    5.4126   25.9492 C   0  0  0  0  0  0  0  0  0  0  0  0
    9.2212    5.2316   26.3856 H   0  0  0  0  0  0  0  0  0  0  0  0
    7.8932    6.3828   26.3397 H   0  0  0  0  0  0  0  0  0  0  0  0
    8.3439    5.4642   24.4143 C   0  0  0  0  0  0  0  0  0  0  0  0
    9.0632    6.2360   24.1099 H   0  0  0  0  0  0  0  0  0  0  0  0
    7.3735    5.7626   23.9841 H   0  0  0  0  0  0  0  0  0  0  0  0
    8.7513    4.1003   23.8276 C   0  0  0  0  0  0  0  0  0  0  0  0
    8.7985    4.1553   22.7300 H   0  0  0  0  0  0  0  0  0  0  0  0
    9.7631    3.8290   24.1688 H   0  0  0  0  0  0  0  0  0  0  0  0
    5.4372    0.6656   20.1580 C   0  0  0  0  0  0  0  0  0  0  0  0
    5.0011    0.6212   21.1547 H   0  0  0  0  0  0  0  0  0  0  0  0
    4.7955    1.3119   19.0940 C   0  0  0  0  0  0  0  0  0  0  0  0
    3.8632    1.8421   19.2414 H   0  0  0  0  0  0  0  0  0  0  0  0
  1  2  1  0
  2  3  2  0
  3  4  1  0
  4  5  1  0
  4  6  2  0
  6  7  1  0
  7  8  1  0
  8  9  1  0
  8 10  2  0
 10 11  1  0
 11 12  1  0
 11 13  2  0
 13 14  1  0
 14 15  1  0
 14 16  1  0
 16 17  2  0
 16 18  1  0
 18 19  1  0
 18 20  1  0
 20 21  1  0
 20 22  1  0
 20 23  1  0
 23 24  1  0
 23 25  1  0
 23 26  1  0
 26 27  1  0
 26 28  1  0
 26 29  1  0
 29 30  1  0
 29 31  1  0
 29 32  1  0
 32 33  1  0
 32 34  1  0
  6 35  1  0
 35 36  1  0
 35 37  2  0
 37 38  1  0
 37  2  1  0
 13  7  1  0
 32 18  1  0
M  END
>  <cnnaffinity>  (1) 
-5.09563

>  <filename>  (1) 
O=C(Nc1cncn1-c1cccnc1)C1CCCCC1

$$$$
