
     RDKit          3D

 31 33  0  0  0  0  0  0  0  0999 V2000
    4.7713    2.0738   16.9171 H   0  0  0  0  0  0  0  0  0  0  0  0
    5.0526    1.3439   17.6710 C   0  0  0  0  0  0  0  0  0  0  0  0
    5.8430    0.3459   17.2437 N   0  0  0  0  0  0  0  0  0  0  0  0
    6.2475   -0.5495   18.1476 C   0  0  0  0  0  0  0  0  0  0  0  0
    6.8630   -1.3782   17.7978 H   0  0  0  0  0  0  0  0  0  0  0  0
    5.9436   -0.4598   19.5212 C   0  0  0  0  0  0  0  0  0  0  0  0
    6.6577   -1.2616   20.4643 N   0  0  0  0  0  0  0  0  0  0  0  0
    6.1972   -2.1761   21.3758 C   0  0  0  0  0  0  0  0  0  0  0  0
    5.1481   -2.3541   21.5560 H   0  0  0  0  0  0  0  0  0  0  0  0
    7.1863   -2.7614   21.9908 N   0  0  0  0  0  0  0  0  0  0  0  0
    8.3496   -2.2008   21.5207 N   0  0  0  0  0  0  0  0  0  0  0  0
    8.0275   -1.2811   20.6510 C   0  0  0  0  0  0  0  0  0  0  0  0
    8.9950   -0.3397   19.9582 C   0  0  0  0  0  0  0  0  0  0  0  0
    8.4366    0.4159   19.4037 H   0  0  0  0  0  0  0  0  0  0  0  0
    9.5597   -0.8913   19.2054 H   0  0  0  0  0  0  0  0  0  0  0  0
    9.9303    0.3575   20.8361 N   0  0  0  0  0  0  0  0  0  0  0  0
   10.7084   -0.1610   21.1993 H   0  0  0  0  0  0  0  0  0  0  0  0
    9.6195    1.5218   21.4749 C   0  0  0  0  0  0  0  0  0  0  0  0
    8.5968    2.1380   21.2256 O   0  0  0  0  0  0  0  0  0  0  0  0
   10.6218    2.0130   22.4538 C   0  0  0  0  0  0  0  0  0  0  0  0
   10.4013    3.6504   22.9593 S   0  0  0  0  0  0  0  0  0  0  0  0
   11.7749    3.5728   23.9671 C   0  0  0  0  0  0  0  0  0  0  0  0
   12.1024    4.4615   24.4872 H   0  0  0  0  0  0  0  0  0  0  0  0
   12.3700    2.3421   23.9331 C   0  0  0  0  0  0  0  0  0  0  0  0
   13.2462    2.0644   24.5022 H   0  0  0  0  0  0  0  0  0  0  0  0
   11.7206    1.4411   23.0478 C   0  0  0  0  0  0  0  0  0  0  0  0
   12.1016    0.4366   22.8655 H   0  0  0  0  0  0  0  0  0  0  0  0
    5.0436    0.5227   19.9427 C   0  0  0  0  0  0  0  0  0  0  0  0
    4.7353    0.5732   20.9867 H   0  0  0  0  0  0  0  0  0  0  0  0
    4.6008    1.4504   18.9915 C   0  0  0  0  0  0  0  0  0  0  0  0
    3.9294    2.2562   19.2664 H   0  0  0  0  0  0  0  0  0  0  0  0
  1  2  1  0
  2  3  2  0
  3  4  1  0
  4  5  1  0
  4  6  2  0
  6  7  1  0
  7  8  1  0
  8  9  1  0
  8 10  2  0
 10 11  1  0
 11 12  2  0
 12 13  1  0
 13 14  1  0
 13 15  1  0
 13 16  1  0
 16 17  1  0
 16 18  1  0
 18 19  2  0
 18 20  1  0
 20 21  1  0
 21 22  1  0
 22 23  1  0
 22 24  2  0
 24 25  1  0
 24 26  1  0
 26 27  1  0
  6 28  1  0
 28 29  1  0
 28 30  2  0
 30 31  1  0
 30  2  1  0
 12  7  1  0
 26 20  2  0
M  END
>  <cnnaffinity>  (1) 
-5.12985

>  <filename>  (1) 
O=C(NCc1nncn1-c1cccnc1)c1cccs1

$$$$
