
     RDKit          3D

 30 32  0  0  0  0  0  0  0  0999 V2000
    7.8898    0.9239   22.8303 O   0  0  0  0  0  0  0  0  0  0  0  0
    8.3424    0.4319   21.8201 C   0  0  0  0  0  0  0  0  0  0  0  0
    9.6029    0.7165   21.3611 N   0  0  0  0  0  0  0  0  0  0  0  0
   10.4851    1.5098   22.0636 C   0  0  0  0  0  0  0  0  0  0  0  0
   10.5898    1.4734   23.4725 C   0  0  0  0  0  0  0  0  0  0  0  0
   11.5360    2.2534   24.0998 C   0  0  0  0  0  0  0  0  0  0  0  0
   12.3204    3.0969   23.2769 C   0  0  0  0  0  0  0  0  0  0  0  0
   13.3427    4.0880   23.3819 C   0  0  0  0  0  0  0  0  0  0  0  0
   13.6854    4.5657   22.2057 N   0  0  0  0  0  0  0  0  0  0  0  0
   12.8914    3.9227   21.3080 N   0  0  0  0  0  0  0  0  0  0  0  0
   12.0833    3.0210   21.8854 C   0  0  0  0  0  0  0  0  0  0  0  0
   11.2326    2.2158   21.2407 N   0  0  0  0  0  0  0  0  0  0  0  0
   13.0016    3.9745   20.3078 H   0  0  0  0  0  0  0  0  0  0  0  0
   13.8358    4.4691   24.2693 H   0  0  0  0  0  0  0  0  0  0  0  0
   11.6444    2.2053   25.1816 H   0  0  0  0  0  0  0  0  0  0  0  0
    9.9209    0.8397   24.0248 H   0  0  0  0  0  0  0  0  0  0  0  0
    9.8463    0.7844   20.3859 H   0  0  0  0  0  0  0  0  0  0  0  0
    7.4951   -0.5958   20.9609 C   0  0  0  0  0  0  0  0  0  0  0  0
    8.3447   -1.5375   20.4320 F   0  0  0  0  0  0  0  0  0  0  0  0
    6.6662   -1.2592   21.8091 F   0  0  0  0  0  0  0  0  0  0  0  0
    6.6772    0.0256   19.8531 C   0  0  0  0  0  0  0  0  0  0  0  0
    5.4603    0.6669   20.1290 C   0  0  0  0  0  0  0  0  0  0  0  0
    4.8164    1.3203   19.0795 C   0  0  0  0  0  0  0  0  0  0  0  0
    5.4031    1.3035   17.8094 C   0  0  0  0  0  0  0  0  0  0  0  0
    6.5402    0.6505   17.5283 N   0  0  0  0  0  0  0  0  0  0  0  0
    7.1503    0.0180   18.5338 C   0  0  0  0  0  0  0  0  0  0  0  0
    8.0595   -0.5269   18.2862 H   0  0  0  0  0  0  0  0  0  0  0  0
    4.9392    1.8300   16.9779 H   0  0  0  0  0  0  0  0  0  0  0  0
    3.8813    1.8480   19.2275 H   0  0  0  0  0  0  0  0  0  0  0  0
    5.0265    0.6475   21.1313 H   0  0  0  0  0  0  0  0  0  0  0  0
  1  2  2  0
  2  3  1  0
  3  4  1  0
  4  5  2  0
  5  6  1  0
  6  7  2  0
  7  8  1  0
  8  9  2  0
  9 10  1  0
 10 11  1  0
 11 12  2  0
 10 13  1  0
  8 14  1  0
  6 15  1  0
  5 16  1  0
  3 17  1  0
  2 18  1  0
 18 19  1  0
 18 20  1  0
 18 21  1  0
 21 22  2  0
 22 23  1  0
 23 24  2  0
 24 25  1  0
 25 26  2  0
 26 27  1  0
 24 28  1  0
 23 29  1  0
 22 30  1  0
 12  4  1  0
 26 21  1  0
 11  7  1  0
M  END
>  <cnnaffinity>  (1) 
-5.43091

>  <filename>  (1) 
O=C(Nc1ccc2cn[nH]c2n1)C(F)(F)c1cccnc1

$$$$
