
     RDKit          3D

 28 30  0  0  0  0  0  0  0  0999 V2000
    4.9853    1.8246   16.8887 H   0  0  0  0  0  0  0  0  0  0  0  0
    5.4418    1.3096   17.7300 C   0  0  0  0  0  0  0  0  0  0  0  0
    6.5948    0.6731   17.4759 N   0  0  0  0  0  0  0  0  0  0  0  0
    7.1889    0.0528   18.4999 C   0  0  0  0  0  0  0  0  0  0  0  0
    8.1254   -0.4557   18.2796 H   0  0  0  0  0  0  0  0  0  0  0  0
    6.6651    0.0373   19.8007 C   0  0  0  0  0  0  0  0  0  0  0  0
    7.4529   -0.6730   20.8414 C   0  0  0  0  0  0  0  0  0  0  0  0
    8.4564   -1.3024   20.6188 O   0  0  0  0  0  0  0  0  0  0  0  0
    6.8627   -0.5552   22.0805 O   0  0  0  0  0  0  0  0  0  0  0  0
    7.6187   -0.8905   23.2514 N   0  0  0  0  0  0  0  0  0  0  0  0
    7.9863   -1.8458   23.1960 H   0  0  0  0  0  0  0  0  0  0  0  0
    6.8178   -0.9035   24.3990 C   0  0  0  0  0  0  0  0  0  0  0  0
    7.0635   -1.7639   25.3267 N   0  0  0  0  0  0  0  0  0  0  0  0
    6.1927   -1.5527   26.3924 C   0  0  0  0  0  0  0  0  0  0  0  0
    6.1913   -2.2791   27.5873 C   0  0  0  0  0  0  0  0  0  0  0  0
    6.9363   -3.0607   27.6797 H   0  0  0  0  0  0  0  0  0  0  0  0
    5.2403   -1.9984   28.5694 C   0  0  0  0  0  0  0  0  0  0  0  0
    5.2626   -2.5446   29.5075 H   0  0  0  0  0  0  0  0  0  0  0  0
    4.2469   -1.0238   28.3509 C   0  0  0  0  0  0  0  0  0  0  0  0
    3.4694   -0.8648   29.0988 H   0  0  0  0  0  0  0  0  0  0  0  0
    4.2400   -0.2760   27.1716 C   0  0  0  0  0  0  0  0  0  0  0  0
    3.4683    0.4735   27.0073 H   0  0  0  0  0  0  0  0  0  0  0  0
    5.2416   -0.5209   26.2163 C   0  0  0  0  0  0  0  0  0  0  0  0
    5.5570    0.2716   24.6842 S   0  0  0  0  0  0  0  0  0  0  0  0
    5.4468    0.6821   20.0518 C   0  0  0  0  0  0  0  0  0  0  0  0
    4.9965    0.6773   21.0444 H   0  0  0  0  0  0  0  0  0  0  0  0
    4.8298    1.3327   18.9874 C   0  0  0  0  0  0  0  0  0  0  0  0
    3.8973    1.8671   19.1233 H   0  0  0  0  0  0  0  0  0  0  0  0
  1  2  1  0
  2  3  2  0
  3  4  1  0
  4  5  1  0
  4  6  2  0
  6  7  1  0
  7  8  2  0
  7  9  1  0
  9 10  1  0
 10 11  1  0
 10 12  1  0
 12 13  2  0
 13 14  1  0
 14 15  2  0
 15 16  1  0
 15 17  1  0
 17 18  1  0
 17 19  2  0
 19 20  1  0
 19 21  1  0
 21 22  1  0
 21 23  2  0
 23 24  1  0
  6 25  1  0
 25 26  1  0
 25 27  2  0
 27 28  1  0
 27  2  1  0
 24 12  1  0
 23 14  1  0
M  END
>  <cnnaffinity>  (1) 
-4.09238

>  <filename>  (1) 
O=C(ONc1nc2ccccc2s1)c1cccnc1

$$$$
