
     RDKit          3D

 36 38  0  0  0  0  0  0  0  0999 V2000
    6.7449    0.5082   22.8244 H   0  0  0  0  0  0  0  0  0  0  0  0
    7.2777   -0.3157   22.3531 C   0  0  0  0  0  0  0  0  0  0  0  0
    7.3706   -0.5655   21.0376 C   0  0  0  0  0  0  0  0  0  0  0  0
    6.6616    0.1005   19.9222 C   0  0  0  0  0  0  0  0  0  0  0  0
    7.1581    0.0902   18.5972 C   0  0  0  0  0  0  0  0  0  0  0  0
    8.0883   -0.4269   18.3595 H   0  0  0  0  0  0  0  0  0  0  0  0
    6.5698    0.6845   17.5525 N   0  0  0  0  0  0  0  0  0  0  0  0
    5.4057    1.3158   17.7824 C   0  0  0  0  0  0  0  0  0  0  0  0
    4.9392    1.7995   16.9254 H   0  0  0  0  0  0  0  0  0  0  0  0
    4.7951    1.3539   19.0396 C   0  0  0  0  0  0  0  0  0  0  0  0
    3.8374    1.8491   19.1504 H   0  0  0  0  0  0  0  0  0  0  0  0
    5.4233    0.7399   20.1218 C   0  0  0  0  0  0  0  0  0  0  0  0
    4.9492    0.7133   21.1051 H   0  0  0  0  0  0  0  0  0  0  0  0
    8.1887   -1.8148   20.7909 C   0  0  0  0  0  0  0  0  0  0  0  0
    7.5161   -2.5434   20.3237 H   0  0  0  0  0  0  0  0  0  0  0  0
    9.0428   -1.6331   20.1291 H   0  0  0  0  0  0  0  0  0  0  0  0
    8.6539   -2.2991   22.1812 C   0  0  0  0  0  0  0  0  0  0  0  0
    8.3163   -3.3226   22.3733 H   0  0  0  0  0  0  0  0  0  0  0  0
    9.7444   -2.2961   22.2787 H   0  0  0  0  0  0  0  0  0  0  0  0
    8.0398   -1.3045   23.2174 C   0  0  2  0  0  0  0  0  0  0  0  0
    8.8349   -0.7860   23.7658 H   0  0  0  0  0  0  0  0  0  0  0  0
    7.2679   -1.9841   24.3698 C   0  0  0  0  0  0  0  0  0  0  0  0
    7.6298   -1.8762   25.5259 O   0  0  0  0  0  0  0  0  0  0  0  0
    6.2019   -2.7548   23.9751 N   0  0  0  0  0  0  0  0  0  0  0  0
    5.7667   -2.4598   23.1152 H   0  0  0  0  0  0  0  0  0  0  0  0
    5.4454   -3.5739   24.8326 C   0  0  0  0  0  0  0  0  0  0  0  0
    4.0687   -3.6815   24.6316 C   0  0  0  0  0  0  0  0  0  0  0  0
    3.6147   -3.1086   23.8329 H   0  0  0  0  0  0  0  0  0  0  0  0
    3.2889   -4.4729   25.4782 C   0  0  0  0  0  0  0  0  0  0  0  0
    2.2147   -4.5386   25.3445 H   0  0  0  0  0  0  0  0  0  0  0  0
    3.9030   -5.1718   26.5206 C   0  0  0  0  0  0  0  0  0  0  0  0
    2.9422   -6.1416   27.6004 Cl  0  0  0  0  0  0  0  0  0  0  0  0
    5.2854   -5.0906   26.7119 C   0  0  0  0  0  0  0  0  0  0  0  0
    5.7507   -5.6318   27.5298 H   0  0  0  0  0  0  0  0  0  0  0  0
    6.0574   -4.2861   25.8714 C   0  0  0  0  0  0  0  0  0  0  0  0
    7.1244   -4.1882   26.0315 H   0  0  0  0  0  0  0  0  0  0  0  0
  1  2  1  0
  2  3  2  0
  3  4  1  0
  4  5  2  0
  5  6  1  0
  5  7  1  0
  7  8  2  0
  8  9  1  0
  8 10  1  0
 10 11  1  0
 10 12  2  0
 12 13  1  0
  3 14  1  0
 14 15  1  0
 14 16  1  0
 14 17  1  0
 17 18  1  0
 17 19  1  0
 17 20  1  0
 20 21  1  1
 20 22  1  0
 22 23  2  0
 22 24  1  0
 24 25  1  0
 24 26  1  0
 26 27  2  0
 27 28  1  0
 27 29  1  0
 29 30  1  0
 29 31  2  0
 31 32  1  0
 31 33  1  0
 33 34  1  0
 33 35  2  0
 35 36  1  0
 20  2  1  0
 35 26  1  0
 12  4  1  0
M  END
>  <cnnaffinity>  (1) 
-5.2369

>  <filename>  (1) 
O=C(Nc1ccc(Cl)cc1)[C@@H]1C=C(c2cccnc2)CC1

$$$$
