
     RDKit          3D

 32 33  0  0  0  0  0  0  0  0999 V2000
   12.6290    2.9807   21.1591 H   0  0  0  0  0  0  0  0  0  0  0  0
   11.8755    2.5657   21.6154 O   0  0  0  0  0  0  0  0  0  0  0  0
   11.7683    3.4499   22.6320 C   0  0  0  0  0  0  0  0  0  0  0  0
   12.5232    4.3858   22.6797 O   0  0  0  0  0  0  0  0  0  0  0  0
   10.6793    3.0968   23.6507 C   0  0  0  0  0  0  0  0  0  0  0  0
   10.4749    3.9436   24.6531 O   0  0  0  0  0  0  0  0  0  0  0  0
    9.9392    3.4202   25.3205 H   0  0  0  0  0  0  0  0  0  0  0  0
    9.9214    1.9698   23.5451 C   0  0  0  0  0  0  0  0  0  0  0  0
    9.9751    1.3589   22.6571 H   0  0  0  0  0  0  0  0  0  0  0  0
    8.9571    1.6110   24.5656 C   0  0  0  0  0  0  0  0  0  0  0  0
    8.9859    2.1095   25.6944 O   0  0  0  0  0  0  0  0  0  0  0  0
    7.8393    0.6706   24.1927 C   0  0  0  0  0  0  0  0  0  0  0  0
    7.2252    0.5222   25.0814 H   0  0  0  0  0  0  0  0  0  0  0  0
    8.1581   -0.6573   23.4462 C   0  0  0  0  0  0  0  0  0  0  0  0
    9.2063   -0.9093   23.2380 H   0  0  0  0  0  0  0  0  0  0  0  0
    7.6683   -1.5401   23.8735 H   0  0  0  0  0  0  0  0  0  0  0  0
    7.4309   -0.1411   22.3037 N   0  0  0  0  0  0  0  0  0  0  0  0
    7.4577   -0.6505   21.0451 C   0  0  0  0  0  0  0  0  0  0  0  0
    8.1529   -1.6167   20.7608 O   0  0  0  0  0  0  0  0  0  0  0  0
    6.6433    0.0519   20.0130 C   0  0  0  0  0  0  0  0  0  0  0  0
    7.1830    0.0303   18.7227 C   0  0  0  0  0  0  0  0  0  0  0  0
    8.1164   -0.5007   18.5475 H   0  0  0  0  0  0  0  0  0  0  0  0
    6.6159    0.6267   17.6721 N   0  0  0  0  0  0  0  0  0  0  0  0
    5.4534    1.2621   17.8788 C   0  0  0  0  0  0  0  0  0  0  0  0
    5.0137    1.7449   17.0082 H   0  0  0  0  0  0  0  0  0  0  0  0
    4.8143    1.3108   19.1233 C   0  0  0  0  0  0  0  0  0  0  0  0
    3.8730    1.8363   19.2211 H   0  0  0  0  0  0  0  0  0  0  0  0
    5.4153    0.6959   20.2181 C   0  0  0  0  0  0  0  0  0  0  0  0
    4.9267    0.7151   21.1961 H   0  0  0  0  0  0  0  0  0  0  0  0
    7.0348    1.1151   22.9309 C   0  0  0  0  0  0  0  0  0  0  0  0
    7.4002    2.0143   22.4124 H   0  0  0  0  0  0  0  0  0  0  0  0
    5.9598    1.2168   23.1090 H   0  0  0  0  0  0  0  0  0  0  0  0
  1  2  1  0
  2  3  1  0
  3  4  2  0
  3  5  1  0
  5  6  1  0
  6  7  1  0
  5  8  2  3
  8  9  1  0
  8 10  1  0
 10 11  2  0
 10 12  1  0
 12 13  1  0
 12 14  1  0
 14 15  1  0
 14 16  1  0
 14 17  1  0
 17 18  1  0
 18 19  2  0
 18 20  1  0
 20 21  2  0
 21 22  1  0
 21 23  1  0
 23 24  2  0
 24 25  1  0
 24 26  1  0
 26 27  1  0
 26 28  2  0
 28 29  1  0
 17 30  1  0
 30 31  1  0
 30 32  1  0
 30 12  1  0
 28 20  1  0
M  END
>  <cnnaffinity>  (1) 
-4.124

>  <filename>  (1) 
O=C(O)C(O)=CC(=O)C1CN(C(=O)c2cccnc2)C1

$$$$
