
     RDKit          3D

 26 27  0  0  0  0  0  0  0  0999 V2000
    4.9116    1.7831   16.9951 H   0  0  0  0  0  0  0  0  0  0  0  0
    5.3976    1.2956   17.8366 C   0  0  0  0  0  0  0  0  0  0  0  0
    6.5612    0.6802   17.5660 N   0  0  0  0  0  0  0  0  0  0  0  0
    7.1626    0.0469   18.5808 C   0  0  0  0  0  0  0  0  0  0  0  0
    8.1213   -0.4257   18.3739 H   0  0  0  0  0  0  0  0  0  0  0  0
    6.6303   -0.0266   19.8859 C   0  0  0  0  0  0  0  0  0  0  0  0
    7.5346   -0.8356   21.2092 S   0  0  0  0  0  0  0  0  0  0  0  0
    8.5623    0.6111   21.6635 C   0  0  0  0  0  0  0  0  0  0  0  0
    9.5899    0.7973   21.0586 O   0  0  0  0  0  0  0  0  0  0  0  0
    8.0025    1.5743   22.6735 C   0  0  0  0  0  0  0  0  0  0  0  0
    8.6705    2.8068   22.8338 C   0  0  0  0  0  0  0  0  0  0  0  0
    9.5427    3.0327   22.2193 H   0  0  0  0  0  0  0  0  0  0  0  0
    8.2143    3.7185   23.7848 C   0  0  0  0  0  0  0  0  0  0  0  0
    8.7406    4.6587   23.9088 H   0  0  0  0  0  0  0  0  0  0  0  0
    7.0962    3.4387   24.5747 C   0  0  0  0  0  0  0  0  0  0  0  0
    6.7530    4.1594   25.3097 H   0  0  0  0  0  0  0  0  0  0  0  0
    6.4308    2.2194   24.3971 C   0  0  0  0  0  0  0  0  0  0  0  0
    5.2371    1.9080   25.2316 N   0  0  0  0  0  4  0  0  0  0  0  0
    4.8767    2.7277   26.0571 O   0  0  0  0  0  0  0  0  0  0  0  0
    4.6757    0.8417   25.0424 O   0  0  0  0  0  1  0  0  0  0  0  0
    6.8672    1.2848   23.4510 C   0  0  0  0  0  0  0  0  0  0  0  0
    6.3250    0.3446   23.3614 H   0  0  0  0  0  0  0  0  0  0  0  0
    5.4319    0.6430   20.1565 C   0  0  0  0  0  0  0  0  0  0  0  0
    5.0098    0.6296   21.1671 H   0  0  0  0  0  0  0  0  0  0  0  0
    4.8014    1.3149   19.1048 C   0  0  0  0  0  0  0  0  0  0  0  0
    3.8686    1.8492   19.2603 H   0  0  0  0  0  0  0  0  0  0  0  0
  1  2  1  0
  2  3  2  0
  3  4  1  0
  4  5  1  0
  4  6  2  0
  6  7  1  0
  7  8  1  0
  8  9  2  0
  8 10  1  0
 10 11  2  0
 11 12  1  0
 11 13  1  0
 13 14  1  0
 13 15  2  0
 15 16  1  0
 15 17  1  0
 17 18  1  0
 18 19  2  0
 18 20  1  0
 17 21  2  0
 21 22  1  0
  6 23  1  0
 23 24  1  0
 23 25  2  0
 25 26  1  0
 25  2  1  0
 21 10  1  0
M  CHG  2  18   1  20  -1
M  END
>  <cnnaffinity>  (1) 
-4.58616

>  <filename>  (1) 
O=C(Sc1cccnc1)c1cccc([N+](=O)[O-])c1

$$$$
