
     RDKit          3D

 34 36  0  0  0  0  0  0  0  0999 V2000
    5.2869    1.7536   16.5841 H   0  0  0  0  0  0  0  0  0  0  0  0
    5.6063    1.2269   17.4803 C   0  0  0  0  0  0  0  0  0  0  0  0
    6.6070    0.3519   17.3331 N   0  0  0  0  0  0  0  0  0  0  0  0
    7.0213   -0.3069   18.4231 C   0  0  0  0  0  0  0  0  0  0  0  0
    7.8180   -1.0301   18.2509 H   0  0  0  0  0  0  0  0  0  0  0  0
    6.4929   -0.1188   19.7329 C   0  0  0  0  0  0  0  0  0  0  0  0
    7.0308   -0.7824   20.9586 C   0  0  0  0  0  0  0  0  0  0  0  0
    6.8106   -0.1460   22.0816 N   0  0  0  0  0  0  0  0  0  0  0  0
    7.4583   -0.6903   23.2218 N   0  0  0  0  0  0  0  0  0  0  0  0
    7.3827   -0.0238   24.4877 C   0  0  0  0  0  0  0  0  0  0  0  0
    8.0255   -0.4238   25.4440 O   0  0  0  0  0  0  0  0  0  0  0  0
    6.5426    1.0628   24.5380 N   0  0  0  0  0  0  0  0  0  0  0  0
    6.2611    1.3524   23.6102 H   0  0  0  0  0  0  0  0  0  0  0  0
    6.8047    2.1166   25.5169 C   0  0  0  0  0  0  0  0  0  0  0  0
    6.8723    1.6495   26.5082 H   0  0  0  0  0  0  0  0  0  0  0  0
    5.9400    2.7936   25.5467 H   0  0  0  0  0  0  0  0  0  0  0  0
    8.0858    2.8746   25.2303 C   0  0  0  0  0  0  0  0  0  0  0  0
    8.1585    3.2997   24.2284 H   0  0  0  0  0  0  0  0  0  0  0  0
    8.7620    3.6689   26.3132 C   0  0  0  0  0  0  0  0  0  0  0  0
    8.2898    3.7112   27.2926 H   0  0  0  0  0  0  0  0  0  0  0  0
    9.2554    4.5906   26.0146 H   0  0  0  0  0  0  0  0  0  0  0  0
    9.3655    2.3733   25.8422 C   0  0  0  0  0  0  0  0  0  0  0  0
    9.2827    1.4990   26.4855 H   0  0  0  0  0  0  0  0  0  0  0  0
   10.2599    2.3895   25.2250 H   0  0  0  0  0  0  0  0  0  0  0  0
    8.4688   -1.6491   23.0482 C   0  0  0  0  0  0  0  0  0  0  0  0
    9.0507   -1.9045   23.9179 H   0  0  0  0  0  0  0  0  0  0  0  0
    8.7137   -2.2188   21.8374 C   0  0  0  0  0  0  0  0  0  0  0  0
    9.3869   -3.0594   21.6811 H   0  0  0  0  0  0  0  0  0  0  0  0
    7.5961   -2.2249   20.7373 C   0  0  0  0  0  0  0  0  0  0  0  0
    7.6417   -2.1367   20.7683 O   0  0  0  0  0  0  0  0  0  0  0  0
    5.4276    0.8043   19.8383 C   0  0  0  0  0  0  0  0  0  0  0  0
    4.9604    0.9819   20.8080 H   0  0  0  0  0  0  0  0  0  0  0  0
    4.9779    1.4710   18.7022 C   0  0  0  0  0  0  0  0  0  0  0  0
    4.1668    2.1876   18.7579 H   0  0  0  0  0  0  0  0  0  0  0  0
  1  2  1  0
  2  3  2  0
  3  4  1  0
  4  5  1  0
  4  6  2  0
  6  7  1  0
  7  8  2  0
  8  9  1  0
  9 10  1  0
 10 11  2  0
 10 12  1  0
 12 13  1  0
 12 14  1  0
 14 15  1  0
 14 16  1  0
 14 17  1  0
 17 18  1  0
 17 19  1  0
 19 20  1  0
 19 21  1  0
 19 22  1  0
 22 23  1  0
 22 24  1  0
  9 25  1  0
 25 26  1  0
 25 27  2  0
 27 28  1  0
 27 29  1  0
 29 30  2  0
  6 31  1  0
 31 32  1  0
 31 33  2  0
 33 34  1  0
 33  2  1  0
 29  7  1  0
 22 17  1  0
M  END
>  <cnnaffinity>  (1) 
-5.0484

>  <filename>  (1) 
O=C(NCC1CC1)n1ccc(=O)c(-c2cccnc2)n1

$$$$
