
     RDKit          3D

 38 39  0  0  0  0  0  0  0  0999 V2000
   15.2668   -0.0935   23.2347 H   0  0  0  0  0  0  0  0  0  0  0  0
   14.4761    0.0117   22.6774 O   0  0  0  0  0  0  0  0  0  0  0  0
   13.8154    1.1613   23.1511 N   0  0  0  0  0  0  0  0  0  0  0  0
   13.4812    1.6733   22.3475 H   0  0  0  0  0  0  0  0  0  0  0  0
   12.8939    1.0443   24.1942 C   0  0  0  0  0  0  0  0  0  0  0  0
   13.0673    0.2901   25.1275 O   0  0  0  0  0  0  0  0  0  0  0  0
   11.7232    2.0252   24.1300 C   0  0  0  0  0  0  0  0  0  0  0  0
   11.5096    2.2950   23.0860 H   0  0  0  0  0  0  0  0  0  0  0  0
   12.0358    2.9583   24.6143 H   0  0  0  0  0  0  0  0  0  0  0  0
   10.4631    1.4290   24.7944 C   0  0  0  0  0  0  0  0  0  0  0  0
    9.7608    2.2365   25.0360 H   0  0  0  0  0  0  0  0  0  0  0  0
   10.7632    0.9708   25.7463 H   0  0  0  0  0  0  0  0  0  0  0  0
    9.8284    0.3859   23.8594 C   0  0  0  0  0  0  0  0  0  0  0  0
    9.7695    0.8426   22.8594 H   0  0  0  0  0  0  0  0  0  0  0  0
   10.5172   -0.4655   23.7622 H   0  0  0  0  0  0  0  0  0  0  0  0
    8.4234   -0.1583   24.1913 C   0  0  0  0  0  0  0  0  0  0  0  0
    8.4363   -0.7813   25.0962 H   0  0  0  0  0  0  0  0  0  0  0  0
    7.7429    0.6784   24.4161 H   0  0  0  0  0  0  0  0  0  0  0  0
    7.8768   -0.9456   23.0132 C   0  0  0  0  0  0  0  0  0  0  0  0
    8.1251   -2.3495   22.8605 C   0  0  0  0  0  0  0  0  0  0  0  0
    8.7229   -2.8638   23.6148 H   0  0  0  0  0  0  0  0  0  0  0  0
    7.6078   -3.0322   21.8052 C   0  0  0  0  0  0  0  0  0  0  0  0
    7.7221   -4.0946   21.6600 H   0  0  0  0  0  0  0  0  0  0  0  0
    6.7783   -2.3905   20.7972 C   0  0  0  0  0  0  0  0  0  0  0  0
    6.1615   -3.0001   19.9424 O   0  0  0  0  0  0  0  0  0  0  0  0
    6.7526   -0.9557   20.8837 N   0  0  0  0  0  0  0  0  0  0  0  0
    6.2724   -0.1491   19.7873 C   0  0  0  0  0  0  0  0  0  0  0  0
    6.9844   -0.0570   18.5763 C   0  0  0  0  0  0  0  0  0  0  0  0
    7.8942   -0.6400   18.4468 H   0  0  0  0  0  0  0  0  0  0  0  0
    6.5929    0.7001   17.5438 N   0  0  0  0  0  0  0  0  0  0  0  0
    5.4720    1.4250   17.6870 C   0  0  0  0  0  0  0  0  0  0  0  0
    5.1927    2.0434   16.8358 H   0  0  0  0  0  0  0  0  0  0  0  0
    4.7040    1.4207   18.8565 C   0  0  0  0  0  0  0  0  0  0  0  0
    3.8353    2.0646   18.9244 H   0  0  0  0  0  0  0  0  0  0  0  0
    5.1071    0.6100   19.9238 C   0  0  0  0  0  0  0  0  0  0  0  0
    4.5385    0.5522   20.8514 H   0  0  0  0  0  0  0  0  0  0  0  0
    7.2127   -0.3053   22.0103 C   0  0  0  0  0  0  0  0  0  0  0  0
    7.0159    0.7657   22.0361 H   0  0  0  0  0  0  0  0  0  0  0  0
  1  2  1  0
  2  3  1  0
  3  4  1  0
  3  5  1  0
  5  6  2  0
  5  7  1  0
  7  8  1  0
  7  9  1  0
  7 10  1  0
 10 11  1  0
 10 12  1  0
 10 13  1  0
 13 14  1  0
 13 15  1  0
 13 16  1  0
 16 17  1  0
 16 18  1  0
 16 19  1  0
 19 20  1  0
 20 21  1  0
 20 22  2  0
 22 23  1  0
 22 24  1  0
 24 25  2  0
 24 26  1  0
 26 27  1  0
 27 28  2  0
 28 29  1  0
 28 30  1  0
 30 31  2  0
 31 32  1  0
 31 33  1  0
 33 34  1  0
 33 35  2  0
 35 36  1  0
 26 37  1  0
 37 38  1  0
 37 19  2  0
 35 27  1  0
M  END
>  <cnnaffinity>  (1) 
-5.57889

>  <filename>  (1) 
O=C(CCCCc1ccc(=O)n(-c2cccnc2)c1)NO

$$$$
