
     RDKit          3D

 32 33  0  0  0  0  0  0  0  0999 V2000
    4.9496    1.7649   17.0640 H   0  0  0  0  0  0  0  0  0  0  0  0
    5.4503    1.2693   17.8940 C   0  0  0  0  0  0  0  0  0  0  0  0
    6.6055    0.6457   17.6079 N   0  0  0  0  0  0  0  0  0  0  0  0
    7.2266    0.0197   18.6054 C   0  0  0  0  0  0  0  0  0  0  0  0
    8.1680   -0.4689   18.3596 H   0  0  0  0  0  0  0  0  0  0  0  0
    6.7346   -0.0472   19.9195 C   0  0  0  0  0  0  0  0  0  0  0  0
    7.4816   -0.8074   20.9492 C   0  0  0  0  0  0  0  0  0  0  0  0
    9.1079   -0.7904   21.0360 S   0  0  0  0  0  0  0  0  0  0  0  0
    6.6635   -1.6674   21.9132 C   0  0  0  0  0  0  0  0  0  0  0  0
    5.5990   -1.5267   21.7187 H   0  0  0  0  0  0  0  0  0  0  0  0
    6.8946   -2.7087   21.6797 H   0  0  0  0  0  0  0  0  0  0  0  0
    6.9412   -1.4762   23.3328 N   0  0  0  0  0  0  0  0  0  0  0  0
    7.8738   -1.7536   23.6003 H   0  0  0  0  0  0  0  0  0  0  0  0
    6.6362   -0.2785   23.9628 C   0  0  0  0  0  0  0  0  0  0  0  0
    6.0015    0.6360   23.4757 O   0  0  0  0  0  0  0  0  0  0  0  0
    7.1811   -0.3127   25.2276 N   0  0  0  0  0  0  0  0  0  0  0  0
    7.2246   -1.2488   25.5886 H   0  0  0  0  0  0  0  0  0  0  0  0
    7.1414    0.7487   26.1413 C   0  0  0  0  0  0  0  0  0  0  0  0
    7.2857    2.0608   25.6753 C   0  0  0  0  0  0  0  0  0  0  0  0
    7.3854    2.2123   24.6073 H   0  0  0  0  0  0  0  0  0  0  0  0
    7.2612    3.1214   26.5781 C   0  0  0  0  0  0  0  0  0  0  0  0
    7.3630    4.1352   26.1936 H   0  0  0  0  0  0  0  0  0  0  0  0
    7.0808    2.8771   27.9461 C   0  0  0  0  0  0  0  0  0  0  0  0
    7.0343    3.7117   28.6377 H   0  0  0  0  0  0  0  0  0  0  0  0
    6.9442    1.5611   28.4101 C   0  0  0  0  0  0  0  0  0  0  0  0
    6.7947    1.3672   29.4712 H   0  0  0  0  0  0  0  0  0  0  0  0
    6.9918    0.4916   27.5085 C   0  0  0  0  0  0  0  0  0  0  0  0
    6.9031   -0.5336   27.8559 H   0  0  0  0  0  0  0  0  0  0  0  0
    5.5246    0.6105   20.2054 C   0  0  0  0  0  0  0  0  0  0  0  0
    5.1496    0.6195   21.2323 H   0  0  0  0  0  0  0  0  0  0  0  0
    4.8678    1.2720   19.1672 C   0  0  0  0  0  0  0  0  0  0  0  0
    3.9242    1.7864   19.3373 H   0  0  0  0  0  0  0  0  0  0  0  0
  1  2  1  0
  2  3  2  0
  3  4  1  0
  4  5  1  0
  4  6  2  0
  6  7  1  0
  7  8  2  0
  7  9  1  0
  9 10  1  0
  9 11  1  0
  9 12  1  0
 12 13  1  0
 12 14  1  0
 14 15  2  0
 14 16  1  0
 16 17  1  0
 16 18  1  0
 18 19  2  0
 19 20  1  0
 19 21  1  0
 21 22  1  0
 21 23  2  0
 23 24  1  0
 23 25  1  0
 25 26  1  0
 25 27  2  0
 27 28  1  0
  6 29  1  0
 29 30  1  0
 29 31  2  0
 31 32  1  0
 31  2  1  0
 27 18  1  0
M  END
>  <cnnaffinity>  (1) 
-4.27494

>  <filename>  (1) 
O=C(NCC(=S)c1cccnc1)Nc1ccccc1

$$$$
