
     RDKit          3D

 36 39  0  0  0  0  0  0  0  0999 V2000
    5.0606    1.9052   16.5956 H   0  0  0  0  0  0  0  0  0  0  0  0
    5.4841    1.3906   17.4558 C   0  0  0  0  0  0  0  0  0  0  0  0
    6.6321    0.7312   17.2366 N   0  0  0  0  0  0  0  0  0  0  0  0
    7.1941    0.1114   18.2787 C   0  0  0  0  0  0  0  0  0  0  0  0
    8.1105   -0.4361   18.0683 H   0  0  0  0  0  0  0  0  0  0  0  0
    6.6589    0.1283   19.5825 C   0  0  0  0  0  0  0  0  0  0  0  0
    7.3754   -0.5330   20.6829 C   0  0  0  0  0  0  0  0  0  0  0  0
    8.5747   -1.0829   20.4346 N   0  0  0  0  0  0  0  0  0  0  0  0
    8.8943   -1.6349   21.6108 N   0  0  0  0  0  0  0  0  0  0  0  0
    9.9928   -2.3329   22.0797 C   0  0  0  0  0  0  0  0  0  0  0  0
   10.8620   -2.4215   21.4542 H   0  0  0  0  0  0  0  0  0  0  0  0
    9.6989   -2.7067   23.3433 C   0  0  0  0  0  0  0  0  0  0  0  0
   10.3014   -3.2891   24.0280 H   0  0  0  0  0  0  0  0  0  0  0  0
    8.4115   -2.2088   23.6748 N   0  0  0  0  0  0  0  0  0  0  0  0
    7.6024   -2.3861   24.8260 C   0  0  0  0  0  0  0  0  0  0  0  0
    6.4908   -1.9000   24.9129 O   0  0  0  0  0  0  0  0  0  0  0  0
    8.1745   -3.1493   25.8064 N   0  0  0  0  0  0  0  0  0  0  0  0
    9.1612   -3.3225   25.7245 H   0  0  0  0  0  0  0  0  0  0  0  0
    7.5842   -3.2099   27.1522 C   0  0  0  0  0  0  0  0  0  0  0  0
    8.3423   -3.6270   27.8242 H   0  0  0  0  0  0  0  0  0  0  0  0
    7.3578   -2.1913   27.5061 H   0  0  0  0  0  0  0  0  0  0  0  0
    6.3282   -4.0645   27.2052 C   0  0  0  0  0  0  0  0  0  0  0  0
    5.6266   -3.7817   26.4243 H   0  0  0  0  0  0  0  0  0  0  0  0
    6.3938   -5.5191   27.6012 C   0  0  0  0  0  0  0  0  0  0  0  0
    7.3550   -5.9097   27.9417 H   0  0  0  0  0  0  0  0  0  0  0  0
    5.7973   -6.2300   27.0308 H   0  0  0  0  0  0  0  0  0  0  0  0
    5.7045   -4.5328   28.5045 C   0  0  0  0  0  0  0  0  0  0  0  0
    6.1783   -4.2889   29.4560 H   0  0  0  0  0  0  0  0  0  0  0  0
    4.6143   -4.5611   28.5609 H   0  0  0  0  0  0  0  0  0  0  0  0
    7.9576   -1.4968   22.5599 C   0  0  0  0  0  0  0  0  0  0  0  0
    6.9509   -0.7136   22.0254 C   0  0  0  0  0  0  0  0  0  0  0  0
    6.1202   -0.2633   22.5389 H   0  0  0  0  0  0  0  0  0  0  0  0
    5.4321    0.7819   19.7811 C   0  0  0  0  0  0  0  0  0  0  0  0
    4.9521    0.7865   20.7609 H   0  0  0  0  0  0  0  0  0  0  0  0
    4.8399    1.4266   18.6968 C   0  0  0  0  0  0  0  0  0  0  0  0
    3.9016    1.9627   18.7990 H   0  0  0  0  0  0  0  0  0  0  0  0
  1  2  1  0
  2  3  2  0
  3  4  1  0
  4  5  1  0
  4  6  2  0
  6  7  1  0
  7  8  2  0
  8  9  1  0
  9 10  1  0
 10 11  1  0
 10 12  2  0
 12 13  1  0
 12 14  1  0
 14 15  1  0
 15 16  2  0
 15 17  1  0
 17 18  1  0
 17 19  1  0
 19 20  1  0
 19 21  1  0
 19 22  1  0
 22 23  1  0
 22 24  1  0
 24 25  1  0
 24 26  1  0
 24 27  1  0
 27 28  1  0
 27 29  1  0
 14 30  1  0
 30 31  2  0
 31 32  1  0
  6 33  1  0
 33 34  1  0
 33 35  2  0
 35 36  1  0
 35  2  1  0
 31  7  1  0
 30  9  1  0
 27 22  1  0
M  END
>  <cnnaffinity>  (1) 
-4.99883

>  <filename>  (1) 
O=C(NCC1CC1)n1ccn2nc(-c3cccnc3)cc12

$$$$
