
     RDKit          3D

 34 35  0  0  0  0  0  0  0  0999 V2000
    5.0112    1.7486   17.0314 H   0  0  0  0  0  0  0  0  0  0  0  0
    5.4394    1.2326   17.8924 C   0  0  0  0  0  0  0  0  0  0  0  0
    6.5987    0.5873   17.6873 N   0  0  0  0  0  0  0  0  0  0  0  0
    7.1648   -0.0171   18.7357 C   0  0  0  0  0  0  0  0  0  0  0  0
    8.1228   -0.5094   18.5685 H   0  0  0  0  0  0  0  0  0  0  0  0
    6.6095   -0.0303   20.0171 C   0  0  0  0  0  0  0  0  0  0  0  0
    7.4520   -0.6438   21.0673 C   0  0  0  0  0  0  0  0  0  0  0  0
    8.6577   -0.7180   21.0007 O   0  0  0  0  0  0  0  0  0  0  0  0
    6.7427   -1.0813   22.1493 N   0  0  0  0  0  0  0  0  0  0  0  0
    5.8277   -1.4928   22.0487 H   0  0  0  0  0  0  0  0  0  0  0  0
    7.5019   -1.9008   23.3588 S   0  0  0  0  0  0  0  0  0  0  0  0
    6.4229   -2.7903   23.7563 O   0  0  0  0  0  0  0  0  0  0  0  0
    8.7898   -2.4485   22.9988 O   0  0  0  0  0  0  0  0  0  0  0  0
    7.6240   -0.5444   24.5608 C   0  0  0  0  0  0  0  0  0  0  0  0
    6.5600   -0.3018   24.6301 H   0  0  0  0  0  0  0  0  0  0  0  0
    8.1419   -1.0261   25.9279 C   0  0  0  0  0  0  0  0  0  0  0  0
    7.8545   -0.2633   26.6657 H   0  0  0  0  0  0  0  0  0  0  0  0
    7.6376   -1.9547   26.2222 H   0  0  0  0  0  0  0  0  0  0  0  0
    9.6594   -1.2085   25.9443 C   0  0  0  0  0  0  0  0  0  0  0  0
    9.9079   -2.0772   25.3192 H   0  0  0  0  0  0  0  0  0  0  0  0
    9.9595   -1.4202   26.9773 H   0  0  0  0  0  0  0  0  0  0  0  0
   10.4372    0.0100   25.4173 C   0  0  0  0  0  0  0  0  0  0  0  0
   11.5084   -0.2284   25.3553 H   0  0  0  0  0  0  0  0  0  0  0  0
   10.3468    0.8420   26.1329 H   0  0  0  0  0  0  0  0  0  0  0  0
    9.9190    0.4641   24.0443 C   0  0  0  0  0  0  0  0  0  0  0  0
   10.4232    1.3879   23.7375 H   0  0  0  0  0  0  0  0  0  0  0  0
   10.1462   -0.2960   23.2884 H   0  0  0  0  0  0  0  0  0  0  0  0
    8.4068    0.7003   24.0832 C   0  0  0  0  0  0  0  0  0  0  0  0
    8.1860    1.4995   24.8078 H   0  0  0  0  0  0  0  0  0  0  0  0
    8.0450    1.0713   23.1173 H   0  0  0  0  0  0  0  0  0  0  0  0
    5.3824    0.6250   20.2226 C   0  0  0  0  0  0  0  0  0  0  0  0
    4.9171    0.6563   21.2098 H   0  0  0  0  0  0  0  0  0  0  0  0
    4.8017    1.2771   19.1363 C   0  0  0  0  0  0  0  0  0  0  0  0
    3.8756    1.8283   19.2470 H   0  0  0  0  0  0  0  0  0  0  0  0
  1  2  1  0
  2  3  2  0
  3  4  1  0
  4  5  1  0
  4  6  2  0
  6  7  1  0
  7  8  2  0
  7  9  1  0
  9 10  1  0
  9 11  1  0
 11 12  2  0
 11 13  2  0
 11 14  1  0
 14 15  1  0
 14 16  1  0
 16 17  1  0
 16 18  1  0
 16 19  1  0
 19 20  1  0
 19 21  1  0
 19 22  1  0
 22 23  1  0
 22 24  1  0
 22 25  1  0
 25 26  1  0
 25 27  1  0
 25 28  1  0
 28 29  1  0
 28 30  1  0
  6 31  1  0
 31 32  1  0
 31 33  2  0
 33 34  1  0
 33  2  1  0
 28 14  1  0
M  END
>  <cnnaffinity>  (1) 
-4.7887

>  <filename>  (1) 
O=C(NS(=O)(=O)C1CCCCC1)c1cccnc1

$$$$
