
     RDKit          3D

 34 36  0  0  0  0  0  0  0  0999 V2000
    4.9367    1.7755   17.0070 H   0  0  0  0  0  0  0  0  0  0  0  0
    5.4093    1.2784   17.8505 C   0  0  0  0  0  0  0  0  0  0  0  0
    6.5693    0.6588   17.5908 N   0  0  0  0  0  0  0  0  0  0  0  0
    7.1918    0.0598   18.6083 C   0  0  0  0  0  0  0  0  0  0  0  0
    8.1413   -0.4210   18.3743 H   0  0  0  0  0  0  0  0  0  0  0  0
    6.6799    0.0187   19.9110 C   0  0  0  0  0  0  0  0  0  0  0  0
    7.4521   -0.6906   20.9488 C   0  0  0  0  0  0  0  0  0  0  0  0
    8.7501   -0.6716   20.8508 N   0  0  0  0  0  0  0  0  0  0  0  0
    9.4694   -1.3043   21.8320 C   0  0  0  0  0  0  0  0  0  0  0  0
   10.6775   -1.3749   21.9031 O   0  0  0  0  0  0  0  0  0  0  0  0
    8.7651   -1.9580   22.8608 N   0  0  0  0  0  0  0  0  0  0  0  0
    9.4378   -2.4170   23.4521 H   0  0  0  0  0  0  0  0  0  0  0  0
    7.4015   -2.0303   22.9733 C   0  0  0  0  0  0  0  0  0  0  0  0
    6.7826   -2.8647   24.1622 C   0  0  0  0  0  0  0  0  0  0  0  0
    7.3745   -3.8064   24.6576 O   0  0  0  0  0  0  0  0  0  0  0  0
    5.5503   -2.4515   24.5940 N   0  0  0  0  0  0  0  0  0  0  0  0
    5.1030   -1.6975   24.1027 H   0  0  0  0  0  0  0  0  0  0  0  0
    4.8649   -3.0032   25.7007 C   0  0  0  0  0  0  0  0  0  0  0  0
    5.5807   -3.4055   26.8352 C   0  0  0  0  0  0  0  0  0  0  0  0
    6.6555   -3.2681   26.8444 H   0  0  0  0  0  0  0  0  0  0  0  0
    4.9155   -3.9875   27.9141 C   0  0  0  0  0  0  0  0  0  0  0  0
    5.4686   -4.3184   28.7908 H   0  0  0  0  0  0  0  0  0  0  0  0
    3.5295   -4.1624   27.8526 C   0  0  0  0  0  0  0  0  0  0  0  0
    2.7068   -4.8958   29.1951 Cl  0  0  0  0  0  0  0  0  0  0  0  0
    2.8013   -3.7464   26.7328 C   0  0  0  0  0  0  0  0  0  0  0  0
    1.7228   -3.8846   26.7143 H   0  0  0  0  0  0  0  0  0  0  0  0
    3.4746   -3.1527   25.6567 C   0  0  0  0  0  0  0  0  0  0  0  0
    2.9297   -2.8293   24.7740 H   0  0  0  0  0  0  0  0  0  0  0  0
    6.7218   -1.3803   21.9777 C   0  0  0  0  0  0  0  0  0  0  0  0
    5.6517   -1.4298   21.8631 H   0  0  0  0  0  0  0  0  0  0  0  0
    5.4524    0.6488   20.1666 C   0  0  0  0  0  0  0  0  0  0  0  0
    5.0134    0.6412   21.1660 H   0  0  0  0  0  0  0  0  0  0  0  0
    4.8177    1.3023   19.1165 C   0  0  0  0  0  0  0  0  0  0  0  0
    3.8846    1.8321   19.2599 H   0  0  0  0  0  0  0  0  0  0  0  0
  1  2  1  0
  2  3  2  0
  3  4  1  0
  4  5  1  0
  4  6  2  0
  6  7  1  0
  7  8  2  0
  8  9  1  0
  9 10  2  0
  9 11  1  0
 11 12  1  0
 11 13  1  0
 13 14  1  0
 14 15  2  0
 14 16  1  0
 16 17  1  0
 16 18  1  0
 18 19  2  0
 19 20  1  0
 19 21  1  0
 21 22  1  0
 21 23  2  0
 23 24  1  0
 23 25  1  0
 25 26  1  0
 25 27  2  0
 27 28  1  0
 13 29  2  0
 29 30  1  0
  6 31  1  0
 31 32  1  0
 31 33  2  0
 33 34  1  0
 33  2  1  0
 29  7  1  0
 27 18  1  0
M  END
>  <cnnaffinity>  (1) 
-5.09226

>  <filename>  (1) 
O=C(Nc1ccc(Cl)cc1)c1cc(-c2cccnc2)nc(=O)[nH]1

$$$$
