
     RDKit          3D

 28 30  0  0  0  0  0  0  0  0999 V2000
    4.9458    1.7968   16.9791 H   0  0  0  0  0  0  0  0  0  0  0  0
    5.4140    1.2992   17.8261 C   0  0  0  0  0  0  0  0  0  0  0  0
    6.5780    0.6717   17.5834 N   0  0  0  0  0  0  0  0  0  0  0  0
    7.1670    0.0446   18.6009 C   0  0  0  0  0  0  0  0  0  0  0  0
    8.1080   -0.4667   18.4049 H   0  0  0  0  0  0  0  0  0  0  0  0
    6.6381    0.0212   19.9072 C   0  0  0  0  0  0  0  0  0  0  0  0
    7.3515   -0.6735   20.9328 N   0  0  0  0  0  0  0  0  0  0  0  0
    8.2038   -1.6958   20.6455 N   0  0  0  0  0  0  0  0  0  0  0  0
    8.7421   -2.0556   21.7479 N   0  0  0  0  0  0  0  0  0  0  0  0
    8.3013   -1.3120   22.7910 N   0  0  0  0  0  0  0  0  0  0  0  0
    7.4472   -0.4748   22.2643 C   0  0  0  0  0  0  0  0  0  0  0  0
    6.7073    0.4690   22.8777 O   0  0  0  0  0  0  0  0  0  0  0  0
    6.9545    0.5886   24.2736 N   0  0  0  0  0  0  0  0  0  0  0  0
    6.6848    1.5245   24.5553 H   0  0  0  0  0  0  0  0  0  0  0  0
    6.3859   -0.3973   25.0883 C   0  0  0  0  0  0  0  0  0  0  0  0
    5.9645   -1.4601   24.6849 O   0  0  0  0  0  0  0  0  0  0  0  0
    6.4399   -0.0363   26.5355 C   0  0  0  0  0  0  0  0  0  0  0  0
    5.6075   -1.1091   27.6005 S   0  0  0  0  0  0  0  0  0  0  0  0
    6.1938   -0.2930   28.9756 C   0  0  0  0  0  0  0  0  0  0  0  0
    5.9261   -0.6709   29.9552 H   0  0  0  0  0  0  0  0  0  0  0  0
    6.9882    0.7698   28.6481 C   0  0  0  0  0  0  0  0  0  0  0  0
    7.4444    1.4258   29.3789 H   0  0  0  0  0  0  0  0  0  0  0  0
    7.1460    0.9089   27.2405 C   0  0  0  0  0  0  0  0  0  0  0  0
    7.7521    1.6949   26.7968 H   0  0  0  0  0  0  0  0  0  0  0  0
    5.4336    0.6829   20.1666 C   0  0  0  0  0  0  0  0  0  0  0  0
    5.0106    0.7091   21.1709 H   0  0  0  0  0  0  0  0  0  0  0  0
    4.8101    1.3196   19.0876 C   0  0  0  0  0  0  0  0  0  0  0  0
    3.8647    1.8328   19.2159 H   0  0  0  0  0  0  0  0  0  0  0  0
  1  2  1  0
  2  3  2  0
  3  4  1  0
  4  5  1  0
  4  6  2  0
  6  7  1  0
  7  8  1  0
  8  9  2  0
  9 10  1  0
 10 11  2  0
 11 12  1  0
 12 13  1  0
 13 14  1  0
 13 15  1  0
 15 16  2  0
 15 17  1  0
 17 18  1  0
 18 19  1  0
 19 20  1  0
 19 21  2  0
 21 22  1  0
 21 23  1  0
 23 24  1  0
  6 25  1  0
 25 26  1  0
 25 27  2  0
 27 28  1  0
 27  2  1  0
 11  7  1  0
 23 17  2  0
M  END
>  <cnnaffinity>  (1) 
-5.20206

>  <filename>  (1) 
O=C(NOc1nnnn1-c1cccnc1)c1cccs1

$$$$
