
     RDKit          3D

 39 41  0  0  0  0  0  0  0  0999 V2000
    5.1746    1.8166   16.9135 H   0  0  0  0  0  0  0  0  0  0  0  0
    5.5661    1.3002   17.7893 C   0  0  0  0  0  0  0  0  0  0  0  0
    6.7214    0.6302   17.6232 N   0  0  0  0  0  0  0  0  0  0  0  0
    7.2387   -0.0002   18.6799 C   0  0  0  0  0  0  0  0  0  0  0  0
    8.1865   -0.5181   18.5318 H   0  0  0  0  0  0  0  0  0  0  0  0
    6.6296   -0.0081   19.9466 C   0  0  0  0  0  0  0  0  0  0  0  0
    7.2576   -0.7277   21.0091 N   0  0  0  0  0  0  0  0  0  0  0  0
    7.8143   -1.9343   20.7781 N   0  0  0  0  0  0  0  0  0  0  0  0
    8.2175   -2.3888   21.9065 N   0  0  0  0  0  0  0  0  0  0  0  0
    7.9687   -1.5118   22.8995 N   0  0  0  0  0  0  0  0  0  0  0  0
    7.3937   -0.4725   22.3384 C   0  0  0  0  0  0  0  0  0  0  0  0
    7.1640    0.8563   23.0143 C   0  0  0  0  0  0  0  0  0  0  0  0
    6.9207    0.6608   24.0594 H   0  0  0  0  0  0  0  0  0  0  0  0
    6.3116    1.3718   22.5689 H   0  0  0  0  0  0  0  0  0  0  0  0
    8.3180    1.7650   22.9888 N   0  0  0  0  0  0  0  0  0  0  0  0
    8.9641    1.7037   23.7584 H   0  0  0  0  0  0  0  0  0  0  0  0
    8.9319    2.1575   21.8214 C   0  0  0  0  0  0  0  0  0  0  0  0
    8.4253    1.9854   20.7281 O   0  0  0  0  0  0  0  0  0  0  0  0
   10.3208    2.7581   22.0224 C   0  0  0  0  0  0  0  0  0  0  0  0
   10.6820    2.9507   21.0128 H   0  0  0  0  0  0  0  0  0  0  0  0
   10.2967    4.0817   22.8296 C   0  0  0  0  0  0  0  0  0  0  0  0
    9.8652    3.8634   23.8171 H   0  0  0  0  0  0  0  0  0  0  0  0
    9.6237    4.8141   22.3643 H   0  0  0  0  0  0  0  0  0  0  0  0
   11.7040    4.6703   23.0147 C   0  0  0  0  0  0  0  0  0  0  0  0
   12.1076    5.0057   22.0466 H   0  0  0  0  0  0  0  0  0  0  0  0
   11.6550    5.5603   23.6552 H   0  0  0  0  0  0  0  0  0  0  0  0
   12.6165    3.6201   23.6564 C   0  0  0  0  0  0  0  0  0  0  0  0
   13.6175    4.0263   23.8518 H   0  0  0  0  0  0  0  0  0  0  0  0
   12.1522    3.3647   24.6216 H   0  0  0  0  0  0  0  0  0  0  0  0
   12.6993    2.3353   22.8240 C   0  0  0  0  0  0  0  0  0  0  0  0
   13.1406    2.5504   21.8473 H   0  0  0  0  0  0  0  0  0  0  0  0
   13.3507    1.5988   23.3068 H   0  0  0  0  0  0  0  0  0  0  0  0
   11.3126    1.7259   22.6089 C   0  0  0  0  0  0  0  0  0  0  0  0
   11.3771    0.8658   21.9274 H   0  0  0  0  0  0  0  0  0  0  0  0
   10.9478    1.3533   23.5772 H   0  0  0  0  0  0  0  0  0  0  0  0
    5.4192    0.6735   20.1166 C   0  0  0  0  0  0  0  0  0  0  0  0
    4.9006    0.6755   21.0757 H   0  0  0  0  0  0  0  0  0  0  0  0
    4.8875    1.3447   19.0085 C   0  0  0  0  0  0  0  0  0  0  0  0
    3.9633    1.9084   19.0903 H   0  0  0  0  0  0  0  0  0  0  0  0
  1  2  1  0
  2  3  2  0
  3  4  1  0
  4  5  1  0
  4  6  2  0
  6  7  1  0
  7  8  1  0
  8  9  2  0
  9 10  1  0
 10 11  2  0
 11 12  1  0
 12 13  1  0
 12 14  1  0
 12 15  1  0
 15 16  1  0
 15 17  1  0
 17 18  2  0
 17 19  1  0
 19 20  1  0
 19 21  1  0
 21 22  1  0
 21 23  1  0
 21 24  1  0
 24 25  1  0
 24 26  1  0
 24 27  1  0
 27 28  1  0
 27 29  1  0
 27 30  1  0
 30 31  1  0
 30 32  1  0
 30 33  1  0
 33 34  1  0
 33 35  1  0
  6 36  1  0
 36 37  1  0
 36 38  2  0
 38 39  1  0
 38  2  1  0
 11  7  1  0
 33 19  1  0
M  END
>  <cnnaffinity>  (1) 
-5.58402

>  <filename>  (1) 
O=C(NCc1nnnn1-c1cccnc1)C1CCCCC1

$$$$
