
     RDKit          3D

 39 41  0  0  0  0  0  0  0  0999 V2000
    5.0740    1.6905   17.0114 H   0  0  0  0  0  0  0  0  0  0  0  0
    5.5403    1.2377   17.8857 C   0  0  0  0  0  0  0  0  0  0  0  0
    6.7227    0.6374   17.6765 N   0  0  0  0  0  0  0  0  0  0  0  0
    7.3175    0.0564   18.7287 C   0  0  0  0  0  0  0  0  0  0  0  0
    8.2689   -0.4389   18.5488 H   0  0  0  0  0  0  0  0  0  0  0  0
    6.7759    0.0472   20.0298 C   0  0  0  0  0  0  0  0  0  0  0  0
    7.4455   -0.5750   21.1282 N   0  0  0  0  0  0  0  0  0  0  0  0
    8.1834   -0.0818   21.6209 H   0  0  0  0  0  0  0  0  0  0  0  0
    6.8442   -1.5268   21.9070 C   0  0  0  0  0  0  0  0  0  0  0  0
    5.7861   -2.0612   21.6331 O   0  0  0  0  0  0  0  0  0  0  0  0
    7.6700   -1.9461   23.0870 C   0  0  0  0  0  0  0  0  0  0  0  0
    7.9721   -0.7377   23.9189 C   0  0  0  0  0  0  0  0  0  0  0  0
    8.7149    0.1393   23.4899 O   0  0  0  0  0  0  0  0  0  0  0  0
    7.3491   -0.6591   25.1469 N   0  0  0  0  0  0  0  0  0  0  0  0
    7.9213    0.2169   26.1780 C   0  0  0  0  0  0  0  0  0  0  0  0
    7.5277    1.2431   26.0634 H   0  0  0  0  0  0  0  0  0  0  0  0
    9.0067    0.2649   26.0386 H   0  0  0  0  0  0  0  0  0  0  0  0
    7.5839   -0.3484   27.5632 C   0  0  0  0  0  0  0  0  0  0  0  0
    8.0271    0.2906   28.3378 H   0  0  0  0  0  0  0  0  0  0  0  0
    8.0487   -1.3438   27.6497 H   0  0  0  0  0  0  0  0  0  0  0  0
    6.0671   -0.5015   27.7568 C   0  0  0  0  0  0  0  0  0  0  0  0
    5.5713    0.4867   27.7551 H   0  0  0  0  0  0  0  0  0  0  0  0
    5.8597   -0.9556   28.7355 H   0  0  0  0  0  0  0  0  0  0  0  0
    5.5045   -1.3892   26.6362 C   0  0  0  0  0  0  0  0  0  0  0  0
    4.4102   -1.4547   26.7038 H   0  0  0  0  0  0  0  0  0  0  0  0
    5.9006   -2.4109   26.7494 H   0  0  0  0  0  0  0  0  0  0  0  0
    5.8911   -0.8621   25.2506 C   0  0  0  0  0  0  0  0  0  0  0  0
    5.3725    0.1004   25.0673 H   0  0  0  0  0  0  0  0  0  0  0  0
    5.5616   -1.5658   24.4828 H   0  0  0  0  0  0  0  0  0  0  0  0
    7.4562   -3.3146   23.6800 C   0  0  0  0  0  0  0  0  0  0  0  0
    7.5626   -3.4288   24.7580 H   0  0  0  0  0  0  0  0  0  0  0  0
    6.6722   -3.9082   23.2111 H   0  0  0  0  0  0  0  0  0  0  0  0
    8.7033   -3.0468   22.8905 C   0  0  0  0  0  0  0  0  0  0  0  0
    8.7901   -3.4746   21.8933 H   0  0  0  0  0  0  0  0  0  0  0  0
    9.6525   -2.9732   23.4221 H   0  0  0  0  0  0  0  0  0  0  0  0
    5.5282    0.6432   20.2247 C   0  0  0  0  0  0  0  0  0  0  0  0
    5.0693    0.6142   21.2137 H   0  0  0  0  0  0  0  0  0  0  0  0
    4.9053    1.2602   19.1322 C   0  0  0  0  0  0  0  0  0  0  0  0
    3.9452    1.7494   19.2356 H   0  0  0  0  0  0  0  0  0  0  0  0
  1  2  1  0
  2  3  2  0
  3  4  1  0
  4  5  1  0
  4  6  2  0
  6  7  1  0
  7  8  1  0
  7  9  1  0
  9 10  2  0
  9 11  1  0
 11 12  1  0
 12 13  2  0
 12 14  1  0
 14 15  1  0
 15 16  1  0
 15 17  1  0
 15 18  1  0
 18 19  1  0
 18 20  1  0
 18 21  1  0
 21 22  1  0
 21 23  1  0
 21 24  1  0
 24 25  1  0
 24 26  1  0
 24 27  1  0
 27 28  1  0
 27 29  1  0
 11 30  1  0
 30 31  1  0
 30 32  1  0
 30 33  1  0
 33 34  1  0
 33 35  1  0
  6 36  1  0
 36 37  1  0
 36 38  2  0
 38 39  1  0
 38  2  1  0
 33 11  1  0
 27 14  1  0
M  END
>  <cnnaffinity>  (1) 
-5.17513

>  <filename>  (1) 
O=C(Nc1cccnc1)C1(C(=O)N2CCCCC2)CC1

$$$$
