
     RDKit          3D

 35 38  0  0  0  0  0  0  0  0999 V2000
    5.0442    1.7380   16.9611 H   0  0  0  0  0  0  0  0  0  0  0  0
    5.4674    1.2896   17.8585 C   0  0  0  0  0  0  0  0  0  0  0  0
    6.6608    0.6939   17.7128 N   0  0  0  0  0  0  0  0  0  0  0  0
    7.2021    0.1478   18.8118 C   0  0  0  0  0  0  0  0  0  0  0  0
    8.1569   -0.3618   18.6844 H   0  0  0  0  0  0  0  0  0  0  0  0
    6.5947    0.1475   20.0795 C   0  0  0  0  0  0  0  0  0  0  0  0
    7.2787   -0.5386   21.2090 C   0  0  0  0  0  0  0  0  0  0  0  0
    8.2092    0.2506   21.9526 N   0  0  0  0  0  0  0  0  0  0  0  0
    7.8036    0.9590   22.5448 H   0  0  0  0  0  0  0  0  0  0  0  0
    9.4567    0.5506   21.4843 C   0  0  0  0  0  0  0  0  0  0  0  0
   10.0246   -0.1577   20.6706 O   0  0  0  0  0  0  0  0  0  0  0  0
   10.0723    1.7591   22.1122 C   0  0  0  0  0  0  0  0  0  0  0  0
   11.3946    1.8478   22.4164 C   0  0  0  0  0  0  0  0  0  0  0  0
   12.1691    1.1146   22.2048 H   0  0  0  0  0  0  0  0  0  0  0  0
   11.8282    3.3085   23.2131 S   0  0  0  0  0  0  0  0  0  0  0  0
   10.1966    3.8964   23.1206 C   0  0  0  0  0  0  0  0  0  0  0  0
    9.7333    5.1458   23.5756 C   0  0  0  0  0  0  0  0  0  0  0  0
   10.4088    5.8377   24.0704 H   0  0  0  0  0  0  0  0  0  0  0  0
    8.4032    5.4733   23.3501 C   0  0  0  0  0  0  0  0  0  0  0  0
    8.0252    6.4357   23.6761 H   0  0  0  0  0  0  0  0  0  0  0  0
    7.5419    4.5859   22.6712 C   0  0  0  0  0  0  0  0  0  0  0  0
    6.5077    4.8649   22.4887 H   0  0  0  0  0  0  0  0  0  0  0  0
    8.0020    3.3499   22.2373 C   0  0  0  0  0  0  0  0  0  0  0  0
    7.3366    2.7071   21.6708 H   0  0  0  0  0  0  0  0  0  0  0  0
    9.3492    2.9725   22.4808 C   0  0  0  0  0  0  0  0  0  0  0  0
    6.5963   -1.5895   22.0334 C   0  0  0  0  0  0  0  0  0  0  0  0
    5.5670   -1.8315   21.7987 H   0  0  0  0  0  0  0  0  0  0  0  0
    6.8601   -1.6241   23.0843 H   0  0  0  0  0  0  0  0  0  0  0  0
    7.6322   -1.9769   21.0235 C   0  0  0  0  0  0  0  0  0  0  0  0
    8.6290   -2.2508   21.3349 H   0  0  0  0  0  0  0  0  0  0  0  0
    7.2394   -2.4445   20.1242 H   0  0  0  0  0  0  0  0  0  0  0  0
    5.3484    0.7702   20.2082 C   0  0  0  0  0  0  0  0  0  0  0  0
    4.8390    0.7736   21.1744 H   0  0  0  0  0  0  0  0  0  0  0  0
    4.7760    1.3505   19.0761 C   0  0  0  0  0  0  0  0  0  0  0  0
    3.8187    1.8564   19.1254 H   0  0  0  0  0  0  0  0  0  0  0  0
  1  2  1  0
  2  3  2  0
  3  4  1  0
  4  5  1  0
  4  6  2  0
  6  7  1  0
  7  8  1  0
  8  9  1  0
  8 10  1  0
 10 11  2  0
 10 12  1  0
 12 13  2  0
 13 14  1  0
 13 15  1  0
 15 16  1  0
 16 17  2  0
 17 18  1  0
 17 19  1  0
 19 20  1  0
 19 21  2  0
 21 22  1  0
 21 23  1  0
 23 24  1  0
 23 25  2  0
  7 26  1  0
 26 27  1  0
 26 28  1  0
 26 29  1  0
 29 30  1  0
 29 31  1  0
  6 32  1  0
 32 33  1  0
 32 34  2  0
 34 35  1  0
 34  2  1  0
 29  7  1  0
 25 12  1  0
 25 16  1  0
M  END
>  <cnnaffinity>  (1) 
-5.38094

>  <filename>  (1) 
O=C(NC1(c2cccnc2)CC1)c1csc2ccccc12

$$$$
