
     RDKit          3D

 34 36  0  0  0  0  0  0  0  0999 V2000
    4.9994    1.8136   16.9203 H   0  0  0  0  0  0  0  0  0  0  0  0
    5.4237    1.3018   17.7819 C   0  0  0  0  0  0  0  0  0  0  0  0
    6.5915    0.6673   17.5780 N   0  0  0  0  0  0  0  0  0  0  0  0
    7.1566    0.0599   18.6234 C   0  0  0  0  0  0  0  0  0  0  0  0
    8.0980   -0.4607   18.4504 H   0  0  0  0  0  0  0  0  0  0  0  0
    6.5897    0.0693   19.9109 C   0  0  0  0  0  0  0  0  0  0  0  0
    7.2880   -0.5480   20.9901 N   0  0  0  0  0  0  0  0  0  0  0  0
    7.9440   -1.7273   20.8441 N   0  0  0  0  0  0  0  0  0  0  0  0
    8.4244   -2.0294   21.9874 N   0  0  0  0  0  0  0  0  0  0  0  0
    8.1233   -1.0941   22.9245 N   0  0  0  0  0  0  0  0  0  0  0  0
    7.4356   -0.1931   22.2882 C   0  0  0  0  0  0  0  0  0  0  0  0
    6.9486    0.9290   22.8360 O   0  0  0  0  0  0  0  0  0  0  0  0
    7.3212    2.1272   22.2279 C   0  0  0  0  0  0  0  0  0  0  0  0
    8.0616    2.2025   21.2849 O   0  0  0  0  0  0  0  0  0  0  0  0
    6.6542    3.0771   22.9022 N   0  0  0  0  0  0  0  0  0  0  0  0
    6.1957    2.6932   23.7053 H   0  0  0  0  0  0  0  0  0  0  0  0
    6.6148    4.4881   22.5549 C   0  0  0  0  0  0  0  0  0  0  0  0
    6.4532    4.5984   21.4756 H   0  0  0  0  0  0  0  0  0  0  0  0
    5.7470    4.9276   23.0557 H   0  0  0  0  0  0  0  0  0  0  0  0
    7.8659    5.2370   22.9566 C   0  0  0  0  0  0  0  0  0  0  0  0
    8.7128    5.7673   21.9809 C   0  0  0  0  0  0  0  0  0  0  0  0
    8.4160    5.6987   20.9341 H   0  0  0  0  0  0  0  0  0  0  0  0
    9.9483    6.3177   22.3309 C   0  0  0  0  0  0  0  0  0  0  0  0
   10.6274    6.6341   21.5526 H   0  0  0  0  0  0  0  0  0  0  0  0
   10.3318    6.3889   23.6697 C   0  0  0  0  0  0  0  0  0  0  0  0
   11.3108    6.7832   23.9293 H   0  0  0  0  0  0  0  0  0  0  0  0
    9.4571    5.9296   24.6587 C   0  0  0  0  0  0  0  0  0  0  0  0
    9.7477    5.9800   25.7023 H   0  0  0  0  0  0  0  0  0  0  0  0
    8.2268    5.3675   24.3054 C   0  0  0  0  0  0  0  0  0  0  0  0
    7.5476    5.0155   25.0799 H   0  0  0  0  0  0  0  0  0  0  0  0
    5.3566    0.6886   20.1158 C   0  0  0  0  0  0  0  0  0  0  0  0
    4.8757    0.6935   21.0962 H   0  0  0  0  0  0  0  0  0  0  0  0
    4.7667    1.3245   19.0168 C   0  0  0  0  0  0  0  0  0  0  0  0
    3.8261    1.8556   19.1134 H   0  0  0  0  0  0  0  0  0  0  0  0
  1  2  1  0
  2  3  2  0
  3  4  1  0
  4  5  1  0
  4  6  2  0
  6  7  1  0
  7  8  1  0
  8  9  2  0
  9 10  1  0
 10 11  2  0
 11 12  1  0
 12 13  1  0
 13 14  2  0
 13 15  1  0
 15 16  1  0
 15 17  1  0
 17 18  1  0
 17 19  1  0
 17 20  1  0
 20 21  2  0
 21 22  1  0
 21 23  1  0
 23 24  1  0
 23 25  2  0
 25 26  1  0
 25 27  1  0
 27 28  1  0
 27 29  2  0
 29 30  1  0
  6 31  1  0
 31 32  1  0
 31 33  2  0
 33 34  1  0
 33  2  1  0
 11  7  1  0
 29 20  1  0
M  END
>  <cnnaffinity>  (1) 
-5.03625

>  <filename>  (1) 
O=C(NCc1ccccc1)Oc1nnnn1-c1cccnc1

$$$$
