
     RDKit          3D

 30 31  0  0  0  0  0  0  0  0999 V2000
    4.9493    1.8691   16.8325 H   0  0  0  0  0  0  0  0  0  0  0  0
    5.4153    1.3538   17.6711 C   0  0  0  0  0  0  0  0  0  0  0  0
    6.5966    0.7598   17.4229 N   0  0  0  0  0  0  0  0  0  0  0  0
    7.1944    0.1165   18.4346 C   0  0  0  0  0  0  0  0  0  0  0  0
    8.1676   -0.3337   18.2453 H   0  0  0  0  0  0  0  0  0  0  0  0
    6.6269    0.0066   19.7127 C   0  0  0  0  0  0  0  0  0  0  0  0
    7.3607   -0.6328   20.7055 O   0  0  0  0  0  0  0  0  0  0  0  0
    6.8547   -1.6758   21.4584 C   0  0  0  0  0  0  0  0  0  0  0  0
    6.0434   -2.4702   21.0755 O   0  0  0  0  0  0  0  0  0  0  0  0
    7.5371   -1.6933   22.7975 C   0  0  0  0  0  0  0  0  0  0  0  0
    7.1017   -2.5187   23.3661 H   0  0  0  0  0  0  0  0  0  0  0  0
    8.5930   -1.9394   22.6307 H   0  0  0  0  0  0  0  0  0  0  0  0
    7.4354   -0.3610   23.5803 C   0  0  0  0  0  0  0  0  0  0  0  0
    6.3758   -0.1286   23.7800 H   0  0  0  0  0  0  0  0  0  0  0  0
    7.8280    0.4735   22.9897 H   0  0  0  0  0  0  0  0  0  0  0  0
    8.1659   -0.4827   24.8954 C   0  0  0  0  0  0  0  0  0  0  0  0
    7.5291   -1.1859   25.9304 C   0  0  0  0  0  0  0  0  0  0  0  0
    6.5556   -1.6293   25.7365 H   0  0  0  0  0  0  0  0  0  0  0  0
    8.1396   -1.3817   27.1653 C   0  0  0  0  0  0  0  0  0  0  0  0
    7.6060   -1.9222   27.9302 H   0  0  0  0  0  0  0  0  0  0  0  0
    9.4191   -0.8690   27.3990 C   0  0  0  0  0  0  0  0  0  0  0  0
    9.9011   -0.9929   28.3620 H   0  0  0  0  0  0  0  0  0  0  0  0
   10.0848   -0.1805   26.3829 C   0  0  0  0  0  0  0  0  0  0  0  0
   11.0733    0.2318   26.5398 H   0  0  0  0  0  0  0  0  0  0  0  0
    9.4651   -0.0047   25.1414 C   0  0  0  0  0  0  0  0  0  0  0  0
   10.3457    0.8791   23.9192 Cl  0  0  0  0  0  0  0  0  0  0  0  0
    5.4111    0.6408   19.9806 C   0  0  0  0  0  0  0  0  0  0  0  0
    4.9815    0.6164   20.9818 H   0  0  0  0  0  0  0  0  0  0  0  0
    4.7991    1.3333   18.9255 C   0  0  0  0  0  0  0  0  0  0  0  0
    3.8609    1.8597   19.0668 H   0  0  0  0  0  0  0  0  0  0  0  0
  1  2  1  0
  2  3  2  0
  3  4  1  0
  4  5  1  0
  4  6  2  0
  6  7  1  0
  7  8  1  0
  8  9  2  0
  8 10  1  0
 10 11  1  0
 10 12  1  0
 10 13  1  0
 13 14  1  0
 13 15  1  0
 13 16  1  0
 16 17  2  0
 17 18  1  0
 17 19  1  0
 19 20  1  0
 19 21  2  0
 21 22  1  0
 21 23  1  0
 23 24  1  0
 23 25  2  0
 25 26  1  0
  6 27  1  0
 27 28  1  0
 27 29  2  0
 29 30  1  0
 29  2  1  0
 25 16  1  0
M  END
>  <cnnaffinity>  (1) 
-4.70601

>  <filename>  (1) 
O=C(CCc1ccccc1Cl)Oc1cccnc1

$$$$
