
     RDKit          3D

 24 25  0  0  0  0  0  0  0  0999 V2000
    5.3182   -0.0475   25.2699 H   0  0  0  0  0  0  0  0  0  0  0  0
    6.2275   -0.0248   24.9254 O   0  0  0  0  0  0  0  0  0  0  0  0
    6.0294    0.8306   23.9100 C   0  0  0  0  0  0  0  0  0  0  0  0
    4.9373    1.3189   23.7646 O   0  0  0  0  0  0  0  0  0  0  0  0
    7.2636    1.0898   23.0593 C   0  0  0  0  0  0  0  0  0  0  0  0
    7.0146    1.8952   22.3731 H   0  0  0  0  0  0  0  0  0  0  0  0
    8.0447    1.4838   23.7173 H   0  0  0  0  0  0  0  0  0  0  0  0
    7.7155   -0.1314   22.2985 C   0  0  0  0  0  0  0  0  0  0  0  0
    7.4079   -0.6177   21.0340 C   0  0  0  0  0  0  0  0  0  0  0  0
    6.6736    0.0694   19.9433 C   0  0  0  0  0  0  0  0  0  0  0  0
    7.1701    0.0896   18.6193 C   0  0  0  0  0  0  0  0  0  0  0  0
    8.1160   -0.3978   18.3855 H   0  0  0  0  0  0  0  0  0  0  0  0
    6.5618    0.6868   17.5860 N   0  0  0  0  0  0  0  0  0  0  0  0
    5.3973    1.3034   17.8363 C   0  0  0  0  0  0  0  0  0  0  0  0
    4.9256    1.7975   16.9879 H   0  0  0  0  0  0  0  0  0  0  0  0
    4.7954    1.3263   19.0987 C   0  0  0  0  0  0  0  0  0  0  0  0
    3.8464    1.8341   19.2263 H   0  0  0  0  0  0  0  0  0  0  0  0
    5.4415    0.7040   20.1699 C   0  0  0  0  0  0  0  0  0  0  0  0
    4.9892    0.6982   21.1630 H   0  0  0  0  0  0  0  0  0  0  0  0
    7.8850   -1.9575   21.0677 C   0  0  0  0  0  0  0  0  0  0  0  0
    7.7258   -2.7420   20.3524 H   0  0  0  0  0  0  0  0  0  0  0  0
    8.4763   -2.2565   22.2117 N   0  0  0  0  0  0  0  0  0  0  0  0
    8.3833   -1.1256   22.9334 N   0  0  0  0  0  0  0  0  0  0  0  0
    8.5713   -1.1818   23.9274 H   0  0  0  0  0  0  0  0  0  0  0  0
  1  2  1  0
  2  3  1  0
  3  4  2  0
  3  5  1  0
  5  6  1  0
  5  7  1  0
  5  8  1  0
  8  9  2  0
  9 10  1  0
 10 11  2  0
 11 12  1  0
 11 13  1  0
 13 14  2  0
 14 15  1  0
 14 16  1  0
 16 17  1  0
 16 18  2  0
 18 19  1  0
  9 20  1  0
 20 21  1  0
 20 22  2  0
 22 23  1  0
 23 24  1  0
 23  8  1  0
 18 10  1  0
M  END
>  <cnnaffinity>  (1) 
-4.40718

>  <filename>  (1) 
O=C(O)Cc1[nH]ncc1-c1cccnc1

$$$$
