
     RDKit          3D

 35 36  0  0  0  0  0  0  0  0999 V2000
   11.7992   -2.0758   22.1662 H   0  0  0  0  0  0  0  0  0  0  0  0
   11.9241   -1.6926   21.2771 O   0  0  0  0  0  0  0  0  0  0  0  0
   11.0162   -0.6465   21.1425 N   0  0  0  0  0  0  0  0  0  0  0  0
   10.4958   -0.7468   20.2794 H   0  0  0  0  0  0  0  0  0  0  0  0
   11.2549    0.6453   21.5582 C   0  0  0  0  0  0  0  0  0  0  0  0
   12.1240    0.9599   22.3429 O   0  0  0  0  0  0  0  0  0  0  0  0
   10.2539    1.6269   20.9606 C   0  0  0  0  0  0  0  0  0  0  0  0
    9.4916    1.1039   20.3655 H   0  0  0  0  0  0  0  0  0  0  0  0
   10.8411    2.2562   20.2791 H   0  0  0  0  0  0  0  0  0  0  0  0
    9.6143    2.5417   22.0190 C   0  0  0  0  0  0  0  0  0  0  0  0
    8.9463    3.2500   21.5105 H   0  0  0  0  0  0  0  0  0  0  0  0
   10.4160    3.1390   22.4710 H   0  0  0  0  0  0  0  0  0  0  0  0
    8.8413    1.8437   23.1492 C   0  0  0  0  0  0  0  0  0  0  0  0
    9.4979    1.1200   23.6508 H   0  0  0  0  0  0  0  0  0  0  0  0
    8.6074    2.5941   23.9145 H   0  0  0  0  0  0  0  0  0  0  0  0
    7.5252    1.1581   22.7214 C   0  0  0  0  0  0  0  0  0  0  0  0
    6.8421    1.1084   23.5819 H   0  0  0  0  0  0  0  0  0  0  0  0
    7.0214    1.7933   21.9867 H   0  0  0  0  0  0  0  0  0  0  0  0
    7.6953   -0.2375   22.1944 C   0  0  0  0  0  0  0  0  0  0  0  0
    8.2615   -1.3209   22.8362 C   0  0  0  0  0  0  0  0  0  0  0  0
    8.6829   -1.3374   23.8346 H   0  0  0  0  0  0  0  0  0  0  0  0
    8.2468   -2.3545   21.8783 C   0  0  0  0  0  0  0  0  0  0  0  0
    8.6182   -3.3698   21.9511 H   0  0  0  0  0  0  0  0  0  0  0  0
    7.7305   -1.9533   20.7305 N   0  0  0  0  0  0  0  0  0  0  0  0
    7.3570   -0.6742   20.9374 N   0  0  0  0  0  0  0  0  0  0  0  0
    6.6442    0.0012   19.9148 C   0  0  0  0  0  0  0  0  0  0  0  0
    7.1611    0.0001   18.6103 C   0  0  0  0  0  0  0  0  0  0  0  0
    8.0812   -0.5354   18.3782 H   0  0  0  0  0  0  0  0  0  0  0  0
    6.5755    0.6367   17.5914 N   0  0  0  0  0  0  0  0  0  0  0  0
    5.4228    1.2850   17.8335 C   0  0  0  0  0  0  0  0  0  0  0  0
    4.9786    1.8150   16.9944 H   0  0  0  0  0  0  0  0  0  0  0  0
    4.8021    1.2973   19.0857 C   0  0  0  0  0  0  0  0  0  0  0  0
    3.8719    1.8371   19.2286 H   0  0  0  0  0  0  0  0  0  0  0  0
    5.4217    0.6456   20.1540 C   0  0  0  0  0  0  0  0  0  0  0  0
    4.9727    0.6352   21.1483 H   0  0  0  0  0  0  0  0  0  0  0  0
  1  2  1  0
  2  3  1  0
  3  4  1  0
  3  5  1  0
  5  6  2  0
  5  7  1  0
  7  8  1  0
  7  9  1  0
  7 10  1  0
 10 11  1  0
 10 12  1  0
 10 13  1  0
 13 14  1  0
 13 15  1  0
 13 16  1  0
 16 17  1  0
 16 18  1  0
 16 19  1  0
 19 20  2  0
 20 21  1  0
 20 22  1  0
 22 23  1  0
 22 24  2  0
 24 25  1  0
 25 26  1  0
 26 27  2  0
 27 28  1  0
 27 29  1  0
 29 30  2  0
 30 31  1  0
 30 32  1  0
 32 33  1  0
 32 34  2  0
 34 35  1  0
 25 19  1  0
 34 26  1  0
M  END
>  <cnnaffinity>  (1) 
-5.13762

>  <filename>  (1) 
O=C(CCCCc1ccnn1-c1cccnc1)NO

$$$$
