
     RDKit          3D

 30 32  0  0  0  0  0  0  0  0999 V2000
    4.8926    2.0282   16.7169 H   0  0  0  0  0  0  0  0  0  0  0  0
    5.3246    1.4791   17.5500 C   0  0  0  0  0  0  0  0  0  0  0  0
    6.4642    0.8211   17.2881 N   0  0  0  0  0  0  0  0  0  0  0  0
    7.0329    0.1555   18.2940 C   0  0  0  0  0  0  0  0  0  0  0  0
    7.9639   -0.3493   18.0471 H   0  0  0  0  0  0  0  0  0  0  0  0
    6.4954    0.0938   19.5893 C   0  0  0  0  0  0  0  0  0  0  0  0
    7.2208   -0.6496   20.6115 C   0  0  0  0  0  0  0  0  0  0  0  0
    6.8897   -0.9108   21.8397 N   0  0  0  0  0  0  0  0  0  0  0  0
    7.9649   -1.5986   22.3284 C   0  0  0  0  0  0  0  0  0  0  0  0
    7.8635   -2.0092   23.6473 N   0  0  0  0  0  0  0  0  0  0  0  0
    7.0579   -1.6617   24.1262 H   0  0  0  0  0  0  0  0  0  0  0  0
    8.9258   -2.4900   24.3370 C   0  0  0  0  0  0  0  0  0  0  0  0
   10.0044   -2.7042   23.8433 O   0  0  0  0  0  0  0  0  0  0  0  0
    8.6293   -2.8504   25.9482 C   0  0  0  0  0  0  0  0  0  0  0  0
    7.3664   -3.8044   26.1194 C   0  0  0  0  0  0  0  0  0  0  0  0
    6.5167   -3.6061   25.4929 H   0  0  0  0  0  0  0  0  0  0  0  0
    7.2978   -4.7496   27.0853 C   0  0  0  0  0  0  0  0  0  0  0  0
    6.3472   -5.2467   27.2972 H   0  0  0  0  0  0  0  0  0  0  0  0
    8.3064   -5.1563   27.9357 N   0  0  0  0  0  0  0  0  0  0  0  0
    9.5343   -4.9347   27.6291 C   0  0  0  0  0  0  0  0  0  0  0  0
   10.2743   -4.7430   28.4052 H   0  0  0  0  0  0  0  0  0  0  0  0
    9.4244   -2.7548   26.9887 C   0  0  0  0  0  0  0  0  0  0  0  0
    9.9104   -4.8908   26.5888 H   0  0  0  0  0  0  0  0  0  0  0  0
    8.9148   -1.7395   21.3718 C   0  0  0  0  0  0  0  0  0  0  0  0
    9.8920   -2.1813   21.3557 H   0  0  0  0  0  0  0  0  0  0  0  0
    8.4322   -1.1307   20.2502 O   0  0  0  0  0  0  0  0  0  0  0  0
    5.2955    0.7729   19.8504 C   0  0  0  0  0  0  0  0  0  0  0  0
    4.8551    0.7471   20.8499 H   0  0  0  0  0  0  0  0  0  0  0  0
    4.7035    1.4812   18.8048 C   0  0  0  0  0  0  0  0  0  0  0  0
    3.7869    2.0458   18.9433 H   0  0  0  0  0  0  0  0  0  0  0  0
  1  2  1  0
  2  3  2  0
  3  4  1  0
  4  5  1  0
  4  6  2  0
  6  7  1  0
  7  8  2  0
  8  9  1  0
  9 10  1  0
 10 11  1  0
 10 12  1  0
 12 13  2  0
 12 14  1  0
 14 15  2  0
 15 16  1  0
 15 17  1  0
 17 18  1  0
 17 19  2  0
 19 20  1  0
 20 21  1  0
 20 22  2  0
 22 23  1  0
  9 24  2  0
 24 25  1  0
 24 26  1  0
  6 27  1  0
 27 28  1  0
 27 29  2  0
 29 30  1  0
 29  2  1  0
 26  7  1  0
 22 14  1  0
M  END
>  <cnnaffinity>  (1) 
-4.70381

>  <filename>  (1) 
O=C(Nc1coc(-c2cccnc2)n1)c1ccncc1

$$$$
