
     RDKit          3D

 40 42  0  0  0  0  0  0  0  0999 V2000
    1.0485   -3.7300   24.7259 H   0  0  0  0  0  0  0  0  0  0  0  0
    1.9264   -3.6963   24.3068 O   0  0  0  0  0  0  0  0  0  0  0  0
    2.7230   -4.6447   24.9634 N   0  0  0  0  0  0  0  0  0  0  0  0
    3.6785   -4.3028   24.9214 H   0  0  0  0  0  0  0  0  0  0  0  0
    2.7265   -5.9743   24.5090 C   0  0  0  0  0  0  0  0  0  0  0  0
    1.8882   -6.4682   23.7904 O   0  0  0  0  0  0  0  0  0  0  0  0
    3.8942   -6.7415   25.1030 C   0  0  0  0  0  0  0  0  0  0  0  0
    3.4694   -7.5706   25.6805 H   0  0  0  0  0  0  0  0  0  0  0  0
    4.4263   -6.1030   25.8202 H   0  0  0  0  0  0  0  0  0  0  0  0
    4.8346   -7.2805   24.0107 C   0  0  0  0  0  0  0  0  0  0  0  0
    5.3737   -8.1369   24.4158 H   0  0  0  0  0  0  0  0  0  0  0  0
    4.2135   -7.6894   23.2047 H   0  0  0  0  0  0  0  0  0  0  0  0
    5.7946   -6.2124   23.4558 C   0  0  0  0  0  0  0  0  0  0  0  0
    5.9506   -5.4219   24.2048 H   0  0  0  0  0  0  0  0  0  0  0  0
    6.7926   -6.6252   23.2767 H   0  0  0  0  0  0  0  0  0  0  0  0
    5.3004   -5.5786   22.1399 C   0  0  0  0  0  0  0  0  0  0  0  0
    5.4090   -6.3150   21.3360 H   0  0  0  0  0  0  0  0  0  0  0  0
    4.2281   -5.3582   22.2206 H   0  0  0  0  0  0  0  0  0  0  0  0
    6.0854   -4.3624   21.7494 C   0  0  0  0  0  0  0  0  0  0  0  0
    7.3355   -4.4169   21.3910 N   0  0  0  0  0  0  0  0  0  0  0  0
    7.8692   -3.1855   21.1456 N   0  0  0  0  0  0  0  0  0  0  0  0
    7.0155   -2.2103   21.2664 C   0  0  0  0  0  0  0  0  0  0  0  0
    7.3463   -0.7478   21.0503 C   0  0  0  0  0  0  0  0  0  0  0  0
    6.6261   -0.0216   19.9351 C   0  0  0  0  0  0  0  0  0  0  0  0
    7.1554    0.0213   18.6284 C   0  0  0  0  0  0  0  0  0  0  0  0
    8.0996   -0.4793   18.4111 H   0  0  0  0  0  0  0  0  0  0  0  0
    6.5786    0.6461   17.5921 N   0  0  0  0  0  0  0  0  0  0  0  0
    5.4235    1.2832   17.8344 C   0  0  0  0  0  0  0  0  0  0  0  0
    4.9770    1.8027   16.9892 H   0  0  0  0  0  0  0  0  0  0  0  0
    4.8004    1.2997   19.0862 C   0  0  0  0  0  0  0  0  0  0  0  0
    3.8681    1.8353   19.2136 H   0  0  0  0  0  0  0  0  0  0  0  0
    5.4119    0.6417   20.1555 C   0  0  0  0  0  0  0  0  0  0  0  0
    4.9681    0.6578   21.1542 H   0  0  0  0  0  0  0  0  0  0  0  0
    7.7385    0.0667   22.2869 C   0  0  0  0  0  0  0  0  0  0  0  0
    7.4592    1.1205   22.3078 H   0  0  0  0  0  0  0  0  0  0  0  0
    7.7093   -0.4187   23.2600 H   0  0  0  0  0  0  0  0  0  0  0  0
    8.7812   -0.3499   21.3007 C   0  0  0  0  0  0  0  0  0  0  0  0
    9.4502   -1.1581   21.5834 H   0  0  0  0  0  0  0  0  0  0  0  0
    9.2021    0.4162   20.6515 H   0  0  0  0  0  0  0  0  0  0  0  0
    5.4459   -2.7538   21.7679 S   0  0  0  0  0  0  0  0  0  0  0  0
  1  2  1  0
  2  3  1  0
  3  4  1  0
  3  5  1  0
  5  6  2  0
  5  7  1  0
  7  8  1  0
  7  9  1  0
  7 10  1  0
 10 11  1  0
 10 12  1  0
 10 13  1  0
 13 14  1  0
 13 15  1  0
 13 16  1  0
 16 17  1  0
 16 18  1  0
 16 19  1  0
 19 20  2  0
 20 21  1  0
 21 22  2  0
 22 23  1  0
 23 24  1  0
 24 25  2  0
 25 26  1  0
 25 27  1  0
 27 28  2  0
 28 29  1  0
 28 30  1  0
 30 31  1  0
 30 32  2  0
 32 33  1  0
 23 34  1  0
 34 35  1  0
 34 36  1  0
 34 37  1  0
 37 38  1  0
 37 39  1  0
 22 40  1  0
 40 19  1  0
 37 23  1  0
 32 24  1  0
M  END
>  <cnnaffinity>  (1) 
-5.35485

>  <filename>  (1) 
O=C(CCCCc1nnc(C2(c3cccnc3)CC2)s1)NO

$$$$
