
     RDKit          3D

 32 34  0  0  0  0  0  0  0  0999 V2000
    5.0178    1.7950   16.9705 H   0  0  0  0  0  0  0  0  0  0  0  0
    5.4389    1.2868   17.8376 C   0  0  0  0  0  0  0  0  0  0  0  0
    6.6072    0.6472   17.6644 N   0  0  0  0  0  0  0  0  0  0  0  0
    7.1353    0.0202   18.7229 C   0  0  0  0  0  0  0  0  0  0  0  0
    8.0867   -0.4870   18.5673 H   0  0  0  0  0  0  0  0  0  0  0  0
    6.5345   -0.0023   19.9957 C   0  0  0  0  0  0  0  0  0  0  0  0
    7.1478   -0.7173   21.0881 N   0  0  0  0  0  0  0  0  0  0  0  0
    7.8517   -0.1705   22.1528 C   0  0  0  0  0  0  0  0  0  0  0  0
    7.9696    1.3227   22.4279 C   0  0  0  0  0  0  0  0  0  0  0  0
    7.8081    2.1610   21.5573 O   0  0  0  0  0  0  0  0  0  0  0  0
    8.2619    1.6161   23.7335 N   0  0  0  0  0  0  0  0  0  0  0  0
    8.4083    0.8137   24.3277 H   0  0  0  0  0  0  0  0  0  0  0  0
    8.5019    2.9020   24.2687 C   0  0  0  0  0  0  0  0  0  0  0  0
    8.1158    3.2143   25.5813 C   0  0  0  0  0  0  0  0  0  0  0  0
    7.5987    2.4815   26.1939 H   0  0  0  0  0  0  0  0  0  0  0  0
    8.3767    4.4882   26.1050 C   0  0  0  0  0  0  0  0  0  0  0  0
    8.0801    4.7543   27.1152 H   0  0  0  0  0  0  0  0  0  0  0  0
    9.0402    5.4336   25.3203 C   0  0  0  0  0  0  0  0  0  0  0  0
    9.3879    7.0163   25.9542 Cl  0  0  0  0  0  0  0  0  0  0  0  0
    9.4338    5.1246   24.0171 C   0  0  0  0  0  0  0  0  0  0  0  0
    9.9458    5.8649   23.4129 H   0  0  0  0  0  0  0  0  0  0  0  0
    9.1560    3.8633   23.4930 C   0  0  0  0  0  0  0  0  0  0  0  0
    9.4262    3.6110   22.4748 H   0  0  0  0  0  0  0  0  0  0  0  0
    8.3841   -1.1097   22.8916 N   0  0  0  0  0  0  0  0  0  0  0  0
    7.9854   -2.2532   22.2978 N   0  0  0  0  0  0  0  0  0  0  0  0
    8.1652   -3.1553   22.7115 H   0  0  0  0  0  0  0  0  0  0  0  0
    7.1583   -2.0988   21.2430 C   0  0  0  0  0  0  0  0  0  0  0  0
    6.3540   -3.2937   20.4218 S   0  0  0  0  0  0  0  0  0  0  0  0
    5.3250    0.6696   20.1690 C   0  0  0  0  0  0  0  0  0  0  0  0
    4.8602    0.6880   21.1553 H   0  0  0  0  0  0  0  0  0  0  0  0
    4.7665    1.3187   19.0619 C   0  0  0  0  0  0  0  0  0  0  0  0
    3.8373    1.8677   19.1489 H   0  0  0  0  0  0  0  0  0  0  0  0
  1  2  1  0
  2  3  2  0
  3  4  1  0
  4  5  1  0
  4  6  2  0
  6  7  1  0
  7  8  1  0
  8  9  1  0
  9 10  2  0
  9 11  1  0
 11 12  1  0
 11 13  1  0
 13 14  2  0
 14 15  1  0
 14 16  1  0
 16 17  1  0
 16 18  2  0
 18 19  1  0
 18 20  1  0
 20 21  1  0
 20 22  2  0
 22 23  1  0
  8 24  2  0
 24 25  1  0
 25 26  1  0
 25 27  1  0
 27 28  2  0
  6 29  1  0
 29 30  1  0
 29 31  2  0
 31 32  1  0
 31  2  1  0
 27  7  1  0
 22 13  1  0
M  END
>  <cnnaffinity>  (1) 
-5.17375

>  <filename>  (1) 
O=C(Nc1ccc(Cl)cc1)c1n[nH]c(=S)n1-c1cccnc1

$$$$
