
     RDKit          3D

 30 32  0  0  0  0  0  0  0  0999 V2000
    4.9433    1.7966   16.9930 H   0  0  0  0  0  0  0  0  0  0  0  0
    5.4048    1.2892   17.8391 C   0  0  0  0  0  0  0  0  0  0  0  0
    6.5660    0.6635   17.5835 N   0  0  0  0  0  0  0  0  0  0  0  0
    7.1680    0.0364   18.5940 C   0  0  0  0  0  0  0  0  0  0  0  0
    8.1177   -0.4510   18.3800 H   0  0  0  0  0  0  0  0  0  0  0  0
    6.6490    0.0065   19.9016 C   0  0  0  0  0  0  0  0  0  0  0  0
    7.3651   -0.6725   20.9329 N   0  0  0  0  0  0  0  0  0  0  0  0
    7.8984   -1.8982   20.7354 N   0  0  0  0  0  0  0  0  0  0  0  0
    8.4677   -2.2373   21.8317 N   0  0  0  0  0  0  0  0  0  0  0  0
    8.3420   -1.2713   22.7681 N   0  0  0  0  0  0  0  0  0  0  0  0
    7.6418   -0.3086   22.2126 C   0  0  0  0  0  0  0  0  0  0  0  0
    7.2486    0.9949   22.8503 C   0  0  0  0  0  0  0  0  0  0  0  0
    8.0581    1.2967   23.5280 H   0  0  0  0  0  0  0  0  0  0  0  0
    7.2130    1.7860   22.0886 H   0  0  0  0  0  0  0  0  0  0  0  0
    5.9487    0.9715   23.5533 N   0  0  0  0  0  0  0  0  0  0  0  0
    5.4757    0.1080   23.7870 H   0  0  0  0  0  0  0  0  0  0  0  0
    5.4868    2.0653   24.2342 C   0  0  0  0  0  0  0  0  0  0  0  0
    6.0795    3.1325   24.2537 O   0  0  0  0  0  0  0  0  0  0  0  0
    4.1795    1.8547   24.9312 C   0  0  0  0  0  0  0  0  0  0  0  0
    3.5252    3.2279   25.7484 S   0  0  0  0  0  0  0  0  0  0  0  0
    2.1107    2.3693   26.1698 C   0  0  0  0  0  0  0  0  0  0  0  0
    1.3549    2.8553   26.7685 H   0  0  0  0  0  0  0  0  0  0  0  0
    2.1198    1.0847   25.7158 C   0  0  0  0  0  0  0  0  0  0  0  0
    1.3005    0.3774   25.8434 H   0  0  0  0  0  0  0  0  0  0  0  0
    3.3277    0.7780   25.0407 C   0  0  0  0  0  0  0  0  0  0  0  0
    3.5216   -0.2279   24.6838 H   0  0  0  0  0  0  0  0  0  0  0  0
    5.4366    0.6477   20.1687 C   0  0  0  0  0  0  0  0  0  0  0  0
    5.0144    0.6474   21.1758 H   0  0  0  0  0  0  0  0  0  0  0  0
    4.8092    1.3016   19.1019 C   0  0  0  0  0  0  0  0  0  0  0  0
    3.8813    1.8360   19.2472 H   0  0  0  0  0  0  0  0  0  0  0  0
  1  2  1  0
  2  3  2  0
  3  4  1  0
  4  5  1  0
  4  6  2  0
  6  7  1  0
  7  8  1  0
  8  9  2  0
  9 10  1  0
 10 11  2  0
 11 12  1  0
 12 13  1  0
 12 14  1  0
 12 15  1  0
 15 16  1  0
 15 17  1  0
 17 18  2  0
 17 19  1  0
 19 20  1  0
 20 21  1  0
 21 22  1  0
 21 23  2  0
 23 24  1  0
 23 25  1  0
 25 26  1  0
  6 27  1  0
 27 28  1  0
 27 29  2  0
 29 30  1  0
 29  2  1  0
 11  7  1  0
 25 19  2  0
M  END
>  <cnnaffinity>  (1) 
-4.61419

>  <filename>  (1) 
O=C(NCc1nnnn1-c1cccnc1)c1cccs1

$$$$
