
     RDKit          3D

 32 34  0  0  0  0  0  0  0  0999 V2000
    5.1185    1.8491   16.7756 H   0  0  0  0  0  0  0  0  0  0  0  0
    5.5059    1.3190   17.6456 C   0  0  0  0  0  0  0  0  0  0  0  0
    6.6261    0.6034   17.4508 N   0  0  0  0  0  0  0  0  0  0  0  0
    7.1175   -0.0802   18.4939 C   0  0  0  0  0  0  0  0  0  0  0  0
    8.0297   -0.6516   18.3266 H   0  0  0  0  0  0  0  0  0  0  0  0
    6.5146   -0.0941   19.7649 C   0  0  0  0  0  0  0  0  0  0  0  0
    7.0018   -0.9379   20.8316 N   0  0  0  0  0  0  0  0  0  0  0  0
    7.6547   -0.5223   21.9864 C   0  0  0  0  0  0  0  0  0  0  0  0
    8.0462    0.9364   22.2615 C   0  0  0  0  0  0  0  0  0  0  0  0
    8.4083    1.7059   21.3895 O   0  0  0  0  0  0  0  0  0  0  0  0
    7.9176    1.3122   23.5766 N   0  0  0  0  0  0  0  0  0  0  0  0
    7.6403    0.5650   24.2029 H   0  0  0  0  0  0  0  0  0  0  0  0
    8.0685    2.6748   24.0565 C   0  0  0  0  0  0  0  0  0  0  0  0
    8.4700    3.2595   23.2127 H   0  0  0  0  0  0  0  0  0  0  0  0
    7.0848    3.0868   24.3964 H   0  0  0  0  0  0  0  0  0  0  0  0
    8.7713    3.3859   26.0121 C   0  0  0  0  0  0  0  0  0  0  0  0
    8.5762    2.9812   27.1526 H   0  0  0  0  0  0  0  0  0  0  0  0
    9.0136    4.7385   25.8119 C   0  0  0  0  0  0  0  0  0  0  0  0
    9.1710    5.3426   24.9478 H   0  0  0  0  0  0  0  0  0  0  0  0
    8.7892    4.8740   26.8016 H   0  0  0  0  0  0  0  0  0  0  0  0
    8.8339    3.3481   26.0154 C   0  0  0  0  0  0  0  0  0  0  0  0
   10.1613    1.6120   25.1841 H   0  0  0  0  0  0  0  0  0  0  0  0
   10.4877    2.1689   25.3101 H   0  0  0  0  0  0  0  0  0  0  0  0
    7.8561   -1.5296   22.7989 N   0  0  0  0  0  0  0  0  0  0  0  0
    7.3075   -2.5815   22.1516 N   0  0  0  0  0  0  0  0  0  0  0  0
    7.2790   -3.5085   22.5456 H   0  0  0  0  0  0  0  0  0  0  0  0
    6.7036   -2.2914   20.9803 C   0  0  0  0  0  0  0  0  0  0  0  0
    5.8042   -3.3241   20.0431 S   0  0  0  0  0  0  0  0  0  0  0  0
    5.3707    0.6803   19.9663 C   0  0  0  0  0  0  0  0  0  0  0  0
    4.8998    0.7068   20.9493 H   0  0  0  0  0  0  0  0  0  0  0  0
    4.8525    1.3974   18.8797 C   0  0  0  0  0  0  0  0  0  0  0  0
    3.9624    2.0125   18.9769 H   0  0  0  0  0  0  0  0  0  0  0  0
  1  2  1  0
  2  3  2  0
  3  4  1  0
  4  5  1  0
  4  6  2  0
  6  7  1  0
  7  8  1  0
  8  9  1  0
  9 10  2  0
  9 11  1  0
 11 12  1  0
 11 13  1  0
 13 14  1  0
 13 15  1  0
 13 16  1  0
 16 17  1  0
 16 18  1  0
 18 19  1  0
 18 20  1  0
 18 21  1  0
 21 22  1  0
 21 23  1  0
  8 24  2  0
 24 25  1  0
 25 26  1  0
 25 27  1  0
 27 28  2  0
  6 29  1  0
 29 30  1  0
 29 31  2  0
 31 32  1  0
 31  2  1  0
 27  7  1  0
 21 16  1  0
M  END
>  <cnnaffinity>  (1) 
-4.25258

>  <filename>  (1) 
O=C(NCC1CC1)c1n[nH]c(=S)n1-c1cccnc1

$$$$
