
     RDKit          3D

 37 38  0  0  0  0  0  0  0  0999 V2000
    7.0348    0.8515   22.6657 O   0  0  0  0  0  0  0  0  0  0  0  0
    7.4139   -0.2487   22.3043 C   0  0  0  0  0  0  0  0  0  0  0  0
    7.3256   -0.7219   21.0006 N   0  0  0  0  0  0  0  0  0  0  0  0
    6.6736   -0.0260   19.9326 C   0  0  0  0  0  0  0  0  0  0  0  0
    5.4598    0.6379   20.1757 C   0  0  0  0  0  0  0  0  0  0  0  0
    4.8263    1.2887   19.1103 C   0  0  0  0  0  0  0  0  0  0  0  0
    5.4100    1.2830   17.8414 C   0  0  0  0  0  0  0  0  0  0  0  0
    6.5729    0.6601   17.5878 N   0  0  0  0  0  0  0  0  0  0  0  0
    7.1776    0.0329   18.6068 C   0  0  0  0  0  0  0  0  0  0  0  0
    8.1289   -0.4338   18.3600 H   0  0  0  0  0  0  0  0  0  0  0  0
    4.9392    1.7890   16.9988 H   0  0  0  0  0  0  0  0  0  0  0  0
    3.8965    1.8215   19.2624 H   0  0  0  0  0  0  0  0  0  0  0  0
    5.0497    0.6397   21.1844 H   0  0  0  0  0  0  0  0  0  0  0  0
    7.9241   -1.5082   20.8034 H   0  0  0  0  0  0  0  0  0  0  0  0
    8.0024   -1.1405   23.1696 N   0  0  0  0  0  0  0  0  0  0  0  0
    8.1222   -0.8164   24.6105 C   0  0  0  0  0  0  0  0  0  0  0  0
    9.3339    0.1370   24.8228 C   0  0  0  0  0  0  0  0  0  0  0  0
    9.5526    0.4901   26.1698 O   0  0  0  0  0  0  0  0  0  0  0  0
    8.8639    1.0941   26.4773 H   0  0  0  0  0  0  0  0  0  0  0  0
    9.1894    1.0085   24.1646 H   0  0  0  0  0  0  0  0  0  0  0  0
   10.2490   -0.3685   24.4993 H   0  0  0  0  0  0  0  0  0  0  0  0
    8.2242   -2.0732   25.4833 C   0  0  0  0  0  0  0  0  0  0  0  0
    9.3324   -2.9182   25.3058 C   0  0  0  0  0  0  0  0  0  0  0  0
    9.5320   -4.0586   26.0909 C   0  0  0  0  0  0  0  0  0  0  0  0
    8.6105   -4.3869   27.0870 C   0  0  0  0  0  0  0  0  0  0  0  0
    7.4979   -3.5666   27.2799 C   0  0  0  0  0  0  0  0  0  0  0  0
    7.3106   -2.3990   26.5183 C   0  0  0  0  0  0  0  0  0  0  0  0
    6.1066   -1.5132   26.8070 C   0  0  0  0  0  0  0  0  0  0  0  0
    5.3186   -2.0080   27.7772 F   0  0  0  0  0  0  0  0  0  0  0  0
    5.3296   -1.3648   25.7120 F   0  0  0  0  0  0  0  0  0  0  0  0
    6.4643   -0.2651   27.1911 F   0  0  0  0  0  0  0  0  0  0  0  0
    6.7431   -3.8554   28.0062 H   0  0  0  0  0  0  0  0  0  0  0  0
    8.7416   -5.2788   27.7000 H   0  0  0  0  0  0  0  0  0  0  0  0
   10.3935   -4.6943   25.9084 H   0  0  0  0  0  0  0  0  0  0  0  0
   10.0687   -2.6562   24.5475 H   0  0  0  0  0  0  0  0  0  0  0  0
    7.2483   -0.2285   24.9133 H   0  0  0  0  0  0  0  0  0  0  0  0
    8.1617   -2.0809   22.8525 H   0  0  0  0  0  0  0  0  0  0  0  0
  1  2  2  0
  2  3  1  0
  3  4  1  0
  4  5  2  0
  5  6  1  0
  6  7  2  0
  7  8  1  0
  8  9  2  0
  9 10  1  0
  7 11  1  0
  6 12  1  0
  5 13  1  0
  3 14  1  0
  2 15  1  0
 15 16  1  0
 16 17  1  0
 17 18  1  0
 18 19  1  0
 17 20  1  0
 17 21  1  0
 16 22  1  0
 22 23  2  0
 23 24  1  0
 24 25  2  0
 25 26  1  0
 26 27  2  0
 27 28  1  0
 28 29  1  0
 28 30  1  0
 28 31  1  0
 26 32  1  0
 25 33  1  0
 24 34  1  0
 23 35  1  0
 16 36  1  0
 15 37  1  0
  9  4  1  0
 27 22  1  0
M  END
>  <cnnaffinity>  (1) 
-5.37341

>  <filename>  (1) 
O=C(Nc1cccnc1)NC(CO)c1ccccc1C(F)(F)F

$$$$
