
     RDKit          3D

 30 32  0  0  0  0  0  0  0  0999 V2000
    4.9420    1.7870   16.9949 H   0  0  0  0  0  0  0  0  0  0  0  0
    5.4027    1.2856   17.8417 C   0  0  0  0  0  0  0  0  0  0  0  0
    6.5708    0.6666   17.5950 N   0  0  0  0  0  0  0  0  0  0  0  0
    7.1816    0.0563   18.6117 C   0  0  0  0  0  0  0  0  0  0  0  0
    8.1256   -0.4358   18.3876 H   0  0  0  0  0  0  0  0  0  0  0  0
    6.6583    0.0308   19.9167 C   0  0  0  0  0  0  0  0  0  0  0  0
    7.3647   -0.6369   20.9583 N   0  0  0  0  0  0  0  0  0  0  0  0
    8.1492   -1.7283   20.7331 N   0  0  0  0  0  0  0  0  0  0  0  0
    8.6348   -2.0720   21.8661 N   0  0  0  0  0  0  0  0  0  0  0  0
    8.2257   -1.2446   22.8638 N   0  0  0  0  0  0  0  0  0  0  0  0
    7.4539   -0.3726   22.2713 C   0  0  0  0  0  0  0  0  0  0  0  0
    6.9485    0.7801   22.7708 O   0  0  0  0  0  0  0  0  0  0  0  0
    7.2355    0.9241   24.1409 N   0  0  0  0  0  0  0  0  0  0  0  0
    6.5036    1.3574   24.6913 H   0  0  0  0  0  0  0  0  0  0  0  0
    8.5100    1.2275   24.6067 C   0  0  0  0  0  0  0  0  0  0  0  0
    8.6440    1.2868   25.8105 O   0  0  0  0  0  0  0  0  0  0  0  0
    9.6352    1.4322   23.5895 C   0  0  0  0  0  0  0  0  0  0  0  0
    9.4561    2.1119   22.3700 C   0  0  0  0  0  0  0  0  0  0  0  0
    8.5020    2.5305   22.0709 H   0  0  0  0  0  0  0  0  0  0  0  0
   10.5433    2.2606   21.5017 C   0  0  0  0  0  0  0  0  0  0  0  0
   10.4342    2.7682   20.5483 H   0  0  0  0  0  0  0  0  0  0  0  0
   11.7716    1.7999   21.7683 N   0  0  0  0  0  0  0  0  0  0  0  0
   11.9550    1.1674   22.9302 C   0  0  0  0  0  0  0  0  0  0  0  0
   12.9709    0.8211   23.1308 H   0  0  0  0  0  0  0  0  0  0  0  0
   10.9330    0.9602   23.8688 C   0  0  0  0  0  0  0  0  0  0  0  0
   11.1505    0.4496   24.8020 H   0  0  0  0  0  0  0  0  0  0  0  0
    5.4370    0.6660   20.1753 C   0  0  0  0  0  0  0  0  0  0  0  0
    5.0075    0.6617   21.1753 H   0  0  0  0  0  0  0  0  0  0  0  0
    4.8012    1.3034   19.1041 C   0  0  0  0  0  0  0  0  0  0  0  0
    3.8665    1.8367   19.2422 H   0  0  0  0  0  0  0  0  0  0  0  0
  1  2  1  0
  2  3  2  0
  3  4  1  0
  4  5  1  0
  4  6  2  0
  6  7  1  0
  7  8  1  0
  8  9  2  0
  9 10  1  0
 10 11  2  0
 11 12  1  0
 12 13  1  0
 13 14  1  0
 13 15  1  0
 15 16  2  0
 15 17  1  0
 17 18  2  0
 18 19  1  0
 18 20  1  0
 20 21  1  0
 20 22  2  0
 22 23  1  0
 23 24  1  0
 23 25  2  0
 25 26  1  0
  6 27  1  0
 27 28  1  0
 27 29  2  0
 29 30  1  0
 29  2  1  0
 11  7  1  0
 25 17  1  0
M  END
>  <cnnaffinity>  (1) 
-5.12259

>  <filename>  (1) 
O=C(NOc1nnnn1-c1cccnc1)c1ccncc1

$$$$
