
     RDKit          3D

 40 42  0  0  0  0  0  0  0  0999 V2000
    4.9407    1.7803   17.0015 H   0  0  0  0  0  0  0  0  0  0  0  0
    5.4100    1.2828   17.8501 C   0  0  0  0  0  0  0  0  0  0  0  0
    6.5722    0.6534   17.5973 N   0  0  0  0  0  0  0  0  0  0  0  0
    7.1931    0.0484   18.6213 C   0  0  0  0  0  0  0  0  0  0  0  0
    8.1427   -0.4362   18.3982 H   0  0  0  0  0  0  0  0  0  0  0  0
    6.6762    0.0260   19.9301 C   0  0  0  0  0  0  0  0  0  0  0  0
    7.4373   -0.5289   20.9708 O   0  0  0  0  0  0  0  0  0  0  0  0
    6.8415   -1.3542   21.8928 C   0  0  0  0  0  0  0  0  0  0  0  0
    5.7692   -1.8719   21.6974 O   0  0  0  0  0  0  0  0  0  0  0  0
    7.7423   -1.6296   23.0975 C   0  0  0  0  0  0  0  0  0  0  0  0
    8.3026   -0.4524   23.8991 C   0  0  0  0  0  0  0  0  0  0  0  0
    9.1784   -0.8218   24.4556 H   0  0  0  0  0  0  0  0  0  0  0  0
    8.6884    0.3172   23.2169 H   0  0  0  0  0  0  0  0  0  0  0  0
    7.3579    0.2026   24.9390 C   0  0  0  0  0  0  0  0  0  0  0  0
    6.8938   -0.5973   25.5447 H   0  0  0  0  0  0  0  0  0  0  0  0
    8.1477    1.1035   25.9282 C   0  0  0  0  0  0  0  0  0  0  0  0
    8.9075    0.5082   26.4542 H   0  0  0  0  0  0  0  0  0  0  0  0
    8.7005    1.8667   25.3556 H   0  0  0  0  0  0  0  0  0  0  0  0
    7.2359    1.8022   26.9542 C   0  0  0  0  0  0  0  0  0  0  0  0
    7.8283    2.4513   27.6117 H   0  0  0  0  0  0  0  0  0  0  0  0
    6.7800    1.0433   27.6080 H   0  0  0  0  0  0  0  0  0  0  0  0
    6.1233    2.6038   26.2578 C   0  0  0  0  0  0  0  0  0  0  0  0
    5.4607    3.0710   26.9977 H   0  0  0  0  0  0  0  0  0  0  0  0
    6.5781    3.4302   25.6905 H   0  0  0  0  0  0  0  0  0  0  0  0
    5.3169    1.7143   25.2953 C   0  0  0  0  0  0  0  0  0  0  0  0
    4.5576    2.3067   24.7710 H   0  0  0  0  0  0  0  0  0  0  0  0
    4.7695    0.9566   25.8759 H   0  0  0  0  0  0  0  0  0  0  0  0
    6.2219    1.0053   24.2737 C   0  0  0  0  0  0  0  0  0  0  0  0
    5.6252    0.3500   23.6262 H   0  0  0  0  0  0  0  0  0  0  0  0
    6.6745    1.7559   23.6035 H   0  0  0  0  0  0  0  0  0  0  0  0
    8.6257   -2.8558   22.9174 C   0  0  0  0  0  0  0  0  0  0  0  0
    8.5585   -3.3920   21.9754 H   0  0  0  0  0  0  0  0  0  0  0  0
    9.6437   -2.8193   23.3052 H   0  0  0  0  0  0  0  0  0  0  0  0
    7.4707   -2.9062   23.8734 C   0  0  0  0  0  0  0  0  0  0  0  0
    6.5847   -3.4803   23.6114 H   0  0  0  0  0  0  0  0  0  0  0  0
    7.6847   -2.9096   24.9435 H   0  0  0  0  0  0  0  0  0  0  0  0
    5.4471    0.6433   20.1746 C   0  0  0  0  0  0  0  0  0  0  0  0
    5.0058    0.6153   21.1690 H   0  0  0  0  0  0  0  0  0  0  0  0
    4.8189    1.3013   19.1150 C   0  0  0  0  0  0  0  0  0  0  0  0
    3.8886    1.8336   19.2614 H   0  0  0  0  0  0  0  0  0  0  0  0
  1  2  1  0
  2  3  2  0
  3  4  1  0
  4  5  1  0
  4  6  2  0
  6  7  1  0
  7  8  1  0
  8  9  2  0
  8 10  1  0
 10 11  1  0
 11 12  1  0
 11 13  1  0
 11 14  1  0
 14 15  1  0
 14 16  1  0
 16 17  1  0
 16 18  1  0
 16 19  1  0
 19 20  1  0
 19 21  1  0
 19 22  1  0
 22 23  1  0
 22 24  1  0
 22 25  1  0
 25 26  1  0
 25 27  1  0
 25 28  1  0
 28 29  1  0
 28 30  1  0
 10 31  1  0
 31 32  1  0
 31 33  1  0
 31 34  1  0
 34 35  1  0
 34 36  1  0
  6 37  1  0
 37 38  1  0
 37 39  2  0
 39 40  1  0
 39  2  1  0
 34 10  1  0
 28 14  1  0
M  END
>  <cnnaffinity>  (1) 
-5.01042

>  <filename>  (1) 
O=C(Oc1cccnc1)C1(CC2CCCCC2)CC1

$$$$
