
     RDKit          3D

 25 26  0  0  0  0  0  0  0  0999 V2000
    4.9400    1.7725   17.0012 H   0  0  0  0  0  0  0  0  0  0  0  0
    5.4075    1.2826   17.8521 C   0  0  0  0  0  0  0  0  0  0  0  0
    6.5709    0.6597   17.6207 N   0  0  0  0  0  0  0  0  0  0  0  0
    7.1635    0.0388   18.6445 C   0  0  0  0  0  0  0  0  0  0  0  0
    8.1209   -0.4253   18.4163 H   0  0  0  0  0  0  0  0  0  0  0  0
    6.6125   -0.0257   19.9284 C   0  0  0  0  0  0  0  0  0  0  0  0
    7.4210   -0.7225   20.9712 C   0  0  0  0  0  0  0  0  0  0  0  0
    8.6379   -0.7980   20.8994 O   0  0  0  0  0  0  0  0  0  0  0  0
    6.7245   -1.2667   22.0069 N   0  0  0  0  0  0  0  0  0  0  0  0
    5.7237   -1.3107   21.9422 H   0  0  0  0  0  0  0  0  0  0  0  0
    7.3984   -1.9333   23.1147 C   0  0  0  0  0  0  0  0  0  0  0  0
    8.1823   -1.2712   23.5021 H   0  0  0  0  0  0  0  0  0  0  0  0
    6.6690   -2.0796   23.9189 H   0  0  0  0  0  0  0  0  0  0  0  0
    7.9914   -3.2739   22.7401 C   0  0  0  0  0  0  0  0  0  0  0  0
    8.7494   -3.1977   21.9646 H   0  0  0  0  0  0  0  0  0  0  0  0
    7.1113   -4.4886   22.7524 C   0  0  0  0  0  0  0  0  0  0  0  0
    7.2469   -5.2475   21.9831 H   0  0  0  0  0  0  0  0  0  0  0  0
    6.0702   -4.3546   23.0510 H   0  0  0  0  0  0  0  0  0  0  0  0
    8.1782   -4.3176   23.8026 C   0  0  0  0  0  0  0  0  0  0  0  0
    9.0542   -4.9646   23.7618 H   0  0  0  0  0  0  0  0  0  0  0  0
    7.8713   -4.0775   24.8229 H   0  0  0  0  0  0  0  0  0  0  0  0
    5.4023    0.6404   20.1705 C   0  0  0  0  0  0  0  0  0  0  0  0
    4.9686    0.6656   21.1746 H   0  0  0  0  0  0  0  0  0  0  0  0
    4.7978    1.3113   19.1104 C   0  0  0  0  0  0  0  0  0  0  0  0
    3.8692    1.8502   19.2511 H   0  0  0  0  0  0  0  0  0  0  0  0
  1  2  1  0
  2  3  2  0
  3  4  1  0
  4  5  1  0
  4  6  2  0
  6  7  1  0
  7  8  2  0
  7  9  1  0
  9 10  1  0
  9 11  1  0
 11 12  1  0
 11 13  1  0
 11 14  1  0
 14 15  1  0
 14 16  1  0
 16 17  1  0
 16 18  1  0
 16 19  1  0
 19 20  1  0
 19 21  1  0
  6 22  1  0
 22 23  1  0
 22 24  2  0
 24 25  1  0
 24  2  1  0
 19 14  1  0
M  END
>  <cnnaffinity>  (1) 
-4.12903

>  <filename>  (1) 
O=C(NCC1CC1)c1cccnc1

$$$$
