
     RDKit          3D

 38 40  0  0  0  0  0  0  0  0999 V2000
    4.9976    1.8043   16.9750 H   0  0  0  0  0  0  0  0  0  0  0  0
    5.4482    1.3081   17.8317 C   0  0  0  0  0  0  0  0  0  0  0  0
    6.6037    0.6589   17.6019 N   0  0  0  0  0  0  0  0  0  0  0  0
    7.1692    0.0169   18.6253 C   0  0  0  0  0  0  0  0  0  0  0  0
    8.0825   -0.5365   18.4229 H   0  0  0  0  0  0  0  0  0  0  0  0
    6.6432    0.0192   19.9253 C   0  0  0  0  0  0  0  0  0  0  0  0
    7.3556   -0.6750   20.9412 N   0  0  0  0  0  0  0  0  0  0  0  0
    7.6813   -1.9773   20.7547 N   0  0  0  0  0  0  0  0  0  0  0  0
    8.2919   -2.3301   21.8759 C   0  0  0  0  0  0  0  0  0  0  0  0
    8.6461   -3.3457   21.9867 H   0  0  0  0  0  0  0  0  0  0  0  0
    8.3996   -1.2738   22.7988 C   0  0  0  0  0  0  0  0  0  0  0  0
    8.8359   -1.2628   23.7826 H   0  0  0  0  0  0  0  0  0  0  0  0
    7.8113   -0.2195   22.1547 C   0  0  0  0  0  0  0  0  0  0  0  0
    7.6931    1.1071   22.5591 N   0  0  0  0  0  0  0  0  0  0  0  0
    7.0549    1.6952   22.0608 H   0  0  0  0  0  0  0  0  0  0  0  0
    8.2675    1.6785   23.6712 C   0  0  0  0  0  0  0  0  0  0  0  0
    9.1710    1.1535   24.2900 O   0  0  0  0  0  0  0  0  0  0  0  0
    7.6448    3.0510   23.9952 C   0  0  0  0  0  0  0  0  0  0  0  0
    6.6002    3.0100   23.6529 H   0  0  0  0  0  0  0  0  0  0  0  0
    8.3578    4.1847   23.2009 C   0  0  0  0  0  0  0  0  0  0  0  0
    8.3828    3.9528   22.1277 H   0  0  0  0  0  0  0  0  0  0  0  0
    7.7695    5.1079   23.3184 H   0  0  0  0  0  0  0  0  0  0  0  0
    9.7699    4.4518   23.7389 C   0  0  0  0  0  0  0  0  0  0  0  0
   10.2851    5.2282   23.1554 H   0  0  0  0  0  0  0  0  0  0  0  0
   10.3629    3.5315   23.6537 H   0  0  0  0  0  0  0  0  0  0  0  0
    9.6654    4.8631   25.2127 C   0  0  0  0  0  0  0  0  0  0  0  0
   10.6368    5.1551   25.6319 H   0  0  0  0  0  0  0  0  0  0  0  0
    9.0429    5.7678   25.2651 H   0  0  0  0  0  0  0  0  0  0  0  0
    9.0224    3.7381   26.0414 C   0  0  0  0  0  0  0  0  0  0  0  0
    9.6524    2.8435   25.9613 H   0  0  0  0  0  0  0  0  0  0  0  0
    8.9547    4.0360   27.0946 H   0  0  0  0  0  0  0  0  0  0  0  0
    7.6328    3.3382   25.5137 C   0  0  0  0  0  0  0  0  0  0  0  0
    6.9044    4.1370   25.7096 H   0  0  0  0  0  0  0  0  0  0  0  0
    7.2602    2.4544   26.0520 H   0  0  0  0  0  0  0  0  0  0  0  0
    5.4299    0.6803   20.1611 C   0  0  0  0  0  0  0  0  0  0  0  0
    4.9692    0.6719   21.1505 H   0  0  0  0  0  0  0  0  0  0  0  0
    4.8199    1.3304   19.0806 C   0  0  0  0  0  0  0  0  0  0  0  0
    3.8739    1.8489   19.1961 H   0  0  0  0  0  0  0  0  0  0  0  0
  1  2  1  0
  2  3  2  0
  3  4  1  0
  4  5  1  0
  4  6  2  0
  6  7  1  0
  7  8  1  0
  8  9  2  0
  9 10  1  0
  9 11  1  0
 11 12  1  0
 11 13  2  0
 13 14  1  0
 14 15  1  0
 14 16  1  0
 16 17  2  0
 16 18  1  0
 18 19  1  0
 18 20  1  0
 20 21  1  0
 20 22  1  0
 20 23  1  0
 23 24  1  0
 23 25  1  0
 23 26  1  0
 26 27  1  0
 26 28  1  0
 26 29  1  0
 29 30  1  0
 29 31  1  0
 29 32  1  0
 32 33  1  0
 32 34  1  0
  6 35  1  0
 35 36  1  0
 35 37  2  0
 37 38  1  0
 37  2  1  0
 13  7  1  0
 32 18  1  0
M  END
>  <cnnaffinity>  (1) 
-5.20263

>  <filename>  (1) 
O=C(Nc1ccnn1-c1cccnc1)C1CCCCC1

$$$$
