
     RDKit          3D

 30 33  0  0  0  0  0  0  0  0999 V2000
    4.9353    1.7930   16.9874 H   0  0  0  0  0  0  0  0  0  0  0  0
    5.4009    1.2891   17.8346 C   0  0  0  0  0  0  0  0  0  0  0  0
    6.5615    0.6650   17.5842 N   0  0  0  0  0  0  0  0  0  0  0  0
    7.1652    0.0467   18.6047 C   0  0  0  0  0  0  0  0  0  0  0  0
    8.1119   -0.4362   18.3621 H   0  0  0  0  0  0  0  0  0  0  0  0
    6.6421    0.0261   19.9131 C   0  0  0  0  0  0  0  0  0  0  0  0
    7.3889   -0.6548   20.9757 C   0  0  0  0  0  0  0  0  0  0  0  0
    8.2922   -1.5782   20.7578 N   0  0  0  0  0  0  0  0  0  0  0  0
    8.7925   -2.0224   21.9566 N   0  0  0  0  0  0  0  0  0  0  0  0
    8.1773   -1.3335   22.8749 C   0  0  0  0  0  0  0  0  0  0  0  0
    8.2903   -1.1608   24.5933 S   0  0  0  0  0  0  0  0  0  0  0  0
    7.0565    0.0948   24.4226 C   0  0  0  0  0  0  0  0  0  0  0  0
    6.5065    0.7902   25.4735 N   0  0  0  0  0  0  0  0  0  0  0  0
    5.7649    1.4086   25.1899 H   0  0  0  0  0  0  0  0  0  0  0  0
    7.0124    0.7911   26.7495 C   0  0  0  0  0  0  0  0  0  0  0  0
    8.0984    0.2934   26.9841 O   0  0  0  0  0  0  0  0  0  0  0  0
    6.1421    1.3762   27.8062 C   0  0  0  0  0  0  0  0  0  0  0  0
    6.8153    1.4618   29.4028 S   0  0  0  0  0  0  0  0  0  0  0  0
    5.3638    2.0970   30.0431 C   0  0  0  0  0  0  0  0  0  0  0  0
    5.2969    2.3450   31.0949 H   0  0  0  0  0  0  0  0  0  0  0  0
    4.3923    2.2230   29.0942 C   0  0  0  0  0  0  0  0  0  0  0  0
    3.3968    2.6003   29.3062 H   0  0  0  0  0  0  0  0  0  0  0  0
    4.8333    1.8017   27.8067 C   0  0  0  0  0  0  0  0  0  0  0  0
    4.1734    1.7909   26.9438 H   0  0  0  0  0  0  0  0  0  0  0  0
    6.6066    0.3536   23.2358 N   0  0  0  0  0  0  0  0  0  0  0  0
    7.2720   -0.4650   22.3458 N   0  0  0  0  0  0  0  0  0  0  0  0
    5.4222    0.6615   20.1587 C   0  0  0  0  0  0  0  0  0  0  0  0
    5.0014    0.6563   21.1644 H   0  0  0  0  0  0  0  0  0  0  0  0
    4.7969    1.3089   19.0946 C   0  0  0  0  0  0  0  0  0  0  0  0
    3.8697    1.8451   19.2372 H   0  0  0  0  0  0  0  0  0  0  0  0
  1  2  1  0
  2  3  2  0
  3  4  1  0
  4  5  1  0
  4  6  2  0
  6  7  1  0
  7  8  2  0
  8  9  1  0
  9 10  2  0
 10 11  1  0
 11 12  1  0
 12 13  1  0
 13 14  1  0
 13 15  1  0
 15 16  2  0
 15 17  1  0
 17 18  1  0
 18 19  1  0
 19 20  1  0
 19 21  2  0
 21 22  1  0
 21 23  1  0
 23 24  1  0
 12 25  2  0
 25 26  1  0
  6 27  1  0
 27 28  1  0
 27 29  2  0
 29 30  1  0
 29  2  1  0
 26  7  1  0
 26 10  1  0
 23 17  2  0
M  END
>  <cnnaffinity>  (1) 
-5.18233

>  <filename>  (1) 
O=C(Nc1nn2c(-c3cccnc3)nnc2s1)c1cccs1

$$$$
