
     RDKit          3D

 35 37  0  0  0  0  0  0  0  0999 V2000
    4.9669    1.8302   16.9167 H   0  0  0  0  0  0  0  0  0  0  0  0
    5.4177    1.3154   17.7621 C   0  0  0  0  0  0  0  0  0  0  0  0
    6.5788    0.6884   17.5132 N   0  0  0  0  0  0  0  0  0  0  0  0
    7.1701    0.0613   18.5366 C   0  0  0  0  0  0  0  0  0  0  0  0
    8.1124   -0.4302   18.3009 H   0  0  0  0  0  0  0  0  0  0  0  0
    6.6537    0.0195   19.8535 C   0  0  0  0  0  0  0  0  0  0  0  0
    7.3829   -0.6325   20.9647 C   0  0  0  0  0  0  0  0  0  0  0  0
    8.5853   -1.8418   20.6751 S   0  0  0  0  0  0  0  0  0  0  0  0
    8.9253   -2.0244   22.3278 C   0  0  0  0  0  0  0  0  0  0  0  0
    9.6566   -2.7646   22.6279 H   0  0  0  0  0  0  0  0  0  0  0  0
    8.1884   -1.1733   23.1111 C   0  0  0  0  0  0  0  0  0  0  0  0
    8.3897   -1.0901   24.5984 C   0  0  0  0  0  0  0  0  0  0  0  0
    9.4034   -1.4670   25.1665 O   0  0  0  0  0  0  0  0  0  0  0  0
    7.3352   -0.5301   25.2690 N   0  0  0  0  0  0  0  0  0  0  0  0
    6.4846   -0.4924   24.7353 H   0  0  0  0  0  0  0  0  0  0  0  0
    7.1850   -0.7151   26.7086 C   0  0  0  0  0  0  0  0  0  0  0  0
    6.4584    0.0251   27.0614 H   0  0  0  0  0  0  0  0  0  0  0  0
    8.1461   -0.4767   27.1783 H   0  0  0  0  0  0  0  0  0  0  0  0
    6.7628   -2.1215   27.0997 C   0  0  0  0  0  0  0  0  0  0  0  0
    7.7245   -3.1470   27.1837 C   0  0  0  0  0  0  0  0  0  0  0  0
    8.7512   -2.9187   26.8994 H   0  0  0  0  0  0  0  0  0  0  0  0
    7.3616   -4.4142   27.6413 C   0  0  0  0  0  0  0  0  0  0  0  0
    8.0967   -5.2063   27.7459 H   0  0  0  0  0  0  0  0  0  0  0  0
    6.0282   -4.6831   27.9658 C   0  0  0  0  0  0  0  0  0  0  0  0
    5.7588   -5.6693   28.3285 H   0  0  0  0  0  0  0  0  0  0  0  0
    5.0540   -3.6956   27.8100 C   0  0  0  0  0  0  0  0  0  0  0  0
    4.0135   -3.9185   28.0213 H   0  0  0  0  0  0  0  0  0  0  0  0
    5.4201   -2.4234   27.3661 C   0  0  0  0  0  0  0  0  0  0  0  0
    4.6644   -1.6502   27.2380 H   0  0  0  0  0  0  0  0  0  0  0  0
    7.2871   -0.3839   22.3040 C   0  0  0  0  0  0  0  0  0  0  0  0
    6.6152    0.3929   22.6657 H   0  0  0  0  0  0  0  0  0  0  0  0
    5.4225    0.6598   20.0760 C   0  0  0  0  0  0  0  0  0  0  0  0
    4.9640    0.6301   21.0649 H   0  0  0  0  0  0  0  0  0  0  0  0
    4.7966    1.3202   19.0153 C   0  0  0  0  0  0  0  0  0  0  0  0
    3.8591    1.8503   19.1490 H   0  0  0  0  0  0  0  0  0  0  0  0
  1  2  1  0
  2  3  2  0
  3  4  1  0
  4  5  1  0
  4  6  2  0
  6  7  1  0
  7  8  1  0
  8  9  1  0
  9 10  1  0
  9 11  2  0
 11 12  1  0
 12 13  2  0
 12 14  1  0
 14 15  1  0
 14 16  1  0
 16 17  1  0
 16 18  1  0
 16 19  1  0
 19 20  2  0
 20 21  1  0
 20 22  1  0
 22 23  1  0
 22 24  2  0
 24 25  1  0
 24 26  1  0
 26 27  1  0
 26 28  2  0
 28 29  1  0
 11 30  1  0
 30 31  1  0
  6 32  1  0
 32 33  1  0
 32 34  2  0
 34 35  1  0
 34  2  1  0
 30  7  2  0
 28 19  1  0
M  END
>  <cnnaffinity>  (1) 
-4.39532

>  <filename>  (1) 
O=C(NCc1ccccc1)c1csc(-c2cccnc2)c1

$$$$
