
     RDKit          3D

 31 32  0  0  0  0  0  0  0  0999 V2000
    5.0103    1.8103   16.9176 H   0  0  0  0  0  0  0  0  0  0  0  0
    5.4476    1.3157   17.7804 C   0  0  0  0  0  0  0  0  0  0  0  0
    6.6276    0.7134   17.5719 N   0  0  0  0  0  0  0  0  0  0  0  0
    7.1655    0.0682   18.6122 C   0  0  0  0  0  0  0  0  0  0  0  0
    8.1427   -0.3910   18.4568 H   0  0  0  0  0  0  0  0  0  0  0  0
    6.5570   -0.0485   19.8683 C   0  0  0  0  0  0  0  0  0  0  0  0
    7.2614   -0.8369   20.9415 C   0  0  0  0  0  0  0  0  0  0  0  0
    8.0050   -1.4936   20.4738 H   0  0  0  0  0  0  0  0  0  0  0  0
    6.5664   -1.4784   21.4910 H   0  0  0  0  0  0  0  0  0  0  0  0
    7.9262    0.0271   21.8933 N   0  0  0  0  0  0  0  0  0  0  0  0
    7.5374    0.1589   22.8094 H   0  0  0  0  0  0  0  0  0  0  0  0
    8.9649    0.8167   21.5329 C   0  0  0  0  0  0  0  0  0  0  0  0
    9.4805    0.7699   20.4270 O   0  0  0  0  0  0  0  0  0  0  0  0
    9.4124    1.8058   22.6017 C   0  0  0  0  0  0  0  0  0  0  0  0
    9.3101    3.1701   22.2788 C   0  0  0  0  0  0  0  0  0  0  0  0
    8.8630    3.4564   21.3292 H   0  0  0  0  0  0  0  0  0  0  0  0
    9.7620    4.1581   23.1566 C   0  0  0  0  0  0  0  0  0  0  0  0
    9.6565    5.2120   22.9023 H   0  0  0  0  0  0  0  0  0  0  0  0
   10.3541    3.7876   24.3620 C   0  0  0  0  0  0  0  0  0  0  0  0
   10.7573    4.5601   25.0081 H   0  0  0  0  0  0  0  0  0  0  0  0
   10.4287    2.4386   24.7199 C   0  0  0  0  0  0  0  0  0  0  0  0
   10.8148    2.1222   25.6856 H   0  0  0  0  0  0  0  0  0  0  0  0
    9.9539    1.4368   23.8656 C   0  0  0  0  0  0  0  0  0  0  0  0
    9.9971   -0.0012   24.3883 C   0  0  0  0  0  0  0  0  0  0  0  0
   10.4340   -0.8628   23.4563 F   0  0  0  0  0  0  0  0  0  0  0  0
   10.7899   -0.1436   25.4696 F   0  0  0  0  0  0  0  0  0  0  0  0
    8.7656   -0.4256   24.7619 F   0  0  0  0  0  0  0  0  0  0  0  0
    5.3518    0.6274   20.0829 C   0  0  0  0  0  0  0  0  0  0  0  0
    4.8912    0.6291   21.0735 H   0  0  0  0  0  0  0  0  0  0  0  0
    4.7802    1.3134   19.0099 C   0  0  0  0  0  0  0  0  0  0  0  0
    3.8401    1.8430   19.1144 H   0  0  0  0  0  0  0  0  0  0  0  0
  1  2  1  0
  2  3  2  0
  3  4  1  0
  4  5  1  0
  4  6  2  0
  6  7  1  0
  7  8  1  0
  7  9  1  0
  7 10  1  0
 10 11  1  0
 10 12  1  0
 12 13  2  0
 12 14  1  0
 14 15  2  0
 15 16  1  0
 15 17  1  0
 17 18  1  0
 17 19  2  0
 19 20  1  0
 19 21  1  0
 21 22  1  0
 21 23  2  0
 23 24  1  0
 24 25  1  0
 24 26  1  0
 24 27  1  0
  6 28  1  0
 28 29  1  0
 28 30  2  0
 30 31  1  0
 30  2  1  0
 23 14  1  0
M  END
>  <cnnaffinity>  (1) 
-4.85349

>  <filename>  (1) 
O=C(NCc1cccnc1)c1ccccc1C(F)(F)F

$$$$
