
     RDKit          3D

 23 24  0  0  0  0  0  0  0  0999 V2000
    4.3533   -4.9494   21.9414 H   0  0  0  0  0  0  0  0  0  0  0  0
    4.2277   -4.0773   22.3562 O   0  0  0  0  0  0  0  0  0  0  0  0
    5.4773   -3.4738   22.3644 N   0  0  0  0  0  0  0  0  0  0  0  0
    5.7974   -3.2401   23.3007 H   0  0  0  0  0  0  0  0  0  0  0  0
    5.9091   -2.7074   21.3044 C   0  0  0  0  0  0  0  0  0  0  0  0
    5.4981   -2.7895   20.1630 O   0  0  0  0  0  0  0  0  0  0  0  0
    7.0487   -1.7995   21.7044 C   0  0  0  0  0  0  0  0  0  0  0  0
    7.8789   -2.0057   22.6911 N   0  0  0  0  0  0  0  0  0  0  0  0
    8.8137   -1.0479   22.5228 N   0  0  0  0  0  0  0  0  0  0  0  0
    9.6758   -1.0440   23.0482 H   0  0  0  0  0  0  0  0  0  0  0  0
    8.6250   -0.2316   21.4701 C   0  0  0  0  0  0  0  0  0  0  0  0
    9.6487    0.9475   20.9139 S   0  0  0  0  0  0  0  0  0  0  0  0
    7.4168   -0.6889   20.9669 N   0  0  0  0  0  0  0  0  0  0  0  0
    6.6720   -0.0468   19.9223 C   0  0  0  0  0  0  0  0  0  0  0  0
    7.1969    0.0092   18.6224 C   0  0  0  0  0  0  0  0  0  0  0  0
    8.1534   -0.4764   18.4290 H   0  0  0  0  0  0  0  0  0  0  0  0
    6.5919    0.6364   17.6082 N   0  0  0  0  0  0  0  0  0  0  0  0
    5.4288    1.2575   17.8677 C   0  0  0  0  0  0  0  0  0  0  0  0
    4.9564    1.7695   17.0296 H   0  0  0  0  0  0  0  0  0  0  0  0
    4.8377    1.2706   19.1355 C   0  0  0  0  0  0  0  0  0  0  0  0
    3.9082    1.8054   19.2867 H   0  0  0  0  0  0  0  0  0  0  0  0
    5.4703    0.6059   20.1932 C   0  0  0  0  0  0  0  0  0  0  0  0
    5.0586    0.5977   21.2036 H   0  0  0  0  0  0  0  0  0  0  0  0
  1  2  1  0
  2  3  1  0
  3  4  1  0
  3  5  1  0
  5  6  2  0
  5  7  1  0
  7  8  2  0
  8  9  1  0
  9 10  1  0
  9 11  1  0
 11 12  2  0
 11 13  1  0
 13 14  1  0
 14 15  2  0
 15 16  1  0
 15 17  1  0
 17 18  2  0
 18 19  1  0
 18 20  1  0
 20 21  1  0
 20 22  2  0
 22 23  1  0
 13  7  1  0
 22 14  1  0
M  END
>  <cnnaffinity>  (1) 
-4.64228

>  <filename>  (1) 
O=C(NO)c1n[nH]c(=S)n1-c1cccnc1

$$$$
