
     RDKit          3D

 34 36  0  0  0  0  0  0  0  0999 V2000
    7.0095    7.2463   22.5999 H   0  0  0  0  0  0  0  0  0  0  0  0
    7.3303    6.4140   22.2172 O   0  0  0  0  0  0  0  0  0  0  0  0
    6.8084    5.5895   23.1442 C   0  0  0  0  0  0  0  0  0  0  0  0
    6.2037    6.0985   24.0632 O   0  0  0  0  0  0  0  0  0  0  0  0
    7.0565    4.1378   22.9135 C   0  0  0  0  0  0  0  0  0  0  0  0
    6.5393    3.1711   23.8001 C   0  0  0  0  0  0  0  0  0  0  0  0
    5.9835    3.4907   24.6805 H   0  0  0  0  0  0  0  0  0  0  0  0
    6.7743    1.8196   23.5558 C   0  0  0  0  0  0  0  0  0  0  0  0
    6.3974    1.0739   24.2512 H   0  0  0  0  0  0  0  0  0  0  0  0
    7.4904    1.3964   22.4241 C   0  0  0  0  0  0  0  0  0  0  0  0
    7.7154   -0.0553   22.1800 C   0  0  0  0  0  0  0  0  0  0  0  0
    8.3422   -0.8633   23.1914 C   0  0  0  0  0  0  0  0  0  0  0  0
    8.5968   -0.3739   24.1328 H   0  0  0  0  0  0  0  0  0  0  0  0
    8.6335   -2.1746   22.9795 C   0  0  0  0  0  0  0  0  0  0  0  0
    9.1122   -2.8182   23.7096 H   0  0  0  0  0  0  0  0  0  0  0  0
    8.2946   -2.8106   21.7124 C   0  0  0  0  0  0  0  0  0  0  0  0
    8.4521   -3.9839   21.4158 O   0  0  0  0  0  0  0  0  0  0  0  0
    7.7338   -1.9682   20.7718 N   0  0  0  0  0  0  0  0  0  0  0  0
    7.4702   -2.4801   19.9454 H   0  0  0  0  0  0  0  0  0  0  0  0
    7.3773   -0.6604   20.9824 C   0  0  0  0  0  0  0  0  0  0  0  0
    6.6400   -0.0115   19.8986 C   0  0  0  0  0  0  0  0  0  0  0  0
    7.1591    0.0306   18.5949 C   0  0  0  0  0  0  0  0  0  0  0  0
    8.1197   -0.4367   18.3629 H   0  0  0  0  0  0  0  0  0  0  0  0
    6.5638    0.6633   17.5794 N   0  0  0  0  0  0  0  0  0  0  0  0
    5.3997    1.2865   17.8330 C   0  0  0  0  0  0  0  0  0  0  0  0
    4.9330    1.7932   16.9892 H   0  0  0  0  0  0  0  0  0  0  0  0
    4.7973    1.3018   19.0946 C   0  0  0  0  0  0  0  0  0  0  0  0
    3.8715    1.8447   19.2379 H   0  0  0  0  0  0  0  0  0  0  0  0
    5.4260    0.6465   20.1491 C   0  0  0  0  0  0  0  0  0  0  0  0
    5.0140    0.6511   21.1586 H   0  0  0  0  0  0  0  0  0  0  0  0
    8.0017    2.3691   21.5439 C   0  0  0  0  0  0  0  0  0  0  0  0
    8.5334    2.0370   20.6571 H   0  0  0  0  0  0  0  0  0  0  0  0
    7.8226    3.7213   21.8094 C   0  0  0  0  0  0  0  0  0  0  0  0
    8.2678    4.4897   21.1804 H   0  0  0  0  0  0  0  0  0  0  0  0
  1  2  1  0
  2  3  1  0
  3  4  2  0
  3  5  1  0
  5  6  2  0
  6  7  1  0
  6  8  1  0
  8  9  1  0
  8 10  2  0
 10 11  1  0
 11 12  1  0
 12 13  1  0
 12 14  2  0
 14 15  1  0
 14 16  1  0
 16 17  2  0
 16 18  1  0
 18 19  1  0
 18 20  1  0
 20 21  1  0
 21 22  2  0
 22 23  1  0
 22 24  1  0
 24 25  2  0
 25 26  1  0
 25 27  1  0
 27 28  1  0
 27 29  2  0
 29 30  1  0
 10 31  1  0
 31 32  1  0
 31 33  2  0
 33 34  1  0
 33  5  1  0
 20 11  2  0
 29 21  1  0
M  END
>  <cnnaffinity>  (1) 
-4.95396

>  <filename>  (1) 
O=C(O)c1ccc(-c2ccc(=O)[nH]c2-c2cccnc2)cc1

$$$$
