
     RDKit          3D

 33 34  0  0  0  0  0  0  0  0999 V2000
    4.9452    1.7732   16.9998 H   0  0  0  0  0  0  0  0  0  0  0  0
    5.4076    1.2820   17.8527 C   0  0  0  0  0  0  0  0  0  0  0  0
    6.5704    0.6562   17.6232 N   0  0  0  0  0  0  0  0  0  0  0  0
    7.1616    0.0352   18.6486 C   0  0  0  0  0  0  0  0  0  0  0  0
    8.1176   -0.4233   18.4185 H   0  0  0  0  0  0  0  0  0  0  0  0
    6.6130   -0.0313   19.9340 C   0  0  0  0  0  0  0  0  0  0  0  0
    7.4288   -0.7238   20.9767 C   0  0  0  0  0  0  0  0  0  0  0  0
    8.6411   -0.8391   20.8858 O   0  0  0  0  0  0  0  0  0  0  0  0
    6.7266   -1.2274   22.0338 N   0  0  0  0  0  0  0  0  0  0  0  0
    5.7313   -1.3073   21.9199 H   0  0  0  0  0  0  0  0  0  0  0  0
    7.3423   -1.9187   23.1547 C   0  0  0  0  0  0  0  0  0  0  0  0
    6.8484   -1.5912   24.0772 H   0  0  0  0  0  0  0  0  0  0  0  0
    8.3846   -1.5833   23.2044 H   0  0  0  0  0  0  0  0  0  0  0  0
    7.2889   -3.4513   23.0580 C   0  0  0  0  0  0  0  0  0  0  0  0
    6.2278   -3.7403   22.9648 H   0  0  0  0  0  0  0  0  0  0  0  0
    8.0374   -3.9769   21.8227 C   0  0  0  0  0  0  0  0  0  0  0  0
    7.5846   -3.5943   20.9029 H   0  0  0  0  0  0  0  0  0  0  0  0
    9.0642   -3.5800   21.8422 H   0  0  0  0  0  0  0  0  0  0  0  0
    8.0633   -5.5078   21.7925 C   0  0  0  0  0  0  0  0  0  0  0  0
    8.6404   -5.8626   20.9335 H   0  0  0  0  0  0  0  0  0  0  0  0
    7.0446   -5.8917   21.6527 H   0  0  0  0  0  0  0  0  0  0  0  0
    8.5993   -6.1105   23.0151 N   0  0  0  0  0  0  0  0  0  0  0  0
    9.5413   -5.7422   23.1206 H   0  0  0  0  0  0  0  0  0  0  0  0
    7.8741   -5.6464   24.2037 C   0  0  0  0  0  0  0  0  0  0  0  0
    8.3230   -6.1136   25.0882 H   0  0  0  0  0  0  0  0  0  0  0  0
    6.8482   -6.0284   24.1333 H   0  0  0  0  0  0  0  0  0  0  0  0
    7.8439   -4.1165   24.3350 C   0  0  0  0  0  0  0  0  0  0  0  0
    7.2529   -3.8250   25.2125 H   0  0  0  0  0  0  0  0  0  0  0  0
    8.8696   -3.7580   24.5186 H   0  0  0  0  0  0  0  0  0  0  0  0
    5.4009    0.6378   20.1740 C   0  0  0  0  0  0  0  0  0  0  0  0
    4.9644    0.6697   21.1777 H   0  0  0  0  0  0  0  0  0  0  0  0
    4.7974    1.3102   19.1117 C   0  0  0  0  0  0  0  0  0  0  0  0
    3.8691    1.8509   19.2479 H   0  0  0  0  0  0  0  0  0  0  0  0
  1  2  1  0
  2  3  2  0
  3  4  1  0
  4  5  1  0
  4  6  2  0
  6  7  1  0
  7  8  2  0
  7  9  1  0
  9 10  1  0
  9 11  1  0
 11 12  1  0
 11 13  1  0
 11 14  1  0
 14 15  1  0
 14 16  1  0
 16 17  1  0
 16 18  1  0
 16 19  1  0
 19 20  1  0
 19 21  1  0
 19 22  1  0
 22 23  1  0
 22 24  1  0
 24 25  1  0
 24 26  1  0
 24 27  1  0
 27 28  1  0
 27 29  1  0
  6 30  1  0
 30 31  1  0
 30 32  2  0
 32 33  1  0
 32  2  1  0
 27 14  1  0
M  END
>  <cnnaffinity>  (1) 
-4.22874

>  <filename>  (1) 
O=C(NCC1CCNCC1)c1cccnc1

$$$$
