
     RDKit          3D

 34 36  0  0  0  0  0  0  0  0999 V2000
    6.2684   -2.8069   20.1628 O   0  0  0  0  0  0  0  0  0  0  0  0
    6.7469   -2.2129   21.1194 C   0  0  0  0  0  0  0  0  0  0  0  0
    6.8102   -2.7956   22.3450 N   0  0  0  0  0  0  0  0  0  0  0  0
    6.1975   -4.1075   22.5375 C   0  0  0  0  0  0  0  0  0  0  0  0
    6.2626   -4.5095   23.9654 C   0  0  0  0  0  0  0  0  0  0  0  0
    5.3441   -4.2869   24.9476 C   0  0  0  0  0  0  0  0  0  0  0  0
    5.8933   -4.8207   26.1688 C   0  0  0  0  0  0  0  0  0  0  0  0
    5.4914   -4.9016   27.5167 C   0  0  0  0  0  0  0  0  0  0  0  0
    6.2491   -5.4553   28.4659 N   0  0  0  0  0  0  0  0  0  0  0  0
    7.4520   -5.9660   28.1125 C   0  0  0  0  0  0  0  0  0  0  0  0
    7.9708   -5.9503   26.8282 C   0  0  0  0  0  0  0  0  0  0  0  0
    7.1605   -5.3580   25.8462 C   0  0  0  0  0  0  0  0  0  0  0  0
    7.3617   -5.1538   24.5106 N   0  0  0  0  0  0  0  0  0  0  0  0
    8.1962   -5.4253   24.0196 H   0  0  0  0  0  0  0  0  0  0  0  0
    8.9458   -6.3710   26.6225 H   0  0  0  0  0  0  0  0  0  0  0  0
    8.0134   -6.4047   28.9360 H   0  0  0  0  0  0  0  0  0  0  0  0
    4.5282   -4.5010   27.8367 H   0  0  0  0  0  0  0  0  0  0  0  0
    4.3893   -3.7856   24.8181 H   0  0  0  0  0  0  0  0  0  0  0  0
    5.1506   -4.0832   22.2038 H   0  0  0  0  0  0  0  0  0  0  0  0
    6.7013   -4.8333   21.8840 H   0  0  0  0  0  0  0  0  0  0  0  0
    7.1341   -2.2783   23.1498 H   0  0  0  0  0  0  0  0  0  0  0  0
    7.3551   -0.7471   20.9710 C   0  0  0  0  0  0  0  0  0  0  0  0
    7.2755   -0.0853   22.1776 F   0  0  0  0  0  0  0  0  0  0  0  0
    8.6911   -0.8601   20.7084 F   0  0  0  0  0  0  0  0  0  0  0  0
    6.6771    0.0697   19.9062 C   0  0  0  0  0  0  0  0  0  0  0  0
    5.4451    0.6836   20.1601 C   0  0  0  0  0  0  0  0  0  0  0  0
    4.8015    1.3177   19.0978 C   0  0  0  0  0  0  0  0  0  0  0  0
    5.4010    1.2923   17.8342 C   0  0  0  0  0  0  0  0  0  0  0  0
    6.5686    0.6843   17.5795 N   0  0  0  0  0  0  0  0  0  0  0  0
    7.1891    0.0904   18.6033 C   0  0  0  0  0  0  0  0  0  0  0  0
    8.1298   -0.4064   18.3707 H   0  0  0  0  0  0  0  0  0  0  0  0
    4.9306    1.7852   16.9847 H   0  0  0  0  0  0  0  0  0  0  0  0
    3.8633    1.8387   19.2353 H   0  0  0  0  0  0  0  0  0  0  0  0
    5.0078    0.6541   21.1594 H   0  0  0  0  0  0  0  0  0  0  0  0
  1  2  2  0
  2  3  1  0
  3  4  1  0
  4  5  1  0
  5  6  2  0
  6  7  1  0
  7  8  2  0
  8  9  1  0
  9 10  2  0
 10 11  1  0
 11 12  2  0
 12 13  1  0
 13 14  1  0
 11 15  1  0
 10 16  1  0
  8 17  1  0
  6 18  1  0
  4 19  1  0
  4 20  1  0
  3 21  1  0
  2 22  1  0
 22 23  1  0
 22 24  1  0
 22 25  1  0
 25 26  2  0
 26 27  1  0
 27 28  2  0
 28 29  1  0
 29 30  2  0
 30 31  1  0
 28 32  1  0
 27 33  1  0
 26 34  1  0
 13  5  1  0
 30 25  1  0
 12  7  1  0
M  END
>  <cnnaffinity>  (1) 
-5.13676

>  <filename>  (1) 
O=C(NCc1cc2cnccc2[nH]1)C(F)(F)c1cccnc1

$$$$
