
     RDKit          3D

 34 35  0  0  0  0  0  0  0  0999 V2000
    5.0550    1.8405   16.9482 H   0  0  0  0  0  0  0  0  0  0  0  0
    5.5051    1.2992   17.7808 C   0  0  0  0  0  0  0  0  0  0  0  0
    6.6522    0.6555   17.5142 N   0  0  0  0  0  0  0  0  0  0  0  0
    7.2325   -0.0147   18.5155 C   0  0  0  0  0  0  0  0  0  0  0  0
    8.1705   -0.5252   18.2997 H   0  0  0  0  0  0  0  0  0  0  0  0
    6.6871   -0.0797   19.7988 C   0  0  0  0  0  0  0  0  0  0  0  0
    7.3729   -0.8402   20.8454 C   0  0  0  0  0  0  0  0  0  0  0  0
    6.8765   -1.1144   21.9142 O   0  0  0  0  0  0  0  0  0  0  0  0
    8.6326   -1.2263   20.4460 O   0  0  0  0  0  0  0  0  0  0  0  0
    9.4540   -1.7786   21.4748 N   0  0  0  0  0  0  0  0  0  0  0  0
   10.3289   -1.9813   20.9658 H   0  0  0  0  0  0  0  0  0  0  0  0
    8.8405   -3.0955   21.7111 N   0  0  0  0  0  0  0  0  0  0  0  0
    7.8313   -2.9332   21.6316 H   0  0  0  0  0  0  0  0  0  0  0  0
    9.0641   -3.5941   23.0745 C   0  0  0  0  0  0  0  0  0  0  0  0
   10.1551   -3.6232   23.2671 H   0  0  0  0  0  0  0  0  0  0  0  0
    8.3926   -2.7433   24.1722 C   0  0  0  0  0  0  0  0  0  0  0  0
    7.3099   -2.6847   23.9757 H   0  0  0  0  0  0  0  0  0  0  0  0
    8.7738   -1.7187   24.1062 H   0  0  0  0  0  0  0  0  0  0  0  0
    8.6436   -3.3508   25.5624 C   0  0  0  0  0  0  0  0  0  0  0  0
    9.7202   -3.2884   25.7821 H   0  0  0  0  0  0  0  0  0  0  0  0
    8.1202   -2.7670   26.3276 H   0  0  0  0  0  0  0  0  0  0  0  0
    8.2046   -4.8223   25.6448 C   0  0  0  0  0  0  0  0  0  0  0  0
    8.4984   -5.2527   26.6111 H   0  0  0  0  0  0  0  0  0  0  0  0
    7.1064   -4.8824   25.5978 H   0  0  0  0  0  0  0  0  0  0  0  0
    8.7944   -5.6642   24.5018 C   0  0  0  0  0  0  0  0  0  0  0  0
    8.3803   -6.6724   24.5334 H   0  0  0  0  0  0  0  0  0  0  0  0
    9.8833   -5.7682   24.6380 H   0  0  0  0  0  0  0  0  0  0  0  0
    8.5155   -5.0258   23.1321 C   0  0  0  0  0  0  0  0  0  0  0  0
    7.4269   -4.9830   22.9501 H   0  0  0  0  0  0  0  0  0  0  0  0
    8.9328   -5.6192   22.3122 H   0  0  0  0  0  0  0  0  0  0  0  0
    5.4806    0.5837   20.0767 C   0  0  0  0  0  0  0  0  0  0  0  0
    5.0499    0.5447   21.0810 H   0  0  0  0  0  0  0  0  0  0  0  0
    4.8845    1.2938   19.0396 C   0  0  0  0  0  0  0  0  0  0  0  0
    3.9666    1.8533   19.1890 H   0  0  0  0  0  0  0  0  0  0  0  0
  1  2  1  0
  2  3  2  0
  3  4  1  0
  4  5  1  0
  4  6  2  0
  6  7  1  0
  7  8  2  0
  7  9  1  0
  9 10  1  0
 10 11  1  0
 10 12  1  0
 12 13  1  0
 12 14  1  0
 14 15  1  0
 14 16  1  0
 16 17  1  0
 16 18  1  0
 16 19  1  0
 19 20  1  0
 19 21  1  0
 19 22  1  0
 22 23  1  0
 22 24  1  0
 22 25  1  0
 25 26  1  0
 25 27  1  0
 25 28  1  0
 28 29  1  0
 28 30  1  0
  6 31  1  0
 31 32  1  0
 31 33  2  0
 33 34  1  0
 33  2  1  0
 28 14  1  0
M  END
>  <cnnaffinity>  (1) 
-4.83405

>  <filename>  (1) 
O=C(ONNC1CCCCC1)c1cccnc1

$$$$
