
     RDKit          3D

 31 33  0  0  0  0  0  0  0  0999 V2000
    4.5936    4.4258   24.8758 H   0  0  0  0  0  0  0  0  0  0  0  0
    5.3180    4.5435   24.0703 C   0  0  0  0  0  0  0  0  0  0  0  0
    5.9600    3.4309   23.6986 N   0  0  0  0  0  0  0  0  0  0  0  0
    6.8557    3.5190   22.6871 C   0  0  0  0  0  0  0  0  0  0  0  0
    7.5220    2.2412   22.1324 C   0  0  0  0  0  0  0  0  0  0  0  0
    8.2289    2.2397   21.1400 O   0  0  0  0  0  0  0  0  0  0  0  0
    7.2150    1.0704   22.7883 N   0  0  0  0  0  0  0  0  0  0  0  0
    6.9486    1.0806   23.7584 H   0  0  0  0  0  0  0  0  0  0  0  0
    7.5677   -0.1668   22.2935 C   0  0  0  0  0  0  0  0  0  0  0  0
    8.1503   -1.0633   23.0312 N   0  0  0  0  0  0  0  0  0  0  0  0
    8.2475   -2.1721   22.2207 C   0  0  0  0  0  0  0  0  0  0  0  0
    8.7088   -3.0890   22.5579 H   0  0  0  0  0  0  0  0  0  0  0  0
    7.6939   -1.9390   21.0030 C   0  0  0  0  0  0  0  0  0  0  0  0
    7.4334   -2.5793   20.1811 H   0  0  0  0  0  0  0  0  0  0  0  0
    7.2632   -0.6189   21.0245 N   0  0  0  0  0  0  0  0  0  0  0  0
    6.6093    0.0455   19.9388 C   0  0  0  0  0  0  0  0  0  0  0  0
    7.1681    0.0689   18.6433 C   0  0  0  0  0  0  0  0  0  0  0  0
    8.1258   -0.4182   18.4542 H   0  0  0  0  0  0  0  0  0  0  0  0
    6.5911    0.6768   17.5978 N   0  0  0  0  0  0  0  0  0  0  0  0
    5.4211    1.3005   17.8080 C   0  0  0  0  0  0  0  0  0  0  0  0
    4.9704    1.7948   16.9480 H   0  0  0  0  0  0  0  0  0  0  0  0
    4.7818    1.3254   19.0531 C   0  0  0  0  0  0  0  0  0  0  0  0
    3.8330    1.8359   19.1643 H   0  0  0  0  0  0  0  0  0  0  0  0
    5.3800    0.6850   20.1396 C   0  0  0  0  0  0  0  0  0  0  0  0
    4.9233    0.6710   21.1315 H   0  0  0  0  0  0  0  0  0  0  0  0
    7.1682    4.7385   22.0671 C   0  0  0  0  0  0  0  0  0  0  0  0
    7.9316    4.7575   21.3010 H   0  0  0  0  0  0  0  0  0  0  0  0
    6.4841    5.8916   22.4458 C   0  0  0  0  0  0  0  0  0  0  0  0
    6.6700    6.8423   21.9419 H   0  0  0  0  0  0  0  0  0  0  0  0
    5.5445    5.7884   23.4717 C   0  0  0  0  0  0  0  0  0  0  0  0
    4.9871    6.6492   23.8098 H   0  0  0  0  0  0  0  0  0  0  0  0
  1  2  1  0
  2  3  2  0
  3  4  1  0
  4  5  1  0
  5  6  2  0
  5  7  1  0
  7  8  1  0
  7  9  1  0
  9 10  2  0
 10 11  1  0
 11 12  1  0
 11 13  2  0
 13 14  1  0
 13 15  1  0
 15 16  1  0
 16 17  2  0
 17 18  1  0
 17 19  1  0
 19 20  2  0
 20 21  1  0
 20 22  1  0
 22 23  1  0
 22 24  2  0
 24 25  1  0
  4 26  2  0
 26 27  1  0
 26 28  1  0
 28 29  1  0
 28 30  2  0
 30 31  1  0
 30  2  1  0
 15  9  1  0
 24 16  1  0
M  END
>  <cnnaffinity>  (1) 
-5.04661

>  <filename>  (1) 
O=C(Nc1nccn1-c1cccnc1)c1ccccn1

$$$$
