
     RDKit          3D

 35 37  0  0  0  0  0  0  0  0999 V2000
    4.9711    1.7717   16.9647 H   0  0  0  0  0  0  0  0  0  0  0  0
    5.4306    1.2821   17.8248 C   0  0  0  0  0  0  0  0  0  0  0  0
    6.5972    0.6506   17.6071 N   0  0  0  0  0  0  0  0  0  0  0  0
    7.1713    0.0389   18.6490 C   0  0  0  0  0  0  0  0  0  0  0  0
    8.1239   -0.4556   18.4632 H   0  0  0  0  0  0  0  0  0  0  0  0
    6.6256    0.0237   19.9440 C   0  0  0  0  0  0  0  0  0  0  0  0
    7.2732   -0.6902   20.9941 N   0  0  0  0  0  0  0  0  0  0  0  0
    7.7152   -0.2325   22.2167 C   0  0  0  0  0  0  0  0  0  0  0  0
    7.4684    1.2040   22.6801 C   0  0  0  0  0  0  0  0  0  0  0  0
    7.2160    2.1285   21.9239 O   0  0  0  0  0  0  0  0  0  0  0  0
    7.4891    1.3859   24.0345 N   0  0  0  0  0  0  0  0  0  0  0  0
    7.9438    0.6395   24.5485 H   0  0  0  0  0  0  0  0  0  0  0  0
    7.5285    2.7370   24.5884 C   0  0  0  0  0  0  0  0  0  0  0  0
    7.4751    2.6471   25.6795 H   0  0  0  0  0  0  0  0  0  0  0  0
    6.6337    3.2751   24.2500 H   0  0  0  0  0  0  0  0  0  0  0  0
    8.7964    3.4749   24.1875 C   0  0  0  0  0  0  0  0  0  0  0  0
    8.7904    4.5516   23.2847 C   0  0  0  0  0  0  0  0  0  0  0  0
    7.8644    4.8334   22.7880 H   0  0  0  0  0  0  0  0  0  0  0  0
    9.9771    5.2119   22.9471 C   0  0  0  0  0  0  0  0  0  0  0  0
    9.9552    6.0501   22.2545 H   0  0  0  0  0  0  0  0  0  0  0  0
   11.1959    4.7535   23.4499 C   0  0  0  0  0  0  0  0  0  0  0  0
   12.1196    5.2677   23.1975 H   0  0  0  0  0  0  0  0  0  0  0  0
   11.2188    3.6220   24.2720 C   0  0  0  0  0  0  0  0  0  0  0  0
   12.1588    3.1990   24.5938 H   0  0  0  0  0  0  0  0  0  0  0  0
   10.0283    3.0042   24.6636 C   0  0  0  0  0  0  0  0  0  0  0  0
   10.0586    2.1597   25.3558 H   0  0  0  0  0  0  0  0  0  0  0  0
    8.2906   -1.2125   22.8997 N   0  0  0  0  0  0  0  0  0  0  0  0
    8.1980   -2.3297   22.1195 C   0  0  0  0  0  0  0  0  0  0  0  0
    8.5745   -3.2911   22.4459 H   0  0  0  0  0  0  0  0  0  0  0  0
    7.5558   -2.0318   20.9541 C   0  0  0  0  0  0  0  0  0  0  0  0
    7.1732   -2.6334   20.1480 H   0  0  0  0  0  0  0  0  0  0  0  0
    5.4141    0.6802   20.1658 C   0  0  0  0  0  0  0  0  0  0  0  0
    4.9879    0.7183   21.1670 H   0  0  0  0  0  0  0  0  0  0  0  0
    4.8058    1.3104   19.0762 C   0  0  0  0  0  0  0  0  0  0  0  0
    3.8636    1.8297   19.2031 H   0  0  0  0  0  0  0  0  0  0  0  0
  1  2  1  0
  2  3  2  0
  3  4  1  0
  4  5  1  0
  4  6  2  0
  6  7  1  0
  7  8  1  0
  8  9  1  0
  9 10  2  0
  9 11  1  0
 11 12  1  0
 11 13  1  0
 13 14  1  0
 13 15  1  0
 13 16  1  0
 16 17  2  0
 17 18  1  0
 17 19  1  0
 19 20  1  0
 19 21  2  0
 21 22  1  0
 21 23  1  0
 23 24  1  0
 23 25  2  0
 25 26  1  0
  8 27  2  0
 27 28  1  0
 28 29  1  0
 28 30  2  0
 30 31  1  0
  6 32  1  0
 32 33  1  0
 32 34  2  0
 34 35  1  0
 34  2  1  0
 30  7  1  0
 25 16  1  0
M  END
>  <cnnaffinity>  (1) 
-4.87814

>  <filename>  (1) 
O=C(NCc1ccccc1)c1nccn1-c1cccnc1

$$$$
