
     RDKit          3D

 28 29  0  0  0  0  0  0  0  0999 V2000
    9.4487   -1.8553   23.3406 H   0  0  0  0  0  0  0  0  0  0  0  0
    8.7020   -1.2352   23.2368 O   0  0  0  0  0  0  0  0  0  0  0  0
    7.6133   -2.0497   22.8531 N   0  0  0  0  0  0  0  0  0  0  0  0
    6.8154   -1.6697   21.7318 C   0  0  0  0  0  0  0  0  0  0  0  0
    5.7482   -2.1978   21.4861 O   0  0  0  0  0  0  0  0  0  0  0  0
    7.3838   -0.7017   20.9445 N   0  0  0  0  0  0  0  0  0  0  0  0
    8.2853   -0.3832   21.2502 H   0  0  0  0  0  0  0  0  0  0  0  0
    6.6862   -0.0177   19.9085 C   0  0  0  0  0  0  0  0  0  0  0  0
    7.2255    0.0509   18.6099 C   0  0  0  0  0  0  0  0  0  0  0  0
    8.1778   -0.4400   18.4100 H   0  0  0  0  0  0  0  0  0  0  0  0
    6.6335    0.6827   17.5888 N   0  0  0  0  0  0  0  0  0  0  0  0
    5.4587    1.2868   17.8325 C   0  0  0  0  0  0  0  0  0  0  0  0
    4.9889    1.7816   16.9857 H   0  0  0  0  0  0  0  0  0  0  0  0
    4.8424    1.2847   19.0880 C   0  0  0  0  0  0  0  0  0  0  0  0
    3.9008    1.8031   19.2219 H   0  0  0  0  0  0  0  0  0  0  0  0
    5.4573    0.6080   20.1481 C   0  0  0  0  0  0  0  0  0  0  0  0
    5.0212    0.5663   21.1466 H   0  0  0  0  0  0  0  0  0  0  0  0
    7.1094   -2.8961   23.8811 C   0  0  0  0  0  0  0  0  0  0  0  0
    7.3551   -2.6337   25.2416 C   0  0  0  0  0  0  0  0  0  0  0  0
    7.8767   -1.7261   25.5257 H   0  0  0  0  0  0  0  0  0  0  0  0
    6.9081   -3.5409   26.2041 C   0  0  0  0  0  0  0  0  0  0  0  0
    7.0974   -3.3393   27.2562 H   0  0  0  0  0  0  0  0  0  0  0  0
    6.2308   -4.7069   25.8306 C   0  0  0  0  0  0  0  0  0  0  0  0
    5.9014   -5.4358   26.5618 H   0  0  0  0  0  0  0  0  0  0  0  0
    5.9786   -4.9215   24.4770 C   0  0  0  0  0  0  0  0  0  0  0  0
    5.3162   -6.0258   24.0966 F   0  0  0  0  0  0  0  0  0  0  0  0
    6.3834   -4.0297   23.4941 C   0  0  0  0  0  0  0  0  0  0  0  0
    6.1223   -4.1923   22.4596 H   0  0  0  0  0  0  0  0  0  0  0  0
  1  2  1  0
  2  3  1  0
  3  4  1  0
  4  5  2  0
  4  6  1  0
  6  7  1  0
  6  8  1  0
  8  9  2  0
  9 10  1  0
  9 11  1  0
 11 12  2  0
 12 13  1  0
 12 14  1  0
 14 15  1  0
 14 16  2  0
 16 17  1  0
  3 18  1  0
 18 19  2  0
 19 20  1  0
 19 21  1  0
 21 22  1  0
 21 23  2  0
 23 24  1  0
 23 25  1  0
 25 26  1  0
 25 27  2  0
 27 28  1  0
 16  8  1  0
 27 18  1  0
M  END
>  <cnnaffinity>  (1) 
-4.65253

>  <filename>  (1) 
O=C(Nc1cccnc1)N(O)c1cccc(F)c1

$$$$
