
     RDKit          3D

 33 35  0  0  0  0  0  0  0  0999 V2000
    5.0450    1.6740   16.9305 H   0  0  0  0  0  0  0  0  0  0  0  0
    5.4928    1.3059   17.8516 C   0  0  0  0  0  0  0  0  0  0  0  0
    6.6975    0.7303   17.7366 N   0  0  0  0  0  0  0  0  0  0  0  0
    7.2649    0.2707   18.8604 C   0  0  0  0  0  0  0  0  0  0  0  0
    8.2549   -0.1678   18.7516 H   0  0  0  0  0  0  0  0  0  0  0  0
    6.6680    0.3102   20.1319 C   0  0  0  0  0  0  0  0  0  0  0  0
    7.3461   -0.3358   21.2965 C   0  0  0  0  0  0  0  0  0  0  0  0
    8.0589    0.5405   22.1503 O   0  0  0  0  0  0  0  0  0  0  0  0
    9.3374    0.8214   21.8060 C   0  0  0  0  0  0  0  0  0  0  0  0
    9.7472    0.8338   20.6693 O   0  0  0  0  0  0  0  0  0  0  0  0
   10.0299    1.0608   22.9699 N   0  0  0  0  0  0  0  0  0  0  0  0
    9.3489    1.4473   23.6058 H   0  0  0  0  0  0  0  0  0  0  0  0
   11.3341    1.7210   22.9263 C   0  0  0  0  0  0  0  0  0  0  0  0
   12.0319    1.0912   22.3539 H   0  0  0  0  0  0  0  0  0  0  0  0
   11.7162    1.7998   23.9615 H   0  0  0  0  0  0  0  0  0  0  0  0
   11.2224    3.0792   22.2749 C   0  0  0  0  0  0  0  0  0  0  0  0
   10.7522    3.0052   21.2945 H   0  0  0  0  0  0  0  0  0  0  0  0
   12.2761    4.1347   22.4276 C   0  0  0  0  0  0  0  0  0  0  0  0
   12.5145    4.7327   21.5502 H   0  0  0  0  0  0  0  0  0  0  0  0
   13.1391    3.9219   23.0537 H   0  0  0  0  0  0  0  0  0  0  0  0
   10.9332    4.3117   23.0879 C   0  0  0  0  0  0  0  0  0  0  0  0
   10.8707    4.1867   24.1696 H   0  0  0  0  0  0  0  0  0  0  0  0
   10.2272    5.0281   22.6839 H   0  0  0  0  0  0  0  0  0  0  0  0
    7.8460   -1.7466   21.1548 C   0  0  0  0  0  0  0  0  0  0  0  0
    8.8105   -2.0109   21.5783 H   0  0  0  0  0  0  0  0  0  0  0  0
    7.5843   -2.2317   20.2213 H   0  0  0  0  0  0  0  0  0  0  0  0
    6.6917   -1.4418   22.0670 C   0  0  0  0  0  0  0  0  0  0  0  0
    6.8785   -1.4676   23.1371 H   0  0  0  0  0  0  0  0  0  0  0  0
    5.7041   -1.7704   21.7648 H   0  0  0  0  0  0  0  0  0  0  0  0
    5.4189    0.9425   20.2305 C   0  0  0  0  0  0  0  0  0  0  0  0
    4.9321    1.0326   21.2029 H   0  0  0  0  0  0  0  0  0  0  0  0
    4.8227    1.4410   19.0733 C   0  0  0  0  0  0  0  0  0  0  0  0
    3.8598    1.9374   19.0969 H   0  0  0  0  0  0  0  0  0  0  0  0
  1  2  1  0
  2  3  2  0
  3  4  1  0
  4  5  1  0
  4  6  2  0
  6  7  1  0
  7  8  1  0
  8  9  1  0
  9 10  2  0
  9 11  1  0
 11 12  1  0
 11 13  1  0
 13 14  1  0
 13 15  1  0
 13 16  1  0
 16 17  1  0
 16 18  1  0
 18 19  1  0
 18 20  1  0
 18 21  1  0
 21 22  1  0
 21 23  1  0
  7 24  1  0
 24 25  1  0
 24 26  1  0
 24 27  1  0
 27 28  1  0
 27 29  1  0
  6 30  1  0
 30 31  1  0
 30 32  2  0
 32 33  1  0
 32  2  1  0
 27  7  1  0
 21 16  1  0
M  END
>  <cnnaffinity>  (1) 
-4.7936

>  <filename>  (1) 
O=C(NCC1CC1)OC1(c2cccnc2)CC1

$$$$
