
     RDKit          3D

 47 50  0  0  0  0  0  0  0  0999 V2000
    5.1297    1.2537   16.9399 H   0  0  0  0  0  0  0  0  0  0  0  0
    5.7597    1.0124   17.7942 C   0  0  0  0  0  0  0  0  0  0  0  0
    6.9138    0.3843   17.5257 N   0  0  0  0  0  0  0  0  0  0  0  0
    7.6874    0.0420   18.5639 C   0  0  0  0  0  0  0  0  0  0  0  0
    8.6292   -0.4391   18.3046 H   0  0  0  0  0  0  0  0  0  0  0  0
    7.3763    0.2694   19.9362 C   0  0  0  0  0  0  0  0  0  0  0  0
    8.2333   -0.2183   20.9497 N   0  0  0  0  0  0  0  0  0  0  0  0
    8.7832   -1.5746   20.7985 C   0  0  1  0  0  0  0  0  0  0  0  0
    9.2875   -1.6846   19.8337 H   0  0  0  0  0  0  0  0  0  0  0  0
    9.7887   -1.6501   21.9534 C   0  0  0  0  0  0  0  0  0  0  0  0
    9.9491   -2.6804   22.2867 H   0  0  0  0  0  0  0  0  0  0  0  0
   10.7546   -1.2556   21.6216 H   0  0  0  0  0  0  0  0  0  0  0  0
    9.1790   -0.7319   23.0377 C   0  0  0  0  0  0  0  0  0  0  0  0
    8.9576   -1.2635   23.9655 H   0  0  0  0  0  0  0  0  0  0  0  0
    9.8565    0.0918   23.2759 H   0  0  0  0  0  0  0  0  0  0  0  0
    7.8951   -0.1740   22.3905 C   0  0  2  0  0  0  0  0  0  0  0  0
    7.6959    0.8586   22.7078 H   0  0  0  0  0  0  0  0  0  0  0  0
    6.6523   -1.0493   22.6975 C   0  0  0  0  0  0  0  0  0  0  0  0
    5.8236   -0.5191   22.2213 H   0  0  0  0  0  0  0  0  0  0  0  0
    6.4524   -1.0610   23.7761 H   0  0  0  0  0  0  0  0  0  0  0  0
    6.6724   -2.4794   22.0947 C   0  0  2  0  0  0  0  0  0  0  0  0
    5.6572   -2.6527   21.7084 H   0  0  0  0  0  0  0  0  0  0  0  0
    6.9347   -3.6753   23.0290 C   0  0  0  0  0  0  0  0  0  0  0  0
    7.6721   -3.6653   23.9958 O   0  0  0  0  0  0  0  0  0  0  0  0
    6.3442   -4.8163   22.5510 N   0  0  0  0  0  0  0  0  0  0  0  0
    5.6289   -4.6649   21.8671 H   0  0  0  0  0  0  0  0  0  0  0  0
    6.3979   -6.1299   23.1715 C   0  0  0  0  0  0  0  0  0  0  0  0
    7.4140   -6.2999   23.5395 H   0  0  0  0  0  0  0  0  0  0  0  0
    6.2318   -6.8610   22.3758 H   0  0  0  0  0  0  0  0  0  0  0  0
    5.4067   -6.3290   24.3034 C   0  0  0  0  0  0  0  0  0  0  0  0
    4.1767   -6.9867   24.1225 C   0  0  0  0  0  0  0  0  0  0  0  0
    3.9030   -7.3685   23.1396 H   0  0  0  0  0  0  0  0  0  0  0  0
    3.3051   -7.1695   25.2037 C   0  0  0  0  0  0  0  0  0  0  0  0
    2.3661   -7.7005   25.0588 H   0  0  0  0  0  0  0  0  0  0  0  0
    3.6443   -6.6810   26.4693 C   0  0  0  0  0  0  0  0  0  0  0  0
    2.9542   -6.7989   27.3031 H   0  0  0  0  0  0  0  0  0  0  0  0
    4.8577   -6.0063   26.6542 C   0  0  0  0  0  0  0  0  0  0  0  0
    5.1336   -5.6367   27.6392 H   0  0  0  0  0  0  0  0  0  0  0  0
    5.7253   -5.8245   25.5748 C   0  0  0  0  0  0  0  0  0  0  0  0
    6.6693   -5.2958   25.7057 H   0  0  0  0  0  0  0  0  0  0  0  0
    7.6354   -2.6058   20.8778 C   0  0  0  0  0  0  0  0  0  0  0  0
    7.0234   -2.4871   19.9759 H   0  0  0  0  0  0  0  0  0  0  0  0
    8.0795   -3.6061   20.8367 H   0  0  0  0  0  0  0  0  0  0  0  0
    6.1997    1.0080   20.1739 C   0  0  0  0  0  0  0  0  0  0  0  0
    5.9307    1.2903   21.1897 H   0  0  0  0  0  0  0  0  0  0  0  0
    5.3774    1.3526   19.0936 C   0  0  0  0  0  0  0  0  0  0  0  0
    4.4400    1.8710   19.2567 H   0  0  0  0  0  0  0  0  0  0  0  0
  1  2  1  0
  2  3  2  0
  3  4  1  0
  4  5  1  0
  4  6  2  0
  6  7  1  0
  7  8  1  0
  8  9  1  6
  8 10  1  0
 10 11  1  0
 10 12  1  0
 10 13  1  0
 13 14  1  0
 13 15  1  0
 13 16  1  0
 16 17  1  1
 16 18  1  0
 18 19  1  0
 18 20  1  0
 18 21  1  0
 21 22  1  6
 21 23  1  0
 23 24  2  0
 23 25  1  0
 25 26  1  0
 25 27  1  0
 27 28  1  0
 27 29  1  0
 27 30  1  0
 30 31  2  0
 31 32  1  0
 31 33  1  0
 33 34  1  0
 33 35  2  0
 35 36  1  0
 35 37  1  0
 37 38  1  0
 37 39  2  0
 39 40  1  0
 21 41  1  0
 41 42  1  0
 41 43  1  0
  6 44  1  0
 44 45  1  0
 44 46  2  0
 46 47  1  0
 46  2  1  0
 16  7  1  0
 39 30  1  0
 41  8  1  0
M  END
>  <cnnaffinity>  (1) 
-5.201

>  <filename>  (1) 
O=C(NCc1ccccc1)[C@H]1C[C@H]2CC[C@@H](C1)N2c1cccnc1

$$$$
