
     RDKit          3D

 31 33  0  0  0  0  0  0  0  0999 V2000
    5.0116    2.0901   16.5954 H   0  0  0  0  0  0  0  0  0  0  0  0
    5.3924    1.5454   17.4595 C   0  0  0  0  0  0  0  0  0  0  0  0
    6.5224    0.8494   17.2600 N   0  0  0  0  0  0  0  0  0  0  0  0
    7.0214    0.1705   18.2975 C   0  0  0  0  0  0  0  0  0  0  0  0
    7.9207   -0.4116   18.0980 H   0  0  0  0  0  0  0  0  0  0  0  0
    6.4573    0.1855   19.5755 C   0  0  0  0  0  0  0  0  0  0  0  0
    7.1347   -0.5717   20.6502 C   0  0  0  0  0  0  0  0  0  0  0  0
    7.6072   -1.7473   20.3251 N   0  0  0  0  0  0  0  0  0  0  0  0
    8.1127   -2.5418   21.3161 C   0  0  0  0  0  0  0  0  0  0  0  0
    8.5060   -3.6815   21.1796 O   0  0  0  0  0  0  0  0  0  0  0  0
    8.1816   -2.0182   22.5993 N   0  0  0  0  0  0  0  0  0  0  0  0
    8.5103   -2.6480   23.3103 H   0  0  0  0  0  0  0  0  0  0  0  0
    7.7363   -0.8089   22.9152 C   0  0  0  0  0  0  0  0  0  0  0  0
    7.7978   -0.4050   24.2206 N   0  0  0  0  0  0  0  0  0  0  0  0
    7.4043    0.5081   24.3816 H   0  0  0  0  0  0  0  0  0  0  0  0
    8.3386   -1.0856   25.2866 C   0  0  0  0  0  0  0  0  0  0  0  0
    8.8291   -2.2078   25.1863 O   0  0  0  0  0  0  0  0  0  0  0  0
    8.3412   -0.3972   26.6082 C   0  0  0  0  0  0  0  0  0  0  0  0
    7.5553    0.7061   26.8359 O   0  0  0  0  0  0  0  0  0  0  0  0
    7.7312    1.0557   28.1312 C   0  0  0  0  0  0  0  0  0  0  0  0
    7.2011    1.9326   28.4657 H   0  0  0  0  0  0  0  0  0  0  0  0
    8.6146    0.2265   28.7369 C   0  0  0  0  0  0  0  0  0  0  0  0
    8.9434    0.2757   29.7695 H   0  0  0  0  0  0  0  0  0  0  0  0
    9.0144   -0.7212   27.7483 C   0  0  0  0  0  0  0  0  0  0  0  0
    9.7205   -1.5378   27.8221 H   0  0  0  0  0  0  0  0  0  0  0  0
    7.2190   -0.0069   21.9377 C   0  0  0  0  0  0  0  0  0  0  0  0
    6.9108    1.0095   22.1233 H   0  0  0  0  0  0  0  0  0  0  0  0
    5.2687    0.9066   19.7744 C   0  0  0  0  0  0  0  0  0  0  0  0
    4.7776    0.9275   20.7509 H   0  0  0  0  0  0  0  0  0  0  0  0
    4.7236    1.5899   18.6881 C   0  0  0  0  0  0  0  0  0  0  0  0
    3.8114    2.1724   18.7786 H   0  0  0  0  0  0  0  0  0  0  0  0
  1  2  1  0
  2  3  2  0
  3  4  1  0
  4  5  1  0
  4  6  2  0
  6  7  1  0
  7  8  2  0
  8  9  1  0
  9 10  2  0
  9 11  1  0
 11 12  1  0
 11 13  1  0
 13 14  1  0
 14 15  1  0
 14 16  1  0
 16 17  2  0
 16 18  1  0
 18 19  1  0
 19 20  1  0
 20 21  1  0
 20 22  2  0
 22 23  1  0
 22 24  1  0
 24 25  1  0
 13 26  2  0
 26 27  1  0
  6 28  1  0
 28 29  1  0
 28 30  2  0
 30 31  1  0
 30  2  1  0
 26  7  1  0
 24 18  2  0
M  END
>  <cnnaffinity>  (1) 
-4.70652

>  <filename>  (1) 
O=C(Nc1cc(-c2cccnc2)nc(=O)[nH]1)c1ccco1

$$$$
