
     RDKit          3D

 37 38  0  0  0  0  0  0  0  0999 V2000
    4.9515    1.8074   16.9837 H   0  0  0  0  0  0  0  0  0  0  0  0
    5.4296    1.3045   17.8211 C   0  0  0  0  0  0  0  0  0  0  0  0
    6.5942    0.6912   17.5547 N   0  0  0  0  0  0  0  0  0  0  0  0
    7.1981    0.0623   18.5712 C   0  0  0  0  0  0  0  0  0  0  0  0
    8.1480   -0.4243   18.3576 H   0  0  0  0  0  0  0  0  0  0  0  0
    6.6817   -0.0045   19.8771 C   0  0  0  0  0  0  0  0  0  0  0  0
    7.5520   -0.9329   21.1136 S   0  0  0  0  0  0  0  0  0  0  0  0
    6.6422   -2.5092   20.9317 C   0  0  0  0  0  0  0  0  0  0  0  0
    6.7501   -2.8709   19.9060 H   0  0  0  0  0  0  0  0  0  0  0  0
    5.5826   -2.3043   21.1134 H   0  0  0  0  0  0  0  0  0  0  0  0
    7.1207   -3.4724   21.8751 N   0  0  0  0  0  0  0  0  0  0  0  0
    7.7600   -4.2003   21.6362 H   0  0  0  0  0  0  0  0  0  0  0  0
    6.6758   -3.4409   23.1672 C   0  0  0  0  0  0  0  0  0  0  0  0
    5.9848   -2.5457   23.6035 O   0  0  0  0  0  0  0  0  0  0  0  0
    7.0367   -4.5609   23.8855 N   0  0  0  0  0  0  0  0  0  0  0  0
    7.9145   -4.9431   23.5770 H   0  0  0  0  0  0  0  0  0  0  0  0
    6.9168   -4.4803   25.3345 C   0  0  0  0  0  0  0  0  0  0  0  0
    5.8797   -4.1983   25.5854 H   0  0  0  0  0  0  0  0  0  0  0  0
    7.8271   -3.3971   25.9313 C   0  0  0  0  0  0  0  0  0  0  0  0
    7.6145   -2.4422   25.4368 H   0  0  0  0  0  0  0  0  0  0  0  0
    8.8817   -3.6389   25.7276 H   0  0  0  0  0  0  0  0  0  0  0  0
    7.5648   -3.2854   27.4280 C   0  0  0  0  0  0  0  0  0  0  0  0
    6.5411   -2.8968   27.5706 H   0  0  0  0  0  0  0  0  0  0  0  0
    8.2528   -2.5429   27.8508 H   0  0  0  0  0  0  0  0  0  0  0  0
    7.7039   -4.6462   28.1484 C   0  0  0  0  0  0  0  0  0  0  0  0
    7.3601   -4.5722   29.1865 H   0  0  0  0  0  0  0  0  0  0  0  0
    8.7671   -4.9253   28.1751 H   0  0  0  0  0  0  0  0  0  0  0  0
    6.9109   -5.7786   27.4754 C   0  0  0  0  0  0  0  0  0  0  0  0
    7.1451   -6.7401   27.9510 H   0  0  0  0  0  0  0  0  0  0  0  0
    5.8319   -5.6120   27.6224 H   0  0  0  0  0  0  0  0  0  0  0  0
    7.1752   -5.8445   25.9676 C   0  0  0  0  0  0  0  0  0  0  0  0
    6.4950   -6.5654   25.5077 H   0  0  0  0  0  0  0  0  0  0  0  0
    8.2137   -6.1598   25.7692 H   0  0  0  0  0  0  0  0  0  0  0  0
    5.4725    0.6541   20.1439 C   0  0  0  0  0  0  0  0  0  0  0  0
    5.0517    0.6604   21.1507 H   0  0  0  0  0  0  0  0  0  0  0  0
    4.8332    1.3137   19.0887 C   0  0  0  0  0  0  0  0  0  0  0  0
    3.8995    1.8422   19.2404 H   0  0  0  0  0  0  0  0  0  0  0  0
  1  2  1  0
  2  3  2  0
  3  4  1  0
  4  5  1  0
  4  6  2  0
  6  7  1  0
  7  8  1  0
  8  9  1  0
  8 10  1  0
  8 11  1  0
 11 12  1  0
 11 13  1  0
 13 14  2  0
 13 15  1  0
 15 16  1  0
 15 17  1  0
 17 18  1  0
 17 19  1  0
 19 20  1  0
 19 21  1  0
 19 22  1  0
 22 23  1  0
 22 24  1  0
 22 25  1  0
 25 26  1  0
 25 27  1  0
 25 28  1  0
 28 29  1  0
 28 30  1  0
 28 31  1  0
 31 32  1  0
 31 33  1  0
  6 34  1  0
 34 35  1  0
 34 36  2  0
 36 37  1  0
 36  2  1  0
 31 17  1  0
M  END
>  <cnnaffinity>  (1) 
-4.69551

>  <filename>  (1) 
O=C(NCSc1cccnc1)NC1CCCCC1

$$$$
