
     RDKit          3D

 37 40  0  0  0  0  0  0  0  0999 V2000
    5.0422    1.7629   17.0315 H   0  0  0  0  0  0  0  0  0  0  0  0
    5.4895    1.2664   17.8883 C   0  0  0  0  0  0  0  0  0  0  0  0
    6.6473    0.6285   17.6617 N   0  0  0  0  0  0  0  0  0  0  0  0
    7.2062   -0.0057   18.6959 C   0  0  0  0  0  0  0  0  0  0  0  0
    8.1367   -0.5210   18.4705 H   0  0  0  0  0  0  0  0  0  0  0  0
    6.6531   -0.0374   19.9828 C   0  0  0  0  0  0  0  0  0  0  0  0
    7.3031   -0.8004   21.0865 C   0  0  0  0  0  0  0  0  0  0  0  0
    6.6674   -1.4153   21.9296 O   0  0  0  0  0  0  0  0  0  0  0  0
    8.6629   -0.7422   21.1264 N   0  0  0  0  0  0  0  0  0  0  0  0
    9.6723    0.0642   20.4563 C   0  0  0  0  0  0  0  0  0  0  0  0
    9.8585   -0.3057   19.4422 H   0  0  0  0  0  0  0  0  0  0  0  0
    9.4830    1.1469   20.4450 H   0  0  0  0  0  0  0  0  0  0  0  0
   10.7183   -0.4385   21.4999 C   0  0  0  0  0  0  0  0  0  0  0  0
   11.3964   -1.1457   21.0129 H   0  0  0  0  0  0  0  0  0  0  0  0
   11.5461    0.5743   22.2625 C   0  0  0  0  0  0  0  0  0  0  0  0
   12.9225    0.4499   22.3283 C   0  0  0  0  0  0  0  0  0  0  0  0
   13.4082   -0.4419   21.9345 H   0  0  0  0  0  0  0  0  0  0  0  0
   13.7789    1.3605   22.8696 N   0  0  0  0  0  0  0  0  0  0  0  0
   13.2429    2.4389   23.4016 C   0  0  0  0  0  0  0  0  0  0  0  0
   13.9232    3.1874   23.8080 H   0  0  0  0  0  0  0  0  0  0  0  0
   11.8406    2.6646   23.5235 C   0  0  0  0  0  0  0  0  0  0  0  0
   11.3051    3.7750   24.2520 C   0  0  0  0  0  0  0  0  0  0  0  0
   11.9905    4.5128   24.6684 H   0  0  0  0  0  0  0  0  0  0  0  0
    9.9507    3.8860   24.4432 C   0  0  0  0  0  0  0  0  0  0  0  0
    9.5535    4.6947   25.0473 H   0  0  0  0  0  0  0  0  0  0  0  0
    9.0660    2.9474   23.8584 C   0  0  0  0  0  0  0  0  0  0  0  0
    7.9947    3.0464   24.0069 H   0  0  0  0  0  0  0  0  0  0  0  0
    9.5589    1.9007   23.1133 C   0  0  0  0  0  0  0  0  0  0  0  0
    8.8727    1.2057   22.6526 H   0  0  0  0  0  0  0  0  0  0  0  0
   10.9625    1.7055   22.9361 C   0  0  0  0  0  0  0  0  0  0  0  0
    9.5478   -1.2411   22.1704 C   0  0  0  0  0  0  0  0  0  0  0  0
    9.6407   -2.3335   22.1381 H   0  0  0  0  0  0  0  0  0  0  0  0
    9.2879   -0.9383   23.1913 H   0  0  0  0  0  0  0  0  0  0  0  0
    5.4463    0.6340   20.2089 C   0  0  0  0  0  0  0  0  0  0  0  0
    4.9953    0.6325   21.2045 H   0  0  0  0  0  0  0  0  0  0  0  0
    4.8546    1.2931   19.1365 C   0  0  0  0  0  0  0  0  0  0  0  0
    3.9137    1.8170   19.2545 H   0  0  0  0  0  0  0  0  0  0  0  0
  1  2  1  0
  2  3  2  0
  3  4  1  0
  4  5  1  0
  4  6  2  0
  6  7  1  0
  7  8  2  0
  7  9  1  0
  9 10  1  0
 10 11  1  0
 10 12  1  0
 10 13  1  0
 13 14  1  0
 13 15  1  0
 15 16  2  0
 16 17  1  0
 16 18  1  0
 18 19  2  0
 19 20  1  0
 19 21  1  0
 21 22  2  0
 22 23  1  0
 22 24  1  0
 24 25  1  0
 24 26  2  0
 26 27  1  0
 26 28  1  0
 28 29  1  0
 28 30  2  0
 13 31  1  0
 31 32  1  0
 31 33  1  0
  6 34  1  0
 34 35  1  0
 34 36  2  0
 36 37  1  0
 36  2  1  0
 31  9  1  0
 30 15  1  0
 30 21  1  0
M  END
>  <cnnaffinity>  (1) 
-5.47973

>  <filename>  (1) 
O=C(c1cccnc1)N1CC(c2cncc3ccccc23)C1

$$$$
