
     RDKit          3D

 34 36  0  0  0  0  0  0  0  0999 V2000
    6.2592   -2.8164   20.1689 O   0  0  0  0  0  0  0  0  0  0  0  0
    6.7302   -2.2141   21.1236 C   0  0  0  0  0  0  0  0  0  0  0  0
    6.7622   -2.7781   22.3603 N   0  0  0  0  0  0  0  0  0  0  0  0
    6.1837   -4.1044   22.5578 C   0  0  0  0  0  0  0  0  0  0  0  0
    6.3359   -4.5444   23.9702 C   0  0  0  0  0  0  0  0  0  0  0  0
    7.3861   -5.2331   24.5085 C   0  0  0  0  0  0  0  0  0  0  0  0
    7.1376   -5.3995   25.9049 C   0  0  0  0  0  0  0  0  0  0  0  0
    7.8026   -5.9739   26.9958 C   0  0  0  0  0  0  0  0  0  0  0  0
    7.1767   -5.8833   28.2401 C   0  0  0  0  0  0  0  0  0  0  0  0
    5.9267   -5.2350   28.3525 C   0  0  0  0  0  0  0  0  0  0  0  0
    5.2639   -4.6742   27.3321 N   0  0  0  0  0  0  0  0  0  0  0  0
    5.8891   -4.7768   26.1642 C   0  0  0  0  0  0  0  0  0  0  0  0
    5.4278   -4.2683   24.9785 N   0  0  0  0  0  0  0  0  0  0  0  0
    4.5584   -3.7574   24.9599 H   0  0  0  0  0  0  0  0  0  0  0  0
    5.4420   -5.1688   29.3279 H   0  0  0  0  0  0  0  0  0  0  0  0
    7.6312   -6.3097   29.1220 H   0  0  0  0  0  0  0  0  0  0  0  0
    8.7691   -6.4631   26.8598 H   0  0  0  0  0  0  0  0  0  0  0  0
    8.2603   -5.5872   23.9736 H   0  0  0  0  0  0  0  0  0  0  0  0
    5.1323   -4.1024   22.2357 H   0  0  0  0  0  0  0  0  0  0  0  0
    6.6915   -4.8146   21.8906 H   0  0  0  0  0  0  0  0  0  0  0  0
    7.1322   -2.2707   23.1514 H   0  0  0  0  0  0  0  0  0  0  0  0
    7.3529   -0.7502   20.9716 C   0  0  0  0  0  0  0  0  0  0  0  0
    8.6876   -0.8668   20.7065 F   0  0  0  0  0  0  0  0  0  0  0  0
    7.2815   -0.0896   22.1795 F   0  0  0  0  0  0  0  0  0  0  0  0
    6.6770    0.0704   19.9075 C   0  0  0  0  0  0  0  0  0  0  0  0
    5.4457    0.6873   20.1600 C   0  0  0  0  0  0  0  0  0  0  0  0
    4.8016    1.3187   19.0953 C   0  0  0  0  0  0  0  0  0  0  0  0
    5.4013    1.2930   17.8321 C   0  0  0  0  0  0  0  0  0  0  0  0
    6.5691    0.6849   17.5796 N   0  0  0  0  0  0  0  0  0  0  0  0
    7.1898    0.0933   18.6046 C   0  0  0  0  0  0  0  0  0  0  0  0
    8.1302   -0.4017   18.3698 H   0  0  0  0  0  0  0  0  0  0  0  0
    4.9346    1.7873   16.9813 H   0  0  0  0  0  0  0  0  0  0  0  0
    3.8619    1.8373   19.2300 H   0  0  0  0  0  0  0  0  0  0  0  0
    5.0075    0.6588   21.1594 H   0  0  0  0  0  0  0  0  0  0  0  0
  1  2  2  0
  2  3  1  0
  3  4  1  0
  4  5  1  0
  5  6  2  0
  6  7  1  0
  7  8  2  0
  8  9  1  0
  9 10  2  0
 10 11  1  0
 11 12  2  0
 12 13  1  0
 13 14  1  0
 10 15  1  0
  9 16  1  0
  8 17  1  0
  6 18  1  0
  4 19  1  0
  4 20  1  0
  3 21  1  0
  2 22  1  0
 22 23  1  0
 22 24  1  0
 22 25  1  0
 25 26  2  0
 26 27  1  0
 27 28  2  0
 28 29  1  0
 29 30  2  0
 30 31  1  0
 28 32  1  0
 27 33  1  0
 26 34  1  0
 13  5  1  0
 30 25  1  0
 12  7  1  0
M  END
>  <cnnaffinity>  (1) 
-5.02349

>  <filename>  (1) 
O=C(NCc1cc2cccnc2[nH]1)C(F)(F)c1cccnc1

$$$$
