
     RDKit          3D

 30 32  0  0  0  0  0  0  0  0999 V2000
    5.2320    1.5208   16.5806 H   0  0  0  0  0  0  0  0  0  0  0  0
    5.5989    1.1540   17.5378 C   0  0  0  0  0  0  0  0  0  0  0  0
    6.7655    0.4908   17.5160 N   0  0  0  0  0  0  0  0  0  0  0  0
    7.2592    0.0543   18.6844 C   0  0  0  0  0  0  0  0  0  0  0  0
    8.2059   -0.4824   18.6554 H   0  0  0  0  0  0  0  0  0  0  0  0
    6.6181    0.2364   19.9261 C   0  0  0  0  0  0  0  0  0  0  0  0
    7.1523   -0.1876   21.1758 N   0  0  0  0  0  0  0  0  0  0  0  0
    6.6605   -1.0016   21.5550 H   0  0  0  0  0  0  0  0  0  0  0  0
    8.5574   -0.3160   21.2160 N   0  0  0  0  0  0  0  0  0  0  0  0
    9.0444    0.5643   21.1501 H   0  0  0  0  0  0  0  0  0  0  0  0
    9.2663   -1.2796   21.9068 C   0  0  0  0  0  0  0  0  0  0  0  0
    8.7999   -2.3399   22.2801 O   0  0  0  0  0  0  0  0  0  0  0  0
   10.7221   -0.9316   22.0882 C   0  0  0  0  0  0  0  0  0  0  0  0
   11.6732   -1.9006   22.0274 C   0  0  0  0  0  0  0  0  0  0  0  0
   11.4976   -2.9710   22.0187 H   0  0  0  0  0  0  0  0  0  0  0  0
   13.2870   -1.3119   22.0585 S   0  0  0  0  0  0  0  0  0  0  0  0
   12.7242    0.3100   22.3473 C   0  0  0  0  0  0  0  0  0  0  0  0
   13.5325    1.4342   22.6062 C   0  0  0  0  0  0  0  0  0  0  0  0
   14.6160    1.3558   22.6652 H   0  0  0  0  0  0  0  0  0  0  0  0
   12.9201    2.6699   22.7740 C   0  0  0  0  0  0  0  0  0  0  0  0
   13.5279    3.5562   22.9338 H   0  0  0  0  0  0  0  0  0  0  0  0
   11.5126    2.7715   22.7772 C   0  0  0  0  0  0  0  0  0  0  0  0
   11.0431    3.7459   22.8889 H   0  0  0  0  0  0  0  0  0  0  0  0
   10.7152    1.6494   22.6004 C   0  0  0  0  0  0  0  0  0  0  0  0
    9.6437    1.7429   22.7628 H   0  0  0  0  0  0  0  0  0  0  0  0
   11.3144    0.3871   22.3269 C   0  0  0  0  0  0  0  0  0  0  0  0
    5.3810    0.9001   19.9235 C   0  0  0  0  0  0  0  0  0  0  0  0
    4.8686    1.0583   20.8729 H   0  0  0  0  0  0  0  0  0  0  0  0
    4.8734    1.3745   18.7129 C   0  0  0  0  0  0  0  0  0  0  0  0
    3.9414    1.9277   18.6660 H   0  0  0  0  0  0  0  0  0  0  0  0
  1  2  1  0
  2  3  2  0
  3  4  1  0
  4  5  1  0
  4  6  2  0
  6  7  1  0
  7  8  1  0
  7  9  1  0
  9 10  1  0
  9 11  1  0
 11 12  2  0
 11 13  1  0
 13 14  2  0
 14 15  1  0
 14 16  1  0
 16 17  1  0
 17 18  2  0
 18 19  1  0
 18 20  1  0
 20 21  1  0
 20 22  2  0
 22 23  1  0
 22 24  1  0
 24 25  1  0
 24 26  2  0
  6 27  1  0
 27 28  1  0
 27 29  2  0
 29 30  1  0
 29  2  1  0
 26 13  1  0
 26 17  1  0
M  END
>  <cnnaffinity>  (1) 
-5.52088

>  <filename>  (1) 
O=C(NNc1cccnc1)c1csc2ccccc12

$$$$
