
     RDKit          3D

 34 35  0  0  0  0  0  0  0  0999 V2000
    8.1627   -2.3090   21.3398 H   0  0  0  0  0  0  0  0  0  0  0  0
    8.0045   -1.7796   20.5103 O   0  0  0  0  0  0  0  0  0  0  0  0
    7.0292   -0.9011   20.9893 N   0  0  0  0  0  0  0  0  0  0  0  0
    6.5538   -0.0128   19.9870 C   0  0  0  0  0  0  0  0  0  0  0  0
    7.1856    0.0844   18.7356 C   0  0  0  0  0  0  0  0  0  0  0  0
    8.1469   -0.3966   18.5743 H   0  0  0  0  0  0  0  0  0  0  0  0
    6.6570    0.7409   17.6966 N   0  0  0  0  0  0  0  0  0  0  0  0
    5.4712    1.3510   17.8691 C   0  0  0  0  0  0  0  0  0  0  0  0
    5.0443    1.8380   16.9939 H   0  0  0  0  0  0  0  0  0  0  0  0
    4.7854    1.3494   19.0917 C   0  0  0  0  0  0  0  0  0  0  0  0
    3.8465    1.8864   19.1813 H   0  0  0  0  0  0  0  0  0  0  0  0
    5.3396    0.6686   20.1801 C   0  0  0  0  0  0  0  0  0  0  0  0
    4.8448    0.6593   21.1531 H   0  0  0  0  0  0  0  0  0  0  0  0
    7.5441   -0.2904   22.1308 N   0  0  0  0  0  0  0  0  0  0  0  0
    7.1782    0.6318   22.3137 H   0  0  0  0  0  0  0  0  0  0  0  0
    7.7379   -1.1096   23.2354 C   0  0  0  0  0  0  0  0  0  0  0  0
    7.8839   -2.3214   23.0948 O   0  0  0  0  0  0  0  0  0  0  0  0
    7.8002   -0.4303   24.5983 C   0  0  0  0  0  0  0  0  0  0  0  0
    7.6909    0.6581   24.4707 H   0  0  0  0  0  0  0  0  0  0  0  0
    6.6444   -0.9286   25.5063 C   0  0  0  0  0  0  0  0  0  0  0  0
    5.6762   -0.7133   25.0372 H   0  0  0  0  0  0  0  0  0  0  0  0
    6.7062   -2.0225   25.5873 H   0  0  0  0  0  0  0  0  0  0  0  0
    6.7068   -0.2920   26.8984 C   0  0  0  0  0  0  0  0  0  0  0  0
    6.4759    0.7781   26.8194 H   0  0  0  0  0  0  0  0  0  0  0  0
    5.9235   -0.7187   27.5356 H   0  0  0  0  0  0  0  0  0  0  0  0
    8.0785   -0.4724   27.5561 C   0  0  0  0  0  0  0  0  0  0  0  0
    8.2170   -1.5342   27.7920 H   0  0  0  0  0  0  0  0  0  0  0  0
    8.1116    0.0679   28.5079 H   0  0  0  0  0  0  0  0  0  0  0  0
    9.2352   -0.0209   26.6608 C   0  0  0  0  0  0  0  0  0  0  0  0
    9.2045    1.0702   26.5477 H   0  0  0  0  0  0  0  0  0  0  0  0
   10.1927   -0.2437   27.1467 H   0  0  0  0  0  0  0  0  0  0  0  0
    9.1772   -0.6755   25.2775 C   0  0  0  0  0  0  0  0  0  0  0  0
    9.9903   -0.2924   24.6480 H   0  0  0  0  0  0  0  0  0  0  0  0
    9.3495   -1.7566   25.3683 H   0  0  0  0  0  0  0  0  0  0  0  0
  1  2  1  0
  2  3  1  0
  3  4  1  0
  4  5  2  0
  5  6  1  0
  5  7  1  0
  7  8  2  0
  8  9  1  0
  8 10  1  0
 10 11  1  0
 10 12  2  0
 12 13  1  0
  3 14  1  0
 14 15  1  0
 14 16  1  0
 16 17  2  0
 16 18  1  0
 18 19  1  0
 18 20  1  0
 20 21  1  0
 20 22  1  0
 20 23  1  0
 23 24  1  0
 23 25  1  0
 23 26  1  0
 26 27  1  0
 26 28  1  0
 26 29  1  0
 29 30  1  0
 29 31  1  0
 29 32  1  0
 32 33  1  0
 32 34  1  0
 12  4  1  0
 32 18  1  0
M  END
>  <cnnaffinity>  (1) 
-4.71565

>  <filename>  (1) 
O=C(NN(O)c1cccnc1)C1CCCCC1

$$$$
