
     RDKit          3D

 32 32  0  0  0  0  0  0  0  0999 V2000
    2.4168    0.6513   25.0195 H   0  0  0  0  0  0  0  0  0  0  0  0
    2.8181    1.0321   25.8215 O   0  0  0  0  0  0  0  0  0  0  0  0
    4.1918    0.8170   25.7097 N   0  0  0  0  0  0  0  0  0  0  0  0
    4.5732    0.4205   26.5598 H   0  0  0  0  0  0  0  0  0  0  0  0
    5.0314    1.7210   25.0638 C   0  0  0  0  0  0  0  0  0  0  0  0
    4.6631    2.5490   24.2635 O   0  0  0  0  0  0  0  0  0  0  0  0
    6.4952    1.4309   25.3501 C   0  0  0  0  0  0  0  0  0  0  0  0
    7.0052    2.3971   25.3349 H   0  0  0  0  0  0  0  0  0  0  0  0
    6.6201    1.0082   26.3532 H   0  0  0  0  0  0  0  0  0  0  0  0
    7.0873    0.4910   24.2779 C   0  0  0  0  0  0  0  0  0  0  0  0
    6.7966    0.8734   23.2908 H   0  0  0  0  0  0  0  0  0  0  0  0
    8.1835    0.5312   24.3073 H   0  0  0  0  0  0  0  0  0  0  0  0
    6.6302   -0.9610   24.4298 C   0  0  0  0  0  0  0  0  0  0  0  0
    5.5378   -1.0021   24.5060 H   0  0  0  0  0  0  0  0  0  0  0  0
    7.0063   -1.3463   25.3866 H   0  0  0  0  0  0  0  0  0  0  0  0
    7.1220   -1.9085   23.3182 C   0  0  0  0  0  0  0  0  0  0  0  0
    6.7922   -2.9301   23.5286 H   0  0  0  0  0  0  0  0  0  0  0  0
    8.2153   -1.9232   23.3036 H   0  0  0  0  0  0  0  0  0  0  0  0
    6.6227   -1.6143   21.9086 C   0  0  0  0  0  0  0  0  0  0  0  0
    5.6434   -2.1797   21.4676 O   0  0  0  0  0  0  0  0  0  0  0  0
    7.4200   -0.6707   20.9664 C   0  0  0  0  0  0  0  0  0  0  0  0
    9.0429   -0.5387   21.0961 S   0  0  0  0  0  0  0  0  0  0  0  0
    6.6698    0.0277   19.8910 C   0  0  0  0  0  0  0  0  0  0  0  0
    7.1928    0.0849   18.5798 C   0  0  0  0  0  0  0  0  0  0  0  0
    8.1434   -0.3943   18.3491 H   0  0  0  0  0  0  0  0  0  0  0  0
    6.5697    0.6869   17.5632 N   0  0  0  0  0  0  0  0  0  0  0  0
    5.4030    1.2973   17.8249 C   0  0  0  0  0  0  0  0  0  0  0  0
    4.9340    1.8071   16.9880 H   0  0  0  0  0  0  0  0  0  0  0  0
    4.7970    1.3099   19.0836 C   0  0  0  0  0  0  0  0  0  0  0  0
    3.8607    1.8392   19.2315 H   0  0  0  0  0  0  0  0  0  0  0  0
    5.4372    0.6481   20.1342 C   0  0  0  0  0  0  0  0  0  0  0  0
    4.9785    0.6130   21.1253 H   0  0  0  0  0  0  0  0  0  0  0  0
  1  2  1  0
  2  3  1  0
  3  4  1  0
  3  5  1  0
  5  6  2  0
  5  7  1  0
  7  8  1  0
  7  9  1  0
  7 10  1  0
 10 11  1  0
 10 12  1  0
 10 13  1  0
 13 14  1  0
 13 15  1  0
 13 16  1  0
 16 17  1  0
 16 18  1  0
 16 19  1  0
 19 20  2  0
 19 21  1  0
 21 22  2  0
 21 23  1  0
 23 24  2  0
 24 25  1  0
 24 26  1  0
 26 27  2  0
 27 28  1  0
 27 29  1  0
 29 30  1  0
 29 31  2  0
 31 32  1  0
 31 23  1  0
M  END
>  <cnnaffinity>  (1) 
-4.46363

>  <filename>  (1) 
O=C(CCCCC(=O)C(=S)c1cccnc1)NO

$$$$
