
     RDKit          3D

 31 32  0  0  0  0  0  0  0  0999 V2000
    4.9461    1.5687   16.7492 H   0  0  0  0  0  0  0  0  0  0  0  0
    5.4228    1.1588   17.6381 C   0  0  0  0  0  0  0  0  0  0  0  0
    6.5531    0.4664   17.4384 N   0  0  0  0  0  0  0  0  0  0  0  0
    7.1677   -0.0455   18.5097 C   0  0  0  0  0  0  0  0  0  0  0  0
    8.0820   -0.6038   18.3169 H   0  0  0  0  0  0  0  0  0  0  0  0
    6.6863    0.1304   19.8146 C   0  0  0  0  0  0  0  0  0  0  0  0
    7.4344   -0.3271   21.0399 C   0  0  0  0  0  0  0  0  0  0  0  0
    6.6848   -1.2322   21.7209 F   0  0  0  0  0  0  0  0  0  0  0  0
    8.5813   -0.9898   20.6650 F   0  0  0  0  0  0  0  0  0  0  0  0
    7.7738    0.8854   22.0085 C   0  0  0  0  0  0  0  0  0  0  0  0
    6.9285    1.3320   22.7630 O   0  0  0  0  0  0  0  0  0  0  0  0
    9.0140    1.4258   21.8214 N   0  0  0  0  0  0  0  0  0  0  0  0
    9.6841    0.8491   21.3318 H   0  0  0  0  0  0  0  0  0  0  0  0
    9.5093    2.5442   22.5223 C   0  0  0  0  0  0  0  0  0  0  0  0
    8.6573    3.5850   22.8905 C   0  0  0  0  0  0  0  0  0  0  0  0
    7.6119    3.5159   22.6211 H   0  0  0  0  0  0  0  0  0  0  0  0
    9.1581    4.6742   23.6002 C   0  0  0  0  0  0  0  0  0  0  0  0
    8.4746    5.4535   23.9286 H   0  0  0  0  0  0  0  0  0  0  0  0
   10.5239    4.7632   23.8801 C   0  0  0  0  0  0  0  0  0  0  0  0
   10.9138    5.6226   24.4104 H   0  0  0  0  0  0  0  0  0  0  0  0
   11.3895    3.7444   23.4742 C   0  0  0  0  0  0  0  0  0  0  0  0
   12.4540    3.8277   23.6865 H   0  0  0  0  0  0  0  0  0  0  0  0
   10.8902    2.6201   22.7960 C   0  0  0  0  0  0  0  0  0  0  0  0
   11.7820    1.5136   22.2903 C   0  0  0  0  0  0  0  0  0  0  0  0
   11.4459    0.2969   22.7845 F   0  0  0  0  0  0  0  0  0  0  0  0
   11.6647    1.3920   20.9402 F   0  0  0  0  0  0  0  0  0  0  0  0
   13.0827    1.6943   22.5505 F   0  0  0  0  0  0  0  0  0  0  0  0
    5.5024    0.8440   20.0140 C   0  0  0  0  0  0  0  0  0  0  0  0
    5.1296    0.9992   21.0276 H   0  0  0  0  0  0  0  0  0  0  0  0
    4.8567    1.3687   18.9004 C   0  0  0  0  0  0  0  0  0  0  0  0
    3.9491    1.9519   19.0021 H   0  0  0  0  0  0  0  0  0  0  0  0
  1  2  1  0
  2  3  2  0
  3  4  1  0
  4  5  1  0
  4  6  2  0
  6  7  1  0
  7  8  1  0
  7  9  1  0
  7 10  1  0
 10 11  2  0
 10 12  1  0
 12 13  1  0
 12 14  1  0
 14 15  2  0
 15 16  1  0
 15 17  1  0
 17 18  1  0
 17 19  2  0
 19 20  1  0
 19 21  1  0
 21 22  1  0
 21 23  2  0
 23 24  1  0
 24 25  1  0
 24 26  1  0
 24 27  1  0
  6 28  1  0
 28 29  1  0
 28 30  2  0
 30 31  1  0
 30  2  1  0
 23 14  1  0
M  END
>  <cnnaffinity>  (1) 
-5.20778

>  <filename>  (1) 
O=C(Nc1ccccc1C(F)(F)F)C(F)(F)c1cccnc1

$$$$
