
     RDKit          3D

 42 45  0  0  0  0  0  0  0  0999 V2000
    4.9525    1.8264   16.9785 H   0  0  0  0  0  0  0  0  0  0  0  0
    5.4036    1.2988   17.8165 C   0  0  0  0  0  0  0  0  0  0  0  0
    6.5578    0.6595   17.5664 N   0  0  0  0  0  0  0  0  0  0  0  0
    7.1473    0.0186   18.5819 C   0  0  0  0  0  0  0  0  0  0  0  0
    8.0900   -0.4772   18.3491 H   0  0  0  0  0  0  0  0  0  0  0  0
    6.6276   -0.0093   19.8900 C   0  0  0  0  0  0  0  0  0  0  0  0
    7.3615   -0.6750   20.9710 C   0  0  0  0  0  0  0  0  0  0  0  0
    8.0718   -1.7822   20.7507 N   0  0  0  0  0  0  0  0  0  0  0  0
    8.5838   -2.0622   21.9471 N   0  0  0  0  0  0  0  0  0  0  0  0
    8.3023   -1.1842   22.9102 C   0  0  0  0  0  0  0  0  0  0  0  0
    7.4765   -0.2453   22.3269 C   0  0  0  0  0  0  0  0  0  0  0  0
    7.0512    1.0262   22.9630 C   0  0  0  0  0  0  0  0  0  0  0  0
    6.9151    1.8222   22.2176 H   0  0  0  0  0  0  0  0  0  0  0  0
    7.8562    1.3725   23.6297 H   0  0  0  0  0  0  0  0  0  0  0  0
    5.8299    0.8586   23.7274 N   0  0  0  0  0  0  0  0  0  0  0  0
    5.4153   -0.0515   23.8179 H   0  0  0  0  0  0  0  0  0  0  0  0
    5.3284    1.8870   24.4506 C   0  0  0  0  0  0  0  0  0  0  0  0
    5.7870    3.0144   24.3511 O   0  0  0  0  0  0  0  0  0  0  0  0
    4.1599    1.5757   25.3487 C   0  0  0  0  0  0  0  0  0  0  0  0
    3.9281    0.3171   25.9337 C   0  0  0  0  0  0  0  0  0  0  0  0
    4.5952   -0.5297   25.7635 H   0  0  0  0  0  0  0  0  0  0  0  0
    2.8442    0.1408   26.7933 C   0  0  0  0  0  0  0  0  0  0  0  0
    2.6880   -0.8285   27.2563 H   0  0  0  0  0  0  0  0  0  0  0  0
    1.9826    1.2067   27.0716 C   0  0  0  0  0  0  0  0  0  0  0  0
    1.1517    1.0647   27.7542 H   0  0  0  0  0  0  0  0  0  0  0  0
    2.2127    2.4585   26.4947 C   0  0  0  0  0  0  0  0  0  0  0  0
    1.5595    3.2940   26.7233 H   0  0  0  0  0  0  0  0  0  0  0  0
    3.2983    2.6464   25.6461 C   0  0  0  0  0  0  0  0  0  0  0  0
    3.5013    3.6248   25.2110 H   0  0  0  0  0  0  0  0  0  0  0  0
    9.1418   -1.4450   24.1234 C   0  0  0  0  0  0  0  0  0  0  0  0
    8.5296   -1.5847   25.0174 H   0  0  0  0  0  0  0  0  0  0  0  0
    9.8013   -0.5954   24.3238 H   0  0  0  0  0  0  0  0  0  0  0  0
    9.9455   -2.7183   23.7233 C   0  0  0  0  0  0  0  0  0  0  0  0
    9.7103   -3.5564   24.3752 H   0  0  0  0  0  0  0  0  0  0  0  0
   11.0144   -2.5410   23.7759 H   0  0  0  0  0  0  0  0  0  0  0  0
    9.5661   -3.0553   22.2596 C   0  0  0  0  0  0  0  0  0  0  0  0
    9.1246   -4.0445   22.1320 H   0  0  0  0  0  0  0  0  0  0  0  0
   10.4045   -2.9312   21.5740 H   0  0  0  0  0  0  0  0  0  0  0  0
    5.4142    0.6542   20.1237 C   0  0  0  0  0  0  0  0  0  0  0  0
    4.9901    0.6681   21.1279 H   0  0  0  0  0  0  0  0  0  0  0  0
    4.7852    1.3127   19.0701 C   0  0  0  0  0  0  0  0  0  0  0  0
    3.8579    1.8546   19.2199 H   0  0  0  0  0  0  0  0  0  0  0  0
  1  2  1  0
  2  3  2  0
  3  4  1  0
  4  5  1  0
  4  6  2  0
  6  7  1  0
  7  8  2  0
  8  9  1  0
  9 10  1  0
 10 11  2  0
 11 12  1  0
 12 13  1  0
 12 14  1  0
 12 15  1  0
 15 16  1  0
 15 17  1  0
 17 18  2  0
 17 19  1  0
 19 20  2  0
 20 21  1  0
 20 22  1  0
 22 23  1  0
 22 24  2  0
 24 25  1  0
 24 26  1  0
 26 27  1  0
 26 28  2  0
 28 29  1  0
 10 30  1  0
 30 31  1  0
 30 32  1  0
 30 33  1  0
 33 34  1  0
 33 35  1  0
 33 36  1  0
 36 37  1  0
 36 38  1  0
  6 39  1  0
 39 40  1  0
 39 41  2  0
 41 42  1  0
 41  2  1  0
 11  7  1  0
 28 19  1  0
 36  9  1  0
M  END
>  <cnnaffinity>  (1) 
-5.56025

>  <filename>  (1) 
O=C(NCc1c(-c2cccnc2)nn2c1CCC2)c1ccccc1

$$$$
