
     RDKit          3D

 36 37  0  0  0  0  0  0  0  0999 V2000
    8.3908   -5.6388   20.7691 O   0  0  0  0  0  0  0  0  0  0  0  0
    7.7731   -5.2736   21.7555 C   0  0  0  0  0  0  0  0  0  0  0  0
    6.2892   -4.9820   21.5047 C   0  0  0  0  0  0  0  0  0  0  0  0
    6.1734   -4.0872   20.2779 C   0  0  0  0  0  0  0  0  0  0  0  0
    6.9811   -2.8972   20.4583 N   0  0  0  0  0  0  0  0  0  0  0  0
    6.5860   -1.9335   21.3219 C   0  0  0  0  0  0  0  0  0  0  0  0
    5.6476   -2.1246   22.0608 O   0  0  0  0  0  0  0  0  0  0  0  0
    7.2905   -0.5354   21.1452 C   0  0  0  0  0  0  0  0  0  0  0  0
    7.1812    0.1726   22.2949 F   0  0  0  0  0  0  0  0  0  0  0  0
    8.6350   -0.7312   20.9268 F   0  0  0  0  0  0  0  0  0  0  0  0
    6.6807    0.2328   19.9937 C   0  0  0  0  0  0  0  0  0  0  0  0
    5.3797    0.7381   20.1109 C   0  0  0  0  0  0  0  0  0  0  0  0
    4.8008    1.3142   18.9816 C   0  0  0  0  0  0  0  0  0  0  0  0
    5.5320    1.3459   17.7898 C   0  0  0  0  0  0  0  0  0  0  0  0
    6.7735    0.8560   17.6700 N   0  0  0  0  0  0  0  0  0  0  0  0
    7.3371    0.3303   18.7608 C   0  0  0  0  0  0  0  0  0  0  0  0
    8.3531   -0.0433   18.6551 H   0  0  0  0  0  0  0  0  0  0  0  0
    5.1069    1.7811   16.8882 H   0  0  0  0  0  0  0  0  0  0  0  0
    3.8074    1.7422   19.0063 H   0  0  0  0  0  0  0  0  0  0  0  0
    4.8414    0.6734   21.0587 H   0  0  0  0  0  0  0  0  0  0  0  0
    7.9501   -2.9421   20.1895 H   0  0  0  0  0  0  0  0  0  0  0  0
    5.1476   -3.7564   20.1384 H   0  0  0  0  0  0  0  0  0  0  0  0
    6.4932   -4.6017   19.3715 H   0  0  0  0  0  0  0  0  0  0  0  0
    5.7562   -4.5156   22.3337 H   0  0  0  0  0  0  0  0  0  0  0  0
    5.8254   -5.9535   21.3131 H   0  0  0  0  0  0  0  0  0  0  0  0
    8.4732   -5.2682   23.0751 C   0  0  0  0  0  0  0  0  0  0  0  0
    8.9067   -6.5431   23.6720 C   0  0  0  0  0  0  0  0  0  0  0  0
    9.5899   -6.4712   24.8326 C   0  0  0  0  0  0  0  0  0  0  0  0
    9.7419   -4.5844   25.0816 C   0  0  0  0  0  0  0  0  0  0  0  0
   10.0443   -4.3465   25.2069 C   0  0  0  0  0  0  0  0  0  0  0  0
    9.0301   -4.1650   23.8530 C   0  0  0  0  0  0  0  0  0  0  0  0
    7.9006   -2.8912   24.1706 Cl  0  0  0  0  0  0  0  0  0  0  0  0
   10.4404   -3.4224   25.7118 H   0  0  0  0  0  0  0  0  0  0  0  0
   11.0812   -4.7865   24.8413 H   0  0  0  0  0  0  0  0  0  0  0  0
    9.8990   -7.1814   25.5941 H   0  0  0  0  0  0  0  0  0  0  0  0
    8.7095   -7.4689   23.1262 H   0  0  0  0  0  0  0  0  0  0  0  0
  1  2  2  0
  2  3  1  0
  3  4  1  0
  4  5  1  0
  5  6  1  0
  6  7  2  0
  6  8  1  0
  8  9  1  0
  8 10  1  0
  8 11  1  0
 11 12  2  0
 12 13  1  0
 13 14  2  0
 14 15  1  0
 15 16  2  0
 16 17  1  0
 14 18  1  0
 13 19  1  0
 12 20  1  0
  5 21  1  0
  4 22  1  0
  4 23  1  0
  3 24  1  0
  3 25  1  0
  2 26  1  0
 26 27  2  0
 27 28  1  0
 28 29  2  0
 29 30  1  0
 30 31  2  0
 31 32  1  0
 30 33  1  0
 29 34  1  0
 28 35  1  0
 27 36  1  0
 16 11  1  0
 31 26  1  0
M  END
>  <cnnaffinity>  (1) 
-5.57835

>  <filename>  (1) 
O=C(CCNC(=O)C(F)(F)c1cccnc1)c1ccccc1Cl

$$$$
