
     RDKit          3D

 38 40  0  0  0  0  0  0  0  0999 V2000
    4.9576    1.7950   16.9511 H   0  0  0  0  0  0  0  0  0  0  0  0
    5.4443    1.2957   17.7859 C   0  0  0  0  0  0  0  0  0  0  0  0
    6.5979    0.6746   17.5000 N   0  0  0  0  0  0  0  0  0  0  0  0
    7.2304    0.0603   18.5064 C   0  0  0  0  0  0  0  0  0  0  0  0
    8.1500   -0.4481   18.2309 H   0  0  0  0  0  0  0  0  0  0  0  0
    6.7680    0.0298   19.8417 C   0  0  0  0  0  0  0  0  0  0  0  0
    7.5127   -0.6723   20.9169 C   0  0  0  0  0  0  0  0  0  0  0  0
    9.2215   -1.0020   20.8297 S   0  0  0  0  0  0  0  0  0  0  0  0
    9.2001   -1.8914   22.3038 C   0  0  0  0  0  0  0  0  0  0  0  0
   10.0849   -2.3559   22.7104 H   0  0  0  0  0  0  0  0  0  0  0  0
    7.9544   -1.9051   22.8514 C   0  0  0  0  0  0  0  0  0  0  0  0
    7.5956   -2.4818   24.0795 N   0  0  0  0  0  0  0  0  0  0  0  0
    6.8294   -2.0514   24.5628 H   0  0  0  0  0  0  0  0  0  0  0  0
    8.1729   -3.5552   24.7064 C   0  0  0  0  0  0  0  0  0  0  0  0
    9.0019   -4.2632   24.1688 O   0  0  0  0  0  0  0  0  0  0  0  0
    7.6813   -3.7580   26.1498 C   0  0  0  0  0  0  0  0  0  0  0  0
    7.1065   -2.8743   26.4504 H   0  0  0  0  0  0  0  0  0  0  0  0
    8.8651   -3.8443   27.1515 C   0  0  0  0  0  0  0  0  0  0  0  0
    8.4366   -3.5284   28.1072 H   0  0  0  0  0  0  0  0  0  0  0  0
    9.6757   -3.1565   26.8961 H   0  0  0  0  0  0  0  0  0  0  0  0
    9.3485   -5.2868   27.2968 C   0  0  0  0  0  0  0  0  0  0  0  0
    9.5513   -5.6767   26.2901 H   0  0  0  0  0  0  0  0  0  0  0  0
   10.2890   -5.3573   27.8524 H   0  0  0  0  0  0  0  0  0  0  0  0
    8.2447   -6.1154   27.9984 C   0  0  0  0  0  0  0  0  0  0  0  0
    8.3382   -7.1487   27.6676 H   0  0  0  0  0  0  0  0  0  0  0  0
    8.4004   -6.1280   29.0847 H   0  0  0  0  0  0  0  0  0  0  0  0
    6.8205   -5.5727   27.7143 C   0  0  0  0  0  0  0  0  0  0  0  0
    6.0725   -6.3564   27.8745 H   0  0  0  0  0  0  0  0  0  0  0  0
    6.5919   -4.7743   28.4391 H   0  0  0  0  0  0  0  0  0  0  0  0
    6.7136   -4.9799   26.2963 C   0  0  0  0  0  0  0  0  0  0  0  0
    5.6826   -4.6543   26.1023 H   0  0  0  0  0  0  0  0  0  0  0  0
    6.9518   -5.7551   25.5528 H   0  0  0  0  0  0  0  0  0  0  0  0
    6.9990   -1.2021   22.0646 C   0  0  0  0  0  0  0  0  0  0  0  0
    5.9591   -1.1247   22.3478 H   0  0  0  0  0  0  0  0  0  0  0  0
    5.5443    0.6686   20.1087 C   0  0  0  0  0  0  0  0  0  0  0  0
    5.1335    0.6724   21.1201 H   0  0  0  0  0  0  0  0  0  0  0  0
    4.8735    1.3094   19.0636 C   0  0  0  0  0  0  0  0  0  0  0  0
    3.9301    1.8179   19.2224 H   0  0  0  0  0  0  0  0  0  0  0  0
  1  2  1  0
  2  3  2  0
  3  4  1  0
  4  5  1  0
  4  6  2  0
  6  7  1  0
  7  8  1  0
  8  9  1  0
  9 10  1  0
  9 11  2  0
 11 12  1  0
 12 13  1  0
 12 14  1  0
 14 15  2  0
 14 16  1  0
 16 17  1  0
 16 18  1  0
 18 19  1  0
 18 20  1  0
 18 21  1  0
 21 22  1  0
 21 23  1  0
 21 24  1  0
 24 25  1  0
 24 26  1  0
 24 27  1  0
 27 28  1  0
 27 29  1  0
 27 30  1  0
 30 31  1  0
 30 32  1  0
 11 33  1  0
 33 34  1  0
  6 35  1  0
 35 36  1  0
 35 37  2  0
 37 38  1  0
 37  2  1  0
 33  7  2  0
 30 16  1  0
M  END
>  <cnnaffinity>  (1) 
-5.36723

>  <filename>  (1) 
O=C(Nc1csc(-c2cccnc2)c1)C1CCCCC1

$$$$
