
     RDKit          3D

 32 35  0  0  0  0  0  0  0  0999 V2000
    4.9379    1.8285   16.9801 H   0  0  0  0  0  0  0  0  0  0  0  0
    5.4098    1.3166   17.8147 C   0  0  0  0  0  0  0  0  0  0  0  0
    6.5715    0.7018   17.5479 N   0  0  0  0  0  0  0  0  0  0  0  0
    7.1800    0.0822   18.5705 C   0  0  0  0  0  0  0  0  0  0  0  0
    8.1171   -0.4209   18.3312 H   0  0  0  0  0  0  0  0  0  0  0  0
    6.6834    0.0355   19.8864 C   0  0  0  0  0  0  0  0  0  0  0  0
    7.3728   -0.7512   20.9767 C   0  0  0  0  0  0  0  0  0  0  0  0
    6.9038   -2.2131   21.0625 C   0  0  0  0  0  0  0  0  0  0  0  0
    6.0362   -2.6232   20.3215 O   0  0  0  0  0  0  0  0  0  0  0  0
    7.5389   -3.1597   22.0582 C   0  0  0  0  0  0  0  0  0  0  0  0
    7.2729   -4.4177   22.1625 N   0  0  0  0  0  0  0  0  0  0  0  0
    8.0554   -4.8431   23.2187 C   0  0  0  0  0  0  0  0  0  0  0  0
    8.1428   -6.0924   23.8316 C   0  0  0  0  0  0  0  0  0  0  0  0
    7.5944   -6.9036   23.3730 H   0  0  0  0  0  0  0  0  0  0  0  0
    8.9520   -6.2149   24.9619 C   0  0  0  0  0  0  0  0  0  0  0  0
    8.9383   -7.1401   25.5235 H   0  0  0  0  0  0  0  0  0  0  0  0
    9.7462   -5.1402   25.4125 C   0  0  0  0  0  0  0  0  0  0  0  0
   10.4239   -5.2858   26.2572 H   0  0  0  0  0  0  0  0  0  0  0  0
    9.6910   -3.8927   24.7795 C   0  0  0  0  0  0  0  0  0  0  0  0
   10.3204   -3.0816   25.1221 H   0  0  0  0  0  0  0  0  0  0  0  0
    8.8090   -3.7745   23.7083 C   0  0  0  0  0  0  0  0  0  0  0  0
    8.4812   -2.6880   22.9569 O   0  0  0  0  0  0  0  0  0  0  0  0
    8.8063   -0.3438   21.2748 C   0  0  0  0  0  0  0  0  0  0  0  0
    9.1959    0.4547   20.6443 H   0  0  0  0  0  0  0  0  0  0  0  0
    9.5360   -1.0930   21.5629 H   0  0  0  0  0  0  0  0  0  0  0  0
    7.7287    0.0289   22.2349 C   0  0  0  0  0  0  0  0  0  0  0  0
    7.4048    1.0703   22.2414 H   0  0  0  0  0  0  0  0  0  0  0  0
    7.6943   -0.4610   23.2031 H   0  0  0  0  0  0  0  0  0  0  0  0
    5.4533    0.6651   20.1248 C   0  0  0  0  0  0  0  0  0  0  0  0
    5.0247    0.6307   21.1275 H   0  0  0  0  0  0  0  0  0  0  0  0
    4.8049    1.3195   19.0753 C   0  0  0  0  0  0  0  0  0  0  0  0
    3.8584    1.8291   19.2174 H   0  0  0  0  0  0  0  0  0  0  0  0
  1  2  1  0
  2  3  2  0
  3  4  1  0
  4  5  1  0
  4  6  2  0
  6  7  1  0
  7  8  1  0
  8  9  2  0
  8 10  1  0
 10 11  2  0
 11 12  1  0
 12 13  2  0
 13 14  1  0
 13 15  1  0
 15 16  1  0
 15 17  2  0
 17 18  1  0
 17 19  1  0
 19 20  1  0
 19 21  2  0
 21 22  1  0
  7 23  1  0
 23 24  1  0
 23 25  1  0
 23 26  1  0
 26 27  1  0
 26 28  1  0
  6 29  1  0
 29 30  1  0
 29 31  2  0
 31 32  1  0
 31  2  1  0
 26  7  1  0
 22 10  1  0
 21 12  1  0
M  END
>  <cnnaffinity>  (1) 
-5.23254

>  <filename>  (1) 
O=C(c1nc2ccccc2o1)C1(c2cccnc2)CC1

$$$$
