
     RDKit          3D

 23 24  0  0  0  0  0  0  0  0999 V2000
    4.9134    1.7885   16.9910 H   0  0  0  0  0  0  0  0  0  0  0  0
    5.3950    1.2970   17.8332 C   0  0  0  0  0  0  0  0  0  0  0  0
    6.5558    0.6788   17.5674 N   0  0  0  0  0  0  0  0  0  0  0  0
    7.1564    0.0409   18.5783 C   0  0  0  0  0  0  0  0  0  0  0  0
    8.1187   -0.4234   18.3698 H   0  0  0  0  0  0  0  0  0  0  0  0
    6.6292   -0.0285   19.8835 C   0  0  0  0  0  0  0  0  0  0  0  0
    7.5474   -0.8201   21.2113 S   0  0  0  0  0  0  0  0  0  0  0  0
    8.5686    0.6306   21.6739 C   0  0  0  0  0  0  0  0  0  0  0  0
    9.5929    0.8492   21.0835 O   0  0  0  0  0  0  0  0  0  0  0  0
    7.9946    1.5500   22.7018 C   0  0  0  0  0  0  0  0  0  0  0  0
    8.6471    2.7802   22.8940 C   0  0  0  0  0  0  0  0  0  0  0  0
    9.5167    3.0418   22.3055 H   0  0  0  0  0  0  0  0  0  0  0  0
    8.2559    3.6751   23.8091 N   0  0  0  0  0  0  0  0  0  0  0  0
    7.1828    3.3871   24.5558 C   0  0  0  0  0  0  0  0  0  0  0  0
    6.8733    4.1177   25.2946 H   0  0  0  0  0  0  0  0  0  0  0  0
    6.4664    2.1946   24.4121 C   0  0  0  0  0  0  0  0  0  0  0  0
    5.4023    1.9557   25.1896 F   0  0  0  0  0  0  0  0  0  0  0  0
    6.8576    1.2516   23.4741 C   0  0  0  0  0  0  0  0  0  0  0  0
    6.2942    0.3226   23.3848 H   0  0  0  0  0  0  0  0  0  0  0  0
    5.4289    0.6385   20.1496 C   0  0  0  0  0  0  0  0  0  0  0  0
    5.0064    0.6302   21.1594 H   0  0  0  0  0  0  0  0  0  0  0  0
    4.8016    1.3144   19.1001 C   0  0  0  0  0  0  0  0  0  0  0  0
    3.8711    1.8489   19.2569 H   0  0  0  0  0  0  0  0  0  0  0  0
  1  2  1  0
  2  3  2  0
  3  4  1  0
  4  5  1  0
  4  6  2  0
  6  7  1  0
  7  8  1  0
  8  9  2  0
  8 10  1  0
 10 11  2  0
 11 12  1  0
 11 13  1  0
 13 14  2  0
 14 15  1  0
 14 16  1  0
 16 17  1  0
 16 18  2  0
 18 19  1  0
  6 20  1  0
 20 21  1  0
 20 22  2  0
 22 23  1  0
 22  2  1  0
 18 10  1  0
M  END
>  <cnnaffinity>  (1) 
-4.53442

>  <filename>  (1) 
O=C(Sc1cccnc1)c1cncc(F)c1

$$$$
