
     RDKit          3D

 31 32  0  0  0  0  0  0  0  0999 V2000
    4.9192    1.7855   16.9906 H   0  0  0  0  0  0  0  0  0  0  0  0
    5.4011    1.2927   17.8322 C   0  0  0  0  0  0  0  0  0  0  0  0
    6.5626    0.6788   17.5679 N   0  0  0  0  0  0  0  0  0  0  0  0
    7.1678    0.0683   18.5964 C   0  0  0  0  0  0  0  0  0  0  0  0
    8.1236   -0.4061   18.3791 H   0  0  0  0  0  0  0  0  0  0  0  0
    6.6545    0.0083   19.8980 C   0  0  0  0  0  0  0  0  0  0  0  0
    7.4120   -0.6727   21.0115 C   0  0  0  0  0  0  0  0  0  0  0  0
    6.7352   -1.3245   21.5737 H   0  0  0  0  0  0  0  0  0  0  0  0
    8.2055   -1.3101   20.6032 H   0  0  0  0  0  0  0  0  0  0  0  0
    7.9892    0.2806   21.9481 N   0  0  0  0  0  0  0  0  0  0  0  0
    7.5587    0.4323   22.8410 H   0  0  0  0  0  0  0  0  0  0  0  0
    9.0429    1.0678   21.6009 C   0  0  0  0  0  0  0  0  0  0  0  0
    9.5771    0.9551   20.5122 O   0  0  0  0  0  0  0  0  0  0  0  0
    9.5642    2.0509   22.6490 C   0  0  0  0  0  0  0  0  0  0  0  0
    8.8254    2.2524   23.4340 H   0  0  0  0  0  0  0  0  0  0  0  0
    9.7434    2.9872   22.1154 H   0  0  0  0  0  0  0  0  0  0  0  0
   10.8795    1.5653   23.2361 C   0  0  0  0  0  0  0  0  0  0  0  0
   12.1037    1.9149   22.6421 C   0  0  0  0  0  0  0  0  0  0  0  0
   12.0892    2.5648   21.7718 H   0  0  0  0  0  0  0  0  0  0  0  0
   13.3242    1.4402   23.1345 C   0  0  0  0  0  0  0  0  0  0  0  0
   14.2618    1.7304   22.6653 H   0  0  0  0  0  0  0  0  0  0  0  0
   13.3341    0.5868   24.2403 C   0  0  0  0  0  0  0  0  0  0  0  0
   14.2735    0.2103   24.6351 H   0  0  0  0  0  0  0  0  0  0  0  0
   12.1318    0.2071   24.8389 C   0  0  0  0  0  0  0  0  0  0  0  0
   12.0986   -0.4769   25.6766 H   0  0  0  0  0  0  0  0  0  0  0  0
   10.9258    0.6946   24.3324 C   0  0  0  0  0  0  0  0  0  0  0  0
    9.4493    0.1690   25.0968 Cl  0  0  0  0  0  0  0  0  0  0  0  0
    5.4367    0.6491   20.1513 C   0  0  0  0  0  0  0  0  0  0  0  0
    5.0081    0.6381   21.1584 H   0  0  0  0  0  0  0  0  0  0  0  0
    4.8035    1.3089   19.0984 C   0  0  0  0  0  0  0  0  0  0  0  0
    3.8736    1.8429   19.2534 H   0  0  0  0  0  0  0  0  0  0  0  0
  1  2  1  0
  2  3  2  0
  3  4  1  0
  4  5  1  0
  4  6  2  0
  6  7  1  0
  7  8  1  0
  7  9  1  0
  7 10  1  0
 10 11  1  0
 10 12  1  0
 12 13  2  0
 12 14  1  0
 14 15  1  0
 14 16  1  0
 14 17  1  0
 17 18  2  0
 18 19  1  0
 18 20  1  0
 20 21  1  0
 20 22  2  0
 22 23  1  0
 22 24  1  0
 24 25  1  0
 24 26  2  0
 26 27  1  0
  6 28  1  0
 28 29  1  0
 28 30  2  0
 30 31  1  0
 30  2  1  0
 26 17  1  0
M  END
>  <cnnaffinity>  (1) 
-4.72299

>  <filename>  (1) 
O=C(Cc1ccccc1Cl)NCc1cccnc1

$$$$
