
     RDKit          3D

 40 42  0  0  0  0  0  0  0  0999 V2000
    5.2542    1.7262   16.7800 H   0  0  0  0  0  0  0  0  0  0  0  0
    5.7160    1.1902   17.6072 C   0  0  0  0  0  0  0  0  0  0  0  0
    6.7611    0.4158   17.2956 N   0  0  0  0  0  0  0  0  0  0  0  0
    7.3570   -0.2688   18.2821 C   0  0  0  0  0  0  0  0  0  0  0  0
    8.1866   -0.9080   17.9752 H   0  0  0  0  0  0  0  0  0  0  0  0
    6.9395   -0.2127   19.6219 C   0  0  0  0  0  0  0  0  0  0  0  0
    7.6301   -0.9830   20.6935 C   0  0  0  0  0  0  0  0  0  0  0  0
    6.5583   -1.9515   21.6841 S   0  0  0  0  0  0  0  0  0  0  0  0
    7.5627   -2.4098   23.0481 C   0  0  0  0  0  0  0  0  0  0  0  0
    6.7093   -3.2169   24.0514 C   0  0  0  0  0  0  0  0  0  0  0  0
    5.5021   -3.3138   23.9032 O   0  0  0  0  0  0  0  0  0  0  0  0
    7.3673   -3.8574   25.0573 N   0  0  0  0  0  0  0  0  0  0  0  0
    8.2902   -3.5309   25.2878 H   0  0  0  0  0  0  0  0  0  0  0  0
    6.6624   -4.6602   26.0622 C   0  0  0  0  0  0  0  0  0  0  0  0
    5.9393   -5.2935   25.5275 H   0  0  0  0  0  0  0  0  0  0  0  0
    5.8947   -3.7693   27.0695 C   0  0  0  0  0  0  0  0  0  0  0  0
    6.5853   -2.9849   27.4089 H   0  0  0  0  0  0  0  0  0  0  0  0
    5.0878   -3.2629   26.5259 H   0  0  0  0  0  0  0  0  0  0  0  0
    5.3461   -4.5288   28.2965 C   0  0  0  0  0  0  0  0  0  0  0  0
    4.4633   -5.1135   28.0057 H   0  0  0  0  0  0  0  0  0  0  0  0
    4.9910   -3.8097   29.0486 H   0  0  0  0  0  0  0  0  0  0  0  0
    6.3951   -5.4516   28.9395 C   0  0  0  0  0  0  0  0  0  0  0  0
    7.1676   -4.8282   29.4059 H   0  0  0  0  0  0  0  0  0  0  0  0
    5.9417   -6.0341   29.7532 H   0  0  0  0  0  0  0  0  0  0  0  0
    7.0648   -6.3762   27.9120 C   0  0  0  0  0  0  0  0  0  0  0  0
    6.3155   -7.0772   27.5190 H   0  0  0  0  0  0  0  0  0  0  0  0
    7.8358   -6.9926   28.3905 H   0  0  0  0  0  0  0  0  0  0  0  0
    7.6825   -5.5708   26.7577 C   0  0  0  0  0  0  0  0  0  0  0  0
    8.1388   -6.2309   26.0097 H   0  0  0  0  0  0  0  0  0  0  0  0
    8.4978   -4.9472   27.1551 H   0  0  0  0  0  0  0  0  0  0  0  0
    8.8783   -2.0941   23.1171 C   0  0  0  0  0  0  0  0  0  0  0  0
    9.5168   -2.3433   23.9663 H   0  0  0  0  0  0  0  0  0  0  0  0
    9.6580   -1.3785   22.0780 C   0  0  0  0  0  0  0  0  0  0  0  0
   10.8552   -1.1806   22.2368 O   0  0  0  0  0  0  0  0  0  0  0  0
    8.9591   -0.9078   20.8781 C   0  0  0  0  0  0  0  0  0  0  0  0
    9.5978   -0.4042   20.1586 H   0  0  0  0  0  0  0  0  0  0  0  0
    5.8434    0.6119   19.9304 C   0  0  0  0  0  0  0  0  0  0  0  0
    5.5088    0.6805   20.9667 H   0  0  0  0  0  0  0  0  0  0  0  0
    5.2217    1.3230   18.9077 C   0  0  0  0  0  0  0  0  0  0  0  0
    4.3678    1.9599   19.1016 H   0  0  0  0  0  0  0  0  0  0  0  0
  1  2  1  0
  2  3  2  0
  3  4  1  0
  4  5  1  0
  4  6  2  0
  6  7  1  0
  7  8  1  0
  8  9  1  0
  9 10  1  0
 10 11  2  0
 10 12  1  0
 12 13  1  0
 12 14  1  0
 14 15  1  0
 14 16  1  0
 16 17  1  0
 16 18  1  0
 16 19  1  0
 19 20  1  0
 19 21  1  0
 19 22  1  0
 22 23  1  0
 22 24  1  0
 22 25  1  0
 25 26  1  0
 25 27  1  0
 25 28  1  0
 28 29  1  0
 28 30  1  0
  9 31  2  0
 31 32  1  0
 31 33  1  0
 33 34  2  0
 33 35  1  0
 35 36  1  0
  6 37  1  0
 37 38  1  0
 37 39  2  0
 39 40  1  0
 39  2  1  0
 35  7  2  0
 28 14  1  0
M  END
>  <cnnaffinity>  (1) 
-5.07052

>  <filename>  (1) 
O=C(NC1CCCCC1)c1cc(=O)cc(-c2cccnc2)s1

$$$$
