
     RDKit          3D

 33 35  0  0  0  0  0  0  0  0999 V2000
    4.9555    1.8570   16.7586 H   0  0  0  0  0  0  0  0  0  0  0  0
    5.3818    1.3618   17.6293 C   0  0  0  0  0  0  0  0  0  0  0  0
    6.5182    0.6753   17.4211 N   0  0  0  0  0  0  0  0  0  0  0  0
    7.0961    0.0815   18.4731 C   0  0  0  0  0  0  0  0  0  0  0  0
    8.0251   -0.4591   18.2923 H   0  0  0  0  0  0  0  0  0  0  0  0
    6.5630    0.1354   19.7763 C   0  0  0  0  0  0  0  0  0  0  0  0
    7.2270   -0.4704   20.8892 N   0  0  0  0  0  0  0  0  0  0  0  0
    6.6640   -1.4477   21.6960 C   0  0  0  0  0  0  0  0  0  0  0  0
    5.6795   -1.8268   21.4566 H   0  0  0  0  0  0  0  0  0  0  0  0
    7.5662   -1.7722   22.6593 C   0  0  0  0  0  0  0  0  0  0  0  0
    7.5693   -2.8094   23.7503 C   0  0  0  0  0  0  0  0  0  0  0  0
    8.6053   -3.1042   24.3171 O   0  0  0  0  0  0  0  0  0  0  0  0
    6.3479   -3.3633   24.0349 N   0  0  0  0  0  0  0  0  0  0  0  0
    5.5680   -2.8373   23.6797 H   0  0  0  0  0  0  0  0  0  0  0  0
    6.0802   -4.3636   25.0016 C   0  0  0  0  0  0  0  0  0  0  0  0
    4.7742   -4.5375   25.4861 C   0  0  0  0  0  0  0  0  0  0  0  0
    3.9423   -3.9578   25.0836 H   0  0  0  0  0  0  0  0  0  0  0  0
    4.5316   -5.4847   26.4907 C   0  0  0  0  0  0  0  0  0  0  0  0
    3.5353   -5.5624   26.9209 H   0  0  0  0  0  0  0  0  0  0  0  0
    5.5588   -6.3171   26.9485 C   0  0  0  0  0  0  0  0  0  0  0  0
    5.3433   -7.0796   27.6913 H   0  0  0  0  0  0  0  0  0  0  0  0
    6.8529   -6.1551   26.4488 C   0  0  0  0  0  0  0  0  0  0  0  0
    7.6691   -6.7703   26.8211 H   0  0  0  0  0  0  0  0  0  0  0  0
    7.1154   -5.1941   25.4684 C   0  0  0  0  0  0  0  0  0  0  0  0
    8.1114   -5.0588   25.0755 H   0  0  0  0  0  0  0  0  0  0  0  0
    8.6733   -0.9515   22.4089 N   0  0  0  0  0  0  0  0  0  0  0  0
    9.5782   -0.9241   22.8588 H   0  0  0  0  0  0  0  0  0  0  0  0
    8.4907   -0.1418   21.3453 C   0  0  0  0  0  0  0  0  0  0  0  0
    9.5952    0.9511   20.7616 S   0  0  0  0  0  0  0  0  0  0  0  0
    5.3621    0.8217   19.9759 C   0  0  0  0  0  0  0  0  0  0  0  0
    4.9297    0.8725   20.9759 H   0  0  0  0  0  0  0  0  0  0  0  0
    4.7647    1.4554   18.8820 C   0  0  0  0  0  0  0  0  0  0  0  0
    3.8510    2.0319   18.9910 H   0  0  0  0  0  0  0  0  0  0  0  0
  1  2  1  0
  2  3  2  0
  3  4  1  0
  4  5  1  0
  4  6  2  0
  6  7  1  0
  7  8  1  0
  8  9  1  0
  8 10  2  0
 10 11  1  0
 11 12  2  0
 11 13  1  0
 13 14  1  0
 13 15  1  0
 15 16  2  0
 16 17  1  0
 16 18  1  0
 18 19  1  0
 18 20  2  0
 20 21  1  0
 20 22  1  0
 22 23  1  0
 22 24  2  0
 24 25  1  0
 10 26  1  0
 26 27  1  0
 26 28  1  0
 28 29  2  0
  6 30  1  0
 30 31  1  0
 30 32  2  0
 32 33  1  0
 32  2  1  0
 28  7  1  0
 24 15  1  0
M  END
>  <cnnaffinity>  (1) 
-5.11875

>  <filename>  (1) 
O=C(Nc1ccccc1)c1cn(-c2cccnc2)c(=S)[nH]1

$$$$
