
     RDKit          3D

 37 39  0  0  0  0  0  0  0  0999 V2000
   11.6037    4.3278   21.8989 H   0  0  0  0  0  0  0  0  0  0  0  0
   10.9757    3.8742   22.4848 O   0  0  0  0  0  0  0  0  0  0  0  0
   10.8713    2.7091   21.8189 C   0  0  0  0  0  0  0  0  0  0  0  0
   11.5902    2.4963   20.8717 O   0  0  0  0  0  0  0  0  0  0  0  0
    9.8220    1.8024   22.3961 C   0  0  0  0  0  0  0  0  0  0  0  0
    9.9962    0.8052   21.9836 H   0  0  0  0  0  0  0  0  0  0  0  0
   10.0007    1.7506   23.4770 H   0  0  0  0  0  0  0  0  0  0  0  0
    8.3622    2.2417   22.1343 C   0  0  0  0  0  0  0  0  0  0  0  0
    8.1477    2.2011   21.0566 H   0  0  0  0  0  0  0  0  0  0  0  0
    8.2173    3.2799   22.4531 H   0  0  0  0  0  0  0  0  0  0  0  0
    7.3454    1.3280   22.8434 C   0  0  0  0  0  0  0  0  0  0  0  0
    6.3344    1.6849   22.6228 H   0  0  0  0  0  0  0  0  0  0  0  0
    7.4571    1.3888   23.9362 H   0  0  0  0  0  0  0  0  0  0  0  0
    7.5166   -0.0933   22.3740 C   0  0  0  0  0  0  0  0  0  0  0  0
    7.2994   -0.5763   21.0393 C   0  0  0  0  0  0  0  0  0  0  0  0
    6.5822    0.0704   19.9348 C   0  0  0  0  0  0  0  0  0  0  0  0
    7.1211    0.0247   18.6340 C   0  0  0  0  0  0  0  0  0  0  0  0
    8.0329   -0.5392   18.4363 H   0  0  0  0  0  0  0  0  0  0  0  0
    6.5772    0.6397   17.5799 N   0  0  0  0  0  0  0  0  0  0  0  0
    5.4293    1.3082   17.7782 C   0  0  0  0  0  0  0  0  0  0  0  0
    5.0070    1.8015   16.9044 H   0  0  0  0  0  0  0  0  0  0  0  0
    4.7763    1.3648   19.0142 C   0  0  0  0  0  0  0  0  0  0  0  0
    3.8353    1.8968   19.1030 H   0  0  0  0  0  0  0  0  0  0  0  0
    5.3635    0.7398   20.1131 C   0  0  0  0  0  0  0  0  0  0  0  0
    4.8791    0.7503   21.0903 H   0  0  0  0  0  0  0  0  0  0  0  0
    7.9172   -1.7376   20.8230 N   0  0  0  0  0  0  0  0  0  0  0  0
    8.4850   -2.0085   21.9964 N   0  0  0  0  0  0  0  0  0  0  0  0
    8.3299   -1.0663   22.9335 C   0  0  0  0  0  0  0  0  0  0  0  0
    9.3159   -1.3086   24.0438 C   0  0  0  0  0  0  0  0  0  0  0  0
    8.8266   -1.3829   25.0157 H   0  0  0  0  0  0  0  0  0  0  0  0
   10.0229   -0.4751   24.1103 H   0  0  0  0  0  0  0  0  0  0  0  0
   10.0332   -2.6291   23.6317 C   0  0  0  0  0  0  0  0  0  0  0  0
   11.1108   -2.5057   23.5655 H   0  0  0  0  0  0  0  0  0  0  0  0
    9.8391   -3.4287   24.3465 H   0  0  0  0  0  0  0  0  0  0  0  0
    9.4909   -3.0054   22.2360 C   0  0  0  0  0  0  0  0  0  0  0  0
    9.0470   -4.0016   22.1960 H   0  0  0  0  0  0  0  0  0  0  0  0
   10.2468   -2.9074   21.4546 H   0  0  0  0  0  0  0  0  0  0  0  0
  1  2  1  0
  2  3  1  0
  3  4  2  0
  3  5  1  0
  5  6  1  0
  5  7  1  0
  5  8  1  0
  8  9  1  0
  8 10  1  0
  8 11  1  0
 11 12  1  0
 11 13  1  0
 11 14  1  0
 14 15  1  0
 15 16  1  0
 16 17  2  0
 17 18  1  0
 17 19  1  0
 19 20  2  0
 20 21  1  0
 20 22  1  0
 22 23  1  0
 22 24  2  0
 24 25  1  0
 15 26  2  0
 26 27  1  0
 27 28  1  0
 28 29  1  0
 29 30  1  0
 29 31  1  0
 29 32  1  0
 32 33  1  0
 32 34  1  0
 32 35  1  0
 35 36  1  0
 35 37  1  0
 28 14  2  0
 24 16  1  0
 35 27  1  0
M  END
>  <cnnaffinity>  (1) 
-5.22986

>  <filename>  (1) 
O=C(O)CCCc1c(-c2cccnc2)nn2c1CCC2

$$$$
