
     RDKit          3D

 30 32  0  0  0  0  0  0  0  0999 V2000
   10.4821   -1.5539   23.4147 H   0  0  0  0  0  0  0  0  0  0  0  0
   10.5444   -1.0309   24.2482 O   0  0  0  0  0  0  0  0  0  0  0  0
    9.3728   -1.1731   24.9037 C   0  0  0  0  0  0  0  0  0  0  0  0
    9.3842   -1.0910   26.3063 C   0  0  0  0  0  0  0  0  0  0  0  0
   10.2925   -0.7522   26.8016 H   0  0  0  0  0  0  0  0  0  0  0  0
    8.2522   -1.4595   27.0294 C   0  0  0  0  0  0  0  0  0  0  0  0
    8.3287   -1.4986   28.1036 H   0  0  0  0  0  0  0  0  0  0  0  0
    7.0707   -1.8336   26.3854 C   0  0  0  0  0  0  0  0  0  0  0  0
    6.2043   -2.1584   26.9564 H   0  0  0  0  0  0  0  0  0  0  0  0
    7.0128   -1.7966   24.9905 C   0  0  0  0  0  0  0  0  0  0  0  0
    6.0993   -2.0684   24.4701 H   0  0  0  0  0  0  0  0  0  0  0  0
    8.1293   -1.3931   24.2438 C   0  0  0  0  0  0  0  0  0  0  0  0
    7.9883   -1.2040   22.8273 N   0  0  0  0  0  0  0  0  0  0  0  0
    7.0518   -0.4121   22.1666 C   0  0  0  0  0  0  0  0  0  0  0  0
    6.4438    0.2673   22.7435 H   0  0  0  0  0  0  0  0  0  0  0  0
    7.1771   -0.6252   20.8325 C   0  0  0  0  0  0  0  0  0  0  0  0
    6.5312    0.0303   19.6896 C   0  0  0  0  0  0  0  0  0  0  0  0
    7.1193    0.0799   18.4062 C   0  0  0  0  0  0  0  0  0  0  0  0
    8.0831   -0.3904   18.2032 H   0  0  0  0  0  0  0  0  0  0  0  0
    6.5835    0.7158   17.3567 N   0  0  0  0  0  0  0  0  0  0  0  0
    5.4229    1.3653   17.5485 C   0  0  0  0  0  0  0  0  0  0  0  0
    5.0177    1.8944   16.6858 H   0  0  0  0  0  0  0  0  0  0  0  0
    4.7543    1.3898   18.7751 C   0  0  0  0  0  0  0  0  0  0  0  0
    3.8409    1.9667   18.8707 H   0  0  0  0  0  0  0  0  0  0  0  0
    5.3080    0.7094   19.8597 C   0  0  0  0  0  0  0  0  0  0  0  0
    4.8060    0.7074   20.8286 H   0  0  0  0  0  0  0  0  0  0  0  0
    8.2011   -1.5578   20.6904 N   0  0  0  0  0  0  0  0  0  0  0  0
    8.5141   -2.0752   19.8905 H   0  0  0  0  0  0  0  0  0  0  0  0
    8.7559   -1.8649   21.8938 C   0  0  0  0  0  0  0  0  0  0  0  0
    9.7686   -2.5331   22.0889 O   0  0  0  0  0  0  0  0  0  0  0  0
  1  2  1  0
  2  3  1  0
  3  4  2  0
  4  5  1  0
  4  6  1  0
  6  7  1  0
  6  8  2  0
  8  9  1  0
  8 10  1  0
 10 11  1  0
 10 12  2  0
 12 13  1  0
 13 14  1  0
 14 15  1  0
 14 16  2  0
 16 17  1  0
 17 18  2  0
 18 19  1  0
 18 20  1  0
 20 21  2  0
 21 22  1  0
 21 23  1  0
 23 24  1  0
 23 25  2  0
 25 26  1  0
 16 27  1  0
 27 28  1  0
 27 29  1  0
 29 30  2  0
 12  3  1  0
 29 13  1  0
 25 17  1  0
M  END
>  <cnnaffinity>  (1) 
-5.13415

>  <filename>  (1) 
O=c1[nH]c(-c2cccnc2)cn1-c1ccccc1O

$$$$
