
     RDKit          3D

 32 34  0  0  0  0  0  0  0  0999 V2000
    5.0196    1.8450   17.0888 H   0  0  0  0  0  0  0  0  0  0  0  0
    5.4518    1.2767   17.9080 C   0  0  0  0  0  0  0  0  0  0  0  0
    6.5824    0.6056   17.6271 N   0  0  0  0  0  0  0  0  0  0  0  0
    7.1502   -0.0818   18.6221 C   0  0  0  0  0  0  0  0  0  0  0  0
    8.0615   -0.6371   18.4030 H   0  0  0  0  0  0  0  0  0  0  0  0
    6.6343   -0.1412   19.9258 C   0  0  0  0  0  0  0  0  0  0  0  0
    7.3404   -0.8436   20.9480 N   0  0  0  0  0  0  0  0  0  0  0  0
    6.5929   -1.6191   21.7689 N   0  0  0  0  0  0  0  0  0  0  0  0
    7.1855   -2.2713   22.7507 C   0  0  0  0  0  0  0  0  0  0  0  0
    6.2917   -3.1038   23.6030 C   0  0  0  0  0  0  0  0  0  0  0  0
    6.7865   -3.5970   24.7503 N   0  0  0  0  0  0  0  0  0  0  0  0
    5.9869   -4.2549   25.5608 C   0  0  0  0  0  0  0  0  0  0  0  0
    6.4179   -4.6141   26.4877 H   0  0  0  0  0  0  0  0  0  0  0  0
    4.6357   -4.4844   25.2882 C   0  0  0  0  0  0  0  0  0  0  0  0
    3.8733   -5.1386   26.3850 C   0  0  0  0  0  0  0  0  0  0  0  0
    4.5759   -6.1636   26.9138 F   0  0  0  0  0  0  0  0  0  0  0  0
    2.6841   -5.6149   25.9818 F   0  0  0  0  0  0  0  0  0  0  0  0
    3.6531   -4.2718   27.3946 F   0  0  0  0  0  0  0  0  0  0  0  0
    4.1060   -4.0316   24.0758 C   0  0  0  0  0  0  0  0  0  0  0  0
    3.0578   -4.1733   23.8143 H   0  0  0  0  0  0  0  0  0  0  0  0
    4.9501   -3.3351   23.2228 C   0  0  0  0  0  0  0  0  0  0  0  0
    4.5914   -2.8938   22.3047 H   0  0  0  0  0  0  0  0  0  0  0  0
    8.6479   -2.1868   23.0483 C   0  0  0  0  0  0  0  0  0  0  0  0
    9.2533   -2.7664   23.9392 O   0  0  0  0  0  0  0  0  0  0  0  0
    9.3555   -1.2888   22.1314 C   0  0  0  0  0  0  0  0  0  0  0  0
   10.4179   -1.1720   22.2849 H   0  0  0  0  0  0  0  0  0  0  0  0
    8.6971   -0.6699   21.1379 C   0  0  0  0  0  0  0  0  0  0  0  0
    9.1791    0.0225   20.4458 H   0  0  0  0  0  0  0  0  0  0  0  0
    5.4245    0.5108   20.1999 C   0  0  0  0  0  0  0  0  0  0  0  0
    4.9968    0.4249   21.1984 H   0  0  0  0  0  0  0  0  0  0  0  0
    4.8374    1.2513   19.1678 C   0  0  0  0  0  0  0  0  0  0  0  0
    3.9218    1.8124   19.3273 H   0  0  0  0  0  0  0  0  0  0  0  0
  1  2  1  0
  2  3  2  0
  3  4  1  0
  4  5  1  0
  4  6  2  0
  6  7  1  0
  7  8  1  0
  8  9  2  0
  9 10  1  0
 10 11  2  0
 11 12  1  0
 12 13  1  0
 12 14  2  0
 14 15  1  0
 15 16  1  0
 15 17  1  0
 15 18  1  0
 14 19  1  0
 19 20  1  0
 19 21  2  0
 21 22  1  0
  9 23  1  0
 23 24  2  0
 23 25  1  0
 25 26  1  0
 25 27  2  0
 27 28  1  0
  6 29  1  0
 29 30  1  0
 29 31  2  0
 31 32  1  0
 31  2  1  0
 27  7  1  0
 21 10  1  0
M  END
>  <cnnaffinity>  (1) 
-5.43966

>  <filename>  (1) 
O=c1ccn(-c2cccnc2)nc1-c1ccc(C(F)(F)F)cn1

$$$$
