
     RDKit          3D

 40 43  0  0  0  0  0  0  0  0999 V2000
    5.1140    1.5612   16.8725 H   0  0  0  0  0  0  0  0  0  0  0  0
    5.4919    1.0374   17.7481 C   0  0  0  0  0  0  0  0  0  0  0  0
    6.5683    0.2620   17.5509 N   0  0  0  0  0  0  0  0  0  0  0  0
    7.0792   -0.3574   18.6229 C   0  0  0  0  0  0  0  0  0  0  0  0
    7.9631   -0.9668   18.4271 H   0  0  0  0  0  0  0  0  0  0  0  0
    6.5987   -0.2075   19.9311 C   0  0  0  0  0  0  0  0  0  0  0  0
    7.4247   -0.7707   21.0596 C   0  0  0  0  0  0  0  0  0  0  0  0
    7.1105   -2.1678   21.2001 N   0  0  0  0  0  0  0  0  0  0  0  0
    6.8075   -2.6504   20.3661 H   0  0  0  0  0  0  0  0  0  0  0  0
    7.8172   -3.0182   22.1070 C   0  0  0  0  0  0  0  0  0  0  0  0
    8.0938   -2.4817   23.0193 H   0  0  0  0  0  0  0  0  0  0  0  0
    8.7191   -3.4956   21.6863 H   0  0  0  0  0  0  0  0  0  0  0  0
    6.8691   -4.0182   22.5102 N   0  0  0  0  0  0  0  0  0  0  0  0
    6.3560   -4.8877   21.5607 C   0  0  0  0  0  0  0  0  0  0  0  0
    6.8810   -5.1183   20.4935 O   0  0  0  0  0  0  0  0  0  0  0  0
    5.0754   -5.4022   22.1307 C   0  0  0  0  0  0  0  0  0  0  0  0
    4.3063   -6.5146   21.8084 C   0  0  0  0  0  0  0  0  0  0  0  0
    4.6102   -7.1629   20.9910 H   0  0  0  0  0  0  0  0  0  0  0  0
    3.1527   -6.7634   22.5626 C   0  0  0  0  0  0  0  0  0  0  0  0
    2.5601   -7.6527   22.3531 H   0  0  0  0  0  0  0  0  0  0  0  0
    2.7654   -5.8821   23.5951 C   0  0  0  0  0  0  0  0  0  0  0  0
    1.8624   -6.0876   24.1671 H   0  0  0  0  0  0  0  0  0  0  0  0
    3.5518   -4.7682   23.9212 C   0  0  0  0  0  0  0  0  0  0  0  0
    3.2653   -4.0623   24.6992 H   0  0  0  0  0  0  0  0  0  0  0  0
    4.7325   -4.5719   23.2020 C   0  0  0  0  0  0  0  0  0  0  0  0
    5.8598   -3.6132   23.3862 C   0  0  0  0  0  0  0  0  0  0  0  0
    5.9590   -2.6718   24.1395 O   0  0  0  0  0  0  0  0  0  0  0  0
    7.3698    0.0155   22.4081 C   0  0  0  0  0  0  0  0  0  0  0  0
    6.8347   -0.4781   23.2304 H   0  0  0  0  0  0  0  0  0  0  0  0
    6.9606    1.0202   22.2636 H   0  0  0  0  0  0  0  0  0  0  0  0
    8.9206    0.0704   22.4547 C   0  0  0  0  0  0  0  0  0  0  0  0
    9.3646   -0.6204   23.1820 H   0  0  0  0  0  0  0  0  0  0  0  0
    9.3612    1.0591   22.6198 H   0  0  0  0  0  0  0  0  0  0  0  0
    8.9578   -0.4261   20.9891 C   0  0  0  0  0  0  0  0  0  0  0  0
    9.1495    0.3951   20.2921 H   0  0  0  0  0  0  0  0  0  0  0  0
    9.6197   -1.2649   20.7354 H   0  0  0  0  0  0  0  0  0  0  0  0
    5.4103    0.5239   20.0972 C   0  0  0  0  0  0  0  0  0  0  0  0
    4.9428    0.5961   21.0825 H   0  0  0  0  0  0  0  0  0  0  0  0
    4.8601    1.1701   18.9895 C   0  0  0  0  0  0  0  0  0  0  0  0
    3.9869    1.8058   19.0825 H   0  0  0  0  0  0  0  0  0  0  0  0
  1  2  1  0
  2  3  2  0
  3  4  1  0
  4  5  1  0
  4  6  2  0
  6  7  1  0
  7  8  1  0
  8  9  1  0
  8 10  1  0
 10 11  1  0
 10 12  1  0
 10 13  1  0
 13 14  1  0
 14 15  2  0
 14 16  1  0
 16 17  2  0
 17 18  1  0
 17 19  1  0
 19 20  1  0
 19 21  2  0
 21 22  1  0
 21 23  1  0
 23 24  1  0
 23 25  2  0
 25 26  1  0
 26 27  2  0
  7 28  1  0
 28 29  1  0
 28 30  1  0
 28 31  1  0
 31 32  1  0
 31 33  1  0
 31 34  1  0
 34 35  1  0
 34 36  1  0
  6 37  1  0
 37 38  1  0
 37 39  2  0
 39 40  1  0
 39  2  1  0
 34  7  1  0
 26 13  1  0
 25 16  1  0
M  END
>  <cnnaffinity>  (1) 
-4.59826

>  <filename>  (1) 
O=C1c2ccccc2C(=O)N1CNC1(c2cccnc2)CCC1

$$$$
