
     RDKit          3D

 27 28  0  0  0  0  0  0  0  0999 V2000
   11.1328   -4.5615   24.5022 H   0  0  0  0  0  0  0  0  0  0  0  0
   10.3082   -5.0631   24.5870 O   0  0  0  0  0  0  0  0  0  0  0  0
    9.2889   -4.3931   23.8714 C   0  0  0  0  0  0  0  0  0  0  0  0
    9.5641   -4.1664   22.8288 H   0  0  0  0  0  0  0  0  0  0  0  0
    8.4248   -5.0637   23.8471 H   0  0  0  0  0  0  0  0  0  0  0  0
    8.9255   -3.0853   24.5757 C   0  0  0  0  0  0  0  0  0  0  0  0
    8.5619   -3.2564   25.5907 H   0  0  0  0  0  0  0  0  0  0  0  0
    9.8302   -2.4582   24.6493 H   0  0  0  0  0  0  0  0  0  0  0  0
    7.8687   -2.3231   23.9496 O   0  0  0  0  0  0  0  0  0  0  0  0
    8.0110   -2.2772   22.5698 N   0  0  0  0  0  0  0  0  0  0  0  0
    6.9270   -1.8914   21.7280 C   0  0  0  0  0  0  0  0  0  0  0  0
    5.7839   -2.2885   21.7991 O   0  0  0  0  0  0  0  0  0  0  0  0
    7.5916   -1.0024   20.7275 C   0  0  0  0  0  0  0  0  0  0  0  0
    6.8817   -0.1999   19.7002 C   0  0  0  0  0  0  0  0  0  0  0  0
    7.3727    0.0218   18.3917 C   0  0  0  0  0  0  0  0  0  0  0  0
    8.3232   -0.4113   18.0829 H   0  0  0  0  0  0  0  0  0  0  0  0
    6.7367    0.7413   17.4568 N   0  0  0  0  0  0  0  0  0  0  0  0
    5.5740    1.3162   17.8051 C   0  0  0  0  0  0  0  0  0  0  0  0
    5.0540    1.8751   17.0298 H   0  0  0  0  0  0  0  0  0  0  0  0
    5.0240    1.2117   19.0847 C   0  0  0  0  0  0  0  0  0  0  0  0
    4.0977    1.7170   19.3214 H   0  0  0  0  0  0  0  0  0  0  0  0
    5.6804    0.4395   20.0384 C   0  0  0  0  0  0  0  0  0  0  0  0
    5.2959    0.3242   21.0510 H   0  0  0  0  0  0  0  0  0  0  0  0
    8.9073   -0.9694   21.0190 C   0  0  0  0  0  0  0  0  0  0  0  0
    9.7084   -0.5102   20.4578 H   0  0  0  0  0  0  0  0  0  0  0  0
    9.2248   -1.6668   22.1876 N   0  0  0  0  0  0  0  0  0  0  0  0
    9.4864   -1.0552   22.9631 H   0  0  0  0  0  0  0  0  0  0  0  0
  1  2  1  0
  2  3  1  0
  3  4  1  0
  3  5  1  0
  3  6  1  0
  6  7  1  0
  6  8  1  0
  6  9  1  0
  9 10  1  0
 10 11  1  0
 11 12  2  0
 11 13  1  0
 13 14  1  0
 14 15  2  0
 15 16  1  0
 15 17  1  0
 17 18  2  0
 18 19  1  0
 18 20  1  0
 20 21  1  0
 20 22  2  0
 22 23  1  0
 13 24  2  0
 24 25  1  0
 24 26  1  0
 26 27  1  0
 26 10  1  0
 22 14  1  0
M  END
>  <cnnaffinity>  (1) 
-4.09787

>  <filename>  (1) 
O=c1c(-c2cccnc2)c[nH]n1OCCO

$$$$
