
     RDKit          3D

 33 36  0  0  0  0  0  0  0  0999 V2000
    5.0209    1.7660   16.9517 H   0  0  0  0  0  0  0  0  0  0  0  0
    5.4590    1.2889   17.8256 C   0  0  0  0  0  0  0  0  0  0  0  0
    6.6098    0.6327   17.6126 N   0  0  0  0  0  0  0  0  0  0  0  0
    7.1759    0.0497   18.6714 C   0  0  0  0  0  0  0  0  0  0  0  0
    8.1007   -0.4967   18.4881 H   0  0  0  0  0  0  0  0  0  0  0  0
    6.6701    0.1045   19.9876 C   0  0  0  0  0  0  0  0  0  0  0  0
    7.3868   -0.5532   21.0806 C   0  0  0  0  0  0  0  0  0  0  0  0
    7.4676   -0.2124   22.3986 C   0  0  0  0  0  0  0  0  0  0  0  0
    7.0182    0.9684   23.1271 C   0  0  0  0  0  0  0  0  0  0  0  0
    6.2168    0.7886   24.2667 C   0  0  0  0  0  0  0  0  0  0  0  0
    6.0202   -0.2318   24.5932 H   0  0  0  0  0  0  0  0  0  0  0  0
    5.6815    1.8836   24.9674 C   0  0  0  0  0  0  0  0  0  0  0  0
    5.0489    1.6929   25.8304 H   0  0  0  0  0  0  0  0  0  0  0  0
    5.9841    3.1931   24.6012 C   0  0  0  0  0  0  0  0  0  0  0  0
    5.6134    4.0413   25.1759 H   0  0  0  0  0  0  0  0  0  0  0  0
    6.7965    3.3805   23.4708 C   0  0  0  0  0  0  0  0  0  0  0  0
    7.3293    2.3025   22.7193 C   0  0  0  0  0  0  0  0  0  0  0  0
    8.1259    2.8992   21.6761 C   0  0  0  0  0  0  0  0  0  0  0  0
    8.6743    2.3557   20.9195 H   0  0  0  0  0  0  0  0  0  0  0  0
    8.0348    4.2567   21.8119 C   0  0  0  0  0  0  0  0  0  0  0  0
    8.4510    5.0706   21.2277 H   0  0  0  0  0  0  0  0  0  0  0  0
    7.2434    4.5458   22.8952 N   0  0  0  0  0  0  0  0  0  0  0  0
    6.9965    5.4753   23.1905 H   0  0  0  0  0  0  0  0  0  0  0  0
    8.0715   -1.3568   23.1233 C   0  0  0  0  0  0  0  0  0  0  0  0
    8.2677   -1.5174   24.3007 O   0  0  0  0  0  0  0  0  0  0  0  0
    8.4245   -2.3002   22.2061 O   0  0  0  0  0  0  0  0  0  0  0  0
    8.0465   -1.8883   20.9079 C   0  0  0  0  0  0  0  0  0  0  0  0
    7.3600   -2.6366   20.4876 H   0  0  0  0  0  0  0  0  0  0  0  0
    8.9441   -1.8557   20.2786 H   0  0  0  0  0  0  0  0  0  0  0  0
    5.4499    0.7786   20.1814 C   0  0  0  0  0  0  0  0  0  0  0  0
    4.9953    0.8182   21.1751 H   0  0  0  0  0  0  0  0  0  0  0  0
    4.8388    1.3737   19.0766 C   0  0  0  0  0  0  0  0  0  0  0  0
    3.9014    1.9099   19.1706 H   0  0  0  0  0  0  0  0  0  0  0  0
  1  2  1  0
  2  3  2  0
  3  4  1  0
  4  5  1  0
  4  6  2  0
  6  7  1  0
  7  8  2  0
  8  9  1  0
  9 10  2  0
 10 11  1  0
 10 12  1  0
 12 13  1  0
 12 14  2  0
 14 15  1  0
 14 16  1  0
 16 17  2  0
 17 18  1  0
 18 19  1  0
 18 20  2  0
 20 21  1  0
 20 22  1  0
 22 23  1  0
  8 24  1  0
 24 25  2  0
 24 26  1  0
 26 27  1  0
 27 28  1  0
 27 29  1  0
  6 30  1  0
 30 31  1  0
 30 32  2  0
 32 33  1  0
 32  2  1  0
 27  7  1  0
 17  9  1  0
 22 16  1  0
M  END
>  <cnnaffinity>  (1) 
-4.5506

>  <filename>  (1) 
O=C1OCC(c2cccnc2)=C1c1cccc2[nH]ccc12

$$$$
