
     RDKit          3D

 46 50  0  0  0  0  0  0  0  0999 V2000
   14.6658   -0.1054   23.4459 O   0  0  0  0  0  0  0  0  0  0  0  0
   14.1197   -1.0308   22.5889 C   0  0  0  0  0  0  0  0  0  0  0  0
   13.8174    1.0681   23.1205 N   0  0  0  0  0  0  0  0  0  0  0  0
   12.6010    0.6718   22.4568 C   0  0  0  0  0  0  0  0  0  0  0  0
   11.3604    1.2583   22.4728 C   0  0  0  0  0  0  0  0  0  0  0  0
   10.2775    0.5322   21.9406 C   0  0  0  0  0  0  0  0  0  0  0  0
    8.8529    1.0537   22.1186 C   0  0  0  0  0  0  0  0  0  0  0  0
    7.8661   -0.0630   22.3510 C   0  0  0  0  0  0  0  0  0  0  0  0
    7.8362   -0.8778   23.3923 N   0  0  0  0  0  0  0  0  0  0  0  0
    7.0866   -1.9263   22.9477 C   0  0  0  0  0  0  0  0  0  0  0  0
    6.9210   -3.1693   23.7881 C   0  0  0  0  0  0  0  0  0  0  0  0
    5.9156   -3.1121   24.9692 C   0  0  0  0  0  0  0  0  0  0  0  0
    5.6832   -4.5956   25.3531 C   0  0  0  0  0  0  0  0  0  0  0  0
    6.1727   -5.4432   24.1523 C   0  0  0  0  0  0  0  0  0  0  0  0
    6.4952   -4.4433   23.0317 C   0  0  0  0  0  0  0  0  0  0  0  0
    7.2796   -4.8077   22.3586 H   0  0  0  0  0  0  0  0  0  0  0  0
    5.6090   -4.2254   22.4197 H   0  0  0  0  0  0  0  0  0  0  0  0
    7.0830   -5.9892   24.4300 H   0  0  0  0  0  0  0  0  0  0  0  0
    5.4382   -6.1965   23.8444 H   0  0  0  0  0  0  0  0  0  0  0  0
    6.2438   -4.8630   26.2571 H   0  0  0  0  0  0  0  0  0  0  0  0
    4.6275   -4.7844   25.5771 H   0  0  0  0  0  0  0  0  0  0  0  0
    6.3036   -2.5234   25.8080 H   0  0  0  0  0  0  0  0  0  0  0  0
    4.9711   -2.6468   24.6564 H   0  0  0  0  0  0  0  0  0  0  0  0
    7.9168   -3.3269   24.2269 H   0  0  0  0  0  0  0  0  0  0  0  0
    6.6202   -1.7826   21.7184 N   0  0  0  0  0  0  0  0  0  0  0  0
    7.1196   -0.5807   21.3392 N   0  0  0  0  0  0  0  0  0  0  0  0
    6.6939    0.0631   20.1345 C   0  0  0  0  0  0  0  0  0  0  0  0
    5.5479    0.8633   20.1492 C   0  0  0  0  0  0  0  0  0  0  0  0
    5.1595    1.4740   18.9541 C   0  0  0  0  0  0  0  0  0  0  0  0
    5.9281    1.2728   17.8034 C   0  0  0  0  0  0  0  0  0  0  0  0
    7.0365    0.5153   17.7871 N   0  0  0  0  0  0  0  0  0  0  0  0
    7.4051   -0.0725   18.9343 C   0  0  0  0  0  0  0  0  0  0  0  0
    8.3176   -0.6698   18.9037 H   0  0  0  0  0  0  0  0  0  0  0  0
    5.6379    1.7368   16.8612 H   0  0  0  0  0  0  0  0  0  0  0  0
    4.2791    2.1057   18.9112 H   0  0  0  0  0  0  0  0  0  0  0  0
    4.9783    0.9921   21.0695 H   0  0  0  0  0  0  0  0  0  0  0  0
    8.5622    1.6266   21.2307 H   0  0  0  0  0  0  0  0  0  0  0  0
    8.7904    1.7360   22.9715 H   0  0  0  0  0  0  0  0  0  0  0  0
   10.4962   -0.7089   21.2982 C   0  0  0  0  0  0  0  0  0  0  0  0
   11.7354   -1.3254   21.2474 C   0  0  0  0  0  0  0  0  0  0  0  0
   12.8466   -0.6567   21.8730 C   0  0  0  0  0  0  0  0  0  0  0  0
   14.2469   -0.8492   21.2869 O   0  0  0  0  0  0  0  0  0  0  0  0
   11.9574   -2.2571   20.7544 H   0  0  0  0  0  0  0  0  0  0  0  0
    9.6531   -1.2059   20.8215 H   0  0  0  0  0  0  0  0  0  0  0  0
   11.2522    2.2418   22.9293 H   0  0  0  0  0  0  0  0  0  0  0  0
   13.6959    1.4495   24.0449 H   0  0  0  0  0  0  0  0  0  0  0  0
  1  2  2  0
  2  3  1  0
  3  4  1  0
  4  5  2  0
  5  6  1  0
  6  7  1  0
  7  8  1  0
  8  9  2  0
  9 10  1  0
 10 11  1  0
 11 12  1  0
 12 13  1  0
 13 14  1  0
 14 15  1  0
 15 16  1  0
 15 17  1  0
 14 18  1  0
 14 19  1  0
 13 20  1  0
 13 21  1  0
 12 22  1  0
 12 23  1  0
 11 24  1  0
 10 25  2  0
 25 26  1  0
 26 27  1  0
 27 28  2  0
 28 29  1  0
 29 30  2  0
 30 31  1  0
 31 32  2  0
 32 33  1  0
 30 34  1  0
 29 35  1  0
 28 36  1  0
  7 37  1  0
  7 38  1  0
  6 39  2  0
 39 40  1  0
 40 41  2  0
 41 42  1  0
 40 43  1  0
 39 44  1  0
  5 45  1  0
  3 46  1  0
 42  2  1  0
 41  4  1  0
 26  8  1  0
 32 27  1  0
 15 11  1  0
M  END
>  <cnnaffinity>  (1) 
-7.06654

>  <filename>  (1) 
O=c1[nH]c2cc(Cc3nc(C4CCCC4)nn3-c3cccnc3)ccc2o1

$$$$
