
     RDKit          3D

 36 39  0  0  0  0  0  0  0  0999 V2000
    4.9018    1.7758   17.0007 H   0  0  0  0  0  0  0  0  0  0  0  0
    5.3847    1.3030   17.8381 C   0  0  0  0  0  0  0  0  0  0  0  0
    6.5605    0.7025   17.5369 N   0  0  0  0  0  0  0  0  0  0  0  0
    7.1676    0.1075   18.5450 C   0  0  0  0  0  0  0  0  0  0  0  0
    8.1278   -0.3952   18.3137 H   0  0  0  0  0  0  0  0  0  0  0  0
    6.6135    0.0954   19.8612 C   0  0  0  0  0  0  0  0  0  0  0  0
    7.3303   -0.6497   20.8773 N   0  0  0  0  0  0  0  0  0  0  0  0
    8.0901   -1.9044   20.6769 C   0  0  0  0  0  0  0  0  0  0  0  0
    8.0898   -1.9041   20.6768 O   0  0  0  0  0  0  0  0  0  0  0  0
    8.7683   -2.4573   22.2386 O   0  0  0  0  0  0  0  0  0  0  0  0
    8.3043   -1.3373   23.1208 C   0  0  0  0  0  0  0  0  0  0  0  0
    7.7391   -1.8099   23.9396 H   0  0  0  0  0  0  0  0  0  0  0  0
    9.2154   -0.8348   23.5130 H   0  0  0  0  0  0  0  0  0  0  0  0
    7.3674   -0.2919   22.3310 C   0  0  1  0  0  0  0  0  0  0  0  0
    6.3206   -0.3571   22.7650 H   0  0  0  0  0  0  0  0  0  0  0  0
    7.8781    1.1414   22.5538 C   0  0  0  0  0  0  0  0  0  0  0  0
    8.8056    1.6637   21.6981 C   0  0  0  0  0  0  0  0  0  0  0  0
    9.1917    1.0996   20.8572 H   0  0  0  0  0  0  0  0  0  0  0  0
    9.2713    2.9649   21.8668 C   0  0  0  0  0  0  0  0  0  0  0  0
   10.0511    3.1784   21.1897 H   0  0  0  0  0  0  0  0  0  0  0  0
    8.8678    3.7888   22.8727 C   0  0  0  0  0  0  0  0  0  0  0  0
    9.2340    4.8024   22.9739 H   0  0  0  0  0  0  0  0  0  0  0  0
    7.9583    3.2698   23.8303 C   0  0  0  0  0  0  0  0  0  0  0  0
    7.5432    4.0682   24.9360 C   0  0  0  0  0  0  0  0  0  0  0  0
    7.9190    5.0833   25.0054 H   0  0  0  0  0  0  0  0  0  0  0  0
    6.7012    3.5585   25.8874 C   0  0  0  0  0  0  0  0  0  0  0  0
    6.3919    4.1709   26.7236 H   0  0  0  0  0  0  0  0  0  0  0  0
    6.2392    2.2217   25.7893 C   0  0  0  0  0  0  0  0  0  0  0  0
    5.5852    1.8285   26.5572 H   0  0  0  0  0  0  0  0  0  0  0  0
    6.6145    1.4222   24.7375 C   0  0  0  0  0  0  0  0  0  0  0  0
    6.2707    0.3958   24.7020 H   0  0  0  0  0  0  0  0  0  0  0  0
    7.4717    1.9207   23.7005 C   0  0  0  0  0  0  0  0  0  0  0  0
    5.4108    0.6802   20.1648 C   0  0  0  0  0  0  0  0  0  0  0  0
    5.0118    0.6294   21.1650 H   0  0  0  0  0  0  0  0  0  0  0  0
    4.7883    1.3239   19.0989 C   0  0  0  0  0  0  0  0  0  0  0  0
    3.8657    1.8489   19.2658 H   0  0  0  0  0  0  0  0  0  0  0  0
  1  2  1  0
  2  3  2  0
  3  4  1  0
  4  5  1  0
  4  6  2  0
  6  7  1  0
  7  8  1  0
  8  9  2  0
  8 10  1  0
 10 11  1  0
 11 12  1  0
 11 13  1  0
 11 14  1  0
 14 15  1  1
 14 16  1  0
 16 17  2  0
 17 18  1  0
 17 19  1  0
 19 20  1  0
 19 21  2  0
 21 22  1  0
 21 23  1  0
 23 24  2  0
 24 25  1  0
 24 26  1  0
 26 27  1  0
 26 28  2  0
 28 29  1  0
 28 30  1  0
 30 31  1  0
 30 32  2  0
  6 33  1  0
 33 34  1  0
 33 35  2  0
 35 36  1  0
 35  2  1  0
 14  7  1  0
 32 16  1  0
 32 23  1  0
M  END
>  <cnnaffinity>  (1) 
-4.42396

>  <filename>  (1) 
O=C1OC[C@@H](c2cccc3ccccc23)N1c1cccnc1

$$$$
