
     RDKit          3D

 33 35  0  0  0  0  0  0  0  0999 V2000
    4.9310    1.7941   16.9926 H   0  0  0  0  0  0  0  0  0  0  0  0
    5.4011    1.2964   17.8394 C   0  0  0  0  0  0  0  0  0  0  0  0
    6.5612    0.6721   17.5820 N   0  0  0  0  0  0  0  0  0  0  0  0
    7.1718    0.0518   18.5980 C   0  0  0  0  0  0  0  0  0  0  0  0
    8.1107   -0.4459   18.3604 H   0  0  0  0  0  0  0  0  0  0  0  0
    6.6608   -0.0037   19.9068 C   0  0  0  0  0  0  0  0  0  0  0  0
    7.3478   -0.7045   20.9549 N   0  0  0  0  0  0  0  0  0  0  0  0
    6.5708   -1.4407   21.8052 N   0  0  0  0  0  0  0  0  0  0  0  0
    7.1381   -2.0853   22.7991 C   0  0  0  0  0  0  0  0  0  0  0  0
    6.2230   -2.8497   23.7095 C   0  0  0  0  0  0  0  0  0  0  0  0
    6.4397   -2.8603   25.1011 C   0  0  0  0  0  0  0  0  0  0  0  0
    7.3118   -2.3425   25.5016 H   0  0  0  0  0  0  0  0  0  0  0  0
    5.5917   -3.5846   25.9352 C   0  0  0  0  0  0  0  0  0  0  0  0
    5.7709   -3.5968   27.0071 H   0  0  0  0  0  0  0  0  0  0  0  0
    4.5284   -4.3170   25.3976 C   0  0  0  0  0  0  0  0  0  0  0  0
    3.8804   -4.8826   26.0594 H   0  0  0  0  0  0  0  0  0  0  0  0
    4.3009   -4.3281   24.0112 C   0  0  0  0  0  0  0  0  0  0  0  0
    3.1369   -5.1330   23.4583 C   0  0  0  0  0  0  0  0  0  0  0  0
    1.9797   -4.4444   23.4571 F   0  0  0  0  0  0  0  0  0  0  0  0
    2.9018   -6.2508   24.1780 F   0  0  0  0  0  0  0  0  0  0  0  0
    3.3662   -5.5180   22.1896 F   0  0  0  0  0  0  0  0  0  0  0  0
    5.1498   -3.5820   23.1708 C   0  0  0  0  0  0  0  0  0  0  0  0
    5.0362   -3.5536   22.0900 H   0  0  0  0  0  0  0  0  0  0  0  0
    8.6335   -2.0892   23.0293 C   0  0  0  0  0  0  0  0  0  0  0  0
    9.1986   -2.7204   23.9146 O   0  0  0  0  0  0  0  0  0  0  0  0
    9.3719   -1.2615   22.0834 C   0  0  0  0  0  0  0  0  0  0  0  0
   10.4450   -1.2151   22.2121 H   0  0  0  0  0  0  0  0  0  0  0  0
    8.7114   -0.6147   21.1080 C   0  0  0  0  0  0  0  0  0  0  0  0
    9.2028    0.0341   20.3894 H   0  0  0  0  0  0  0  0  0  0  0  0
    5.4442    0.6394   20.1640 C   0  0  0  0  0  0  0  0  0  0  0  0
    5.0376    0.5860   21.1734 H   0  0  0  0  0  0  0  0  0  0  0  0
    4.8135    1.3107   19.1102 C   0  0  0  0  0  0  0  0  0  0  0  0
    3.8794    1.8415   19.2555 H   0  0  0  0  0  0  0  0  0  0  0  0
  1  2  1  0
  2  3  2  0
  3  4  1  0
  4  5  1  0
  4  6  2  0
  6  7  1  0
  7  8  1  0
  8  9  2  0
  9 10  1  0
 10 11  2  0
 11 12  1  0
 11 13  1  0
 13 14  1  0
 13 15  2  0
 15 16  1  0
 15 17  1  0
 17 18  1  0
 18 19  1  0
 18 20  1  0
 18 21  1  0
 17 22  2  0
 22 23  1  0
  9 24  1  0
 24 25  2  0
 24 26  1  0
 26 27  1  0
 26 28  2  0
 28 29  1  0
  6 30  1  0
 30 31  1  0
 30 32  2  0
 32 33  1  0
 32  2  1  0
 28  7  1  0
 22 10  1  0
M  END
>  <cnnaffinity>  (1) 
-5.77874

>  <filename>  (1) 
O=c1ccn(-c2cccnc2)nc1-c1cccc(C(F)(F)F)c1

$$$$
