
     RDKit          3D

 30 32  0  0  0  0  0  0  0  0999 V2000
    4.8986    1.8021   16.8532 H   0  0  0  0  0  0  0  0  0  0  0  0
    5.3443    1.3895   17.7542 C   0  0  0  0  0  0  0  0  0  0  0  0
    6.5599    0.8460   17.5951 N   0  0  0  0  0  0  0  0  0  0  0  0
    7.1503    0.3451   18.6839 C   0  0  0  0  0  0  0  0  0  0  0  0
    8.1408   -0.0762   18.5129 H   0  0  0  0  0  0  0  0  0  0  0  0
    6.5808    0.3556   19.9737 C   0  0  0  0  0  0  0  0  0  0  0  0
    7.2580   -0.3871   21.0732 C   0  0  0  0  0  0  0  0  0  0  0  0
    7.6013    0.4850   22.5495 S   0  0  0  0  0  0  0  0  0  0  0  0
    8.1919   -0.7914   23.6053 C   0  0  0  0  0  0  0  0  0  0  0  0
    8.3328   -0.4003   25.0398 C   0  0  0  0  0  0  0  0  0  0  0  0
    9.5349   -0.6526   25.7233 C   0  0  0  0  0  0  0  0  0  0  0  0
   10.3907   -1.0421   25.1792 H   0  0  0  0  0  0  0  0  0  0  0  0
    9.6307   -0.3905   27.0916 C   0  0  0  0  0  0  0  0  0  0  0  0
   10.5552   -0.5836   27.6190 H   0  0  0  0  0  0  0  0  0  0  0  0
    8.5452    0.1327   27.7991 C   0  0  0  0  0  0  0  0  0  0  0  0
    8.6145    0.3386   28.8638 H   0  0  0  0  0  0  0  0  0  0  0  0
    7.3615    0.4094   27.1117 C   0  0  0  0  0  0  0  0  0  0  0  0
    6.0288    1.1157   27.9797 Cl  0  0  0  0  0  0  0  0  0  0  0  0
    7.2429    0.1412   25.7468 C   0  0  0  0  0  0  0  0  0  0  0  0
    6.3076    0.3307   25.2305 H   0  0  0  0  0  0  0  0  0  0  0  0
    8.4871   -2.0424   23.1938 C   0  0  0  0  0  0  0  0  0  0  0  0
    8.9190   -2.7629   23.8849 H   0  0  0  0  0  0  0  0  0  0  0  0
    8.1939   -2.5771   21.8645 C   0  0  0  0  0  0  0  0  0  0  0  0
    8.4474   -3.7382   21.5753 O   0  0  0  0  0  0  0  0  0  0  0  0
    7.5709   -1.6821   20.8885 C   0  0  0  0  0  0  0  0  0  0  0  0
    7.3494   -2.1540   19.9426 H   0  0  0  0  0  0  0  0  0  0  0  0
    5.3223    0.9600   20.1254 C   0  0  0  0  0  0  0  0  0  0  0  0
    4.8670    1.0267   21.1152 H   0  0  0  0  0  0  0  0  0  0  0  0
    4.6848    1.4660   18.9881 C   0  0  0  0  0  0  0  0  0  0  0  0
    3.7166    1.9528   19.0461 H   0  0  0  0  0  0  0  0  0  0  0  0
  1  2  1  0
  2  3  2  0
  3  4  1  0
  4  5  1  0
  4  6  2  0
  6  7  1  0
  7  8  1  0
  8  9  1  0
  9 10  1  0
 10 11  2  0
 11 12  1  0
 11 13  1  0
 13 14  1  0
 13 15  2  0
 15 16  1  0
 15 17  1  0
 17 18  1  0
 17 19  2  0
 19 20  1  0
  9 21  2  0
 21 22  1  0
 21 23  1  0
 23 24  2  0
 23 25  1  0
 25 26  1  0
  6 27  1  0
 27 28  1  0
 27 29  2  0
 29 30  1  0
 29  2  1  0
 25  7  2  0
 19 10  1  0
M  END
>  <cnnaffinity>  (1) 
-5.27633

>  <filename>  (1) 
O=c1cc(-c2cccnc2)sc(-c2cccc(Cl)c2)c1

$$$$
