
     RDKit          3D

 30 32  0  0  0  0  0  0  0  0999 V2000
    5.1707    1.8076   16.8229 H   0  0  0  0  0  0  0  0  0  0  0  0
    5.5512    1.3054   17.7109 C   0  0  0  0  0  0  0  0  0  0  0  0
    6.7062    0.6308   17.5704 N   0  0  0  0  0  0  0  0  0  0  0  0
    7.2176    0.0312   18.6525 C   0  0  0  0  0  0  0  0  0  0  0  0
    8.1700   -0.4835   18.5338 H   0  0  0  0  0  0  0  0  0  0  0  0
    6.5840    0.0263   19.9093 C   0  0  0  0  0  0  0  0  0  0  0  0
    7.2149   -0.6381   21.0101 N   0  0  0  0  0  0  0  0  0  0  0  0
    8.5542   -0.3924   21.1537 N   0  0  0  0  0  0  0  0  0  0  0  0
    9.2204   -1.0330   22.0785 C   0  0  0  0  0  0  0  0  0  0  0  0
   10.6453   -0.6006   22.2273 C   0  0  0  0  0  0  0  0  0  0  0  0
   10.9569    0.7255   22.5686 C   0  0  0  0  0  0  0  0  0  0  0  0
   10.1442    1.4302   22.7254 H   0  0  0  0  0  0  0  0  0  0  0  0
   12.2953    1.1172   22.6922 C   0  0  0  0  0  0  0  0  0  0  0  0
   12.5464    2.1516   22.9268 H   0  0  0  0  0  0  0  0  0  0  0  0
   13.3241    0.1939   22.4589 C   0  0  0  0  0  0  0  0  0  0  0  0
   14.3656    0.4781   22.5724 H   0  0  0  0  0  0  0  0  0  0  0  0
   12.9978   -1.1042   22.0586 C   0  0  0  0  0  0  0  0  0  0  0  0
   14.2370   -2.2289   21.6160 Cl  0  0  0  0  0  0  0  0  0  0  0  0
   11.6712   -1.5138   21.9606 C   0  0  0  0  0  0  0  0  0  0  0  0
   11.4322   -2.5343   21.6870 H   0  0  0  0  0  0  0  0  0  0  0  0
    8.6319   -2.1495   22.9082 C   0  0  0  0  0  0  0  0  0  0  0  0
    9.2622   -2.9034   23.6330 O   0  0  0  0  0  0  0  0  0  0  0  0
    7.1795   -2.2276   22.7782 C   0  0  0  0  0  0  0  0  0  0  0  0
    6.6665   -2.9223   23.4257 H   0  0  0  0  0  0  0  0  0  0  0  0
    6.5418   -1.5020   21.8403 C   0  0  0  0  0  0  0  0  0  0  0  0
    5.4727   -1.5943   21.6560 H   0  0  0  0  0  0  0  0  0  0  0  0
    5.3591    0.6954   20.0361 C   0  0  0  0  0  0  0  0  0  0  0  0
    4.8394    0.7149   20.9928 H   0  0  0  0  0  0  0  0  0  0  0  0
    4.8522    1.3676   18.9188 C   0  0  0  0  0  0  0  0  0  0  0  0
    3.9381    1.9469   18.9768 H   0  0  0  0  0  0  0  0  0  0  0  0
  1  2  1  0
  2  3  2  0
  3  4  1  0
  4  5  1  0
  4  6  2  0
  6  7  1  0
  7  8  1  0
  8  9  2  0
  9 10  1  0
 10 11  2  0
 11 12  1  0
 11 13  1  0
 13 14  1  0
 13 15  2  0
 15 16  1  0
 15 17  1  0
 17 18  1  0
 17 19  2  0
 19 20  1  0
  9 21  1  0
 21 22  2  0
 21 23  1  0
 23 24  1  0
 23 25  2  0
 25 26  1  0
  6 27  1  0
 27 28  1  0
 27 29  2  0
 29 30  1  0
 29  2  1  0
 25  7  1  0
 19 10  1  0
M  END
>  <cnnaffinity>  (1) 
-5.31693

>  <filename>  (1) 
O=c1ccn(-c2cccnc2)nc1-c1cccc(Cl)c1

$$$$
