
     RDKit          3D

 49 53  0  0  0  0  0  0  0  0999 V2000
    3.2267    1.1712   27.9140 O   0  0  0  0  0  0  0  0  0  0  0  0
    3.8617    1.3644   26.9152 C   0  0  0  0  0  0  0  0  0  0  0  0
    5.0132    0.7299   26.5368 N   0  0  0  0  0  0  0  0  0  0  0  0
    5.4645    1.2205   25.3277 C   0  0  0  0  0  0  0  0  0  0  0  0
    6.5574    0.9261   24.5368 C   0  0  0  0  0  0  0  0  0  0  0  0
    6.7104    1.6319   23.3305 C   0  0  0  0  0  0  0  0  0  0  0  0
    7.8998    1.2890   22.4420 C   0  0  0  0  0  0  0  0  0  0  0  0
    7.9444   -0.1559   22.0526 C   0  0  0  0  0  0  0  0  0  0  0  0
    8.5089   -1.1270   22.7467 N   0  0  0  0  0  0  0  0  0  0  0  0
    8.2368   -2.2322   22.0038 C   0  0  0  0  0  0  0  0  0  0  0  0
    8.5536   -3.6100   22.4624 C   0  0  0  0  0  0  0  0  0  0  0  0
    7.4103   -4.2546   23.2696 C   0  0  0  0  0  0  0  0  0  0  0  0
    7.0975   -3.5216   24.5853 C   0  0  0  0  0  0  0  0  0  0  0  0
    6.4469   -4.5674   25.5122 C   0  0  0  0  0  0  0  0  0  0  0  0
    6.8117   -5.9483   24.9239 C   0  0  0  0  0  0  0  0  0  0  0  0
    7.7166   -5.6942   23.6984 C   0  0  0  0  0  0  0  0  0  0  0  0
    7.5459   -6.4077   22.8806 H   0  0  0  0  0  0  0  0  0  0  0  0
    8.7804   -5.7901   23.9620 H   0  0  0  0  0  0  0  0  0  0  0  0
    5.8980   -6.4772   24.6248 H   0  0  0  0  0  0  0  0  0  0  0  0
    7.3126   -6.5805   25.6659 H   0  0  0  0  0  0  0  0  0  0  0  0
    6.7993   -4.4643   26.5441 H   0  0  0  0  0  0  0  0  0  0  0  0
    5.3583   -4.4506   25.5509 H   0  0  0  0  0  0  0  0  0  0  0  0
    6.4692   -2.6371   24.4200 H   0  0  0  0  0  0  0  0  0  0  0  0
    8.0333   -3.1504   25.0250 H   0  0  0  0  0  0  0  0  0  0  0  0
    6.5031   -4.2607   22.6416 H   0  0  0  0  0  0  0  0  0  0  0  0
    8.7456   -4.2074   21.5731 H   0  0  0  0  0  0  0  0  0  0  0  0
    9.4574   -3.5529   23.0777 H   0  0  0  0  0  0  0  0  0  0  0  0
    7.5890   -2.0015   20.8818 N   0  0  0  0  0  0  0  0  0  0  0  0
    7.3753   -0.6634   20.9286 N   0  0  0  0  0  0  0  0  0  0  0  0
    6.6503    0.0022   19.8999 C   0  0  0  0  0  0  0  0  0  0  0  0
    5.4403    0.6527   20.1603 C   0  0  0  0  0  0  0  0  0  0  0  0
    4.8066    1.3136   19.1029 C   0  0  0  0  0  0  0  0  0  0  0  0
    5.4020    1.2922   17.8393 C   0  0  0  0  0  0  0  0  0  0  0  0
    6.5614    0.6617   17.5849 N   0  0  0  0  0  0  0  0  0  0  0  0
    7.1653    0.0290   18.5941 C   0  0  0  0  0  0  0  0  0  0  0  0
    8.1159   -0.4518   18.3706 H   0  0  0  0  0  0  0  0  0  0  0  0
    4.9361    1.7915   16.9917 H   0  0  0  0  0  0  0  0  0  0  0  0
    3.8730    1.8439   19.2473 H   0  0  0  0  0  0  0  0  0  0  0  0
    5.0182    0.6313   21.1645 H   0  0  0  0  0  0  0  0  0  0  0  0
    8.8376    1.4870   22.9731 H   0  0  0  0  0  0  0  0  0  0  0  0
    7.8975    1.9026   21.5359 H   0  0  0  0  0  0  0  0  0  0  0  0
    5.7760    2.6134   22.9621 C   0  0  0  0  0  0  0  0  0  0  0  0
    4.6598    2.9136   23.7759 C   0  0  0  0  0  0  0  0  0  0  0  0
    4.5304    2.1963   24.9554 C   0  0  0  0  0  0  0  0  0  0  0  0
    3.5545    2.2831   25.9242 O   0  0  0  0  0  0  0  0  0  0  0  0
    3.9370    3.6752   23.5046 H   0  0  0  0  0  0  0  0  0  0  0  0
    5.9098    3.1260   22.0084 H   0  0  0  0  0  0  0  0  0  0  0  0
    7.2752    0.1555   24.7955 H   0  0  0  0  0  0  0  0  0  0  0  0
    5.3956    0.0185   27.1294 H   0  0  0  0  0  0  0  0  0  0  0  0
  1  2  2  0
  2  3  1  0
  3  4  1  0
  4  5  2  0
  5  6  1  0
  6  7  1  0
  7  8  1  0
  8  9  2  0
  9 10  1  0
 10 11  1  0
 11 12  1  0
 12 13  1  0
 13 14  1  0
 14 15  1  0
 15 16  1  0
 16 17  1  0
 16 18  1  0
 15 19  1  0
 15 20  1  0
 14 21  1  0
 14 22  1  0
 13 23  1  0
 13 24  1  0
 12 25  1  0
 11 26  1  0
 11 27  1  0
 10 28  2  0
 28 29  1  0
 29 30  1  0
 30 31  2  0
 31 32  1  0
 32 33  2  0
 33 34  1  0
 34 35  2  0
 35 36  1  0
 33 37  1  0
 32 38  1  0
 31 39  1  0
  7 40  1  0
  7 41  1  0
  6 42  2  0
 42 43  1  0
 43 44  2  0
 44 45  1  0
 43 46  1  0
 42 47  1  0
  5 48  1  0
  3 49  1  0
 45  2  1  0
 44  4  1  0
 29  8  1  0
 35 30  1  0
 16 12  1  0
M  END
>  <cnnaffinity>  (1) 
-6.71685

>  <filename>  (1) 
O=c1[nH]c2cc(Cc3nc(CC4CCCC4)nn3-c3cccnc3)ccc2o1

$$$$
