
     RDKit          3D

 30 32  0  0  0  0  0  0  0  0999 V2000
    4.9303    1.7916   16.9888 H   0  0  0  0  0  0  0  0  0  0  0  0
    5.3957    1.2962   17.8387 C   0  0  0  0  0  0  0  0  0  0  0  0
    6.5512    0.6680   17.5822 N   0  0  0  0  0  0  0  0  0  0  0  0
    7.1395    0.0365   18.5995 C   0  0  0  0  0  0  0  0  0  0  0  0
    8.1102   -0.4101   18.3953 H   0  0  0  0  0  0  0  0  0  0  0  0
    6.5992   -0.0333   19.8986 C   0  0  0  0  0  0  0  0  0  0  0  0
    7.3159   -0.7469   20.9913 C   0  0  0  0  0  0  0  0  0  0  0  0
    6.5772   -1.5100   21.7558 N   0  0  0  0  0  0  0  0  0  0  0  0
    7.1575   -2.1861   22.7999 N   0  0  0  0  0  0  0  0  0  0  0  0
    6.2887   -2.9950   23.6205 C   0  0  0  0  0  0  0  0  0  0  0  0
    6.5059   -3.1205   25.0049 C   0  0  0  0  0  0  0  0  0  0  0  0
    7.3253   -2.5766   25.4630 H   0  0  0  0  0  0  0  0  0  0  0  0
    5.6588   -3.9072   25.7915 C   0  0  0  0  0  0  0  0  0  0  0  0
    5.8224   -4.0108   26.8620 H   0  0  0  0  0  0  0  0  0  0  0  0
    4.5934   -4.5760   25.1869 C   0  0  0  0  0  0  0  0  0  0  0  0
    3.5370   -5.5558   26.1614 Cl  0  0  0  0  0  0  0  0  0  0  0  0
    4.3594   -4.4669   23.8123 C   0  0  0  0  0  0  0  0  0  0  0  0
    3.5123   -4.9911   23.3765 H   0  0  0  0  0  0  0  0  0  0  0  0
    5.2075   -3.6713   23.0331 C   0  0  0  0  0  0  0  0  0  0  0  0
    5.0525   -3.5391   21.9683 H   0  0  0  0  0  0  0  0  0  0  0  0
    8.5200   -2.1175   23.0197 C   0  0  0  0  0  0  0  0  0  0  0  0
    8.8824   -2.7373   23.8359 H   0  0  0  0  0  0  0  0  0  0  0  0
    9.3461   -1.3618   22.2766 C   0  0  0  0  0  0  0  0  0  0  0  0
   10.4151   -1.2876   22.4498 H   0  0  0  0  0  0  0  0  0  0  0  0
    8.8046   -0.5633   21.1863 C   0  0  0  0  0  0  0  0  0  0  0  0
    9.5101    0.1713   20.4990 O   0  0  0  0  0  0  0  0  0  0  0  0
    5.3981    0.6358   20.1557 C   0  0  0  0  0  0  0  0  0  0  0  0
    4.9914    0.6194   21.1696 H   0  0  0  0  0  0  0  0  0  0  0  0
    4.7931    1.3213   19.1025 C   0  0  0  0  0  0  0  0  0  0  0  0
    3.8659    1.8605   19.2421 H   0  0  0  0  0  0  0  0  0  0  0  0
  1  2  1  0
  2  3  2  0
  3  4  1  0
  4  5  1  0
  4  6  2  0
  6  7  1  0
  7  8  2  0
  8  9  1  0
  9 10  1  0
 10 11  2  0
 11 12  1  0
 11 13  1  0
 13 14  1  0
 13 15  2  0
 15 16  1  0
 15 17  1  0
 17 18  1  0
 17 19  2  0
 19 20  1  0
  9 21  1  0
 21 22  1  0
 21 23  2  0
 23 24  1  0
 23 25  1  0
 25 26  2  0
  6 27  1  0
 27 28  1  0
 27 29  2  0
 29 30  1  0
 29  2  1  0
 25  7  1  0
 19 10  1  0
M  END
>  <cnnaffinity>  (1) 
-5.19888

>  <filename>  (1) 
O=c1ccn(-c2ccc(Cl)cc2)nc1-c1cccnc1

$$$$
