
     RDKit          3D

 33 35  0  0  0  0  0  0  0  0999 V2000
    4.9561    1.8505   16.8851 H   0  0  0  0  0  0  0  0  0  0  0  0
    5.3987    1.4777   17.8050 C   0  0  0  0  0  0  0  0  0  0  0  0
    6.6066    0.9050   17.6884 N   0  0  0  0  0  0  0  0  0  0  0  0
    7.1311    0.3856   18.8024 C   0  0  0  0  0  0  0  0  0  0  0  0
    8.1295   -0.0401   18.6981 H   0  0  0  0  0  0  0  0  0  0  0  0
    6.4905    0.3707   20.0566 C   0  0  0  0  0  0  0  0  0  0  0  0
    7.0689   -0.4517   21.1488 C   0  0  0  0  0  0  0  0  0  0  0  0
    7.1596    0.2941   22.7241 S   0  0  0  0  0  0  0  0  0  0  0  0
    8.0228   -0.9030   23.6730 C   0  0  0  0  0  0  0  0  0  0  0  0
    8.4763   -0.3743   25.0308 C   0  0  0  0  0  0  0  0  0  0  0  0
    8.7973   -1.2136   25.6557 H   0  0  0  0  0  0  0  0  0  0  0  0
    7.6272    0.0716   25.5588 H   0  0  0  0  0  0  0  0  0  0  0  0
    9.6246    0.6243   24.8838 C   0  0  0  0  0  0  0  0  0  0  0  0
    9.3836    1.9678   24.5558 C   0  0  0  0  0  0  0  0  0  0  0  0
    8.3667    2.3396   24.5191 H   0  0  0  0  0  0  0  0  0  0  0  0
   10.4345    2.8263   24.2179 C   0  0  0  0  0  0  0  0  0  0  0  0
   10.2445    3.8555   23.9275 H   0  0  0  0  0  0  0  0  0  0  0  0
   11.7493    2.3618   24.2197 C   0  0  0  0  0  0  0  0  0  0  0  0
   12.5820    2.9849   23.9132 H   0  0  0  0  0  0  0  0  0  0  0  0
   11.9963    1.0406   24.5838 C   0  0  0  0  0  0  0  0  0  0  0  0
   13.6281    0.4496   24.5222 Cl  0  0  0  0  0  0  0  0  0  0  0  0
   10.9523    0.1815   24.9406 C   0  0  0  0  0  0  0  0  0  0  0  0
   11.1785   -0.8354   25.2332 H   0  0  0  0  0  0  0  0  0  0  0  0
    8.2908   -2.1512   23.2362 C   0  0  0  0  0  0  0  0  0  0  0  0
    8.7186   -2.9010   23.8988 H   0  0  0  0  0  0  0  0  0  0  0  0
    8.0460   -2.6451   21.8751 C   0  0  0  0  0  0  0  0  0  0  0  0
    8.3522   -3.7830   21.5528 O   0  0  0  0  0  0  0  0  0  0  0  0
    7.4185   -1.7326   20.9108 C   0  0  0  0  0  0  0  0  0  0  0  0
    7.1873   -2.1830   19.9551 H   0  0  0  0  0  0  0  0  0  0  0  0
    5.2548    1.0285   20.1657 C   0  0  0  0  0  0  0  0  0  0  0  0
    4.7349    1.0675   21.1244 H   0  0  0  0  0  0  0  0  0  0  0  0
    4.7007    1.5850   19.0115 C   0  0  0  0  0  0  0  0  0  0  0  0
    3.7384    2.0852   19.0331 H   0  0  0  0  0  0  0  0  0  0  0  0
  1  2  1  0
  2  3  2  0
  3  4  1  0
  4  5  1  0
  4  6  2  0
  6  7  1  0
  7  8  1  0
  8  9  1  0
  9 10  1  0
 10 11  1  0
 10 12  1  0
 10 13  1  0
 13 14  2  0
 14 15  1  0
 14 16  1  0
 16 17  1  0
 16 18  2  0
 18 19  1  0
 18 20  1  0
 20 21  1  0
 20 22  2  0
 22 23  1  0
  9 24  2  0
 24 25  1  0
 24 26  1  0
 26 27  2  0
 26 28  1  0
 28 29  1  0
  6 30  1  0
 30 31  1  0
 30 32  2  0
 32 33  1  0
 32  2  1  0
 28  7  2  0
 22 13  1  0
M  END
>  <cnnaffinity>  (1) 
-5.7065

>  <filename>  (1) 
O=c1cc(Cc2cccc(Cl)c2)sc(-c2cccnc2)c1

$$$$
