
     RDKit          3D

 35 38  0  0  0  0  0  0  0  0999 V2000
    4.9213    1.8209   16.9481 H   0  0  0  0  0  0  0  0  0  0  0  0
    5.3746    1.3285   17.8044 C   0  0  0  0  0  0  0  0  0  0  0  0
    6.5402    0.7045   17.5730 N   0  0  0  0  0  0  0  0  0  0  0  0
    7.1346    0.1105   18.6101 C   0  0  0  0  0  0  0  0  0  0  0  0
    8.0624   -0.4325   18.4240 H   0  0  0  0  0  0  0  0  0  0  0  0
    6.6199    0.1407   19.9112 C   0  0  0  0  0  0  0  0  0  0  0  0
    7.3731   -0.5617   20.9637 C   0  0  0  0  0  0  0  0  0  0  0  0
    8.0306   -1.6141   20.5724 N   0  0  0  0  0  0  0  0  0  0  0  0
    8.5505   -2.4229   21.5331 C   0  0  0  0  0  0  0  0  0  0  0  0
    8.8116   -3.5940   21.3852 O   0  0  0  0  0  0  0  0  0  0  0  0
    8.7859   -1.8593   22.7941 N   0  0  0  0  0  0  0  0  0  0  0  0
    9.0914   -2.5967   23.4038 H   0  0  0  0  0  0  0  0  0  0  0  0
    8.0232   -0.8218   23.2575 C   0  0  0  0  0  0  0  0  0  0  0  0
    8.0780   -0.4941   24.6901 C   0  0  0  0  0  0  0  0  0  0  0  0
    9.2878   -0.4561   25.3726 C   0  0  0  0  0  0  0  0  0  0  0  0
   10.2002   -0.7216   24.8403 H   0  0  0  0  0  0  0  0  0  0  0  0
    9.3575   -0.0519   26.7226 C   0  0  0  0  0  0  0  0  0  0  0  0
   10.3341   -0.0008   27.1948 H   0  0  0  0  0  0  0  0  0  0  0  0
    8.2221    0.2907   27.4287 C   0  0  0  0  0  0  0  0  0  0  0  0
    8.3002    0.6303   28.4615 H   0  0  0  0  0  0  0  0  0  0  0  0
    6.9488    0.2144   26.7970 C   0  0  0  0  0  0  0  0  0  0  0  0
    5.7211    0.5161   27.4639 C   0  0  0  0  0  0  0  0  0  0  0  0
    5.7356    0.8489   28.5011 H   0  0  0  0  0  0  0  0  0  0  0  0
    4.5368    0.3750   26.7827 C   0  0  0  0  0  0  0  0  0  0  0  0
    3.5762    0.5783   27.2394 H   0  0  0  0  0  0  0  0  0  0  0  0
    4.5699   -0.0529   25.4327 C   0  0  0  0  0  0  0  0  0  0  0  0
    3.6364   -0.1740   24.8877 H   0  0  0  0  0  0  0  0  0  0  0  0
    5.6727   -0.2994   24.7688 N   0  0  0  0  0  0  0  0  0  0  0  0
    6.8713   -0.1851   25.4116 C   0  0  0  0  0  0  0  0  0  0  0  0
    7.3198   -0.1216   22.3139 C   0  0  0  0  0  0  0  0  0  0  0  0
    6.7184    0.7257   22.5944 H   0  0  0  0  0  0  0  0  0  0  0  0
    5.3827    0.7527   20.1339 C   0  0  0  0  0  0  0  0  0  0  0  0
    4.9274    0.7120   21.1258 H   0  0  0  0  0  0  0  0  0  0  0  0
    4.7481    1.3634   19.0553 C   0  0  0  0  0  0  0  0  0  0  0  0
    3.7997    1.8745   19.1749 H   0  0  0  0  0  0  0  0  0  0  0  0
  1  2  1  0
  2  3  2  0
  3  4  1  0
  4  5  1  0
  4  6  2  0
  6  7  1  0
  7  8  2  0
  8  9  1  0
  9 10  2  0
  9 11  1  0
 11 12  1  0
 11 13  1  0
 13 14  1  0
 14 15  2  0
 15 16  1  0
 15 17  1  0
 17 18  1  0
 17 19  2  0
 19 20  1  0
 19 21  1  0
 21 22  2  0
 22 23  1  0
 22 24  1  0
 24 25  1  0
 24 26  2  0
 26 27  1  0
 26 28  1  0
 28 29  2  0
 13 30  2  0
 30 31  1  0
  6 32  1  0
 32 33  1  0
 32 34  2  0
 34 35  1  0
 34  2  1  0
 30  7  1  0
 29 14  1  0
 29 21  1  0
M  END
>  <cnnaffinity>  (1) 
-5.31711

>  <filename>  (1) 
O=c1nc(-c2cccnc2)cc(-c2cccc3cccnc23)[nH]1

$$$$
