
     RDKit          3D

 32 35  0  0  0  0  0  0  0  0999 V2000
    4.9682    1.9426   16.8236 H   0  0  0  0  0  0  0  0  0  0  0  0
    5.3871    1.4201   17.6845 C   0  0  0  0  0  0  0  0  0  0  0  0
    6.5396    0.7633   17.4796 N   0  0  0  0  0  0  0  0  0  0  0  0
    7.0863    0.1221   18.5182 C   0  0  0  0  0  0  0  0  0  0  0  0
    8.0347   -0.3808   18.3261 H   0  0  0  0  0  0  0  0  0  0  0  0
    6.5186    0.1045   19.7953 C   0  0  0  0  0  0  0  0  0  0  0  0
    7.1898   -0.6389   20.8775 C   0  0  0  0  0  0  0  0  0  0  0  0
    7.6444   -1.8227   20.5926 N   0  0  0  0  0  0  0  0  0  0  0  0
    8.2783   -2.5243   21.5793 C   0  0  0  0  0  0  0  0  0  0  0  0
    8.7104   -3.6478   21.4586 O   0  0  0  0  0  0  0  0  0  0  0  0
    8.4773   -1.8958   22.8142 N   0  0  0  0  0  0  0  0  0  0  0  0
    8.9607   -2.5225   23.4343 H   0  0  0  0  0  0  0  0  0  0  0  0
    7.9235   -0.7011   23.1711 C   0  0  0  0  0  0  0  0  0  0  0  0
    8.0054   -0.2291   24.5939 C   0  0  0  0  0  0  0  0  0  0  0  0
    8.7029   -0.7540   25.5536 N   0  0  0  0  0  0  0  0  0  0  0  0
    8.4797   -0.0784   26.7484 C   0  0  0  0  0  0  0  0  0  0  0  0
    9.0701   -0.3716   27.9985 C   0  0  0  0  0  0  0  0  0  0  0  0
    9.8042   -1.1675   28.0745 H   0  0  0  0  0  0  0  0  0  0  0  0
    8.7025    0.3774   29.1200 C   0  0  0  0  0  0  0  0  0  0  0  0
    9.1534    0.1524   30.0836 H   0  0  0  0  0  0  0  0  0  0  0  0
    7.7651    1.4246   29.0143 C   0  0  0  0  0  0  0  0  0  0  0  0
    7.5085    1.9987   29.9002 H   0  0  0  0  0  0  0  0  0  0  0  0
    7.1695    1.7300   27.7956 C   0  0  0  0  0  0  0  0  0  0  0  0
    6.4275    2.5227   27.7188 H   0  0  0  0  0  0  0  0  0  0  0  0
    7.5494    0.9867   26.6676 C   0  0  0  0  0  0  0  0  0  0  0  0
    7.0143    1.1506   25.0318 S   0  0  0  0  0  0  0  0  0  0  0  0
    7.2886   -0.0283   22.1612 C   0  0  0  0  0  0  0  0  0  0  0  0
    6.8893    0.9631   22.2970 H   0  0  0  0  0  0  0  0  0  0  0  0
    5.3231    0.8015   20.0046 C   0  0  0  0  0  0  0  0  0  0  0  0
    4.8624    0.8047   20.9944 H   0  0  0  0  0  0  0  0  0  0  0  0
    4.7439    1.4621   18.9253 C   0  0  0  0  0  0  0  0  0  0  0  0
    3.8230    2.0197   19.0364 H   0  0  0  0  0  0  0  0  0  0  0  0
  1  2  1  0
  2  3  2  0
  3  4  1  0
  4  5  1  0
  4  6  2  0
  6  7  1  0
  7  8  2  0
  8  9  1  0
  9 10  2  0
  9 11  1  0
 11 12  1  0
 11 13  1  0
 13 14  1  0
 14 15  2  0
 15 16  1  0
 16 17  2  0
 17 18  1  0
 17 19  1  0
 19 20  1  0
 19 21  2  0
 21 22  1  0
 21 23  1  0
 23 24  1  0
 23 25  2  0
 25 26  1  0
 13 27  2  0
 27 28  1  0
  6 29  1  0
 29 30  1  0
 29 31  2  0
 31 32  1  0
 31  2  1  0
 27  7  1  0
 26 14  1  0
 25 16  1  0
M  END
>  <cnnaffinity>  (1) 
-5.36849

>  <filename>  (1) 
O=c1nc(-c2cccnc2)cc(-c2nc3ccccc3s2)[nH]1

$$$$
