
     RDKit          3D

 39 41  0  0  0  0  0  0  0  0999 V2000
    6.3602   -5.8409   26.7909 H   0  0  0  0  0  0  0  0  0  0  0  0
    5.7960   -6.3733   26.2152 O   0  0  0  0  0  0  0  0  0  0  0  0
    4.5131   -5.7693   26.1599 C   0  0  0  0  0  0  0  0  0  0  0  0
    3.8427   -6.5353   25.7532 H   0  0  0  0  0  0  0  0  0  0  0  0
    4.1462   -5.5345   27.1732 H   0  0  0  0  0  0  0  0  0  0  0  0
    4.4449   -4.5092   25.2748 C   0  0  0  0  0  0  0  0  0  0  0  0
    3.4002   -4.1784   25.3447 H   0  0  0  0  0  0  0  0  0  0  0  0
    4.7452   -4.8485   23.7863 C   0  0  0  0  0  0  0  0  0  0  0  0
    3.8602   -5.2810   23.3073 H   0  0  0  0  0  0  0  0  0  0  0  0
    5.5299   -5.6144   23.7535 H   0  0  0  0  0  0  0  0  0  0  0  0
    5.1872   -3.6318   22.9633 C   0  0  0  0  0  0  0  0  0  0  0  0
    4.3486   -2.9358   22.8731 H   0  0  0  0  0  0  0  0  0  0  0  0
    5.4878   -3.9040   21.9423 H   0  0  0  0  0  0  0  0  0  0  0  0
    6.3208   -2.9461   23.5916 N   0  0  0  0  0  0  0  0  0  0  0  0
    7.1553   -2.2306   22.8150 N   0  0  0  0  0  0  0  0  0  0  0  0
    6.5550   -1.5798   21.7704 N   0  0  0  0  0  0  0  0  0  0  0  0
    7.2860   -0.7930   21.0132 C   0  0  0  0  0  0  0  0  0  0  0  0
    6.5760   -0.0441   19.9193 C   0  0  0  0  0  0  0  0  0  0  0  0
    7.1233    0.0208   18.6210 C   0  0  0  0  0  0  0  0  0  0  0  0
    8.0883   -0.4474   18.4259 H   0  0  0  0  0  0  0  0  0  0  0  0
    6.5398    0.6387   17.5908 N   0  0  0  0  0  0  0  0  0  0  0  0
    5.3889    1.2841   17.8348 C   0  0  0  0  0  0  0  0  0  0  0  0
    4.9583    1.8254   16.9969 H   0  0  0  0  0  0  0  0  0  0  0  0
    4.7597    1.3059   19.0844 C   0  0  0  0  0  0  0  0  0  0  0  0
    3.8509    1.8915   19.2177 H   0  0  0  0  0  0  0  0  0  0  0  0
    5.3587    0.6225   20.1449 C   0  0  0  0  0  0  0  0  0  0  0  0
    4.9076    0.6205   21.1367 H   0  0  0  0  0  0  0  0  0  0  0  0
    8.7734   -0.6251   21.2281 C   0  0  0  0  0  0  0  0  0  0  0  0
    9.4972    0.1143   20.5638 O   0  0  0  0  0  0  0  0  0  0  0  0
    9.3191   -1.4277   22.3070 C   0  0  0  0  0  0  0  0  0  0  0  0
   10.3838   -1.3344   22.4785 H   0  0  0  0  0  0  0  0  0  0  0  0
    8.5064   -2.1826   23.0491 C   0  0  0  0  0  0  0  0  0  0  0  0
    8.8073   -2.8228   23.8806 H   0  0  0  0  0  0  0  0  0  0  0  0
    6.6153   -3.1461   25.0081 C   0  0  0  0  0  0  0  0  0  0  0  0
    7.1563   -2.2649   25.3795 H   0  0  0  0  0  0  0  0  0  0  0  0
    7.2649   -4.0273   25.1368 H   0  0  0  0  0  0  0  0  0  0  0  0
    5.3168   -3.3337   25.8037 C   0  0  0  0  0  0  0  0  0  0  0  0
    4.7531   -2.3953   25.7400 H   0  0  0  0  0  0  0  0  0  0  0  0
    5.5708   -3.4580   26.8632 H   0  0  0  0  0  0  0  0  0  0  0  0
  1  2  1  0
  2  3  1  0
  3  4  1  0
  3  5  1  0
  3  6  1  0
  6  7  1  0
  6  8  1  0
  8  9  1  0
  8 10  1  0
  8 11  1  0
 11 12  1  0
 11 13  1  0
 11 14  1  0
 14 15  1  0
 15 16  1  0
 16 17  2  0
 17 18  1  0
 18 19  2  0
 19 20  1  0
 19 21  1  0
 21 22  2  0
 22 23  1  0
 22 24  1  0
 24 25  1  0
 24 26  2  0
 26 27  1  0
 17 28  1  0
 28 29  2  0
 28 30  1  0
 30 31  1  0
 30 32  2  0
 32 33  1  0
 14 34  1  0
 34 35  1  0
 34 36  1  0
 34 37  1  0
 37 38  1  0
 37 39  1  0
 37  6  1  0
 32 15  1  0
 26 18  1  0
M  END
>  <cnnaffinity>  (1) 
-5.2133

>  <filename>  (1) 
O=c1ccn(N2CCC(CO)CC2)nc1-c1cccnc1

$$$$
