
     RDKit          3D

 29 31  0  0  0  0  0  0  0  0999 V2000
    4.9135    1.7860   16.9931 H   0  0  0  0  0  0  0  0  0  0  0  0
    5.4000    1.2949   17.8331 C   0  0  0  0  0  0  0  0  0  0  0  0
    6.5660    0.6848   17.5678 N   0  0  0  0  0  0  0  0  0  0  0  0
    7.1776    0.0720   18.5872 C   0  0  0  0  0  0  0  0  0  0  0  0
    8.1239   -0.4180   18.3534 H   0  0  0  0  0  0  0  0  0  0  0  0
    6.6720    0.0139   19.8943 C   0  0  0  0  0  0  0  0  0  0  0  0
    7.4020   -0.6983   21.0094 C   0  0  2  0  0  0  0  0  0  0  0  0
    8.1880   -1.3273   20.5845 H   0  0  0  0  0  0  0  0  0  0  0  0
    6.5179   -1.6618   21.8150 C   0  0  0  0  0  0  0  0  0  0  0  0
    5.7987   -2.5515   21.4146 O   0  0  0  0  0  0  0  0  0  0  0  0
    6.7036   -1.3461   23.1220 N   0  0  0  0  0  0  0  0  0  0  0  0
    6.2270   -1.9306   23.7884 H   0  0  0  0  0  0  0  0  0  0  0  0
    7.6821   -0.3323   23.4449 C   0  0  0  0  0  0  0  0  0  0  0  0
    8.5715   -0.7699   23.9189 H   0  0  0  0  0  0  0  0  0  0  0  0
    7.2703    0.4189   24.1367 H   0  0  0  0  0  0  0  0  0  0  0  0
    8.0017    0.2778   22.0646 C   0  0  1  0  0  0  0  0  0  0  0  0
    7.4742    1.2319   21.9833 H   0  0  0  0  0  0  0  0  0  0  0  0
    9.4317    0.6202   21.8303 C   0  0  0  0  0  0  0  0  0  0  0  0
   10.3741   -0.3420   22.0019 O   0  0  0  0  0  0  0  0  0  0  0  0
   11.5801    0.2172   21.7107 C   0  0  0  0  0  0  0  0  0  0  0  0
   12.4419   -0.4306   21.8118 H   0  0  0  0  0  0  0  0  0  0  0  0
   11.4211    1.5105   21.3456 C   0  0  0  0  0  0  0  0  0  0  0  0
   12.1983    2.2064   21.0665 H   0  0  0  0  0  0  0  0  0  0  0  0
   10.0115    1.7719   21.4172 C   0  0  0  0  0  0  0  0  0  0  0  0
    9.4779    2.6901   21.2013 H   0  0  0  0  0  0  0  0  0  0  0  0
    5.4505    0.6524   20.1511 C   0  0  0  0  0  0  0  0  0  0  0  0
    5.0159    0.6263   21.1547 H   0  0  0  0  0  0  0  0  0  0  0  0
    4.8102    1.3090   19.1000 C   0  0  0  0  0  0  0  0  0  0  0  0
    3.8801    1.8396   19.2561 H   0  0  0  0  0  0  0  0  0  0  0  0
  1  2  1  0
  2  3  2  0
  3  4  1  0
  4  5  1  0
  4  6  2  0
  6  7  1  0
  7  8  1  6
  7  9  1  0
  9 10  2  0
  9 11  1  0
 11 12  1  0
 11 13  1  0
 13 14  1  0
 13 15  1  0
 13 16  1  0
 16 17  1  1
 16 18  1  0
 18 19  1  0
 19 20  1  0
 20 21  1  0
 20 22  2  0
 22 23  1  0
 22 24  1  0
 24 25  1  0
  6 26  1  0
 26 27  1  0
 26 28  2  0
 28 29  1  0
 28  2  1  0
 16  7  1  0
 24 18  2  0
M  END
>  <cnnaffinity>  (1) 
-4.43577

>  <filename>  (1) 
O=C1NC[C@@H](c2ccco2)[C@@H]1c1cccnc1

$$$$
