
     RDKit          3D

 43 46  0  0  0  0  0  0  0  0999 V2000
    6.8976    6.6000   25.7801 O   0  0  0  0  0  0  0  0  0  0  0  0
    7.2747    5.5463   25.2925 C   0  0  0  0  0  0  0  0  0  0  0  0
    8.1051    5.3793   24.1080 C   0  0  0  0  0  0  0  0  0  0  0  0
    8.4561    4.1373   23.6764 C   0  0  0  0  0  0  0  0  0  0  0  0
    8.0213    2.9548   24.3735 C   0  0  0  0  0  0  0  0  0  0  0  0
    8.3107    1.6028   23.7977 C   0  0  0  0  0  0  0  0  0  0  0  0
    7.2078    1.2030   22.7879 C   0  0  0  0  0  0  0  0  0  0  0  0
    7.4092   -0.1603   22.2279 C   0  0  0  0  0  0  0  0  0  0  0  0
    7.9209   -1.1301   22.9548 N   0  0  0  0  0  0  0  0  0  0  0  0
    8.1592   -2.1077   22.0546 C   0  0  0  0  0  0  0  0  0  0  0  0
    8.9622   -3.3077   22.4114 C   0  0  0  0  0  0  0  0  0  0  0  0
    8.5288   -4.2045   23.6192 C   0  0  0  0  0  0  0  0  0  0  0  0
    9.9202   -3.9994   24.2726 C   0  0  0  0  0  0  0  0  0  0  0  0
   10.3053   -2.9903   23.1662 C   0  0  0  0  0  0  0  0  0  0  0  0
   11.2331   -3.1633   22.6064 H   0  0  0  0  0  0  0  0  0  0  0  0
   10.3394   -1.9586   23.5378 H   0  0  0  0  0  0  0  0  0  0  0  0
    9.8868   -3.5936   25.2912 H   0  0  0  0  0  0  0  0  0  0  0  0
   10.5471   -4.8978   24.3082 H   0  0  0  0  0  0  0  0  0  0  0  0
    8.2745   -5.2403   23.3571 H   0  0  0  0  0  0  0  0  0  0  0  0
    7.6934   -3.7830   24.1931 H   0  0  0  0  0  0  0  0  0  0  0  0
    9.0213   -3.8508   21.4684 H   0  0  0  0  0  0  0  0  0  0  0  0
    7.7722   -1.8363   20.8219 N   0  0  0  0  0  0  0  0  0  0  0  0
    7.2401   -0.5900   20.9391 N   0  0  0  0  0  0  0  0  0  0  0  0
    6.5725    0.0356   19.8533 C   0  0  0  0  0  0  0  0  0  0  0  0
    5.3646    0.7123   20.0621 C   0  0  0  0  0  0  0  0  0  0  0  0
    4.7835    1.3637   18.9732 C   0  0  0  0  0  0  0  0  0  0  0  0
    5.4237    1.3202   17.7321 C   0  0  0  0  0  0  0  0  0  0  0  0
    6.5599    0.6317   17.5171 N   0  0  0  0  0  0  0  0  0  0  0  0
    7.1079   -0.0127   18.5529 C   0  0  0  0  0  0  0  0  0  0  0  0
    8.0112   -0.5850   18.3502 H   0  0  0  0  0  0  0  0  0  0  0  0
    5.0083    1.8470   16.8770 H   0  0  0  0  0  0  0  0  0  0  0  0
    3.8509    1.9039   19.0819 H   0  0  0  0  0  0  0  0  0  0  0  0
    4.8885    0.7134   21.0433 H   0  0  0  0  0  0  0  0  0  0  0  0
    7.1400    1.9493   21.9885 H   0  0  0  0  0  0  0  0  0  0  0  0
    6.2413    1.2018   23.3056 H   0  0  0  0  0  0  0  0  0  0  0  0
    8.3853    0.8377   24.5834 H   0  0  0  0  0  0  0  0  0  0  0  0
    9.2906    1.6315   23.3018 H   0  0  0  0  0  0  0  0  0  0  0  0
    7.2474    3.1050   25.4886 C   0  0  0  0  0  0  0  0  0  0  0  0
    6.8956    4.3586   25.9118 N   0  0  0  0  0  0  0  0  0  0  0  0
    6.2943    4.5461   26.7005 H   0  0  0  0  0  0  0  0  0  0  0  0
    6.8829    2.2575   26.0702 H   0  0  0  0  0  0  0  0  0  0  0  0
    9.0737    4.0137   22.7806 H   0  0  0  0  0  0  0  0  0  0  0  0
    8.3906    6.2938   23.6100 H   0  0  0  0  0  0  0  0  0  0  0  0
  1  2  2  0
  2  3  1  0
  3  4  2  0
  4  5  1  0
  5  6  1  0
  6  7  1  0
  7  8  1  0
  8  9  2  0
  9 10  1  0
 10 11  1  0
 11 12  1  0
 12 13  1  0
 13 14  1  0
 14 15  1  0
 14 16  1  0
 13 17  1  0
 13 18  1  0
 12 19  1  0
 12 20  1  0
 11 21  1  0
 10 22  2  0
 22 23  1  0
 23 24  1  0
 24 25  2  0
 25 26  1  0
 26 27  2  0
 27 28  1  0
 28 29  2  0
 29 30  1  0
 27 31  1  0
 26 32  1  0
 25 33  1  0
  7 34  1  0
  7 35  1  0
  6 36  1  0
  6 37  1  0
  5 38  2  0
 38 39  1  0
 39 40  1  0
 38 41  1  0
  4 42  1  0
  3 43  1  0
 39  2  1  0
 23  8  1  0
 29 24  1  0
 14 11  1  0
M  END
>  <cnnaffinity>  (1) 
-6.08961

>  <filename>  (1) 
O=c1ccc(CCc2nc(C3CCC3)nn2-c2cccnc2)c[nH]1

$$$$
