
     RDKit          3D

 29 31  0  0  0  0  0  0  0  0999 V2000
    4.8847    1.7983   17.0112 H   0  0  0  0  0  0  0  0  0  0  0  0
    5.3971    1.2971   17.8252 C   0  0  0  0  0  0  0  0  0  0  0  0
    6.5653    0.6839   17.5656 N   0  0  0  0  0  0  0  0  0  0  0  0
    7.1836    0.0661   18.5892 C   0  0  0  0  0  0  0  0  0  0  0  0
    8.1288   -0.4319   18.3992 H   0  0  0  0  0  0  0  0  0  0  0  0
    6.6696    0.0013   19.9027 C   0  0  0  0  0  0  0  0  0  0  0  0
    7.3608   -0.6664   20.9295 N   0  0  0  0  0  0  0  0  0  0  0  0
    6.7695   -1.4297   21.9406 C   0  0  0  0  0  0  0  0  0  0  0  0
    5.7030   -1.6182   22.0431 H   0  0  0  0  0  0  0  0  0  0  0  0
    7.7624   -1.9340   22.7469 C   0  0  0  0  0  0  0  0  0  0  0  0
    7.6033   -2.7888   23.9255 C   0  0  0  0  0  0  0  0  0  0  0  0
    6.3626   -2.8668   24.5741 C   0  0  0  0  0  0  0  0  0  0  0  0
    5.5252   -2.2817   24.2068 H   0  0  0  0  0  0  0  0  0  0  0  0
    6.2035   -3.6768   25.6993 C   0  0  0  0  0  0  0  0  0  0  0  0
    5.2393   -3.7252   26.1955 H   0  0  0  0  0  0  0  0  0  0  0  0
    7.2868   -4.4177   26.1811 C   0  0  0  0  0  0  0  0  0  0  0  0
    7.1649   -5.0488   27.0528 H   0  0  0  0  0  0  0  0  0  0  0  0
    8.5305   -4.3517   25.5455 C   0  0  0  0  0  0  0  0  0  0  0  0
   10.0079   -5.3704   26.2046 Br  0  0  0  0  0  0  0  0  0  0  0  0
    8.6842   -3.5362   24.4210 C   0  0  0  0  0  0  0  0  0  0  0  0
    9.6497   -3.4941   23.9260 H   0  0  0  0  0  0  0  0  0  0  0  0
    8.9608   -1.4838   22.2117 N   0  0  0  0  0  0  0  0  0  0  0  0
    9.8801   -1.6192   22.6097 H   0  0  0  0  0  0  0  0  0  0  0  0
    8.7353   -0.6888   21.1205 C   0  0  0  0  0  0  0  0  0  0  0  0
    9.6089   -0.1149   20.4848 O   0  0  0  0  0  0  0  0  0  0  0  0
    5.4467    0.6324   20.1596 C   0  0  0  0  0  0  0  0  0  0  0  0
    5.0144    0.6255   21.1625 H   0  0  0  0  0  0  0  0  0  0  0  0
    4.8175    1.3007   19.1032 C   0  0  0  0  0  0  0  0  0  0  0  0
    3.8844    1.8317   19.2611 H   0  0  0  0  0  0  0  0  0  0  0  0
  1  2  1  0
  2  3  2  0
  3  4  1  0
  4  5  1  0
  4  6  2  0
  6  7  1  0
  7  8  1  0
  8  9  1  0
  8 10  2  0
 10 11  1  0
 11 12  2  0
 12 13  1  0
 12 14  1  0
 14 15  1  0
 14 16  2  0
 16 17  1  0
 16 18  1  0
 18 19  1  0
 18 20  2  0
 20 21  1  0
 10 22  1  0
 22 23  1  0
 22 24  1  0
 24 25  2  0
  6 26  1  0
 26 27  1  0
 26 28  2  0
 28 29  1  0
 28  2  1  0
 24  7  1  0
 20 11  1  0
M  END
>  <cnnaffinity>  (1) 
-5.47017

>  <filename>  (1) 
O=c1[nH]c(-c2cccc(Br)c2)cn1-c1cccnc1

$$$$
