
     RDKit          3D

 46 49  0  0  0  0  0  0  0  0999 V2000
    8.5277    2.0303   26.9638 O   0  0  0  0  0  0  0  0  0  0  0  0
    8.5492    1.9904   25.7439 C   0  0  0  0  0  0  0  0  0  0  0  0
    7.4185    1.7744   24.8552 C   0  0  0  0  0  0  0  0  0  0  0  0
    7.5945    1.8182   23.5042 C   0  0  0  0  0  0  0  0  0  0  0  0
    8.9149    2.0337   22.9451 C   0  0  0  0  0  0  0  0  0  0  0  0
    9.1261    1.9814   21.4408 C   0  0  0  0  0  0  0  0  0  0  0  0
    9.5353    0.5776   20.8895 C   0  0  0  0  0  0  0  0  0  0  0  0
    8.6494   -0.5432   21.3396 C   0  0  0  0  0  0  0  0  0  0  0  0
    8.8889   -1.3757   22.3341 N   0  0  0  0  0  0  0  0  0  0  0  0
    7.6654   -1.9336   22.5717 C   0  0  0  0  0  0  0  0  0  0  0  0
    7.4027   -2.8406   23.7415 C   0  0  0  0  0  0  0  0  0  0  0  0
    7.2514   -2.0257   25.0626 C   0  0  0  0  0  0  0  0  0  0  0  0
    7.2392   -2.9052   26.2898 C   0  0  0  0  0  0  0  0  0  0  0  0
    7.6427   -4.1777   26.2926 C   0  0  0  0  0  0  0  0  0  0  0  0
    8.1735   -4.8828   25.0692 C   0  0  0  0  0  0  0  0  0  0  0  0
    8.5071   -3.9086   23.9240 C   0  0  0  0  0  0  0  0  0  0  0  0
    8.6683   -4.4614   22.9922 H   0  0  0  0  0  0  0  0  0  0  0  0
    9.4450   -3.3847   24.1538 H   0  0  0  0  0  0  0  0  0  0  0  0
    9.0630   -5.4617   25.3501 H   0  0  0  0  0  0  0  0  0  0  0  0
    7.4330   -5.6266   24.7395 H   0  0  0  0  0  0  0  0  0  0  0  0
    7.5749   -4.7596   27.2112 H   0  0  0  0  0  0  0  0  0  0  0  0
    6.9155   -2.4432   27.2211 H   0  0  0  0  0  0  0  0  0  0  0  0
    6.3357   -1.4188   25.0434 H   0  0  0  0  0  0  0  0  0  0  0  0
    8.0889   -1.3149   25.1440 H   0  0  0  0  0  0  0  0  0  0  0  0
    6.4444   -3.3282   23.5233 H   0  0  0  0  0  0  0  0  0  0  0  0
    6.7104   -1.5339   21.7565 N   0  0  0  0  0  0  0  0  0  0  0  0
    7.3552   -0.6681   20.9267 N   0  0  0  0  0  0  0  0  0  0  0  0
    6.6574   -0.0261   19.8659 C   0  0  0  0  0  0  0  0  0  0  0  0
    5.4389    0.6087   20.1244 C   0  0  0  0  0  0  0  0  0  0  0  0
    4.8192    1.3028   19.0834 C   0  0  0  0  0  0  0  0  0  0  0  0
    5.4147    1.3101   17.8175 C   0  0  0  0  0  0  0  0  0  0  0  0
    6.5488    0.6469   17.5420 N   0  0  0  0  0  0  0  0  0  0  0  0
    7.1488   -0.0081   18.5444 C   0  0  0  0  0  0  0  0  0  0  0  0
    8.0687   -0.5383   18.2910 H   0  0  0  0  0  0  0  0  0  0  0  0
    4.9647    1.8624   16.9955 H   0  0  0  0  0  0  0  0  0  0  0  0
    3.8933    1.8420   19.2438 H   0  0  0  0  0  0  0  0  0  0  0  0
    5.0035    0.5459   21.1224 H   0  0  0  0  0  0  0  0  0  0  0  0
    9.5320    0.6082   19.7979 H   0  0  0  0  0  0  0  0  0  0  0  0
   10.5531    0.3314   21.1985 H   0  0  0  0  0  0  0  0  0  0  0  0
    8.2003    2.2985   20.9449 H   0  0  0  0  0  0  0  0  0  0  0  0
    9.8997    2.7060   21.1743 H   0  0  0  0  0  0  0  0  0  0  0  0
    9.9543    2.2082   23.7117 N   0  0  0  0  0  0  0  0  0  0  0  0
    9.7437    2.1691   25.0614 N   0  0  0  0  0  0  0  0  0  0  0  0
   10.5404    2.1842   25.6858 H   0  0  0  0  0  0  0  0  0  0  0  0
    6.7770    1.6724   22.8119 H   0  0  0  0  0  0  0  0  0  0  0  0
    6.4846    1.5746   25.3616 H   0  0  0  0  0  0  0  0  0  0  0  0
  1  2  2  0
  2  3  1  0
  3  4  2  0
  4  5  1  0
  5  6  1  0
  6  7  1  0
  7  8  1  0
  8  9  2  0
  9 10  1  0
 10 11  1  0
 11 12  1  0
 12 13  1  0
 13 14  2  0
 14 15  1  0
 15 16  1  0
 16 17  1  0
 16 18  1  0
 15 19  1  0
 15 20  1  0
 14 21  1  0
 13 22  1  0
 12 23  1  0
 12 24  1  0
 11 25  1  0
 10 26  2  0
 26 27  1  0
 27 28  1  0
 28 29  2  0
 29 30  1  0
 30 31  2  0
 31 32  1  0
 32 33  2  0
 33 34  1  0
 31 35  1  0
 30 36  1  0
 29 37  1  0
  7 38  1  0
  7 39  1  0
  6 40  1  0
  6 41  1  0
  5 42  2  0
 42 43  1  0
 43 44  1  0
  4 45  1  0
  3 46  1  0
 43  2  1  0
 27  8  1  0
 33 28  1  0
 16 11  1  0
M  END
>  <cnnaffinity>  (1) 
-6.10731

>  <filename>  (1) 
O=c1ccc(CCc2nc(C3CC=CCC3)nn2-c2cccnc2)n[nH]1

$$$$
