
     RDKit          3D

 32 34  0  0  0  0  0  0  0  0999 V2000
    4.9113    1.7887   16.9865 H   0  0  0  0  0  0  0  0  0  0  0  0
    5.3968    1.2991   17.8287 C   0  0  0  0  0  0  0  0  0  0  0  0
    6.5592    0.6828   17.5632 N   0  0  0  0  0  0  0  0  0  0  0  0
    7.1847    0.0823   18.5826 C   0  0  0  0  0  0  0  0  0  0  0  0
    8.1172   -0.4285   18.3579 H   0  0  0  0  0  0  0  0  0  0  0  0
    6.6823    0.0382   19.8976 C   0  0  0  0  0  0  0  0  0  0  0  0
    7.3766   -0.6658   20.9553 N   0  0  0  0  0  0  0  0  0  0  0  0
    8.6612   -0.2878   21.2947 C   0  0  0  0  0  0  0  0  0  0  0  0
    9.0570    0.5465   20.7086 H   0  0  0  0  0  0  0  0  0  0  0  0
    9.3524   -0.9014   22.2945 C   0  0  0  0  0  0  0  0  0  0  0  0
   10.3633   -0.5863   22.5401 H   0  0  0  0  0  0  0  0  0  0  0  0
    8.7278   -1.9728   23.0145 C   0  0  0  0  0  0  0  0  0  0  0  0
    9.4756   -2.5718   23.9989 O   0  0  0  0  0  0  0  0  0  0  0  0
    8.9179   -3.1629   25.1213 C   0  0  0  0  0  0  0  0  0  0  0  0
    9.6180   -4.2350   25.6932 C   0  0  0  0  0  0  0  0  0  0  0  0
   10.5413   -4.5775   25.2389 H   0  0  0  0  0  0  0  0  0  0  0  0
    9.1320   -4.8537   26.8502 C   0  0  0  0  0  0  0  0  0  0  0  0
    9.6520   -5.6922   27.3020 H   0  0  0  0  0  0  0  0  0  0  0  0
    7.9498   -4.3927   27.4362 C   0  0  0  0  0  0  0  0  0  0  0  0
    7.2914   -5.1896   28.8370 Cl  0  0  0  0  0  0  0  0  0  0  0  0
    7.2688   -3.3031   26.8949 C   0  0  0  0  0  0  0  0  0  0  0  0
    6.3541   -2.9552   27.3637 H   0  0  0  0  0  0  0  0  0  0  0  0
    7.7569   -2.6833   25.7420 C   0  0  0  0  0  0  0  0  0  0  0  0
    7.2368   -1.8317   25.3186 H   0  0  0  0  0  0  0  0  0  0  0  0
    7.4833   -2.3999   22.6608 C   0  0  0  0  0  0  0  0  0  0  0  0
    6.9735   -3.2175   23.1473 H   0  0  0  0  0  0  0  0  0  0  0  0
    6.7199   -1.7701   21.6186 C   0  0  0  0  0  0  0  0  0  0  0  0
    5.6092   -2.1465   21.2894 O   0  0  0  0  0  0  0  0  0  0  0  0
    5.4533    0.6558   20.1580 C   0  0  0  0  0  0  0  0  0  0  0  0
    5.0237    0.6069   21.1612 H   0  0  0  0  0  0  0  0  0  0  0  0
    4.8123    1.3140   19.1010 C   0  0  0  0  0  0  0  0  0  0  0  0
    3.8759    1.8408   19.2562 H   0  0  0  0  0  0  0  0  0  0  0  0
  1  2  1  0
  2  3  2  0
  3  4  1  0
  4  5  1  0
  4  6  2  0
  6  7  1  0
  7  8  1  0
  8  9  1  0
  8 10  2  0
 10 11  1  0
 10 12  1  0
 12 13  1  0
 13 14  1  0
 14 15  2  0
 15 16  1  0
 15 17  1  0
 17 18  1  0
 17 19  2  0
 19 20  1  0
 19 21  1  0
 21 22  1  0
 21 23  2  0
 23 24  1  0
 12 25  2  0
 25 26  1  0
 25 27  1  0
 27 28  2  0
  6 29  1  0
 29 30  1  0
 29 31  2  0
 31 32  1  0
 31  2  1  0
 27  7  1  0
 23 14  1  0
M  END
>  <cnnaffinity>  (1) 
-4.98121

>  <filename>  (1) 
O=c1cc(Oc2ccc(Cl)cc2)ccn1-c1cccnc1

$$$$
