
     RDKit          3D

 36 38  0  0  0  0  0  0  0  0999 V2000
    5.0038    1.8289   17.0683 H   0  0  0  0  0  0  0  0  0  0  0  0
    5.4802    1.2717   17.8723 C   0  0  0  0  0  0  0  0  0  0  0  0
    6.6548    0.6936   17.5753 N   0  0  0  0  0  0  0  0  0  0  0  0
    7.2703    0.0137   18.5493 C   0  0  0  0  0  0  0  0  0  0  0  0
    8.2315   -0.4334   18.3033 H   0  0  0  0  0  0  0  0  0  0  0  0
    6.7493   -0.1558   19.8524 C   0  0  0  0  0  0  0  0  0  0  0  0
    7.4776   -0.8532   20.8431 N   0  0  0  0  0  0  0  0  0  0  0  0
    6.9165   -1.6653   21.8058 C   0  0  0  0  0  0  0  0  0  0  0  0
    5.7564   -2.0523   21.8147 O   0  0  0  0  0  0  0  0  0  0  0  0
    7.8899   -1.9622   22.7215 N   0  0  0  0  0  0  0  0  0  0  0  0
    7.5583   -2.4951   24.0231 C   0  0  0  0  0  0  0  0  0  0  0  0
    8.4609   -2.8909   24.5108 H   0  0  0  0  0  0  0  0  0  0  0  0
    7.1448   -1.7096   24.6788 H   0  0  0  0  0  0  0  0  0  0  0  0
    6.5753   -3.5230   23.8992 N   0  0  0  0  0  0  0  0  0  0  0  0
    5.8484   -3.1190   23.3091 H   0  0  0  0  0  0  0  0  0  0  0  0
    6.9178   -4.7731   23.3698 C   0  0  0  0  0  0  0  0  0  0  0  0
    8.2125   -5.1891   23.0213 C   0  0  0  0  0  0  0  0  0  0  0  0
    9.0575   -4.5161   23.1604 H   0  0  0  0  0  0  0  0  0  0  0  0
    8.3920   -6.4686   22.4810 C   0  0  0  0  0  0  0  0  0  0  0  0
    9.3779   -6.8058   22.1776 H   0  0  0  0  0  0  0  0  0  0  0  0
    7.3107   -7.3346   22.3024 C   0  0  0  0  0  0  0  0  0  0  0  0
    7.4929   -8.3353   21.9297 H   0  0  0  0  0  0  0  0  0  0  0  0
    6.0233   -6.9122   22.6358 C   0  0  0  0  0  0  0  0  0  0  0  0
    5.1669   -7.5641   22.5185 H   0  0  0  0  0  0  0  0  0  0  0  0
    5.8333   -5.6397   23.1581 C   0  0  0  0  0  0  0  0  0  0  0  0
    4.8513   -5.2798   23.4423 H   0  0  0  0  0  0  0  0  0  0  0  0
    9.1589   -1.3294   22.4155 C   0  0  0  0  0  0  0  0  0  0  0  0
    9.9742   -2.0607   22.3882 H   0  0  0  0  0  0  0  0  0  0  0  0
    9.4299   -0.5602   23.1489 H   0  0  0  0  0  0  0  0  0  0  0  0
    8.9117   -0.7057   21.0327 C   0  0  0  0  0  0  0  0  0  0  0  0
    9.1788    0.3531   21.0008 H   0  0  0  0  0  0  0  0  0  0  0  0
    9.4662   -1.2280   20.2446 H   0  0  0  0  0  0  0  0  0  0  0  0
    5.5057    0.4339   20.1412 C   0  0  0  0  0  0  0  0  0  0  0  0
    5.0643    0.3160   21.1314 H   0  0  0  0  0  0  0  0  0  0  0  0
    4.8788    1.1762   19.1339 C   0  0  0  0  0  0  0  0  0  0  0  0
    3.9399    1.6892   19.3157 H   0  0  0  0  0  0  0  0  0  0  0  0
  1  2  1  0
  2  3  2  0
  3  4  1  0
  4  5  1  0
  4  6  2  0
  6  7  1  0
  7  8  1  0
  8  9  2  0
  8 10  1  0
 10 11  1  0
 11 12  1  0
 11 13  1  0
 11 14  1  0
 14 15  1  0
 14 16  1  0
 16 17  2  0
 17 18  1  0
 17 19  1  0
 19 20  1  0
 19 21  2  0
 21 22  1  0
 21 23  1  0
 23 24  1  0
 23 25  2  0
 25 26  1  0
 10 27  1  0
 27 28  1  0
 27 29  1  0
 27 30  1  0
 30 31  1  0
 30 32  1  0
  6 33  1  0
 33 34  1  0
 33 35  2  0
 35 36  1  0
 35  2  1  0
 30  7  1  0
 25 16  1  0
M  END
>  <cnnaffinity>  (1) 
-5.04498

>  <filename>  (1) 
O=C1N(CNc2ccccc2)CCN1c1cccnc1

$$$$
