
     RDKit          3D

 27 29  0  0  0  0  0  0  0  0999 V2000
    4.9165    1.8052   16.9023 H   0  0  0  0  0  0  0  0  0  0  0  0
    5.3731    1.3717   17.7860 C   0  0  0  0  0  0  0  0  0  0  0  0
    6.5784    0.8084   17.5980 N   0  0  0  0  0  0  0  0  0  0  0  0
    7.1652    0.2485   18.6614 C   0  0  0  0  0  0  0  0  0  0  0  0
    8.1382   -0.2209   18.5096 H   0  0  0  0  0  0  0  0  0  0  0  0
    6.5904    0.2275   19.9476 C   0  0  0  0  0  0  0  0  0  0  0  0
    7.2158   -0.4943   21.0123 N   0  0  0  0  0  0  0  0  0  0  0  0
    7.2901    0.1052   22.2320 N   0  0  0  0  0  0  0  0  0  0  0  0
    7.9559   -0.4992   23.1980 C   0  0  0  0  0  0  0  0  0  0  0  0
    7.9049    0.1404   24.5454 C   0  0  0  0  0  0  0  0  0  0  0  0
    6.9564    1.0683   24.8978 C   0  0  0  0  0  0  0  0  0  0  0  0
    6.2077    1.5264   24.2674 H   0  0  0  0  0  0  0  0  0  0  0  0
    7.0601    1.5169   26.5470 S   0  0  0  0  0  0  0  0  0  0  0  0
    8.4118    0.4877   26.7937 C   0  0  0  0  0  0  0  0  0  0  0  0
    8.8634    0.4028   27.7705 H   0  0  0  0  0  0  0  0  0  0  0  0
    8.7696   -0.1670   25.6636 C   0  0  0  0  0  0  0  0  0  0  0  0
    9.6183   -0.8385   25.5968 H   0  0  0  0  0  0  0  0  0  0  0  0
    8.6841   -1.8230   22.9884 C   0  0  0  0  0  0  0  0  0  0  0  0
    9.4274   -2.3658   23.8012 O   0  0  0  0  0  0  0  0  0  0  0  0
    8.3739   -2.4531   21.7101 C   0  0  0  0  0  0  0  0  0  0  0  0
    8.7929   -3.4320   21.5248 H   0  0  0  0  0  0  0  0  0  0  0  0
    7.6360   -1.7896   20.8064 C   0  0  0  0  0  0  0  0  0  0  0  0
    7.3040   -2.2141   19.8621 H   0  0  0  0  0  0  0  0  0  0  0  0
    5.3667    0.8713   20.1468 C   0  0  0  0  0  0  0  0  0  0  0  0
    4.9525    0.9117   21.1531 H   0  0  0  0  0  0  0  0  0  0  0  0
    4.7337    1.4281   19.0309 C   0  0  0  0  0  0  0  0  0  0  0  0
    3.7680    1.9128   19.1168 H   0  0  0  0  0  0  0  0  0  0  0  0
  1  2  1  0
  2  3  2  0
  3  4  1  0
  4  5  1  0
  4  6  2  0
  6  7  1  0
  7  8  1  0
  8  9  2  0
  9 10  1  0
 10 11  2  0
 11 12  1  0
 11 13  1  0
 13 14  1  0
 14 15  1  0
 14 16  2  0
 16 17  1  0
  9 18  1  0
 18 19  2  0
 18 20  1  0
 20 21  1  0
 20 22  2  0
 22 23  1  0
  6 24  1  0
 24 25  1  0
 24 26  2  0
 26 27  1  0
 26  2  1  0
 22  7  1  0
 16 10  1  0
M  END
>  <cnnaffinity>  (1) 
-4.88024

>  <filename>  (1) 
O=c1ccn(-c2cccnc2)nc1-c1ccsc1

$$$$
