
     RDKit          3D

 45 48  0  0  0  0  0  0  0  0999 V2000
    3.4773    3.7899   27.0391 O   0  0  0  0  0  0  0  0  0  0  0  0
    4.4345    3.2558   26.5019 C   0  0  0  0  0  0  0  0  0  0  0  0
    5.8359    3.6366   26.6122 C   0  0  0  0  0  0  0  0  0  0  0  0
    6.7962    2.9700   25.9091 C   0  0  0  0  0  0  0  0  0  0  0  0
    6.4605    1.8715   25.0352 C   0  0  0  0  0  0  0  0  0  0  0  0
    7.5052    1.2091   24.1788 C   0  0  0  0  0  0  0  0  0  0  0  0
    7.6262    1.8097   22.7472 C   0  0  0  0  0  0  0  0  0  0  0  0
    8.6312    1.0335   21.9646 C   0  0  0  0  0  0  0  0  0  0  0  0
    9.9378    1.1781   22.0843 N   0  0  0  0  0  0  0  0  0  0  0  0
   10.4261    0.0028   21.6173 C   0  0  0  0  0  0  0  0  0  0  0  0
   11.8664   -0.3662   21.7372 C   0  0  0  0  0  0  0  0  0  0  0  0
   12.3135   -1.6157   21.2790 C   0  0  0  0  0  0  0  0  0  0  0  0
   13.6609   -1.9492   21.3851 C   0  0  0  0  0  0  0  0  0  0  0  0
   14.5561   -1.1540   21.9746 N   0  0  0  0  0  0  0  0  0  0  0  0
   14.1411    0.0340   22.4254 C   0  0  0  0  0  0  0  0  0  0  0  0
   12.8253    0.4873   22.3181 C   0  0  0  0  0  0  0  0  0  0  0  0
   12.5731    1.4912   22.6412 H   0  0  0  0  0  0  0  0  0  0  0  0
   14.8928    0.6598   22.8948 H   0  0  0  0  0  0  0  0  0  0  0  0
   14.0608   -2.8678   20.9660 H   0  0  0  0  0  0  0  0  0  0  0  0
   11.5947   -2.3005   20.8618 H   0  0  0  0  0  0  0  0  0  0  0  0
    9.4964   -0.8284   21.1654 N   0  0  0  0  0  0  0  0  0  0  0  0
    8.3516   -0.1468   21.3670 N   0  0  0  0  0  0  0  0  0  0  0  0
    7.0659   -0.7278   20.9900 C   0  0  0  0  0  0  0  0  0  0  0  0
    6.3772    0.0148   19.8627 C   0  0  0  0  0  0  0  0  0  0  0  0
    5.1605    0.6917   20.0024 C   0  0  0  0  0  0  0  0  0  0  0  0
    4.6538    1.4024   18.9084 C   0  0  0  0  0  0  0  0  0  0  0  0
    5.3753    1.3923   17.7105 C   0  0  0  0  0  0  0  0  0  0  0  0
    6.5242    0.7183   17.5436 N   0  0  0  0  0  0  0  0  0  0  0  0
    7.0036    0.0626   18.6059 C   0  0  0  0  0  0  0  0  0  0  0  0
    7.9453   -0.4627   18.4581 H   0  0  0  0  0  0  0  0  0  0  0  0
    5.0205    1.9516   16.8461 H   0  0  0  0  0  0  0  0  0  0  0  0
    3.7375    1.9819   18.9765 H   0  0  0  0  0  0  0  0  0  0  0  0
    4.6163    0.6796   20.9497 H   0  0  0  0  0  0  0  0  0  0  0  0
    7.2861   -1.7584   20.6966 H   0  0  0  0  0  0  0  0  0  0  0  0
    6.4235   -0.7725   21.8793 H   0  0  0  0  0  0  0  0  0  0  0  0
    6.6596    1.8048   22.2306 H   0  0  0  0  0  0  0  0  0  0  0  0
    7.9667    2.8464   22.8056 H   0  0  0  0  0  0  0  0  0  0  0  0
    8.4879    1.2765   24.6653 H   0  0  0  0  0  0  0  0  0  0  0  0
    7.2915    0.1322   24.0869 H   0  0  0  0  0  0  0  0  0  0  0  0
    5.1539    1.4804   24.9696 C   0  0  0  0  0  0  0  0  0  0  0  0
    4.1959    2.1547   25.6860 N   0  0  0  0  0  0  0  0  0  0  0  0
    3.2047    1.9655   25.6712 H   0  0  0  0  0  0  0  0  0  0  0  0
    4.8209    0.6305   24.3742 H   0  0  0  0  0  0  0  0  0  0  0  0
    7.8444    3.2604   26.0114 H   0  0  0  0  0  0  0  0  0  0  0  0
    6.0302    4.4740   27.2681 H   0  0  0  0  0  0  0  0  0  0  0  0
  1  2  2  0
  2  3  1  0
  3  4  2  0
  4  5  1  0
  5  6  1  0
  6  7  1  0
  7  8  1  0
  8  9  2  0
  9 10  1  0
 10 11  1  0
 11 12  2  0
 12 13  1  0
 13 14  2  0
 14 15  1  0
 15 16  2  0
 16 17  1  0
 15 18  1  0
 13 19  1  0
 12 20  1  0
 10 21  2  0
 21 22  1  0
 22 23  1  0
 23 24  1  0
 24 25  2  0
 25 26  1  0
 26 27  2  0
 27 28  1  0
 28 29  2  0
 29 30  1  0
 27 31  1  0
 26 32  1  0
 25 33  1  0
 23 34  1  0
 23 35  1  0
  7 36  1  0
  7 37  1  0
  6 38  1  0
  6 39  1  0
  5 40  2  0
 40 41  1  0
 41 42  1  0
 40 43  1  0
  4 44  1  0
  3 45  1  0
 41  2  1  0
 22  8  1  0
 29 24  1  0
 16 11  1  0
M  END
>  <cnnaffinity>  (1) 
-6.52345

>  <filename>  (1) 
O=c1ccc(CCc2nc(-c3ccncc3)nn2Cc2cccnc2)c[nH]1

$$$$
