
     RDKit          3D

 43 46  0  0  0  0  0  0  0  0999 V2000
   13.5904    1.8319   24.1739 O   0  0  0  0  0  0  0  0  0  0  0  0
   12.8544    0.9359   23.8222 C   0  0  0  0  0  0  0  0  0  0  0  0
   12.0270    0.1510   24.5808 N   0  0  0  0  0  0  0  0  0  0  0  0
   11.1720   -0.5962   23.7726 C   0  0  0  0  0  0  0  0  0  0  0  0
   11.5395   -0.3558   22.4956 C   0  0  0  0  0  0  0  0  0  0  0  0
   10.8253   -0.4913   21.2073 C   0  0  0  0  0  0  0  0  0  0  0  0
   10.0165    0.8084   20.9255 C   0  0  0  0  0  0  0  0  0  0  0  0
    8.9398    1.0549   21.9293 C   0  0  0  0  0  0  0  0  0  0  0  0
    8.9467    1.9046   22.9428 N   0  0  0  0  0  0  0  0  0  0  0  0
    7.8279    1.5576   23.6392 C   0  0  0  0  0  0  0  0  0  0  0  0
    7.4286    2.2038   24.8907 C   0  0  0  0  0  0  0  0  0  0  0  0
    6.1965    1.9398   25.5333 C   0  0  0  0  0  0  0  0  0  0  0  0
    5.9348    2.6176   26.7141 C   0  0  0  0  0  0  0  0  0  0  0  0
    4.7792    2.4200   27.3649 F   0  0  0  0  0  0  0  0  0  0  0  0
    6.8813    3.5124   27.2307 C   0  0  0  0  0  0  0  0  0  0  0  0
    8.0507    3.7524   26.6242 N   0  0  0  0  0  0  0  0  0  0  0  0
    8.3208    3.1140   25.4774 C   0  0  0  0  0  0  0  0  0  0  0  0
    9.2818    3.3340   25.0155 H   0  0  0  0  0  0  0  0  0  0  0  0
    6.6722    4.0361   28.1603 H   0  0  0  0  0  0  0  0  0  0  0  0
    5.4701    1.2313   25.1361 H   0  0  0  0  0  0  0  0  0  0  0  0
    7.1338    0.5743   23.0945 N   0  0  0  0  0  0  0  0  0  0  0  0
    7.8635    0.2406   22.0098 N   0  0  0  0  0  0  0  0  0  0  0  0
    7.3304   -0.7001   21.0257 C   0  0  0  0  0  0  0  0  0  0  0  0
    6.6310   -0.0084   19.8782 C   0  0  0  0  0  0  0  0  0  0  0  0
    5.4355    0.6748   20.1201 C   0  0  0  0  0  0  0  0  0  0  0  0
    4.8117    1.3284   19.0589 C   0  0  0  0  0  0  0  0  0  0  0  0
    5.4204    1.2898   17.8003 C   0  0  0  0  0  0  0  0  0  0  0  0
    6.5657    0.6391   17.5492 N   0  0  0  0  0  0  0  0  0  0  0  0
    7.1465    0.0040   18.5747 C   0  0  0  0  0  0  0  0  0  0  0  0
    8.0707   -0.5310   18.3450 H   0  0  0  0  0  0  0  0  0  0  0  0
    4.9676    1.8020   16.9555 H   0  0  0  0  0  0  0  0  0  0  0  0
    3.8829    1.8687   19.1959 H   0  0  0  0  0  0  0  0  0  0  0  0
    5.0232    0.6968   21.1316 H   0  0  0  0  0  0  0  0  0  0  0  0
    8.1411   -1.3398   20.6624 H   0  0  0  0  0  0  0  0  0  0  0  0
    6.6299   -1.3314   21.5799 H   0  0  0  0  0  0  0  0  0  0  0  0
   10.6803    1.6788   20.9169 H   0  0  0  0  0  0  0  0  0  0  0  0
    9.5685    0.7553   19.9316 H   0  0  0  0  0  0  0  0  0  0  0  0
   10.1773   -1.3719   21.2410 H   0  0  0  0  0  0  0  0  0  0  0  0
   11.5701   -0.6581   20.4257 H   0  0  0  0  0  0  0  0  0  0  0  0
   12.6363    0.5081   22.5424 N   0  0  0  0  0  0  0  0  0  0  0  0
   12.9855    1.1010   21.8107 H   0  0  0  0  0  0  0  0  0  0  0  0
   10.3812   -1.2242   24.1609 H   0  0  0  0  0  0  0  0  0  0  0  0
   11.9889    0.3361   25.5673 H   0  0  0  0  0  0  0  0  0  0  0  0
  1  2  2  0
  2  3  1  0
  3  4  1  0
  4  5  2  0
  5  6  1  0
  6  7  1  0
  7  8  1  0
  8  9  2  0
  9 10  1  0
 10 11  1  0
 11 12  2  0
 12 13  1  0
 13 14  1  0
 13 15  2  0
 15 16  1  0
 16 17  2  0
 17 18  1  0
 15 19  1  0
 12 20  1  0
 10 21  2  0
 21 22  1  0
 22 23  1  0
 23 24  1  0
 24 25  2  0
 25 26  1  0
 26 27  2  0
 27 28  1  0
 28 29  2  0
 29 30  1  0
 27 31  1  0
 26 32  1  0
 25 33  1  0
 23 34  1  0
 23 35  1  0
  7 36  1  0
  7 37  1  0
  6 38  1  0
  6 39  1  0
  5 40  1  0
 40 41  1  0
  4 42  1  0
  3 43  1  0
 40  2  1  0
 22  8  1  0
 29 24  1  0
 17 11  1  0
M  END
>  <cnnaffinity>  (1) 
-5.95672

>  <filename>  (1) 
O=c1[nH]cc(CCc2nc(-c3cncc(F)c3)nn2Cc2cccnc2)[nH]1

$$$$
