
     RDKit          3D

 35 38  0  0  0  0  0  0  0  0999 V2000
    5.0878    1.8846   16.9617 H   0  0  0  0  0  0  0  0  0  0  0  0
    5.5351    1.3359   17.7887 C   0  0  0  0  0  0  0  0  0  0  0  0
    6.7196    0.7578   17.5351 N   0  0  0  0  0  0  0  0  0  0  0  0
    7.3050    0.0914   18.5348 C   0  0  0  0  0  0  0  0  0  0  0  0
    8.3006   -0.3066   18.3436 H   0  0  0  0  0  0  0  0  0  0  0  0
    6.7030   -0.1070   19.7912 C   0  0  0  0  0  0  0  0  0  0  0  0
    7.4239   -0.9345   20.8009 C   0  0  0  0  0  0  0  0  0  0  0  0
    8.7144   -0.7179   20.8520 N   0  0  0  0  0  0  0  0  0  0  0  0
    9.4252   -1.2151   21.8987 N   0  0  0  0  0  0  0  0  0  0  0  0
   10.8250   -0.8838   21.9442 C   0  0  0  0  0  0  0  0  0  0  0  0
   11.7449   -1.9165   21.9786 C   0  0  0  0  0  0  0  0  0  0  0  0
   11.3548   -2.9226   21.9241 H   0  0  0  0  0  0  0  0  0  0  0  0
   13.1331   -1.6712   22.0946 C   0  0  0  0  0  0  0  0  0  0  0  0
   13.8313   -2.5082   22.0617 H   0  0  0  0  0  0  0  0  0  0  0  0
   13.5870   -0.3886   22.2764 C   0  0  0  0  0  0  0  0  0  0  0  0
   14.6437   -0.1823   22.4261 H   0  0  0  0  0  0  0  0  0  0  0  0
   12.6801    0.7082   22.2887 C   0  0  0  0  0  0  0  0  0  0  0  0
   13.1142    2.0458   22.5286 C   0  0  0  0  0  0  0  0  0  0  0  0
   14.1711    2.2293   22.7312 H   0  0  0  0  0  0  0  0  0  0  0  0
   12.2026    3.0668   22.4646 C   0  0  0  0  0  0  0  0  0  0  0  0
   12.5051    4.1044   22.5726 H   0  0  0  0  0  0  0  0  0  0  0  0
   10.8363    2.7522   22.2222 C   0  0  0  0  0  0  0  0  0  0  0  0
   10.1031    3.5591   22.1991 H   0  0  0  0  0  0  0  0  0  0  0  0
   10.3821    1.5338   22.0360 N   0  0  0  0  0  0  0  0  0  0  0  0
   11.2705    0.4857   22.0534 C   0  0  0  0  0  0  0  0  0  0  0  0
    8.8275   -1.9465   22.9066 C   0  0  0  0  0  0  0  0  0  0  0  0
    9.4724   -2.2019   23.7502 H   0  0  0  0  0  0  0  0  0  0  0  0
    7.5345   -2.3143   22.8449 C   0  0  0  0  0  0  0  0  0  0  0  0
    7.0718   -2.9221   23.6049 H   0  0  0  0  0  0  0  0  0  0  0  0
    6.7308   -1.9585   21.6868 C   0  0  0  0  0  0  0  0  0  0  0  0
    5.6341   -2.4640   21.4767 O   0  0  0  0  0  0  0  0  0  0  0  0
    5.4727    0.5200   20.0465 C   0  0  0  0  0  0  0  0  0  0  0  0
    4.9999    0.4300   21.0265 H   0  0  0  0  0  0  0  0  0  0  0  0
    4.8856    1.2654   19.0245 C   0  0  0  0  0  0  0  0  0  0  0  0
    3.9505    1.7958   19.1701 H   0  0  0  0  0  0  0  0  0  0  0  0
  1  2  1  0
  2  3  2  0
  3  4  1  0
  4  5  1  0
  4  6  2  0
  6  7  1  0
  7  8  2  0
  8  9  1  0
  9 10  1  0
 10 11  2  0
 11 12  1  0
 11 13  1  0
 13 14  1  0
 13 15  2  0
 15 16  1  0
 15 17  1  0
 17 18  2  0
 18 19  1  0
 18 20  1  0
 20 21  1  0
 20 22  2  0
 22 23  1  0
 22 24  1  0
 24 25  2  0
  9 26  1  0
 26 27  1  0
 26 28  2  0
 28 29  1  0
 28 30  1  0
 30 31  2  0
  6 32  1  0
 32 33  1  0
 32 34  2  0
 34 35  1  0
 34  2  1  0
 30  7  1  0
 25 10  1  0
 25 17  1  0
M  END
>  <cnnaffinity>  (1) 
-6.21696

>  <filename>  (1) 
O=c1ccn(-c2cccc3cccnc23)nc1-c1cccnc1

$$$$
