
     RDKit          3D

 46 49  0  0  0  0  0  0  0  0999 V2000
    5.0295    1.7265   23.8725 O   0  0  0  0  0  0  0  0  0  0  0  0
    6.0941    1.6412   24.4646 C   0  0  0  0  0  0  0  0  0  0  0  0
    6.1378    1.1674   25.9323 C   0  0  0  0  0  0  0  0  0  0  0  0
    7.3315    1.4468   26.6398 O   0  0  0  0  0  0  0  0  0  0  0  0
    8.4718    1.0527   25.8909 C   0  0  0  0  0  0  0  0  0  0  0  0
    8.5686    1.8929   24.6175 C   0  0  0  0  0  0  0  0  0  0  0  0
    7.3209    1.8118   23.8447 N   0  0  0  0  0  0  0  0  0  0  0  0
    7.4205    1.4928   22.4168 C   0  0  0  0  0  0  0  0  0  0  0  0
    7.4660    0.0069   22.1320 C   0  0  0  0  0  0  0  0  0  0  0  0
    8.0267   -0.9206   22.8832 N   0  0  0  0  0  0  0  0  0  0  0  0
    7.8520   -2.0654   22.1717 C   0  0  0  0  0  0  0  0  0  0  0  0
    8.1916   -3.4510   22.6727 C   0  0  0  0  0  0  0  0  0  0  0  0
    9.3903   -3.4482   23.6504 C   0  0  0  0  0  0  0  0  0  0  0  0
    9.0151   -2.9724   25.0368 C   0  0  0  0  0  0  0  0  0  0  0  0
    7.7594   -2.9479   25.4903 C   0  0  0  0  0  0  0  0  0  0  0  0
    6.5690   -3.3878   24.6660 C   0  0  0  0  0  0  0  0  0  0  0  0
    6.9648   -4.1128   23.3608 C   0  0  0  0  0  0  0  0  0  0  0  0
    6.1287   -4.1354   22.6503 H   0  0  0  0  0  0  0  0  0  0  0  0
    7.2269   -5.1546   23.5927 H   0  0  0  0  0  0  0  0  0  0  0  0
    5.9436   -4.0459   25.2799 H   0  0  0  0  0  0  0  0  0  0  0  0
    5.9444   -2.5077   24.4512 H   0  0  0  0  0  0  0  0  0  0  0  0
    7.5469   -2.5622   26.4934 H   0  0  0  0  0  0  0  0  0  0  0  0
    9.8321   -2.6495   25.6781 H   0  0  0  0  0  0  0  0  0  0  0  0
    9.7975   -4.4637   23.7592 H   0  0  0  0  0  0  0  0  0  0  0  0
   10.2086   -2.8430   23.2444 H   0  0  0  0  0  0  0  0  0  0  0  0
    8.4423   -4.0198   21.7712 H   0  0  0  0  0  0  0  0  0  0  0  0
    7.2833   -1.8908   20.9909 N   0  0  0  0  0  0  0  0  0  0  0  0
    7.0071   -0.5580   20.9806 N   0  0  0  0  0  0  0  0  0  0  0  0
    6.3943    0.0592   19.8675 C   0  0  0  0  0  0  0  0  0  0  0  0
    5.2726    0.8872   19.9952 C   0  0  0  0  0  0  0  0  0  0  0  0
    4.7695    1.4796   18.8301 C   0  0  0  0  0  0  0  0  0  0  0  0
    5.4084    1.2346   17.6099 C   0  0  0  0  0  0  0  0  0  0  0  0
    6.4821    0.4339   17.4894 N   0  0  0  0  0  0  0  0  0  0  0  0
    6.9503   -0.1491   18.5961 C   0  0  0  0  0  0  0  0  0  0  0  0
    7.8126   -0.8021   18.4956 H   0  0  0  0  0  0  0  0  0  0  0  0
    5.0481    1.6925   16.6901 H   0  0  0  0  0  0  0  0  0  0  0  0
    3.9232    2.1556   18.8731 H   0  0  0  0  0  0  0  0  0  0  0  0
    4.8177    1.0643   20.9752 H   0  0  0  0  0  0  0  0  0  0  0  0
    8.3354    1.9476   22.0182 H   0  0  0  0  0  0  0  0  0  0  0  0
    6.5906    1.9719   21.8955 H   0  0  0  0  0  0  0  0  0  0  0  0
    8.7944    2.9352   24.8872 H   0  0  0  0  0  0  0  0  0  0  0  0
    9.3861    1.5151   23.9915 H   0  0  0  0  0  0  0  0  0  0  0  0
    9.3469    1.2123   26.5258 H   0  0  0  0  0  0  0  0  0  0  0  0
    8.4265   -0.0203   25.6398 H   0  0  0  0  0  0  0  0  0  0  0  0
    5.9631    0.0776   25.8922 H   0  0  0  0  0  0  0  0  0  0  0  0
    5.3118    1.6278   26.4747 H   0  0  0  0  0  0  0  0  0  0  0  0
  1  2  2  0
  2  3  1  0
  3  4  1  0
  4  5  1  0
  5  6  1  0
  6  7  1  0
  7  8  1  0
  8  9  1  0
  9 10  2  0
 10 11  1  0
 11 12  1  0
 12 13  1  0
 13 14  1  0
 14 15  2  0
 15 16  1  0
 16 17  1  0
 17 18  1  0
 17 19  1  0
 16 20  1  0
 16 21  1  0
 15 22  1  0
 14 23  1  0
 13 24  1  0
 13 25  1  0
 12 26  1  0
 11 27  2  0
 27 28  1  0
 28 29  1  0
 29 30  2  0
 30 31  1  0
 31 32  2  0
 32 33  1  0
 33 34  2  0
 34 35  1  0
 32 36  1  0
 31 37  1  0
 30 38  1  0
  8 39  1  0
  8 40  1  0
  6 41  1  0
  6 42  1  0
  5 43  1  0
  5 44  1  0
  3 45  1  0
  3 46  1  0
  7  2  1  0
 28  9  1  0
 34 29  1  0
 17 12  1  0
M  END
>  <cnnaffinity>  (1) 
-5.66595

>  <filename>  (1) 
O=C1COCCN1Cc1nc(C2CC=CCC2)nn1-c1cccnc1

$$$$
