
     RDKit          3D

 31 33  0  0  0  0  0  0  0  0999 V2000
    2.8577   -5.5709   23.8396 H   0  0  0  0  0  0  0  0  0  0  0  0
    3.3417   -5.0704   23.1736 O   0  0  0  0  0  0  0  0  0  0  0  0
    4.3692   -4.4567   23.8088 C   0  0  0  0  0  0  0  0  0  0  0  0
    4.5709   -4.5931   25.1866 C   0  0  0  0  0  0  0  0  0  0  0  0
    3.9007   -5.2086   25.7860 H   0  0  0  0  0  0  0  0  0  0  0  0
    5.6410   -3.9154   25.7774 C   0  0  0  0  0  0  0  0  0  0  0  0
    5.8182   -4.0065   26.8486 H   0  0  0  0  0  0  0  0  0  0  0  0
    6.4926   -3.1278   25.0000 C   0  0  0  0  0  0  0  0  0  0  0  0
    7.3077   -2.5794   25.4533 H   0  0  0  0  0  0  0  0  0  0  0  0
    6.2812   -3.0017   23.6128 C   0  0  0  0  0  0  0  0  0  0  0  0
    7.1521   -2.1942   22.7941 N   0  0  0  0  0  0  0  0  0  0  0  0
    6.5704   -1.5160   21.7488 N   0  0  0  0  0  0  0  0  0  0  0  0
    7.3148   -0.7528   20.9898 C   0  0  0  0  0  0  0  0  0  0  0  0
    6.5987   -0.0323   19.8996 C   0  0  0  0  0  0  0  0  0  0  0  0
    7.1368    0.0337   18.6003 C   0  0  0  0  0  0  0  0  0  0  0  0
    8.1087   -0.4154   18.3979 H   0  0  0  0  0  0  0  0  0  0  0  0
    6.5460    0.6642   17.5823 N   0  0  0  0  0  0  0  0  0  0  0  0
    5.3916    1.2954   17.8388 C   0  0  0  0  0  0  0  0  0  0  0  0
    4.9344    1.7998   16.9894 H   0  0  0  0  0  0  0  0  0  0  0  0
    4.7848    1.3174   19.1004 C   0  0  0  0  0  0  0  0  0  0  0  0
    3.8614    1.8679   19.2369 H   0  0  0  0  0  0  0  0  0  0  0  0
    5.3936    0.6307   20.1519 C   0  0  0  0  0  0  0  0  0  0  0  0
    4.9805    0.6167   21.1604 H   0  0  0  0  0  0  0  0  0  0  0  0
    8.8013   -0.5725   21.1909 C   0  0  0  0  0  0  0  0  0  0  0  0
    9.5112    0.1607   20.5126 O   0  0  0  0  0  0  0  0  0  0  0  0
    9.3337   -1.3729   22.2840 C   0  0  0  0  0  0  0  0  0  0  0  0
   10.3942   -1.3040   22.4608 H   0  0  0  0  0  0  0  0  0  0  0  0
    8.5088   -2.1312   23.0249 C   0  0  0  0  0  0  0  0  0  0  0  0
    8.8720   -2.7499   23.8438 H   0  0  0  0  0  0  0  0  0  0  0  0
    5.2099   -3.6706   23.0204 C   0  0  0  0  0  0  0  0  0  0  0  0
    5.0060   -3.5726   21.9629 H   0  0  0  0  0  0  0  0  0  0  0  0
  1  2  1  0
  2  3  1  0
  3  4  2  0
  4  5  1  0
  4  6  1  0
  6  7  1  0
  6  8  2  0
  8  9  1  0
  8 10  1  0
 10 11  1  0
 11 12  1  0
 12 13  2  0
 13 14  1  0
 14 15  2  0
 15 16  1  0
 15 17  1  0
 17 18  2  0
 18 19  1  0
 18 20  1  0
 20 21  1  0
 20 22  2  0
 22 23  1  0
 13 24  1  0
 24 25  2  0
 24 26  1  0
 26 27  1  0
 26 28  2  0
 28 29  1  0
 10 30  2  0
 30 31  1  0
 30  3  1  0
 28 11  1  0
 22 14  1  0
M  END
>  <cnnaffinity>  (1) 
-5.0734

>  <filename>  (1) 
O=c1ccn(-c2cccc(O)c2)nc1-c1cccnc1

$$$$
