
     RDKit          3D

 36 38  0  0  0  0  0  0  0  0999 V2000
    4.9318    1.8429   16.9705 H   0  0  0  0  0  0  0  0  0  0  0  0
    5.4285    1.3373   17.7976 C   0  0  0  0  0  0  0  0  0  0  0  0
    6.5927    0.7321   17.5092 N   0  0  0  0  0  0  0  0  0  0  0  0
    7.1980    0.0608   18.4958 C   0  0  0  0  0  0  0  0  0  0  0  0
    8.1431   -0.4257   18.2588 H   0  0  0  0  0  0  0  0  0  0  0  0
    6.6850   -0.0688   19.8036 C   0  0  0  0  0  0  0  0  0  0  0  0
    7.3922   -0.8385   20.7750 N   0  0  0  0  0  0  0  0  0  0  0  0
    8.7551   -0.6979   21.0583 C   0  0  0  0  0  0  0  0  0  0  0  0
    9.3644   -0.0342   20.4594 H   0  0  0  0  0  0  0  0  0  0  0  0
    9.0637   -1.4770   22.1244 C   0  0  0  0  0  0  0  0  0  0  0  0
   10.3793   -1.7300   22.8300 C   0  0  0  0  0  0  0  0  0  0  0  0
   11.1905   -1.7858   22.0907 H   0  0  0  0  0  0  0  0  0  0  0  0
   10.3282   -2.7183   23.3117 H   0  0  0  0  0  0  0  0  0  0  0  0
   10.7916   -0.7557   23.8475 N   0  0  0  0  0  0  0  0  0  0  0  0
   10.9569    0.6148   23.3119 C   0  0  0  0  0  0  0  0  0  0  0  0
   10.0115    1.0006   22.8862 H   0  0  0  0  0  0  0  0  0  0  0  0
   11.6922    0.5972   22.4989 H   0  0  0  0  0  0  0  0  0  0  0  0
   11.4483    1.5903   24.4075 C   0  0  0  0  0  0  0  0  0  0  0  0
   12.4466    1.2596   24.7257 H   0  0  0  0  0  0  0  0  0  0  0  0
   11.5537    2.5990   23.9870 H   0  0  0  0  0  0  0  0  0  0  0  0
   10.6115    1.6425   25.6197 N   0  0  0  0  0  0  0  0  0  0  0  0
    9.7358    2.1335   25.4423 H   0  0  0  0  0  0  0  0  0  0  0  0
   10.3558    0.2640   26.0763 C   0  0  0  0  0  0  0  0  0  0  0  0
   11.3135   -0.1243   26.4331 H   0  0  0  0  0  0  0  0  0  0  0  0
    9.6627    0.2680   26.9267 H   0  0  0  0  0  0  0  0  0  0  0  0
    9.8561   -0.7140   24.9905 C   0  0  0  0  0  0  0  0  0  0  0  0
    8.8359   -0.4334   24.6724 H   0  0  0  0  0  0  0  0  0  0  0  0
    9.7877   -1.7179   25.4250 H   0  0  0  0  0  0  0  0  0  0  0  0
    7.8688   -2.1256   22.4649 N   0  0  0  0  0  0  0  0  0  0  0  0
    7.6463   -2.6600   23.2842 H   0  0  0  0  0  0  0  0  0  0  0  0
    6.8233   -1.7868   21.6384 C   0  0  0  0  0  0  0  0  0  0  0  0
    5.6986   -2.2528   21.6594 O   0  0  0  0  0  0  0  0  0  0  0  0
    5.4846    0.5936   20.1014 C   0  0  0  0  0  0  0  0  0  0  0  0
    5.0766    0.5675   21.1114 H   0  0  0  0  0  0  0  0  0  0  0  0
    4.8531    1.3027   19.0720 C   0  0  0  0  0  0  0  0  0  0  0  0
    3.9168    1.8184   19.2386 H   0  0  0  0  0  0  0  0  0  0  0  0
  1  2  1  0
  2  3  2  0
  3  4  1  0
  4  5  1  0
  4  6  2  0
  6  7  1  0
  7  8  1  0
  8  9  1  0
  8 10  2  0
 10 11  1  0
 11 12  1  0
 11 13  1  0
 11 14  1  0
 14 15  1  0
 15 16  1  0
 15 17  1  0
 15 18  1  0
 18 19  1  0
 18 20  1  0
 18 21  1  0
 21 22  1  0
 21 23  1  0
 23 24  1  0
 23 25  1  0
 23 26  1  0
 26 27  1  0
 26 28  1  0
 10 29  1  0
 29 30  1  0
 29 31  1  0
 31 32  2  0
  6 33  1  0
 33 34  1  0
 33 35  2  0
 35 36  1  0
 35  2  1  0
 31  7  1  0
 26 14  1  0
M  END
>  <cnnaffinity>  (1) 
-4.85956

>  <filename>  (1) 
O=c1[nH]c(CN2CCNCC2)cn1-c1cccnc1

$$$$
