
     RDKit          3D

 34 37  0  0  0  0  0  0  0  0999 V2000
    4.9184    1.8026   16.9683 H   0  0  0  0  0  0  0  0  0  0  0  0
    5.3914    1.3041   17.8138 C   0  0  0  0  0  0  0  0  0  0  0  0
    6.5559    0.6858   17.5553 N   0  0  0  0  0  0  0  0  0  0  0  0
    7.1700    0.0746   18.5765 C   0  0  0  0  0  0  0  0  0  0  0  0
    8.1059   -0.4206   18.3249 H   0  0  0  0  0  0  0  0  0  0  0  0
    6.6683    0.0266   19.8924 C   0  0  0  0  0  0  0  0  0  0  0  0
    7.3529   -0.6769   20.9767 C   0  0  0  0  0  0  0  0  0  0  0  0
    6.8433   -1.1933   22.1127 C   0  0  0  0  0  0  0  0  0  0  0  0
    5.8251   -1.2946   22.4155 H   0  0  0  0  0  0  0  0  0  0  0  0
    7.8584   -1.7772   22.8529 N   0  0  0  0  0  0  0  0  0  0  0  0
    7.6825   -2.4356   24.1153 C   0  0  0  0  0  0  0  0  0  0  0  0
    8.5584   -2.1180   25.1337 C   0  0  0  0  0  0  0  0  0  0  0  0
    9.3540   -1.4090   24.9236 H   0  0  0  0  0  0  0  0  0  0  0  0
    8.4363   -2.7145   26.4116 C   0  0  0  0  0  0  0  0  0  0  0  0
    9.1549   -2.4436   27.1779 H   0  0  0  0  0  0  0  0  0  0  0  0
    7.4452   -3.6302   26.6710 C   0  0  0  0  0  0  0  0  0  0  0  0
    7.3582   -4.0995   27.6472 H   0  0  0  0  0  0  0  0  0  0  0  0
    6.5146   -3.9917   25.6560 C   0  0  0  0  0  0  0  0  0  0  0  0
    5.4734   -4.9426   25.8795 C   0  0  0  0  0  0  0  0  0  0  0  0
    5.3848   -5.4002   26.8660 H   0  0  0  0  0  0  0  0  0  0  0  0
    4.6195   -5.2546   24.8525 C   0  0  0  0  0  0  0  0  0  0  0  0
    3.8103   -5.9667   24.9675 H   0  0  0  0  0  0  0  0  0  0  0  0
    4.7979   -4.6166   23.5937 C   0  0  0  0  0  0  0  0  0  0  0  0
    4.1294   -4.8513   22.7665 H   0  0  0  0  0  0  0  0  0  0  0  0
    5.7283   -3.7255   23.3447 N   0  0  0  0  0  0  0  0  0  0  0  0
    6.6098   -3.3933   24.3515 C   0  0  0  0  0  0  0  0  0  0  0  0
    9.0704   -1.6203   22.1592 C   0  0  0  0  0  0  0  0  0  0  0  0
   10.1951   -1.9589   22.4597 O   0  0  0  0  0  0  0  0  0  0  0  0
    8.7051   -0.9855   20.9992 N   0  0  0  0  0  0  0  0  0  0  0  0
    9.4445   -0.6895   20.3919 H   0  0  0  0  0  0  0  0  0  0  0  0
    5.4383    0.6663   20.1328 C   0  0  0  0  0  0  0  0  0  0  0  0
    5.0084    0.6632   21.1352 H   0  0  0  0  0  0  0  0  0  0  0  0
    4.7969    1.3203   19.0815 C   0  0  0  0  0  0  0  0  0  0  0  0
    3.8631    1.8512   19.2310 H   0  0  0  0  0  0  0  0  0  0  0  0
  1  2  1  0
  2  3  2  0
  3  4  1  0
  4  5  1  0
  4  6  2  0
  6  7  1  0
  7  8  2  0
  8  9  1  0
  8 10  1  0
 10 11  1  0
 11 12  2  0
 12 13  1  0
 12 14  1  0
 14 15  1  0
 14 16  2  0
 16 17  1  0
 16 18  1  0
 18 19  2  0
 19 20  1  0
 19 21  1  0
 21 22  1  0
 21 23  2  0
 23 24  1  0
 23 25  1  0
 25 26  2  0
 10 27  1  0
 27 28  2  0
 27 29  1  0
 29 30  1  0
  6 31  1  0
 31 32  1  0
 31 33  2  0
 33 34  1  0
 33  2  1  0
 29  7  1  0
 26 11  1  0
 26 18  1  0
M  END
>  <cnnaffinity>  (1) 
-5.59294

>  <filename>  (1) 
O=c1[nH]c(-c2cccnc2)cn1-c1cccc2cccnc12

$$$$
