
     RDKit          3D

 29 31  0  0  0  0  0  0  0  0999 V2000
    4.9532    1.8842   16.8090 H   0  0  0  0  0  0  0  0  0  0  0  0
    5.3966    1.3603   17.6488 C   0  0  0  0  0  0  0  0  0  0  0  0
    6.5576    0.7324   17.4008 N   0  0  0  0  0  0  0  0  0  0  0  0
    7.1325    0.0873   18.4226 C   0  0  0  0  0  0  0  0  0  0  0  0
    8.0839   -0.3886   18.1893 H   0  0  0  0  0  0  0  0  0  0  0  0
    6.5894    0.0263   19.7217 C   0  0  0  0  0  0  0  0  0  0  0  0
    7.2530   -0.6544   20.8314 C   0  0  0  0  0  0  0  0  0  0  0  0
    7.1343   -0.4507   22.1605 C   0  0  0  0  0  0  0  0  0  0  0  0
    6.5423    0.2659   22.7124 H   0  0  0  0  0  0  0  0  0  0  0  0
    7.9748   -1.3451   22.8295 N   0  0  0  0  0  0  0  0  0  0  0  0
    8.2498   -1.3134   24.2309 C   0  0  0  0  0  0  0  0  0  0  0  0
    8.4163   -2.4782   25.0103 C   0  0  0  0  0  0  0  0  0  0  0  0
    8.2660   -3.4420   24.5367 H   0  0  0  0  0  0  0  0  0  0  0  0
    8.7649   -2.4090   26.3715 C   0  0  0  0  0  0  0  0  0  0  0  0
    8.9198   -3.2924   26.9879 H   0  0  0  0  0  0  0  0  0  0  0  0
    8.9449   -1.1568   26.9473 C   0  0  0  0  0  0  0  0  0  0  0  0
    9.3332   -1.0459   28.2237 F   0  0  0  0  0  0  0  0  0  0  0  0
    8.7222    0.0180   26.2404 C   0  0  0  0  0  0  0  0  0  0  0  0
    8.8322    0.9766   26.7311 H   0  0  0  0  0  0  0  0  0  0  0  0
    8.3567   -0.0811   24.9068 C   0  0  0  0  0  0  0  0  0  0  0  0
    8.0844    1.0741   24.2629 F   0  0  0  0  0  0  0  0  0  0  0  0
    8.6065   -2.1685   21.8810 C   0  0  0  0  0  0  0  0  0  0  0  0
    9.3070   -3.1447   22.0319 O   0  0  0  0  0  0  0  0  0  0  0  0
    8.2100   -1.6444   20.6753 N   0  0  0  0  0  0  0  0  0  0  0  0
    8.4080   -2.2054   19.8667 H   0  0  0  0  0  0  0  0  0  0  0  0
    5.3691    0.6870   19.9507 C   0  0  0  0  0  0  0  0  0  0  0  0
    4.9085    0.6582   20.9398 H   0  0  0  0  0  0  0  0  0  0  0  0
    4.7628    1.3611   18.8960 C   0  0  0  0  0  0  0  0  0  0  0  0
    3.8274    1.8916   19.0325 H   0  0  0  0  0  0  0  0  0  0  0  0
  1  2  1  0
  2  3  2  0
  3  4  1  0
  4  5  1  0
  4  6  2  0
  6  7  1  0
  7  8  2  0
  8  9  1  0
  8 10  1  0
 10 11  1  0
 11 12  2  0
 12 13  1  0
 12 14  1  0
 14 15  1  0
 14 16  2  0
 16 17  1  0
 16 18  1  0
 18 19  1  0
 18 20  2  0
 20 21  1  0
 10 22  1  0
 22 23  2  0
 22 24  1  0
 24 25  1  0
  6 26  1  0
 26 27  1  0
 26 28  2  0
 28 29  1  0
 28  2  1  0
 24  7  1  0
 20 11  1  0
M  END
>  <cnnaffinity>  (1) 
-5.50023

>  <filename>  (1) 
O=c1[nH]c(-c2cccnc2)cn1-c1ccc(F)cc1F

$$$$
