
     RDKit          3D

 32 34  0  0  0  0  0  0  0  0999 V2000
    5.5716    1.8772   16.9704 H   0  0  0  0  0  0  0  0  0  0  0  0
    5.9266    1.2795   17.8092 C   0  0  0  0  0  0  0  0  0  0  0  0
    7.1169    0.6725   17.6542 N   0  0  0  0  0  0  0  0  0  0  0  0
    7.5850   -0.0636   18.6683 C   0  0  0  0  0  0  0  0  0  0  0  0
    8.5660   -0.5175   18.5436 H   0  0  0  0  0  0  0  0  0  0  0  0
    6.8580   -0.2750   19.8543 C   0  0  0  0  0  0  0  0  0  0  0  0
    7.3488   -1.1490   20.8554 N   0  0  0  0  0  0  0  0  0  0  0  0
    8.6930   -1.2434   21.1236 N   0  0  0  0  0  0  0  0  0  0  0  0
    8.8213   -1.9995   22.1738 C   0  0  0  0  0  0  0  0  0  0  0  0
   10.1410   -2.2995   22.8181 C   0  0  0  0  0  0  0  0  0  0  0  0
    9.9471   -2.8090   23.7704 H   0  0  0  0  0  0  0  0  0  0  0  0
   10.7110   -3.0077   22.2105 H   0  0  0  0  0  0  0  0  0  0  0  0
   10.9587   -1.0488   23.1018 C   0  0  0  0  0  0  0  0  0  0  0  0
   10.5546   -0.2130   24.1567 C   0  0  0  0  0  0  0  0  0  0  0  0
    9.7062   -0.5175   24.7730 H   0  0  0  0  0  0  0  0  0  0  0  0
   11.2117    0.9883   24.4340 C   0  0  0  0  0  0  0  0  0  0  0  0
   10.8746    1.6143   25.2569 H   0  0  0  0  0  0  0  0  0  0  0  0
   12.2907    1.3918   23.6377 C   0  0  0  0  0  0  0  0  0  0  0  0
   12.7996    2.3409   23.8028 H   0  0  0  0  0  0  0  0  0  0  0  0
   12.7173    0.5771   22.5871 C   0  0  0  0  0  0  0  0  0  0  0  0
   13.5496    0.8802   21.9633 H   0  0  0  0  0  0  0  0  0  0  0  0
   12.0581   -0.6325   22.3291 C   0  0  0  0  0  0  0  0  0  0  0  0
   12.6450   -1.5938   20.9958 Cl  0  0  0  0  0  0  0  0  0  0  0  0
    7.5084   -2.4598   22.7248 C   0  0  0  0  0  0  0  0  0  0  0  0
    7.2694   -1.9369   23.6598 H   0  0  0  0  0  0  0  0  0  0  0  0
    7.4040   -3.5338   22.9023 H   0  0  0  0  0  0  0  0  0  0  0  0
    6.5653   -1.9683   21.6628 C   0  0  0  0  0  0  0  0  0  0  0  0
    5.3996   -2.2536   21.5014 O   0  0  0  0  0  0  0  0  0  0  0  0
    5.6241    0.3696   20.0197 C   0  0  0  0  0  0  0  0  0  0  0  0
    5.0571    0.2314   20.9398 H   0  0  0  0  0  0  0  0  0  0  0  0
    5.1589    1.1691   18.9735 C   0  0  0  0  0  0  0  0  0  0  0  0
    4.2185    1.7038   19.0557 H   0  0  0  0  0  0  0  0  0  0  0  0
  1  2  1  0
  2  3  2  0
  3  4  1  0
  4  5  1  0
  4  6  2  0
  6  7  1  0
  7  8  1  0
  8  9  2  0
  9 10  1  0
 10 11  1  0
 10 12  1  0
 10 13  1  0
 13 14  2  0
 14 15  1  0
 14 16  1  0
 16 17  1  0
 16 18  2  0
 18 19  1  0
 18 20  1  0
 20 21  1  0
 20 22  2  0
 22 23  1  0
  9 24  1  0
 24 25  1  0
 24 26  1  0
 24 27  1  0
 27 28  2  0
  6 29  1  0
 29 30  1  0
 29 31  2  0
 31 32  1  0
 31  2  1  0
 27  7  1  0
 22 13  1  0
M  END
>  <cnnaffinity>  (1) 
-5.44775

>  <filename>  (1) 
O=C1CC(Cc2ccccc2Cl)=NN1c1cccnc1

$$$$
