
     RDKit          3D

 31 34  0  0  0  0  0  0  0  0999 V2000
    4.9129    1.7741   17.0041 H   0  0  0  0  0  0  0  0  0  0  0  0
    5.4036    1.2915   17.8450 C   0  0  0  0  0  0  0  0  0  0  0  0
    6.5714    0.6810   17.5833 N   0  0  0  0  0  0  0  0  0  0  0  0
    7.1747    0.0548   18.5955 C   0  0  0  0  0  0  0  0  0  0  0  0
    8.1231   -0.4365   18.3775 H   0  0  0  0  0  0  0  0  0  0  0  0
    6.6529    0.0123   19.8940 C   0  0  0  0  0  0  0  0  0  0  0  0
    7.3903   -0.7352   20.8977 C   0  0  0  0  0  0  0  0  0  0  0  0
    8.0080   -1.8532   20.6666 N   0  0  0  0  0  0  0  0  0  0  0  0
    8.5108   -2.2019   21.8915 N   0  0  0  0  0  0  0  0  0  0  0  0
    9.0730   -3.0199   22.0455 H   0  0  0  0  0  0  0  0  0  0  0  0
    8.2646   -1.3043   22.8817 C   0  0  0  0  0  0  0  0  0  0  0  0
    8.6335   -1.3369   24.0379 O   0  0  0  0  0  0  0  0  0  0  0  0
    7.4954   -0.3342   22.2186 N   0  0  0  0  0  0  0  0  0  0  0  0
    7.1273    0.9112   22.8009 C   0  0  0  0  0  0  0  0  0  0  0  0
    7.4581    2.1239   22.3011 C   0  0  0  0  0  0  0  0  0  0  0  0
    8.0146    2.3176   21.3934 H   0  0  0  0  0  0  0  0  0  0  0  0
    6.8801    3.4544   23.2545 S   0  0  0  0  0  0  0  0  0  0  0  0
    6.1441    2.3617   24.3978 C   0  0  0  0  0  0  0  0  0  0  0  0
    5.4121    2.6940   25.5568 C   0  0  0  0  0  0  0  0  0  0  0  0
    5.2616    3.7350   25.8334 H   0  0  0  0  0  0  0  0  0  0  0  0
    4.8862    1.6594   26.3232 C   0  0  0  0  0  0  0  0  0  0  0  0
    4.3167    1.8893   27.2209 H   0  0  0  0  0  0  0  0  0  0  0  0
    5.0744    0.3121   25.9514 C   0  0  0  0  0  0  0  0  0  0  0  0
    4.6527   -0.4861   26.5541 H   0  0  0  0  0  0  0  0  0  0  0  0
    5.7957   -0.0115   24.8117 C   0  0  0  0  0  0  0  0  0  0  0  0
    5.9418   -1.0429   24.5035 H   0  0  0  0  0  0  0  0  0  0  0  0
    6.3532    1.0153   24.0238 C   0  0  0  0  0  0  0  0  0  0  0  0
    5.4327    0.6512   20.1562 C   0  0  0  0  0  0  0  0  0  0  0  0
    5.0073    0.6313   21.1622 H   0  0  0  0  0  0  0  0  0  0  0  0
    4.8018    1.3101   19.1084 C   0  0  0  0  0  0  0  0  0  0  0  0
    3.8721    1.8448   19.2632 H   0  0  0  0  0  0  0  0  0  0  0  0
  1  2  1  0
  2  3  2  0
  3  4  1  0
  4  5  1  0
  4  6  2  0
  6  7  1  0
  7  8  2  0
  8  9  1  0
  9 10  1  0
  9 11  1  0
 11 12  2  0
 11 13  1  0
 13 14  1  0
 14 15  2  0
 15 16  1  0
 15 17  1  0
 17 18  1  0
 18 19  2  0
 19 20  1  0
 19 21  1  0
 21 22  1  0
 21 23  2  0
 23 24  1  0
 23 25  1  0
 25 26  1  0
 25 27  2  0
  6 28  1  0
 28 29  1  0
 28 30  2  0
 30 31  1  0
 30  2  1  0
 13  7  1  0
 27 14  1  0
 27 18  1  0
M  END
>  <cnnaffinity>  (1) 
-5.20114

>  <filename>  (1) 
O=c1[nH]nc(-c2cccnc2)n1-c1csc2ccccc12

$$$$
