
     RDKit          3D

 34 37  0  0  0  0  0  0  0  0999 V2000
    4.9644    1.7822   16.9617 H   0  0  0  0  0  0  0  0  0  0  0  0
    5.4553    1.3151   17.8137 C   0  0  0  0  0  0  0  0  0  0  0  0
    6.6396    0.7366   17.5584 N   0  0  0  0  0  0  0  0  0  0  0  0
    7.2535    0.1290   18.5810 C   0  0  0  0  0  0  0  0  0  0  0  0
    8.2219   -0.3220   18.3689 H   0  0  0  0  0  0  0  0  0  0  0  0
    6.6997    0.0110   19.8702 C   0  0  0  0  0  0  0  0  0  0  0  0
    7.4313   -0.8019   20.8958 C   0  0  0  0  0  0  0  0  0  0  0  0
    8.7136   -0.5460   20.9790 N   0  0  0  0  0  0  0  0  0  0  0  0
    9.4577   -1.1815   21.9374 N   0  0  0  0  0  0  0  0  0  0  0  0
   10.8454   -0.8638   21.9972 C   0  0  0  0  0  0  0  0  0  0  0  0
   11.7834   -1.8942   22.1071 C   0  0  0  0  0  0  0  0  0  0  0  0
   11.4095   -2.9157   22.1608 H   0  0  0  0  0  0  0  0  0  0  0  0
   13.1690   -1.6069   22.1119 C   0  0  0  0  0  0  0  0  0  0  0  0
   13.8749   -2.4364   22.0647 H   0  0  0  0  0  0  0  0  0  0  0  0
   13.6260   -0.2914   22.1760 C   0  0  0  0  0  0  0  0  0  0  0  0
   14.6856   -0.0482   22.2364 H   0  0  0  0  0  0  0  0  0  0  0  0
   12.6619    0.7381   22.1267 C   0  0  0  0  0  0  0  0  0  0  0  0
   11.2786    0.4876   21.9330 C   0  0  0  0  0  0  0  0  0  0  0  0
   10.6748    1.7766   21.6618 C   0  0  0  0  0  0  0  0  0  0  0  0
    9.6465    1.9231   21.3633 H   0  0  0  0  0  0  0  0  0  0  0  0
   11.6522    2.7165   21.7480 C   0  0  0  0  0  0  0  0  0  0  0  0
   11.6148    3.7815   21.5411 H   0  0  0  0  0  0  0  0  0  0  0  0
   12.8378    2.0961   22.0809 N   0  0  0  0  0  0  0  0  0  0  0  0
   13.7548    2.5113   22.0451 H   0  0  0  0  0  0  0  0  0  0  0  0
    8.8644   -1.9655   22.8941 C   0  0  0  0  0  0  0  0  0  0  0  0
    9.5311   -2.3296   23.6792 H   0  0  0  0  0  0  0  0  0  0  0  0
    7.5550   -2.2592   22.8829 C   0  0  0  0  0  0  0  0  0  0  0  0
    7.0991   -2.8465   23.6636 H   0  0  0  0  0  0  0  0  0  0  0  0
    6.7332   -1.8357   21.7652 C   0  0  0  0  0  0  0  0  0  0  0  0
    5.6144   -2.2973   21.5675 O   0  0  0  0  0  0  0  0  0  0  0  0
    5.4758    0.6527   20.1273 C   0  0  0  0  0  0  0  0  0  0  0  0
    5.0260    0.6175   21.1223 H   0  0  0  0  0  0  0  0  0  0  0  0
    4.8481    1.3169   19.0732 C   0  0  0  0  0  0  0  0  0  0  0  0
    3.8988    1.8228   19.2071 H   0  0  0  0  0  0  0  0  0  0  0  0
  1  2  1  0
  2  3  2  0
  3  4  1  0
  4  5  1  0
  4  6  2  0
  6  7  1  0
  7  8  2  0
  8  9  1  0
  9 10  1  0
 10 11  2  0
 11 12  1  0
 11 13  1  0
 13 14  1  0
 13 15  2  0
 15 16  1  0
 15 17  1  0
 17 18  2  0
 18 19  1  0
 19 20  1  0
 19 21  2  0
 21 22  1  0
 21 23  1  0
 23 24  1  0
  9 25  1  0
 25 26  1  0
 25 27  2  0
 27 28  1  0
 27 29  1  0
 29 30  2  0
  6 31  1  0
 31 32  1  0
 31 33  2  0
 33 34  1  0
 33  2  1  0
 29  7  1  0
 18 10  1  0
 23 17  1  0
M  END
>  <cnnaffinity>  (1) 
-6.22215

>  <filename>  (1) 
O=c1ccn(-c2cccc3[nH]ccc23)nc1-c1cccnc1

$$$$
