
     RDKit          3D

 48 51  0  0  0  0  0  0  0  0999 V2000
    9.8888   -3.3821   24.0626 O   0  0  0  0  0  0  0  0  0  0  0  0
   10.5099   -2.4875   23.5159 C   0  0  0  0  0  0  0  0  0  0  0  0
   10.2575   -1.0725   23.5880 C   0  0  0  0  0  0  0  0  0  0  0  0
   11.0736   -0.2020   22.9301 C   0  0  0  0  0  0  0  0  0  0  0  0
   10.7161    1.1740   22.8268 N   0  0  0  0  0  0  0  0  0  0  0  0
   11.6393    2.1637   22.9356 N   0  0  0  0  0  0  0  0  0  0  0  0
   10.9228    3.2630   22.7703 C   0  0  0  0  0  0  0  0  0  0  0  0
   11.5621    4.6234   22.7304 C   0  0  0  0  0  0  0  0  0  0  0  0
   12.2118    5.0352   24.0837 C   0  0  0  0  0  0  0  0  0  0  0  0
   12.8594    6.3974   23.9784 C   0  0  0  0  0  0  0  0  0  0  0  0
   13.5622    6.6857   22.8839 C   0  0  0  0  0  0  0  0  0  0  0  0
   13.8447    5.5666   21.9040 C   0  0  0  0  0  0  0  0  0  0  0  0
   12.5878    4.7394   21.5474 C   0  0  0  0  0  0  0  0  0  0  0  0
   12.0732    5.1737   20.6867 H   0  0  0  0  0  0  0  0  0  0  0  0
   12.9255    3.7482   21.2225 H   0  0  0  0  0  0  0  0  0  0  0  0
   14.3546    5.9246   21.0100 H   0  0  0  0  0  0  0  0  0  0  0  0
   14.5534    4.8798   22.3924 H   0  0  0  0  0  0  0  0  0  0  0  0
   14.0006    7.6726   22.7395 H   0  0  0  0  0  0  0  0  0  0  0  0
   12.8030    7.0886   24.8180 H   0  0  0  0  0  0  0  0  0  0  0  0
   13.0016    4.3119   24.3004 H   0  0  0  0  0  0  0  0  0  0  0  0
   11.4949    5.0008   24.9064 H   0  0  0  0  0  0  0  0  0  0  0  0
   10.7383    5.3214   22.5503 H   0  0  0  0  0  0  0  0  0  0  0  0
    9.6000    3.0418   22.5708 N   0  0  0  0  0  0  0  0  0  0  0  0
    9.5039    1.7231   22.5536 C   0  0  0  0  0  0  0  0  0  0  0  0
    8.2397    0.9640   22.2594 C   0  0  0  0  0  0  0  0  0  0  0  0
    8.4854   -0.1340   21.3911 O   0  0  0  0  0  0  0  0  0  0  0  0
    7.3225   -0.8331   20.9674 C   0  0  0  0  0  0  0  0  0  0  0  0
    6.5879   -0.0724   19.8917 C   0  0  0  0  0  0  0  0  0  0  0  0
    5.3776    0.5951   20.1115 C   0  0  0  0  0  0  0  0  0  0  0  0
    4.8032    1.3043   19.0543 C   0  0  0  0  0  0  0  0  0  0  0  0
    5.4633    1.3174   17.8237 C   0  0  0  0  0  0  0  0  0  0  0  0
    6.6319    0.6959   17.5976 N   0  0  0  0  0  0  0  0  0  0  0  0
    7.1782    0.0349   18.6236 C   0  0  0  0  0  0  0  0  0  0  0  0
    8.1376   -0.4502   18.4307 H   0  0  0  0  0  0  0  0  0  0  0  0
    5.0388    1.8491   16.9769 H   0  0  0  0  0  0  0  0  0  0  0  0
    3.8724    1.8446   19.1769 H   0  0  0  0  0  0  0  0  0  0  0  0
    4.9120    0.5732   21.0992 H   0  0  0  0  0  0  0  0  0  0  0  0
    6.6589   -1.0740   21.8148 H   0  0  0  0  0  0  0  0  0  0  0  0
    7.7083   -1.7861   20.5806 H   0  0  0  0  0  0  0  0  0  0  0  0
    7.5382    1.6805   21.8056 H   0  0  0  0  0  0  0  0  0  0  0  0
    7.7839    0.6339   23.2106 H   0  0  0  0  0  0  0  0  0  0  0  0
   12.2593   -0.6412   22.2580 C   0  0  0  0  0  0  0  0  0  0  0  0
   12.4607   -1.9714   22.1148 C   0  0  0  0  0  0  0  0  0  0  0  0
   11.5858   -2.8405   22.7000 N   0  0  0  0  0  0  0  0  0  0  0  0
   11.6733   -3.8424   22.6787 H   0  0  0  0  0  0  0  0  0  0  0  0
   13.2816   -2.3938   21.5397 H   0  0  0  0  0  0  0  0  0  0  0  0
   12.9655    0.0862   21.8798 H   0  0  0  0  0  0  0  0  0  0  0  0
    9.3683   -0.7806   24.1215 H   0  0  0  0  0  0  0  0  0  0  0  0
  1  2  2  0
  2  3  1  0
  3  4  2  0
  4  5  1  0
  5  6  1  0
  6  7  2  0
  7  8  1  0
  8  9  1  0
  9 10  1  0
 10 11  2  0
 11 12  1  0
 12 13  1  0
 13 14  1  0
 13 15  1  0
 12 16  1  0
 12 17  1  0
 11 18  1  0
 10 19  1  0
  9 20  1  0
  9 21  1  0
  8 22  1  0
  7 23  1  0
 23 24  2  0
 24 25  1  0
 25 26  1  0
 26 27  1  0
 27 28  1  0
 28 29  2  0
 29 30  1  0
 30 31  2  0
 31 32  1  0
 32 33  2  0
 33 34  1  0
 31 35  1  0
 30 36  1  0
 29 37  1  0
 27 38  1  0
 27 39  1  0
 25 40  1  0
 25 41  1  0
  4 42  1  0
 42 43  2  0
 43 44  1  0
 44 45  1  0
 43 46  1  0
 42 47  1  0
  3 48  1  0
 44  2  1  0
 24  5  1  0
 33 28  1  0
 13  8  1  0
M  END
>  <cnnaffinity>  (1) 
-6.37237

>  <filename>  (1) 
O=c1cc(-n2nc(C3CC=CCC3)nc2COCc2cccnc2)cc[nH]1

$$$$
