
     RDKit          3D

 30 32  0  0  0  0  0  0  0  0999 V2000
    4.9995    1.8295   16.9164 H   0  0  0  0  0  0  0  0  0  0  0  0
    5.4709    1.3367   17.7671 C   0  0  0  0  0  0  0  0  0  0  0  0
    6.6746    0.7845   17.5508 N   0  0  0  0  0  0  0  0  0  0  0  0
    7.2640    0.1688   18.5816 C   0  0  0  0  0  0  0  0  0  0  0  0
    8.2477   -0.2452   18.3849 H   0  0  0  0  0  0  0  0  0  0  0  0
    6.6711    0.0130   19.8501 C   0  0  0  0  0  0  0  0  0  0  0  0
    7.3944   -0.7873   20.8941 C   0  0  0  0  0  0  0  0  0  0  0  0
    8.6637   -0.4849   21.0319 N   0  0  0  0  0  0  0  0  0  0  0  0
    9.4068   -1.0824   22.0056 N   0  0  0  0  0  0  0  0  0  0  0  0
   10.7889   -0.7406   22.0577 C   0  0  0  0  0  0  0  0  0  0  0  0
   11.1913    0.5964   21.9243 C   0  0  0  0  0  0  0  0  0  0  0  0
   10.4350    1.3300   21.6621 H   0  0  0  0  0  0  0  0  0  0  0  0
   12.5279    0.9679   22.0989 C   0  0  0  0  0  0  0  0  0  0  0  0
   12.8409    2.0051   22.1020 H   0  0  0  0  0  0  0  0  0  0  0  0
   13.4905   -0.0257   22.2412 C   0  0  0  0  0  0  0  0  0  0  0  0
   14.7772    0.3278   22.3548 F   0  0  0  0  0  0  0  0  0  0  0  0
   13.1542   -1.3709   22.2723 C   0  0  0  0  0  0  0  0  0  0  0  0
   13.9200   -2.1383   22.3114 H   0  0  0  0  0  0  0  0  0  0  0  0
   11.8003   -1.6986   22.2763 C   0  0  0  0  0  0  0  0  0  0  0  0
   11.4732   -2.9752   22.5561 F   0  0  0  0  0  0  0  0  0  0  0  0
    8.8168   -1.9310   22.9195 C   0  0  0  0  0  0  0  0  0  0  0  0
    9.4811   -2.3017   23.7072 H   0  0  0  0  0  0  0  0  0  0  0  0
    7.5249   -2.2898   22.8417 C   0  0  0  0  0  0  0  0  0  0  0  0
    7.0604   -2.9217   23.5818 H   0  0  0  0  0  0  0  0  0  0  0  0
    6.7014   -1.8734   21.7143 C   0  0  0  0  0  0  0  0  0  0  0  0
    5.6092   -2.3658   21.4701 O   0  0  0  0  0  0  0  0  0  0  0  0
    5.4399    0.6562   20.0741 C   0  0  0  0  0  0  0  0  0  0  0  0
    4.9778    0.6302   21.0603 H   0  0  0  0  0  0  0  0  0  0  0  0
    4.8298    1.3226   19.0093 C   0  0  0  0  0  0  0  0  0  0  0  0
    3.8858    1.8450   19.1351 H   0  0  0  0  0  0  0  0  0  0  0  0
  1  2  1  0
  2  3  2  0
  3  4  1  0
  4  5  1  0
  4  6  2  0
  6  7  1  0
  7  8  2  0
  8  9  1  0
  9 10  1  0
 10 11  2  0
 11 12  1  0
 11 13  1  0
 13 14  1  0
 13 15  2  0
 15 16  1  0
 15 17  1  0
 17 18  1  0
 17 19  2  0
 19 20  1  0
  9 21  1  0
 21 22  1  0
 21 23  2  0
 23 24  1  0
 23 25  1  0
 25 26  2  0
  6 27  1  0
 27 28  1  0
 27 29  2  0
 29 30  1  0
 29  2  1  0
 25  7  1  0
 19 10  1  0
M  END
>  <cnnaffinity>  (1) 
-5.60934

>  <filename>  (1) 
O=c1ccn(-c2ccc(F)cc2F)nc1-c1cccnc1

$$$$
