
     RDKit          3D

 51 54  0  0  0  0  0  0  0  0999 V2000
    8.2871    7.4984   23.3364 O   0  0  0  0  0  0  0  0  0  0  0  0
    8.4490    6.3116   23.1056 C   0  0  0  0  0  0  0  0  0  0  0  0
    9.3321    5.3834   23.8198 C   0  0  0  0  0  0  0  0  0  0  0  0
    9.4560    4.0910   23.4227 C   0  0  0  0  0  0  0  0  0  0  0  0
    8.6618    3.6077   22.3024 C   0  0  0  0  0  0  0  0  0  0  0  0
    8.7023    2.1757   21.8335 C   0  0  0  0  0  0  0  0  0  0  0  0
    7.7085    1.2704   22.6169 C   0  0  0  0  0  0  0  0  0  0  0  0
    7.7265   -0.1617   22.1955 C   0  0  0  0  0  0  0  0  0  0  0  0
    8.2862   -1.1545   22.8629 N   0  0  0  0  0  0  0  0  0  0  0  0
    8.2492   -2.1786   21.9754 C   0  0  0  0  0  0  0  0  0  0  0  0
    8.8143   -3.5316   22.2159 C   0  0  0  0  0  0  0  0  0  0  0  0
    7.9075   -4.4735   23.0320 C   0  0  0  0  0  0  0  0  0  0  0  0
    6.6579   -4.8179   22.1981 C   0  0  0  0  0  0  0  0  0  0  0  0
    5.7258   -5.7926   22.9223 C   0  0  0  0  0  0  0  0  0  0  0  0
    5.3323   -5.2515   24.3049 C   0  0  0  0  0  0  0  0  0  0  0  0
    6.5696   -4.9160   25.1562 C   0  0  0  0  0  0  0  0  0  0  0  0
    7.5066   -3.9390   24.4229 C   0  0  0  0  0  0  0  0  0  0  0  0
    8.4058   -3.7382   25.0207 H   0  0  0  0  0  0  0  0  0  0  0  0
    6.9945   -2.9715   24.3150 H   0  0  0  0  0  0  0  0  0  0  0  0
    6.2591   -4.4842   26.1165 H   0  0  0  0  0  0  0  0  0  0  0  0
    7.1174   -5.8432   25.3892 H   0  0  0  0  0  0  0  0  0  0  0  0
    4.7332   -4.3364   24.1717 H   0  0  0  0  0  0  0  0  0  0  0  0
    4.6888   -5.9684   24.8287 H   0  0  0  0  0  0  0  0  0  0  0  0
    6.2382   -6.7599   23.0373 H   0  0  0  0  0  0  0  0  0  0  0  0
    4.8335   -5.9812   22.3134 H   0  0  0  0  0  0  0  0  0  0  0  0
    6.1152   -3.8891   21.9669 H   0  0  0  0  0  0  0  0  0  0  0  0
    6.9723   -5.2353   21.2316 H   0  0  0  0  0  0  0  0  0  0  0  0
    8.4774   -5.4039   23.1909 H   0  0  0  0  0  0  0  0  0  0  0  0
    8.9024   -3.9435   21.2105 H   0  0  0  0  0  0  0  0  0  0  0  0
    9.8116   -3.4186   22.6530 H   0  0  0  0  0  0  0  0  0  0  0  0
    7.7048   -1.8894   20.8130 N   0  0  0  0  0  0  0  0  0  0  0  0
    7.3293   -0.5978   20.9664 N   0  0  0  0  0  0  0  0  0  0  0  0
    6.6306    0.0502   19.9199 C   0  0  0  0  0  0  0  0  0  0  0  0
    5.4124    0.6948   20.1473 C   0  0  0  0  0  0  0  0  0  0  0  0
    4.8038    1.3242   19.0583 C   0  0  0  0  0  0  0  0  0  0  0  0
    5.4307    1.2875   17.8088 C   0  0  0  0  0  0  0  0  0  0  0  0
    6.5794    0.6233   17.5818 N   0  0  0  0  0  0  0  0  0  0  0  0
    7.1536    0.0048   18.6170 C   0  0  0  0  0  0  0  0  0  0  0  0
    8.0687   -0.5539   18.4250 H   0  0  0  0  0  0  0  0  0  0  0  0
    5.0047    1.8135   16.9581 H   0  0  0  0  0  0  0  0  0  0  0  0
    3.8664    1.8528   19.1791 H   0  0  0  0  0  0  0  0  0  0  0  0
    4.9475    0.6631   21.1351 H   0  0  0  0  0  0  0  0  0  0  0  0
    6.7006    1.6645   22.4731 H   0  0  0  0  0  0  0  0  0  0  0  0
    7.9139    1.3131   23.6922 H   0  0  0  0  0  0  0  0  0  0  0  0
    9.7224    1.7872   21.9310 H   0  0  0  0  0  0  0  0  0  0  0  0
    8.4466    2.1717   20.7671 H   0  0  0  0  0  0  0  0  0  0  0  0
    7.8452    4.4018   21.6702 N   0  0  0  0  0  0  0  0  0  0  0  0
    7.7658    5.6924   22.0728 N   0  0  0  0  0  0  0  0  0  0  0  0
    7.1685    6.3172   21.5474 H   0  0  0  0  0  0  0  0  0  0  0  0
   10.1298    3.4059   23.9327 H   0  0  0  0  0  0  0  0  0  0  0  0
    9.8596    5.8256   24.6525 H   0  0  0  0  0  0  0  0  0  0  0  0
  1  2  2  0
  2  3  1  0
  3  4  2  0
  4  5  1  0
  5  6  1  0
  6  7  1  0
  7  8  1  0
  8  9  2  0
  9 10  1  0
 10 11  1  0
 11 12  1  0
 12 13  1  0
 13 14  1  0
 14 15  1  0
 15 16  1  0
 16 17  1  0
 17 18  1  0
 17 19  1  0
 16 20  1  0
 16 21  1  0
 15 22  1  0
 15 23  1  0
 14 24  1  0
 14 25  1  0
 13 26  1  0
 13 27  1  0
 12 28  1  0
 11 29  1  0
 11 30  1  0
 10 31  2  0
 31 32  1  0
 32 33  1  0
 33 34  2  0
 34 35  1  0
 35 36  2  0
 36 37  1  0
 37 38  2  0
 38 39  1  0
 36 40  1  0
 35 41  1  0
 34 42  1  0
  7 43  1  0
  7 44  1  0
  6 45  1  0
  6 46  1  0
  5 47  2  0
 47 48  1  0
 48 49  1  0
  4 50  1  0
  3 51  1  0
 48  2  1  0
 32  8  1  0
 38 33  1  0
 17 12  1  0
M  END
>  <cnnaffinity>  (1) 
-6.32008

>  <filename>  (1) 
O=c1ccc(CCc2nc(CC3CCCCC3)nn2-c2cccnc2)n[nH]1

$$$$
