
     RDKit          3D

 41 44  0  0  0  0  0  0  0  0999 V2000
    4.9329    1.8346   16.9526 H   0  0  0  0  0  0  0  0  0  0  0  0
    5.3979    1.3187   17.7919 C   0  0  0  0  0  0  0  0  0  0  0  0
    6.5540    0.6875   17.5344 N   0  0  0  0  0  0  0  0  0  0  0  0
    7.1532    0.0651   18.5596 C   0  0  0  0  0  0  0  0  0  0  0  0
    8.0878   -0.4400   18.3172 H   0  0  0  0  0  0  0  0  0  0  0  0
    6.6493    0.0093   19.8779 C   0  0  0  0  0  0  0  0  0  0  0  0
    7.3788   -0.7123   20.9664 C   0  0  0  0  0  0  0  0  0  0  0  0
    8.7979   -0.5796   21.1302 C   0  0  0  0  0  0  0  0  0  0  0  0
    9.3546    0.0741   20.4598 H   0  0  0  0  0  0  0  0  0  0  0  0
    9.4456   -1.2283   22.1341 C   0  0  0  0  0  0  0  0  0  0  0  0
   10.5104   -1.1580   22.3052 H   0  0  0  0  0  0  0  0  0  0  0  0
    8.7629   -2.0907   23.0842 C   0  0  0  0  0  0  0  0  0  0  0  0
    9.3388   -2.6716   23.9893 O   0  0  0  0  0  0  0  0  0  0  0  0
    7.3566   -2.2162   22.8623 N   0  0  0  0  0  0  0  0  0  0  0  0
    6.5874   -3.0602   23.7377 C   0  0  0  0  0  0  0  0  0  0  0  0
    5.8222   -4.0988   23.1944 C   0  0  0  0  0  0  0  0  0  0  0  0
    5.8288   -4.2363   22.1171 H   0  0  0  0  0  0  0  0  0  0  0  0
    5.0740   -4.9205   24.0427 C   0  0  0  0  0  0  0  0  0  0  0  0
    4.4841   -5.7323   23.6241 H   0  0  0  0  0  0  0  0  0  0  0  0
    5.0799   -4.6853   25.4198 C   0  0  0  0  0  0  0  0  0  0  0  0
    4.4877   -5.3242   26.0711 H   0  0  0  0  0  0  0  0  0  0  0  0
    5.8357   -3.6328   25.9806 C   0  0  0  0  0  0  0  0  0  0  0  0
    5.7648   -3.3670   27.4535 C   0  0  0  0  0  0  0  0  0  0  0  0
    5.7921   -4.4402   28.3668 C   0  0  0  0  0  0  0  0  0  0  0  0
    6.0577   -5.4319   28.0075 H   0  0  0  0  0  0  0  0  0  0  0  0
    5.4788   -4.2442   29.7150 C   0  0  0  0  0  0  0  0  0  0  0  0
    5.4465   -5.0955   30.3904 H   0  0  0  0  0  0  0  0  0  0  0  0
    5.1545   -2.9628   30.1770 C   0  0  0  0  0  0  0  0  0  0  0  0
    4.9381   -2.8147   31.2333 H   0  0  0  0  0  0  0  0  0  0  0  0
    5.2213   -1.8676   29.3036 C   0  0  0  0  0  0  0  0  0  0  0  0
    4.9988   -0.8671   29.6684 H   0  0  0  0  0  0  0  0  0  0  0  0
    5.5490   -2.0675   27.9568 C   0  0  0  0  0  0  0  0  0  0  0  0
    5.6420   -1.2164   27.2826 H   0  0  0  0  0  0  0  0  0  0  0  0
    6.5997   -2.8320   25.1185 C   0  0  0  0  0  0  0  0  0  0  0  0
    7.2519   -2.0591   25.5114 H   0  0  0  0  0  0  0  0  0  0  0  0
    6.7183   -1.5295   21.8450 C   0  0  0  0  0  0  0  0  0  0  0  0
    5.6480   -1.6903   21.7826 H   0  0  0  0  0  0  0  0  0  0  0  0
    5.4250    0.6625   20.1098 C   0  0  0  0  0  0  0  0  0  0  0  0
    4.9873    0.6754   21.1092 H   0  0  0  0  0  0  0  0  0  0  0  0
    4.7975    1.3298   19.0542 C   0  0  0  0  0  0  0  0  0  0  0  0
    3.8627    1.8597   19.1952 H   0  0  0  0  0  0  0  0  0  0  0  0
  1  2  1  0
  2  3  2  0
  3  4  1  0
  4  5  1  0
  4  6  2  0
  6  7  1  0
  7  8  1  0
  8  9  1  0
  8 10  2  0
 10 11  1  0
 10 12  1  0
 12 13  2  0
 12 14  1  0
 14 15  1  0
 15 16  2  0
 16 17  1  0
 16 18  1  0
 18 19  1  0
 18 20  2  0
 20 21  1  0
 20 22  1  0
 22 23  1  0
 23 24  2  0
 24 25  1  0
 24 26  1  0
 26 27  1  0
 26 28  2  0
 28 29  1  0
 28 30  1  0
 30 31  1  0
 30 32  2  0
 32 33  1  0
 22 34  2  0
 34 35  1  0
 14 36  1  0
 36 37  1  0
  6 38  1  0
 38 39  1  0
 38 40  2  0
 40 41  1  0
 40  2  1  0
 36  7  2  0
 34 15  1  0
 32 23  1  0
M  END
>  <cnnaffinity>  (1) 
-5.65625

>  <filename>  (1) 
O=c1ccc(-c2cccnc2)cn1-c1cccc(-c2ccccc2)c1

$$$$
