
     RDKit          3D

 20 21  0  0  0  0  0  0  0  0999 V2000
    4.9345    1.8147   16.9448 H   0  0  0  0  0  0  0  0  0  0  0  0
    5.3812    1.3310   17.8085 C   0  0  0  0  0  0  0  0  0  0  0  0
    6.5474    0.7039   17.5923 N   0  0  0  0  0  0  0  0  0  0  0  0
    7.1323    0.1188   18.6384 C   0  0  0  0  0  0  0  0  0  0  0  0
    8.0579   -0.4283   18.4567 H   0  0  0  0  0  0  0  0  0  0  0  0
    6.6116    0.1601   19.9395 C   0  0  0  0  0  0  0  0  0  0  0  0
    7.3616   -0.5431   20.9962 C   0  0  0  0  0  0  0  0  0  0  0  0
    8.0177   -1.5974   20.6146 N   0  0  0  0  0  0  0  0  0  0  0  0
    8.5316   -2.4202   21.5676 C   0  0  0  0  0  0  0  0  0  0  0  0
    8.8494   -3.5727   21.4083 O   0  0  0  0  0  0  0  0  0  0  0  0
    8.7000   -1.8849   22.8570 N   0  0  0  0  0  0  0  0  0  0  0  0
    9.1129   -2.5482   23.4828 H   0  0  0  0  0  0  0  0  0  0  0  0
    8.0103   -0.8054   23.2678 C   0  0  0  0  0  0  0  0  0  0  0  0
    8.0757   -0.4536   24.9475 Cl  0  0  0  0  0  0  0  0  0  0  0  0
    7.3090   -0.0881   22.3581 C   0  0  0  0  0  0  0  0  0  0  0  0
    6.7502    0.7837   22.6474 H   0  0  0  0  0  0  0  0  0  0  0  0
    5.3677    0.7674   20.1425 C   0  0  0  0  0  0  0  0  0  0  0  0
    4.8837    0.7238   21.1194 H   0  0  0  0  0  0  0  0  0  0  0  0
    4.7451    1.3709   19.0525 C   0  0  0  0  0  0  0  0  0  0  0  0
    3.7950    1.8793   19.1596 H   0  0  0  0  0  0  0  0  0  0  0  0
  1  2  1  0
  2  3  2  0
  3  4  1  0
  4  5  1  0
  4  6  2  0
  6  7  1  0
  7  8  2  0
  8  9  1  0
  9 10  2  0
  9 11  1  0
 11 12  1  0
 11 13  1  0
 13 14  1  0
 13 15  2  0
 15 16  1  0
  6 17  1  0
 17 18  1  0
 17 19  2  0
 19 20  1  0
 19  2  1  0
 15  7  1  0
M  END
>  <cnnaffinity>  (1) 
-4.54419

>  <filename>  (1) 
O=c1nc(-c2cccnc2)cc(Cl)[nH]1

$$$$
