
     RDKit          3D

 48 51  0  0  0  0  0  0  0  0999 V2000
    4.9289    1.7938   16.9855 H   0  0  0  0  0  0  0  0  0  0  0  0
    5.3989    1.2922   17.8290 C   0  0  0  0  0  0  0  0  0  0  0  0
    6.5600    0.6676   17.5727 N   0  0  0  0  0  0  0  0  0  0  0  0
    7.1607    0.0350   18.5845 C   0  0  0  0  0  0  0  0  0  0  0  0
    8.1204   -0.4328   18.3549 H   0  0  0  0  0  0  0  0  0  0  0  0
    6.6490    0.0004   19.8934 C   0  0  0  0  0  0  0  0  0  0  0  0
    7.3826   -0.6579   20.9804 C   0  0  0  0  0  0  0  0  0  0  0  0
    7.6867   -0.0457   22.1864 C   0  0  0  0  0  0  0  0  0  0  0  0
    7.4437    1.3190   22.4323 N   0  0  0  0  0  0  0  0  0  0  0  0
    6.6487    1.7826   23.5470 C   0  0  0  0  0  0  0  0  0  0  0  0
    5.7549    2.3269   23.1761 H   0  0  0  0  0  0  0  0  0  0  0  0
    6.2878    0.9064   24.0947 H   0  0  0  0  0  0  0  0  0  0  0  0
    7.4682    2.7018   24.4548 C   0  0  0  0  0  0  0  0  0  0  0  0
    8.2806    2.1263   24.9208 H   0  0  0  0  0  0  0  0  0  0  0  0
    6.8268    3.0951   25.2500 H   0  0  0  0  0  0  0  0  0  0  0  0
    8.0932    3.8477   23.6493 C   0  0  0  0  0  0  0  0  0  0  0  0
    7.2644    4.4621   23.2163 H   0  0  0  0  0  0  0  0  0  0  0  0
    8.9379    4.7055   24.4873 N   0  0  0  0  0  0  0  0  0  0  0  0
    8.2166    5.2827   25.6275 C   0  0  0  0  0  0  0  0  0  0  0  0
    7.1776    5.5547   25.3540 H   0  0  0  0  0  0  0  0  0  0  0  0
    8.1469    4.5578   26.4487 H   0  0  0  0  0  0  0  0  0  0  0  0
    8.9955    6.5406   26.0374 C   0  0  0  0  0  0  0  0  0  0  0  0
    9.6151    6.3540   26.9197 H   0  0  0  0  0  0  0  0  0  0  0  0
    8.3017    7.3437   26.3080 H   0  0  0  0  0  0  0  0  0  0  0  0
    9.8652    6.9000   24.8147 C   0  0  0  0  0  0  0  0  0  0  0  0
   10.9283    6.9030   25.0760 H   0  0  0  0  0  0  0  0  0  0  0  0
    9.6342    7.8960   24.4238 H   0  0  0  0  0  0  0  0  0  0  0  0
    9.5513    5.8276   23.7584 C   0  0  0  0  0  0  0  0  0  0  0  0
    8.8662    6.2448   22.9933 H   0  0  0  0  0  0  0  0  0  0  0  0
   10.4551    5.5053   23.2233 H   0  0  0  0  0  0  0  0  0  0  0  0
    8.8899    3.2775   22.4703 C   0  0  0  0  0  0  0  0  0  0  0  0
    9.2397    4.1235   21.8902 H   0  0  0  0  0  0  0  0  0  0  0  0
    9.7614    2.7207   22.8440 H   0  0  0  0  0  0  0  0  0  0  0  0
    8.0301    2.3536   21.6023 C   0  0  0  0  0  0  0  0  0  0  0  0
    8.6231    1.8752   20.8137 H   0  0  0  0  0  0  0  0  0  0  0  0
    7.2274    2.9229   21.0996 H   0  0  0  0  0  0  0  0  0  0  0  0
    8.3333   -0.8359   23.1942 C   0  0  0  0  0  0  0  0  0  0  0  0
    8.5622   -0.3148   24.1270 H   0  0  0  0  0  0  0  0  0  0  0  0
    8.6640   -2.1423   22.9824 C   0  0  0  0  0  0  0  0  0  0  0  0
    9.1559   -2.7621   23.7183 H   0  0  0  0  0  0  0  0  0  0  0  0
    8.3386   -2.7924   21.7194 C   0  0  0  0  0  0  0  0  0  0  0  0
    8.5066   -3.9621   21.4140 O   0  0  0  0  0  0  0  0  0  0  0  0
    7.7650   -1.9564   20.7814 N   0  0  0  0  0  0  0  0  0  0  0  0
    7.5239   -2.4760   19.9513 H   0  0  0  0  0  0  0  0  0  0  0  0
    5.4357    0.6586   20.1455 C   0  0  0  0  0  0  0  0  0  0  0  0
    5.0103    0.6450   21.1522 H   0  0  0  0  0  0  0  0  0  0  0  0
    4.8022    1.3109   19.0924 C   0  0  0  0  0  0  0  0  0  0  0  0
    3.8722    1.8423   19.2403 H   0  0  0  0  0  0  0  0  0  0  0  0
  1  2  1  0
  2  3  2  0
  3  4  1  0
  4  5  1  0
  4  6  2  0
  6  7  1  0
  7  8  2  0
  8  9  1  0
  9 10  1  0
 10 11  1  0
 10 12  1  0
 10 13  1  0
 13 14  1  0
 13 15  1  0
 13 16  1  0
 16 17  1  0
 16 18  1  0
 18 19  1  0
 19 20  1  0
 19 21  1  0
 19 22  1  0
 22 23  1  0
 22 24  1  0
 22 25  1  0
 25 26  1  0
 25 27  1  0
 25 28  1  0
 28 29  1  0
 28 30  1  0
 16 31  1  0
 31 32  1  0
 31 33  1  0
 31 34  1  0
 34 35  1  0
 34 36  1  0
  8 37  1  0
 37 38  1  0
 37 39  2  0
 39 40  1  0
 39 41  1  0
 41 42  2  0
 41 43  1  0
 43 44  1  0
  6 45  1  0
 45 46  1  0
 45 47  2  0
 47 48  1  0
 47  2  1  0
 43  7  1  0
 34  9  1  0
 28 18  1  0
M  END
>  <cnnaffinity>  (1) 
-5.7943

>  <filename>  (1) 
O=c1ccc(N2CCC(N3CCCC3)CC2)c(-c2cccnc2)[nH]1

$$$$
