
     RDKit          3D

 45 48  0  0  0  0  0  0  0  0999 V2000
    3.0273   -4.1195   29.8798 H   0  0  0  0  0  0  0  0  0  0  0  0
    3.7395   -4.6607   29.2538 C   0  0  0  0  0  0  0  0  0  0  0  0
    4.1433   -4.0118   28.1573 N   0  0  0  0  0  0  0  0  0  0  0  0
    4.9936   -4.6477   27.3428 C   0  0  0  0  0  0  0  0  0  0  0  0
    5.4341   -3.9761   26.2022 N   0  0  0  0  0  0  0  0  0  0  0  0
    5.4465   -2.5114   26.1443 C   0  0  0  0  0  0  0  0  0  0  0  0
    5.6534   -2.1191   27.1444 H   0  0  0  0  0  0  0  0  0  0  0  0
    4.4680   -2.1090   25.8289 H   0  0  0  0  0  0  0  0  0  0  0  0
    6.5469   -2.0042   25.1913 C   0  0  0  0  0  0  0  0  0  0  0  0
    6.4788   -0.9159   25.0997 H   0  0  0  0  0  0  0  0  0  0  0  0
    7.5387   -2.2629   25.5973 H   0  0  0  0  0  0  0  0  0  0  0  0
    6.3942   -2.5865   23.8266 N   0  0  0  0  0  0  0  0  0  0  0  0
    7.3244   -2.0579   22.9095 N   0  0  0  0  0  0  0  0  0  0  0  0
    6.6585   -1.4148   21.8598 N   0  0  0  0  0  0  0  0  0  0  0  0
    7.3437   -0.7050   21.0160 C   0  0  0  0  0  0  0  0  0  0  0  0
    6.6298    0.0012   19.9215 C   0  0  0  0  0  0  0  0  0  0  0  0
    7.1590    0.0505   18.6194 C   0  0  0  0  0  0  0  0  0  0  0  0
    8.1113   -0.4276   18.3863 H   0  0  0  0  0  0  0  0  0  0  0  0
    6.5668    0.6626   17.5904 N   0  0  0  0  0  0  0  0  0  0  0  0
    5.4065    1.2922   17.8314 C   0  0  0  0  0  0  0  0  0  0  0  0
    4.9485    1.7911   16.9798 H   0  0  0  0  0  0  0  0  0  0  0  0
    4.7970    1.3185   19.0910 C   0  0  0  0  0  0  0  0  0  0  0  0
    3.8654    1.8566   19.2261 H   0  0  0  0  0  0  0  0  0  0  0  0
    5.4066    0.6548   20.1526 C   0  0  0  0  0  0  0  0  0  0  0  0
    4.9664    0.6402   21.1513 H   0  0  0  0  0  0  0  0  0  0  0  0
    8.8251   -0.4988   21.2087 C   0  0  0  0  0  0  0  0  0  0  0  0
    9.2986   -0.2122   20.2625 H   0  0  0  0  0  0  0  0  0  0  0  0
    8.9457    0.3732   21.8713 H   0  0  0  0  0  0  0  0  0  0  0  0
    9.4837   -1.7426   21.8253 C   0  0  0  0  0  0  0  0  0  0  0  0
   10.5070   -1.5531   22.1590 H   0  0  0  0  0  0  0  0  0  0  0  0
    9.5312   -2.5679   21.0990 H   0  0  0  0  0  0  0  0  0  0  0  0
    8.7282   -2.2677   23.0252 C   0  0  0  0  0  0  0  0  0  0  0  0
    9.2588   -2.8440   23.9617 O   0  0  0  0  0  0  0  0  0  0  0  0
    6.4524   -4.0720   23.9342 C   0  0  0  0  0  0  0  0  0  0  0  0
    7.4418   -4.3849   24.3038 H   0  0  0  0  0  0  0  0  0  0  0  0
    6.3017   -4.4858   22.9323 H   0  0  0  0  0  0  0  0  0  0  0  0
    5.3495   -4.5942   24.8762 C   0  0  0  0  0  0  0  0  0  0  0  0
    5.4619   -5.6790   24.9668 H   0  0  0  0  0  0  0  0  0  0  0  0
    4.3646   -4.4081   24.4101 H   0  0  0  0  0  0  0  0  0  0  0  0
    5.4890   -5.9403   27.6243 C   0  0  0  0  0  0  0  0  0  0  0  0
    6.2136   -6.3446   26.9344 H   0  0  0  0  0  0  0  0  0  0  0  0
    5.0912   -6.5910   28.7910 C   0  0  0  0  0  0  0  0  0  0  0  0
    5.4825   -7.5820   29.0461 H   0  0  0  0  0  0  0  0  0  0  0  0
    4.1765   -5.9317   29.6264 C   0  0  0  0  0  0  0  0  0  0  0  0
    3.8132   -6.3680   30.5511 H   0  0  0  0  0  0  0  0  0  0  0  0
  1  2  1  0
  2  3  2  0
  3  4  1  0
  4  5  1  0
  5  6  1  0
  6  7  1  0
  6  8  1  0
  6  9  1  0
  9 10  1  0
  9 11  1  0
  9 12  1  0
 12 13  1  0
 13 14  1  0
 14 15  2  0
 15 16  1  0
 16 17  2  0
 17 18  1  0
 17 19  1  0
 19 20  2  0
 20 21  1  0
 20 22  1  0
 22 23  1  0
 22 24  2  0
 24 25  1  0
 15 26  1  0
 26 27  1  0
 26 28  1  0
 26 29  1  0
 29 30  1  0
 29 31  1  0
 29 32  1  0
 32 33  2  0
 12 34  1  0
 34 35  1  0
 34 36  1  0
 34 37  1  0
 37 38  1  0
 37 39  1  0
  4 40  2  0
 40 41  1  0
 40 42  1  0
 42 43  1  0
 42 44  2  0
 44 45  1  0
 44  2  1  0
 37  5  1  0
 32 13  1  0
 24 16  1  0
M  END
>  <cnnaffinity>  (1) 
-5.25804

>  <filename>  (1) 
O=C1CCC(c2cccnc2)=NN1N1CCN(c2ccccn2)CC1

$$$$
