
     RDKit          3D

 34 37  0  0  0  0  0  0  0  0999 V2000
    4.9131    1.7943   16.9853 H   0  0  0  0  0  0  0  0  0  0  0  0
    5.3893    1.3010   17.8284 C   0  0  0  0  0  0  0  0  0  0  0  0
    6.5467    0.6768   17.5611 N   0  0  0  0  0  0  0  0  0  0  0  0
    7.1662    0.0604   18.5729 C   0  0  0  0  0  0  0  0  0  0  0  0
    8.1197   -0.4182   18.3591 H   0  0  0  0  0  0  0  0  0  0  0  0
    6.6487    0.0140   19.8798 C   0  0  0  0  0  0  0  0  0  0  0  0
    7.3428   -0.6809   20.9353 N   0  0  0  0  0  0  0  0  0  0  0  0
    6.7136   -1.7306   21.5777 C   0  0  0  0  0  0  0  0  0  0  0  0
    5.6990   -1.9507   21.2397 H   0  0  0  0  0  0  0  0  0  0  0  0
    7.3210   -2.4436   22.5694 C   0  0  0  0  0  0  0  0  0  0  0  0
    6.6653   -3.5196   23.2852 C   0  0  0  0  0  0  0  0  0  0  0  0
    5.5735   -4.1080   22.6819 O   0  0  0  0  0  0  0  0  0  0  0  0
    5.1345   -5.0678   23.5432 C   0  0  0  0  0  0  0  0  0  0  0  0
    4.0601   -5.9408   23.3634 C   0  0  0  0  0  0  0  0  0  0  0  0
    3.4579   -5.9219   22.4579 H   0  0  0  0  0  0  0  0  0  0  0  0
    3.8037   -6.8332   24.4107 C   0  0  0  0  0  0  0  0  0  0  0  0
    2.9744   -7.5304   24.3260 H   0  0  0  0  0  0  0  0  0  0  0  0
    4.5893   -6.8542   25.5883 C   0  0  0  0  0  0  0  0  0  0  0  0
    4.3587   -7.5559   26.3875 H   0  0  0  0  0  0  0  0  0  0  0  0
    5.6556   -5.9778   25.7429 C   0  0  0  0  0  0  0  0  0  0  0  0
    6.2800   -5.9647   26.6340 H   0  0  0  0  0  0  0  0  0  0  0  0
    5.9288   -5.0745   24.7045 C   0  0  0  0  0  0  0  0  0  0  0  0
    6.9115   -4.0562   24.5071 C   0  0  0  0  0  0  0  0  0  0  0  0
    7.6998   -3.7473   25.1779 H   0  0  0  0  0  0  0  0  0  0  0  0
    8.6880   -2.0865   22.9732 C   0  0  0  0  0  0  0  0  0  0  0  0
    9.3987   -2.5967   23.8093 O   0  0  0  0  0  0  0  0  0  0  0  0
    9.2096   -1.0255   22.2785 N   0  0  0  0  0  0  0  0  0  0  0  0
   10.1447   -0.7620   22.5188 H   0  0  0  0  0  0  0  0  0  0  0  0
    8.6569   -0.2867   21.2950 C   0  0  0  0  0  0  0  0  0  0  0  0
    9.2840    0.6124   20.7847 O   0  0  0  0  0  0  0  0  0  0  0  0
    5.4347    0.6495   20.1477 C   0  0  0  0  0  0  0  0  0  0  0  0
    5.0274    0.6249   21.1607 H   0  0  0  0  0  0  0  0  0  0  0  0
    4.8012    1.3206   19.0982 C   0  0  0  0  0  0  0  0  0  0  0  0
    3.8700    1.8492   19.2540 H   0  0  0  0  0  0  0  0  0  0  0  0
  1  2  1  0
  2  3  2  0
  3  4  1  0
  4  5  1  0
  4  6  2  0
  6  7  1  0
  7  8  1  0
  8  9  1  0
  8 10  2  0
 10 11  1  0
 11 12  1  0
 12 13  1  0
 13 14  2  0
 14 15  1  0
 14 16  1  0
 16 17  1  0
 16 18  2  0
 18 19  1  0
 18 20  1  0
 20 21  1  0
 20 22  2  0
 22 23  1  0
 23 24  1  0
 10 25  1  0
 25 26  2  0
 25 27  1  0
 27 28  1  0
 27 29  1  0
 29 30  2  0
  6 31  1  0
 31 32  1  0
 31 33  2  0
 33 34  1  0
 33  2  1  0
 29  7  1  0
 23 11  2  0
 22 13  1  0
M  END
>  <cnnaffinity>  (1) 
-5.55596

>  <filename>  (1) 
O=c1[nH]c(=O)n(-c2cccnc2)cc1-c1cc2ccccc2o1

$$$$
