
     RDKit          3D

 32 34  0  0  0  0  0  0  0  0999 V2000
    6.8628    1.8713   25.4264 H   0  0  0  0  0  0  0  0  0  0  0  0
    7.8042    1.4851   25.0411 C   0  0  0  0  0  0  0  0  0  0  0  0
    7.9347    1.5191   23.7084 N   0  0  0  0  0  0  0  0  0  0  0  0
    9.0646    1.0271   23.1773 C   0  0  0  0  0  0  0  0  0  0  0  0
    9.1637    1.0033   21.6583 C   0  0  0  0  0  0  0  0  0  0  0  0
   10.1903    1.2334   21.3486 H   0  0  0  0  0  0  0  0  0  0  0  0
    8.4891    1.7731   21.2681 H   0  0  0  0  0  0  0  0  0  0  0  0
    8.7989   -0.2823   21.0480 N   0  0  0  0  0  0  0  0  0  0  0  0
    9.6433   -1.3686   21.0818 C   0  0  0  0  0  0  0  0  0  0  0  0
   10.8449   -1.3630   21.1932 O   0  0  0  0  0  0  0  0  0  0  0  0
    8.8693   -2.5015   20.9836 N   0  0  0  0  0  0  0  0  0  0  0  0
    9.2859   -3.3393   20.6301 H   0  0  0  0  0  0  0  0  0  0  0  0
    7.5312   -2.2374   20.8527 C   0  0  0  0  0  0  0  0  0  0  0  0
    6.6841   -3.0671   20.6588 O   0  0  0  0  0  0  0  0  0  0  0  0
    7.3982   -0.6958   20.9897 C   0  0  2  0  0  0  0  0  0  0  0  0
    6.8971   -0.4901   21.9488 H   0  0  0  0  0  0  0  0  0  0  0  0
    6.6438    0.0320   19.8823 C   0  0  0  0  0  0  0  0  0  0  0  0
    7.1625    0.1036   18.5751 C   0  0  0  0  0  0  0  0  0  0  0  0
    8.1154   -0.3649   18.3399 H   0  0  0  0  0  0  0  0  0  0  0  0
    6.5475    0.7145   17.5552 N   0  0  0  0  0  0  0  0  0  0  0  0
    5.3793    1.3231   17.8135 C   0  0  0  0  0  0  0  0  0  0  0  0
    4.9089    1.8256   16.9699 H   0  0  0  0  0  0  0  0  0  0  0  0
    4.7735    1.3300   19.0752 C   0  0  0  0  0  0  0  0  0  0  0  0
    3.8310    1.8540   19.2170 H   0  0  0  0  0  0  0  0  0  0  0  0
    5.4223    0.6733   20.1280 C   0  0  0  0  0  0  0  0  0  0  0  0
    4.9940    0.6697   21.1339 H   0  0  0  0  0  0  0  0  0  0  0  0
   10.1125    0.5050   23.9575 C   0  0  0  0  0  0  0  0  0  0  0  0
   10.9977    0.1266   23.4504 H   0  0  0  0  0  0  0  0  0  0  0  0
    9.9695    0.4859   25.3477 C   0  0  0  0  0  0  0  0  0  0  0  0
   10.7615    0.0968   25.9878 H   0  0  0  0  0  0  0  0  0  0  0  0
    8.7838    0.9845   25.9010 C   0  0  0  0  0  0  0  0  0  0  0  0
    8.5968    0.9795   26.9704 H   0  0  0  0  0  0  0  0  0  0  0  0
  1  2  1  0
  2  3  2  0
  3  4  1  0
  4  5  1  0
  5  6  1  0
  5  7  1  0
  5  8  1  0
  8  9  1  0
  9 10  2  0
  9 11  1  0
 11 12  1  0
 11 13  1  0
 13 14  2  0
 13 15  1  0
 15 16  1  1
 15 17  1  0
 17 18  2  0
 18 19  1  0
 18 20  1  0
 20 21  2  0
 21 22  1  0
 21 23  1  0
 23 24  1  0
 23 25  2  0
 25 26  1  0
  4 27  2  0
 27 28  1  0
 27 29  1  0
 29 30  1  0
 29 31  2  0
 31 32  1  0
 31  2  1  0
 15  8  1  0
 25 17  1  0
M  END
>  <cnnaffinity>  (1) 
-5.01653

>  <filename>  (1) 
O=C1NC(=O)N(Cc2ccccn2)[C@H]1c1cccnc1

$$$$
