
     RDKit          3D

 42 46  0  0  0  0  0  0  0  0999 V2000
    4.9928    1.8161   16.9640 H   0  0  0  0  0  0  0  0  0  0  0  0
    5.4073    1.3039   17.8292 C   0  0  0  0  0  0  0  0  0  0  0  0
    6.5484    0.6272   17.6242 N   0  0  0  0  0  0  0  0  0  0  0  0
    7.0941    0.0134   18.6772 C   0  0  0  0  0  0  0  0  0  0  0  0
    8.0002   -0.5547   18.4657 H   0  0  0  0  0  0  0  0  0  0  0  0
    6.5718    0.0832   19.9852 C   0  0  0  0  0  0  0  0  0  0  0  0
    7.3221   -0.5273   21.0923 C   0  0  0  0  0  0  0  0  0  0  0  0
    7.8446   -1.7341   20.9056 N   0  0  0  0  0  0  0  0  0  0  0  0
    8.4760   -1.9934   22.0440 N   0  0  0  0  0  0  0  0  0  0  0  0
    8.4710   -0.9968   22.9476 C   0  0  0  0  0  0  0  0  0  0  0  0
    7.6981    0.0107   22.3674 C   0  0  0  0  0  0  0  0  0  0  0  0
    7.4692    1.4166   22.8796 C   0  0  0  0  0  0  0  0  0  0  0  0
    8.3966    2.0063   22.8354 H   0  0  0  0  0  0  0  0  0  0  0  0
    6.7229    1.9263   22.2579 H   0  0  0  0  0  0  0  0  0  0  0  0
    7.0254    1.4588   24.2696 N   0  0  0  0  0  0  0  0  0  0  0  0
    7.8991    1.4353   25.3508 C   0  0  0  0  0  0  0  0  0  0  0  0
    9.0869    1.6486   25.2593 O   0  0  0  0  0  0  0  0  0  0  0  0
    7.0973    1.0609   26.5535 C   0  0  0  0  0  0  0  0  0  0  0  0
    7.4412    0.9756   27.9029 C   0  0  0  0  0  0  0  0  0  0  0  0
    8.4397    1.2281   28.2430 H   0  0  0  0  0  0  0  0  0  0  0  0
    6.4685    0.5330   28.8026 C   0  0  0  0  0  0  0  0  0  0  0  0
    6.7065    0.4767   29.8625 H   0  0  0  0  0  0  0  0  0  0  0  0
    5.1940    0.1334   28.3483 C   0  0  0  0  0  0  0  0  0  0  0  0
    4.4704   -0.2505   29.0637 H   0  0  0  0  0  0  0  0  0  0  0  0
    4.8538    0.2382   26.9965 C   0  0  0  0  0  0  0  0  0  0  0  0
    3.8765   -0.0716   26.6380 H   0  0  0  0  0  0  0  0  0  0  0  0
    5.8124    0.7504   26.1190 C   0  0  0  0  0  0  0  0  0  0  0  0
    5.7433    1.0933   24.6675 C   0  0  0  0  0  0  0  0  0  0  0  0
    4.7834    1.1215   23.9358 O   0  0  0  0  0  0  0  0  0  0  0  0
    9.4053   -1.3729   24.0761 C   0  0  0  0  0  0  0  0  0  0  0  0
   10.1575   -0.5977   24.2397 H   0  0  0  0  0  0  0  0  0  0  0  0
    8.8598   -1.5157   25.0090 H   0  0  0  0  0  0  0  0  0  0  0  0
   10.0341   -2.7262   23.6141 C   0  0  0  0  0  0  0  0  0  0  0  0
    9.8030   -3.5315   24.3122 H   0  0  0  0  0  0  0  0  0  0  0  0
   11.1172   -2.6692   23.5379 H   0  0  0  0  0  0  0  0  0  0  0  0
    9.4465   -3.0332   22.2229 C   0  0  0  0  0  0  0  0  0  0  0  0
   10.1871   -2.9168   21.4280 H   0  0  0  0  0  0  0  0  0  0  0  0
    8.9609   -4.0075   22.1474 H   0  0  0  0  0  0  0  0  0  0  0  0
    5.3425    0.7335   20.1652 C   0  0  0  0  0  0  0  0  0  0  0  0
    4.8765    0.7460   21.1537 H   0  0  0  0  0  0  0  0  0  0  0  0
    4.7515    1.3512   19.0623 C   0  0  0  0  0  0  0  0  0  0  0  0
    3.8078    1.8754   19.1522 H   0  0  0  0  0  0  0  0  0  0  0  0
  1  2  1  0
  2  3  2  0
  3  4  1  0
  4  5  1  0
  4  6  2  0
  6  7  1  0
  7  8  2  0
  8  9  1  0
  9 10  1  0
 10 11  2  0
 11 12  1  0
 12 13  1  0
 12 14  1  0
 12 15  1  0
 15 16  1  0
 16 17  2  0
 16 18  1  0
 18 19  2  0
 19 20  1  0
 19 21  1  0
 21 22  1  0
 21 23  2  0
 23 24  1  0
 23 25  1  0
 25 26  1  0
 25 27  2  0
 27 28  1  0
 28 29  2  0
 10 30  1  0
 30 31  1  0
 30 32  1  0
 30 33  1  0
 33 34  1  0
 33 35  1  0
 33 36  1  0
 36 37  1  0
 36 38  1  0
  6 39  1  0
 39 40  1  0
 39 41  2  0
 41 42  1  0
 41  2  1  0
 11  7  1  0
 28 15  1  0
 36  9  1  0
 27 18  1  0
M  END
>  <cnnaffinity>  (1) 
-5.64926

>  <filename>  (1) 
O=C1c2ccccc2C(=O)N1Cc1c(-c2cccnc2)nn2c1CCC2

$$$$
