
     RDKit          3D

 44 48  0  0  0  0  0  0  0  0999 V2000
   11.7948   -1.2580   21.3302 O   0  0  0  0  0  0  0  0  0  0  0  0
   11.6691   -0.1452   21.8157 C   0  0  0  0  0  0  0  0  0  0  0  0
   12.6457    0.4519   22.7074 C   0  0  0  0  0  0  0  0  0  0  0  0
   12.4869    1.6903   23.2337 C   0  0  0  0  0  0  0  0  0  0  0  0
   11.3078    2.4372   22.9260 C   0  0  0  0  0  0  0  0  0  0  0  0
   11.0323    3.7663   23.5752 C   0  0  0  0  0  0  0  0  0  0  0  0
   10.0557    3.6756   24.5014 F   0  0  0  0  0  0  0  0  0  0  0  0
   10.6285    4.6961   22.6864 F   0  0  0  0  0  0  0  0  0  0  0  0
   12.1136    4.2570   24.2029 F   0  0  0  0  0  0  0  0  0  0  0  0
   10.3842    1.9211   22.0644 C   0  0  0  0  0  0  0  0  0  0  0  0
   10.5414    0.6838   21.5006 N   0  0  0  0  0  0  0  0  0  0  0  0
    9.4921    0.1495   20.6181 C   0  0  0  0  0  0  0  0  0  0  0  0
    8.3914   -0.6239   21.2956 C   0  0  0  0  0  0  0  0  0  0  0  0
    8.5358   -1.3977   22.3440 N   0  0  0  0  0  0  0  0  0  0  0  0
    7.3167   -1.9717   22.4864 C   0  0  0  0  0  0  0  0  0  0  0  0
    7.1448   -2.9629   23.5574 C   0  0  0  0  0  0  0  0  0  0  0  0
    5.8340   -3.6669   23.8649 C   0  0  0  0  0  0  0  0  0  0  0  0
    6.9503   -4.3995   23.1718 C   0  0  0  0  0  0  0  0  0  0  0  0
    7.2357   -5.1481   21.9230 C   0  0  0  0  0  0  0  0  0  0  0  0
    7.8462   -5.5681   23.2672 C   0  0  0  0  0  0  0  0  0  0  0  0
    7.4705   -6.4698   23.7306 H   0  0  0  0  0  0  0  0  0  0  0  0
    8.9007   -5.3617   23.4559 H   0  0  0  0  0  0  0  0  0  0  0  0
    6.4381   -5.7773   21.5287 H   0  0  0  0  0  0  0  0  0  0  0  0
    7.8580   -4.6488   21.1768 H   0  0  0  0  0  0  0  0  0  0  0  0
    5.6294   -3.9331   24.9024 H   0  0  0  0  0  0  0  0  0  0  0  0
    4.9761   -3.4081   23.2464 H   0  0  0  0  0  0  0  0  0  0  0  0
    7.8643   -2.7964   24.3574 H   0  0  0  0  0  0  0  0  0  0  0  0
    6.4168   -1.5929   21.5976 N   0  0  0  0  0  0  0  0  0  0  0  0
    7.1126   -0.7292   20.8138 N   0  0  0  0  0  0  0  0  0  0  0  0
    6.4854   -0.0417   19.7343 C   0  0  0  0  0  0  0  0  0  0  0  0
    5.3602    0.7649   19.9480 C   0  0  0  0  0  0  0  0  0  0  0  0
    4.8446    1.4684   18.8539 C   0  0  0  0  0  0  0  0  0  0  0  0
    5.4518    1.3293   17.5998 C   0  0  0  0  0  0  0  0  0  0  0  0
    6.5165    0.5415   17.3864 N   0  0  0  0  0  0  0  0  0  0  0  0
    7.0099   -0.1273   18.4334 C   0  0  0  0  0  0  0  0  0  0  0  0
    7.8739   -0.7612   18.2381 H   0  0  0  0  0  0  0  0  0  0  0  0
    5.0648    1.8522   16.7277 H   0  0  0  0  0  0  0  0  0  0  0  0
    3.9902    2.1293   18.9598 H   0  0  0  0  0  0  0  0  0  0  0  0
    4.9181    0.8439   20.9423 H   0  0  0  0  0  0  0  0  0  0  0  0
    9.9750   -0.5367   19.9172 H   0  0  0  0  0  0  0  0  0  0  0  0
    9.0493    0.9674   20.0439 H   0  0  0  0  0  0  0  0  0  0  0  0
    9.4889    2.4735   21.7716 H   0  0  0  0  0  0  0  0  0  0  0  0
   13.2612    2.1169   23.8737 H   0  0  0  0  0  0  0  0  0  0  0  0
   13.4967   -0.1804   22.9103 H   0  0  0  0  0  0  0  0  0  0  0  0
  1  2  2  0
  2  3  1  0
  3  4  2  0
  4  5  1  0
  5  6  1  0
  6  7  1  0
  6  8  1  0
  6  9  1  0
  5 10  2  0
 10 11  1  0
 11 12  1  0
 12 13  1  0
 13 14  2  0
 14 15  1  0
 15 16  1  0
 16 17  1  0
 17 18  1  0
 18 19  1  0
 19 20  1  0
 20 21  1  0
 20 22  1  0
 19 23  1  0
 19 24  1  0
 17 25  1  0
 17 26  1  0
 16 27  1  0
 15 28  2  0
 28 29  1  0
 29 30  1  0
 30 31  2  0
 31 32  1  0
 32 33  2  0
 33 34  1  0
 34 35  2  0
 35 36  1  0
 33 37  1  0
 32 38  1  0
 31 39  1  0
 12 40  1  0
 12 41  1  0
 10 42  1  0
  4 43  1  0
  3 44  1  0
 11  2  1  0
 29 13  1  0
 35 30  1  0
 18 16  1  0
 20 18  1  0
M  END
>  <cnnaffinity>  (1) 
-6.85764

>  <filename>  (1) 
O=c1ccc(C(F)(F)F)cn1Cc1nc(C2CC23CC3)nn1-c1cccnc1

$$$$
