
     RDKit          3D

 35 38  0  0  0  0  0  0  0  0999 V2000
    4.9211    1.8461   17.0105 H   0  0  0  0  0  0  0  0  0  0  0  0
    5.4061    1.3213   17.8320 C   0  0  0  0  0  0  0  0  0  0  0  0
    6.5589    0.6971   17.5400 N   0  0  0  0  0  0  0  0  0  0  0  0
    7.1876    0.0553   18.5354 C   0  0  0  0  0  0  0  0  0  0  0  0
    8.1233   -0.4512   18.2994 H   0  0  0  0  0  0  0  0  0  0  0  0
    6.7011    0.0173   19.8593 C   0  0  0  0  0  0  0  0  0  0  0  0
    7.4033   -0.6494   20.9302 N   0  0  0  0  0  0  0  0  0  0  0  0
    7.2831   -2.0170   21.1339 C   0  0  0  0  0  0  0  0  0  0  0  0
    6.4557   -2.7325   20.6190 O   0  0  0  0  0  0  0  0  0  0  0  0
    8.3842   -2.5301   22.0442 C   0  0  0  0  0  0  0  0  0  0  0  0
    9.0638   -3.1371   21.4418 H   0  0  0  0  0  0  0  0  0  0  0  0
    7.9363   -3.1819   22.7945 H   0  0  0  0  0  0  0  0  0  0  0  0
    9.2515   -1.1030   22.7572 S   0  0  0  0  0  0  0  0  0  0  0  0
    8.1968    0.1341   21.8847 C   0  0  2  0  0  0  0  0  0  0  0  0
    8.8652    0.7806   21.3108 H   0  0  0  0  0  0  0  0  0  0  0  0
    7.3708    0.9858   22.8273 C   0  0  0  0  0  0  0  0  0  0  0  0
    6.6665    0.3758   23.8369 C   0  0  0  0  0  0  0  0  0  0  0  0
    6.7330   -0.6952   23.9748 H   0  0  0  0  0  0  0  0  0  0  0  0
    5.8893    1.0097   24.7499 N   0  0  0  0  0  0  0  0  0  0  0  0
    5.7828    2.3155   24.6554 C   0  0  0  0  0  0  0  0  0  0  0  0
    5.1535    2.8097   25.3950 H   0  0  0  0  0  0  0  0  0  0  0  0
    6.4104    3.0992   23.6420 C   0  0  0  0  0  0  0  0  0  0  0  0
    6.1848    4.5074   23.5095 C   0  0  0  0  0  0  0  0  0  0  0  0
    5.4497    5.0008   24.1410 H   0  0  0  0  0  0  0  0  0  0  0  0
    6.8791    5.2411   22.5826 C   0  0  0  0  0  0  0  0  0  0  0  0
    6.7323    6.3187   22.4990 H   0  0  0  0  0  0  0  0  0  0  0  0
    7.8085    4.5992   21.7280 C   0  0  0  0  0  0  0  0  0  0  0  0
    8.3682    5.2127   21.0250 H   0  0  0  0  0  0  0  0  0  0  0  0
    7.9785    3.2251   21.7668 C   0  0  0  0  0  0  0  0  0  0  0  0
    8.6669    2.7700   21.0610 H   0  0  0  0  0  0  0  0  0  0  0  0
    7.2748    2.4252   22.7196 C   0  0  0  0  0  0  0  0  0  0  0  0
    5.5092    0.6757   20.1504 C   0  0  0  0  0  0  0  0  0  0  0  0
    5.1731    0.6666   21.1870 H   0  0  0  0  0  0  0  0  0  0  0  0
    4.8350    1.3250   19.1102 C   0  0  0  0  0  0  0  0  0  0  0  0
    3.8936    1.8322   19.2790 H   0  0  0  0  0  0  0  0  0  0  0  0
  1  2  1  0
  2  3  2  0
  3  4  1  0
  4  5  1  0
  4  6  2  0
  6  7  1  0
  7  8  1  0
  8  9  2  0
  8 10  1  0
 10 11  1  0
 10 12  1  0
 10 13  1  0
 13 14  1  0
 14 15  1  6
 14 16  1  0
 16 17  2  0
 17 18  1  0
 17 19  1  0
 19 20  2  0
 20 21  1  0
 20 22  1  0
 22 23  2  0
 23 24  1  0
 23 25  1  0
 25 26  1  0
 25 27  2  0
 27 28  1  0
 27 29  1  0
 29 30  1  0
 29 31  2  0
  6 32  1  0
 32 33  1  0
 32 34  2  0
 34 35  1  0
 34  2  1  0
 14  7  1  0
 31 16  1  0
 31 22  1  0
M  END
>  <cnnaffinity>  (1) 
-4.99249

>  <filename>  (1) 
O=C1CS[C@H](c2cncc3ccccc23)N1c1cccnc1

$$$$
