
     RDKit          3D

 32 34  0  0  0  0  0  0  0  0999 V2000
    4.8820    1.7688   16.9183 H   0  0  0  0  0  0  0  0  0  0  0  0
    5.3517    1.3682   17.8131 C   0  0  0  0  0  0  0  0  0  0  0  0
    6.5613    0.8198   17.6308 N   0  0  0  0  0  0  0  0  0  0  0  0
    7.1723    0.3160   18.7073 C   0  0  0  0  0  0  0  0  0  0  0  0
    8.1498   -0.1279   18.5174 H   0  0  0  0  0  0  0  0  0  0  0  0
    6.6357    0.3456   20.0126 C   0  0  0  0  0  0  0  0  0  0  0  0
    7.3223   -0.3919   21.1101 C   0  0  0  0  0  0  0  0  0  0  0  0
    7.6675    0.4746   22.5956 S   0  0  0  0  0  0  0  0  0  0  0  0
    8.2372   -0.8038   23.6389 C   0  0  0  0  0  0  0  0  0  0  0  0
    8.3789   -0.4514   25.0932 C   0  0  0  0  0  0  0  0  0  0  0  0
    9.6487   -0.3834   25.5101 N   0  0  0  0  0  0  0  0  0  0  0  0
    9.8978   -0.2176   26.8118 C   0  0  0  0  0  0  0  0  0  0  0  0
   10.9524   -0.1844   27.0814 H   0  0  0  0  0  0  0  0  0  0  0  0
    8.8880   -0.1208   27.7731 C   0  0  0  0  0  0  0  0  0  0  0  0
    9.1520    0.0161   28.8163 H   0  0  0  0  0  0  0  0  0  0  0  0
    7.5608   -0.1908   27.3647 C   0  0  0  0  0  0  0  0  0  0  0  0
    6.7456   -0.1105   28.0882 H   0  0  0  0  0  0  0  0  0  0  0  0
    7.3018   -0.3671   25.9991 C   0  0  0  0  0  0  0  0  0  0  0  0
    5.9119   -0.5577   25.4786 C   0  0  0  0  0  0  0  0  0  0  0  0
    5.0122   -0.6991   26.4684 F   0  0  0  0  0  0  0  0  0  0  0  0
    5.8300   -1.6495   24.6962 F   0  0  0  0  0  0  0  0  0  0  0  0
    5.5114    0.4893   24.7336 F   0  0  0  0  0  0  0  0  0  0  0  0
    8.5950   -2.0396   23.2030 C   0  0  0  0  0  0  0  0  0  0  0  0
    9.1269   -2.7368   23.8512 H   0  0  0  0  0  0  0  0  0  0  0  0
    8.2543   -2.5877   21.8849 C   0  0  0  0  0  0  0  0  0  0  0  0
    8.4883   -3.7542   21.6087 O   0  0  0  0  0  0  0  0  0  0  0  0
    7.6324   -1.6878   20.9149 C   0  0  0  0  0  0  0  0  0  0  0  0
    7.4116   -2.1543   19.9657 H   0  0  0  0  0  0  0  0  0  0  0  0
    5.3835    0.9530   20.1851 C   0  0  0  0  0  0  0  0  0  0  0  0
    4.9482    1.0122   21.1840 H   0  0  0  0  0  0  0  0  0  0  0  0
    4.7223    1.4539   19.0599 C   0  0  0  0  0  0  0  0  0  0  0  0
    3.7491    1.9241   19.1309 H   0  0  0  0  0  0  0  0  0  0  0  0
  1  2  1  0
  2  3  2  0
  3  4  1  0
  4  5  1  0
  4  6  2  0
  6  7  1  0
  7  8  1  0
  8  9  1  0
  9 10  1  0
 10 11  2  0
 11 12  1  0
 12 13  1  0
 12 14  2  0
 14 15  1  0
 14 16  1  0
 16 17  1  0
 16 18  2  0
 18 19  1  0
 19 20  1  0
 19 21  1  0
 19 22  1  0
  9 23  2  0
 23 24  1  0
 23 25  1  0
 25 26  2  0
 25 27  1  0
 27 28  1  0
  6 29  1  0
 29 30  1  0
 29 31  2  0
 31 32  1  0
 31  2  1  0
 27  7  2  0
 18 10  1  0
M  END
>  <cnnaffinity>  (1) 
-5.53541

>  <filename>  (1) 
O=c1cc(-c2cccnc2)sc(-c2ncccc2C(F)(F)F)c1

$$$$
