
     RDKit          3D

 32 34  0  0  0  0  0  0  0  0999 V2000
    4.9162    1.8792   16.8726 H   0  0  0  0  0  0  0  0  0  0  0  0
    5.3662    1.4038   17.7432 C   0  0  0  0  0  0  0  0  0  0  0  0
    6.5405    0.7871   17.5448 N   0  0  0  0  0  0  0  0  0  0  0  0
    7.1031    0.1674   18.5872 C   0  0  0  0  0  0  0  0  0  0  0  0
    8.0460   -0.3347   18.3750 H   0  0  0  0  0  0  0  0  0  0  0  0
    6.5512    0.1522   19.8760 C   0  0  0  0  0  0  0  0  0  0  0  0
    7.2538   -0.6244   20.9309 C   0  0  0  0  0  0  0  0  0  0  0  0
    7.7516   -1.7763   20.5635 N   0  0  0  0  0  0  0  0  0  0  0  0
    8.3266   -2.5522   21.5261 C   0  0  0  0  0  0  0  0  0  0  0  0
    8.6488   -3.7163   21.4048 O   0  0  0  0  0  0  0  0  0  0  0  0
    8.5843   -1.9865   22.7839 N   0  0  0  0  0  0  0  0  0  0  0  0
    8.9965   -2.7241   23.3312 H   0  0  0  0  0  0  0  0  0  0  0  0
    7.9878   -0.8422   23.2331 C   0  0  0  0  0  0  0  0  0  0  0  0
    8.0346   -0.4345   24.6914 C   0  0  0  0  0  0  0  0  0  0  0  0
    7.8195    0.8698   24.9242 N   0  0  0  0  0  0  0  0  0  0  0  0
    7.8193    1.3266   26.1806 C   0  0  0  0  0  0  0  0  0  0  0  0
    7.5589    2.8322   26.3968 C   0  0  0  0  0  0  0  0  0  0  0  0
    8.6716    3.4488   26.8406 F   0  0  0  0  0  0  0  0  0  0  0  0
    6.6131    3.0391   27.3404 F   0  0  0  0  0  0  0  0  0  0  0  0
    7.1639    3.4711   25.2918 F   0  0  0  0  0  0  0  0  0  0  0  0
    8.0589    0.4926   27.2826 C   0  0  0  0  0  0  0  0  0  0  0  0
    8.0935    0.8940   28.2895 H   0  0  0  0  0  0  0  0  0  0  0  0
    8.2543   -0.8711   27.0457 C   0  0  0  0  0  0  0  0  0  0  0  0
    8.4181   -1.5595   27.8703 H   0  0  0  0  0  0  0  0  0  0  0  0
    8.2242   -1.3571   25.7400 C   0  0  0  0  0  0  0  0  0  0  0  0
    8.3183   -2.4194   25.5318 H   0  0  0  0  0  0  0  0  0  0  0  0
    7.3363   -0.1176   22.2647 C   0  0  0  0  0  0  0  0  0  0  0  0
    6.8967    0.8336   22.5310 H   0  0  0  0  0  0  0  0  0  0  0  0
    5.3348    0.8292   20.0736 C   0  0  0  0  0  0  0  0  0  0  0  0
    4.8702    0.8778   21.0603 H   0  0  0  0  0  0  0  0  0  0  0  0
    4.7189    1.4428   18.9822 C   0  0  0  0  0  0  0  0  0  0  0  0
    3.7683    1.9642   19.0754 H   0  0  0  0  0  0  0  0  0  0  0  0
  1  2  1  0
  2  3  2  0
  3  4  1  0
  4  5  1  0
  4  6  2  0
  6  7  1  0
  7  8  2  0
  8  9  1  0
  9 10  2  0
  9 11  1  0
 11 12  1  0
 11 13  1  0
 13 14  1  0
 14 15  2  0
 15 16  1  0
 16 17  1  0
 17 18  1  0
 17 19  1  0
 17 20  1  0
 16 21  2  0
 21 22  1  0
 21 23  1  0
 23 24  1  0
 23 25  2  0
 25 26  1  0
 13 27  2  0
 27 28  1  0
  6 29  1  0
 29 30  1  0
 29 31  2  0
 31 32  1  0
 31  2  1  0
 27  7  1  0
 25 14  1  0
M  END
>  <cnnaffinity>  (1) 
-5.51958

>  <filename>  (1) 
O=c1nc(-c2cccnc2)cc(-c2cccc(C(F)(F)F)n2)[nH]1

$$$$
