
     RDKit          3D

 35 37  0  0  0  0  0  0  0  0999 V2000
    4.9558    1.8523   16.9605 H   0  0  0  0  0  0  0  0  0  0  0  0
    5.4718    1.3190   17.7578 C   0  0  0  0  0  0  0  0  0  0  0  0
    6.6521    0.7627   17.4392 N   0  0  0  0  0  0  0  0  0  0  0  0
    7.3169    0.1033   18.4011 C   0  0  0  0  0  0  0  0  0  0  0  0
    8.2918   -0.3042   18.1407 H   0  0  0  0  0  0  0  0  0  0  0  0
    6.8134   -0.0707   19.7119 C   0  0  0  0  0  0  0  0  0  0  0  0
    7.5005   -0.8295   20.7350 N   0  0  0  0  0  0  0  0  0  0  0  0
    6.8580   -1.8006   21.5303 C   0  0  0  0  0  0  0  0  0  0  0  0
    5.8848   -2.4178   21.2003 O   0  0  0  0  0  0  0  0  0  0  0  0
    7.6204   -1.8891   22.7249 N   0  0  0  0  0  0  0  0  0  0  0  0
    7.2351   -2.3477   24.0518 N   0  0  0  0  0  0  0  0  0  0  0  0
    7.9436   -2.9410   24.4853 H   0  0  0  0  0  0  0  0  0  0  0  0
    6.8886   -1.5386   25.5630 S   0  0  0  0  0  0  0  0  0  0  0  0
    5.4611   -1.4623   25.7576 O   0  0  0  0  0  0  0  0  0  0  0  0
    7.7705   -2.3073   26.4248 O   0  0  0  0  0  0  0  0  0  0  0  0
    7.5475    0.0919   25.3721 C   0  0  0  0  0  0  0  0  0  0  0  0
    8.7577    0.4195   25.9992 C   0  0  0  0  0  0  0  0  0  0  0  0
    9.2599   -0.2816   26.6638 H   0  0  0  0  0  0  0  0  0  0  0  0
    9.3314    1.6691   25.7651 C   0  0  0  0  0  0  0  0  0  0  0  0
   10.2837    1.9020   26.2330 H   0  0  0  0  0  0  0  0  0  0  0  0
    8.6870    2.6150   24.9557 C   0  0  0  0  0  0  0  0  0  0  0  0
    9.1321    3.5989   24.8002 H   0  0  0  0  0  0  0  0  0  0  0  0
    7.4485    2.2947   24.3803 C   0  0  0  0  0  0  0  0  0  0  0  0
    6.9262    3.0405   23.7818 H   0  0  0  0  0  0  0  0  0  0  0  0
    6.8687    1.0381   24.5878 C   0  0  0  0  0  0  0  0  0  0  0  0
    5.9006    0.8201   24.1353 H   0  0  0  0  0  0  0  0  0  0  0  0
    8.9000   -1.2404   22.5713 C   0  0  0  0  0  0  0  0  0  0  0  0
    9.1076   -0.5397   23.3840 H   0  0  0  0  0  0  0  0  0  0  0  0
    9.7234   -1.9561   22.4770 H   0  0  0  0  0  0  0  0  0  0  0  0
    8.7217   -0.4730   21.2899 C   0  0  0  0  0  0  0  0  0  0  0  0
    9.5044    0.3144   20.8185 O   0  0  0  0  0  0  0  0  0  0  0  0
    5.5925    0.5278   20.0254 C   0  0  0  0  0  0  0  0  0  0  0  0
    5.1974    0.4350   21.0343 H   0  0  0  0  0  0  0  0  0  0  0  0
    4.9086    1.2374   19.0338 C   0  0  0  0  0  0  0  0  0  0  0  0
    3.9647    1.7254   19.2428 H   0  0  0  0  0  0  0  0  0  0  0  0
  1  2  1  0
  2  3  2  0
  3  4  1  0
  4  5  1  0
  4  6  2  0
  6  7  1  0
  7  8  1  0
  8  9  2  0
  8 10  1  0
 10 11  1  0
 11 12  1  0
 11 13  1  0
 13 14  2  0
 13 15  2  0
 13 16  1  0
 16 17  2  0
 17 18  1  0
 17 19  1  0
 19 20  1  0
 19 21  2  0
 21 22  1  0
 21 23  1  0
 23 24  1  0
 23 25  2  0
 25 26  1  0
 10 27  1  0
 27 28  1  0
 27 29  1  0
 27 30  1  0
 30 31  2  0
  6 32  1  0
 32 33  1  0
 32 34  2  0
 34 35  1  0
 34  2  1  0
 30  7  1  0
 25 16  1  0
M  END
>  <cnnaffinity>  (1) 
-5.00535

>  <filename>  (1) 
O=C1CN(NS(=O)(=O)c2ccccc2)C(=O)N1c1cccnc1

$$$$
