
     RDKit          3D

 36 39  0  0  0  0  0  0  0  0999 V2000
    4.9390    1.8012   16.9816 H   0  0  0  0  0  0  0  0  0  0  0  0
    5.3991    1.2854   17.8242 C   0  0  0  0  0  0  0  0  0  0  0  0
    6.5582    0.6569   17.5702 N   0  0  0  0  0  0  0  0  0  0  0  0
    7.1538    0.0217   18.5839 C   0  0  0  0  0  0  0  0  0  0  0  0
    8.1166   -0.4366   18.3528 H   0  0  0  0  0  0  0  0  0  0  0  0
    6.6393   -0.0173   19.8925 C   0  0  0  0  0  0  0  0  0  0  0  0
    7.3940   -0.6535   20.9774 C   0  0  0  0  0  0  0  0  0  0  0  0
    7.7647   -0.0454   22.1605 C   0  0  0  0  0  0  0  0  0  0  0  0
    7.5437    1.4025   22.3758 C   0  0  0  0  0  0  0  0  0  0  0  0
    8.2074    2.3294   21.5942 C   0  0  0  0  0  0  0  0  0  0  0  0
    8.8733    1.9613   20.8220 H   0  0  0  0  0  0  0  0  0  0  0  0
    8.0265    3.7188   21.7959 C   0  0  0  0  0  0  0  0  0  0  0  0
    8.5168    4.4567   21.1784 H   0  0  0  0  0  0  0  0  0  0  0  0
    7.1659    4.1759   22.7611 C   0  0  0  0  0  0  0  0  0  0  0  0
    6.9883    5.2323   22.9253 H   0  0  0  0  0  0  0  0  0  0  0  0
    6.4424    3.2622   23.5662 C   0  0  0  0  0  0  0  0  0  0  0  0
    5.5848    3.7960   24.4954 N   0  0  0  0  0  0  0  0  0  0  0  0
    4.8941    2.9621   25.2283 C   0  0  0  0  0  0  0  0  0  0  0  0
    4.2258    3.4169   25.9601 H   0  0  0  0  0  0  0  0  0  0  0  0
    4.9706    1.5466   25.1196 C   0  0  0  0  0  0  0  0  0  0  0  0
    4.3612    0.9353   25.7697 H   0  0  0  0  0  0  0  0  0  0  0  0
    5.8249    0.9923   24.1952 C   0  0  0  0  0  0  0  0  0  0  0  0
    5.9173   -0.0863   24.0650 H   0  0  0  0  0  0  0  0  0  0  0  0
    6.6197    1.8535   23.3808 C   0  0  0  0  0  0  0  0  0  0  0  0
    8.4430   -0.8250   23.1578 C   0  0  0  0  0  0  0  0  0  0  0  0
    8.7025   -0.3116   24.0836 H   0  0  0  0  0  0  0  0  0  0  0  0
    8.7265   -2.1454   22.9577 C   0  0  0  0  0  0  0  0  0  0  0  0
    9.2304   -2.7731   23.6801 H   0  0  0  0  0  0  0  0  0  0  0  0
    8.3295   -2.7953   21.7161 C   0  0  0  0  0  0  0  0  0  0  0  0
    8.4568   -3.9730   21.4248 O   0  0  0  0  0  0  0  0  0  0  0  0
    7.7463   -1.9644   20.7817 N   0  0  0  0  0  0  0  0  0  0  0  0
    7.4605   -2.4972   19.9786 H   0  0  0  0  0  0  0  0  0  0  0  0
    5.4285    0.6453   20.1399 C   0  0  0  0  0  0  0  0  0  0  0  0
    5.0279    0.6706   21.1560 H   0  0  0  0  0  0  0  0  0  0  0  0
    4.7936    1.2992   19.0861 C   0  0  0  0  0  0  0  0  0  0  0  0
    3.8696    1.8455   19.2319 H   0  0  0  0  0  0  0  0  0  0  0  0
  1  2  1  0
  2  3  2  0
  3  4  1  0
  4  5  1  0
  4  6  2  0
  6  7  1  0
  7  8  2  0
  8  9  1  0
  9 10  2  0
 10 11  1  0
 10 12  1  0
 12 13  1  0
 12 14  2  0
 14 15  1  0
 14 16  1  0
 16 17  2  0
 17 18  1  0
 18 19  1  0
 18 20  2  0
 20 21  1  0
 20 22  1  0
 22 23  1  0
 22 24  2  0
  8 25  1  0
 25 26  1  0
 25 27  2  0
 27 28  1  0
 27 29  1  0
 29 30  2  0
 29 31  1  0
 31 32  1  0
  6 33  1  0
 33 34  1  0
 33 35  2  0
 35 36  1  0
 35  2  1  0
 31  7  1  0
 24  9  1  0
 24 16  1  0
M  END
>  <cnnaffinity>  (1) 
-5.45955

>  <filename>  (1) 
O=c1ccc(-c2cccc3ncccc23)c(-c2cccnc2)[nH]1

$$$$
