
     RDKit          3D

 19 20  0  0  0  0  0  0  0  0999 V2000
    4.9192    1.7801   16.9837 H   0  0  0  0  0  0  0  0  0  0  0  0
    5.4045    1.2754   17.8170 C   0  0  0  0  0  0  0  0  0  0  0  0
    6.5479    0.5979   17.5994 N   0  0  0  0  0  0  0  0  0  0  0  0
    7.1678    0.0344   18.6625 C   0  0  0  0  0  0  0  0  0  0  0  0
    8.0954   -0.5019   18.4753 H   0  0  0  0  0  0  0  0  0  0  0  0
    6.6891    0.1464   19.9997 C   0  0  0  0  0  0  0  0  0  0  0  0
    7.3763   -0.3630   21.1295 N   0  0  0  0  0  0  0  0  0  0  0  0
    8.0788   -1.5710   21.1579 C   0  0  0  0  0  0  0  0  0  0  0  0
    8.2963   -2.2097   20.3188 H   0  0  0  0  0  0  0  0  0  0  0  0
    8.4042   -1.8911   22.4500 C   0  0  0  0  0  0  0  0  0  0  0  0
    9.2631   -3.4977   23.0204 Br  0  0  0  0  0  0  0  0  0  0  0  0
    7.9179   -0.8661   23.2370 N   0  0  0  0  0  0  0  0  0  0  0  0
    8.1385   -0.7164   24.2151 H   0  0  0  0  0  0  0  0  0  0  0  0
    7.2772    0.0620   22.4588 C   0  0  0  0  0  0  0  0  0  0  0  0
    6.7676    1.0519   22.9656 O   0  0  0  0  0  0  0  0  0  0  0  0
    5.4650    0.7900   20.1974 C   0  0  0  0  0  0  0  0  0  0  0  0
    5.0275    0.8436   21.1951 H   0  0  0  0  0  0  0  0  0  0  0  0
    4.8237    1.3477   19.0864 C   0  0  0  0  0  0  0  0  0  0  0  0
    3.8762    1.8580   19.1913 H   0  0  0  0  0  0  0  0  0  0  0  0
  1  2  1  0
  2  3  2  0
  3  4  1  0
  4  5  1  0
  4  6  2  0
  6  7  1  0
  7  8  1  0
  8  9  1  0
  8 10  2  0
 10 11  1  0
 10 12  1  0
 12 13  1  0
 12 14  1  0
 14 15  2  0
  6 16  1  0
 16 17  1  0
 16 18  2  0
 18 19  1  0
 18  2  1  0
 14  7  1  0
M  END
>  <cnnaffinity>  (1) 
-4.41549

>  <filename>  (1) 
O=c1[nH]c(Br)cn1-c1cccnc1

$$$$
