
     RDKit          3D

 30 32  0  0  0  0  0  0  0  0999 V2000
    4.9231    1.8284   16.9310 H   0  0  0  0  0  0  0  0  0  0  0  0
    5.3761    1.3393   17.7887 C   0  0  0  0  0  0  0  0  0  0  0  0
    6.5412    0.7142   17.5635 N   0  0  0  0  0  0  0  0  0  0  0  0
    7.1241    0.1128   18.6027 C   0  0  0  0  0  0  0  0  0  0  0  0
    8.0540   -0.4244   18.4169 H   0  0  0  0  0  0  0  0  0  0  0  0
    6.6026    0.1394   19.9018 C   0  0  0  0  0  0  0  0  0  0  0  0
    7.3547   -0.5707   20.9511 C   0  0  0  0  0  0  0  0  0  0  0  0
    7.9940   -1.6385   20.5578 N   0  0  0  0  0  0  0  0  0  0  0  0
    8.5083   -2.4547   21.5175 C   0  0  0  0  0  0  0  0  0  0  0  0
    8.7720   -3.6243   21.3657 O   0  0  0  0  0  0  0  0  0  0  0  0
    8.7474   -1.8950   22.7765 N   0  0  0  0  0  0  0  0  0  0  0  0
    9.1465   -2.5779   23.3900 H   0  0  0  0  0  0  0  0  0  0  0  0
    8.0393   -0.8263   23.2379 C   0  0  0  0  0  0  0  0  0  0  0  0
    8.0507   -0.4932   24.6797 C   0  0  0  0  0  0  0  0  0  0  0  0
    6.8306   -0.3077   25.3696 C   0  0  0  0  0  0  0  0  0  0  0  0
    5.8918   -0.4658   24.8419 H   0  0  0  0  0  0  0  0  0  0  0  0
    6.8088    0.0503   26.7164 C   0  0  0  0  0  0  0  0  0  0  0  0
    5.8614    0.1963   27.2235 H   0  0  0  0  0  0  0  0  0  0  0  0
    8.0088    0.2250   27.4075 C   0  0  0  0  0  0  0  0  0  0  0  0
    8.0035    0.5371   28.4454 H   0  0  0  0  0  0  0  0  0  0  0  0
    9.2258    0.0164   26.7591 C   0  0  0  0  0  0  0  0  0  0  0  0
   10.1649    0.1079   27.2868 H   0  0  0  0  0  0  0  0  0  0  0  0
    9.2462   -0.3274   25.4083 C   0  0  0  0  0  0  0  0  0  0  0  0
   10.8024   -0.4997   24.6448 Cl  0  0  0  0  0  0  0  0  0  0  0  0
    7.3324   -0.1271   22.2981 C   0  0  0  0  0  0  0  0  0  0  0  0
    6.7688    0.7467   22.5651 H   0  0  0  0  0  0  0  0  0  0  0  0
    5.3668    0.7560   20.1181 C   0  0  0  0  0  0  0  0  0  0  0  0
    4.9007    0.7189   21.1039 H   0  0  0  0  0  0  0  0  0  0  0  0
    4.7449    1.3715   19.0362 C   0  0  0  0  0  0  0  0  0  0  0  0
    3.7977    1.8814   19.1531 H   0  0  0  0  0  0  0  0  0  0  0  0
  1  2  1  0
  2  3  2  0
  3  4  1  0
  4  5  1  0
  4  6  2  0
  6  7  1  0
  7  8  2  0
  8  9  1  0
  9 10  2  0
  9 11  1  0
 11 12  1  0
 11 13  1  0
 13 14  1  0
 14 15  2  0
 15 16  1  0
 15 17  1  0
 17 18  1  0
 17 19  2  0
 19 20  1  0
 19 21  1  0
 21 22  1  0
 21 23  2  0
 23 24  1  0
 13 25  2  0
 25 26  1  0
  6 27  1  0
 27 28  1  0
 27 29  2  0
 29 30  1  0
 29  2  1  0
 25  7  1  0
 23 14  1  0
M  END
>  <cnnaffinity>  (1) 
-5.23444

>  <filename>  (1) 
O=c1nc(-c2cccnc2)cc(-c2ccccc2Cl)[nH]1

$$$$
