
     RDKit          3D

 28 30  0  0  0  0  0  0  0  0999 V2000
   14.5192    0.0574   22.3125 H   0  0  0  0  0  0  0  0  0  0  0  0
   13.4634   -0.1996   22.2050 C   0  0  0  0  0  0  0  0  0  0  0  0
   12.5983    0.7975   21.9896 N   0  0  0  0  0  0  0  0  0  0  0  0
   11.3120    0.4647   21.8572 C   0  0  0  0  0  0  0  0  0  0  0  0
   10.5899    1.2601   21.6659 H   0  0  0  0  0  0  0  0  0  0  0  0
   10.8552   -0.8492   21.9849 C   0  0  0  0  0  0  0  0  0  0  0  0
    9.4639   -1.1480   21.9520 N   0  0  0  0  0  0  0  0  0  0  0  0
    8.7441   -0.5015   20.9844 N   0  0  0  0  0  0  0  0  0  0  0  0
    7.4685   -0.7773   20.8750 C   0  0  0  0  0  0  0  0  0  0  0  0
    6.7291    0.0253   19.8502 C   0  0  0  0  0  0  0  0  0  0  0  0
    7.2803    0.1584   18.5623 C   0  0  0  0  0  0  0  0  0  0  0  0
    8.2530   -0.2784   18.3455 H   0  0  0  0  0  0  0  0  0  0  0  0
    6.6597    0.7643   17.5433 N   0  0  0  0  0  0  0  0  0  0  0  0
    5.4665    1.3261   17.7939 C   0  0  0  0  0  0  0  0  0  0  0  0
    4.9686    1.7950   16.9445 H   0  0  0  0  0  0  0  0  0  0  0  0
    4.8612    1.3150   19.0542 C   0  0  0  0  0  0  0  0  0  0  0  0
    3.9119    1.8196   19.1914 H   0  0  0  0  0  0  0  0  0  0  0  0
    5.4994    0.6557   20.1062 C   0  0  0  0  0  0  0  0  0  0  0  0
    5.0544    0.6259   21.1035 H   0  0  0  0  0  0  0  0  0  0  0  0
    6.7775   -1.8436   21.7278 C   0  0  0  0  0  0  0  0  0  0  0  0
    5.6843   -2.3326   21.4827 O   0  0  0  0  0  0  0  0  0  0  0  0
    7.5706   -2.2486   22.8816 C   0  0  0  0  0  0  0  0  0  0  0  0
    7.0927   -2.8532   23.6383 H   0  0  0  0  0  0  0  0  0  0  0  0
    8.8712   -1.9173   22.9333 C   0  0  0  0  0  0  0  0  0  0  0  0
    9.5357   -2.2452   23.7337 H   0  0  0  0  0  0  0  0  0  0  0  0
   11.8501   -1.8117   22.1676 C   0  0  0  0  0  0  0  0  0  0  0  0
   11.5867   -2.8677   22.2780 H   0  0  0  0  0  0  0  0  0  0  0  0
   13.1423   -1.4909   22.2804 N   0  0  0  0  0  0  0  0  0  0  0  0
  1  2  1  0
  2  3  2  0
  3  4  1  0
  4  5  1  0
  4  6  2  0
  6  7  1  0
  7  8  1  0
  8  9  2  0
  9 10  1  0
 10 11  2  0
 11 12  1  0
 11 13  1  0
 13 14  2  0
 14 15  1  0
 14 16  1  0
 16 17  1  0
 16 18  2  0
 18 19  1  0
  9 20  1  0
 20 21  2  0
 20 22  1  0
 22 23  1  0
 22 24  2  0
 24 25  1  0
  6 26  1  0
 26 27  1  0
 26 28  2  0
 28  2  1  0
 24  7  1  0
 18 10  1  0
M  END
>  <cnnaffinity>  (1) 
-5.35501

>  <filename>  (1) 
O=c1ccn(-c2cncnc2)nc1-c1cccnc1

$$$$
