
     RDKit          3D

 28 30  0  0  0  0  0  0  0  0999 V2000
    4.8669    1.7941   17.0296 H   0  0  0  0  0  0  0  0  0  0  0  0
    5.4072    1.3049   17.8337 C   0  0  0  0  0  0  0  0  0  0  0  0
    6.5777    0.6993   17.5607 N   0  0  0  0  0  0  0  0  0  0  0  0
    7.2078    0.0782   18.5807 C   0  0  0  0  0  0  0  0  0  0  0  0
    8.1525   -0.4113   18.3670 H   0  0  0  0  0  0  0  0  0  0  0  0
    6.7201    0.0385   19.9095 C   0  0  0  0  0  0  0  0  0  0  0  0
    7.4090   -0.6574   20.9334 N   0  0  0  0  0  0  0  0  0  0  0  0
    7.6976   -0.1951   22.2119 C   0  0  0  0  0  0  0  0  0  0  0  0
    7.4397    1.1333   22.7662 C   0  0  0  0  0  0  0  0  0  0  0  0
    7.6259    2.2729   21.9789 C   0  0  0  0  0  0  0  0  0  0  0  0
    7.9654    2.1588   20.9537 H   0  0  0  0  0  0  0  0  0  0  0  0
    7.3907    3.5446   22.5102 C   0  0  0  0  0  0  0  0  0  0  0  0
    7.5685    4.4207   21.8921 H   0  0  0  0  0  0  0  0  0  0  0  0
    6.9375    3.6779   23.8302 C   0  0  0  0  0  0  0  0  0  0  0  0
    6.7668    4.6635   24.2490 H   0  0  0  0  0  0  0  0  0  0  0  0
    6.7138    2.5431   24.6182 C   0  0  0  0  0  0  0  0  0  0  0  0
    6.0807    2.7248   26.4150 Br  0  0  0  0  0  0  0  0  0  0  0  0
    6.9709    1.2771   24.0824 C   0  0  0  0  0  0  0  0  0  0  0  0
    6.7766    0.3981   24.6887 H   0  0  0  0  0  0  0  0  0  0  0  0
    8.2330   -1.2445   22.9105 C   0  0  0  0  0  0  0  0  0  0  0  0
    8.5824   -1.1679   23.9372 H   0  0  0  0  0  0  0  0  0  0  0  0
    8.1757   -2.3907   22.1592 O   0  0  0  0  0  0  0  0  0  0  0  0
    7.4849   -2.0386   21.0519 C   0  0  0  0  0  0  0  0  0  0  0  0
    6.8724   -2.8041   20.3209 O   0  0  0  0  0  0  0  0  0  0  0  0
    5.5142    0.6887   20.1785 C   0  0  0  0  0  0  0  0  0  0  0  0
    5.1073    0.6838   21.1890 H   0  0  0  0  0  0  0  0  0  0  0  0
    4.8458    1.3149   19.1189 C   0  0  0  0  0  0  0  0  0  0  0  0
    3.8933    1.8092   19.2754 H   0  0  0  0  0  0  0  0  0  0  0  0
  1  2  1  0
  2  3  2  0
  3  4  1  0
  4  5  1  0
  4  6  2  0
  6  7  1  0
  7  8  1  0
  8  9  1  0
  9 10  2  0
 10 11  1  0
 10 12  1  0
 12 13  1  0
 12 14  2  0
 14 15  1  0
 14 16  1  0
 16 17  1  0
 16 18  2  0
 18 19  1  0
  8 20  2  0
 20 21  1  0
 20 22  1  0
 22 23  1  0
 23 24  2  0
  6 25  1  0
 25 26  1  0
 25 27  2  0
 27 28  1  0
 27  2  1  0
 23  7  1  0
 18  9  1  0
M  END
>  <cnnaffinity>  (1) 
-4.85624

>  <filename>  (1) 
O=c1occ(-c2cccc(Br)c2)n1-c1cccnc1

$$$$
