
     RDKit          3D

 31 33  0  0  0  0  0  0  0  0999 V2000
    4.9874    1.7071   16.8959 H   0  0  0  0  0  0  0  0  0  0  0  0
    5.4463    1.2577   17.7720 C   0  0  0  0  0  0  0  0  0  0  0  0
    6.5988    0.6021   17.5555 N   0  0  0  0  0  0  0  0  0  0  0  0
    7.1772    0.0293   18.6112 C   0  0  0  0  0  0  0  0  0  0  0  0
    8.0934   -0.5285   18.4066 H   0  0  0  0  0  0  0  0  0  0  0  0
    6.6841    0.1217   19.9305 C   0  0  0  0  0  0  0  0  0  0  0  0
    7.4201   -0.5162   21.0302 C   0  0  0  0  0  0  0  0  0  0  0  0
    7.7586    0.0339   22.2529 C   0  0  0  0  0  0  0  0  0  0  0  0
    7.4146    1.4305   22.6325 C   0  0  0  0  0  0  0  0  0  0  0  0
    6.4033    1.6125   23.5881 C   0  0  0  0  0  0  0  0  0  0  0  0
    5.9874    0.7250   24.0690 H   0  0  0  0  0  0  0  0  0  0  0  0
    5.9241    2.8832   23.8940 C   0  0  0  0  0  0  0  0  0  0  0  0
    5.1316    2.9999   24.6272 H   0  0  0  0  0  0  0  0  0  0  0  0
    6.4532    4.0051   23.2544 C   0  0  0  0  0  0  0  0  0  0  0  0
    6.0561    5.0036   23.4308 H   0  0  0  0  0  0  0  0  0  0  0  0
    7.5178    3.8530   22.3593 C   0  0  0  0  0  0  0  0  0  0  0  0
    8.1502    5.3059   21.6549 Cl  0  0  0  0  0  0  0  0  0  0  0  0
    8.0250    2.5703   22.0696 C   0  0  0  0  0  0  0  0  0  0  0  0
    9.4292    2.3579   21.0798 Cl  0  0  0  0  0  0  0  0  0  0  0  0
    8.3858   -0.8049   23.2348 C   0  0  0  0  0  0  0  0  0  0  0  0
    8.6375   -0.3509   24.1954 H   0  0  0  0  0  0  0  0  0  0  0  0
    8.6456   -2.1194   22.9829 C   0  0  0  0  0  0  0  0  0  0  0  0
    9.0627   -2.8055   23.7053 H   0  0  0  0  0  0  0  0  0  0  0  0
    8.2902   -2.7124   21.7014 C   0  0  0  0  0  0  0  0  0  0  0  0
    8.3987   -3.8829   21.3761 O   0  0  0  0  0  0  0  0  0  0  0  0
    7.7848   -1.8153   20.7799 N   0  0  0  0  0  0  0  0  0  0  0  0
    7.4840   -2.2815   19.9391 H   0  0  0  0  0  0  0  0  0  0  0  0
    5.4584    0.7769   20.1282 C   0  0  0  0  0  0  0  0  0  0  0  0
    5.0090    0.8019   21.1236 H   0  0  0  0  0  0  0  0  0  0  0  0
    4.8296    1.3493   19.0241 C   0  0  0  0  0  0  0  0  0  0  0  0
    3.8810    1.8654   19.1178 H   0  0  0  0  0  0  0  0  0  0  0  0
  1  2  1  0
  2  3  2  0
  3  4  1  0
  4  5  1  0
  4  6  2  0
  6  7  1  0
  7  8  2  0
  8  9  1  0
  9 10  2  0
 10 11  1  0
 10 12  1  0
 12 13  1  0
 12 14  2  0
 14 15  1  0
 14 16  1  0
 16 17  1  0
 16 18  2  0
 18 19  1  0
  8 20  1  0
 20 21  1  0
 20 22  2  0
 22 23  1  0
 22 24  1  0
 24 25  2  0
 24 26  1  0
 26 27  1  0
  6 28  1  0
 28 29  1  0
 28 30  2  0
 30 31  1  0
 30  2  1  0
 26  7  1  0
 18  9  1  0
M  END
>  <cnnaffinity>  (1) 
-5.51739

>  <filename>  (1) 
O=c1ccc(-c2cccc(Cl)c2Cl)c(-c2cccnc2)[nH]1

$$$$
