
     RDKit          3D

 44 47  0  0  0  0  0  0  0  0999 V2000
   10.9926    1.2345   23.5026 O   0  0  0  0  0  0  0  0  0  0  0  0
   10.1074    2.0002   23.1557 C   0  0  0  0  0  0  0  0  0  0  0  0
    9.8289    3.2671   23.9565 C   0  0  0  0  0  0  0  0  0  0  0  0
    8.4320    3.8649   23.7874 C   0  0  0  0  0  0  0  0  0  0  0  0
    8.0416    3.9143   22.3126 C   0  0  0  0  0  0  0  0  0  0  0  0
    8.1407    2.5286   21.6690 C   0  0  0  0  0  0  0  0  0  0  0  0
    9.3784    1.8089   21.9928 N   0  0  0  0  0  0  0  0  0  0  0  0
    9.6006    0.5921   21.1856 C   0  0  0  0  0  0  0  0  0  0  0  0
    8.6435   -0.5440   21.4700 C   0  0  0  0  0  0  0  0  0  0  0  0
    8.8387   -1.4638   22.3848 N   0  0  0  0  0  0  0  0  0  0  0  0
    7.6314   -2.0834   22.4899 C   0  0  0  0  0  0  0  0  0  0  0  0
    7.3952   -3.1298   23.5102 C   0  0  0  0  0  0  0  0  0  0  0  0
    6.1531   -3.7882   23.6317 C   0  0  0  0  0  0  0  0  0  0  0  0
    5.9735   -4.7534   24.6262 C   0  0  0  0  0  0  0  0  0  0  0  0
    7.0125   -5.0682   25.5102 C   0  0  0  0  0  0  0  0  0  0  0  0
    8.2401   -4.4055   25.4028 C   0  0  0  0  0  0  0  0  0  0  0  0
    8.4333   -3.4476   24.4084 C   0  0  0  0  0  0  0  0  0  0  0  0
    9.3868   -2.9281   24.3228 H   0  0  0  0  0  0  0  0  0  0  0  0
    9.0452   -4.6247   26.0983 H   0  0  0  0  0  0  0  0  0  0  0  0
    6.8649   -5.8143   26.2874 H   0  0  0  0  0  0  0  0  0  0  0  0
    5.0148   -5.2548   24.7229 H   0  0  0  0  0  0  0  0  0  0  0  0
    5.3331   -3.5328   22.9617 H   0  0  0  0  0  0  0  0  0  0  0  0
    6.7200   -1.6322   21.6463 N   0  0  0  0  0  0  0  0  0  0  0  0
    7.3755   -0.6584   20.9685 N   0  0  0  0  0  0  0  0  0  0  0  0
    6.6913    0.0141   19.9130 C   0  0  0  0  0  0  0  0  0  0  0  0
    5.4656    0.6427   20.1617 C   0  0  0  0  0  0  0  0  0  0  0  0
    4.8444    1.3121   19.1009 C   0  0  0  0  0  0  0  0  0  0  0  0
    5.4558    1.3086   17.8400 C   0  0  0  0  0  0  0  0  0  0  0  0
    6.6046    0.6616   17.5834 N   0  0  0  0  0  0  0  0  0  0  0  0
    7.1958    0.0226   18.6013 C   0  0  0  0  0  0  0  0  0  0  0  0
    8.1001   -0.5344   18.3626 H   0  0  0  0  0  0  0  0  0  0  0  0
    4.9924    1.8182   16.9982 H   0  0  0  0  0  0  0  0  0  0  0  0
    3.8997    1.8283   19.2438 H   0  0  0  0  0  0  0  0  0  0  0  0
    5.0217    0.5857   21.1601 H   0  0  0  0  0  0  0  0  0  0  0  0
   10.6100    0.2185   21.3827 H   0  0  0  0  0  0  0  0  0  0  0  0
    9.5439    0.8614   20.1282 H   0  0  0  0  0  0  0  0  0  0  0  0
    8.1138    2.5811   20.5782 H   0  0  0  0  0  0  0  0  0  0  0  0
    7.2679    1.9229   21.9598 H   0  0  0  0  0  0  0  0  0  0  0  0
    7.0103    4.2755   22.2157 H   0  0  0  0  0  0  0  0  0  0  0  0
    8.6743    4.6304   21.7835 H   0  0  0  0  0  0  0  0  0  0  0  0
    7.6839    3.2692   24.3304 H   0  0  0  0  0  0  0  0  0  0  0  0
    8.4063    4.8665   24.2309 H   0  0  0  0  0  0  0  0  0  0  0  0
   10.6100    3.9808   23.6575 H   0  0  0  0  0  0  0  0  0  0  0  0
   10.0289    3.0299   25.0013 H   0  0  0  0  0  0  0  0  0  0  0  0
  1  2  2  0
  2  3  1  0
  3  4  1  0
  4  5  1  0
  5  6  1  0
  6  7  1  0
  7  8  1  0
  8  9  1  0
  9 10  2  0
 10 11  1  0
 11 12  1  0
 12 13  2  0
 13 14  1  0
 14 15  2  0
 15 16  1  0
 16 17  2  0
 17 18  1  0
 16 19  1  0
 15 20  1  0
 14 21  1  0
 13 22  1  0
 11 23  2  0
 23 24  1  0
 24 25  1  0
 25 26  2  0
 26 27  1  0
 27 28  2  0
 28 29  1  0
 29 30  2  0
 30 31  1  0
 28 32  1  0
 27 33  1  0
 26 34  1  0
  8 35  1  0
  8 36  1  0
  6 37  1  0
  6 38  1  0
  5 39  1  0
  5 40  1  0
  4 41  1  0
  4 42  1  0
  3 43  1  0
  3 44  1  0
  7  2  1  0
 24  9  1  0
 30 25  1  0
 17 12  1  0
M  END
>  <cnnaffinity>  (1) 
-6.08306

>  <filename>  (1) 
O=C1CCCCN1Cc1nc(-c2ccccc2)nn1-c1cccnc1

$$$$
