
     RDKit          3D

 35 37  0  0  0  0  0  0  0  0999 V2000
    4.9037    1.8170   16.9619 H   0  0  0  0  0  0  0  0  0  0  0  0
    5.3864    1.3195   17.8020 C   0  0  0  0  0  0  0  0  0  0  0  0
    6.5530    0.7104   17.5326 N   0  0  0  0  0  0  0  0  0  0  0  0
    7.1787    0.1023   18.5470 C   0  0  0  0  0  0  0  0  0  0  0  0
    8.1176   -0.3936   18.2987 H   0  0  0  0  0  0  0  0  0  0  0  0
    6.6766    0.0363   19.8665 C   0  0  0  0  0  0  0  0  0  0  0  0
    7.4077   -0.6692   20.9524 C   0  0  0  0  0  0  0  0  0  0  0  0
    8.7096   -0.4001   21.2050 C   0  0  0  0  0  0  0  0  0  0  0  0
    9.2882    0.3191   20.6251 H   0  0  0  0  0  0  0  0  0  0  0  0
    9.4214   -1.0323   22.2132 N   0  0  0  0  0  0  0  0  0  0  0  0
   10.8153   -0.7184   22.3884 C   0  0  0  0  0  0  0  0  0  0  0  0
   11.7876   -1.7146   22.2652 C   0  0  0  0  0  0  0  0  0  0  0  0
   11.4707   -2.7437   22.1511 H   0  0  0  0  0  0  0  0  0  0  0  0
   13.1467   -1.3753   22.3470 C   0  0  0  0  0  0  0  0  0  0  0  0
   13.9126   -2.1397   22.2011 H   0  0  0  0  0  0  0  0  0  0  0  0
   13.5118   -0.0676   22.6649 C   0  0  0  0  0  0  0  0  0  0  0  0
   14.5347    0.2321   22.8636 H   0  0  0  0  0  0  0  0  0  0  0  0
   12.5234    0.9064   22.7855 C   0  0  0  0  0  0  0  0  0  0  0  0
   13.0332    2.1655   23.0744 O   0  0  0  0  0  0  0  0  0  0  0  0
   12.2374    3.2497   23.1103 C   0  0  0  0  0  0  0  0  0  0  0  0
   11.3251    3.1877   24.0949 F   0  0  0  0  0  0  0  0  0  0  0  0
   13.0153    4.2987   23.3299 F   0  0  0  0  0  0  0  0  0  0  0  0
   11.5642    3.4516   21.9676 F   0  0  0  0  0  0  0  0  0  0  0  0
   11.1727    0.6098   22.6235 C   0  0  0  0  0  0  0  0  0  0  0  0
   10.4092    1.3757   22.6515 H   0  0  0  0  0  0  0  0  0  0  0  0
    8.8190   -1.9952   23.0403 C   0  0  0  0  0  0  0  0  0  0  0  0
    9.3665   -2.6070   23.9240 O   0  0  0  0  0  0  0  0  0  0  0  0
    7.5072   -2.2127   22.7862 N   0  0  0  0  0  0  0  0  0  0  0  0
    7.0754   -2.9179   23.3455 H   0  0  0  0  0  0  0  0  0  0  0  0
    6.7346   -1.7139   21.7690 C   0  0  0  0  0  0  0  0  0  0  0  0
    5.6307   -2.1903   21.6259 O   0  0  0  0  0  0  0  0  0  0  0  0
    5.4467    0.6673   20.1135 C   0  0  0  0  0  0  0  0  0  0  0  0
    5.0216    0.6088   21.1140 H   0  0  0  0  0  0  0  0  0  0  0  0
    4.7956    1.3312   19.0700 C   0  0  0  0  0  0  0  0  0  0  0  0
    3.8550    1.8538   19.2215 H   0  0  0  0  0  0  0  0  0  0  0  0
  1  2  1  0
  2  3  2  0
  3  4  1  0
  4  5  1  0
  4  6  2  0
  6  7  1  0
  7  8  2  0
  8  9  1  0
  8 10  1  0
 10 11  1  0
 11 12  2  0
 12 13  1  0
 12 14  1  0
 14 15  1  0
 14 16  2  0
 16 17  1  0
 16 18  1  0
 18 19  1  0
 19 20  1  0
 20 21  1  0
 20 22  1  0
 20 23  1  0
 18 24  2  0
 24 25  1  0
 10 26  1  0
 26 27  2  0
 26 28  1  0
 28 29  1  0
 28 30  1  0
 30 31  2  0
  6 32  1  0
 32 33  1  0
 32 34  2  0
 34 35  1  0
 34  2  1  0
 30  7  1  0
 24 11  1  0
M  END
>  <cnnaffinity>  (1) 
-5.68408

>  <filename>  (1) 
O=c1[nH]c(=O)n(-c2cccc(OC(F)(F)F)c2)cc1-c1cccnc1

$$$$
