
     RDKit          3D

 37 40  0  0  0  0  0  0  0  0999 V2000
    4.9390    1.8016   16.9815 H   0  0  0  0  0  0  0  0  0  0  0  0
    5.3969    1.2855   17.8249 C   0  0  0  0  0  0  0  0  0  0  0  0
    6.5561    0.6576   17.5727 N   0  0  0  0  0  0  0  0  0  0  0  0
    7.1519    0.0196   18.5845 C   0  0  0  0  0  0  0  0  0  0  0  0
    8.1166   -0.4353   18.3514 H   0  0  0  0  0  0  0  0  0  0  0  0
    6.6382   -0.0197   19.8922 C   0  0  0  0  0  0  0  0  0  0  0  0
    7.3939   -0.6534   20.9781 C   0  0  0  0  0  0  0  0  0  0  0  0
    7.7655   -0.0417   22.1605 C   0  0  0  0  0  0  0  0  0  0  0  0
    7.5467    1.4119   22.3765 C   0  0  0  0  0  0  0  0  0  0  0  0
    8.2308    2.3205   21.5861 C   0  0  0  0  0  0  0  0  0  0  0  0
    8.8996    1.9382   20.8192 H   0  0  0  0  0  0  0  0  0  0  0  0
    8.0550    3.7131   21.7766 C   0  0  0  0  0  0  0  0  0  0  0  0
    8.5350    4.4503   21.1529 H   0  0  0  0  0  0  0  0  0  0  0  0
    7.1974    4.1859   22.7301 C   0  0  0  0  0  0  0  0  0  0  0  0
    7.0661    5.2577   22.8421 H   0  0  0  0  0  0  0  0  0  0  0  0
    6.4496    3.2950   23.5452 C   0  0  0  0  0  0  0  0  0  0  0  0
    5.5316    3.7866   24.5178 C   0  0  0  0  0  0  0  0  0  0  0  0
    5.4417    4.8661   24.6185 H   0  0  0  0  0  0  0  0  0  0  0  0
    4.7952    2.9236   25.2878 C   0  0  0  0  0  0  0  0  0  0  0  0
    4.1078    3.3143   26.0324 H   0  0  0  0  0  0  0  0  0  0  0  0
    4.9338    1.5199   25.1156 C   0  0  0  0  0  0  0  0  0  0  0  0
    4.3459    0.8449   25.7294 H   0  0  0  0  0  0  0  0  0  0  0  0
    5.8100    1.0136   24.1818 C   0  0  0  0  0  0  0  0  0  0  0  0
    5.9131   -0.0602   24.0391 H   0  0  0  0  0  0  0  0  0  0  0  0
    6.6122    1.8823   23.3737 C   0  0  0  0  0  0  0  0  0  0  0  0
    8.4466   -0.8237   23.1555 C   0  0  0  0  0  0  0  0  0  0  0  0
    8.7045   -0.3036   24.0786 H   0  0  0  0  0  0  0  0  0  0  0  0
    8.7315   -2.1436   22.9585 C   0  0  0  0  0  0  0  0  0  0  0  0
    9.2371   -2.7719   23.6812 H   0  0  0  0  0  0  0  0  0  0  0  0
    8.3314   -2.7949   21.7180 C   0  0  0  0  0  0  0  0  0  0  0  0
    8.4544   -3.9728   21.4230 O   0  0  0  0  0  0  0  0  0  0  0  0
    7.7457   -1.9647   20.7836 N   0  0  0  0  0  0  0  0  0  0  0  0
    7.4599   -2.5011   19.9829 H   0  0  0  0  0  0  0  0  0  0  0  0
    5.4288    0.6456   20.1408 C   0  0  0  0  0  0  0  0  0  0  0  0
    5.0348    0.6786   21.1603 H   0  0  0  0  0  0  0  0  0  0  0  0
    4.7944    1.2998   19.0868 C   0  0  0  0  0  0  0  0  0  0  0  0
    3.8717    1.8447   19.2311 H   0  0  0  0  0  0  0  0  0  0  0  0
  1  2  1  0
  2  3  2  0
  3  4  1  0
  4  5  1  0
  4  6  2  0
  6  7  1  0
  7  8  2  0
  8  9  1  0
  9 10  2  0
 10 11  1  0
 10 12  1  0
 12 13  1  0
 12 14  2  0
 14 15  1  0
 14 16  1  0
 16 17  2  0
 17 18  1  0
 17 19  1  0
 19 20  1  0
 19 21  2  0
 21 22  1  0
 21 23  1  0
 23 24  1  0
 23 25  2  0
  8 26  1  0
 26 27  1  0
 26 28  2  0
 28 29  1  0
 28 30  1  0
 30 31  2  0
 30 32  1  0
 32 33  1  0
  6 34  1  0
 34 35  1  0
 34 36  2  0
 36 37  1  0
 36  2  1  0
 32  7  1  0
 25  9  1  0
 25 16  1  0
M  END
>  <cnnaffinity>  (1) 
-5.35505

>  <filename>  (1) 
O=c1ccc(-c2cccc3ccccc23)c(-c2cccnc2)[nH]1

$$$$
