
     RDKit          3D

 45 48  0  0  0  0  0  0  0  0999 V2000
    3.1849    3.8938   27.9320 O   0  0  0  0  0  0  0  0  0  0  0  0
    4.0104    3.4466   27.1526 C   0  0  0  0  0  0  0  0  0  0  0  0
    5.4081    3.8640   26.9975 C   0  0  0  0  0  0  0  0  0  0  0  0
    6.2255    3.2080   26.1326 C   0  0  0  0  0  0  0  0  0  0  0  0
    5.7245    2.0545   25.3869 C   0  0  0  0  0  0  0  0  0  0  0  0
    6.6563    1.1823   24.5783 C   0  0  0  0  0  0  0  0  0  0  0  0
    6.9831    1.6304   23.1237 C   0  0  0  0  0  0  0  0  0  0  0  0
    8.0271    0.7567   22.4848 C   0  0  0  0  0  0  0  0  0  0  0  0
    9.3318    0.8540   22.6875 N   0  0  0  0  0  0  0  0  0  0  0  0
    9.8399   -0.2191   22.0322 C   0  0  0  0  0  0  0  0  0  0  0  0
   11.2780   -0.5577   21.9088 C   0  0  0  0  0  0  0  0  0  0  0  0
   12.3118    0.2463   22.4284 C   0  0  0  0  0  0  0  0  0  0  0  0
   13.6346   -0.1161   22.1830 C   0  0  0  0  0  0  0  0  0  0  0  0
   14.6145    0.6650   22.6616 F   0  0  0  0  0  0  0  0  0  0  0  0
   13.9722   -1.2313   21.4186 C   0  0  0  0  0  0  0  0  0  0  0  0
   12.9412   -1.9821   20.8640 C   0  0  0  0  0  0  0  0  0  0  0  0
   11.6142   -1.7057   21.1777 C   0  0  0  0  0  0  0  0  0  0  0  0
   10.8120   -2.3661   20.8644 H   0  0  0  0  0  0  0  0  0  0  0  0
   13.1822   -2.7495   20.1342 H   0  0  0  0  0  0  0  0  0  0  0  0
   14.9947   -1.5014   21.2264 H   0  0  0  0  0  0  0  0  0  0  0  0
   12.1140    1.1612   22.9734 H   0  0  0  0  0  0  0  0  0  0  0  0
    8.9170   -0.9602   21.4327 N   0  0  0  0  0  0  0  0  0  0  0  0
    7.7631   -0.3355   21.7271 N   0  0  0  0  0  0  0  0  0  0  0  0
    6.5314   -0.7971   21.0958 C   0  0  0  0  0  0  0  0  0  0  0  0
    6.1144    0.0214   19.8927 C   0  0  0  0  0  0  0  0  0  0  0  0
    4.9167    0.7381   19.8137 C   0  0  0  0  0  0  0  0  0  0  0  0
    4.6608    1.4948   18.6643 C   0  0  0  0  0  0  0  0  0  0  0  0
    5.6077    1.4961   17.6356 C   0  0  0  0  0  0  0  0  0  0  0  0
    6.7547    0.8017   17.6884 N   0  0  0  0  0  0  0  0  0  0  0  0
    6.9941    0.0984   18.7999 C   0  0  0  0  0  0  0  0  0  0  0  0
    7.9382   -0.4447   18.8413 H   0  0  0  0  0  0  0  0  0  0  0  0
    5.4413    2.0793   16.7289 H   0  0  0  0  0  0  0  0  0  0  0  0
    3.7561    2.0835   18.5557 H   0  0  0  0  0  0  0  0  0  0  0  0
    4.1974    0.7191   20.6373 H   0  0  0  0  0  0  0  0  0  0  0  0
    6.7289   -1.8344   20.8038 H   0  0  0  0  0  0  0  0  0  0  0  0
    5.7462   -0.8048   21.8502 H   0  0  0  0  0  0  0  0  0  0  0  0
    6.0700    1.6405   22.5142 H   0  0  0  0  0  0  0  0  0  0  0  0
    7.3778    2.6510   23.1217 H   0  0  0  0  0  0  0  0  0  0  0  0
    7.6019    1.0931   25.1274 H   0  0  0  0  0  0  0  0  0  0  0  0
    6.2191    0.1796   24.5466 H   0  0  0  0  0  0  0  0  0  0  0  0
    4.4756    1.6873   25.4669 N   0  0  0  0  0  0  0  0  0  0  0  0
    3.6605    2.4257   26.2754 N   0  0  0  0  0  0  0  0  0  0  0  0
    2.7120    2.1081   26.4303 H   0  0  0  0  0  0  0  0  0  0  0  0
    7.2630    3.5042   25.9945 H   0  0  0  0  0  0  0  0  0  0  0  0
    5.7165    4.6846   27.6352 H   0  0  0  0  0  0  0  0  0  0  0  0
  1  2  2  0
  2  3  1  0
  3  4  2  0
  4  5  1  0
  5  6  1  0
  6  7  1  0
  7  8  1  0
  8  9  2  0
  9 10  1  0
 10 11  1  0
 11 12  2  0
 12 13  1  0
 13 14  1  0
 13 15  2  0
 15 16  1  0
 16 17  2  0
 17 18  1  0
 16 19  1  0
 15 20  1  0
 12 21  1  0
 10 22  2  0
 22 23  1  0
 23 24  1  0
 24 25  1  0
 25 26  2  0
 26 27  1  0
 27 28  2  0
 28 29  1  0
 29 30  2  0
 30 31  1  0
 28 32  1  0
 27 33  1  0
 26 34  1  0
 24 35  1  0
 24 36  1  0
  7 37  1  0
  7 38  1  0
  6 39  1  0
  6 40  1  0
  5 41  2  0
 41 42  1  0
 42 43  1  0
  4 44  1  0
  3 45  1  0
 42  2  1  0
 23  8  1  0
 30 25  1  0
 17 11  1  0
M  END
>  <cnnaffinity>  (1) 
-6.51304

>  <filename>  (1) 
O=c1ccc(CCc2nc(-c3cccc(F)c3)nn2Cc2cccnc2)n[nH]1

$$$$
