
     RDKit          3D

 36 39  0  0  0  0  0  0  0  0999 V2000
    4.9991    1.8431   16.9160 H   0  0  0  0  0  0  0  0  0  0  0  0
    5.4587    1.3409   17.7642 C   0  0  0  0  0  0  0  0  0  0  0  0
    6.6333    0.7361   17.5226 N   0  0  0  0  0  0  0  0  0  0  0  0
    7.2166    0.1151   18.5534 C   0  0  0  0  0  0  0  0  0  0  0  0
    8.1620   -0.3856   18.3399 H   0  0  0  0  0  0  0  0  0  0  0  0
    6.6787    0.0530   19.8551 C   0  0  0  0  0  0  0  0  0  0  0  0
    7.4064   -0.6736   20.9722 C   0  0  2  0  0  0  0  0  0  0  0  0
    8.1670   -1.3005   20.4905 H   0  0  0  0  0  0  0  0  0  0  0  0
    6.5312   -1.6579   21.7611 C   0  0  0  0  0  0  0  0  0  0  0  0
    5.7971   -2.5192   21.3311 O   0  0  0  0  0  0  0  0  0  0  0  0
    6.7382   -1.4261   23.0931 N   0  0  0  0  0  0  0  0  0  0  0  0
    6.0025   -1.8229   23.6604 H   0  0  0  0  0  0  0  0  0  0  0  0
    7.2757   -0.0980   23.3508 C   0  0  0  0  0  0  0  0  0  0  0  0
    7.9267   -0.1032   24.2363 H   0  0  0  0  0  0  0  0  0  0  0  0
    6.4763    0.6461   23.5225 H   0  0  0  0  0  0  0  0  0  0  0  0
    8.0568    0.2367   22.0586 C   0  0  1  0  0  0  0  0  0  0  0  0
    7.9223    1.3010   21.8294 H   0  0  0  0  0  0  0  0  0  0  0  0
    9.5383   -0.0497   22.1772 C   0  0  0  0  0  0  0  0  0  0  0  0
   10.0085   -1.3085   22.5545 C   0  0  0  0  0  0  0  0  0  0  0  0
    9.2937   -2.0893   22.7856 H   0  0  0  0  0  0  0  0  0  0  0  0
   11.3874   -1.5901   22.6509 C   0  0  0  0  0  0  0  0  0  0  0  0
   11.6966   -2.5961   22.9200 H   0  0  0  0  0  0  0  0  0  0  0  0
   12.3421   -0.6029   22.4188 C   0  0  0  0  0  0  0  0  0  0  0  0
   13.4100   -0.8056   22.4881 H   0  0  0  0  0  0  0  0  0  0  0  0
   11.8627    0.6674   22.0494 C   0  0  0  0  0  0  0  0  0  0  0  0
   10.4875    0.9438   21.8604 C   0  0  0  0  0  0  0  0  0  0  0  0
   10.4100    2.2692   21.3260 C   0  0  0  0  0  0  0  0  0  0  0  0
    9.5020    2.7705   21.0283 H   0  0  0  0  0  0  0  0  0  0  0  0
   11.6784    2.7602   21.2476 C   0  0  0  0  0  0  0  0  0  0  0  0
   12.0320    3.7144   20.8768 H   0  0  0  0  0  0  0  0  0  0  0  0
   12.5524    1.8046   21.7168 N   0  0  0  0  0  0  0  0  0  0  0  0
   13.5489    1.8975   21.7999 H   0  0  0  0  0  0  0  0  0  0  0  0
    5.4509    0.6837   20.0800 C   0  0  0  0  0  0  0  0  0  0  0  0
    4.9857    0.6482   21.0692 H   0  0  0  0  0  0  0  0  0  0  0  0
    4.8303    1.3400   19.0146 C   0  0  0  0  0  0  0  0  0  0  0  0
    3.8796    1.8454   19.1376 H   0  0  0  0  0  0  0  0  0  0  0  0
  1  2  1  0
  2  3  2  0
  3  4  1  0
  4  5  1  0
  4  6  2  0
  6  7  1  0
  7  8  1  6
  7  9  1  0
  9 10  2  0
  9 11  1  0
 11 12  1  0
 11 13  1  0
 13 14  1  0
 13 15  1  0
 13 16  1  0
 16 17  1  6
 16 18  1  0
 18 19  2  0
 19 20  1  0
 19 21  1  0
 21 22  1  0
 21 23  2  0
 23 24  1  0
 23 25  1  0
 25 26  2  0
 26 27  1  0
 27 28  1  0
 27 29  2  0
 29 30  1  0
 29 31  1  0
 31 32  1  0
  6 33  1  0
 33 34  1  0
 33 35  2  0
 35 36  1  0
 35  2  1  0
 16  7  1  0
 26 18  1  0
 31 25  1  0
M  END
>  <cnnaffinity>  (1) 
-5.68085

>  <filename>  (1) 
O=C1NC[C@@H](c2cccc3[nH]ccc23)[C@@H]1c1cccnc1

$$$$
