
     RDKit          3D

 35 38  0  0  0  0  0  0  0  0999 V2000
    4.9207    1.7934   16.9951 H   0  0  0  0  0  0  0  0  0  0  0  0
    5.3927    1.2916   17.8355 C   0  0  0  0  0  0  0  0  0  0  0  0
    6.5499    0.6671   17.5647 N   0  0  0  0  0  0  0  0  0  0  0  0
    7.1716    0.0539   18.5761 C   0  0  0  0  0  0  0  0  0  0  0  0
    8.1276   -0.4181   18.3613 H   0  0  0  0  0  0  0  0  0  0  0  0
    6.6661    0.0076   19.8919 C   0  0  0  0  0  0  0  0  0  0  0  0
    7.3648   -0.6622   20.9303 N   0  0  0  0  0  0  0  0  0  0  0  0
    6.7713   -1.4199   21.9304 C   0  0  0  0  0  0  0  0  0  0  0  0
    5.7089   -1.5763   21.9875 H   0  0  0  0  0  0  0  0  0  0  0  0
    7.7352   -1.9033   22.7533 C   0  0  0  0  0  0  0  0  0  0  0  0
    7.6389   -2.6785   23.9886 C   0  0  0  0  0  0  0  0  0  0  0  0
    8.2944   -2.2414   25.1316 C   0  0  0  0  0  0  0  0  0  0  0  0
    8.9257   -1.3577   25.0671 H   0  0  0  0  0  0  0  0  0  0  0  0
    8.1247   -2.8920   26.3799 C   0  0  0  0  0  0  0  0  0  0  0  0
    8.6480   -2.5075   27.2558 H   0  0  0  0  0  0  0  0  0  0  0  0
    7.2999   -3.9914   26.4710 C   0  0  0  0  0  0  0  0  0  0  0  0
    7.1515   -4.5000   27.4224 H   0  0  0  0  0  0  0  0  0  0  0  0
    6.6260   -4.5017   25.3177 C   0  0  0  0  0  0  0  0  0  0  0  0
    5.7777   -5.6507   25.3996 C   0  0  0  0  0  0  0  0  0  0  0  0
    5.6491   -6.1186   26.3750 H   0  0  0  0  0  0  0  0  0  0  0  0
    5.1543   -6.1587   24.2848 C   0  0  0  0  0  0  0  0  0  0  0  0
    4.5169   -7.0367   24.3625 H   0  0  0  0  0  0  0  0  0  0  0  0
    5.3491   -5.5472   23.0145 C   0  0  0  0  0  0  0  0  0  0  0  0
    4.8593   -5.9673   22.1379 H   0  0  0  0  0  0  0  0  0  0  0  0
    6.1564   -4.4369   22.8974 C   0  0  0  0  0  0  0  0  0  0  0  0
    6.3218   -3.9780   21.9242 H   0  0  0  0  0  0  0  0  0  0  0  0
    6.8065   -3.8593   24.0452 C   0  0  0  0  0  0  0  0  0  0  0  0
    8.9318   -1.4100   22.2539 N   0  0  0  0  0  0  0  0  0  0  0  0
    9.8730   -1.5747   22.5540 H   0  0  0  0  0  0  0  0  0  0  0  0
    8.7573   -0.6540   21.1319 C   0  0  0  0  0  0  0  0  0  0  0  0
    9.6413   -0.1173   20.4960 O   0  0  0  0  0  0  0  0  0  0  0  0
    5.4488    0.6434   20.1592 C   0  0  0  0  0  0  0  0  0  0  0  0
    5.0387    0.6351   21.1716 H   0  0  0  0  0  0  0  0  0  0  0  0
    4.8105    1.3061   19.1072 C   0  0  0  0  0  0  0  0  0  0  0  0
    3.8810    1.8375   19.2614 H   0  0  0  0  0  0  0  0  0  0  0  0
  1  2  1  0
  2  3  2  0
  3  4  1  0
  4  5  1  0
  4  6  2  0
  6  7  1  0
  7  8  1  0
  8  9  1  0
  8 10  2  0
 10 11  1  0
 11 12  2  0
 12 13  1  0
 12 14  1  0
 14 15  1  0
 14 16  2  0
 16 17  1  0
 16 18  1  0
 18 19  2  0
 19 20  1  0
 19 21  1  0
 21 22  1  0
 21 23  2  0
 23 24  1  0
 23 25  1  0
 25 26  1  0
 25 27  2  0
 10 28  1  0
 28 29  1  0
 28 30  1  0
 30 31  2  0
  6 32  1  0
 32 33  1  0
 32 34  2  0
 34 35  1  0
 34  2  1  0
 30  7  1  0
 27 11  1  0
 27 18  1  0
M  END
>  <cnnaffinity>  (1) 
-5.50886

>  <filename>  (1) 
O=c1[nH]c(-c2cccc3ccccc23)cn1-c1cccnc1

$$$$
