
     RDKit          3D

 40 43  0  0  0  0  0  0  0  0999 V2000
   11.2445   -3.3717   24.5398 O   0  0  0  0  0  0  0  0  0  0  0  0
   10.2611   -3.9610   24.1316 C   0  0  0  0  0  0  0  0  0  0  0  0
    9.6393   -5.0519   24.8519 C   0  0  0  0  0  0  0  0  0  0  0  0
    8.5967   -5.7514   24.3266 C   0  0  0  0  0  0  0  0  0  0  0  0
    8.0830   -5.4059   23.0419 C   0  0  0  0  0  0  0  0  0  0  0  0
    8.6067   -4.3351   22.3809 C   0  0  0  0  0  0  0  0  0  0  0  0
    9.6204   -3.5765   22.9225 N   0  0  0  0  0  0  0  0  0  0  0  0
    9.9936   -2.2959   22.2729 C   0  0  0  0  0  0  0  0  0  0  0  0
    8.8148   -1.4069   21.9402 C   0  0  0  0  0  0  0  0  0  0  0  0
    8.5314   -0.8998   20.7609 N   0  0  0  0  0  0  0  0  0  0  0  0
    7.2582   -0.4431   20.9201 C   0  0  0  0  0  0  0  0  0  0  0  0
    6.5085    0.1670   19.8297 C   0  0  0  0  0  0  0  0  0  0  0  0
    5.2688    0.8063   19.9999 C   0  0  0  0  0  0  0  0  0  0  0  0
    4.7002    1.4256   18.8897 C   0  0  0  0  0  0  0  0  0  0  0  0
    5.3703    1.3620   17.6607 C   0  0  0  0  0  0  0  0  0  0  0  0
    6.5268    0.7066   17.4831 N   0  0  0  0  0  0  0  0  0  0  0  0
    7.0771    0.1266   18.5520 C   0  0  0  0  0  0  0  0  0  0  0  0
    8.0124   -0.4048   18.3912 H   0  0  0  0  0  0  0  0  0  0  0  0
    4.9628    1.8532   16.7795 H   0  0  0  0  0  0  0  0  0  0  0  0
    3.7633    1.9682   18.9546 H   0  0  0  0  0  0  0  0  0  0  0  0
    4.7694    0.8151   20.9721 H   0  0  0  0  0  0  0  0  0  0  0  0
    6.7493   -0.6342   22.1204 N   0  0  0  0  0  0  0  0  0  0  0  0
    7.7786   -1.1937   22.7993 N   0  0  0  0  0  0  0  0  0  0  0  0
    7.6521   -1.6215   24.1538 C   0  0  0  0  0  0  0  0  0  0  0  0
    6.5264   -2.3698   24.5184 C   0  0  0  0  0  0  0  0  0  0  0  0
    6.5082   -2.9715   25.7764 C   0  0  0  0  0  0  0  0  0  0  0  0
    5.1429   -3.9544   26.2236 Cl  0  0  0  0  0  0  0  0  0  0  0  0
    7.5632   -2.8180   26.6816 C   0  0  0  0  0  0  0  0  0  0  0  0
    8.6376   -1.9978   26.3214 C   0  0  0  0  0  0  0  0  0  0  0  0
    8.6858   -1.3788   25.0688 C   0  0  0  0  0  0  0  0  0  0  0  0
    9.5208   -0.7275   24.8132 H   0  0  0  0  0  0  0  0  0  0  0  0
    9.4629   -1.8581   27.0160 H   0  0  0  0  0  0  0  0  0  0  0  0
    7.5272   -3.3333   27.6383 H   0  0  0  0  0  0  0  0  0  0  0  0
    5.6870   -2.4755   23.8340 H   0  0  0  0  0  0  0  0  0  0  0  0
   10.5425   -2.4678   21.3391 H   0  0  0  0  0  0  0  0  0  0  0  0
   10.6757   -1.7774   22.9467 H   0  0  0  0  0  0  0  0  0  0  0  0
    8.2634   -3.9832   21.4066 H   0  0  0  0  0  0  0  0  0  0  0  0
    7.2769   -5.9871   22.6028 H   0  0  0  0  0  0  0  0  0  0  0  0
    8.1629   -6.5659   24.9062 H   0  0  0  0  0  0  0  0  0  0  0  0
   10.0859   -5.2551   25.8157 H   0  0  0  0  0  0  0  0  0  0  0  0
  1  2  2  0
  2  3  1  0
  3  4  2  0
  4  5  1  0
  5  6  2  0
  6  7  1  0
  7  8  1  0
  8  9  1  0
  9 10  2  0
 10 11  1  0
 11 12  1  0
 12 13  2  0
 13 14  1  0
 14 15  2  0
 15 16  1  0
 16 17  2  0
 17 18  1  0
 15 19  1  0
 14 20  1  0
 13 21  1  0
 11 22  2  0
 22 23  1  0
 23 24  1  0
 24 25  2  0
 25 26  1  0
 26 27  1  0
 26 28  2  0
 28 29  1  0
 29 30  2  0
 30 31  1  0
 29 32  1  0
 28 33  1  0
 25 34  1  0
  8 35  1  0
  8 36  1  0
  6 37  1  0
  5 38  1  0
  4 39  1  0
  3 40  1  0
  7  2  1  0
 23  9  1  0
 30 24  1  0
 17 12  1  0
M  END
>  <cnnaffinity>  (1) 
-6.33615

>  <filename>  (1) 
O=c1ccccn1Cc1nc(-c2cccnc2)nn1-c1cccc(Cl)c1

$$$$
