
     RDKit          3D

 31 33  0  0  0  0  0  0  0  0999 V2000
    4.9317    1.8238   16.9678 H   0  0  0  0  0  0  0  0  0  0  0  0
    5.4098    1.3292   17.8098 C   0  0  0  0  0  0  0  0  0  0  0  0
    6.5732    0.7135   17.5470 N   0  0  0  0  0  0  0  0  0  0  0  0
    7.1806    0.0682   18.5515 C   0  0  0  0  0  0  0  0  0  0  0  0
    8.1315   -0.4112   18.3206 H   0  0  0  0  0  0  0  0  0  0  0  0
    6.6455   -0.0181   19.8529 C   0  0  0  0  0  0  0  0  0  0  0  0
    7.3340   -0.7230   20.9112 N   0  0  0  0  0  0  0  0  0  0  0  0
    8.5959   -0.2886   21.2755 C   0  0  0  0  0  0  0  0  0  0  0  0
    8.9810    0.5524   20.7045 H   0  0  0  0  0  0  0  0  0  0  0  0
    9.3280   -0.8640   22.2784 C   0  0  0  0  0  0  0  0  0  0  0  0
   10.7107   -0.3772   22.5881 C   0  0  0  0  0  0  0  0  0  0  0  0
   11.8049   -1.2546   22.4269 C   0  0  0  0  0  0  0  0  0  0  0  0
   11.6068   -2.2833   22.1394 H   0  0  0  0  0  0  0  0  0  0  0  0
   13.1248   -0.8457   22.6222 C   0  0  0  0  0  0  0  0  0  0  0  0
   13.9385   -1.5317   22.4050 H   0  0  0  0  0  0  0  0  0  0  0  0
   13.3843    0.4346   23.1149 C   0  0  0  0  0  0  0  0  0  0  0  0
   14.3962    0.7397   23.3669 H   0  0  0  0  0  0  0  0  0  0  0  0
   12.3266    1.3274   23.2958 C   0  0  0  0  0  0  0  0  0  0  0  0
   12.5010    2.3285   23.6686 H   0  0  0  0  0  0  0  0  0  0  0  0
   11.0147    0.9424   22.9999 C   0  0  0  0  0  0  0  0  0  0  0  0
    9.7743    2.1527   23.2246 Cl  0  0  0  0  0  0  0  0  0  0  0  0
    8.7433   -1.9791   22.9711 C   0  0  0  0  0  0  0  0  0  0  0  0
    9.3118   -2.4779   23.7613 H   0  0  0  0  0  0  0  0  0  0  0  0
    7.4911   -2.4095   22.6577 C   0  0  0  0  0  0  0  0  0  0  0  0
    6.9857   -3.2257   23.1562 H   0  0  0  0  0  0  0  0  0  0  0  0
    6.6899   -1.8165   21.5940 C   0  0  0  0  0  0  0  0  0  0  0  0
    5.5856   -2.2307   21.2830 O   0  0  0  0  0  0  0  0  0  0  0  0
    5.4374    0.6415   20.1149 C   0  0  0  0  0  0  0  0  0  0  0  0
    5.0214    0.6136   21.1204 H   0  0  0  0  0  0  0  0  0  0  0  0
    4.8070    1.3300   19.0720 C   0  0  0  0  0  0  0  0  0  0  0  0
    3.8670    1.8557   19.2183 H   0  0  0  0  0  0  0  0  0  0  0  0
  1  2  1  0
  2  3  2  0
  3  4  1  0
  4  5  1  0
  4  6  2  0
  6  7  1  0
  7  8  1  0
  8  9  1  0
  8 10  2  0
 10 11  1  0
 11 12  2  0
 12 13  1  0
 12 14  1  0
 14 15  1  0
 14 16  2  0
 16 17  1  0
 16 18  1  0
 18 19  1  0
 18 20  2  0
 20 21  1  0
 10 22  1  0
 22 23  1  0
 22 24  2  0
 24 25  1  0
 24 26  1  0
 26 27  2  0
  6 28  1  0
 28 29  1  0
 28 30  2  0
 30 31  1  0
 30  2  1  0
 26  7  1  0
 20 11  1  0
M  END
>  <cnnaffinity>  (1) 
-5.29177

>  <filename>  (1) 
O=c1ccc(-c2ccccc2Cl)cn1-c1cccnc1

$$$$
