
     RDKit          3D

 32 34  0  0  0  0  0  0  0  0999 V2000
    4.9267    1.8232   16.9430 H   0  0  0  0  0  0  0  0  0  0  0  0
    5.3806    1.3318   17.8000 C   0  0  0  0  0  0  0  0  0  0  0  0
    6.5461    0.7074   17.5722 N   0  0  0  0  0  0  0  0  0  0  0  0
    7.1326    0.1071   18.6098 C   0  0  0  0  0  0  0  0  0  0  0  0
    8.0629   -0.4251   18.4131 H   0  0  0  0  0  0  0  0  0  0  0  0
    6.6152    0.1308   19.9098 C   0  0  0  0  0  0  0  0  0  0  0  0
    7.3677   -0.5721   20.9596 C   0  0  0  0  0  0  0  0  0  0  0  0
    8.0190   -1.6292   20.5583 N   0  0  0  0  0  0  0  0  0  0  0  0
    8.5277   -2.4378   21.5194 C   0  0  0  0  0  0  0  0  0  0  0  0
    8.7887   -3.6121   21.3897 O   0  0  0  0  0  0  0  0  0  0  0  0
    8.7598   -1.8873   22.7976 N   0  0  0  0  0  0  0  0  0  0  0  0
    9.0710   -2.6745   23.3439 H   0  0  0  0  0  0  0  0  0  0  0  0
    8.0343   -0.8185   23.2776 C   0  0  0  0  0  0  0  0  0  0  0  0
    8.0590   -0.4234   24.7492 C   0  0  0  0  0  0  0  0  0  0  0  0
    6.9913    0.2543   25.2205 N   0  0  0  0  0  0  0  0  0  0  0  0
    6.9779    0.6133   26.4966 C   0  0  0  0  0  0  0  0  0  0  0  0
    6.0964    1.1384   26.8533 H   0  0  0  0  0  0  0  0  0  0  0  0
    8.0331    0.3679   27.3771 C   0  0  0  0  0  0  0  0  0  0  0  0
    7.8558    0.9487   28.7399 C   0  0  0  0  0  0  0  0  0  0  0  0
    6.6404    0.6275   29.2351 F   0  0  0  0  0  0  0  0  0  0  0  0
    8.7677    0.5402   29.6333 F   0  0  0  0  0  0  0  0  0  0  0  0
    7.8980    2.2977   28.6943 F   0  0  0  0  0  0  0  0  0  0  0  0
    9.1579   -0.3170   26.9065 C   0  0  0  0  0  0  0  0  0  0  0  0
   10.0049   -0.5347   27.5609 H   0  0  0  0  0  0  0  0  0  0  0  0
    9.1639   -0.7242   25.5735 C   0  0  0  0  0  0  0  0  0  0  0  0
   10.0130   -1.2575   25.1614 H   0  0  0  0  0  0  0  0  0  0  0  0
    7.3393   -0.1334   22.3134 C   0  0  0  0  0  0  0  0  0  0  0  0
    6.7533    0.7310   22.5738 H   0  0  0  0  0  0  0  0  0  0  0  0
    5.3789    0.7448   20.1296 C   0  0  0  0  0  0  0  0  0  0  0  0
    4.9158    0.7073   21.1162 H   0  0  0  0  0  0  0  0  0  0  0  0
    4.7531    1.3621   19.0500 C   0  0  0  0  0  0  0  0  0  0  0  0
    3.8067    1.8733   19.1692 H   0  0  0  0  0  0  0  0  0  0  0  0
  1  2  1  0
  2  3  2  0
  3  4  1  0
  4  5  1  0
  4  6  2  0
  6  7  1  0
  7  8  2  0
  8  9  1  0
  9 10  2  0
  9 11  1  0
 11 12  1  0
 11 13  1  0
 13 14  1  0
 14 15  2  0
 15 16  1  0
 16 17  1  0
 16 18  2  0
 18 19  1  0
 19 20  1  0
 19 21  1  0
 19 22  1  0
 18 23  1  0
 23 24  1  0
 23 25  2  0
 25 26  1  0
 13 27  2  0
 27 28  1  0
  6 29  1  0
 29 30  1  0
 29 31  2  0
 31 32  1  0
 31  2  1  0
 27  7  1  0
 25 14  1  0
M  END
>  <cnnaffinity>  (1) 
-5.50891

>  <filename>  (1) 
O=c1nc(-c2cccnc2)cc(-c2ccc(C(F)(F)F)cn2)[nH]1

$$$$
