
     RDKit          3D

 36 38  0  0  0  0  0  0  0  0999 V2000
    4.9144    1.7759   17.0019 H   0  0  0  0  0  0  0  0  0  0  0  0
    5.4030    1.2928   17.8427 C   0  0  0  0  0  0  0  0  0  0  0  0
    6.5702    0.6840   17.5796 N   0  0  0  0  0  0  0  0  0  0  0  0
    7.1747    0.0543   18.5916 C   0  0  0  0  0  0  0  0  0  0  0  0
    8.1231   -0.4351   18.3732 H   0  0  0  0  0  0  0  0  0  0  0  0
    6.6475    0.0018   19.8871 C   0  0  0  0  0  0  0  0  0  0  0  0
    7.3778   -0.7412   20.9044 C   0  0  0  0  0  0  0  0  0  0  0  0
    8.0311   -1.8379   20.6745 N   0  0  0  0  0  0  0  0  0  0  0  0
    8.5238   -2.1834   21.9018 N   0  0  0  0  0  0  0  0  0  0  0  0
    9.1078   -2.9861   22.0460 H   0  0  0  0  0  0  0  0  0  0  0  0
    8.2564   -1.3102   22.9046 C   0  0  0  0  0  0  0  0  0  0  0  0
    8.6230   -1.3706   24.0667 O   0  0  0  0  0  0  0  0  0  0  0  0
    7.4614   -0.3358   22.2448 N   0  0  0  0  0  0  0  0  0  0  0  0
    7.0396    0.8793   22.8008 N   0  0  0  0  0  0  0  0  0  0  0  0
    7.0256    1.7028   22.2070 H   0  0  0  0  0  0  0  0  0  0  0  0
    6.6763    1.0309   24.1928 C   0  0  0  0  0  0  0  0  0  0  0  0
    6.5761    0.0272   24.6313 H   0  0  0  0  0  0  0  0  0  0  0  0
    5.3160    1.7385   24.3109 C   0  0  0  0  0  0  0  0  0  0  0  0
    5.4051    2.7474   23.8775 H   0  0  0  0  0  0  0  0  0  0  0  0
    4.5758    1.2005   23.7068 H   0  0  0  0  0  0  0  0  0  0  0  0
    4.8323    1.8432   25.7802 C   0  0  0  0  0  0  0  0  0  0  0  0
    4.1985    2.7332   25.8788 H   0  0  0  0  0  0  0  0  0  0  0  0
    4.1993    0.9812   26.0260 H   0  0  0  0  0  0  0  0  0  0  0  0
    5.9926    1.9170   26.8024 C   0  0  0  0  0  0  0  0  0  0  0  0
    5.6683    2.4592   27.6976 H   0  0  0  0  0  0  0  0  0  0  0  0
    6.2552    0.9026   27.1338 H   0  0  0  0  0  0  0  0  0  0  0  0
    7.2404    2.5790   26.2045 C   0  0  0  0  0  0  0  0  0  0  0  0
    8.0272    2.6627   26.9631 H   0  0  0  0  0  0  0  0  0  0  0  0
    6.9873    3.6068   25.9067 H   0  0  0  0  0  0  0  0  0  0  0  0
    7.7749    1.8006   24.9763 C   0  0  0  0  0  0  0  0  0  0  0  0
    8.5318    1.0739   25.2871 H   0  0  0  0  0  0  0  0  0  0  0  0
    8.2726    2.5078   24.2986 H   0  0  0  0  0  0  0  0  0  0  0  0
    5.4364    0.6551   20.1537 C   0  0  0  0  0  0  0  0  0  0  0  0
    5.0029    0.6280   21.1563 H   0  0  0  0  0  0  0  0  0  0  0  0
    4.8006    1.3120   19.1072 C   0  0  0  0  0  0  0  0  0  0  0  0
    3.8707    1.8451   19.2633 H   0  0  0  0  0  0  0  0  0  0  0  0
  1  2  1  0
  2  3  2  0
  3  4  1  0
  4  5  1  0
  4  6  2  0
  6  7  1  0
  7  8  2  0
  8  9  1  0
  9 10  1  0
  9 11  1  0
 11 12  2  0
 11 13  1  0
 13 14  1  0
 14 15  1  0
 14 16  1  0
 16 17  1  0
 16 18  1  0
 18 19  1  0
 18 20  1  0
 18 21  1  0
 21 22  1  0
 21 23  1  0
 21 24  1  0
 24 25  1  0
 24 26  1  0
 24 27  1  0
 27 28  1  0
 27 29  1  0
 27 30  1  0
 30 31  1  0
 30 32  1  0
  6 33  1  0
 33 34  1  0
 33 35  2  0
 35 36  1  0
 35  2  1  0
 13  7  1  0
 30 16  1  0
M  END
>  <cnnaffinity>  (1) 
-5.03351

>  <filename>  (1) 
O=c1[nH]nc(-c2cccnc2)n1NC1CCCCC1

$$$$
