
     RDKit          3D

 34 37  0  0  0  0  0  0  0  0999 V2000
    4.9394    1.9366   16.7762 H   0  0  0  0  0  0  0  0  0  0  0  0
    5.4294    1.4218   17.5962 C   0  0  0  0  0  0  0  0  0  0  0  0
    6.5743    0.7918   17.2790 N   0  0  0  0  0  0  0  0  0  0  0  0
    7.2054    0.1461   18.2661 C   0  0  0  0  0  0  0  0  0  0  0  0
    8.1244   -0.3659   17.9788 H   0  0  0  0  0  0  0  0  0  0  0  0
    6.7318    0.0838   19.5923 C   0  0  0  0  0  0  0  0  0  0  0  0
    7.4102   -0.6797   20.6301 C   0  0  0  0  0  0  0  0  0  0  0  0
    6.8997   -1.3153   21.7019 C   0  0  0  0  0  0  0  0  0  0  0  0
    5.8812   -1.4055   22.0437 H   0  0  0  0  0  0  0  0  0  0  0  0
    7.9337   -1.9554   22.3718 N   0  0  0  0  0  0  0  0  0  0  0  0
    7.7009   -2.6828   23.5761 C   0  0  0  0  0  0  0  0  0  0  0  0
    6.8149   -3.7430   23.5660 C   0  0  0  0  0  0  0  0  0  0  0  0
    6.3166   -4.0335   22.6431 H   0  0  0  0  0  0  0  0  0  0  0  0
    6.4813   -4.4875   24.6542 N   0  0  0  0  0  0  0  0  0  0  0  0
    7.0098   -4.1552   25.8104 C   0  0  0  0  0  0  0  0  0  0  0  0
    6.7178   -4.7590   26.6719 H   0  0  0  0  0  0  0  0  0  0  0  0
    7.8921   -3.0410   25.9859 C   0  0  0  0  0  0  0  0  0  0  0  0
    8.4010   -2.6644   27.2576 C   0  0  0  0  0  0  0  0  0  0  0  0
    8.2023   -3.3326   28.0866 H   0  0  0  0  0  0  0  0  0  0  0  0
    9.1096   -1.4996   27.4110 C   0  0  0  0  0  0  0  0  0  0  0  0
    9.4373   -1.1913   28.3983 H   0  0  0  0  0  0  0  0  0  0  0  0
    9.3956   -0.6721   26.2973 C   0  0  0  0  0  0  0  0  0  0  0  0
    9.9419    0.2533   26.4571 H   0  0  0  0  0  0  0  0  0  0  0  0
    8.9743   -1.0440   25.0360 C   0  0  0  0  0  0  0  0  0  0  0  0
    9.1898   -0.4187   24.1770 H   0  0  0  0  0  0  0  0  0  0  0  0
    8.2194   -2.2450   24.8457 C   0  0  0  0  0  0  0  0  0  0  0  0
    9.1446   -1.7124   21.6975 C   0  0  0  0  0  0  0  0  0  0  0  0
   10.2810   -2.0391   21.9667 O   0  0  0  0  0  0  0  0  0  0  0  0
    8.7673   -0.9623   20.6093 N   0  0  0  0  0  0  0  0  0  0  0  0
    9.5023   -0.4536   20.1586 H   0  0  0  0  0  0  0  0  0  0  0  0
    5.5325    0.7507   19.8994 C   0  0  0  0  0  0  0  0  0  0  0  0
    5.1547    0.7571   20.9258 H   0  0  0  0  0  0  0  0  0  0  0  0
    4.8668    1.4279   18.8806 C   0  0  0  0  0  0  0  0  0  0  0  0
    3.9353    1.9571   19.0676 H   0  0  0  0  0  0  0  0  0  0  0  0
  1  2  1  0
  2  3  2  0
  3  4  1  0
  4  5  1  0
  4  6  2  0
  6  7  1  0
  7  8  2  0
  8  9  1  0
  8 10  1  0
 10 11  1  0
 11 12  2  0
 12 13  1  0
 12 14  1  0
 14 15  2  0
 15 16  1  0
 15 17  1  0
 17 18  2  0
 18 19  1  0
 18 20  1  0
 20 21  1  0
 20 22  2  0
 22 23  1  0
 22 24  1  0
 24 25  1  0
 24 26  2  0
 10 27  1  0
 27 28  2  0
 27 29  1  0
 29 30  1  0
  6 31  1  0
 31 32  1  0
 31 33  2  0
 33 34  1  0
 33  2  1  0
 29  7  1  0
 26 11  1  0
 26 17  1  0
M  END
>  <cnnaffinity>  (1) 
-5.62668

>  <filename>  (1) 
O=c1[nH]c(-c2cccnc2)cn1-c1cncc2ccccc12

$$$$
