
     RDKit          3D

 33 36  0  0  0  0  0  0  0  0999 V2000
    5.0601    1.8300   17.1523 H   0  0  0  0  0  0  0  0  0  0  0  0
    5.4708    1.2364   17.9680 C   0  0  0  0  0  0  0  0  0  0  0  0
    6.5817    0.5334   17.6826 N   0  0  0  0  0  0  0  0  0  0  0  0
    7.1206   -0.1894   18.6679 C   0  0  0  0  0  0  0  0  0  0  0  0
    8.0158   -0.7656   18.4336 H   0  0  0  0  0  0  0  0  0  0  0  0
    6.5952   -0.2620   19.9659 C   0  0  0  0  0  0  0  0  0  0  0  0
    7.3034   -0.9741   20.9841 N   0  0  0  0  0  0  0  0  0  0  0  0
    6.5892   -1.8521   21.7293 N   0  0  0  0  0  0  0  0  0  0  0  0
    7.2069   -2.5037   22.6917 C   0  0  0  0  0  0  0  0  0  0  0  0
    6.3685   -3.4382   23.4755 C   0  0  0  0  0  0  0  0  0  0  0  0
    4.6498   -3.5078   23.1811 S   0  0  0  0  0  0  0  0  0  0  0  0
    4.4231   -4.4749   24.6178 C   0  0  0  0  0  0  0  0  0  0  0  0
    3.2172   -4.7738   25.2740 C   0  0  0  0  0  0  0  0  0  0  0  0
    2.2792   -4.3614   24.9081 H   0  0  0  0  0  0  0  0  0  0  0  0
    3.2710   -5.5667   26.4177 C   0  0  0  0  0  0  0  0  0  0  0  0
    2.3501   -5.7558   26.9621 H   0  0  0  0  0  0  0  0  0  0  0  0
    4.4944   -6.1135   26.8780 C   0  0  0  0  0  0  0  0  0  0  0  0
    4.4904   -6.7869   27.7309 H   0  0  0  0  0  0  0  0  0  0  0  0
    5.6899   -5.7916   26.2476 C   0  0  0  0  0  0  0  0  0  0  0  0
    6.6421   -6.2312   26.5410 H   0  0  0  0  0  0  0  0  0  0  0  0
    5.6647   -4.8871   25.1615 C   0  0  0  0  0  0  0  0  0  0  0  0
    6.7575   -4.2444   24.5037 C   0  0  0  0  0  0  0  0  0  0  0  0
    7.7962   -4.3096   24.8080 H   0  0  0  0  0  0  0  0  0  0  0  0
    8.6659   -2.2865   23.0486 C   0  0  0  0  0  0  0  0  0  0  0  0
    9.2774   -2.8285   23.9667 O   0  0  0  0  0  0  0  0  0  0  0  0
    9.3372   -1.3226   22.1789 C   0  0  0  0  0  0  0  0  0  0  0  0
   10.3838   -1.1389   22.3837 H   0  0  0  0  0  0  0  0  0  0  0  0
    8.6434   -0.7126   21.2091 C   0  0  0  0  0  0  0  0  0  0  0  0
    9.0750    0.0410   20.5526 H   0  0  0  0  0  0  0  0  0  0  0  0
    5.4039    0.4204   20.2454 C   0  0  0  0  0  0  0  0  0  0  0  0
    4.9677    0.3189   21.2392 H   0  0  0  0  0  0  0  0  0  0  0  0
    4.8486    1.2031   19.2236 C   0  0  0  0  0  0  0  0  0  0  0  0
    3.9497    1.7938   19.3791 H   0  0  0  0  0  0  0  0  0  0  0  0
  1  2  1  0
  2  3  2  0
  3  4  1  0
  4  5  1  0
  4  6  2  0
  6  7  1  0
  7  8  1  0
  8  9  2  0
  9 10  1  0
 10 11  1  0
 11 12  1  0
 12 13  2  0
 13 14  1  0
 13 15  1  0
 15 16  1  0
 15 17  2  0
 17 18  1  0
 17 19  1  0
 19 20  1  0
 19 21  2  0
 21 22  1  0
 22 23  1  0
  9 24  1  0
 24 25  2  0
 24 26  1  0
 26 27  1  0
 26 28  2  0
 28 29  1  0
  6 30  1  0
 30 31  1  0
 30 32  2  0
 32 33  1  0
 32  2  1  0
 28  7  1  0
 22 10  2  0
 21 12  1  0
M  END
>  <cnnaffinity>  (1) 
-5.5623

>  <filename>  (1) 
O=c1ccn(-c2cccnc2)nc1-c1cc2ccccc2s1

$$$$
