
     RDKit          3D

 45 48  0  0  0  0  0  0  0  0999 V2000
    9.3233    2.3781   22.5118 O   0  0  0  0  0  0  0  0  0  0  0  0
   10.3372    1.7041   22.5716 C   0  0  0  0  0  0  0  0  0  0  0  0
   11.3742    1.9976   23.6778 C   0  0  0  0  0  0  0  0  0  0  0  0
   12.3516    1.0006   23.9288 O   0  0  0  0  0  0  0  0  0  0  0  0
   12.8206    0.3753   22.7444 C   0  0  0  0  0  0  0  0  0  0  0  0
   11.6738   -0.2945   21.9957 C   0  0  0  0  0  0  0  0  0  0  0  0
   10.6384    0.6966   21.6664 N   0  0  0  0  0  0  0  0  0  0  0  0
    9.5785    0.2201   20.7678 C   0  0  0  0  0  0  0  0  0  0  0  0
    8.5734   -0.7059   21.4111 C   0  0  0  0  0  0  0  0  0  0  0  0
    8.7738   -1.5324   22.4185 N   0  0  0  0  0  0  0  0  0  0  0  0
    7.5410   -2.0559   22.6602 C   0  0  0  0  0  0  0  0  0  0  0  0
    7.2360   -2.9788   23.8099 C   0  0  0  0  0  0  0  0  0  0  0  0
    7.3470   -2.2823   25.1912 C   0  0  0  0  0  0  0  0  0  0  0  0
    8.8624   -2.2331   25.4450 C   0  0  0  0  0  0  0  0  0  0  0  0
    9.4114   -3.5466   24.8383 C   0  0  0  0  0  0  0  0  0  0  0  0
    8.2695   -4.1209   23.9567 C   0  0  0  0  0  0  0  0  0  0  0  0
    7.7858   -4.9662   24.4630 H   0  0  0  0  0  0  0  0  0  0  0  0
    8.6209   -4.5000   22.9916 H   0  0  0  0  0  0  0  0  0  0  0  0
    9.6902   -4.2695   25.6152 H   0  0  0  0  0  0  0  0  0  0  0  0
   10.3129   -3.3539   24.2456 H   0  0  0  0  0  0  0  0  0  0  0  0
    9.1093   -2.1132   26.5056 H   0  0  0  0  0  0  0  0  0  0  0  0
    9.2935   -1.3750   24.9160 H   0  0  0  0  0  0  0  0  0  0  0  0
    6.8636   -1.2986   25.2314 H   0  0  0  0  0  0  0  0  0  0  0  0
    6.8545   -2.9132   25.9472 H   0  0  0  0  0  0  0  0  0  0  0  0
    6.2240   -3.3418   23.6160 H   0  0  0  0  0  0  0  0  0  0  0  0
    6.6086   -1.6328   21.8322 N   0  0  0  0  0  0  0  0  0  0  0  0
    7.2810   -0.8008   20.9939 N   0  0  0  0  0  0  0  0  0  0  0  0
    6.6264   -0.1463   19.9213 C   0  0  0  0  0  0  0  0  0  0  0  0
    5.4385    0.5539   20.1507 C   0  0  0  0  0  0  0  0  0  0  0  0
    4.8935    1.2737   19.0860 C   0  0  0  0  0  0  0  0  0  0  0  0
    5.5264    1.2437   17.8361 C   0  0  0  0  0  0  0  0  0  0  0  0
    6.6357    0.5238   17.6003 N   0  0  0  0  0  0  0  0  0  0  0  0
    7.1591   -0.1612   18.6209 C   0  0  0  0  0  0  0  0  0  0  0  0
    8.0433   -0.7583   18.3990 H   0  0  0  0  0  0  0  0  0  0  0  0
    5.1351    1.8138   16.9952 H   0  0  0  0  0  0  0  0  0  0  0  0
    4.0013    1.8723   19.2231 H   0  0  0  0  0  0  0  0  0  0  0  0
    4.9830    0.5051   21.1408 H   0  0  0  0  0  0  0  0  0  0  0  0
    9.0748    1.0808   20.3144 H   0  0  0  0  0  0  0  0  0  0  0  0
   10.0346   -0.3590   19.9523 H   0  0  0  0  0  0  0  0  0  0  0  0
   11.2333   -1.0906   22.6163 H   0  0  0  0  0  0  0  0  0  0  0  0
   12.0477   -0.7515   21.0684 H   0  0  0  0  0  0  0  0  0  0  0  0
   13.5467   -0.3704   23.0691 H   0  0  0  0  0  0  0  0  0  0  0  0
   13.3125    1.1041   22.0833 H   0  0  0  0  0  0  0  0  0  0  0  0
   10.7994    2.1335   24.5968 H   0  0  0  0  0  0  0  0  0  0  0  0
   11.8187    2.9740   23.4271 H   0  0  0  0  0  0  0  0  0  0  0  0
  1  2  2  0
  2  3  1  0
  3  4  1  0
  4  5  1  0
  5  6  1  0
  6  7  1  0
  7  8  1  0
  8  9  1  0
  9 10  2  0
 10 11  1  0
 11 12  1  0
 12 13  1  0
 13 14  1  0
 14 15  1  0
 15 16  1  0
 16 17  1  0
 16 18  1  0
 15 19  1  0
 15 20  1  0
 14 21  1  0
 14 22  1  0
 13 23  1  0
 13 24  1  0
 12 25  1  0
 11 26  2  0
 26 27  1  0
 27 28  1  0
 28 29  2  0
 29 30  1  0
 30 31  2  0
 31 32  1  0
 32 33  2  0
 33 34  1  0
 31 35  1  0
 30 36  1  0
 29 37  1  0
  8 38  1  0
  8 39  1  0
  6 40  1  0
  6 41  1  0
  5 42  1  0
  5 43  1  0
  3 44  1  0
  3 45  1  0
  7  2  1  0
 27  9  1  0
 33 28  1  0
 16 12  1  0
M  END
>  <cnnaffinity>  (1) 
-6.02823

>  <filename>  (1) 
O=C1COCCN1Cc1nc(C2CCCC2)nn1-c1cccnc1

$$$$
