
     RDKit          3D

 32 34  0  0  0  0  0  0  0  0999 V2000
    4.9395    1.8056   16.9904 H   0  0  0  0  0  0  0  0  0  0  0  0
    5.3895    1.2950   17.8393 C   0  0  0  0  0  0  0  0  0  0  0  0
    6.5422    0.6593   17.5859 N   0  0  0  0  0  0  0  0  0  0  0  0
    7.1327    0.0286   18.6028 C   0  0  0  0  0  0  0  0  0  0  0  0
    8.1046   -0.4197   18.4031 H   0  0  0  0  0  0  0  0  0  0  0  0
    6.5949   -0.0371   19.9028 C   0  0  0  0  0  0  0  0  0  0  0  0
    7.3054   -0.7613   20.9974 C   0  0  0  0  0  0  0  0  0  0  0  0
    6.5546   -1.5122   21.7644 N   0  0  0  0  0  0  0  0  0  0  0  0
    7.1361   -2.2323   22.7963 N   0  0  0  0  0  0  0  0  0  0  0  0
    6.2996   -3.0816   23.5905 C   0  0  0  0  0  0  0  0  0  0  0  0
    6.8650   -3.6858   24.6442 N   0  0  0  0  0  0  0  0  0  0  0  0
    6.1046   -4.4578   25.4359 C   0  0  0  0  0  0  0  0  0  0  0  0
    6.7559   -5.2887   26.5735 C   0  0  0  0  0  0  0  0  0  0  0  0
    6.4986   -6.6043   26.4062 F   0  0  0  0  0  0  0  0  0  0  0  0
    6.2296   -4.9489   27.7683 F   0  0  0  0  0  0  0  0  0  0  0  0
    8.0794   -5.1582   26.6695 F   0  0  0  0  0  0  0  0  0  0  0  0
    4.7208   -4.5662   25.2641 C   0  0  0  0  0  0  0  0  0  0  0  0
    4.1448   -5.1743   25.9504 H   0  0  0  0  0  0  0  0  0  0  0  0
    4.1296   -3.9306   24.1688 C   0  0  0  0  0  0  0  0  0  0  0  0
    3.0453   -3.9494   24.0601 H   0  0  0  0  0  0  0  0  0  0  0  0
    4.9467   -3.2611   23.2624 C   0  0  0  0  0  0  0  0  0  0  0  0
    4.6130   -2.8406   22.3251 H   0  0  0  0  0  0  0  0  0  0  0  0
    8.4965   -2.1407   23.0628 C   0  0  0  0  0  0  0  0  0  0  0  0
    8.8422   -2.7361   23.9071 H   0  0  0  0  0  0  0  0  0  0  0  0
    9.3136   -1.3825   22.3196 C   0  0  0  0  0  0  0  0  0  0  0  0
   10.3787   -1.3026   22.4891 H   0  0  0  0  0  0  0  0  0  0  0  0
    8.7946   -0.5947   21.2110 C   0  0  0  0  0  0  0  0  0  0  0  0
    9.5173    0.1315   20.5313 O   0  0  0  0  0  0  0  0  0  0  0  0
    5.3863    0.6262   20.1497 C   0  0  0  0  0  0  0  0  0  0  0  0
    4.9713    0.6123   21.1587 H   0  0  0  0  0  0  0  0  0  0  0  0
    4.7791    1.3153   19.0988 C   0  0  0  0  0  0  0  0  0  0  0  0
    3.8589    1.8750   19.2316 H   0  0  0  0  0  0  0  0  0  0  0  0
  1  2  1  0
  2  3  2  0
  3  4  1  0
  4  5  1  0
  4  6  2  0
  6  7  1  0
  7  8  2  0
  8  9  1  0
  9 10  1  0
 10 11  2  0
 11 12  1  0
 12 13  1  0
 13 14  1  0
 13 15  1  0
 13 16  1  0
 12 17  2  0
 17 18  1  0
 17 19  1  0
 19 20  1  0
 19 21  2  0
 21 22  1  0
  9 23  1  0
 23 24  1  0
 23 25  2  0
 25 26  1  0
 25 27  1  0
 27 28  2  0
  6 29  1  0
 29 30  1  0
 29 31  2  0
 31 32  1  0
 31  2  1  0
 27  7  1  0
 21 10  1  0
M  END
>  <cnnaffinity>  (1) 
-5.44232

>  <filename>  (1) 
O=c1ccn(-c2cccc(C(F)(F)F)n2)nc1-c1cccnc1

$$$$
