
     RDKit          3D

 41 44  0  0  0  0  0  0  0  0999 V2000
    6.3923    1.5242   25.2884 O   0  0  0  0  0  0  0  0  0  0  0  0
    7.5219    1.7672   24.8980 C   0  0  0  0  0  0  0  0  0  0  0  0
    8.7062    1.9508   25.7224 C   0  0  0  0  0  0  0  0  0  0  0  0
    9.9338    2.1211   25.1346 C   0  0  0  0  0  0  0  0  0  0  0  0
   10.0598    2.2300   23.7247 C   0  0  0  0  0  0  0  0  0  0  0  0
    8.9555    2.0909   22.9237 C   0  0  0  0  0  0  0  0  0  0  0  0
    9.0340    2.0133   21.4321 C   0  0  0  0  0  0  0  0  0  0  0  0
    9.5121    0.6129   20.9503 C   0  0  0  0  0  0  0  0  0  0  0  0
    8.6224   -0.4951   21.4103 C   0  0  0  0  0  0  0  0  0  0  0  0
    8.8595   -1.3148   22.4130 N   0  0  0  0  0  0  0  0  0  0  0  0
    7.6678   -1.9447   22.5881 C   0  0  0  0  0  0  0  0  0  0  0  0
    7.4301   -2.8901   23.7177 C   0  0  0  0  0  0  0  0  0  0  0  0
    8.5604   -3.9374   23.9195 C   0  0  0  0  0  0  0  0  0  0  0  0
    8.9186   -3.3279   25.6029 S   0  0  0  0  0  0  0  0  0  0  0  0
    7.5473   -2.2256   25.1285 C   0  0  0  0  0  0  0  0  0  0  0  0
    6.6646   -2.3467   25.7647 H   0  0  0  0  0  0  0  0  0  0  0  0
    7.8279   -1.1631   25.1302 H   0  0  0  0  0  0  0  0  0  0  0  0
    9.4154   -3.8369   23.2402 H   0  0  0  0  0  0  0  0  0  0  0  0
    8.2228   -4.9776   23.9048 H   0  0  0  0  0  0  0  0  0  0  0  0
    6.4462   -3.3409   23.5479 H   0  0  0  0  0  0  0  0  0  0  0  0
    6.7255   -1.5980   21.7387 N   0  0  0  0  0  0  0  0  0  0  0  0
    7.3471   -0.6707   20.9557 N   0  0  0  0  0  0  0  0  0  0  0  0
    6.6544   -0.0015   19.9068 C   0  0  0  0  0  0  0  0  0  0  0  0
    5.4395    0.6434   20.1620 C   0  0  0  0  0  0  0  0  0  0  0  0
    4.8124    1.3127   19.1076 C   0  0  0  0  0  0  0  0  0  0  0  0
    5.4009    1.2958   17.8392 C   0  0  0  0  0  0  0  0  0  0  0  0
    6.5576    0.6663   17.5821 N   0  0  0  0  0  0  0  0  0  0  0  0
    7.1666    0.0431   18.5972 C   0  0  0  0  0  0  0  0  0  0  0  0
    8.1114   -0.4462   18.3616 H   0  0  0  0  0  0  0  0  0  0  0  0
    4.9289    1.7953   16.9954 H   0  0  0  0  0  0  0  0  0  0  0  0
    3.8788    1.8416   19.2583 H   0  0  0  0  0  0  0  0  0  0  0  0
    5.0056    0.5978   21.1607 H   0  0  0  0  0  0  0  0  0  0  0  0
    9.5626    0.5967   19.8624 H   0  0  0  0  0  0  0  0  0  0  0  0
   10.5188    0.4009   21.3237 H   0  0  0  0  0  0  0  0  0  0  0  0
    8.0694    2.2634   20.9756 H   0  0  0  0  0  0  0  0  0  0  0  0
    9.7535    2.7616   21.0906 H   0  0  0  0  0  0  0  0  0  0  0  0
    7.7400    1.8603   23.5287 N   0  0  0  0  0  0  0  0  0  0  0  0
    6.8948    1.6209   23.0301 H   0  0  0  0  0  0  0  0  0  0  0  0
   11.0292    2.3860   23.2625 H   0  0  0  0  0  0  0  0  0  0  0  0
   10.8411    2.1256   25.7331 H   0  0  0  0  0  0  0  0  0  0  0  0
    8.5410    1.9038   26.7895 H   0  0  0  0  0  0  0  0  0  0  0  0
  1  2  2  0
  2  3  1  0
  3  4  2  0
  4  5  1  0
  5  6  2  0
  6  7  1  0
  7  8  1  0
  8  9  1  0
  9 10  2  0
 10 11  1  0
 11 12  1  0
 12 13  1  0
 13 14  1  0
 14 15  1  0
 15 16  1  0
 15 17  1  0
 13 18  1  0
 13 19  1  0
 12 20  1  0
 11 21  2  0
 21 22  1  0
 22 23  1  0
 23 24  2  0
 24 25  1  0
 25 26  2  0
 26 27  1  0
 27 28  2  0
 28 29  1  0
 26 30  1  0
 25 31  1  0
 24 32  1  0
  8 33  1  0
  8 34  1  0
  7 35  1  0
  7 36  1  0
  6 37  1  0
 37 38  1  0
  5 39  1  0
  4 40  1  0
  3 41  1  0
 37  2  1  0
 22  9  1  0
 28 23  1  0
 15 12  1  0
M  END
>  <cnnaffinity>  (1) 
-5.91246

>  <filename>  (1) 
O=c1cccc(CCc2nc(C3CSC3)nn2-c2cccnc2)[nH]1

$$$$
