
     RDKit          3D

 44 47  0  0  0  0  0  0  0  0999 V2000
   12.0178   -1.2002   21.1726 O   0  0  0  0  0  0  0  0  0  0  0  0
   11.8889   -0.1372   21.7541 C   0  0  0  0  0  0  0  0  0  0  0  0
   13.0175    0.3868   22.6193 C   0  0  0  0  0  0  0  0  0  0  0  0
   12.6479    1.4017   23.6974 C   0  0  0  0  0  0  0  0  0  0  0  0
   11.6401    2.4255   23.1456 C   0  0  0  0  0  0  0  0  0  0  0  0
   12.2447    3.4135   22.1294 C   0  0  0  0  0  0  0  0  0  0  0  0
   11.5650    4.5790   22.1286 F   0  0  0  0  0  0  0  0  0  0  0  0
   13.5204    3.7363   22.4474 F   0  0  0  0  0  0  0  0  0  0  0  0
   12.2476    2.9517   20.8714 F   0  0  0  0  0  0  0  0  0  0  0  0
   10.4101    1.6963   22.5776 C   0  0  0  0  0  0  0  0  0  0  0  0
   10.7794    0.6823   21.5837 N   0  0  0  0  0  0  0  0  0  0  0  0
    9.6837    0.2007   20.7385 C   0  0  0  0  0  0  0  0  0  0  0  0
    8.6142   -0.5992   21.4225 C   0  0  0  0  0  0  0  0  0  0  0  0
    8.7746   -1.4087   22.4393 N   0  0  0  0  0  0  0  0  0  0  0  0
    7.5405   -1.9779   22.5979 C   0  0  0  0  0  0  0  0  0  0  0  0
    7.3151   -2.9717   23.6685 C   0  0  0  0  0  0  0  0  0  0  0  0
    6.1304   -3.5238   23.9517 N   0  0  0  0  0  0  0  0  0  0  0  0
    6.3716   -4.3167   24.9896 N   0  0  0  0  0  0  0  0  0  0  0  0
    7.6628   -4.3165   25.3971 C   0  0  0  0  0  0  0  0  0  0  0  0
    8.3154   -3.4546   24.5568 C   0  0  0  0  0  0  0  0  0  0  0  0
    9.3582   -3.1794   24.5519 H   0  0  0  0  0  0  0  0  0  0  0  0
    7.9909   -4.9211   26.2358 H   0  0  0  0  0  0  0  0  0  0  0  0
    5.5929   -4.8181   25.3891 H   0  0  0  0  0  0  0  0  0  0  0  0
    6.6393   -1.5475   21.7286 N   0  0  0  0  0  0  0  0  0  0  0  0
    7.3287   -0.6790   20.9537 N   0  0  0  0  0  0  0  0  0  0  0  0
    6.6644    0.0065   19.8925 C   0  0  0  0  0  0  0  0  0  0  0  0
    5.4452    0.6461   20.1446 C   0  0  0  0  0  0  0  0  0  0  0  0
    4.8159    1.3169   19.0953 C   0  0  0  0  0  0  0  0  0  0  0  0
    5.4104    1.3038   17.8277 C   0  0  0  0  0  0  0  0  0  0  0  0
    6.5627    0.6677   17.5689 N   0  0  0  0  0  0  0  0  0  0  0  0
    7.1730    0.0383   18.5807 C   0  0  0  0  0  0  0  0  0  0  0  0
    8.1049   -0.4680   18.3291 H   0  0  0  0  0  0  0  0  0  0  0  0
    4.9385    1.8148   16.9922 H   0  0  0  0  0  0  0  0  0  0  0  0
    3.8789    1.8406   19.2503 H   0  0  0  0  0  0  0  0  0  0  0  0
    5.0202    0.5866   21.1469 H   0  0  0  0  0  0  0  0  0  0  0  0
    9.2173    1.0513   20.2341 H   0  0  0  0  0  0  0  0  0  0  0  0
   10.1098   -0.4641   19.9817 H   0  0  0  0  0  0  0  0  0  0  0  0
    9.7360    2.4185   22.0994 H   0  0  0  0  0  0  0  0  0  0  0  0
    9.8429    1.2095   23.3927 H   0  0  0  0  0  0  0  0  0  0  0  0
   11.2986    3.0662   23.9629 H   0  0  0  0  0  0  0  0  0  0  0  0
   13.5507    1.9105   24.0576 H   0  0  0  0  0  0  0  0  0  0  0  0
   12.2134    0.9096   24.5782 H   0  0  0  0  0  0  0  0  0  0  0  0
   13.5135   -0.4973   23.0164 H   0  0  0  0  0  0  0  0  0  0  0  0
   13.7187    0.8317   21.9125 H   0  0  0  0  0  0  0  0  0  0  0  0
  1  2  2  0
  2  3  1  0
  3  4  1  0
  4  5  1  0
  5  6  1  0
  6  7  1  0
  6  8  1  0
  6  9  1  0
  5 10  1  0
 10 11  1  0
 11 12  1  0
 12 13  1  0
 13 14  2  0
 14 15  1  0
 15 16  1  0
 16 17  2  0
 17 18  1  0
 18 19  1  0
 19 20  2  0
 20 21  1  0
 19 22  1  0
 18 23  1  0
 15 24  2  0
 24 25  1  0
 25 26  1  0
 26 27  2  0
 27 28  1  0
 28 29  2  0
 29 30  1  0
 30 31  2  0
 31 32  1  0
 29 33  1  0
 28 34  1  0
 27 35  1  0
 12 36  1  0
 12 37  1  0
 10 38  1  0
 10 39  1  0
  5 40  1  0
  4 41  1  0
  4 42  1  0
  3 43  1  0
  3 44  1  0
 11  2  1  0
 25 13  1  0
 31 26  1  0
 20 16  1  0
M  END
>  <cnnaffinity>  (1) 
-6.28136

>  <filename>  (1) 
O=C1CCC(C(F)(F)F)CN1Cc1nc(-c2cc[nH]n2)nn1-c1cccnc1

$$$$
