
     RDKit          3D

 28 30  0  0  0  0  0  0  0  0999 V2000
    4.9328    1.7946   16.9872 H   0  0  0  0  0  0  0  0  0  0  0  0
    5.4012    1.2960   17.8338 C   0  0  0  0  0  0  0  0  0  0  0  0
    6.5650    0.6768   17.5803 N   0  0  0  0  0  0  0  0  0  0  0  0
    7.1606    0.0497   18.5972 C   0  0  0  0  0  0  0  0  0  0  0  0
    8.1075   -0.4372   18.3654 H   0  0  0  0  0  0  0  0  0  0  0  0
    6.6398    0.0182   19.8991 C   0  0  0  0  0  0  0  0  0  0  0  0
    7.3759   -0.7023   20.9314 C   0  0  0  0  0  0  0  0  0  0  0  0
    7.9561   -1.8393   20.7032 N   0  0  0  0  0  0  0  0  0  0  0  0
    8.4356   -2.2150   21.9226 N   0  0  0  0  0  0  0  0  0  0  0  0
    8.9471   -3.0632   22.0973 H   0  0  0  0  0  0  0  0  0  0  0  0
    8.2035   -1.3261   22.9179 C   0  0  0  0  0  0  0  0  0  0  0  0
    8.5587   -1.4302   24.0764 O   0  0  0  0  0  0  0  0  0  0  0  0
    7.4948   -0.3143   22.2565 N   0  0  0  0  0  0  0  0  0  0  0  0
    7.1433    0.9255   22.8558 C   0  0  0  0  0  0  0  0  0  0  0  0
    7.4513    2.1330   22.2193 C   0  0  0  0  0  0  0  0  0  0  0  0
    7.9278    2.1167   21.2454 H   0  0  0  0  0  0  0  0  0  0  0  0
    7.0852    3.3373   22.8241 C   0  0  0  0  0  0  0  0  0  0  0  0
    7.3025    4.2786   22.3288 H   0  0  0  0  0  0  0  0  0  0  0  0
    6.4259    3.3462   24.0566 C   0  0  0  0  0  0  0  0  0  0  0  0
    6.1407    4.2727   24.5469 H   0  0  0  0  0  0  0  0  0  0  0  0
    6.1362    2.1256   24.6689 C   0  0  0  0  0  0  0  0  0  0  0  0
    5.3438    2.1311   26.2129 Cl  0  0  0  0  0  0  0  0  0  0  0  0
    6.4856    0.9109   24.0867 C   0  0  0  0  0  0  0  0  0  0  0  0
    6.2759   -0.0310   24.5814 H   0  0  0  0  0  0  0  0  0  0  0  0
    5.4169    0.6523   20.1480 C   0  0  0  0  0  0  0  0  0  0  0  0
    5.0010    0.6464   21.1599 H   0  0  0  0  0  0  0  0  0  0  0  0
    4.7927    1.3102   19.0950 C   0  0  0  0  0  0  0  0  0  0  0  0
    3.8662    1.8458   19.2409 H   0  0  0  0  0  0  0  0  0  0  0  0
  1  2  1  0
  2  3  2  0
  3  4  1  0
  4  5  1  0
  4  6  2  0
  6  7  1  0
  7  8  2  0
  8  9  1  0
  9 10  1  0
  9 11  1  0
 11 12  2  0
 11 13  1  0
 13 14  1  0
 14 15  2  0
 15 16  1  0
 15 17  1  0
 17 18  1  0
 17 19  2  0
 19 20  1  0
 19 21  1  0
 21 22  1  0
 21 23  2  0
 23 24  1  0
  6 25  1  0
 25 26  1  0
 25 27  2  0
 27 28  1  0
 27  2  1  0
 13  7  1  0
 23 14  1  0
M  END
>  <cnnaffinity>  (1) 
-5.05189

>  <filename>  (1) 
O=c1[nH]nc(-c2cccnc2)n1-c1cccc(Cl)c1

$$$$
