
     RDKit          3D

 31 33  0  0  0  0  0  0  0  0999 V2000
    4.9140    1.7355   17.0476 H   0  0  0  0  0  0  0  0  0  0  0  0
    5.4402    1.2300   17.8565 C   0  0  0  0  0  0  0  0  0  0  0  0
    6.5765    0.6011   17.5081 N   0  0  0  0  0  0  0  0  0  0  0  0
    7.2598   -0.0333   18.4679 C   0  0  0  0  0  0  0  0  0  0  0  0
    8.1978   -0.5172   18.1913 H   0  0  0  0  0  0  0  0  0  0  0  0
    6.8351   -0.0972   19.8133 C   0  0  0  0  0  0  0  0  0  0  0  0
    7.6187   -0.7406   20.8237 N   0  0  0  0  0  0  0  0  0  0  0  0
    7.2952   -1.7694   21.7177 C   0  0  0  0  0  0  0  0  0  0  0  0
    5.9486   -2.4072   21.9058 C   0  0  0  0  0  0  0  0  0  0  0  0
    5.2105   -1.8886   21.2894 H   0  0  0  0  0  0  0  0  0  0  0  0
    5.7010   -2.2329   22.9557 H   0  0  0  0  0  0  0  0  0  0  0  0
    5.8528   -3.9145   21.7205 C   0  0  0  0  0  0  0  0  0  0  0  0
    5.7416   -4.7340   22.8544 C   0  0  0  0  0  0  0  0  0  0  0  0
    5.6180   -4.2565   23.8233 H   0  0  0  0  0  0  0  0  0  0  0  0
    5.7676   -6.1255   22.7701 C   0  0  0  0  0  0  0  0  0  0  0  0
    5.6905   -6.7428   23.6626 H   0  0  0  0  0  0  0  0  0  0  0  0
    5.8815   -6.7302   21.5195 C   0  0  0  0  0  0  0  0  0  0  0  0
    5.9447   -7.8138   21.4952 H   0  0  0  0  0  0  0  0  0  0  0  0
    5.8933   -5.9433   20.3593 C   0  0  0  0  0  0  0  0  0  0  0  0
    5.9126   -6.3783   19.3658 H   0  0  0  0  0  0  0  0  0  0  0  0
    5.8623   -4.5487   20.4706 C   0  0  0  0  0  0  0  0  0  0  0  0
    5.7482   -3.5827   19.0248 Cl  0  0  0  0  0  0  0  0  0  0  0  0
    8.2803   -2.0293   22.5236 N   0  0  0  0  0  0  0  0  0  0  0  0
    9.2745   -1.1707   22.1296 N   0  0  0  0  0  0  0  0  0  0  0  0
   10.1114   -1.0158   22.6629 H   0  0  0  0  0  0  0  0  0  0  0  0
    8.9115   -0.2944   21.1585 C   0  0  0  0  0  0  0  0  0  0  0  0
    9.5508    0.6337   20.6991 O   0  0  0  0  0  0  0  0  0  0  0  0
    5.6534    0.5567   20.1601 C   0  0  0  0  0  0  0  0  0  0  0  0
    5.3417    0.5340   21.2033 H   0  0  0  0  0  0  0  0  0  0  0  0
    4.9366    1.2295   19.1619 C   0  0  0  0  0  0  0  0  0  0  0  0
    4.0074    1.7407   19.3864 H   0  0  0  0  0  0  0  0  0  0  0  0
  1  2  1  0
  2  3  2  0
  3  4  1  0
  4  5  1  0
  4  6  2  0
  6  7  1  0
  7  8  1  0
  8  9  1  0
  9 10  1  0
  9 11  1  0
  9 12  1  0
 12 13  2  0
 13 14  1  0
 13 15  1  0
 15 16  1  0
 15 17  2  0
 17 18  1  0
 17 19  1  0
 19 20  1  0
 19 21  2  0
 21 22  1  0
  8 23  2  0
 23 24  1  0
 24 25  1  0
 24 26  1  0
 26 27  2  0
  6 28  1  0
 28 29  1  0
 28 30  2  0
 30 31  1  0
 30  2  1  0
 26  7  1  0
 21 12  1  0
M  END
>  <cnnaffinity>  (1) 
-5.38661

>  <filename>  (1) 
O=c1[nH]nc(Cc2ccccc2Cl)n1-c1cccnc1

$$$$
