
     RDKit          3D

 36 39  0  0  0  0  0  0  0  0999 V2000
    4.9375    1.7735   17.0074 H   0  0  0  0  0  0  0  0  0  0  0  0
    5.4100    1.2783   17.8522 C   0  0  0  0  0  0  0  0  0  0  0  0
    6.5683    0.6582   17.5961 N   0  0  0  0  0  0  0  0  0  0  0  0
    7.1912    0.0584   18.6127 C   0  0  0  0  0  0  0  0  0  0  0  0
    8.1389   -0.4221   18.3758 H   0  0  0  0  0  0  0  0  0  0  0  0
    6.6811    0.0166   19.9153 C   0  0  0  0  0  0  0  0  0  0  0  0
    7.4585   -0.6983   20.9445 C   0  0  0  0  0  0  0  0  0  0  0  0
    8.7601   -0.6775   20.8656 N   0  0  0  0  0  0  0  0  0  0  0  0
    9.4816   -1.3140   21.8427 C   0  0  0  0  0  0  0  0  0  0  0  0
   10.6909   -1.3607   21.9209 O   0  0  0  0  0  0  0  0  0  0  0  0
    8.7808   -1.9936   22.8381 N   0  0  0  0  0  0  0  0  0  0  0  0
    9.4148   -2.3824   23.5110 H   0  0  0  0  0  0  0  0  0  0  0  0
    7.4324   -2.0240   22.9484 C   0  0  0  0  0  0  0  0  0  0  0  0
    6.8158   -2.7897   24.0564 C   0  0  0  0  0  0  0  0  0  0  0  0
    7.0643   -4.1521   24.1694 C   0  0  0  0  0  0  0  0  0  0  0  0
    7.7635   -4.6182   23.4759 H   0  0  0  0  0  0  0  0  0  0  0  0
    6.4013   -4.9440   25.1397 C   0  0  0  0  0  0  0  0  0  0  0  0
    6.6200   -6.0093   25.1944 H   0  0  0  0  0  0  0  0  0  0  0  0
    5.5005   -4.3625   26.0036 C   0  0  0  0  0  0  0  0  0  0  0  0
    4.9896   -4.9571   26.7570 H   0  0  0  0  0  0  0  0  0  0  0  0
    5.2285   -2.9608   25.9467 C   0  0  0  0  0  0  0  0  0  0  0  0
    4.3005   -2.3471   26.8449 C   0  0  0  0  0  0  0  0  0  0  0  0
    3.8037   -2.9813   27.5759 H   0  0  0  0  0  0  0  0  0  0  0  0
    4.0545   -0.9954   26.8005 C   0  0  0  0  0  0  0  0  0  0  0  0
    3.3507   -0.5414   27.4953 H   0  0  0  0  0  0  0  0  0  0  0  0
    4.7312   -0.1766   25.8584 C   0  0  0  0  0  0  0  0  0  0  0  0
    4.5293    0.8923   25.8281 H   0  0  0  0  0  0  0  0  0  0  0  0
    5.6397   -0.7307   24.9840 C   0  0  0  0  0  0  0  0  0  0  0  0
    6.1456   -0.0988   24.2568 H   0  0  0  0  0  0  0  0  0  0  0  0
    5.9046   -2.1461   24.9778 C   0  0  0  0  0  0  0  0  0  0  0  0
    6.7410   -1.3881   21.9565 C   0  0  0  0  0  0  0  0  0  0  0  0
    5.6697   -1.4438   21.9406 H   0  0  0  0  0  0  0  0  0  0  0  0
    5.4516    0.6479   20.1688 C   0  0  0  0  0  0  0  0  0  0  0  0
    5.0061    0.6456   21.1665 H   0  0  0  0  0  0  0  0  0  0  0  0
    4.8183    1.3025   19.1174 C   0  0  0  0  0  0  0  0  0  0  0  0
    3.8873    1.8318   19.2594 H   0  0  0  0  0  0  0  0  0  0  0  0
  1  2  1  0
  2  3  2  0
  3  4  1  0
  4  5  1  0
  4  6  2  0
  6  7  1  0
  7  8  2  0
  8  9  1  0
  9 10  2  0
  9 11  1  0
 11 12  1  0
 11 13  1  0
 13 14  1  0
 14 15  2  0
 15 16  1  0
 15 17  1  0
 17 18  1  0
 17 19  2  0
 19 20  1  0
 19 21  1  0
 21 22  2  0
 22 23  1  0
 22 24  1  0
 24 25  1  0
 24 26  2  0
 26 27  1  0
 26 28  1  0
 28 29  1  0
 28 30  2  0
 13 31  2  0
 31 32  1  0
  6 33  1  0
 33 34  1  0
 33 35  2  0
 35 36  1  0
 35  2  1  0
 31  7  1  0
 30 14  1  0
 30 21  1  0
M  END
>  <cnnaffinity>  (1) 
-5.23413

>  <filename>  (1) 
O=c1nc(-c2cccnc2)cc(-c2cccc3ccccc23)[nH]1

$$$$
