
     RDKit          3D

 23 24  0  0  0  0  0  0  0  0999 V2000
    5.4185   -3.7627   19.8932 H   0  0  0  0  0  0  0  0  0  0  0  0
    6.3689   -4.0694   19.7962 O   0  0  0  0  0  0  0  0  0  0  0  0
    6.4353   -3.2931   21.0561 P   0  0  0  0  0  0  0  0  0  0  0  0
    5.0525   -3.1929   20.6081 O   0  0  0  0  0  0  0  0  0  0  0  0
    6.5192   -4.1828   22.3306 O   0  0  0  0  0  0  0  0  0  0  0  0
    5.7752   -4.7527   22.0965 H   0  0  0  0  0  0  0  0  0  0  0  0
    7.5814   -1.8455   21.3562 C   0  0  0  0  0  0  0  0  0  0  0  0
    8.4440   -1.8654   22.4205 C   0  0  0  0  0  0  0  0  0  0  0  0
    8.6077   -2.6909   23.1175 H   0  0  0  0  0  0  0  0  0  0  0  0
    9.0628   -0.6536   22.5752 O   0  0  0  0  0  0  0  0  0  0  0  0
    8.5947    0.1808   21.6176 C   0  0  0  0  0  0  0  0  0  0  0  0
    8.8871    1.3715   21.4946 O   0  0  0  0  0  0  0  0  0  0  0  0
    7.7339   -0.5573   20.8005 N   0  0  0  0  0  0  0  0  0  0  0  0
    6.9399   -0.0161   19.7780 C   0  0  0  0  0  0  0  0  0  0  0  0
    7.3803    0.0127   18.4370 C   0  0  0  0  0  0  0  0  0  0  0  0
    8.3464   -0.4295   18.2123 H   0  0  0  0  0  0  0  0  0  0  0  0
    6.6852    0.5923   17.4348 N   0  0  0  0  0  0  0  0  0  0  0  0
    5.5159    1.1777   17.7499 C   0  0  0  0  0  0  0  0  0  0  0  0
    4.9325    1.6339   16.9588 H   0  0  0  0  0  0  0  0  0  0  0  0
    5.0086    1.1957   19.0553 C   0  0  0  0  0  0  0  0  0  0  0  0
    4.0623    1.6869   19.2500 H   0  0  0  0  0  0  0  0  0  0  0  0
    5.7302    0.6003   20.0930 C   0  0  0  0  0  0  0  0  0  0  0  0
    5.3794    0.6166   21.1253 H   0  0  0  0  0  0  0  0  0  0  0  0
  1  2  1  0
  2  3  1  0
  3  4  2  0
  3  5  1  0
  5  6  1  0
  3  7  1  0
  7  8  2  0
  8  9  1  0
  8 10  1  0
 10 11  1  0
 11 12  2  0
 11 13  1  0
 13 14  1  0
 14 15  2  0
 15 16  1  0
 15 17  1  0
 17 18  2  0
 18 19  1  0
 18 20  1  0
 20 21  1  0
 20 22  2  0
 22 23  1  0
 13  7  1  0
 22 14  1  0
M  END
>  <cnnaffinity>  (1) 
-3.92989

>  <filename>  (1) 
O=c1occ(P(=O)(O)O)n1-c1cccnc1

$$$$
