
     RDKit          3D

 48 51  0  0  0  0  0  0  0  0999 V2000
    8.7391    2.0059   26.9522 O   0  0  0  0  0  0  0  0  0  0  0  0
    8.7305    1.9854   25.7371 C   0  0  0  0  0  0  0  0  0  0  0  0
    7.5455    1.8048   24.9190 C   0  0  0  0  0  0  0  0  0  0  0  0
    7.6491    1.8463   23.5624 C   0  0  0  0  0  0  0  0  0  0  0  0
    8.9440    2.0693   22.9423 C   0  0  0  0  0  0  0  0  0  0  0  0
    9.0903    2.0104   21.4392 C   0  0  0  0  0  0  0  0  0  0  0  0
    9.5353    0.6030   20.9350 C   0  0  0  0  0  0  0  0  0  0  0  0
    8.6354   -0.5051   21.3889 C   0  0  0  0  0  0  0  0  0  0  0  0
    8.8614   -1.3154   22.4015 N   0  0  0  0  0  0  0  0  0  0  0  0
    7.6565   -1.9275   22.5869 C   0  0  0  0  0  0  0  0  0  0  0  0
    7.4076   -2.8538   23.7403 C   0  0  0  0  0  0  0  0  0  0  0  0
    7.2249   -2.0430   25.0732 C   0  0  0  0  0  0  0  0  0  0  0  0
    7.5607   -2.8698   26.3423 C   0  0  0  0  0  0  0  0  0  0  0  0
    7.3532   -4.3602   26.1276 C   0  0  0  0  0  0  0  0  0  0  0  0
    7.6290   -5.0270   27.2921 F   0  0  0  0  0  0  0  0  0  0  0  0
    6.0195   -4.5859   25.8577 F   0  0  0  0  0  0  0  0  0  0  0  0
    8.2001   -4.9407   24.9891 C   0  0  0  0  0  0  0  0  0  0  0  0
    8.5287   -3.9127   23.8761 C   0  0  0  0  0  0  0  0  0  0  0  0
    8.6889   -4.4214   22.9179 H   0  0  0  0  0  0  0  0  0  0  0  0
    9.4737   -3.3926   24.0964 H   0  0  0  0  0  0  0  0  0  0  0  0
    7.6317   -5.7912   24.5988 H   0  0  0  0  0  0  0  0  0  0  0  0
    9.1237   -5.3384   25.4257 H   0  0  0  0  0  0  0  0  0  0  0  0
    8.6143   -2.7390   26.6226 H   0  0  0  0  0  0  0  0  0  0  0  0
    6.9566   -2.5685   27.2037 H   0  0  0  0  0  0  0  0  0  0  0  0
    7.8628   -1.1451   25.0584 H   0  0  0  0  0  0  0  0  0  0  0  0
    6.1872   -1.6835   25.1157 H   0  0  0  0  0  0  0  0  0  0  0  0
    6.4589   -3.3578   23.5136 H   0  0  0  0  0  0  0  0  0  0  0  0
    6.7180   -1.5692   21.7361 N   0  0  0  0  0  0  0  0  0  0  0  0
    7.3577   -0.6719   20.9362 N   0  0  0  0  0  0  0  0  0  0  0  0
    6.6591    0.0003   19.8978 C   0  0  0  0  0  0  0  0  0  0  0  0
    5.4441    0.6412   20.1587 C   0  0  0  0  0  0  0  0  0  0  0  0
    4.8125    1.3114   19.1064 C   0  0  0  0  0  0  0  0  0  0  0  0
    5.3986    1.2975   17.8355 C   0  0  0  0  0  0  0  0  0  0  0  0
    6.5532    0.6671   17.5731 N   0  0  0  0  0  0  0  0  0  0  0  0
    7.1646    0.0439   18.5861 C   0  0  0  0  0  0  0  0  0  0  0  0
    8.1095   -0.4443   18.3512 H   0  0  0  0  0  0  0  0  0  0  0  0
    4.9310    1.8006   16.9919 H   0  0  0  0  0  0  0  0  0  0  0  0
    3.8790    1.8401   19.2567 H   0  0  0  0  0  0  0  0  0  0  0  0
    5.0182    0.5929   21.1621 H   0  0  0  0  0  0  0  0  0  0  0  0
    9.5657    0.5971   19.8452 H   0  0  0  0  0  0  0  0  0  0  0  0
   10.5449    0.3699   21.2890 H   0  0  0  0  0  0  0  0  0  0  0  0
    9.8100    2.7659   21.1082 H   0  0  0  0  0  0  0  0  0  0  0  0
    8.1189    2.2677   21.0016 H   0  0  0  0  0  0  0  0  0  0  0  0
   10.0284    2.2238   23.6477 N   0  0  0  0  0  0  0  0  0  0  0  0
    9.8943    2.1590   25.0022 N   0  0  0  0  0  0  0  0  0  0  0  0
   10.7224    2.2508   25.5724 H   0  0  0  0  0  0  0  0  0  0  0  0
    6.8007    1.6897   22.9096 H   0  0  0  0  0  0  0  0  0  0  0  0
    6.6516    1.6327   25.5060 H   0  0  0  0  0  0  0  0  0  0  0  0
  1  2  2  0
  2  3  1  0
  3  4  2  0
  4  5  1  0
  5  6  1  0
  6  7  1  0
  7  8  1  0
  8  9  2  0
  9 10  1  0
 10 11  1  0
 11 12  1  0
 12 13  1  0
 13 14  1  0
 14 15  1  0
 14 16  1  0
 14 17  1  0
 17 18  1  0
 18 19  1  0
 18 20  1  0
 17 21  1  0
 17 22  1  0
 13 23  1  0
 13 24  1  0
 12 25  1  0
 12 26  1  0
 11 27  1  0
 10 28  2  0
 28 29  1  0
 29 30  1  0
 30 31  2  0
 31 32  1  0
 32 33  2  0
 33 34  1  0
 34 35  2  0
 35 36  1  0
 33 37  1  0
 32 38  1  0
 31 39  1  0
  7 40  1  0
  7 41  1  0
  6 42  1  0
  6 43  1  0
  5 44  2  0
 44 45  1  0
 45 46  1  0
  4 47  1  0
  3 48  1  0
 45  2  1  0
 29  8  1  0
 35 30  1  0
 18 11  1  0
M  END
>  <cnnaffinity>  (1) 
-6.25429

>  <filename>  (1) 
O=c1ccc(CCc2nc(C3CCC(F)(F)CC3)nn2-c2cccnc2)n[nH]1

$$$$
