
     RDKit          3D

 45 48  0  0  0  0  0  0  0  0999 V2000
    5.1068    1.8614   16.9654 H   0  0  0  0  0  0  0  0  0  0  0  0
    5.5512    1.3323   17.8080 C   0  0  0  0  0  0  0  0  0  0  0  0
    6.7175    0.7110   17.5709 N   0  0  0  0  0  0  0  0  0  0  0  0
    7.2959    0.0569   18.5881 C   0  0  0  0  0  0  0  0  0  0  0  0
    8.2385   -0.4454   18.3712 H   0  0  0  0  0  0  0  0  0  0  0  0
    6.7321   -0.0358   19.8749 C   0  0  0  0  0  0  0  0  0  0  0  0
    7.3774   -0.7715   20.9324 N   0  0  0  0  0  0  0  0  0  0  0  0
    8.6576   -0.3992   21.3221 C   0  0  0  0  0  0  0  0  0  0  0  0
    9.1013    0.4410   20.7970 H   0  0  0  0  0  0  0  0  0  0  0  0
    9.3213   -1.0131   22.3528 C   0  0  0  0  0  0  0  0  0  0  0  0
   10.6413   -0.6847   22.7380 N   0  0  0  0  0  0  0  0  0  0  0  0
   11.5863   -0.1385   21.7491 C   0  0  0  0  0  0  0  0  0  0  0  0
   12.5601   -0.6345   21.8786 H   0  0  0  0  0  0  0  0  0  0  0  0
   11.2474   -0.3986   20.7457 H   0  0  0  0  0  0  0  0  0  0  0  0
   11.7954    1.3783   21.9361 C   0  0  0  0  0  0  0  0  0  0  0  0
   10.8158    1.8805   21.8496 H   0  0  0  0  0  0  0  0  0  0  0  0
   12.4246    1.7898   21.1372 H   0  0  0  0  0  0  0  0  0  0  0  0
   12.4173    1.6500   23.2478 N   0  0  0  0  0  0  0  0  0  0  0  0
   12.5323    3.0251   23.5914 C   0  0  0  0  0  0  0  0  0  0  0  0
   13.6561    3.7052   23.1145 C   0  0  0  0  0  0  0  0  0  0  0  0
   14.3761    3.1264   22.5456 H   0  0  0  0  0  0  0  0  0  0  0  0
   13.8423    5.0565   23.3946 C   0  0  0  0  0  0  0  0  0  0  0  0
   14.7097    5.5587   22.9820 H   0  0  0  0  0  0  0  0  0  0  0  0
   12.9080    5.7533   24.1714 C   0  0  0  0  0  0  0  0  0  0  0  0
   13.0610    6.8068   24.3947 H   0  0  0  0  0  0  0  0  0  0  0  0
   11.7616    5.0923   24.6290 C   0  0  0  0  0  0  0  0  0  0  0  0
   11.0225    5.6387   25.2134 H   0  0  0  0  0  0  0  0  0  0  0  0
   11.5671    3.7352   24.3244 C   0  0  0  0  0  0  0  0  0  0  0  0
   10.6618    3.2192   24.6312 H   0  0  0  0  0  0  0  0  0  0  0  0
   12.1497    0.6405   24.2810 C   0  0  0  0  0  0  0  0  0  0  0  0
   12.1808    1.1121   25.2689 H   0  0  0  0  0  0  0  0  0  0  0  0
   12.9548   -0.1110   24.2611 H   0  0  0  0  0  0  0  0  0  0  0  0
   10.8006   -0.1039   24.0926 C   0  0  0  0  0  0  0  0  0  0  0  0
   10.7351   -0.9067   24.8371 H   0  0  0  0  0  0  0  0  0  0  0  0
    9.9914    0.6117   24.3226 H   0  0  0  0  0  0  0  0  0  0  0  0
    8.6374   -2.0474   23.0768 C   0  0  0  0  0  0  0  0  0  0  0  0
    9.1623   -2.5041   23.9210 H   0  0  0  0  0  0  0  0  0  0  0  0
    7.3917   -2.4450   22.7038 C   0  0  0  0  0  0  0  0  0  0  0  0
    6.8309   -3.2159   23.2085 H   0  0  0  0  0  0  0  0  0  0  0  0
    6.6831   -1.8649   21.5675 C   0  0  0  0  0  0  0  0  0  0  0  0
    5.6051   -2.2785   21.1733 O   0  0  0  0  0  0  0  0  0  0  0  0
    5.5018    0.5947   20.1003 C   0  0  0  0  0  0  0  0  0  0  0  0
    5.0298    0.5160   21.0791 H   0  0  0  0  0  0  0  0  0  0  0  0
    4.9098    1.3039   19.0512 C   0  0  0  0  0  0  0  0  0  0  0  0
    3.9629    1.8196   19.1781 H   0  0  0  0  0  0  0  0  0  0  0  0
  1  2  1  0
  2  3  2  0
  3  4  1  0
  4  5  1  0
  4  6  2  0
  6  7  1  0
  7  8  1  0
  8  9  1  0
  8 10  2  0
 10 11  1  0
 11 12  1  0
 12 13  1  0
 12 14  1  0
 12 15  1  0
 15 16  1  0
 15 17  1  0
 15 18  1  0
 18 19  1  0
 19 20  2  0
 20 21  1  0
 20 22  1  0
 22 23  1  0
 22 24  2  0
 24 25  1  0
 24 26  1  0
 26 27  1  0
 26 28  2  0
 28 29  1  0
 18 30  1  0
 30 31  1  0
 30 32  1  0
 30 33  1  0
 33 34  1  0
 33 35  1  0
 10 36  1  0
 36 37  1  0
 36 38  2  0
 38 39  1  0
 38 40  1  0
 40 41  2  0
  6 42  1  0
 42 43  1  0
 42 44  2  0
 44 45  1  0
 44  2  1  0
 40  7  1  0
 33 11  1  0
 28 19  1  0
M  END
>  <cnnaffinity>  (1) 
-5.81951

>  <filename>  (1) 
O=c1ccc(N2CCN(c3ccccc3)CC2)cn1-c1cccnc1

$$$$
