
     RDKit          3D

 40 43  0  0  0  0  0  0  0  0999 V2000
    4.9076    1.7768   16.9998 H   0  0  0  0  0  0  0  0  0  0  0  0
    5.3984    1.2958   17.8397 C   0  0  0  0  0  0  0  0  0  0  0  0
    6.5631    0.6796   17.5728 N   0  0  0  0  0  0  0  0  0  0  0  0
    7.1751    0.0600   18.5892 C   0  0  0  0  0  0  0  0  0  0  0  0
    8.1257   -0.4294   18.3815 H   0  0  0  0  0  0  0  0  0  0  0  0
    6.6443   -0.0058   19.8950 C   0  0  0  0  0  0  0  0  0  0  0  0
    7.3409   -0.6952   20.9426 N   0  0  0  0  0  0  0  0  0  0  0  0
    6.7109   -1.7546   21.5799 C   0  0  0  0  0  0  0  0  0  0  0  0
    5.7025   -1.9830   21.2392 H   0  0  0  0  0  0  0  0  0  0  0  0
    7.3109   -2.4711   22.5862 C   0  0  0  0  0  0  0  0  0  0  0  0
    6.6851   -3.5482   23.2096 N   0  0  0  0  0  0  0  0  0  0  0  0
    6.8897   -3.7694   24.6431 C   0  0  0  0  0  0  0  0  0  0  0  0
    6.9170   -2.8069   25.1772 H   0  0  0  0  0  0  0  0  0  0  0  0
    7.8735   -4.2376   24.8226 H   0  0  0  0  0  0  0  0  0  0  0  0
    5.8304   -4.6453   25.2991 C   0  0  0  0  0  0  0  0  0  0  0  0
    5.5298   -4.5254   26.6628 C   0  0  0  0  0  0  0  0  0  0  0  0
    6.0311   -3.7744   27.2733 H   0  0  0  0  0  0  0  0  0  0  0  0
    4.5903   -5.3754   27.2576 C   0  0  0  0  0  0  0  0  0  0  0  0
    4.3577   -5.2764   28.3148 H   0  0  0  0  0  0  0  0  0  0  0  0
    3.9550   -6.3597   26.4952 C   0  0  0  0  0  0  0  0  0  0  0  0
    3.2293   -7.0267   26.9513 H   0  0  0  0  0  0  0  0  0  0  0  0
    4.2621   -6.4940   25.1395 C   0  0  0  0  0  0  0  0  0  0  0  0
    3.7809   -7.2638   24.5396 H   0  0  0  0  0  0  0  0  0  0  0  0
    5.1965   -5.6455   24.5391 C   0  0  0  0  0  0  0  0  0  0  0  0
    5.5749   -5.7661   23.0845 C   0  0  0  0  0  0  0  0  0  0  0  0
    4.8107   -6.3236   22.5336 H   0  0  0  0  0  0  0  0  0  0  0  0
    6.5092   -6.3368   23.0031 H   0  0  0  0  0  0  0  0  0  0  0  0
    5.7544   -4.3852   22.4516 C   0  0  0  0  0  0  0  0  0  0  0  0
    4.7688   -3.8996   22.3763 H   0  0  0  0  0  0  0  0  0  0  0  0
    6.1380   -4.5141   21.4312 H   0  0  0  0  0  0  0  0  0  0  0  0
    8.6441   -2.0714   22.9630 C   0  0  0  0  0  0  0  0  0  0  0  0
    9.1622   -2.6203   23.7468 H   0  0  0  0  0  0  0  0  0  0  0  0
    9.2768   -1.0355   22.3454 C   0  0  0  0  0  0  0  0  0  0  0  0
   10.2724   -0.7065   22.5998 H   0  0  0  0  0  0  0  0  0  0  0  0
    8.6681   -0.2531   21.2884 C   0  0  0  0  0  0  0  0  0  0  0  0
    9.2095    0.6846   20.7200 O   0  0  0  0  0  0  0  0  0  0  0  0
    5.4356    0.6463   20.1572 C   0  0  0  0  0  0  0  0  0  0  0  0
    5.0196    0.6239   21.1652 H   0  0  0  0  0  0  0  0  0  0  0  0
    4.8019    1.3180   19.1070 C   0  0  0  0  0  0  0  0  0  0  0  0
    3.8674    1.8486   19.2655 H   0  0  0  0  0  0  0  0  0  0  0  0
  1  2  1  0
  2  3  2  0
  3  4  1  0
  4  5  1  0
  4  6  2  0
  6  7  1  0
  7  8  1  0
  8  9  1  0
  8 10  2  0
 10 11  1  0
 11 12  1  0
 12 13  1  0
 12 14  1  0
 12 15  1  0
 15 16  2  0
 16 17  1  0
 16 18  1  0
 18 19  1  0
 18 20  2  0
 20 21  1  0
 20 22  1  0
 22 23  1  0
 22 24  2  0
 24 25  1  0
 25 26  1  0
 25 27  1  0
 25 28  1  0
 28 29  1  0
 28 30  1  0
 10 31  1  0
 31 32  1  0
 31 33  2  0
 33 34  1  0
 33 35  1  0
 35 36  2  0
  6 37  1  0
 37 38  1  0
 37 39  2  0
 39 40  1  0
 39  2  1  0
 35  7  1  0
 28 11  1  0
 24 15  1  0
M  END
>  <cnnaffinity>  (1) 
-5.59739

>  <filename>  (1) 
O=c1ccc(N2CCc3ccccc3C2)cn1-c1cccnc1

$$$$
