
     RDKit          3D

 43 46  0  0  0  0  0  0  0  0999 V2000
    4.9983    1.7636   17.0017 H   0  0  0  0  0  0  0  0  0  0  0  0
    5.4473    1.2673   17.8595 C   0  0  0  0  0  0  0  0  0  0  0  0
    6.6100    0.6343   17.6423 N   0  0  0  0  0  0  0  0  0  0  0  0
    7.1879    0.0471   18.6917 C   0  0  0  0  0  0  0  0  0  0  0  0
    8.1279   -0.4677   18.4946 H   0  0  0  0  0  0  0  0  0  0  0  0
    6.6640    0.0533   19.9937 C   0  0  0  0  0  0  0  0  0  0  0  0
    7.4012   -0.6094   21.0576 C   0  0  0  0  0  0  0  0  0  0  0  0
    6.8842   -0.7816   22.2406 N   0  0  0  0  0  0  0  0  0  0  0  0
    7.7647   -1.5253   22.9610 N   0  0  0  0  0  0  0  0  0  0  0  0
    7.3791   -2.0197   24.2072 N   0  0  0  0  0  0  0  0  0  0  0  0
    6.9343   -0.9261   25.1013 C   0  0  0  0  0  0  0  0  0  0  0  0
    6.0680   -0.4020   24.6662 H   0  0  0  0  0  0  0  0  0  0  0  0
    7.7536   -0.2136   25.2136 H   0  0  0  0  0  0  0  0  0  0  0  0
    6.5767   -1.5185   26.4628 C   0  0  0  0  0  0  0  0  0  0  0  0
    7.4859   -1.9701   26.8973 H   0  0  0  0  0  0  0  0  0  0  0  0
    6.2544   -0.7205   27.1355 H   0  0  0  0  0  0  0  0  0  0  0  0
    5.5128   -2.5039   26.3009 N   0  0  0  0  0  0  0  0  0  0  0  0
    4.5910   -2.7460   27.3368 C   0  0  0  0  0  0  0  0  0  0  0  0
    4.8688   -2.4711   28.6938 C   0  0  0  0  0  0  0  0  0  0  0  0
    5.7930   -1.9661   28.9546 H   0  0  0  0  0  0  0  0  0  0  0  0
    3.9630   -2.8494   29.6951 C   0  0  0  0  0  0  0  0  0  0  0  0
    4.2313   -2.7461   30.7480 H   0  0  0  0  0  0  0  0  0  0  0  0
    2.7188   -3.3878   29.3427 C   0  0  0  0  0  0  0  0  0  0  0  0
    2.0132   -3.6897   30.1174 H   0  0  0  0  0  0  0  0  0  0  0  0
    2.3965   -3.5561   27.9895 C   0  0  0  0  0  0  0  0  0  0  0  0
    1.4145   -3.9269   27.7072 H   0  0  0  0  0  0  0  0  0  0  0  0
    3.3334   -3.2785   26.9925 C   0  0  0  0  0  0  0  0  0  0  0  0
    3.1251   -3.4572   25.9353 H   0  0  0  0  0  0  0  0  0  0  0  0
    5.9618   -3.6050   25.4357 C   0  0  0  0  0  0  0  0  0  0  0  0
    5.1929   -4.3765   25.3405 H   0  0  0  0  0  0  0  0  0  0  0  0
    6.8453   -4.1137   25.8590 H   0  0  0  0  0  0  0  0  0  0  0  0
    6.3291   -3.0578   24.0559 C   0  0  0  0  0  0  0  0  0  0  0  0
    6.7320   -3.8530   23.4224 H   0  0  0  0  0  0  0  0  0  0  0  0
    5.4444   -2.6400   23.5538 H   0  0  0  0  0  0  0  0  0  0  0  0
    8.9216   -1.9100   22.2638 C   0  0  0  0  0  0  0  0  0  0  0  0
    9.8178   -2.6315   22.6206 O   0  0  0  0  0  0  0  0  0  0  0  0
    8.7307   -1.2659   20.9099 C   0  0  0  0  0  0  0  0  0  0  0  0
    8.7317   -2.0701   20.1721 H   0  0  0  0  0  0  0  0  0  0  0  0
    9.5736   -0.6171   20.6454 H   0  0  0  0  0  0  0  0  0  0  0  0
    5.4229    0.6884   20.2008 C   0  0  0  0  0  0  0  0  0  0  0  0
    4.9550    0.6916   21.1891 H   0  0  0  0  0  0  0  0  0  0  0  0
    4.8160    1.3070   19.1098 C   0  0  0  0  0  0  0  0  0  0  0  0
    3.8685    1.8263   19.2124 H   0  0  0  0  0  0  0  0  0  0  0  0
  1  2  1  0
  2  3  2  0
  3  4  1  0
  4  5  1  0
  4  6  2  0
  6  7  1  0
  7  8  2  0
  8  9  1  0
  9 10  1  0
 10 11  1  0
 11 12  1  0
 11 13  1  0
 11 14  1  0
 14 15  1  0
 14 16  1  0
 14 17  1  0
 17 18  1  0
 18 19  2  0
 19 20  1  0
 19 21  1  0
 21 22  1  0
 21 23  2  0
 23 24  1  0
 23 25  1  0
 25 26  1  0
 25 27  2  0
 27 28  1  0
 17 29  1  0
 29 30  1  0
 29 31  1  0
 29 32  1  0
 32 33  1  0
 32 34  1  0
  9 35  1  0
 35 36  2  0
 35 37  1  0
 37 38  1  0
 37 39  1  0
  6 40  1  0
 40 41  1  0
 40 42  2  0
 42 43  1  0
 42  2  1  0
 37  7  1  0
 32 10  1  0
 27 18  1  0
M  END
>  <cnnaffinity>  (1) 
-5.24701

>  <filename>  (1) 
O=C1CC(c2cccnc2)=NN1N1CCN(c2ccccc2)CC1

$$$$
