
     RDKit          3D

 44 47  0  0  0  0  0  0  0  0999 V2000
   13.5943    1.9004   24.1505 O   0  0  0  0  0  0  0  0  0  0  0  0
   12.8682    0.9941   23.8062 C   0  0  0  0  0  0  0  0  0  0  0  0
   12.0674    0.1928   24.5776 N   0  0  0  0  0  0  0  0  0  0  0  0
   11.2056   -0.5568   23.7722 C   0  0  0  0  0  0  0  0  0  0  0  0
   11.5524   -0.3022   22.4924 C   0  0  0  0  0  0  0  0  0  0  0  0
   10.8267   -0.4564   21.2124 C   0  0  0  0  0  0  0  0  0  0  0  0
    9.9913    0.8260   20.9288 C   0  0  0  0  0  0  0  0  0  0  0  0
    8.9126    1.0564   21.9369 C   0  0  0  0  0  0  0  0  0  0  0  0
    8.9166    1.9011   22.9496 N   0  0  0  0  0  0  0  0  0  0  0  0
    7.8148    1.5341   23.6671 C   0  0  0  0  0  0  0  0  0  0  0  0
    7.4253    2.1762   24.9435 C   0  0  0  0  0  0  0  0  0  0  0  0
    6.1983    1.8632   25.5710 C   0  0  0  0  0  0  0  0  0  0  0  0
    5.8384    2.4690   26.7742 C   0  0  0  0  0  0  0  0  0  0  0  0
    6.7113    3.3861   27.3558 C   0  0  0  0  0  0  0  0  0  0  0  0
    6.3678    3.9658   28.5166 F   0  0  0  0  0  0  0  0  0  0  0  0
    7.9314    3.7139   26.7695 C   0  0  0  0  0  0  0  0  0  0  0  0
    8.2848    3.1060   25.5656 C   0  0  0  0  0  0  0  0  0  0  0  0
    9.2375    3.3539   25.1008 H   0  0  0  0  0  0  0  0  0  0  0  0
    8.5783    4.4351   27.2556 H   0  0  0  0  0  0  0  0  0  0  0  0
    4.8998    2.2410   27.2676 H   0  0  0  0  0  0  0  0  0  0  0  0
    5.5280    1.1357   25.1155 H   0  0  0  0  0  0  0  0  0  0  0  0
    7.1323    0.5377   23.1224 N   0  0  0  0  0  0  0  0  0  0  0  0
    7.8511    0.2260   22.0240 N   0  0  0  0  0  0  0  0  0  0  0  0
    7.3287   -0.7077   21.0285 C   0  0  0  0  0  0  0  0  0  0  0  0
    6.6312   -0.0150   19.8777 C   0  0  0  0  0  0  0  0  0  0  0  0
    5.4330    0.6676   20.1183 C   0  0  0  0  0  0  0  0  0  0  0  0
    4.8102    1.3251   19.0574 C   0  0  0  0  0  0  0  0  0  0  0  0
    5.4192    1.2925   17.7996 C   0  0  0  0  0  0  0  0  0  0  0  0
    6.5640    0.6399   17.5478 N   0  0  0  0  0  0  0  0  0  0  0  0
    7.1432    0.0027   18.5731 C   0  0  0  0  0  0  0  0  0  0  0  0
    8.0672   -0.5289   18.3379 H   0  0  0  0  0  0  0  0  0  0  0  0
    4.9673    1.8112   16.9566 H   0  0  0  0  0  0  0  0  0  0  0  0
    3.8784    1.8646   19.1939 H   0  0  0  0  0  0  0  0  0  0  0  0
    5.0118    0.6862   21.1259 H   0  0  0  0  0  0  0  0  0  0  0  0
    6.6300   -1.3536   21.5666 H   0  0  0  0  0  0  0  0  0  0  0  0
    8.1477   -1.3347   20.6621 H   0  0  0  0  0  0  0  0  0  0  0  0
    9.5424    0.7611   19.9368 H   0  0  0  0  0  0  0  0  0  0  0  0
   10.6405    1.7063   20.9155 H   0  0  0  0  0  0  0  0  0  0  0  0
   11.5669   -0.6176   20.4250 H   0  0  0  0  0  0  0  0  0  0  0  0
   10.1940   -1.3463   21.2585 H   0  0  0  0  0  0  0  0  0  0  0  0
   12.6349    0.5783   22.5260 N   0  0  0  0  0  0  0  0  0  0  0  0
   12.9239    1.2118   21.7999 H   0  0  0  0  0  0  0  0  0  0  0  0
   10.4433   -1.2088   24.1719 H   0  0  0  0  0  0  0  0  0  0  0  0
   12.0344    0.3777   25.5616 H   0  0  0  0  0  0  0  0  0  0  0  0
  1  2  2  0
  2  3  1  0
  3  4  1  0
  4  5  2  0
  5  6  1  0
  6  7  1  0
  7  8  1  0
  8  9  2  0
  9 10  1  0
 10 11  1  0
 11 12  2  0
 12 13  1  0
 13 14  2  0
 14 15  1  0
 14 16  1  0
 16 17  2  0
 17 18  1  0
 16 19  1  0
 13 20  1  0
 12 21  1  0
 10 22  2  0
 22 23  1  0
 23 24  1  0
 24 25  1  0
 25 26  2  0
 26 27  1  0
 27 28  2  0
 28 29  1  0
 29 30  2  0
 30 31  1  0
 28 32  1  0
 27 33  1  0
 26 34  1  0
 24 35  1  0
 24 36  1  0
  7 37  1  0
  7 38  1  0
  6 39  1  0
  6 40  1  0
  5 41  1  0
 41 42  1  0
  4 43  1  0
  3 44  1  0
 41  2  1  0
 23  8  1  0
 30 25  1  0
 17 11  1  0
M  END
>  <cnnaffinity>  (1) 
-5.91052

>  <filename>  (1) 
O=c1[nH]cc(CCc2nc(-c3ccc(F)cc3)nn2Cc2cccnc2)[nH]1

$$$$
