
     RDKit          3D

 41 45  0  0  0  0  0  0  0  0999 V2000
    8.1253    2.3116   21.1771 O   0  0  0  0  0  0  0  0  0  0  0  0
    7.4900    2.1909   22.2083 C   0  0  0  0  0  0  0  0  0  0  0  0
    7.0848    3.3378   22.8799 N   0  0  0  0  0  0  0  0  0  0  0  0
    6.3907    3.3908   24.0495 C   0  0  0  0  0  0  0  0  0  0  0  0
    6.0474    2.2081   24.6525 C   0  0  0  0  0  0  0  0  0  0  0  0
    5.2457    2.1931   25.9237 C   0  0  0  0  0  0  0  0  0  0  0  0
    3.9223    2.1164   25.6802 F   0  0  0  0  0  0  0  0  0  0  0  0
    5.4457    3.2982   26.6665 F   0  0  0  0  0  0  0  0  0  0  0  0
    5.5595    1.1340   26.6917 F   0  0  0  0  0  0  0  0  0  0  0  0
    6.4207    0.9774   24.0656 C   0  0  0  0  0  0  0  0  0  0  0  0
    7.0752    0.9662   22.8593 C   0  0  0  0  0  0  0  0  0  0  0  0
    7.4621   -0.2730   22.2545 C   0  0  0  0  0  0  0  0  0  0  0  0
    8.0254   -1.2521   22.9378 N   0  0  0  0  0  0  0  0  0  0  0  0
    8.2482   -2.1815   21.9877 C   0  0  0  0  0  0  0  0  0  0  0  0
    8.9730   -3.4599   22.1788 C   0  0  0  0  0  0  0  0  0  0  0  0
    8.2375   -4.7278   21.8580 C   0  0  0  0  0  0  0  0  0  0  0  0
    8.8651   -4.5708   23.2635 C   0  0  0  0  0  0  0  0  0  0  0  0
    8.9401   -5.7506   24.2413 C   0  0  0  0  0  0  0  0  0  0  0  0
    9.8729   -4.5904   24.4011 C   0  0  0  0  0  0  0  0  0  0  0  0
    9.6385   -3.9285   25.2352 H   0  0  0  0  0  0  0  0  0  0  0  0
   10.9411   -4.6855   24.1823 H   0  0  0  0  0  0  0  0  0  0  0  0
    8.1608   -5.8449   24.9922 H   0  0  0  0  0  0  0  0  0  0  0  0
    9.3237   -6.6981   23.8543 H   0  0  0  0  0  0  0  0  0  0  0  0
    7.1540   -4.6048   21.7997 H   0  0  0  0  0  0  0  0  0  0  0  0
    8.6082   -5.4971   21.1744 H   0  0  0  0  0  0  0  0  0  0  0  0
   10.0018   -3.2547   21.8814 H   0  0  0  0  0  0  0  0  0  0  0  0
    7.8517   -1.8598   20.7632 N   0  0  0  0  0  0  0  0  0  0  0  0
    7.3102   -0.6319   20.9433 N   0  0  0  0  0  0  0  0  0  0  0  0
    6.6254    0.0490   19.8978 C   0  0  0  0  0  0  0  0  0  0  0  0
    5.4091    0.7053   20.1346 C   0  0  0  0  0  0  0  0  0  0  0  0
    4.7897    1.3436   19.0578 C   0  0  0  0  0  0  0  0  0  0  0  0
    5.4026    1.3112   17.8024 C   0  0  0  0  0  0  0  0  0  0  0  0
    6.5597    0.6672   17.5685 N   0  0  0  0  0  0  0  0  0  0  0  0
    7.1509    0.0500   18.5954 C   0  0  0  0  0  0  0  0  0  0  0  0
    8.0861   -0.4653   18.3824 H   0  0  0  0  0  0  0  0  0  0  0  0
    4.9499    1.8152   16.9496 H   0  0  0  0  0  0  0  0  0  0  0  0
    3.8463    1.8663   19.1806 H   0  0  0  0  0  0  0  0  0  0  0  0
    4.9684    0.7101   21.1326 H   0  0  0  0  0  0  0  0  0  0  0  0
    6.2197    0.0227   24.5542 H   0  0  0  0  0  0  0  0  0  0  0  0
    6.1543    4.3747   24.4534 H   0  0  0  0  0  0  0  0  0  0  0  0
    7.4025    4.1324   22.3429 H   0  0  0  0  0  0  0  0  0  0  0  0
  1  2  2  0
  2  3  1  0
  3  4  1  0
  4  5  2  0
  5  6  1  0
  6  7  1  0
  6  8  1  0
  6  9  1  0
  5 10  1  0
 10 11  2  0
 11 12  1  0
 12 13  2  0
 13 14  1  0
 14 15  1  0
 15 16  1  0
 16 17  1  0
 17 18  1  0
 18 19  1  0
 19 20  1  0
 19 21  1  0
 18 22  1  0
 18 23  1  0
 16 24  1  0
 16 25  1  0
 15 26  1  0
 14 27  2  0
 27 28  1  0
 28 29  1  0
 29 30  2  0
 30 31  1  0
 31 32  2  0
 32 33  1  0
 33 34  2  0
 34 35  1  0
 32 36  1  0
 31 37  1  0
 30 38  1  0
 10 39  1  0
  4 40  1  0
  3 41  1  0
 11  2  1  0
 28 12  1  0
 34 29  1  0
 17 15  1  0
 19 17  1  0
M  END
>  <cnnaffinity>  (1) 
-6.06625

>  <filename>  (1) 
O=c1[nH]cc(C(F)(F)F)cc1-c1nc(C2CC23CC3)nn1-c1cccnc1

$$$$
