
     RDKit          3D

 26 28  0  0  0  0  0  0  0  0999 V2000
    4.9236    1.8469   16.9413 H   0  0  0  0  0  0  0  0  0  0  0  0
    5.3934    1.3468   17.7841 C   0  0  0  0  0  0  0  0  0  0  0  0
    6.5575    0.7298   17.5188 N   0  0  0  0  0  0  0  0  0  0  0  0
    7.1575    0.0795   18.5216 C   0  0  0  0  0  0  0  0  0  0  0  0
    8.1171   -0.3909   18.3007 H   0  0  0  0  0  0  0  0  0  0  0  0
    6.6086   -0.0171   19.8159 C   0  0  0  0  0  0  0  0  0  0  0  0
    7.2989   -0.7052   20.8780 N   0  0  0  0  0  0  0  0  0  0  0  0
    8.5475   -0.2317   21.2037 C   0  0  0  0  0  0  0  0  0  0  0  0
    8.8865    0.6038   20.5968 H   0  0  0  0  0  0  0  0  0  0  0  0
    9.2945   -0.7815   22.2035 C   0  0  0  0  0  0  0  0  0  0  0  0
   10.6163   -0.2356   22.5277 C   0  0  0  0  0  0  0  0  0  0  0  0
   11.2745   -0.4850   23.6865 N   0  0  0  0  0  0  0  0  0  0  0  0
   12.3923    0.1740   23.6383 N   0  0  0  0  0  0  0  0  0  0  0  0
   12.3900    0.7891   22.4774 N   0  0  0  0  0  0  0  0  0  0  0  0
   13.1666    1.3674   22.1796 H   0  0  0  0  0  0  0  0  0  0  0  0
   11.3152    0.5773   21.7386 N   0  0  0  0  0  0  0  0  0  0  0  0
    8.7691   -1.8912   22.9373 C   0  0  0  0  0  0  0  0  0  0  0  0
    9.3855   -2.3414   23.7191 H   0  0  0  0  0  0  0  0  0  0  0  0
    7.5297   -2.3626   22.6478 C   0  0  0  0  0  0  0  0  0  0  0  0
    7.0614   -3.1878   23.1660 H   0  0  0  0  0  0  0  0  0  0  0  0
    6.6941   -1.8053   21.5925 C   0  0  0  0  0  0  0  0  0  0  0  0
    5.5963   -2.2561   21.3095 O   0  0  0  0  0  0  0  0  0  0  0  0
    5.4165    0.6557   20.0882 C   0  0  0  0  0  0  0  0  0  0  0  0
    5.0269    0.6178   21.1040 H   0  0  0  0  0  0  0  0  0  0  0  0
    4.7894    1.3484   19.0470 C   0  0  0  0  0  0  0  0  0  0  0  0
    3.8482    1.8693   19.1955 H   0  0  0  0  0  0  0  0  0  0  0  0
  1  2  1  0
  2  3  2  0
  3  4  1  0
  4  5  1  0
  4  6  2  0
  6  7  1  0
  7  8  1  0
  8  9  1  0
  8 10  2  0
 10 11  1  0
 11 12  1  0
 12 13  2  0
 13 14  1  0
 14 15  1  0
 14 16  1  0
 10 17  1  0
 17 18  1  0
 17 19  2  0
 19 20  1  0
 19 21  1  0
 21 22  2  0
  6 23  1  0
 23 24  1  0
 23 25  2  0
 25 26  1  0
 25  2  1  0
 21  7  1  0
 16 11  2  0
M  END
>  <cnnaffinity>  (1) 
-4.99137

>  <filename>  (1) 
O=c1ccc(-c2nn[nH]n2)cn1-c1cccnc1

$$$$
