
     RDKit          3D

 27 28  0  0  0  0  0  0  0  0999 V2000
    4.9465    1.7830   16.9959 H   0  0  0  0  0  0  0  0  0  0  0  0
    5.4114    1.2864   17.8470 C   0  0  0  0  0  0  0  0  0  0  0  0
    6.5725    0.6641   17.6012 N   0  0  0  0  0  0  0  0  0  0  0  0
    7.1717    0.0452   18.6264 C   0  0  0  0  0  0  0  0  0  0  0  0
    8.1140   -0.4347   18.3659 H   0  0  0  0  0  0  0  0  0  0  0  0
    6.6489   -0.0255   19.9355 C   0  0  0  0  0  0  0  0  0  0  0  0
    7.3873   -0.7574   21.0089 C   0  0  0  0  0  0  0  0  0  0  0  0
    6.4194   -1.7162   22.1243 S   0  0  0  0  0  0  0  0  0  0  0  0
    7.6067   -2.3506   23.2310 C   0  0  0  0  0  0  0  0  0  0  0  0
    6.9602   -3.0907   24.1660 O   0  0  0  0  0  0  0  0  0  0  0  0
    7.6801   -3.7645   25.1883 C   0  0  0  0  0  0  0  0  0  0  0  0
    8.3684   -4.5123   24.7796 H   0  0  0  0  0  0  0  0  0  0  0  0
    8.2302   -3.0693   25.8318 H   0  0  0  0  0  0  0  0  0  0  0  0
    6.7299   -4.5254   26.1051 C   0  0  0  0  0  0  0  0  0  0  0  0
    7.4908   -5.1346   27.0363 F   0  0  0  0  0  0  0  0  0  0  0  0
    5.8648   -3.7297   26.7414 F   0  0  0  0  0  0  0  0  0  0  0  0
    6.0303   -5.4685   25.4659 F   0  0  0  0  0  0  0  0  0  0  0  0
    8.9323   -2.1507   23.1474 C   0  0  0  0  0  0  0  0  0  0  0  0
    9.6296   -2.5965   23.8476 H   0  0  0  0  0  0  0  0  0  0  0  0
    9.5710   -1.3357   22.1254 C   0  0  0  0  0  0  0  0  0  0  0  0
   10.7847   -1.1953   22.1091 O   0  0  0  0  0  0  0  0  0  0  0  0
    8.7282   -0.6841   21.1081 C   0  0  0  0  0  0  0  0  0  0  0  0
    9.2919   -0.0760   20.4153 H   0  0  0  0  0  0  0  0  0  0  0  0
    5.4341    0.6466   20.1687 C   0  0  0  0  0  0  0  0  0  0  0  0
    4.9993    0.6552   21.1678 H   0  0  0  0  0  0  0  0  0  0  0  0
    4.8105    1.3084   19.1087 C   0  0  0  0  0  0  0  0  0  0  0  0
    3.8788    1.8443   19.2477 H   0  0  0  0  0  0  0  0  0  0  0  0
  1  2  1  0
  2  3  2  0
  3  4  1  0
  4  5  1  0
  4  6  2  0
  6  7  1  0
  7  8  1  0
  8  9  1  0
  9 10  1  0
 10 11  1  0
 11 12  1  0
 11 13  1  0
 11 14  1  0
 14 15  1  0
 14 16  1  0
 14 17  1  0
  9 18  2  0
 18 19  1  0
 18 20  1  0
 20 21  2  0
 20 22  1  0
 22 23  1  0
  6 24  1  0
 24 25  1  0
 24 26  2  0
 26 27  1  0
 26  2  1  0
 22  7  2  0
M  END
>  <cnnaffinity>  (1) 
-5.06101

>  <filename>  (1) 
O=c1cc(OCC(F)(F)F)sc(-c2cccnc2)c1

$$$$
