
     RDKit          3D

 29 31  0  0  0  0  0  0  0  0999 V2000
   12.6322    2.0235   22.1152 H   0  0  0  0  0  0  0  0  0  0  0  0
   12.4312    0.9548   22.1005 C   0  0  0  0  0  0  0  0  0  0  0  0
   11.1422    0.6069   22.0198 N   0  0  0  0  0  0  0  0  0  0  0  0
   10.8567   -0.6972   22.0309 C   0  0  0  0  0  0  0  0  0  0  0  0
    9.4616   -1.0745   21.9588 N   0  0  0  0  0  0  0  0  0  0  0  0
    8.7028   -0.5800   20.9221 N   0  0  0  0  0  0  0  0  0  0  0  0
    7.4283   -0.8453   20.8528 C   0  0  0  0  0  0  0  0  0  0  0  0
    6.6913   -0.0368   19.8270 C   0  0  0  0  0  0  0  0  0  0  0  0
    7.2659    0.1273   18.5529 C   0  0  0  0  0  0  0  0  0  0  0  0
    8.2533   -0.2803   18.3463 H   0  0  0  0  0  0  0  0  0  0  0  0
    6.6583    0.7605   17.5428 N   0  0  0  0  0  0  0  0  0  0  0  0
    5.4676    1.3247   17.7919 C   0  0  0  0  0  0  0  0  0  0  0  0
    4.9921    1.8298   16.9514 H   0  0  0  0  0  0  0  0  0  0  0  0
    4.8487    1.2959   19.0421 C   0  0  0  0  0  0  0  0  0  0  0  0
    3.9151    1.8236   19.1884 H   0  0  0  0  0  0  0  0  0  0  0  0
    5.4723    0.6071   20.0849 C   0  0  0  0  0  0  0  0  0  0  0  0
    5.0332    0.5767   21.0812 H   0  0  0  0  0  0  0  0  0  0  0  0
    6.7582   -1.8942   21.7419 C   0  0  0  0  0  0  0  0  0  0  0  0
    5.6522   -2.3809   21.5531 O   0  0  0  0  0  0  0  0  0  0  0  0
    7.6050   -2.2728   22.8730 C   0  0  0  0  0  0  0  0  0  0  0  0
    7.1500   -2.9010   23.6248 H   0  0  0  0  0  0  0  0  0  0  0  0
    8.8972   -1.8794   22.9333 C   0  0  0  0  0  0  0  0  0  0  0  0
    9.5485   -2.1867   23.7526 H   0  0  0  0  0  0  0  0  0  0  0  0
   11.8291   -1.7073   22.1235 C   0  0  0  0  0  0  0  0  0  0  0  0
   11.4989   -2.7362   22.1477 H   0  0  0  0  0  0  0  0  0  0  0  0
   13.1726   -1.3302   22.1398 C   0  0  0  0  0  0  0  0  0  0  0  0
   13.9679   -2.0737   22.1611 H   0  0  0  0  0  0  0  0  0  0  0  0
   13.4793    0.0313   22.1524 C   0  0  0  0  0  0  0  0  0  0  0  0
   14.5060    0.3797   22.1282 H   0  0  0  0  0  0  0  0  0  0  0  0
  1  2  1  0
  2  3  2  0
  3  4  1  0
  4  5  1  0
  5  6  1  0
  6  7  2  0
  7  8  1  0
  8  9  2  0
  9 10  1  0
  9 11  1  0
 11 12  2  0
 12 13  1  0
 12 14  1  0
 14 15  1  0
 14 16  2  0
 16 17  1  0
  7 18  1  0
 18 19  2  0
 18 20  1  0
 20 21  1  0
 20 22  2  0
 22 23  1  0
  4 24  2  0
 24 25  1  0
 24 26  1  0
 26 27  1  0
 26 28  2  0
 28 29  1  0
 28  2  1  0
 22  5  1  0
 16  8  1  0
M  END
>  <cnnaffinity>  (1) 
-5.05951

>  <filename>  (1) 
O=c1ccn(-c2ccccn2)nc1-c1cccnc1

$$$$
