
     RDKit          3D

 34 36  0  0  0  0  0  0  0  0999 V2000
    4.9543    1.8016   16.9835 H   0  0  0  0  0  0  0  0  0  0  0  0
    5.4057    1.2771   17.8217 C   0  0  0  0  0  0  0  0  0  0  0  0
    6.5603    0.6373   17.5657 N   0  0  0  0  0  0  0  0  0  0  0  0
    7.1573    0.0276   18.5931 C   0  0  0  0  0  0  0  0  0  0  0  0
    8.1005   -0.4751   18.3696 H   0  0  0  0  0  0  0  0  0  0  0  0
    6.6639    0.0374   19.9123 C   0  0  0  0  0  0  0  0  0  0  0  0
    7.4461   -0.5915   20.9910 C   0  0  0  0  0  0  0  0  0  0  0  0
    7.8386    0.0044   22.1786 C   0  0  0  0  0  0  0  0  0  0  0  0
    7.5883    1.4544   22.4469 C   0  0  0  0  0  0  0  0  0  0  0  0
    8.1947    2.3974   21.5950 C   0  0  0  0  0  0  0  0  0  0  0  0
    8.7799    2.0412   20.7556 H   0  0  0  0  0  0  0  0  0  0  0  0
    8.0181    3.7634   21.8027 C   0  0  0  0  0  0  0  0  0  0  0  0
    8.4647    4.5070   21.1582 H   0  0  0  0  0  0  0  0  0  0  0  0
    7.1839    4.2171   22.8146 C   0  0  0  0  0  0  0  0  0  0  0  0
    7.0131    5.2848   22.9272 H   0  0  0  0  0  0  0  0  0  0  0  0
    6.5478    3.3012   23.6472 C   0  0  0  0  0  0  0  0  0  0  0  0
    5.8638    3.6765   24.4015 H   0  0  0  0  0  0  0  0  0  0  0  0
    6.7637    1.9182   23.4919 C   0  0  0  0  0  0  0  0  0  0  0  0
    6.1233    0.9772   24.5066 C   0  0  0  0  0  0  0  0  0  0  0  0
    4.9182    1.4335   24.9060 F   0  0  0  0  0  0  0  0  0  0  0  0
    6.8927    0.8680   25.6104 F   0  0  0  0  0  0  0  0  0  0  0  0
    5.9283   -0.2736   24.0730 F   0  0  0  0  0  0  0  0  0  0  0  0
    8.5374   -0.7921   23.1479 C   0  0  0  0  0  0  0  0  0  0  0  0
    8.8178   -0.3367   24.1004 H   0  0  0  0  0  0  0  0  0  0  0  0
    8.7911   -2.1126   22.9179 C   0  0  0  0  0  0  0  0  0  0  0  0
    9.2932   -2.7560   23.6202 H   0  0  0  0  0  0  0  0  0  0  0  0
    8.3553   -2.7618   21.6924 C   0  0  0  0  0  0  0  0  0  0  0  0
    8.4337   -3.9496   21.4239 O   0  0  0  0  0  0  0  0  0  0  0  0
    7.7993   -1.9029   20.7654 N   0  0  0  0  0  0  0  0  0  0  0  0
    7.4546   -2.4200   19.9718 H   0  0  0  0  0  0  0  0  0  0  0  0
    5.4319    0.6755   20.1501 C   0  0  0  0  0  0  0  0  0  0  0  0
    4.9951    0.6676   21.1532 H   0  0  0  0  0  0  0  0  0  0  0  0
    4.7949    1.3031   19.0802 C   0  0  0  0  0  0  0  0  0  0  0  0
    3.8611    1.8408   19.2151 H   0  0  0  0  0  0  0  0  0  0  0  0
  1  2  1  0
  2  3  2  0
  3  4  1  0
  4  5  1  0
  4  6  2  0
  6  7  1  0
  7  8  2  0
  8  9  1  0
  9 10  2  0
 10 11  1  0
 10 12  1  0
 12 13  1  0
 12 14  2  0
 14 15  1  0
 14 16  1  0
 16 17  1  0
 16 18  2  0
 18 19  1  0
 19 20  1  0
 19 21  1  0
 19 22  1  0
  8 23  1  0
 23 24  1  0
 23 25  2  0
 25 26  1  0
 25 27  1  0
 27 28  2  0
 27 29  1  0
 29 30  1  0
  6 31  1  0
 31 32  1  0
 31 33  2  0
 33 34  1  0
 33  2  1  0
 29  7  1  0
 18  9  1  0
M  END
>  <cnnaffinity>  (1) 
-5.2615

>  <filename>  (1) 
O=c1ccc(-c2ccccc2C(F)(F)F)c(-c2cccnc2)[nH]1

$$$$
