
     RDKit          3D

 30 32  0  0  0  0  0  0  0  0999 V2000
    5.0138    1.7750   16.9586 H   0  0  0  0  0  0  0  0  0  0  0  0
    5.4680    1.2858   17.8202 C   0  0  0  0  0  0  0  0  0  0  0  0
    6.6406    0.6625   17.6058 N   0  0  0  0  0  0  0  0  0  0  0  0
    7.2145    0.0368   18.6399 C   0  0  0  0  0  0  0  0  0  0  0  0
    8.1772   -0.4423   18.4809 H   0  0  0  0  0  0  0  0  0  0  0  0
    6.6420   -0.0334   19.9191 C   0  0  0  0  0  0  0  0  0  0  0  0
    7.3108   -0.7670   20.9394 N   0  0  0  0  0  0  0  0  0  0  0  0
    8.6759   -0.6540   20.9374 N   0  0  0  0  0  0  0  0  0  0  0  0
    9.3550   -1.2509   21.8835 C   0  0  0  0  0  0  0  0  0  0  0  0
   10.8302   -0.9439   21.9181 C   0  0  0  0  0  0  0  0  0  0  0  0
   11.2480    0.3942   22.0079 C   0  0  0  0  0  0  0  0  0  0  0  0
   10.5437    1.2158   21.9598 H   0  0  0  0  0  0  0  0  0  0  0  0
   12.5972    0.6738   22.1967 C   0  0  0  0  0  0  0  0  0  0  0  0
   12.9728    1.9427   22.3951 F   0  0  0  0  0  0  0  0  0  0  0  0
   13.5808   -0.3094   22.1717 C   0  0  0  0  0  0  0  0  0  0  0  0
   14.6318   -0.0651   22.2718 H   0  0  0  0  0  0  0  0  0  0  0  0
   13.1485   -1.6158   21.9901 C   0  0  0  0  0  0  0  0  0  0  0  0
   14.0750   -2.5773   21.9065 F   0  0  0  0  0  0  0  0  0  0  0  0
   11.7991   -1.9630   21.9400 C   0  0  0  0  0  0  0  0  0  0  0  0
   11.5112   -2.9992   22.0334 H   0  0  0  0  0  0  0  0  0  0  0  0
    8.7238   -2.1395   22.9266 C   0  0  0  0  0  0  0  0  0  0  0  0
    9.3374   -2.7512   23.7916 O   0  0  0  0  0  0  0  0  0  0  0  0
    7.2685   -2.1917   22.8381 C   0  0  0  0  0  0  0  0  0  0  0  0
    6.7439   -2.7659   23.5881 H   0  0  0  0  0  0  0  0  0  0  0  0
    6.6292   -1.5169   21.8696 C   0  0  0  0  0  0  0  0  0  0  0  0
    5.5471   -1.5524   21.7428 H   0  0  0  0  0  0  0  0  0  0  0  0
    5.4423    0.6515   20.1477 C   0  0  0  0  0  0  0  0  0  0  0  0
    5.0221    0.6926   21.1512 H   0  0  0  0  0  0  0  0  0  0  0  0
    4.8434    1.3142   19.0713 C   0  0  0  0  0  0  0  0  0  0  0  0
    3.9092    1.8513   19.1921 H   0  0  0  0  0  0  0  0  0  0  0  0
  1  2  1  0
  2  3  2  0
  3  4  1  0
  4  5  1  0
  4  6  2  0
  6  7  1  0
  7  8  1  0
  8  9  2  0
  9 10  1  0
 10 11  2  0
 11 12  1  0
 11 13  1  0
 13 14  1  0
 13 15  2  0
 15 16  1  0
 15 17  1  0
 17 18  1  0
 17 19  2  0
 19 20  1  0
  9 21  1  0
 21 22  2  0
 21 23  1  0
 23 24  1  0
 23 25  2  0
 25 26  1  0
  6 27  1  0
 27 28  1  0
 27 29  2  0
 29 30  1  0
 29  2  1  0
 25  7  1  0
 19 10  1  0
M  END
>  <cnnaffinity>  (1) 
-5.91975

>  <filename>  (1) 
O=c1ccn(-c2cccnc2)nc1-c1cc(F)cc(F)c1

$$$$
