
     RDKit          3D

 29 31  0  0  0  0  0  0  0  0999 V2000
    4.9313    1.8202   16.9409 H   0  0  0  0  0  0  0  0  0  0  0  0
    5.3789    1.3322   17.8021 C   0  0  0  0  0  0  0  0  0  0  0  0
    6.5437    0.7055   17.5798 N   0  0  0  0  0  0  0  0  0  0  0  0
    7.1265    0.1103   18.6226 C   0  0  0  0  0  0  0  0  0  0  0  0
    8.0558   -0.4301   18.4410 H   0  0  0  0  0  0  0  0  0  0  0  0
    6.6022    0.1446   19.9216 C   0  0  0  0  0  0  0  0  0  0  0  0
    7.3523   -0.5572   20.9765 C   0  0  0  0  0  0  0  0  0  0  0  0
    7.9995   -1.6200   20.5799 N   0  0  0  0  0  0  0  0  0  0  0  0
    8.5189   -2.4345   21.5362 C   0  0  0  0  0  0  0  0  0  0  0  0
    8.7776   -3.6077   21.3946 O   0  0  0  0  0  0  0  0  0  0  0  0
    8.7693   -1.8702   22.7924 N   0  0  0  0  0  0  0  0  0  0  0  0
    9.0675   -2.5966   23.4137 H   0  0  0  0  0  0  0  0  0  0  0  0
    8.0468   -0.8089   23.2497 C   0  0  0  0  0  0  0  0  0  0  0  0
    8.1055   -0.4918   24.6799 C   0  0  0  0  0  0  0  0  0  0  0  0
    6.9515   -0.0061   25.3224 C   0  0  0  0  0  0  0  0  0  0  0  0
    6.0133    0.0531   24.7730 H   0  0  0  0  0  0  0  0  0  0  0  0
    6.9222    0.3695   26.6086 N   0  0  0  0  0  0  0  0  0  0  0  0
    8.0574    0.2632   27.3170 C   0  0  0  0  0  0  0  0  0  0  0  0
    8.0513    0.5982   28.3491 H   0  0  0  0  0  0  0  0  0  0  0  0
    9.2363   -0.2597   26.7684 C   0  0  0  0  0  0  0  0  0  0  0  0
   10.3279   -0.4001   27.5286 F   0  0  0  0  0  0  0  0  0  0  0  0
    9.2809   -0.6448   25.4417 C   0  0  0  0  0  0  0  0  0  0  0  0
   10.2062   -1.0250   25.0114 H   0  0  0  0  0  0  0  0  0  0  0  0
    7.3192   -0.1123   22.3270 C   0  0  0  0  0  0  0  0  0  0  0  0
    6.7549    0.7622   22.6014 H   0  0  0  0  0  0  0  0  0  0  0  0
    5.3666    0.7606   20.1344 C   0  0  0  0  0  0  0  0  0  0  0  0
    4.9025    0.7273   21.1225 H   0  0  0  0  0  0  0  0  0  0  0  0
    4.7440    1.3705   19.0493 C   0  0  0  0  0  0  0  0  0  0  0  0
    3.7965    1.8816   19.1609 H   0  0  0  0  0  0  0  0  0  0  0  0
  1  2  1  0
  2  3  2  0
  3  4  1  0
  4  5  1  0
  4  6  2  0
  6  7  1  0
  7  8  2  0
  8  9  1  0
  9 10  2  0
  9 11  1  0
 11 12  1  0
 11 13  1  0
 13 14  1  0
 14 15  2  0
 15 16  1  0
 15 17  1  0
 17 18  2  0
 18 19  1  0
 18 20  1  0
 20 21  1  0
 20 22  2  0
 22 23  1  0
 13 24  2  0
 24 25  1  0
  6 26  1  0
 26 27  1  0
 26 28  2  0
 28 29  1  0
 28  2  1  0
 24  7  1  0
 22 14  1  0
M  END
>  <cnnaffinity>  (1) 
-5.22293

>  <filename>  (1) 
O=c1nc(-c2cccnc2)cc(-c2cncc(F)c2)[nH]1

$$$$
