
     RDKit          3D

 34 37  0  0  0  0  0  0  0  0999 V2000
    4.9308    1.9359   16.7586 H   0  0  0  0  0  0  0  0  0  0  0  0
    5.3476    1.4461   17.6356 C   0  0  0  0  0  0  0  0  0  0  0  0
    6.5172    0.8152   17.4584 N   0  0  0  0  0  0  0  0  0  0  0  0
    7.0480    0.1821   18.5093 C   0  0  0  0  0  0  0  0  0  0  0  0
    7.9995   -0.3181   18.3235 H   0  0  0  0  0  0  0  0  0  0  0  0
    6.4511    0.1577   19.7792 C   0  0  0  0  0  0  0  0  0  0  0  0
    7.0807   -0.6312   20.8618 C   0  0  0  0  0  0  0  0  0  0  0  0
    7.6314   -1.7623   20.5124 N   0  0  0  0  0  0  0  0  0  0  0  0
    8.1750   -2.5483   21.4880 C   0  0  0  0  0  0  0  0  0  0  0  0
    8.5308   -3.7029   21.3634 O   0  0  0  0  0  0  0  0  0  0  0  0
    8.3593   -1.9855   22.7486 N   0  0  0  0  0  0  0  0  0  0  0  0
    8.6856   -2.7087   23.3645 H   0  0  0  0  0  0  0  0  0  0  0  0
    7.7278   -0.8526   23.1651 C   0  0  0  0  0  0  0  0  0  0  0  0
    7.8653   -0.4492   24.5847 C   0  0  0  0  0  0  0  0  0  0  0  0
    6.7468   -0.2245   25.3985 C   0  0  0  0  0  0  0  0  0  0  0  0
    5.7530   -0.3149   24.9613 H   0  0  0  0  0  0  0  0  0  0  0  0
    6.8959    0.0871   26.7706 C   0  0  0  0  0  0  0  0  0  0  0  0
    6.0095    0.2440   27.3770 H   0  0  0  0  0  0  0  0  0  0  0  0
    8.1523    0.1976   27.3640 C   0  0  0  0  0  0  0  0  0  0  0  0
    8.2759    0.4300   28.4216 H   0  0  0  0  0  0  0  0  0  0  0  0
    9.2740    0.0199   26.5319 C   0  0  0  0  0  0  0  0  0  0  0  0
    9.1568   -0.2882   25.1563 C   0  0  0  0  0  0  0  0  0  0  0  0
   10.4930   -0.3221   24.6235 C   0  0  0  0  0  0  0  0  0  0  0  0
   10.7352   -0.5299   23.5894 H   0  0  0  0  0  0  0  0  0  0  0  0
   11.3484   -0.0514   25.6520 C   0  0  0  0  0  0  0  0  0  0  0  0
   12.4284    0.0251   25.6436 H   0  0  0  0  0  0  0  0  0  0  0  0
   10.6160    0.1206   26.8092 N   0  0  0  0  0  0  0  0  0  0  0  0
   10.9605    0.5151   27.6739 H   0  0  0  0  0  0  0  0  0  0  0  0
    7.0552   -0.1479   22.2046 C   0  0  0  0  0  0  0  0  0  0  0  0
    6.5613    0.7787   22.4578 H   0  0  0  0  0  0  0  0  0  0  0  0
    5.2507    0.8577   19.9600 C   0  0  0  0  0  0  0  0  0  0  0  0
    4.7722    0.9035   20.9393 H   0  0  0  0  0  0  0  0  0  0  0  0
    4.6795    1.4915   18.8611 C   0  0  0  0  0  0  0  0  0  0  0  0
    3.7445    2.0289   18.9430 H   0  0  0  0  0  0  0  0  0  0  0  0
  1  2  1  0
  2  3  2  0
  3  4  1  0
  4  5  1  0
  4  6  2  0
  6  7  1  0
  7  8  2  0
  8  9  1  0
  9 10  2  0
  9 11  1  0
 11 12  1  0
 11 13  1  0
 13 14  1  0
 14 15  2  0
 15 16  1  0
 15 17  1  0
 17 18  1  0
 17 19  2  0
 19 20  1  0
 19 21  1  0
 21 22  2  0
 22 23  1  0
 23 24  1  0
 23 25  2  0
 25 26  1  0
 25 27  1  0
 27 28  1  0
 13 29  2  0
 29 30  1  0
  6 31  1  0
 31 32  1  0
 31 33  2  0
 33 34  1  0
 33  2  1  0
 29  7  1  0
 22 14  1  0
 27 21  1  0
M  END
>  <cnnaffinity>  (1) 
-5.33583

>  <filename>  (1) 
O=c1nc(-c2cccnc2)cc(-c2cccc3[nH]ccc23)[nH]1

$$$$
