
     RDKit          3D

 46 49  0  0  0  0  0  0  0  0999 V2000
    6.0255    4.8387   27.3820 O   0  0  0  0  0  0  0  0  0  0  0  0
    5.4909    3.9430   26.7537 C   0  0  0  0  0  0  0  0  0  0  0  0
    4.0927    3.5433   26.8261 C   0  0  0  0  0  0  0  0  0  0  0  0
    3.6301    2.4897   26.0913 C   0  0  0  0  0  0  0  0  0  0  0  0
    4.5142    1.7451   25.2538 C   0  0  0  0  0  0  0  0  0  0  0  0
    5.8376    2.0945   25.1741 C   0  0  0  0  0  0  0  0  0  0  0  0
    6.8695    1.3362   24.4066 C   0  0  0  0  0  0  0  0  0  0  0  0
    6.9861    1.6987   22.8995 C   0  0  0  0  0  0  0  0  0  0  0  0
    7.9758    0.7854   22.2576 C   0  0  0  0  0  0  0  0  0  0  0  0
    9.2735    0.8735   22.4965 N   0  0  0  0  0  0  0  0  0  0  0  0
    9.7658   -0.2784   21.9899 C   0  0  0  0  0  0  0  0  0  0  0  0
   11.2075   -0.6233   21.9577 C   0  0  0  0  0  0  0  0  0  0  0  0
   12.1912    0.1179   22.6433 C   0  0  0  0  0  0  0  0  0  0  0  0
   13.5307   -0.1770   22.3965 C   0  0  0  0  0  0  0  0  0  0  0  0
   14.4914    0.5290   23.0024 F   0  0  0  0  0  0  0  0  0  0  0  0
   13.9185   -1.1671   21.5035 C   0  0  0  0  0  0  0  0  0  0  0  0
   12.9281   -1.8622   20.8370 C   0  0  0  0  0  0  0  0  0  0  0  0
   13.3097   -2.6865   19.8577 F   0  0  0  0  0  0  0  0  0  0  0  0
   11.5849   -1.6784   21.1180 C   0  0  0  0  0  0  0  0  0  0  0  0
   10.7989   -2.2850   20.6825 H   0  0  0  0  0  0  0  0  0  0  0  0
   14.9346   -1.4239   21.2751 H   0  0  0  0  0  0  0  0  0  0  0  0
   11.9466    0.9145   23.3365 H   0  0  0  0  0  0  0  0  0  0  0  0
    8.8462   -1.0630   21.4403 N   0  0  0  0  0  0  0  0  0  0  0  0
    7.7017   -0.3774   21.6208 N   0  0  0  0  0  0  0  0  0  0  0  0
    6.4657   -0.8500   21.0051 C   0  0  0  0  0  0  0  0  0  0  0  0
    6.0467   -0.0227   19.8085 C   0  0  0  0  0  0  0  0  0  0  0  0
    4.8731    0.7366   19.8072 C   0  0  0  0  0  0  0  0  0  0  0  0
    4.5727    1.5126   18.6863 C   0  0  0  0  0  0  0  0  0  0  0  0
    5.4579    1.4968   17.6055 C   0  0  0  0  0  0  0  0  0  0  0  0
    6.5854    0.7698   17.5818 N   0  0  0  0  0  0  0  0  0  0  0  0
    6.8678    0.0410   18.6684 C   0  0  0  0  0  0  0  0  0  0  0  0
    7.8092   -0.5079   18.6408 H   0  0  0  0  0  0  0  0  0  0  0  0
    5.2584    2.1027   16.7239 H   0  0  0  0  0  0  0  0  0  0  0  0
    3.6888    2.1397   18.6489 H   0  0  0  0  0  0  0  0  0  0  0  0
    4.2141    0.7357   20.6789 H   0  0  0  0  0  0  0  0  0  0  0  0
    5.6752   -0.8561   21.7602 H   0  0  0  0  0  0  0  0  0  0  0  0
    6.6528   -1.8926   20.7289 H   0  0  0  0  0  0  0  0  0  0  0  0
    6.0165    1.6568   22.3899 H   0  0  0  0  0  0  0  0  0  0  0  0
    7.3698    2.7184   22.7879 H   0  0  0  0  0  0  0  0  0  0  0  0
    6.6495    0.2638   24.4995 H   0  0  0  0  0  0  0  0  0  0  0  0
    7.8566    1.4902   24.8637 H   0  0  0  0  0  0  0  0  0  0  0  0
    6.2573    3.2067   25.8597 N   0  0  0  0  0  0  0  0  0  0  0  0
    7.2124    3.5338   25.8777 H   0  0  0  0  0  0  0  0  0  0  0  0
    4.1519    0.8938   24.6919 H   0  0  0  0  0  0  0  0  0  0  0  0
    2.5833    2.1891   26.1533 H   0  0  0  0  0  0  0  0  0  0  0  0
    3.4875    4.1218   27.5081 H   0  0  0  0  0  0  0  0  0  0  0  0
  1  2  2  0
  2  3  1  0
  3  4  2  0
  4  5  1  0
  5  6  2  0
  6  7  1  0
  7  8  1  0
  8  9  1  0
  9 10  2  0
 10 11  1  0
 11 12  1  0
 12 13  2  0
 13 14  1  0
 14 15  1  0
 14 16  2  0
 16 17  1  0
 17 18  1  0
 17 19  2  0
 19 20  1  0
 16 21  1  0
 13 22  1  0
 11 23  2  0
 23 24  1  0
 24 25  1  0
 25 26  1  0
 26 27  2  0
 27 28  1  0
 28 29  2  0
 29 30  1  0
 30 31  2  0
 31 32  1  0
 29 33  1  0
 28 34  1  0
 27 35  1  0
 25 36  1  0
 25 37  1  0
  8 38  1  0
  8 39  1  0
  7 40  1  0
  7 41  1  0
  6 42  1  0
 42 43  1  0
  5 44  1  0
  4 45  1  0
  3 46  1  0
 42  2  1  0
 24  9  1  0
 31 26  1  0
 19 12  1  0
M  END
>  <cnnaffinity>  (1) 
-6.56458

>  <filename>  (1) 
O=c1cccc(CCc2nc(-c3cc(F)cc(F)c3)nn2Cc2cccnc2)[nH]1

$$$$
