
     RDKit          3D

 30 32  0  0  0  0  0  0  0  0999 V2000
    4.9272    1.7848   16.9975 H   0  0  0  0  0  0  0  0  0  0  0  0
    5.4073    1.2925   17.8418 C   0  0  0  0  0  0  0  0  0  0  0  0
    6.5725    0.6775   17.5827 N   0  0  0  0  0  0  0  0  0  0  0  0
    7.1830    0.0595   18.6042 C   0  0  0  0  0  0  0  0  0  0  0  0
    8.1250   -0.4391   18.3793 H   0  0  0  0  0  0  0  0  0  0  0  0
    6.6674   -0.0012   19.9161 C   0  0  0  0  0  0  0  0  0  0  0  0
    7.3456   -0.6954   20.9679 N   0  0  0  0  0  0  0  0  0  0  0  0
    6.7612   -1.7756   21.6239 C   0  0  0  0  0  0  0  0  0  0  0  0
    5.8817   -2.4880   21.2288 O   0  0  0  0  0  0  0  0  0  0  0  0
    7.3750   -1.9384   22.8238 O   0  0  0  0  0  0  0  0  0  0  0  0
    8.3844   -0.9547   23.0296 C   0  0  0  0  0  0  0  0  0  0  0  0
    8.1896   -0.4303   23.9697 H   0  0  0  0  0  0  0  0  0  0  0  0
    9.3499   -1.4707   23.1201 H   0  0  0  0  0  0  0  0  0  0  0  0
    8.3293   -0.0177   21.8087 C   0  0  1  0  0  0  0  0  0  0  0  0
    7.9624    0.9816   22.0977 H   0  0  0  0  0  0  0  0  0  0  0  0
    9.6787    0.1545   21.1096 C   0  0  0  0  0  0  0  0  0  0  0  0
   10.0745   -0.8325   20.8349 H   0  0  0  0  0  0  0  0  0  0  0  0
    9.5008    0.6994   20.1742 H   0  0  0  0  0  0  0  0  0  0  0  0
   10.6761    0.9227   21.9566 C   0  0  0  0  0  0  0  0  0  0  0  0
   10.9244    0.4506   22.9086 H   0  0  0  0  0  0  0  0  0  0  0  0
   10.6285    2.4283   21.9495 C   0  0  0  0  0  0  0  0  0  0  0  0
   10.8151    3.0043   22.8517 H   0  0  0  0  0  0  0  0  0  0  0  0
    9.8805    2.8731   21.2945 H   0  0  0  0  0  0  0  0  0  0  0  0
   11.7770    1.7044   21.2972 C   0  0  0  0  0  0  0  0  0  0  0  0
   11.8235    1.7339   20.2184 H   0  0  0  0  0  0  0  0  0  0  0  0
   12.7635    1.7245   21.7548 H   0  0  0  0  0  0  0  0  0  0  0  0
    5.4486    0.6429   20.1684 C   0  0  0  0  0  0  0  0  0  0  0  0
    5.0180    0.6096   21.1715 H   0  0  0  0  0  0  0  0  0  0  0  0
    4.8175    1.3068   19.1101 C   0  0  0  0  0  0  0  0  0  0  0  0
    3.8850    1.8359   19.2556 H   0  0  0  0  0  0  0  0  0  0  0  0
  1  2  1  0
  2  3  2  0
  3  4  1  0
  4  5  1  0
  4  6  2  0
  6  7  1  0
  7  8  1  0
  8  9  2  0
  8 10  1  0
 10 11  1  0
 11 12  1  0
 11 13  1  0
 11 14  1  0
 14 15  1  1
 14 16  1  0
 16 17  1  0
 16 18  1  0
 16 19  1  0
 19 20  1  0
 19 21  1  0
 21 22  1  0
 21 23  1  0
 21 24  1  0
 24 25  1  0
 24 26  1  0
  6 27  1  0
 27 28  1  0
 27 29  2  0
 29 30  1  0
 29  2  1  0
 14  7  1  0
 24 19  1  0
M  END
>  <cnnaffinity>  (1) 
-4.57878

>  <filename>  (1) 
O=C1OC[C@@H](CC2CC2)N1c1cccnc1

$$$$
