
     RDKit          3D

 42 45  0  0  0  0  0  0  0  0999 V2000
    1.8497   -4.3788   27.6575 H   0  0  0  0  0  0  0  0  0  0  0  0
    2.7417   -3.8564   28.0065 C   0  0  0  0  0  0  0  0  0  0  0  0
    3.6631   -3.6290   27.0680 N   0  0  0  0  0  0  0  0  0  0  0  0
    4.7446   -2.9221   27.4227 C   0  0  0  0  0  0  0  0  0  0  0  0
    5.6351   -2.6262   26.4032 N   0  0  0  0  0  0  0  0  0  0  0  0
    5.9957   -3.6531   25.4180 C   0  0  0  0  0  0  0  0  0  0  0  0
    5.1533   -4.3351   25.2843 H   0  0  0  0  0  0  0  0  0  0  0  0
    6.8698   -4.2357   25.7575 H   0  0  0  0  0  0  0  0  0  0  0  0
    6.3365   -3.0293   24.0662 C   0  0  0  0  0  0  0  0  0  0  0  0
    5.4484   -2.5748   23.6052 H   0  0  0  0  0  0  0  0  0  0  0  0
    6.7205   -3.7964   23.3903 H   0  0  0  0  0  0  0  0  0  0  0  0
    7.4016   -2.0166   24.2208 N   0  0  0  0  0  0  0  0  0  0  0  0
    7.7703   -1.5220   22.9587 N   0  0  0  0  0  0  0  0  0  0  0  0
    6.8805   -0.7875   22.2293 N   0  0  0  0  0  0  0  0  0  0  0  0
    7.3821   -0.6447   21.0321 C   0  0  0  0  0  0  0  0  0  0  0  0
    6.6587    0.0197   19.9553 C   0  0  0  0  0  0  0  0  0  0  0  0
    7.1721    0.0475   18.6435 C   0  0  0  0  0  0  0  0  0  0  0  0
    8.1187   -0.4301   18.3932 H   0  0  0  0  0  0  0  0  0  0  0  0
    6.5748    0.6516   17.6110 N   0  0  0  0  0  0  0  0  0  0  0  0
    5.4140    1.2782   17.8507 C   0  0  0  0  0  0  0  0  0  0  0  0
    4.9558    1.7791   16.9979 H   0  0  0  0  0  0  0  0  0  0  0  0
    4.8049    1.3033   19.1107 C   0  0  0  0  0  0  0  0  0  0  0  0
    3.8735    1.8402   19.2409 H   0  0  0  0  0  0  0  0  0  0  0  0
    5.4247    0.6583   20.1807 C   0  0  0  0  0  0  0  0  0  0  0  0
    4.9883    0.6442   21.1813 H   0  0  0  0  0  0  0  0  0  0  0  0
    8.6852   -1.3388   20.8682 C   0  0  0  0  0  0  0  0  0  0  0  0
    9.5375   -0.7406   20.5255 H   0  0  0  0  0  0  0  0  0  0  0  0
    8.6239   -2.1858   20.1920 H   0  0  0  0  0  0  0  0  0  0  0  0
    8.8936   -1.9482   22.2305 C   0  0  0  0  0  0  0  0  0  0  0  0
    9.7773   -2.7003   22.5591 O   0  0  0  0  0  0  0  0  0  0  0  0
    6.9405   -0.9393   25.1242 C   0  0  0  0  0  0  0  0  0  0  0  0
    6.0653   -0.4230   24.6970 H   0  0  0  0  0  0  0  0  0  0  0  0
    7.7509   -0.2158   25.2317 H   0  0  0  0  0  0  0  0  0  0  0  0
    6.6071   -1.5348   26.5034 C   0  0  0  0  0  0  0  0  0  0  0  0
    6.1933   -0.7325   27.1233 H   0  0  0  0  0  0  0  0  0  0  0  0
    7.5466   -1.8806   26.9664 H   0  0  0  0  0  0  0  0  0  0  0  0
    4.9582   -2.4915   28.7528 C   0  0  0  0  0  0  0  0  0  0  0  0
    5.8457   -1.9200   28.9600 H   0  0  0  0  0  0  0  0  0  0  0  0
    4.0231   -2.8003   29.7381 C   0  0  0  0  0  0  0  0  0  0  0  0
    4.1881   -2.5059   30.7806 H   0  0  0  0  0  0  0  0  0  0  0  0
    2.8656   -3.4852   29.3465 C   0  0  0  0  0  0  0  0  0  0  0  0
    2.0745   -3.7414   30.0429 H   0  0  0  0  0  0  0  0  0  0  0  0
  1  2  1  0
  2  3  2  0
  3  4  1  0
  4  5  1  0
  5  6  1  0
  6  7  1  0
  6  8  1  0
  6  9  1  0
  9 10  1  0
  9 11  1  0
  9 12  1  0
 12 13  1  0
 13 14  1  0
 14 15  2  0
 15 16  1  0
 16 17  2  0
 17 18  1  0
 17 19  1  0
 19 20  2  0
 20 21  1  0
 20 22  1  0
 22 23  1  0
 22 24  2  0
 24 25  1  0
 15 26  1  0
 26 27  1  0
 26 28  1  0
 26 29  1  0
 29 30  2  0
 12 31  1  0
 31 32  1  0
 31 33  1  0
 31 34  1  0
 34 35  1  0
 34 36  1  0
  4 37  2  0
 37 38  1  0
 37 39  1  0
 39 40  1  0
 39 41  2  0
 41 42  1  0
 41  2  1  0
 34  5  1  0
 29 13  1  0
 24 16  1  0
M  END
>  <cnnaffinity>  (1) 
-5.39631

>  <filename>  (1) 
O=C1CC(c2cccnc2)=NN1N1CCN(c2ccccn2)CC1

$$$$
