
     RDKit          3D

 36 38  0  0  0  0  0  0  0  0999 V2000
    5.1307    1.7802   16.3471 H   0  0  0  0  0  0  0  0  0  0  0  0
    5.5899    1.4266   17.2657 C   0  0  0  0  0  0  0  0  0  0  0  0
    6.7334    0.7459   17.1259 N   0  0  0  0  0  0  0  0  0  0  0  0
    7.3205    0.2874   18.2348 C   0  0  0  0  0  0  0  0  0  0  0  0
    8.2390   -0.2704   18.0610 H   0  0  0  0  0  0  0  0  0  0  0  0
    6.8059    0.4568   19.5331 C   0  0  0  0  0  0  0  0  0  0  0  0
    7.5206   -0.1094   20.7105 C   0  0  0  0  0  0  0  0  0  0  0  0
    6.4789   -0.5612   22.0498 S   0  0  0  0  0  0  0  0  0  0  0  0
    7.5903   -1.0197   23.3134 C   0  0  0  0  0  0  0  0  0  0  0  0
    6.9357   -1.7865   24.4547 C   0  0  0  0  0  0  0  0  0  0  0  0
    5.9705   -1.3315   24.7002 H   0  0  0  0  0  0  0  0  0  0  0  0
    7.5475   -1.7162   25.3621 H   0  0  0  0  0  0  0  0  0  0  0  0
    6.7367   -3.2382   24.0323 C   0  0  0  0  0  0  0  0  0  0  0  0
    5.4876   -3.6389   23.5414 C   0  0  0  0  0  0  0  0  0  0  0  0
    4.6521   -2.9502   23.5922 H   0  0  0  0  0  0  0  0  0  0  0  0
    5.2937   -4.9008   22.9950 C   0  0  0  0  0  0  0  0  0  0  0  0
    4.3201   -5.1784   22.6056 H   0  0  0  0  0  0  0  0  0  0  0  0
    6.3590   -5.8073   22.9358 C   0  0  0  0  0  0  0  0  0  0  0  0
    6.1092   -7.1708   22.3502 C   0  0  0  0  0  0  0  0  0  0  0  0
    7.2387   -7.8377   22.0609 F   0  0  0  0  0  0  0  0  0  0  0  0
    5.3970   -7.0673   21.2101 F   0  0  0  0  0  0  0  0  0  0  0  0
    5.3987   -7.9467   23.1915 F   0  0  0  0  0  0  0  0  0  0  0  0
    7.6038   -5.4417   23.4595 C   0  0  0  0  0  0  0  0  0  0  0  0
    8.4271   -6.1506   23.4474 H   0  0  0  0  0  0  0  0  0  0  0  0
    7.7900   -4.1681   23.9983 C   0  0  0  0  0  0  0  0  0  0  0  0
    8.7739   -3.8994   24.3782 H   0  0  0  0  0  0  0  0  0  0  0  0
    8.9201   -0.8428   23.2099 C   0  0  0  0  0  0  0  0  0  0  0  0
    9.5796   -0.9999   24.0543 H   0  0  0  0  0  0  0  0  0  0  0  0
    9.6391   -0.5025   21.9770 C   0  0  0  0  0  0  0  0  0  0  0  0
   10.8610   -0.4293   21.9679 O   0  0  0  0  0  0  0  0  0  0  0  0
    8.8623   -0.2431   20.7618 C   0  0  0  0  0  0  0  0  0  0  0  0
    9.4824   -0.0444   19.8991 H   0  0  0  0  0  0  0  0  0  0  0  0
    5.6075    1.1899   19.6596 C   0  0  0  0  0  0  0  0  0  0  0  0
    5.1761    1.3638   20.6489 H   0  0  0  0  0  0  0  0  0  0  0  0
    4.9940    1.6737   18.5060 C   0  0  0  0  0  0  0  0  0  0  0  0
    4.0597    2.2212   18.5545 H   0  0  0  0  0  0  0  0  0  0  0  0
  1  2  1  0
  2  3  2  0
  3  4  1  0
  4  5  1  0
  4  6  2  0
  6  7  1  0
  7  8  1  0
  8  9  1  0
  9 10  1  0
 10 11  1  0
 10 12  1  0
 10 13  1  0
 13 14  2  0
 14 15  1  0
 14 16  1  0
 16 17  1  0
 16 18  2  0
 18 19  1  0
 19 20  1  0
 19 21  1  0
 19 22  1  0
 18 23  1  0
 23 24  1  0
 23 25  2  0
 25 26  1  0
  9 27  2  0
 27 28  1  0
 27 29  1  0
 29 30  2  0
 29 31  1  0
 31 32  1  0
  6 33  1  0
 33 34  1  0
 33 35  2  0
 35 36  1  0
 35  2  1  0
 31  7  2  0
 25 13  1  0
M  END
>  <cnnaffinity>  (1) 
-5.75652

>  <filename>  (1) 
O=c1cc(Cc2ccc(C(F)(F)F)cc2)sc(-c2cccnc2)c1

$$$$
