
     RDKit          3D

 34 36  0  0  0  0  0  0  0  0999 V2000
    4.9785    1.7984   16.9994 H   0  0  0  0  0  0  0  0  0  0  0  0
    5.4188    1.2855   17.8503 C   0  0  0  0  0  0  0  0  0  0  0  0
    6.5757    0.6400   17.6265 N   0  0  0  0  0  0  0  0  0  0  0  0
    7.1377    0.0154   18.6649 C   0  0  0  0  0  0  0  0  0  0  0  0
    8.0807   -0.4876   18.4420 H   0  0  0  0  0  0  0  0  0  0  0  0
    6.5902   -0.0273   19.9591 C   0  0  0  0  0  0  0  0  0  0  0  0
    7.3195   -0.7490   21.0457 C   0  0  0  0  0  0  0  0  0  0  0  0
    6.6238   -1.3548   21.9846 N   0  0  0  0  0  0  0  0  0  0  0  0
    7.2896   -2.0078   22.9862 N   0  0  0  0  0  0  0  0  0  0  0  0
    6.3494   -2.7022   23.7820 N   0  0  0  0  0  0  0  0  0  0  0  0
    5.4745   -2.2466   23.5062 H   0  0  0  0  0  0  0  0  0  0  0  0
    6.6110   -2.6378   25.2347 C   0  0  0  0  0  0  0  0  0  0  0  0
    7.2877   -3.4660   25.4795 H   0  0  0  0  0  0  0  0  0  0  0  0
    7.1513   -1.7190   25.5045 H   0  0  0  0  0  0  0  0  0  0  0  0
    5.3576   -2.7312   26.0860 C   0  0  0  0  0  0  0  0  0  0  0  0
    4.8283   -3.9674   26.4819 C   0  0  0  0  0  0  0  0  0  0  0  0
    5.3185   -4.8988   26.2157 H   0  0  0  0  0  0  0  0  0  0  0  0
    3.6501   -4.0036   27.2308 C   0  0  0  0  0  0  0  0  0  0  0  0
    3.2249   -4.9628   27.5229 H   0  0  0  0  0  0  0  0  0  0  0  0
    2.9851   -2.9086   27.6254 N   0  0  0  0  0  0  0  0  0  0  0  0
    3.5090   -1.7249   27.2803 C   0  0  0  0  0  0  0  0  0  0  0  0
    2.9707   -0.8395   27.6179 H   0  0  0  0  0  0  0  0  0  0  0  0
    4.6800   -1.5844   26.5302 C   0  0  0  0  0  0  0  0  0  0  0  0
    5.0490   -0.5893   26.3032 H   0  0  0  0  0  0  0  0  0  0  0  0
    8.7001   -2.1488   23.1223 C   0  0  0  0  0  0  0  0  0  0  0  0
    9.2577   -2.7628   24.0234 O   0  0  0  0  0  0  0  0  0  0  0  0
    9.4159   -1.4535   22.0570 C   0  0  0  0  0  0  0  0  0  0  0  0
   10.4930   -1.5328   22.1352 H   0  0  0  0  0  0  0  0  0  0  0  0
    8.7598   -0.7845   21.0621 C   0  0  0  0  0  0  0  0  0  0  0  0
    9.3210   -0.2553   20.2987 H   0  0  0  0  0  0  0  0  0  0  0  0
    5.3694    0.6420   20.1683 C   0  0  0  0  0  0  0  0  0  0  0  0
    4.9058    0.6440   21.1540 H   0  0  0  0  0  0  0  0  0  0  0  0
    4.7861    1.3134   19.0951 C   0  0  0  0  0  0  0  0  0  0  0  0
    3.8616    1.8700   19.2142 H   0  0  0  0  0  0  0  0  0  0  0  0
  1  2  1  0
  2  3  2  0
  3  4  1  0
  4  5  1  0
  4  6  2  0
  6  7  1  0
  7  8  2  0
  8  9  1  0
  9 10  1  0
 10 11  1  0
 10 12  1  0
 12 13  1  0
 12 14  1  0
 12 15  1  0
 15 16  2  0
 16 17  1  0
 16 18  1  0
 18 19  1  0
 18 20  2  0
 20 21  1  0
 21 22  1  0
 21 23  2  0
 23 24  1  0
  9 25  1  0
 25 26  2  0
 25 27  1  0
 27 28  1  0
 27 29  2  0
 29 30  1  0
  6 31  1  0
 31 32  1  0
 31 33  2  0
 33 34  1  0
 33  2  1  0
 29  7  1  0
 23 15  1  0
M  END
>  <cnnaffinity>  (1) 
-5.02945

>  <filename>  (1) 
O=c1ccc(-c2cccnc2)nn1NCc1ccncc1

$$$$
