
     RDKit          3D

 34 36  0  0  0  0  0  0  0  0999 V2000
    4.9695    1.9983   16.8612 H   0  0  0  0  0  0  0  0  0  0  0  0
    5.4167    1.4327   17.6759 C   0  0  0  0  0  0  0  0  0  0  0  0
    6.5728    0.8062   17.3987 N   0  0  0  0  0  0  0  0  0  0  0  0
    7.1571    0.1215   18.3891 C   0  0  0  0  0  0  0  0  0  0  0  0
    8.0929   -0.3781   18.1409 H   0  0  0  0  0  0  0  0  0  0  0  0
    6.6141    0.0027   19.6855 C   0  0  0  0  0  0  0  0  0  0  0  0
    7.2937   -0.7236   20.7307 N   0  0  0  0  0  0  0  0  0  0  0  0
    8.5724   -0.3236   21.0802 C   0  0  0  0  0  0  0  0  0  0  0  0
    8.9538    0.5432   20.5448 H   0  0  0  0  0  0  0  0  0  0  0  0
    9.2740   -0.9661   22.0485 C   0  0  0  0  0  0  0  0  0  0  0  0
   10.2853   -0.6547   22.2797 H   0  0  0  0  0  0  0  0  0  0  0  0
    8.6927   -2.0729   22.7433 C   0  0  0  0  0  0  0  0  0  0  0  0
    9.4252   -2.6769   23.9204 C   0  0  0  0  0  0  0  0  0  0  0  0
    9.1107   -3.7145   24.0818 H   0  0  0  0  0  0  0  0  0  0  0  0
   10.4973   -2.6975   23.6909 H   0  0  0  0  0  0  0  0  0  0  0  0
    9.2134   -1.8744   25.1919 C   0  0  0  0  0  0  0  0  0  0  0  0
   10.1047   -0.8462   25.5273 C   0  0  0  0  0  0  0  0  0  0  0  0
   10.8849   -0.5671   24.8247 H   0  0  0  0  0  0  0  0  0  0  0  0
   10.0740   -0.2280   26.7720 C   0  0  0  0  0  0  0  0  0  0  0  0
   10.8448    0.4992   27.0027 H   0  0  0  0  0  0  0  0  0  0  0  0
    9.0913   -0.5724   27.6984 C   0  0  0  0  0  0  0  0  0  0  0  0
    9.1172   -0.1322   28.6926 H   0  0  0  0  0  0  0  0  0  0  0  0
    8.1103   -1.5032   27.3468 C   0  0  0  0  0  0  0  0  0  0  0  0
    7.2817   -1.7550   27.9943 H   0  0  0  0  0  0  0  0  0  0  0  0
    8.1745   -2.1312   26.0989 C   0  0  0  0  0  0  0  0  0  0  0  0
    6.9173   -3.2819   25.7266 Cl  0  0  0  0  0  0  0  0  0  0  0  0
    7.4596   -2.5065   22.3775 C   0  0  0  0  0  0  0  0  0  0  0  0
    6.9904   -3.3764   22.8095 H   0  0  0  0  0  0  0  0  0  0  0  0
    6.6585   -1.8580   21.3609 C   0  0  0  0  0  0  0  0  0  0  0  0
    5.5562   -2.2589   21.0292 O   0  0  0  0  0  0  0  0  0  0  0  0
    5.3978    0.6367   19.9527 C   0  0  0  0  0  0  0  0  0  0  0  0
    4.9538    0.5412   20.9421 H   0  0  0  0  0  0  0  0  0  0  0  0
    4.7974    1.3771   18.9291 C   0  0  0  0  0  0  0  0  0  0  0  0
    3.8704    1.9145   19.0963 H   0  0  0  0  0  0  0  0  0  0  0  0
  1  2  1  0
  2  3  2  0
  3  4  1  0
  4  5  1  0
  4  6  2  0
  6  7  1  0
  7  8  1  0
  8  9  1  0
  8 10  2  0
 10 11  1  0
 10 12  1  0
 12 13  1  0
 13 14  1  0
 13 15  1  0
 13 16  1  0
 16 17  2  0
 17 18  1  0
 17 19  1  0
 19 20  1  0
 19 21  2  0
 21 22  1  0
 21 23  1  0
 23 24  1  0
 23 25  2  0
 25 26  1  0
 12 27  2  0
 27 28  1  0
 27 29  1  0
 29 30  2  0
  6 31  1  0
 31 32  1  0
 31 33  2  0
 33 34  1  0
 33  2  1  0
 29  7  1  0
 25 16  1  0
M  END
>  <cnnaffinity>  (1) 
-5.42221

>  <filename>  (1) 
O=c1cc(Cc2ccccc2Cl)ccn1-c1cccnc1

$$$$
