
     RDKit          3D

 33 35  0  0  0  0  0  0  0  0999 V2000
    4.9469    1.8011   16.9710 H   0  0  0  0  0  0  0  0  0  0  0  0
    5.3969    1.2786   17.8132 C   0  0  0  0  0  0  0  0  0  0  0  0
    6.5564    0.6467   17.5683 N   0  0  0  0  0  0  0  0  0  0  0  0
    7.1454    0.0211   18.5923 C   0  0  0  0  0  0  0  0  0  0  0  0
    8.1158   -0.4298   18.3759 H   0  0  0  0  0  0  0  0  0  0  0  0
    6.6171   -0.0057   19.8959 C   0  0  0  0  0  0  0  0  0  0  0  0
    7.3553   -0.6452   20.9941 C   0  0  0  0  0  0  0  0  0  0  0  0
    7.8086   -0.0466   22.1536 C   0  0  0  0  0  0  0  0  0  0  0  0
    7.6647    1.4104   22.3753 C   0  0  0  0  0  0  0  0  0  0  0  0
    6.5496    1.7530   23.0271 N   0  0  0  0  0  0  0  0  0  0  0  0
    6.3120    3.0532   23.2160 C   0  0  0  0  0  0  0  0  0  0  0  0
    5.3838    3.2856   23.7294 H   0  0  0  0  0  0  0  0  0  0  0  0
    7.1802    4.0620   22.8057 C   0  0  0  0  0  0  0  0  0  0  0  0
    6.9274    5.0938   23.0020 H   0  0  0  0  0  0  0  0  0  0  0  0
    8.3725    3.7149   22.1823 C   0  0  0  0  0  0  0  0  0  0  0  0
    9.0662    4.5018   21.8977 H   0  0  0  0  0  0  0  0  0  0  0  0
    8.6232    2.3562   21.9753 C   0  0  0  0  0  0  0  0  0  0  0  0
    9.8743    1.7678   21.3876 C   0  0  0  0  0  0  0  0  0  0  0  0
   10.7400    2.6545   20.8930 F   0  0  0  0  0  0  0  0  0  0  0  0
   10.5472    1.0536   22.3127 F   0  0  0  0  0  0  0  0  0  0  0  0
    9.5799    0.8995   20.3961 F   0  0  0  0  0  0  0  0  0  0  0  0
    8.4598   -0.8287   23.1506 C   0  0  0  0  0  0  0  0  0  0  0  0
    8.8110   -0.3345   24.0593 H   0  0  0  0  0  0  0  0  0  0  0  0
    8.6921   -2.1579   22.9510 C   0  0  0  0  0  0  0  0  0  0  0  0
    9.2042   -2.7917   23.6616 H   0  0  0  0  0  0  0  0  0  0  0  0
    8.2643   -2.8012   21.7214 C   0  0  0  0  0  0  0  0  0  0  0  0
    8.3717   -3.9774   21.4227 O   0  0  0  0  0  0  0  0  0  0  0  0
    7.6704   -1.9607   20.8012 N   0  0  0  0  0  0  0  0  0  0  0  0
    7.3575   -2.4934   20.0074 H   0  0  0  0  0  0  0  0  0  0  0  0
    5.3957    0.6391   20.1285 C   0  0  0  0  0  0  0  0  0  0  0  0
    4.9867    0.6551   21.1399 H   0  0  0  0  0  0  0  0  0  0  0  0
    4.7792    1.2970   19.0679 C   0  0  0  0  0  0  0  0  0  0  0  0
    3.8593    1.8503   19.2136 H   0  0  0  0  0  0  0  0  0  0  0  0
  1  2  1  0
  2  3  2  0
  3  4  1  0
  4  5  1  0
  4  6  2  0
  6  7  1  0
  7  8  2  0
  8  9  1  0
  9 10  2  0
 10 11  1  0
 11 12  1  0
 11 13  2  0
 13 14  1  0
 13 15  1  0
 15 16  1  0
 15 17  2  0
 17 18  1  0
 18 19  1  0
 18 20  1  0
 18 21  1  0
  8 22  1  0
 22 23  1  0
 22 24  2  0
 24 25  1  0
 24 26  1  0
 26 27  2  0
 26 28  1  0
 28 29  1  0
  6 30  1  0
 30 31  1  0
 30 32  2  0
 32 33  1  0
 32  2  1  0
 28  7  1  0
 17  9  1  0
M  END
>  <cnnaffinity>  (1) 
-5.77092

>  <filename>  (1) 
O=c1ccc(-c2ncccc2C(F)(F)F)c(-c2cccnc2)[nH]1

$$$$
