
     RDKit          3D

 30 32  0  0  0  0  0  0  0  0999 V2000
    5.0225    1.8357   16.8233 H   0  0  0  0  0  0  0  0  0  0  0  0
    5.4405    1.3382   17.6928 C   0  0  0  0  0  0  0  0  0  0  0  0
    6.6131    0.7107   17.4999 N   0  0  0  0  0  0  0  0  0  0  0  0
    7.1422    0.0932   18.5589 C   0  0  0  0  0  0  0  0  0  0  0  0
    8.1083   -0.3718   18.3860 H   0  0  0  0  0  0  0  0  0  0  0  0
    6.5580    0.0478   19.8427 C   0  0  0  0  0  0  0  0  0  0  0  0
    7.2296   -0.6328   20.9429 C   0  0  0  0  0  0  0  0  0  0  0  0
    7.0822   -0.5579   22.2919 C   0  0  0  0  0  0  0  0  0  0  0  0
    6.3482   -0.0578   22.9105 H   0  0  0  0  0  0  0  0  0  0  0  0
    8.0990   -1.3344   22.8295 N   0  0  0  0  0  0  0  0  0  0  0  0
    8.4153   -1.3447   24.1680 O   0  0  0  0  0  0  0  0  0  0  0  0
    8.3635   -2.5856   24.8117 C   0  0  0  0  0  0  0  0  0  0  0  0
    9.0164   -2.6460   26.0480 C   0  0  0  0  0  0  0  0  0  0  0  0
    9.4368   -1.7306   26.4609 H   0  0  0  0  0  0  0  0  0  0  0  0
    9.1051   -3.8678   26.7290 C   0  0  0  0  0  0  0  0  0  0  0  0
    9.6411   -3.9885   27.6658 H   0  0  0  0  0  0  0  0  0  0  0  0
    8.4914   -4.9954   26.1828 C   0  0  0  0  0  0  0  0  0  0  0  0
    8.5991   -6.1684   26.8308 F   0  0  0  0  0  0  0  0  0  0  0  0
    7.7659   -4.9289   25.0001 C   0  0  0  0  0  0  0  0  0  0  0  0
    7.2783   -5.8296   24.6422 H   0  0  0  0  0  0  0  0  0  0  0  0
    7.6962   -3.7107   24.3105 C   0  0  0  0  0  0  0  0  0  0  0  0
    7.1250   -3.6203   23.3967 H   0  0  0  0  0  0  0  0  0  0  0  0
    8.9032   -1.9130   21.8473 C   0  0  0  0  0  0  0  0  0  0  0  0
    9.8234   -2.6940   21.9296 O   0  0  0  0  0  0  0  0  0  0  0  0
    8.3366   -1.4386   20.6883 N   0  0  0  0  0  0  0  0  0  0  0  0
    8.5120   -1.9626   19.8499 H   0  0  0  0  0  0  0  0  0  0  0  0
    5.3326    0.7103   20.0167 C   0  0  0  0  0  0  0  0  0  0  0  0
    4.8434    0.7119   20.9923 H   0  0  0  0  0  0  0  0  0  0  0  0
    4.7678    1.3659   18.9212 C   0  0  0  0  0  0  0  0  0  0  0  0
    3.8282    1.9019   19.0086 H   0  0  0  0  0  0  0  0  0  0  0  0
  1  2  1  0
  2  3  2  0
  3  4  1  0
  4  5  1  0
  4  6  2  0
  6  7  1  0
  7  8  2  0
  8  9  1  0
  8 10  1  0
 10 11  1  0
 11 12  1  0
 12 13  2  0
 13 14  1  0
 13 15  1  0
 15 16  1  0
 15 17  2  0
 17 18  1  0
 17 19  1  0
 19 20  1  0
 19 21  2  0
 21 22  1  0
 10 23  1  0
 23 24  2  0
 23 25  1  0
 25 26  1  0
  6 27  1  0
 27 28  1  0
 27 29  2  0
 29 30  1  0
 29  2  1  0
 25  7  1  0
 21 12  1  0
M  END
>  <cnnaffinity>  (1) 
-5.10491

>  <filename>  (1) 
O=c1[nH]c(-c2cccnc2)cn1Oc1ccc(F)cc1

$$$$
