
     RDKit          3D

 33 35  0  0  0  0  0  0  0  0999 V2000
    4.9128    1.7967   16.9837 H   0  0  0  0  0  0  0  0  0  0  0  0
    5.3878    1.3009   17.8264 C   0  0  0  0  0  0  0  0  0  0  0  0
    6.5462    0.6801   17.5565 N   0  0  0  0  0  0  0  0  0  0  0  0
    7.1540    0.0648   18.5758 C   0  0  0  0  0  0  0  0  0  0  0  0
    8.1108   -0.4112   18.3667 H   0  0  0  0  0  0  0  0  0  0  0  0
    6.6406    0.0008   19.8878 C   0  0  0  0  0  0  0  0  0  0  0  0
    7.3452   -0.7184   20.9660 C   0  0  0  0  0  0  0  0  0  0  0  0
    6.6911   -1.6472   21.7397 C   0  0  0  0  0  0  0  0  0  0  0  0
    5.6343   -1.8251   21.5344 H   0  0  0  0  0  0  0  0  0  0  0  0
    7.3418   -2.3695   22.7808 C   0  0  0  0  0  0  0  0  0  0  0  0
    6.6211   -3.3941   23.5917 C   0  0  0  0  0  0  0  0  0  0  0  0
    7.0760   -3.5878   24.8378 N   0  0  0  0  0  0  0  0  0  0  0  0
    6.4535   -4.4718   25.6284 C   0  0  0  0  0  0  0  0  0  0  0  0
    6.9702   -4.6674   27.0770 C   0  0  0  0  0  0  0  0  0  0  0  0
    7.3541   -5.9467   27.2707 F   0  0  0  0  0  0  0  0  0  0  0  0
    5.9846   -4.4313   27.9690 F   0  0  0  0  0  0  0  0  0  0  0  0
    8.0024   -3.8857   27.4048 F   0  0  0  0  0  0  0  0  0  0  0  0
    5.3685   -5.2474   25.1851 C   0  0  0  0  0  0  0  0  0  0  0  0
    4.9078   -5.9683   25.8494 H   0  0  0  0  0  0  0  0  0  0  0  0
    4.9102   -5.0789   23.8747 C   0  0  0  0  0  0  0  0  0  0  0  0
    4.0737   -5.6688   23.4938 H   0  0  0  0  0  0  0  0  0  0  0  0
    5.5444   -4.1354   23.0670 C   0  0  0  0  0  0  0  0  0  0  0  0
    5.2468   -3.9739   22.0387 H   0  0  0  0  0  0  0  0  0  0  0  0
    8.6614   -2.0985   23.0391 C   0  0  0  0  0  0  0  0  0  0  0  0
    9.2349   -2.5872   23.8276 H   0  0  0  0  0  0  0  0  0  0  0  0
    9.3056   -1.1763   22.2770 N   0  0  0  0  0  0  0  0  0  0  0  0
   10.2622   -0.8854   22.3838 H   0  0  0  0  0  0  0  0  0  0  0  0
    8.7602   -0.4233   21.2385 C   0  0  0  0  0  0  0  0  0  0  0  0
    9.5158    0.3762   20.6981 O   0  0  0  0  0  0  0  0  0  0  0  0
    5.4220    0.6448   20.1414 C   0  0  0  0  0  0  0  0  0  0  0  0
    5.0121    0.6340   21.1536 H   0  0  0  0  0  0  0  0  0  0  0  0
    4.7945    1.3194   19.0959 C   0  0  0  0  0  0  0  0  0  0  0  0
    3.8659    1.8541   19.2466 H   0  0  0  0  0  0  0  0  0  0  0  0
  1  2  1  0
  2  3  2  0
  3  4  1  0
  4  5  1  0
  4  6  2  0
  6  7  1  0
  7  8  2  0
  8  9  1  0
  8 10  1  0
 10 11  1  0
 11 12  2  0
 12 13  1  0
 13 14  1  0
 14 15  1  0
 14 16  1  0
 14 17  1  0
 13 18  2  0
 18 19  1  0
 18 20  1  0
 20 21  1  0
 20 22  2  0
 22 23  1  0
 10 24  2  0
 24 25  1  0
 24 26  1  0
 26 27  1  0
 26 28  1  0
 28 29  2  0
  6 30  1  0
 30 31  1  0
 30 32  2  0
 32 33  1  0
 32  2  1  0
 28  7  1  0
 22 11  1  0
M  END
>  <cnnaffinity>  (1) 
-5.66376

>  <filename>  (1) 
O=c1[nH]cc(-c2cccc(C(F)(F)F)n2)cc1-c1cccnc1

$$$$
