
     RDKit          3D

 36 38  0  0  0  0  0  0  0  0999 V2000
    4.9283    1.7918   16.9913 H   0  0  0  0  0  0  0  0  0  0  0  0
    5.3978    1.2939   17.8374 C   0  0  0  0  0  0  0  0  0  0  0  0
    6.5595    0.6763   17.5798 N   0  0  0  0  0  0  0  0  0  0  0  0
    7.1660    0.0586   18.6025 C   0  0  0  0  0  0  0  0  0  0  0  0
    8.1145   -0.4286   18.3701 H   0  0  0  0  0  0  0  0  0  0  0  0
    6.6493   -0.0000   19.9039 C   0  0  0  0  0  0  0  0  0  0  0  0
    7.4084   -0.6642   20.9640 C   0  0  0  0  0  0  0  0  0  0  0  0
    8.6248   -0.2409   21.4517 C   0  0  0  0  0  0  0  0  0  0  0  0
    9.2521    1.0543   20.9677 C   0  0  0  0  0  0  0  0  0  0  0  0
   10.1720    1.2247   21.5452 H   0  0  0  0  0  0  0  0  0  0  0  0
    9.5619    0.9211   19.9264 H   0  0  0  0  0  0  0  0  0  0  0  0
    8.4082    2.2356   21.0309 N   0  0  0  0  0  0  0  0  0  0  0  0
    7.9963    2.5878   20.1806 H   0  0  0  0  0  0  0  0  0  0  0  0
    7.7890    2.6948   22.1782 C   0  0  0  0  0  0  0  0  0  0  0  0
    6.6655    3.5392   22.0709 C   0  0  0  0  0  0  0  0  0  0  0  0
    6.2883    3.7991   21.0841 H   0  0  0  0  0  0  0  0  0  0  0  0
    6.0429    4.0341   23.2182 C   0  0  0  0  0  0  0  0  0  0  0  0
    5.1810    4.6878   23.1185 H   0  0  0  0  0  0  0  0  0  0  0  0
    6.5261    3.7020   24.4878 C   0  0  0  0  0  0  0  0  0  0  0  0
    6.0455    4.0877   25.3806 H   0  0  0  0  0  0  0  0  0  0  0  0
    7.6400    2.8662   24.5988 C   0  0  0  0  0  0  0  0  0  0  0  0
    8.0301    2.5962   25.5753 H   0  0  0  0  0  0  0  0  0  0  0  0
    8.2687    2.3648   23.4587 C   0  0  0  0  0  0  0  0  0  0  0  0
    9.1292    1.7094   23.5374 H   0  0  0  0  0  0  0  0  0  0  0  0
    9.2444   -0.9972   22.4987 C   0  0  0  0  0  0  0  0  0  0  0  0
   10.2072   -0.6481   22.8861 H   0  0  0  0  0  0  0  0  0  0  0  0
    8.6457   -2.1032   23.0236 C   0  0  0  0  0  0  0  0  0  0  0  0
    9.0667   -2.6987   23.8204 H   0  0  0  0  0  0  0  0  0  0  0  0
    7.3521   -2.5507   22.5301 C   0  0  0  0  0  0  0  0  0  0  0  0
    6.7175   -3.5257   22.8985 O   0  0  0  0  0  0  0  0  0  0  0  0
    6.8217   -1.7669   21.5253 N   0  0  0  0  0  0  0  0  0  0  0  0
    5.9312   -2.1138   21.2195 H   0  0  0  0  0  0  0  0  0  0  0  0
    5.4232    0.6375   20.1527 C   0  0  0  0  0  0  0  0  0  0  0  0
    5.0058    0.6234   21.1630 H   0  0  0  0  0  0  0  0  0  0  0  0
    4.7964    1.3056   19.1018 C   0  0  0  0  0  0  0  0  0  0  0  0
    3.8672    1.8439   19.2415 H   0  0  0  0  0  0  0  0  0  0  0  0
  1  2  1  0
  2  3  2  0
  3  4  1  0
  4  5  1  0
  4  6  2  0
  6  7  1  0
  7  8  2  0
  8  9  1  0
  9 10  1  0
  9 11  1  0
  9 12  1  0
 12 13  1  0
 12 14  1  0
 14 15  2  0
 15 16  1  0
 15 17  1  0
 17 18  1  0
 17 19  2  0
 19 20  1  0
 19 21  1  0
 21 22  1  0
 21 23  2  0
 23 24  1  0
  8 25  1  0
 25 26  1  0
 25 27  2  0
 27 28  1  0
 27 29  1  0
 29 30  2  0
 29 31  1  0
 31 32  1  0
  6 33  1  0
 33 34  1  0
 33 35  2  0
 35 36  1  0
 35  2  1  0
 31  7  1  0
 23 14  1  0
M  END
>  <cnnaffinity>  (1) 
-5.15883

>  <filename>  (1) 
O=c1ccc(CNc2ccccc2)c(-c2cccnc2)[nH]1

$$$$
