
     RDKit          3D

 31 33  0  0  0  0  0  0  0  0999 V2000
    5.0158    1.8835   16.9139 H   0  0  0  0  0  0  0  0  0  0  0  0
    5.4906    1.3511   17.7340 C   0  0  0  0  0  0  0  0  0  0  0  0
    6.6697    0.7679   17.4580 N   0  0  0  0  0  0  0  0  0  0  0  0
    7.2765    0.0963   18.4403 C   0  0  0  0  0  0  0  0  0  0  0  0
    8.2379   -0.3600   18.2098 H   0  0  0  0  0  0  0  0  0  0  0  0
    6.7238   -0.0605   19.7275 C   0  0  0  0  0  0  0  0  0  0  0  0
    7.3774   -0.8426   20.7066 N   0  0  0  0  0  0  0  0  0  0  0  0
    6.8319   -1.7931   21.5896 C   0  0  0  0  0  0  0  0  0  0  0  0
    5.7130   -2.2670   21.4981 O   0  0  0  0  0  0  0  0  0  0  0  0
    7.9328   -2.0630   22.5386 C   0  0  0  0  0  0  0  0  0  0  0  0
    7.8179   -2.8610   23.7666 C   0  0  0  0  0  0  0  0  0  0  0  0
    6.6398   -2.8697   24.5410 C   0  0  0  0  0  0  0  0  0  0  0  0
    5.7936   -2.2629   24.2290 H   0  0  0  0  0  0  0  0  0  0  0  0
    6.5627   -3.6594   25.6934 C   0  0  0  0  0  0  0  0  0  0  0  0
    5.6560   -3.6615   26.2926 H   0  0  0  0  0  0  0  0  0  0  0  0
    7.6419   -4.4621   26.0757 C   0  0  0  0  0  0  0  0  0  0  0  0
    7.5795   -5.1079   26.9451 H   0  0  0  0  0  0  0  0  0  0  0  0
    8.8133   -4.4334   25.3071 C   0  0  0  0  0  0  0  0  0  0  0  0
    9.9798   -5.2726   25.6623 N   0  0  0  0  0  4  0  0  0  0  0  0
   10.9824   -5.1843   24.9735 O   0  0  0  0  0  0  0  0  0  0  0  0
    9.8666   -6.0079   26.6237 O   0  0  0  0  0  1  0  0  0  0  0  0
    8.9134   -3.6295   24.1747 C   0  0  0  0  0  0  0  0  0  0  0  0
    9.8343   -3.6170   23.5988 H   0  0  0  0  0  0  0  0  0  0  0  0
    9.0215   -1.4081   22.0696 C   0  0  0  0  0  0  0  0  0  0  0  0
   10.0105   -1.3679   22.5065 H   0  0  0  0  0  0  0  0  0  0  0  0
    8.7622   -0.7433   20.8758 N   0  0  0  0  0  0  0  0  0  0  0  0
    9.0842    0.2262   20.8057 H   0  0  0  0  0  0  0  0  0  0  0  0
    5.5098    0.5830   20.0170 C   0  0  0  0  0  0  0  0  0  0  0  0
    5.0960    0.5371   21.0233 H   0  0  0  0  0  0  0  0  0  0  0  0
    4.8838    1.2967   18.9928 C   0  0  0  0  0  0  0  0  0  0  0  0
    3.9491    1.8195   19.1609 H   0  0  0  0  0  0  0  0  0  0  0  0
  1  2  1  0
  2  3  2  0
  3  4  1  0
  4  5  1  0
  4  6  2  0
  6  7  1  0
  7  8  1  0
  8  9  2  0
  8 10  1  0
 10 11  1  0
 11 12  2  0
 12 13  1  0
 12 14  1  0
 14 15  1  0
 14 16  2  0
 16 17  1  0
 16 18  1  0
 18 19  1  0
 19 20  2  0
 19 21  1  0
 18 22  2  0
 22 23  1  0
 10 24  2  0
 24 25  1  0
 24 26  1  0
 26 27  1  0
  6 28  1  0
 28 29  1  0
 28 30  2  0
 30 31  1  0
 30  2  1  0
 26  7  1  0
 22 11  1  0
M  CHG  2  19   1  21  -1
M  END
>  <cnnaffinity>  (1) 
-5.22766

>  <filename>  (1) 
O=c1c(-c2cccc([N+](=O)[O-])c2)c[nH]n1-c1cccnc1

$$$$
