
     RDKit          3D

 36 39  0  0  0  0  0  0  0  0999 V2000
    9.8861   -1.7935   22.8866 O   0  0  0  0  0  0  0  0  0  0  0  0
    8.8533   -1.5317   22.3339 C   0  0  0  0  0  0  0  0  0  0  0  0
    7.6428   -2.0957   22.5928 O   0  0  0  0  0  0  0  0  0  0  0  0
    6.6750   -1.5733   21.7261 N   0  0  0  0  0  0  0  0  0  0  0  0
    7.2996   -0.7235   20.9826 C   0  0  0  0  0  0  0  0  0  0  0  0
    6.6366    0.0306   19.9143 C   0  0  0  0  0  0  0  0  0  0  0  0
    5.4151    0.6728   20.1477 C   0  0  0  0  0  0  0  0  0  0  0  0
    4.7953    1.3332   19.0872 C   0  0  0  0  0  0  0  0  0  0  0  0
    5.3969    1.3035   17.8225 C   0  0  0  0  0  0  0  0  0  0  0  0
    6.5509    0.6657   17.5776 N   0  0  0  0  0  0  0  0  0  0  0  0
    7.1528    0.0577   18.6086 C   0  0  0  0  0  0  0  0  0  0  0  0
    8.0945   -0.4383   18.3760 H   0  0  0  0  0  0  0  0  0  0  0  0
    4.9406    1.8041   16.9674 H   0  0  0  0  0  0  0  0  0  0  0  0
    3.8597    1.8627   19.2182 H   0  0  0  0  0  0  0  0  0  0  0  0
    4.9723    0.6385   21.1444 H   0  0  0  0  0  0  0  0  0  0  0  0
    8.6280   -0.6297   21.3062 N   0  0  0  0  0  0  0  0  0  0  0  0
    9.6775    0.2234   20.7590 C   0  0  0  0  0  0  0  0  0  0  0  0
   10.4182    1.0303   21.8000 C   0  0  0  0  0  0  0  0  0  0  0  0
   11.7297    0.7062   22.0935 C   0  0  0  0  0  0  0  0  0  0  0  0
   12.4448    1.3725   23.1218 C   0  0  0  0  0  0  0  0  0  0  0  0
   11.8229    2.3725   23.8280 C   0  0  0  0  0  0  0  0  0  0  0  0
   10.4877    2.7754   23.5413 C   0  0  0  0  0  0  0  0  0  0  0  0
    9.8630    3.8335   24.2724 C   0  0  0  0  0  0  0  0  0  0  0  0
    8.5740    4.2126   24.0057 C   0  0  0  0  0  0  0  0  0  0  0  0
    7.8429    3.5617   22.9759 C   0  0  0  0  0  0  0  0  0  0  0  0
    8.4176    2.5442   22.2439 C   0  0  0  0  0  0  0  0  0  0  0  0
    9.7617    2.1046   22.5043 C   0  0  0  0  0  0  0  0  0  0  0  0
    7.8469    2.0553   21.4558 H   0  0  0  0  0  0  0  0  0  0  0  0
    6.8257    3.8824   22.7636 H   0  0  0  0  0  0  0  0  0  0  0  0
    8.1123    5.0165   24.5754 H   0  0  0  0  0  0  0  0  0  0  0  0
   10.4387    4.3515   25.0350 H   0  0  0  0  0  0  0  0  0  0  0  0
   12.3038    2.8933   24.6364 H   0  0  0  0  0  0  0  0  0  0  0  0
   13.4637    1.0660   23.3552 H   0  0  0  0  0  0  0  0  0  0  0  0
   12.2046   -0.1243   21.5692 H   0  0  0  0  0  0  0  0  0  0  0  0
    9.2143    0.9004   20.0393 H   0  0  0  0  0  0  0  0  0  0  0  0
   10.3776   -0.4386   20.2371 H   0  0  0  0  0  0  0  0  0  0  0  0
  1  2  2  0
  2  3  1  0
  3  4  1  0
  4  5  2  0
  5  6  1  0
  6  7  2  0
  7  8  1  0
  8  9  2  0
  9 10  1  0
 10 11  2  0
 11 12  1  0
  9 13  1  0
  8 14  1  0
  7 15  1  0
  5 16  1  0
 16 17  1  0
 17 18  1  0
 18 19  2  0
 19 20  1  0
 20 21  2  0
 21 22  1  0
 22 23  2  0
 23 24  1  0
 24 25  2  0
 25 26  1  0
 26 27  2  0
 26 28  1  0
 25 29  1  0
 24 30  1  0
 23 31  1  0
 21 32  1  0
 20 33  1  0
 19 34  1  0
 17 35  1  0
 17 36  1  0
 16  2  1  0
 27 18  1  0
 11  6  1  0
 27 22  1  0
M  END
>  <cnnaffinity>  (1) 
-5.46031

>  <filename>  (1) 
O=c1onc(-c2cccnc2)n1Cc1cccc2ccccc12

$$$$
