
     RDKit          3D

 49 52  0  0  0  0  0  0  0  0999 V2000
    8.3386    7.5816   23.4781 O   0  0  0  0  0  0  0  0  0  0  0  0
    8.2809    6.4282   23.0788 C   0  0  0  0  0  0  0  0  0  0  0  0
    7.2958    5.8111   22.2056 C   0  0  0  0  0  0  0  0  0  0  0  0
    7.3889    4.4884   21.8734 C   0  0  0  0  0  0  0  0  0  0  0  0
    8.4755    3.6522   22.3221 C   0  0  0  0  0  0  0  0  0  0  0  0
    8.5649    2.1999   21.9018 C   0  0  0  0  0  0  0  0  0  0  0  0
    7.6054    1.2883   22.7014 C   0  0  0  0  0  0  0  0  0  0  0  0
    7.6641   -0.1278   22.2419 C   0  0  0  0  0  0  0  0  0  0  0  0
    8.2566   -1.1223   22.8828 N   0  0  0  0  0  0  0  0  0  0  0  0
    8.2300   -2.1373   21.9791 C   0  0  0  0  0  0  0  0  0  0  0  0
    8.8116   -3.4961   22.1895 C   0  0  0  0  0  0  0  0  0  0  0  0
    7.9612   -4.4782   23.0182 C   0  0  0  0  0  0  0  0  0  0  0  0
    7.4914   -3.9878   24.3956 C   0  0  0  0  0  0  0  0  0  0  0  0
    6.2523   -4.8492   24.7336 C   0  0  0  0  0  0  0  0  0  0  0  0
    5.7202   -5.4047   23.3830 C   0  0  0  0  0  0  0  0  0  0  0  0
    6.6548   -4.8390   22.2972 C   0  0  0  0  0  0  0  0  0  0  0  0
    6.8283   -5.5322   21.4631 H   0  0  0  0  0  0  0  0  0  0  0  0
    6.2302   -3.9268   21.8583 H   0  0  0  0  0  0  0  0  0  0  0  0
    5.7391   -6.5008   23.3834 H   0  0  0  0  0  0  0  0  0  0  0  0
    4.6801   -5.1174   23.1957 H   0  0  0  0  0  0  0  0  0  0  0  0
    5.4962   -4.2589   25.2610 H   0  0  0  0  0  0  0  0  0  0  0  0
    6.5193   -5.6698   25.4098 H   0  0  0  0  0  0  0  0  0  0  0  0
    7.2223   -2.9269   24.3339 H   0  0  0  0  0  0  0  0  0  0  0  0
    8.2810   -4.0532   25.1550 H   0  0  0  0  0  0  0  0  0  0  0  0
    8.5592   -5.3947   23.1579 H   0  0  0  0  0  0  0  0  0  0  0  0
    9.8138   -3.3778   22.6122 H   0  0  0  0  0  0  0  0  0  0  0  0
    8.8915   -3.9005   21.1798 H   0  0  0  0  0  0  0  0  0  0  0  0
    7.6792   -1.8272   20.8242 N   0  0  0  0  0  0  0  0  0  0  0  0
    7.2761   -0.5459   21.0022 N   0  0  0  0  0  0  0  0  0  0  0  0
    6.5942    0.1017   19.9405 C   0  0  0  0  0  0  0  0  0  0  0  0
    5.3898    0.7876   20.1300 C   0  0  0  0  0  0  0  0  0  0  0  0
    4.8084    1.4025   19.0146 C   0  0  0  0  0  0  0  0  0  0  0  0
    5.4532    1.3180   17.7763 C   0  0  0  0  0  0  0  0  0  0  0  0
    6.5932    0.6279   17.5868 N   0  0  0  0  0  0  0  0  0  0  0  0
    7.1314    0.0139   18.6432 C   0  0  0  0  0  0  0  0  0  0  0  0
    8.0300   -0.5761   18.4662 H   0  0  0  0  0  0  0  0  0  0  0  0
    5.0345    1.8000   16.8954 H   0  0  0  0  0  0  0  0  0  0  0  0
    3.8689    1.9401   19.0959 H   0  0  0  0  0  0  0  0  0  0  0  0
    4.9112    0.8084   21.1110 H   0  0  0  0  0  0  0  0  0  0  0  0
    6.5816    1.6675   22.6061 H   0  0  0  0  0  0  0  0  0  0  0  0
    7.8664    1.2865   23.7634 H   0  0  0  0  0  0  0  0  0  0  0  0
    9.5873    1.8082   22.0123 H   0  0  0  0  0  0  0  0  0  0  0  0
    8.3242    2.0972   20.8349 H   0  0  0  0  0  0  0  0  0  0  0  0
    9.3893    4.2244   23.1643 C   0  0  0  0  0  0  0  0  0  0  0  0
    9.2682    5.5481   23.5190 N   0  0  0  0  0  0  0  0  0  0  0  0
    9.9212    6.0656   24.0890 H   0  0  0  0  0  0  0  0  0  0  0  0
   10.2221    3.6798   23.6096 H   0  0  0  0  0  0  0  0  0  0  0  0
    6.6324    4.0603   21.2138 H   0  0  0  0  0  0  0  0  0  0  0  0
    6.5110    6.4616   21.8484 H   0  0  0  0  0  0  0  0  0  0  0  0
  1  2  2  0
  2  3  1  0
  3  4  2  0
  4  5  1  0
  5  6  1  0
  6  7  1  0
  7  8  1  0
  8  9  2  0
  9 10  1  0
 10 11  1  0
 11 12  1  0
 12 13  1  0
 13 14  1  0
 14 15  1  0
 15 16  1  0
 16 17  1  0
 16 18  1  0
 15 19  1  0
 15 20  1  0
 14 21  1  0
 14 22  1  0
 13 23  1  0
 13 24  1  0
 12 25  1  0
 11 26  1  0
 11 27  1  0
 10 28  2  0
 28 29  1  0
 29 30  1  0
 30 31  2  0
 31 32  1  0
 32 33  2  0
 33 34  1  0
 34 35  2  0
 35 36  1  0
 33 37  1  0
 32 38  1  0
 31 39  1  0
  7 40  1  0
  7 41  1  0
  6 42  1  0
  6 43  1  0
  5 44  2  0
 44 45  1  0
 45 46  1  0
 44 47  1  0
  4 48  1  0
  3 49  1  0
 45  2  1  0
 29  8  1  0
 35 30  1  0
 16 12  1  0
M  END
>  <cnnaffinity>  (1) 
-6.17117

>  <filename>  (1) 
O=c1ccc(CCc2nc(CC3CCCC3)nn2-c2cccnc2)c[nH]1

$$$$
