
     RDKit          3D

 27 29  0  0  0  0  0  0  0  0999 V2000
    4.9168    1.7775   16.9996 H   0  0  0  0  0  0  0  0  0  0  0  0
    5.4030    1.2933   17.8418 C   0  0  0  0  0  0  0  0  0  0  0  0
    6.5654    0.6738   17.5798 N   0  0  0  0  0  0  0  0  0  0  0  0
    7.1588    0.0504   18.5998 C   0  0  0  0  0  0  0  0  0  0  0  0
    8.1190   -0.4192   18.3898 H   0  0  0  0  0  0  0  0  0  0  0  0
    6.6154   -0.0208   19.8999 C   0  0  0  0  0  0  0  0  0  0  0  0
    7.3070   -0.7437   20.9953 C   0  0  0  0  0  0  0  0  0  0  0  0
    6.5604   -1.4940   21.7679 N   0  0  0  0  0  0  0  0  0  0  0  0
    7.1519   -2.1876   22.7992 N   0  0  0  0  0  0  0  0  0  0  0  0
    6.2906   -2.9829   23.6120 C   0  0  0  0  0  0  0  0  0  0  0  0
    6.5671   -3.4169   24.8824 C   0  0  0  0  0  0  0  0  0  0  0  0
    7.4471   -3.2095   25.4680 H   0  0  0  0  0  0  0  0  0  0  0  0
    5.2861   -4.3360   25.5506 S   0  0  0  0  0  0  0  0  0  0  0  0
    4.3548   -4.1606   24.1123 C   0  0  0  0  0  0  0  0  0  0  0  0
    3.3674   -4.5990   24.0372 H   0  0  0  0  0  0  0  0  0  0  0  0
    5.0043   -3.4319   23.1691 C   0  0  0  0  0  0  0  0  0  0  0  0
    4.6093   -3.1648   22.1957 H   0  0  0  0  0  0  0  0  0  0  0  0
    8.5181   -2.1133   23.0193 C   0  0  0  0  0  0  0  0  0  0  0  0
    8.9159   -2.7205   23.8347 H   0  0  0  0  0  0  0  0  0  0  0  0
    9.3352   -1.3533   22.2700 C   0  0  0  0  0  0  0  0  0  0  0  0
   10.4010   -1.2717   22.4368 H   0  0  0  0  0  0  0  0  0  0  0  0
    8.7976   -0.5539   21.1770 C   0  0  0  0  0  0  0  0  0  0  0  0
    9.4959    0.1795   20.4831 O   0  0  0  0  0  0  0  0  0  0  0  0
    5.4173    0.6487   20.1584 C   0  0  0  0  0  0  0  0  0  0  0  0
    5.0043    0.6211   21.1694 H   0  0  0  0  0  0  0  0  0  0  0  0
    4.8012    1.3210   19.1055 C   0  0  0  0  0  0  0  0  0  0  0  0
    3.8679    1.8512   19.2586 H   0  0  0  0  0  0  0  0  0  0  0  0
  1  2  1  0
  2  3  2  0
  3  4  1  0
  4  5  1  0
  4  6  2  0
  6  7  1  0
  7  8  2  0
  8  9  1  0
  9 10  1  0
 10 11  2  0
 11 12  1  0
 11 13  1  0
 13 14  1  0
 14 15  1  0
 14 16  2  0
 16 17  1  0
  9 18  1  0
 18 19  1  0
 18 20  2  0
 20 21  1  0
 20 22  1  0
 22 23  2  0
  6 24  1  0
 24 25  1  0
 24 26  2  0
 26 27  1  0
 26  2  1  0
 22  7  1  0
 16 10  1  0
M  END
>  <cnnaffinity>  (1) 
-4.96215

>  <filename>  (1) 
O=c1ccn(-c2ccsc2)nc1-c1cccnc1

$$$$
