
     RDKit          3D

 35 37  0  0  0  0  0  0  0  0999 V2000
    4.9356    1.7950   16.9881 H   0  0  0  0  0  0  0  0  0  0  0  0
    5.3996    1.2866   17.8319 C   0  0  0  0  0  0  0  0  0  0  0  0
    6.5624    0.6622   17.5794 N   0  0  0  0  0  0  0  0  0  0  0  0
    7.1570    0.0290   18.5953 C   0  0  0  0  0  0  0  0  0  0  0  0
    8.1180   -0.4367   18.3620 H   0  0  0  0  0  0  0  0  0  0  0  0
    6.6388   -0.0108   19.8996 C   0  0  0  0  0  0  0  0  0  0  0  0
    7.3769   -0.6604   20.9830 C   0  0  0  0  0  0  0  0  0  0  0  0
    7.7130   -0.0638   22.1852 C   0  0  0  0  0  0  0  0  0  0  0  0
    7.4758    1.3829   22.4422 C   0  0  0  0  0  0  0  0  0  0  0  0
    7.9911    2.3602   21.5747 C   0  0  0  0  0  0  0  0  0  0  0  0
    8.5315    2.0407   20.6897 H   0  0  0  0  0  0  0  0  0  0  0  0
    7.7965    3.7181   21.8541 C   0  0  0  0  0  0  0  0  0  0  0  0
    8.2294    4.5025   21.2372 H   0  0  0  0  0  0  0  0  0  0  0  0
    7.0341    4.1035   22.9556 C   0  0  0  0  0  0  0  0  0  0  0  0
    6.8237    5.1480   23.1643 H   0  0  0  0  0  0  0  0  0  0  0  0
    6.5262    3.1245   23.8097 C   0  0  0  0  0  0  0  0  0  0  0  0
    5.8211    3.6261   24.8946 O   0  0  0  0  0  0  0  0  0  0  0  0
    5.2825    2.8276   25.8331 C   0  0  0  0  0  0  0  0  0  0  0  0
    4.6937    3.6255   26.7153 F   0  0  0  0  0  0  0  0  0  0  0  0
    4.3652    1.9824   25.3327 F   0  0  0  0  0  0  0  0  0  0  0  0
    6.1966    2.0762   26.4706 F   0  0  0  0  0  0  0  0  0  0  0  0
    6.7489    1.7702   23.5768 C   0  0  0  0  0  0  0  0  0  0  0  0
    6.3722    1.0232   24.2638 H   0  0  0  0  0  0  0  0  0  0  0  0
    8.3407   -0.8666   23.1969 C   0  0  0  0  0  0  0  0  0  0  0  0
    8.5829   -0.3692   24.1374 H   0  0  0  0  0  0  0  0  0  0  0  0
    8.6347   -2.1778   22.9833 C   0  0  0  0  0  0  0  0  0  0  0  0
    9.1104   -2.8208   23.7121 H   0  0  0  0  0  0  0  0  0  0  0  0
    8.2934   -2.8108   21.7131 C   0  0  0  0  0  0  0  0  0  0  0  0
    8.4437   -3.9797   21.4121 O   0  0  0  0  0  0  0  0  0  0  0  0
    7.7378   -1.9647   20.7735 N   0  0  0  0  0  0  0  0  0  0  0  0
    7.4720   -2.4804   19.9500 H   0  0  0  0  0  0  0  0  0  0  0  0
    5.4250    0.6467   20.1489 C   0  0  0  0  0  0  0  0  0  0  0  0
    5.0127    0.6526   21.1600 H   0  0  0  0  0  0  0  0  0  0  0  0
    4.7967    1.3020   19.0936 C   0  0  0  0  0  0  0  0  0  0  0  0
    3.8712    1.8445   19.2355 H   0  0  0  0  0  0  0  0  0  0  0  0
  1  2  1  0
  2  3  2  0
  3  4  1  0
  4  5  1  0
  4  6  2  0
  6  7  1  0
  7  8  2  0
  8  9  1  0
  9 10  2  0
 10 11  1  0
 10 12  1  0
 12 13  1  0
 12 14  2  0
 14 15  1  0
 14 16  1  0
 16 17  1  0
 17 18  1  0
 18 19  1  0
 18 20  1  0
 18 21  1  0
 16 22  2  0
 22 23  1  0
  8 24  1  0
 24 25  1  0
 24 26  2  0
 26 27  1  0
 26 28  1  0
 28 29  2  0
 28 30  1  0
 30 31  1  0
  6 32  1  0
 32 33  1  0
 32 34  2  0
 34 35  1  0
 34  2  1  0
 30  7  1  0
 22  9  1  0
M  END
>  <cnnaffinity>  (1) 
-5.49195

>  <filename>  (1) 
O=c1ccc(-c2cccc(OC(F)(F)F)c2)c(-c2cccnc2)[nH]1

$$$$
