
     RDKit          3D

 35 38  0  0  0  0  0  0  0  0999 V2000
    4.9354    1.7963   16.9863 H   0  0  0  0  0  0  0  0  0  0  0  0
    5.3977    1.2862   17.8309 C   0  0  0  0  0  0  0  0  0  0  0  0
    6.5609    0.6627   17.5778 N   0  0  0  0  0  0  0  0  0  0  0  0
    7.1547    0.0254   18.5919 C   0  0  0  0  0  0  0  0  0  0  0  0
    8.1182   -0.4347   18.3579 H   0  0  0  0  0  0  0  0  0  0  0  0
    6.6362   -0.0216   19.8957 C   0  0  0  0  0  0  0  0  0  0  0  0
    7.3800   -0.6689   20.9786 C   0  0  0  0  0  0  0  0  0  0  0  0
    7.7243   -0.0651   22.1742 C   0  0  0  0  0  0  0  0  0  0  0  0
    7.4967    1.3894   22.4185 C   0  0  0  0  0  0  0  0  0  0  0  0
    8.0191    2.3722   21.5231 C   0  0  0  0  0  0  0  0  0  0  0  0
    8.5463    2.0132   20.6375 H   0  0  0  0  0  0  0  0  0  0  0  0
    7.8463    3.7269   21.7833 C   0  0  0  0  0  0  0  0  0  0  0  0
    8.2869    4.5108   21.1730 H   0  0  0  0  0  0  0  0  0  0  0  0
    7.0679    4.0888   22.8909 C   0  0  0  0  0  0  0  0  0  0  0  0
    6.5337    3.1395   23.7958 C   0  0  0  0  0  0  0  0  0  0  0  0
    6.7715    1.7783   23.5442 C   0  0  0  0  0  0  0  0  0  0  0  0
    6.3984    1.0169   24.2246 H   0  0  0  0  0  0  0  0  0  0  0  0
    5.8555    3.8888   24.8198 C   0  0  0  0  0  0  0  0  0  0  0  0
    5.3594    3.4687   25.6818 H   0  0  0  0  0  0  0  0  0  0  0  0
    5.9785    5.2093   24.4958 C   0  0  0  0  0  0  0  0  0  0  0  0
    5.6118    6.0898   25.0005 H   0  0  0  0  0  0  0  0  0  0  0  0
    6.7063    5.3343   23.3309 N   0  0  0  0  0  0  0  0  0  0  0  0
    6.9265    6.1801   22.8345 H   0  0  0  0  0  0  0  0  0  0  0  0
    8.3474   -0.8743   23.1891 C   0  0  0  0  0  0  0  0  0  0  0  0
    8.5941   -0.3784   24.1295 H   0  0  0  0  0  0  0  0  0  0  0  0
    8.6386   -2.1893   22.9811 C   0  0  0  0  0  0  0  0  0  0  0  0
    9.1140   -2.8315   23.7132 H   0  0  0  0  0  0  0  0  0  0  0  0
    8.2968   -2.8226   21.7099 C   0  0  0  0  0  0  0  0  0  0  0  0
    8.4443   -3.9933   21.4038 O   0  0  0  0  0  0  0  0  0  0  0  0
    7.7429   -1.9742   20.7712 N   0  0  0  0  0  0  0  0  0  0  0  0
    7.4772   -2.4936   19.9481 H   0  0  0  0  0  0  0  0  0  0  0  0
    5.4250    0.6423   20.1477 C   0  0  0  0  0  0  0  0  0  0  0  0
    5.0207    0.6566   21.1617 H   0  0  0  0  0  0  0  0  0  0  0  0
    4.7976    1.3001   19.0929 C   0  0  0  0  0  0  0  0  0  0  0  0
    3.8736    1.8429   19.2351 H   0  0  0  0  0  0  0  0  0  0  0  0
  1  2  1  0
  2  3  2  0
  3  4  1  0
  4  5  1  0
  4  6  2  0
  6  7  1  0
  7  8  2  0
  8  9  1  0
  9 10  2  0
 10 11  1  0
 10 12  1  0
 12 13  1  0
 12 14  2  0
 14 15  1  0
 15 16  2  0
 16 17  1  0
 15 18  1  0
 18 19  1  0
 18 20  2  0
 20 21  1  0
 20 22  1  0
 22 23  1  0
  8 24  1  0
 24 25  1  0
 24 26  2  0
 26 27  1  0
 26 28  1  0
 28 29  2  0
 28 30  1  0
 30 31  1  0
  6 32  1  0
 32 33  1  0
 32 34  2  0
 34 35  1  0
 34  2  1  0
 30  7  1  0
 16  9  1  0
 22 14  1  0
M  END
>  <cnnaffinity>  (1) 
-5.33769

>  <filename>  (1) 
O=c1ccc(-c2ccc3[nH]ccc3c2)c(-c2cccnc2)[nH]1

$$$$
