
     RDKit          3D

 33 35  0  0  0  0  0  0  0  0999 V2000
    5.8101   -2.0554   21.8681 O   0  0  0  0  0  0  0  0  0  0  0  0
    6.8548   -1.4618   21.9555 C   0  0  0  0  0  0  0  0  0  0  0  0
    7.7546   -1.5930   22.9627 N   0  0  0  0  0  0  0  0  0  0  0  0
    9.0041   -0.9027   22.7075 C   0  0  0  0  0  0  0  0  0  0  0  0
    9.3514    0.2293   23.7101 C   0  0  0  0  0  0  0  0  0  0  0  0
    8.2415    1.2604   23.8478 C   0  0  0  0  0  0  0  0  0  0  0  0
    8.1361    2.3082   22.9115 C   0  0  0  0  0  0  0  0  0  0  0  0
    7.0849    3.2275   22.9545 C   0  0  0  0  0  0  0  0  0  0  0  0
    6.1005    3.1154   23.9440 C   0  0  0  0  0  0  0  0  0  0  0  0
    6.1735    2.0864   24.8837 C   0  0  0  0  0  0  0  0  0  0  0  0
    7.2351    1.1773   24.8283 C   0  0  0  0  0  0  0  0  0  0  0  0
    7.2639   -0.0906   26.0321 Cl  0  0  0  0  0  0  0  0  0  0  0  0
    5.4292    1.9687   25.6652 H   0  0  0  0  0  0  0  0  0  0  0  0
    5.2810    3.8301   23.9845 H   0  0  0  0  0  0  0  0  0  0  0  0
    7.0338    4.0246   22.2179 H   0  0  0  0  0  0  0  0  0  0  0  0
    8.8851    2.3738   22.1241 H   0  0  0  0  0  0  0  0  0  0  0  0
    9.5896   -0.2135   24.6838 H   0  0  0  0  0  0  0  0  0  0  0  0
   10.2654    0.7154   23.3443 H   0  0  0  0  0  0  0  0  0  0  0  0
    8.7454   -0.3537   21.2960 C   0  0  0  0  0  0  0  0  0  0  0  0
    9.5467    0.1939   20.5715 O   0  0  0  0  0  0  0  0  0  0  0  0
    7.4110   -0.5917   20.9965 N   0  0  0  0  0  0  0  0  0  0  0  0
    6.6860    0.0159   19.9168 C   0  0  0  0  0  0  0  0  0  0  0  0
    5.4557    0.6272   20.1697 C   0  0  0  0  0  0  0  0  0  0  0  0
    4.8171    1.2929   19.1166 C   0  0  0  0  0  0  0  0  0  0  0  0
    5.4053    1.2780   17.8499 C   0  0  0  0  0  0  0  0  0  0  0  0
    6.5619    0.6519   17.5807 N   0  0  0  0  0  0  0  0  0  0  0  0
    7.1903    0.0497   18.5967 C   0  0  0  0  0  0  0  0  0  0  0  0
    8.1434   -0.4252   18.3724 H   0  0  0  0  0  0  0  0  0  0  0  0
    4.9344    1.7831   17.0088 H   0  0  0  0  0  0  0  0  0  0  0  0
    3.8897    1.8266   19.2693 H   0  0  0  0  0  0  0  0  0  0  0  0
    5.0312    0.5834   21.1744 H   0  0  0  0  0  0  0  0  0  0  0  0
    9.8528   -1.6001   22.6613 H   0  0  0  0  0  0  0  0  0  0  0  0
    7.4222   -2.0388   23.8011 H   0  0  0  0  0  0  0  0  0  0  0  0
  1  2  2  0
  2  3  1  0
  3  4  1  0
  4  5  1  0
  5  6  1  0
  6  7  2  0
  7  8  1  0
  8  9  2  0
  9 10  1  0
 10 11  2  0
 11 12  1  0
 10 13  1  0
  9 14  1  0
  8 15  1  0
  7 16  1  0
  5 17  1  0
  5 18  1  0
  4 19  1  0
 19 20  2  0
 19 21  1  0
 21 22  1  0
 22 23  2  0
 23 24  1  0
 24 25  2  0
 25 26  1  0
 26 27  2  0
 27 28  1  0
 25 29  1  0
 24 30  1  0
 23 31  1  0
  4 32  1  0
  3 33  1  0
 21  2  1  0
 27 22  1  0
 11  6  1  0
M  END
>  <cnnaffinity>  (1) 
-5.31816

>  <filename>  (1) 
O=C1NC(Cc2ccccc2Cl)C(=O)N1c1cccnc1

$$$$
