
     RDKit          3D

 32 34  0  0  0  0  0  0  0  0999 V2000
    4.9241    1.8163   16.9401 H   0  0  0  0  0  0  0  0  0  0  0  0
    5.4028    1.3200   17.7859 C   0  0  0  0  0  0  0  0  0  0  0  0
    6.5686    0.7099   17.5336 N   0  0  0  0  0  0  0  0  0  0  0  0
    7.1656    0.0949   18.5636 C   0  0  0  0  0  0  0  0  0  0  0  0
    8.1204   -0.3766   18.3577 H   0  0  0  0  0  0  0  0  0  0  0  0
    6.6501    0.0136   19.8818 C   0  0  0  0  0  0  0  0  0  0  0  0
    7.3644   -0.7442   20.9406 C   0  0  0  0  0  0  0  0  0  0  0  0
    6.8306   -1.4332   21.9744 C   0  0  0  0  0  0  0  0  0  0  0  0
    5.7880   -1.5470   22.2165 H   0  0  0  0  0  0  0  0  0  0  0  0
    7.7673   -2.1452   22.7073 N   0  0  0  0  0  0  0  0  0  0  0  0
    7.7285   -2.0528   23.7258 H   0  0  0  0  0  0  0  0  0  0  0  0
    8.9934   -1.7605   22.1613 N   0  0  0  0  0  0  0  0  0  0  0  0
   10.2576   -2.1071   22.7910 C   0  0  0  0  0  0  0  0  0  0  0  0
   10.0885   -2.8897   23.5414 H   0  0  0  0  0  0  0  0  0  0  0  0
   10.9056   -2.5413   22.0234 H   0  0  0  0  0  0  0  0  0  0  0  0
   10.9391   -0.8895   23.3953 C   0  0  0  0  0  0  0  0  0  0  0  0
   11.9012   -0.1928   22.6406 C   0  0  0  0  0  0  0  0  0  0  0  0
   12.1528   -0.5500   21.6435 H   0  0  0  0  0  0  0  0  0  0  0  0
   12.4789    0.9821   23.1201 C   0  0  0  0  0  0  0  0  0  0  0  0
   13.2310    1.4962   22.5270 H   0  0  0  0  0  0  0  0  0  0  0  0
   12.0748    1.4918   24.3561 C   0  0  0  0  0  0  0  0  0  0  0  0
   12.4596    2.4402   24.6991 H   0  0  0  0  0  0  0  0  0  0  0  0
   11.1461    0.8101   25.1435 C   0  0  0  0  0  0  0  0  0  0  0  0
   10.8460    1.1821   26.1198 H   0  0  0  0  0  0  0  0  0  0  0  0
   10.5879   -0.3746   24.6556 C   0  0  0  0  0  0  0  0  0  0  0  0
    9.3942   -1.1806   25.6525 Cl  0  0  0  0  0  0  0  0  0  0  0  0
    8.8324   -0.9571   21.0400 C   0  0  0  0  0  0  0  0  0  0  0  0
    9.7443   -0.5589   20.3275 O   0  0  0  0  0  0  0  0  0  0  0  0
    5.4258    0.6651   20.1140 C   0  0  0  0  0  0  0  0  0  0  0  0
    4.9702    0.6832   21.1062 H   0  0  0  0  0  0  0  0  0  0  0  0
    4.7994    1.3249   19.0495 C   0  0  0  0  0  0  0  0  0  0  0  0
    3.8574    1.8413   19.1803 H   0  0  0  0  0  0  0  0  0  0  0  0
  1  2  1  0
  2  3  2  0
  3  4  1  0
  4  5  1  0
  4  6  2  0
  6  7  1  0
  7  8  2  0
  8  9  1  0
  8 10  1  0
 10 11  1  0
 10 12  1  0
 12 13  1  0
 13 14  1  0
 13 15  1  0
 13 16  1  0
 16 17  2  0
 17 18  1  0
 17 19  1  0
 19 20  1  0
 19 21  2  0
 21 22  1  0
 21 23  1  0
 23 24  1  0
 23 25  2  0
 25 26  1  0
 12 27  1  0
 27 28  2  0
  6 29  1  0
 29 30  1  0
 29 31  2  0
 31 32  1  0
 31  2  1  0
 27  7  1  0
 25 16  1  0
M  END
>  <cnnaffinity>  (1) 
-5.20342

>  <filename>  (1) 
O=c1c(-c2cccnc2)c[nH]n1Cc1ccccc1Cl

$$$$
