
     RDKit          3D

 30 32  0  0  0  0  0  0  0  0999 V2000
    4.9808    1.7997   16.9603 H   0  0  0  0  0  0  0  0  0  0  0  0
    5.4346    1.2928   17.8090 C   0  0  0  0  0  0  0  0  0  0  0  0
    6.6001    0.6640   17.5739 N   0  0  0  0  0  0  0  0  0  0  0  0
    7.1940    0.0482   18.6033 C   0  0  0  0  0  0  0  0  0  0  0  0
    8.1524   -0.4326   18.4268 H   0  0  0  0  0  0  0  0  0  0  0  0
    6.6367   -0.0136   19.8931 C   0  0  0  0  0  0  0  0  0  0  0  0
    7.3345   -0.7224   20.9204 N   0  0  0  0  0  0  0  0  0  0  0  0
    8.6966   -0.5887   20.9186 N   0  0  0  0  0  0  0  0  0  0  0  0
    9.3827   -1.1394   21.8872 C   0  0  0  0  0  0  0  0  0  0  0  0
   10.8615   -0.8889   21.9189 C   0  0  0  0  0  0  0  0  0  0  0  0
   11.7294   -1.9925   21.9159 C   0  0  0  0  0  0  0  0  0  0  0  0
   11.2861   -2.9806   21.9639 H   0  0  0  0  0  0  0  0  0  0  0  0
   13.1098   -1.8242   21.9807 C   0  0  0  0  0  0  0  0  0  0  0  0
   13.7699   -2.6785   21.8620 H   0  0  0  0  0  0  0  0  0  0  0  0
   13.6416   -0.5640   22.2413 C   0  0  0  0  0  0  0  0  0  0  0  0
   14.7056   -0.4525   22.4203 H   0  0  0  0  0  0  0  0  0  0  0  0
   12.7981    0.5484   22.3197 C   0  0  0  0  0  0  0  0  0  0  0  0
   13.5011    2.0790   22.7380 Cl  0  0  0  0  0  0  0  0  0  0  0  0
   11.4181    0.4015   22.0505 C   0  0  0  0  0  0  0  0  0  0  0  0
   10.3992    1.7898   21.9383 Cl  0  0  0  0  0  0  0  0  0  0  0  0
    8.7726   -2.0372   22.9357 C   0  0  0  0  0  0  0  0  0  0  0  0
    9.4118   -2.6304   23.7985 O   0  0  0  0  0  0  0  0  0  0  0  0
    7.3231   -2.1418   22.8331 C   0  0  0  0  0  0  0  0  0  0  0  0
    6.8214   -2.7415   23.5758 H   0  0  0  0  0  0  0  0  0  0  0  0
    6.6763   -1.4882   21.8522 C   0  0  0  0  0  0  0  0  0  0  0  0
    5.6035   -1.5530   21.7101 H   0  0  0  0  0  0  0  0  0  0  0  0
    5.4235    0.6496   20.1317 C   0  0  0  0  0  0  0  0  0  0  0  0
    5.0020    0.6694   21.1370 H   0  0  0  0  0  0  0  0  0  0  0  0
    4.8163    1.3174   19.0641 C   0  0  0  0  0  0  0  0  0  0  0  0
    3.8847    1.8606   19.1968 H   0  0  0  0  0  0  0  0  0  0  0  0
  1  2  1  0
  2  3  2  0
  3  4  1  0
  4  5  1  0
  4  6  2  0
  6  7  1  0
  7  8  1  0
  8  9  2  0
  9 10  1  0
 10 11  2  0
 11 12  1  0
 11 13  1  0
 13 14  1  0
 13 15  2  0
 15 16  1  0
 15 17  1  0
 17 18  1  0
 17 19  2  0
 19 20  1  0
  9 21  1  0
 21 22  2  0
 21 23  1  0
 23 24  1  0
 23 25  2  0
 25 26  1  0
  6 27  1  0
 27 28  1  0
 27 29  2  0
 29 30  1  0
 29  2  1  0
 25  7  1  0
 19 10  1  0
M  END
>  <cnnaffinity>  (1) 
-5.8852

>  <filename>  (1) 
O=c1ccn(-c2cccnc2)nc1-c1cccc(Cl)c1Cl

$$$$
