
     RDKit          3D

 44 47  0  0  0  0  0  0  0  0999 V2000
   11.6821    1.6764   23.5861 O   0  0  0  0  0  0  0  0  0  0  0  0
   11.9824    0.7082   22.9016 C   0  0  0  0  0  0  0  0  0  0  0  0
   13.2753    0.0360   22.9650 C   0  0  0  0  0  0  0  0  0  0  0  0
   13.5909   -1.0268   22.1693 C   0  0  0  0  0  0  0  0  0  0  0  0
   12.6243   -1.5227   21.2415 C   0  0  0  0  0  0  0  0  0  0  0  0
   11.4042   -0.9358   21.1844 C   0  0  0  0  0  0  0  0  0  0  0  0
   11.0710    0.1544   21.9530 N   0  0  0  0  0  0  0  0  0  0  0  0
    9.7039    0.6832   21.8089 C   0  0  0  0  0  0  0  0  0  0  0  0
    8.6483   -0.3675   22.0187 C   0  0  0  0  0  0  0  0  0  0  0  0
    8.6363   -1.1952   23.0408 N   0  0  0  0  0  0  0  0  0  0  0  0
    7.5784   -2.0072   22.7819 C   0  0  0  0  0  0  0  0  0  0  0  0
    7.2805   -3.1771   23.6747 C   0  0  0  0  0  0  0  0  0  0  0  0
    8.2494   -4.3447   23.3233 C   0  0  0  0  0  0  0  0  0  0  0  0
    8.3187   -5.4068   24.3903 C   0  0  0  0  0  0  0  0  0  0  0  0
    7.8539   -5.2412   25.6314 C   0  0  0  0  0  0  0  0  0  0  0  0
    7.1812   -3.9758   26.1094 C   0  0  0  0  0  0  0  0  0  0  0  0
    7.4017   -2.7797   25.1669 C   0  0  0  0  0  0  0  0  0  0  0  0
    8.3971   -2.3440   25.3310 H   0  0  0  0  0  0  0  0  0  0  0  0
    6.6720   -1.9936   25.3973 H   0  0  0  0  0  0  0  0  0  0  0  0
    7.5386   -3.7306   27.1195 H   0  0  0  0  0  0  0  0  0  0  0  0
    6.1046   -4.1767   26.2221 H   0  0  0  0  0  0  0  0  0  0  0  0
    7.9187   -6.0639   26.3443 H   0  0  0  0  0  0  0  0  0  0  0  0
    8.8253   -6.3339   24.1229 H   0  0  0  0  0  0  0  0  0  0  0  0
    7.9467   -4.7986   22.3716 H   0  0  0  0  0  0  0  0  0  0  0  0
    9.2649   -3.9475   23.1583 H   0  0  0  0  0  0  0  0  0  0  0  0
    6.2497   -3.4975   23.4744 H   0  0  0  0  0  0  0  0  0  0  0  0
    6.9287   -1.7234   21.6763 N   0  0  0  0  0  0  0  0  0  0  0  0
    7.6247   -0.6629   21.1641 N   0  0  0  0  0  0  0  0  0  0  0  0
    7.0498    0.0755   20.0777 C   0  0  0  0  0  0  0  0  0  0  0  0
    5.8410    0.7517   20.2914 C   0  0  0  0  0  0  0  0  0  0  0  0
    5.2050    1.3463   19.2005 C   0  0  0  0  0  0  0  0  0  0  0  0
    5.7919    1.2404   17.9339 C   0  0  0  0  0  0  0  0  0  0  0  0
    6.9686    0.6332   17.7269 N   0  0  0  0  0  0  0  0  0  0  0  0
    7.5866    0.0780   18.7790 C   0  0  0  0  0  0  0  0  0  0  0  0
    8.5453   -0.3964   18.5710 H   0  0  0  0  0  0  0  0  0  0  0  0
    5.2973    1.6421   17.0494 H   0  0  0  0  0  0  0  0  0  0  0  0
    4.2658    1.8754   19.3182 H   0  0  0  0  0  0  0  0  0  0  0  0
    5.4120    0.7848   21.2938 H   0  0  0  0  0  0  0  0  0  0  0  0
    9.5909    1.4658   22.5603 H   0  0  0  0  0  0  0  0  0  0  0  0
    9.5746    1.1411   20.8244 H   0  0  0  0  0  0  0  0  0  0  0  0
   10.5684   -1.3452   20.6198 H   0  0  0  0  0  0  0  0  0  0  0  0
   12.8606   -2.3284   20.5553 H   0  0  0  0  0  0  0  0  0  0  0  0
   14.5635   -1.5155   22.2314 H   0  0  0  0  0  0  0  0  0  0  0  0
   13.9409    0.4742   23.6946 H   0  0  0  0  0  0  0  0  0  0  0  0
  1  2  2  0
  2  3  1  0
  3  4  2  0
  4  5  1  0
  5  6  2  0
  6  7  1  0
  7  8  1  0
  8  9  1  0
  9 10  2  0
 10 11  1  0
 11 12  1  0
 12 13  1  0
 13 14  1  0
 14 15  2  0
 15 16  1  0
 16 17  1  0
 17 18  1  0
 17 19  1  0
 16 20  1  0
 16 21  1  0
 15 22  1  0
 14 23  1  0
 13 24  1  0
 13 25  1  0
 12 26  1  0
 11 27  2  0
 27 28  1  0
 28 29  1  0
 29 30  2  0
 30 31  1  0
 31 32  2  0
 32 33  1  0
 33 34  2  0
 34 35  1  0
 32 36  1  0
 31 37  1  0
 30 38  1  0
  8 39  1  0
  8 40  1  0
  6 41  1  0
  5 42  1  0
  4 43  1  0
  3 44  1  0
  7  2  1  0
 28  9  1  0
 34 29  1  0
 17 12  1  0
M  END
>  <cnnaffinity>  (1) 
-6.62476

>  <filename>  (1) 
O=c1ccccn1Cc1nc(C2CC=CCC2)nn1-c1cccnc1

$$$$
