
     RDKit          3D

 31 33  0  0  0  0  0  0  0  0999 V2000
    4.9656    1.8063   16.9661 H   0  0  0  0  0  0  0  0  0  0  0  0
    5.4070    1.2779   17.8093 C   0  0  0  0  0  0  0  0  0  0  0  0
    6.5601    0.6326   17.5658 N   0  0  0  0  0  0  0  0  0  0  0  0
    7.1467    0.0096   18.5919 C   0  0  0  0  0  0  0  0  0  0  0  0
    8.0993   -0.4731   18.3663 H   0  0  0  0  0  0  0  0  0  0  0  0
    6.6368    0.0041   19.9068 C   0  0  0  0  0  0  0  0  0  0  0  0
    7.3769   -0.6509   20.9989 C   0  0  0  0  0  0  0  0  0  0  0  0
    7.6945   -0.0866   22.2255 C   0  0  0  0  0  0  0  0  0  0  0  0
    7.4615    1.3529   22.5372 C   0  0  0  0  0  0  0  0  0  0  0  0
    6.4783    1.7414   23.4639 C   0  0  0  0  0  0  0  0  0  0  0  0
    5.9257    0.9643   23.9977 H   0  0  0  0  0  0  0  0  0  0  0  0
    6.1869    3.0939   23.6697 C   0  0  0  0  0  0  0  0  0  0  0  0
    5.4358    3.3797   24.3960 H   0  0  0  0  0  0  0  0  0  0  0  0
    6.8686    4.0875   22.9525 C   0  0  0  0  0  0  0  0  0  0  0  0
    6.6244    5.1413   23.0792 H   0  0  0  0  0  0  0  0  0  0  0  0
    7.8875    3.7224   22.0714 C   0  0  0  0  0  0  0  0  0  0  0  0
    8.4267    4.4668   21.4941 H   0  0  0  0  0  0  0  0  0  0  0  0
    8.2200    2.3731   21.9281 C   0  0  0  0  0  0  0  0  0  0  0  0
    9.6919    1.9817   21.0685 Cl  0  0  0  0  0  0  0  0  0  0  0  0
    8.3571   -0.8877   23.2117 C   0  0  0  0  0  0  0  0  0  0  0  0
    8.6093   -0.4050   24.1581 H   0  0  0  0  0  0  0  0  0  0  0  0
    8.6644   -2.1932   22.9752 C   0  0  0  0  0  0  0  0  0  0  0  0
    9.1871   -2.8288   23.6777 H   0  0  0  0  0  0  0  0  0  0  0  0
    8.3030   -2.8101   21.7085 C   0  0  0  0  0  0  0  0  0  0  0  0
    8.4233   -3.9848   21.4035 O   0  0  0  0  0  0  0  0  0  0  0  0
    7.7711   -1.9473   20.7649 N   0  0  0  0  0  0  0  0  0  0  0  0
    7.4896   -2.4770   19.9538 H   0  0  0  0  0  0  0  0  0  0  0  0
    5.4165    0.6651   20.1314 C   0  0  0  0  0  0  0  0  0  0  0  0
    4.9864    0.6803   21.1335 H   0  0  0  0  0  0  0  0  0  0  0  0
    4.7888    1.3050   19.0636 C   0  0  0  0  0  0  0  0  0  0  0  0
    3.8608    1.8518   19.1983 H   0  0  0  0  0  0  0  0  0  0  0  0
  1  2  1  0
  2  3  2  0
  3  4  1  0
  4  5  1  0
  4  6  2  0
  6  7  1  0
  7  8  2  0
  8  9  1  0
  9 10  2  0
 10 11  1  0
 10 12  1  0
 12 13  1  0
 12 14  2  0
 14 15  1  0
 14 16  1  0
 16 17  1  0
 16 18  2  0
 18 19  1  0
  8 20  1  0
 20 21  1  0
 20 22  2  0
 22 23  1  0
 22 24  1  0
 24 25  2  0
 24 26  1  0
 26 27  1  0
  6 28  1  0
 28 29  1  0
 28 30  2  0
 30 31  1  0
 30  2  1  0
 26  7  1  0
 18  9  1  0
M  END
>  <cnnaffinity>  (1) 
-5.3212

>  <filename>  (1) 
O=c1ccc(-c2ccccc2Cl)c(-c2cccnc2)[nH]1

$$$$
