
     RDKit          3D

 36 39  0  0  0  0  0  0  0  0999 V2000
    4.9373    1.7928   16.9849 H   0  0  0  0  0  0  0  0  0  0  0  0
    5.3982    1.2855   17.8315 C   0  0  0  0  0  0  0  0  0  0  0  0
    6.5633    0.6622   17.5841 N   0  0  0  0  0  0  0  0  0  0  0  0
    7.1568    0.0345   18.6038 C   0  0  0  0  0  0  0  0  0  0  0  0
    8.1166   -0.4318   18.3682 H   0  0  0  0  0  0  0  0  0  0  0  0
    6.6390    0.0006   19.9104 C   0  0  0  0  0  0  0  0  0  0  0  0
    7.3693   -0.6451   21.0028 C   0  0  0  0  0  0  0  0  0  0  0  0
    7.6972   -0.0705   22.2122 C   0  0  0  0  0  0  0  0  0  0  0  0
    7.4669    1.3861   22.4788 C   0  0  0  0  0  0  0  0  0  0  0  0
    6.8732    1.7057   23.6095 N   0  0  0  0  0  0  0  0  0  0  0  0
    6.6518    3.0277   23.8818 C   0  0  0  0  0  0  0  0  0  0  0  0
    6.0073    3.3855   25.1059 C   0  0  0  0  0  0  0  0  0  0  0  0
    5.7268    2.5622   25.7569 H   0  0  0  0  0  0  0  0  0  0  0  0
    5.7829    4.7095   25.4107 C   0  0  0  0  0  0  0  0  0  0  0  0
    5.2929    4.9823   26.3399 H   0  0  0  0  0  0  0  0  0  0  0  0
    6.1847    5.7469   24.5164 C   0  0  0  0  0  0  0  0  0  0  0  0
    5.9939    6.7847   24.7736 H   0  0  0  0  0  0  0  0  0  0  0  0
    6.8142    5.4349   23.3383 C   0  0  0  0  0  0  0  0  0  0  0  0
    7.1279    6.2036   22.6363 H   0  0  0  0  0  0  0  0  0  0  0  0
    7.0724    4.0738   23.0069 C   0  0  0  0  0  0  0  0  0  0  0  0
    7.7667    3.7040   21.8294 C   0  0  0  0  0  0  0  0  0  0  0  0
    8.1384    4.5272   21.2175 H   0  0  0  0  0  0  0  0  0  0  0  0
    7.9306    2.3713   21.5411 C   0  0  0  0  0  0  0  0  0  0  0  0
    8.4040    2.0151   20.6333 H   0  0  0  0  0  0  0  0  0  0  0  0
    8.3095   -0.8870   23.2261 C   0  0  0  0  0  0  0  0  0  0  0  0
    8.5393   -0.4102   24.1811 H   0  0  0  0  0  0  0  0  0  0  0  0
    8.5996   -2.1953   22.9939 C   0  0  0  0  0  0  0  0  0  0  0  0
    9.0565   -2.8500   23.7240 H   0  0  0  0  0  0  0  0  0  0  0  0
    8.2735   -2.8100   21.7148 C   0  0  0  0  0  0  0  0  0  0  0  0
    8.4191   -3.9770   21.3881 O   0  0  0  0  0  0  0  0  0  0  0  0
    7.7325   -1.9460   20.7835 N   0  0  0  0  0  0  0  0  0  0  0  0
    7.4740   -2.4562   19.9580 H   0  0  0  0  0  0  0  0  0  0  0  0
    5.4135    0.6470   20.1499 C   0  0  0  0  0  0  0  0  0  0  0  0
    5.0010    0.6524   21.1628 H   0  0  0  0  0  0  0  0  0  0  0  0
    4.7926    1.2997   19.0905 C   0  0  0  0  0  0  0  0  0  0  0  0
    3.8692    1.8425   19.2325 H   0  0  0  0  0  0  0  0  0  0  0  0
  1  2  1  0
  2  3  2  0
  3  4  1  0
  4  5  1  0
  4  6  2  0
  6  7  1  0
  7  8  2  0
  8  9  1  0
  9 10  2  0
 10 11  1  0
 11 12  2  0
 12 13  1  0
 12 14  1  0
 14 15  1  0
 14 16  2  0
 16 17  1  0
 16 18  1  0
 18 19  1  0
 18 20  2  0
 20 21  1  0
 21 22  1  0
 21 23  2  0
 23 24  1  0
  8 25  1  0
 25 26  1  0
 25 27  2  0
 27 28  1  0
 27 29  1  0
 29 30  2  0
 29 31  1  0
 31 32  1  0
  6 33  1  0
 33 34  1  0
 33 35  2  0
 35 36  1  0
 35  2  1  0
 31  7  1  0
 23  9  1  0
 20 11  1  0
M  END
>  <cnnaffinity>  (1) 
-5.42911

>  <filename>  (1) 
O=c1ccc(-c2ccc3ccccc3n2)c(-c2cccnc2)[nH]1

$$$$
