
     RDKit          3D

 49 52  0  0  0  0  0  0  0  0999 V2000
   10.2972    6.1349   24.3018 O   0  0  0  0  0  0  0  0  0  0  0  0
    9.3650    5.8267   23.5797 C   0  0  0  0  0  0  0  0  0  0  0  0
    8.2814    6.7000   23.1494 C   0  0  0  0  0  0  0  0  0  0  0  0
    7.2908    6.2406   22.3273 C   0  0  0  0  0  0  0  0  0  0  0  0
    7.3023    4.8828   21.8849 C   0  0  0  0  0  0  0  0  0  0  0  0
    8.2921    4.0285   22.2909 C   0  0  0  0  0  0  0  0  0  0  0  0
    8.3839    2.5901   21.8844 C   0  0  0  0  0  0  0  0  0  0  0  0
    7.4048    1.6303   22.6157 C   0  0  0  0  0  0  0  0  0  0  0  0
    7.5626    0.2402   22.1070 C   0  0  0  0  0  0  0  0  0  0  0  0
    8.2794   -0.6982   22.6972 N   0  0  0  0  0  0  0  0  0  0  0  0
    8.3872   -1.6484   21.7367 C   0  0  0  0  0  0  0  0  0  0  0  0
    9.0613   -2.9550   21.9661 C   0  0  0  0  0  0  0  0  0  0  0  0
    8.1560   -3.8573   22.8120 C   0  0  0  0  0  0  0  0  0  0  0  0
    6.7695   -4.0143   22.1746 C   0  0  0  0  0  0  0  0  0  0  0  0
    6.1308   -5.1913   22.9133 C   0  0  0  0  0  0  0  0  0  0  0  0
    7.3200   -6.0493   23.4133 C   0  0  0  0  0  0  0  0  0  0  0  0
    8.5998   -5.3060   22.9912 C   0  0  0  0  0  0  0  0  0  0  0  0
    8.9580   -5.7177   22.0384 H   0  0  0  0  0  0  0  0  0  0  0  0
    9.4032   -5.4014   23.7295 H   0  0  0  0  0  0  0  0  0  0  0  0
    7.2866   -6.1361   24.5039 H   0  0  0  0  0  0  0  0  0  0  0  0
    7.2970   -7.0573   22.9903 H   0  0  0  0  0  0  0  0  0  0  0  0
    5.5504   -4.8181   23.7643 H   0  0  0  0  0  0  0  0  0  0  0  0
    5.4437   -5.7476   22.2670 H   0  0  0  0  0  0  0  0  0  0  0  0
    6.1864   -3.0864   22.2156 H   0  0  0  0  0  0  0  0  0  0  0  0
    6.9065   -4.2495   21.1096 H   0  0  0  0  0  0  0  0  0  0  0  0
    8.0386   -3.4027   23.8123 H   0  0  0  0  0  0  0  0  0  0  0  0
   10.0286   -2.7759   22.4422 H   0  0  0  0  0  0  0  0  0  0  0  0
    9.2125   -3.3978   20.9788 H   0  0  0  0  0  0  0  0  0  0  0  0
    7.7860   -1.3710   20.6030 N   0  0  0  0  0  0  0  0  0  0  0  0
    7.2244   -0.1571   20.8462 N   0  0  0  0  0  0  0  0  0  0  0  0
    6.5178    0.4685   19.7933 C   0  0  0  0  0  0  0  0  0  0  0  0
    5.3247    1.1764   19.9638 C   0  0  0  0  0  0  0  0  0  0  0  0
    4.7091    1.6884   18.8150 C   0  0  0  0  0  0  0  0  0  0  0  0
    5.3131    1.4991   17.5687 C   0  0  0  0  0  0  0  0  0  0  0  0
    6.4638    0.8221   17.4058 N   0  0  0  0  0  0  0  0  0  0  0  0
    7.0393    0.3175   18.4953 C   0  0  0  0  0  0  0  0  0  0  0  0
    7.9662   -0.2369   18.3674 H   0  0  0  0  0  0  0  0  0  0  0  0
    4.8715    1.8998   16.6609 H   0  0  0  0  0  0  0  0  0  0  0  0
    3.7761    2.2367   18.8763 H   0  0  0  0  0  0  0  0  0  0  0  0
    4.8775    1.3032   20.9504 H   0  0  0  0  0  0  0  0  0  0  0  0
    6.3705    1.9563   22.4822 H   0  0  0  0  0  0  0  0  0  0  0  0
    7.6031    1.6009   23.6909 H   0  0  0  0  0  0  0  0  0  0  0  0
    9.4136    2.2367   22.0289 H   0  0  0  0  0  0  0  0  0  0  0  0
    8.1798    2.5281   20.8103 H   0  0  0  0  0  0  0  0  0  0  0  0
    9.2754    4.5218   23.1129 N   0  0  0  0  0  0  0  0  0  0  0  0
   10.0962    3.9946   23.3678 H   0  0  0  0  0  0  0  0  0  0  0  0
    6.5311    4.5186   21.2154 H   0  0  0  0  0  0  0  0  0  0  0  0
    6.4854    6.8983   21.9913 H   0  0  0  0  0  0  0  0  0  0  0  0
    8.3347    7.7037   23.5381 H   0  0  0  0  0  0  0  0  0  0  0  0
  1  2  2  0
  2  3  1  0
  3  4  2  0
  4  5  1  0
  5  6  2  0
  6  7  1  0
  7  8  1  0
  8  9  1  0
  9 10  2  0
 10 11  1  0
 11 12  1  0
 12 13  1  0
 13 14  1  0
 14 15  1  0
 15 16  1  0
 16 17  1  0
 17 18  1  0
 17 19  1  0
 16 20  1  0
 16 21  1  0
 15 22  1  0
 15 23  1  0
 14 24  1  0
 14 25  1  0
 13 26  1  0
 12 27  1  0
 12 28  1  0
 11 29  2  0
 29 30  1  0
 30 31  1  0
 31 32  2  0
 32 33  1  0
 33 34  2  0
 34 35  1  0
 35 36  2  0
 36 37  1  0
 34 38  1  0
 33 39  1  0
 32 40  1  0
  8 41  1  0
  8 42  1  0
  7 43  1  0
  7 44  1  0
  6 45  1  0
 45 46  1  0
  5 47  1  0
  4 48  1  0
  3 49  1  0
 45  2  1  0
 30  9  1  0
 36 31  1  0
 17 13  1  0
M  END
>  <cnnaffinity>  (1) 
-6.15687

>  <filename>  (1) 
O=c1cccc(CCc2nc(CC3CCCC3)nn2-c2cccnc2)[nH]1

$$$$
