
     RDKit          3D

 32 34  0  0  0  0  0  0  0  0999 V2000
    4.9412    1.8661   16.9599 H   0  0  0  0  0  0  0  0  0  0  0  0
    5.4081    1.3378   17.7895 C   0  0  0  0  0  0  0  0  0  0  0  0
    6.5708    0.7248   17.5194 N   0  0  0  0  0  0  0  0  0  0  0  0
    7.1744    0.0799   18.5253 C   0  0  0  0  0  0  0  0  0  0  0  0
    8.1234   -0.3974   18.2850 H   0  0  0  0  0  0  0  0  0  0  0  0
    6.6424   -0.0270   19.8319 C   0  0  0  0  0  0  0  0  0  0  0  0
    7.3535   -0.7506   20.8749 N   0  0  0  0  0  0  0  0  0  0  0  0
    8.6481   -0.3513   21.1923 C   0  0  0  0  0  0  0  0  0  0  0  0
    9.0353    0.4986   20.6334 H   0  0  0  0  0  0  0  0  0  0  0  0
    9.3791   -0.9453   22.1611 C   0  0  0  0  0  0  0  0  0  0  0  0
   10.9772   -0.3045   22.5854 S   0  0  0  0  0  0  0  0  0  0  0  0
   10.4081    0.9106   23.7784 C   0  0  0  0  0  0  0  0  0  0  0  0
   10.1751    2.2398   23.3841 C   0  0  0  0  0  0  0  0  0  0  0  0
   10.4320    2.5558   22.3753 H   0  0  0  0  0  0  0  0  0  0  0  0
    9.6194    3.1579   24.2847 C   0  0  0  0  0  0  0  0  0  0  0  0
    9.4616    4.1922   23.9782 H   0  0  0  0  0  0  0  0  0  0  0  0
    9.2590    2.7309   25.5665 C   0  0  0  0  0  0  0  0  0  0  0  0
    8.7940    3.4259   26.2638 H   0  0  0  0  0  0  0  0  0  0  0  0
    9.4866    1.4054   25.9567 C   0  0  0  0  0  0  0  0  0  0  0  0
    9.1379    1.0782   26.9305 H   0  0  0  0  0  0  0  0  0  0  0  0
   10.1026    0.4984   25.0839 C   0  0  0  0  0  0  0  0  0  0  0  0
   10.3239   -0.5294   25.3761 H   0  0  0  0  0  0  0  0  0  0  0  0
    8.7665   -2.0030   22.9868 C   0  0  0  0  0  0  0  0  0  0  0  0
    9.2325   -2.5751   23.9500 O   0  0  0  0  0  0  0  0  0  0  0  0
    7.5057   -2.3511   22.5783 N   0  0  0  0  0  0  0  0  0  0  0  0
    7.0427   -3.0451   23.1358 H   0  0  0  0  0  0  0  0  0  0  0  0
    6.7371   -1.8101   21.5950 C   0  0  0  0  0  0  0  0  0  0  0  0
    5.6352   -2.2549   21.3799 O   0  0  0  0  0  0  0  0  0  0  0  0
    5.4266    0.6136   20.0995 C   0  0  0  0  0  0  0  0  0  0  0  0
    4.9890    0.5802   21.0987 H   0  0  0  0  0  0  0  0  0  0  0  0
    4.8110    1.3133   19.0534 C   0  0  0  0  0  0  0  0  0  0  0  0
    3.8809    1.8434   19.2065 H   0  0  0  0  0  0  0  0  0  0  0  0
  1  2  1  0
  2  3  2  0
  3  4  1  0
  4  5  1  0
  4  6  2  0
  6  7  1  0
  7  8  1  0
  8  9  1  0
  8 10  2  0
 10 11  1  0
 11 12  1  0
 12 13  2  0
 13 14  1  0
 13 15  1  0
 15 16  1  0
 15 17  2  0
 17 18  1  0
 17 19  1  0
 19 20  1  0
 19 21  2  0
 21 22  1  0
 10 23  1  0
 23 24  2  0
 23 25  1  0
 25 26  1  0
 25 27  1  0
 27 28  2  0
  6 29  1  0
 29 30  1  0
 29 31  2  0
 31 32  1  0
 31  2  1  0
 27  7  1  0
 21 12  1  0
M  END
>  <cnnaffinity>  (1) 
-5.43452

>  <filename>  (1) 
O=c1[nH]c(=O)n(-c2cccnc2)cc1Sc1ccccc1

$$$$
