
     RDKit          3D

 30 32  0  0  0  0  0  0  0  0999 V2000
    4.9122    1.7776   16.9981 H   0  0  0  0  0  0  0  0  0  0  0  0
    5.4019    1.2921   17.8403 C   0  0  0  0  0  0  0  0  0  0  0  0
    6.5686    0.6719   17.5814 N   0  0  0  0  0  0  0  0  0  0  0  0
    7.1895    0.0657   18.6035 C   0  0  0  0  0  0  0  0  0  0  0  0
    8.1323   -0.4312   18.3899 H   0  0  0  0  0  0  0  0  0  0  0  0
    6.6697    0.0135   19.9098 C   0  0  0  0  0  0  0  0  0  0  0  0
    7.3802   -0.6694   20.9427 N   0  0  0  0  0  0  0  0  0  0  0  0
    8.7501   -0.5274   20.9441 N   0  0  0  0  0  0  0  0  0  0  0  0
    9.4275   -1.1225   21.8855 C   0  0  0  0  0  0  0  0  0  0  0  0
   10.9294   -0.9034   21.9363 C   0  0  0  0  0  0  0  0  0  0  0  0
   11.2861   -0.7114   20.9184 H   0  0  0  0  0  0  0  0  0  0  0  0
   11.4306   -1.8044   22.3129 H   0  0  0  0  0  0  0  0  0  0  0  0
   11.2582    0.2742   22.8268 C   0  0  0  0  0  0  0  0  0  0  0  0
   11.6661    0.1321   24.5055 S   0  0  0  0  0  0  0  0  0  0  0  0
   11.7400    1.8379   24.6707 C   0  0  0  0  0  0  0  0  0  0  0  0
   11.9838    2.2812   25.6108 H   0  0  0  0  0  0  0  0  0  0  0  0
   11.4515    2.4915   23.5172 C   0  0  0  0  0  0  0  0  0  0  0  0
   11.4398    3.5724   23.4176 H   0  0  0  0  0  0  0  0  0  0  0  0
   11.1636    1.5839   22.4587 C   0  0  0  0  0  0  0  0  0  0  0  0
   10.8855    1.8993   21.4600 H   0  0  0  0  0  0  0  0  0  0  0  0
    8.8182   -1.9822   22.9561 C   0  0  0  0  0  0  0  0  0  0  0  0
    9.4711   -2.5368   23.8330 O   0  0  0  0  0  0  0  0  0  0  0  0
    7.3795   -2.1130   22.8408 C   0  0  0  0  0  0  0  0  0  0  0  0
    6.8794   -2.7280   23.5770 H   0  0  0  0  0  0  0  0  0  0  0  0
    6.7237   -1.4650   21.8593 C   0  0  0  0  0  0  0  0  0  0  0  0
    5.6411   -1.5573   21.7323 H   0  0  0  0  0  0  0  0  0  0  0  0
    5.4410    0.6446   20.1626 C   0  0  0  0  0  0  0  0  0  0  0  0
    5.0177    0.6326   21.1676 H   0  0  0  0  0  0  0  0  0  0  0  0
    4.8081    1.3114   19.1085 C   0  0  0  0  0  0  0  0  0  0  0  0
    3.8725    1.8438   19.2641 H   0  0  0  0  0  0  0  0  0  0  0  0
  1  2  1  0
  2  3  2  0
  3  4  1  0
  4  5  1  0
  4  6  2  0
  6  7  1  0
  7  8  1  0
  8  9  2  0
  9 10  1  0
 10 11  1  0
 10 12  1  0
 10 13  1  0
 13 14  1  0
 14 15  1  0
 15 16  1  0
 15 17  2  0
 17 18  1  0
 17 19  1  0
 19 20  1  0
  9 21  1  0
 21 22  2  0
 21 23  1  0
 23 24  1  0
 23 25  2  0
 25 26  1  0
  6 27  1  0
 27 28  1  0
 27 29  2  0
 29 30  1  0
 29  2  1  0
 25  7  1  0
 19 13  2  0
M  END
>  <cnnaffinity>  (1) 
-5.29604

>  <filename>  (1) 
O=c1ccn(-c2cccnc2)nc1Cc1cccs1

$$$$
