
     RDKit          3D

 39 42  0  0  0  0  0  0  0  0999 V2000
    8.4713    7.5724   23.3874 O   0  0  0  0  0  0  0  0  0  0  0  0
    8.3713    6.4085   23.0386 C   0  0  0  0  0  0  0  0  0  0  0  0
    7.3402    5.8158   22.1765 C   0  0  0  0  0  0  0  0  0  0  0  0
    7.4016    4.4974   21.8476 C   0  0  0  0  0  0  0  0  0  0  0  0
    8.5136    3.6826   22.3208 C   0  0  0  0  0  0  0  0  0  0  0  0
    8.6424    2.2445   21.8882 C   0  0  0  0  0  0  0  0  0  0  0  0
    7.6657    1.2899   22.6253 C   0  0  0  0  0  0  0  0  0  0  0  0
    7.7209   -0.1363   22.1861 C   0  0  0  0  0  0  0  0  0  0  0  0
    8.2816   -1.0902   22.8937 N   0  0  0  0  0  0  0  0  0  0  0  0
    8.2699   -2.1504   22.0498 C   0  0  0  0  0  0  0  0  0  0  0  0
    8.9174   -3.4208   22.4429 C   0  0  0  0  0  0  0  0  0  0  0  0
    8.2367   -4.7505   22.2685 C   0  0  0  0  0  0  0  0  0  0  0  0
    8.5053   -4.2274   23.6503 C   0  0  0  0  0  0  0  0  0  0  0  0
    9.3227   -4.6667   24.2193 H   0  0  0  0  0  0  0  0  0  0  0  0
    7.6662   -3.8964   24.2585 H   0  0  0  0  0  0  0  0  0  0  0  0
    8.8089   -5.5943   21.8934 H   0  0  0  0  0  0  0  0  0  0  0  0
    7.2083   -4.7159   21.9142 H   0  0  0  0  0  0  0  0  0  0  0  0
    9.9951   -3.3447   22.3104 H   0  0  0  0  0  0  0  0  0  0  0  0
    7.7475   -1.9149   20.8605 N   0  0  0  0  0  0  0  0  0  0  0  0
    7.3513   -0.6156   20.9598 N   0  0  0  0  0  0  0  0  0  0  0  0
    6.6387    0.0215   19.8971 C   0  0  0  0  0  0  0  0  0  0  0  0
    5.4297    0.6969   20.1222 C   0  0  0  0  0  0  0  0  0  0  0  0
    4.8229    1.3440   19.0400 C   0  0  0  0  0  0  0  0  0  0  0  0
    5.4437    1.3070   17.7900 C   0  0  0  0  0  0  0  0  0  0  0  0
    6.5807    0.6273   17.5589 N   0  0  0  0  0  0  0  0  0  0  0  0
    7.1485   -0.0148   18.5865 C   0  0  0  0  0  0  0  0  0  0  0  0
    8.0511   -0.5809   18.3681 H   0  0  0  0  0  0  0  0  0  0  0  0
    5.0119    1.8345   16.9410 H   0  0  0  0  0  0  0  0  0  0  0  0
    3.8833    1.8724   19.1598 H   0  0  0  0  0  0  0  0  0  0  0  0
    4.9655    0.6980   21.1085 H   0  0  0  0  0  0  0  0  0  0  0  0
    6.6395    1.6505   22.5191 H   0  0  0  0  0  0  0  0  0  0  0  0
    7.8983    1.2780   23.6937 H   0  0  0  0  0  0  0  0  0  0  0  0
    9.6787    1.9357   22.0533 H   0  0  0  0  0  0  0  0  0  0  0  0
    8.4669    2.1870   20.8093 H   0  0  0  0  0  0  0  0  0  0  0  0
    9.4229    4.1601   23.1245 N   0  0  0  0  0  0  0  0  0  0  0  0
    9.3031    5.4711   23.4782 N   0  0  0  0  0  0  0  0  0  0  0  0
   10.0213    5.8848   24.0595 H   0  0  0  0  0  0  0  0  0  0  0  0
    6.6274    4.0262   21.2432 H   0  0  0  0  0  0  0  0  0  0  0  0
    6.5508    6.4820   21.8449 H   0  0  0  0  0  0  0  0  0  0  0  0
  1  2  2  0
  2  3  1  0
  3  4  2  0
  4  5  1  0
  5  6  1  0
  6  7  1  0
  7  8  1  0
  8  9  2  0
  9 10  1  0
 10 11  1  0
 11 12  1  0
 12 13  1  0
 13 14  1  0
 13 15  1  0
 12 16  1  0
 12 17  1  0
 11 18  1  0
 10 19  2  0
 19 20  1  0
 20 21  1  0
 21 22  2  0
 22 23  1  0
 23 24  2  0
 24 25  1  0
 25 26  2  0
 26 27  1  0
 24 28  1  0
 23 29  1  0
 22 30  1  0
  7 31  1  0
  7 32  1  0
  6 33  1  0
  6 34  1  0
  5 35  2  0
 35 36  1  0
 36 37  1  0
  4 38  1  0
  3 39  1  0
 36  2  1  0
 20  8  1  0
 26 21  1  0
 13 11  1  0
M  END
>  <cnnaffinity>  (1) 
-5.55363

>  <filename>  (1) 
O=c1ccc(CCc2nc(C3CC3)nn2-c2cccnc2)n[nH]1

$$$$
