
     RDKit          3D

 36 38  0  0  0  0  0  0  0  0999 V2000
    6.7876    1.1128   25.6140 O   0  0  0  0  0  0  0  0  0  0  0  0
    7.8607    1.3775   25.1021 C   0  0  0  0  0  0  0  0  0  0  0  0
    9.1375    1.3277   25.7985 C   0  0  0  0  0  0  0  0  0  0  0  0
   10.2899    1.7653   25.2371 C   0  0  0  0  0  0  0  0  0  0  0  0
   10.2779    2.2455   23.8887 C   0  0  0  0  0  0  0  0  0  0  0  0
   11.4952    2.9179   23.3190 C   0  0  0  0  0  0  0  0  0  0  0  0
   11.6839    4.1218   23.8935 F   0  0  0  0  0  0  0  0  0  0  0  0
   11.4198    3.1385   21.9930 F   0  0  0  0  0  0  0  0  0  0  0  0
   12.6096    2.2014   23.5472 F   0  0  0  0  0  0  0  0  0  0  0  0
    9.1269    2.1714   23.1556 C   0  0  0  0  0  0  0  0  0  0  0  0
    7.9503    1.7339   23.7102 N   0  0  0  0  0  0  0  0  0  0  0  0
    6.9033    1.2392   22.7940 C   0  0  0  0  0  0  0  0  0  0  0  0
    7.2300   -0.1355   22.2516 C   0  0  0  0  0  0  0  0  0  0  0  0
    7.7997   -1.0762   22.9685 N   0  0  0  0  0  0  0  0  0  0  0  0
    8.1028   -2.0311   22.0533 C   0  0  0  0  0  0  0  0  0  0  0  0
    8.8957   -3.2167   22.5495 C   0  0  0  0  0  0  0  0  0  0  0  0
   10.2357   -3.0127   22.3957 F   0  0  0  0  0  0  0  0  0  0  0  0
    8.5489   -4.3634   21.9128 F   0  0  0  0  0  0  0  0  0  0  0  0
    8.7016   -3.3271   23.6134 H   0  0  0  0  0  0  0  0  0  0  0  0
    7.7378   -1.7581   20.8161 N   0  0  0  0  0  0  0  0  0  0  0  0
    7.1216   -0.5592   20.9495 N   0  0  0  0  0  0  0  0  0  0  0  0
    6.4789    0.0687   19.8538 C   0  0  0  0  0  0  0  0  0  0  0  0
    5.2686    0.7501   20.0203 C   0  0  0  0  0  0  0  0  0  0  0  0
    4.7211    1.4064   18.9170 C   0  0  0  0  0  0  0  0  0  0  0  0
    5.3963    1.3589   17.6951 C   0  0  0  0  0  0  0  0  0  0  0  0
    6.5390    0.6714   17.5239 N   0  0  0  0  0  0  0  0  0  0  0  0
    7.0574    0.0281   18.5736 C   0  0  0  0  0  0  0  0  0  0  0  0
    7.9734   -0.5344   18.4084 H   0  0  0  0  0  0  0  0  0  0  0  0
    5.0097    1.8850   16.8233 H   0  0  0  0  0  0  0  0  0  0  0  0
    3.7956    1.9613   19.0014 H   0  0  0  0  0  0  0  0  0  0  0  0
    4.7655    0.7640   20.9865 H   0  0  0  0  0  0  0  0  0  0  0  0
    6.7669    1.9679   21.9872 H   0  0  0  0  0  0  0  0  0  0  0  0
    5.9773    1.1904   23.3703 H   0  0  0  0  0  0  0  0  0  0  0  0
    9.0801    2.4298   22.0958 H   0  0  0  0  0  0  0  0  0  0  0  0
   11.2112    1.7473   25.8214 H   0  0  0  0  0  0  0  0  0  0  0  0
    9.0951    0.9477   26.8067 H   0  0  0  0  0  0  0  0  0  0  0  0
  1  2  2  0
  2  3  1  0
  3  4  2  0
  4  5  1  0
  5  6  1  0
  6  7  1  0
  6  8  1  0
  6  9  1  0
  5 10  2  0
 10 11  1  0
 11 12  1  0
 12 13  1  0
 13 14  2  0
 14 15  1  0
 15 16  1  0
 16 17  1  0
 16 18  1  0
 16 19  1  0
 15 20  2  0
 20 21  1  0
 21 22  1  0
 22 23  2  0
 23 24  1  0
 24 25  2  0
 25 26  1  0
 26 27  2  0
 27 28  1  0
 25 29  1  0
 24 30  1  0
 23 31  1  0
 12 32  1  0
 12 33  1  0
 10 34  1  0
  4 35  1  0
  3 36  1  0
 11  2  1  0
 21 13  1  0
 27 22  1  0
M  END
>  <cnnaffinity>  (1) 
-5.93911

>  <filename>  (1) 
O=c1ccc(C(F)(F)F)cn1Cc1nc(C(F)F)nn1-c1cccnc1

$$$$
