
     RDKit          3D

 34 36  0  0  0  0  0  0  0  0999 V2000
    4.9039    1.8603   16.9625 H   0  0  0  0  0  0  0  0  0  0  0  0
    5.3705    1.3248   17.7862 C   0  0  0  0  0  0  0  0  0  0  0  0
    6.5228    0.6988   17.5008 N   0  0  0  0  0  0  0  0  0  0  0  0
    7.1438    0.0626   18.5012 C   0  0  0  0  0  0  0  0  0  0  0  0
    8.0998   -0.4020   18.2691 H   0  0  0  0  0  0  0  0  0  0  0  0
    6.6371   -0.0157   19.8181 C   0  0  0  0  0  0  0  0  0  0  0  0
    7.3723   -0.6967   20.8793 N   0  0  0  0  0  0  0  0  0  0  0  0
    8.6299   -0.1829   21.3119 C   0  0  0  0  0  0  0  0  0  0  0  0
    9.0999    0.8038   20.7882 O   0  0  0  0  0  0  0  0  0  0  0  0
    9.3106   -0.8984   22.3738 C   0  0  0  0  0  0  0  0  0  0  0  0
   10.2394   -0.4535   22.6876 H   0  0  0  0  0  0  0  0  0  0  0  0
    8.8109   -2.0222   22.9164 C   0  0  0  0  0  0  0  0  0  0  0  0
    9.4099   -2.8322   24.0400 C   0  0  0  0  0  0  0  0  0  0  0  0
   10.4715   -2.5949   24.1351 H   0  0  0  0  0  0  0  0  0  0  0  0
    9.3611   -3.8961   23.7858 H   0  0  0  0  0  0  0  0  0  0  0  0
    8.6830   -2.5774   25.3573 C   0  0  0  0  0  0  0  0  0  0  0  0
    7.6804   -3.4572   25.8018 C   0  0  0  0  0  0  0  0  0  0  0  0
    7.5715   -4.4287   25.3220 H   0  0  0  0  0  0  0  0  0  0  0  0
    6.8231   -3.1145   26.8502 C   0  0  0  0  0  0  0  0  0  0  0  0
    6.0254   -3.7888   27.1552 H   0  0  0  0  0  0  0  0  0  0  0  0
    6.9983   -1.8969   27.5111 C   0  0  0  0  0  0  0  0  0  0  0  0
    6.3224   -1.6213   28.3164 H   0  0  0  0  0  0  0  0  0  0  0  0
    8.0613   -1.0538   27.1774 C   0  0  0  0  0  0  0  0  0  0  0  0
    8.2672   -0.1422   27.7346 H   0  0  0  0  0  0  0  0  0  0  0  0
    8.8953   -1.4068   26.1132 C   0  0  0  0  0  0  0  0  0  0  0  0
   10.2251   -0.3401   25.7363 Cl  0  0  0  0  0  0  0  0  0  0  0  0
    7.5889   -2.4317   22.4496 N   0  0  0  0  0  0  0  0  0  0  0  0
    7.0444   -3.1503   22.8836 H   0  0  0  0  0  0  0  0  0  0  0  0
    6.8189   -1.8176   21.4916 C   0  0  0  0  0  0  0  0  0  0  0  0
    5.7379   -2.2931   21.2216 O   0  0  0  0  0  0  0  0  0  0  0  0
    5.4251    0.6214   20.0948 C   0  0  0  0  0  0  0  0  0  0  0  0
    5.0075    0.5832   21.0998 H   0  0  0  0  0  0  0  0  0  0  0  0
    4.7895    1.3160   19.0565 C   0  0  0  0  0  0  0  0  0  0  0  0
    3.8688    1.8587   19.2215 H   0  0  0  0  0  0  0  0  0  0  0  0
  1  2  1  0
  2  3  2  0
  3  4  1  0
  4  5  1  0
  4  6  2  0
  6  7  1  0
  7  8  1  0
  8  9  2  0
  8 10  1  0
 10 11  1  0
 10 12  2  0
 12 13  1  0
 13 14  1  0
 13 15  1  0
 13 16  1  0
 16 17  2  0
 17 18  1  0
 17 19  1  0
 19 20  1  0
 19 21  2  0
 21 22  1  0
 21 23  1  0
 23 24  1  0
 23 25  2  0
 25 26  1  0
 12 27  1  0
 27 28  1  0
 27 29  1  0
 29 30  2  0
  6 31  1  0
 31 32  1  0
 31 33  2  0
 33 34  1  0
 33  2  1  0
 29  7  1  0
 25 16  1  0
M  END
>  <cnnaffinity>  (1) 
-5.6563

>  <filename>  (1) 
O=c1cc(Cc2ccccc2Cl)[nH]c(=O)n1-c1cccnc1

$$$$
