
     RDKit          3D

 35 37  0  0  0  0  0  0  0  0999 V2000
    4.9417    1.8044   17.0197 H   0  0  0  0  0  0  0  0  0  0  0  0
    5.4374    1.2987   17.8494 C   0  0  0  0  0  0  0  0  0  0  0  0
    6.6049    0.6998   17.5697 N   0  0  0  0  0  0  0  0  0  0  0  0
    7.2357    0.0674   18.5706 C   0  0  0  0  0  0  0  0  0  0  0  0
    8.1761   -0.4205   18.3180 H   0  0  0  0  0  0  0  0  0  0  0  0
    6.7295   -0.0385   19.8830 C   0  0  0  0  0  0  0  0  0  0  0  0
    7.4049   -0.7648   20.9020 N   0  0  0  0  0  0  0  0  0  0  0  0
    6.7615   -1.6929   21.7143 C   0  0  0  0  0  0  0  0  0  0  0  0
    5.6396   -2.1242   21.5528 O   0  0  0  0  0  0  0  0  0  0  0  0
    7.7516   -2.0717   22.7901 C   0  0  0  0  0  0  0  0  0  0  0  0
    7.5840   -3.1033   23.0966 H   0  0  0  0  0  0  0  0  0  0  0  0
    7.5555   -1.4134   23.6420 H   0  0  0  0  0  0  0  0  0  0  0  0
    9.1157   -1.7993   22.1497 C   0  0  0  0  0  0  0  0  0  0  0  0
    9.8785   -1.4941   22.8688 H   0  0  0  0  0  0  0  0  0  0  0  0
    9.4929   -2.6952   21.6471 H   0  0  0  0  0  0  0  0  0  0  0  0
    8.8577   -0.6972   21.1021 C   0  0  2  0  0  0  0  0  0  0  0  0
    9.3522   -0.9614   20.1589 H   0  0  0  0  0  0  0  0  0  0  0  0
    9.3885    0.7109   21.4638 C   0  0  0  0  0  0  0  0  0  0  0  0
    9.0544    1.3948   20.6749 H   0  0  0  0  0  0  0  0  0  0  0  0
   10.4805    0.6794   21.4013 H   0  0  0  0  0  0  0  0  0  0  0  0
    8.9721    1.2431   22.8175 C   0  0  0  0  0  0  0  0  0  0  0  0
    7.6808    1.7755   22.9706 C   0  0  0  0  0  0  0  0  0  0  0  0
    7.0417    1.8332   22.0933 H   0  0  0  0  0  0  0  0  0  0  0  0
    7.2123    2.2299   24.2034 C   0  0  0  0  0  0  0  0  0  0  0  0
    6.2063    2.6331   24.2840 H   0  0  0  0  0  0  0  0  0  0  0  0
    8.0407    2.1632   25.3271 C   0  0  0  0  0  0  0  0  0  0  0  0
    7.6796    2.5054   26.2918 H   0  0  0  0  0  0  0  0  0  0  0  0
    9.3321    1.6472   25.2143 C   0  0  0  0  0  0  0  0  0  0  0  0
    9.9926    1.5766   26.0744 H   0  0  0  0  0  0  0  0  0  0  0  0
    9.7861    1.1988   23.9695 C   0  0  0  0  0  0  0  0  0  0  0  0
   11.4196    0.5752   23.9096 Cl  0  0  0  0  0  0  0  0  0  0  0  0
    5.5083    0.5975   20.1622 C   0  0  0  0  0  0  0  0  0  0  0  0
    5.0851    0.5350   21.1640 H   0  0  0  0  0  0  0  0  0  0  0  0
    4.8579    1.2840   19.1238 C   0  0  0  0  0  0  0  0  0  0  0  0
    3.9135    1.7966   19.2903 H   0  0  0  0  0  0  0  0  0  0  0  0
  1  2  1  0
  2  3  2  0
  3  4  1  0
  4  5  1  0
  4  6  2  0
  6  7  1  0
  7  8  1  0
  8  9  2  0
  8 10  1  0
 10 11  1  0
 10 12  1  0
 10 13  1  0
 13 14  1  0
 13 15  1  0
 13 16  1  0
 16 17  1  6
 16 18  1  0
 18 19  1  0
 18 20  1  0
 18 21  1  0
 21 22  2  0
 22 23  1  0
 22 24  1  0
 24 25  1  0
 24 26  2  0
 26 27  1  0
 26 28  1  0
 28 29  1  0
 28 30  2  0
 30 31  1  0
  6 32  1  0
 32 33  1  0
 32 34  2  0
 34 35  1  0
 34  2  1  0
 16  7  1  0
 30 21  1  0
M  END
>  <cnnaffinity>  (1) 
-5.42501

>  <filename>  (1) 
O=C1CC[C@H](Cc2ccccc2Cl)N1c1cccnc1

$$$$
