
     RDKit          3D

 46 49  0  0  0  0  0  0  0  0999 V2000
    9.1562    2.2279   22.2019 O   0  0  0  0  0  0  0  0  0  0  0  0
   10.2805    1.7675   22.2872 C   0  0  0  0  0  0  0  0  0  0  0  0
   11.3223    2.2859   23.1357 C   0  0  0  0  0  0  0  0  0  0  0  0
   10.9213    3.5103   23.8522 C   0  0  0  0  0  0  0  0  0  0  0  0
   11.9715    4.0829   24.4807 F   0  0  0  0  0  0  0  0  0  0  0  0
   10.4037    4.4281   23.0315 F   0  0  0  0  0  0  0  0  0  0  0  0
   10.0076    3.2195   24.7933 F   0  0  0  0  0  0  0  0  0  0  0  0
   12.4878    1.6069   23.3738 C   0  0  0  0  0  0  0  0  0  0  0  0
   12.7307    0.3995   22.6777 C   0  0  0  0  0  0  0  0  0  0  0  0
   11.8240   -0.0507   21.7565 C   0  0  0  0  0  0  0  0  0  0  0  0
   10.6555    0.6351   21.5162 N   0  0  0  0  0  0  0  0  0  0  0  0
    9.6274    0.0627   20.6270 C   0  0  0  0  0  0  0  0  0  0  0  0
    8.5499   -0.7097   21.3374 C   0  0  0  0  0  0  0  0  0  0  0  0
    8.7354   -1.5016   22.3683 N   0  0  0  0  0  0  0  0  0  0  0  0
    7.5005   -2.0279   22.5881 C   0  0  0  0  0  0  0  0  0  0  0  0
    7.2505   -2.9780   23.7290 C   0  0  0  0  0  0  0  0  0  0  0  0
    6.1617   -4.0388   23.4699 C   0  0  0  0  0  0  0  0  0  0  0  0
    6.4565   -5.1733   24.4723 C   0  0  0  0  0  0  0  0  0  0  0  0
    7.9512   -5.0380   24.8664 C   0  0  0  0  0  0  0  0  0  0  0  0
    8.4892   -3.8283   24.0858 C   0  0  0  0  0  0  0  0  0  0  0  0
    9.2446   -3.2499   24.6295 H   0  0  0  0  0  0  0  0  0  0  0  0
    8.9620   -4.1530   23.1504 H   0  0  0  0  0  0  0  0  0  0  0  0
    8.5275   -5.9441   24.6452 H   0  0  0  0  0  0  0  0  0  0  0  0
    8.0476   -4.8785   25.9468 H   0  0  0  0  0  0  0  0  0  0  0  0
    5.8210   -5.0810   25.3610 H   0  0  0  0  0  0  0  0  0  0  0  0
    6.2279   -6.1538   24.0414 H   0  0  0  0  0  0  0  0  0  0  0  0
    6.2619   -4.3967   22.4378 H   0  0  0  0  0  0  0  0  0  0  0  0
    5.1474   -3.6346   23.5611 H   0  0  0  0  0  0  0  0  0  0  0  0
    6.9677   -2.3572   24.5968 H   0  0  0  0  0  0  0  0  0  0  0  0
    6.5713   -1.6087   21.7447 N   0  0  0  0  0  0  0  0  0  0  0  0
    7.2536   -0.7796   20.9141 N   0  0  0  0  0  0  0  0  0  0  0  0
    6.5825   -0.1060   19.8545 C   0  0  0  0  0  0  0  0  0  0  0  0
    5.3938    0.5874   20.1130 C   0  0  0  0  0  0  0  0  0  0  0  0
    4.8105    1.3168   19.0750 C   0  0  0  0  0  0  0  0  0  0  0  0
    5.4137    1.3013   17.8113 C   0  0  0  0  0  0  0  0  0  0  0  0
    6.5209    0.5932   17.5399 N   0  0  0  0  0  0  0  0  0  0  0  0
    7.0835   -0.0969   18.5378 C   0  0  0  0  0  0  0  0  0  0  0  0
    7.9833   -0.6570   18.2802 H   0  0  0  0  0  0  0  0  0  0  0  0
    4.9915    1.8716   16.9871 H   0  0  0  0  0  0  0  0  0  0  0  0
    3.9106    1.9042   19.2326 H   0  0  0  0  0  0  0  0  0  0  0  0
    4.9679    0.5541   21.1163 H   0  0  0  0  0  0  0  0  0  0  0  0
    9.1834    0.8682   20.0398 H   0  0  0  0  0  0  0  0  0  0  0  0
   10.1243   -0.6309   19.9429 H   0  0  0  0  0  0  0  0  0  0  0  0
   11.9834   -0.9464   21.1517 H   0  0  0  0  0  0  0  0  0  0  0  0
   13.6247   -0.1716   22.8879 H   0  0  0  0  0  0  0  0  0  0  0  0
   13.2082    2.0000   24.0921 H   0  0  0  0  0  0  0  0  0  0  0  0
  1  2  2  0
  2  3  1  0
  3  4  1  0
  4  5  1  0
  4  6  1  0
  4  7  1  0
  3  8  2  0
  8  9  1  0
  9 10  2  0
 10 11  1  0
 11 12  1  0
 12 13  1  0
 13 14  2  0
 14 15  1  0
 15 16  1  0
 16 17  1  0
 17 18  1  0
 18 19  1  0
 19 20  1  0
 20 21  1  0
 20 22  1  0
 19 23  1  0
 19 24  1  0
 18 25  1  0
 18 26  1  0
 17 27  1  0
 17 28  1  0
 16 29  1  0
 15 30  2  0
 30 31  1  0
 31 32  1  0
 32 33  2  0
 33 34  1  0
 34 35  2  0
 35 36  1  0
 36 37  2  0
 37 38  1  0
 35 39  1  0
 34 40  1  0
 33 41  1  0
 12 42  1  0
 12 43  1  0
 10 44  1  0
  9 45  1  0
  8 46  1  0
 11  2  1  0
 31 13  1  0
 37 32  1  0
 20 16  1  0
M  END
>  <cnnaffinity>  (1) 
-6.64061

>  <filename>  (1) 
O=c1c(C(F)(F)F)cccn1Cc1nc(C2CCCC2)nn1-c1cccnc1

$$$$
