
     RDKit          3D

 46 49  0  0  0  0  0  0  0  0999 V2000
   12.0583   -1.1823   21.2012 O   0  0  0  0  0  0  0  0  0  0  0  0
   11.8380   -0.2004   21.8653 C   0  0  0  0  0  0  0  0  0  0  0  0
   12.6680    0.0975   22.8943 O   0  0  0  0  0  0  0  0  0  0  0  0
   12.3688    1.1136   23.8606 C   0  0  0  0  0  0  0  0  0  0  0  0
   11.6707    2.2920   23.2018 C   0  0  0  0  0  0  0  0  0  0  0  0
   10.4176    1.7697   22.5103 C   0  0  0  0  0  0  0  0  0  0  0  0
   10.7745    0.6733   21.6012 N   0  0  0  0  0  0  0  0  0  0  0  0
    9.6942    0.2171   20.7230 C   0  0  0  0  0  0  0  0  0  0  0  0
    8.6353   -0.6160   21.3762 C   0  0  0  0  0  0  0  0  0  0  0  0
    8.8316   -1.4594   22.3642 N   0  0  0  0  0  0  0  0  0  0  0  0
    7.5980   -1.9784   22.5801 C   0  0  0  0  0  0  0  0  0  0  0  0
    7.3739   -2.9219   23.7137 C   0  0  0  0  0  0  0  0  0  0  0  0
    7.5294   -2.1921   25.0802 C   0  0  0  0  0  0  0  0  0  0  0  0
    7.5224   -3.1562   26.2437 C   0  0  0  0  0  0  0  0  0  0  0  0
    7.7601   -4.4616   26.1156 C   0  0  0  0  0  0  0  0  0  0  0  0
    7.9888   -5.1368   24.7792 C   0  0  0  0  0  0  0  0  0  0  0  0
    8.3346   -4.1372   23.6607 C   0  0  0  0  0  0  0  0  0  0  0  0
    9.3718   -3.7804   23.7656 H   0  0  0  0  0  0  0  0  0  0  0  0
    8.2773   -4.6332   22.6842 H   0  0  0  0  0  0  0  0  0  0  0  0
    7.0786   -5.6946   24.5072 H   0  0  0  0  0  0  0  0  0  0  0  0
    8.7735   -5.8970   24.8715 H   0  0  0  0  0  0  0  0  0  0  0  0
    7.7722   -5.1037   26.9993 H   0  0  0  0  0  0  0  0  0  0  0  0
    7.3303   -2.7299   27.2295 H   0  0  0  0  0  0  0  0  0  0  0  0
    8.4725   -1.6189   25.0873 H   0  0  0  0  0  0  0  0  0  0  0  0
    6.7340   -1.4472   25.2056 H   0  0  0  0  0  0  0  0  0  0  0  0
    6.3390   -3.2668   23.6015 H   0  0  0  0  0  0  0  0  0  0  0  0
    6.6651   -1.5361   21.7640 N   0  0  0  0  0  0  0  0  0  0  0  0
    7.3407   -0.6826   20.9483 N   0  0  0  0  0  0  0  0  0  0  0  0
    6.6584    0.0056   19.9035 C   0  0  0  0  0  0  0  0  0  0  0  0
    5.4400    0.6450   20.1624 C   0  0  0  0  0  0  0  0  0  0  0  0
    4.8122    1.3118   19.1080 C   0  0  0  0  0  0  0  0  0  0  0  0
    5.3995    1.2957   17.8380 C   0  0  0  0  0  0  0  0  0  0  0  0
    6.5574    0.6719   17.5804 N   0  0  0  0  0  0  0  0  0  0  0  0
    7.1683    0.0488   18.5934 C   0  0  0  0  0  0  0  0  0  0  0  0
    8.1121   -0.4390   18.3531 H   0  0  0  0  0  0  0  0  0  0  0  0
    4.9277    1.7907   16.9922 H   0  0  0  0  0  0  0  0  0  0  0  0
    3.8803    1.8405   19.2560 H   0  0  0  0  0  0  0  0  0  0  0  0
    5.0198    0.6042   21.1685 H   0  0  0  0  0  0  0  0  0  0  0  0
   10.1036   -0.4094   19.9253 H   0  0  0  0  0  0  0  0  0  0  0  0
    9.2315    1.0966   20.2658 H   0  0  0  0  0  0  0  0  0  0  0  0
    9.9384    2.5640   21.9214 H   0  0  0  0  0  0  0  0  0  0  0  0
    9.6776    1.4214   23.2532 H   0  0  0  0  0  0  0  0  0  0  0  0
   12.3381    2.7390   22.4555 H   0  0  0  0  0  0  0  0  0  0  0  0
   11.4171    3.0561   23.9455 H   0  0  0  0  0  0  0  0  0  0  0  0
   11.7627    0.6737   24.6708 H   0  0  0  0  0  0  0  0  0  0  0  0
   13.3451    1.3848   24.2680 H   0  0  0  0  0  0  0  0  0  0  0  0
  1  2  2  0
  2  3  1  0
  3  4  1  0
  4  5  1  0
  5  6  1  0
  6  7  1  0
  7  8  1  0
  8  9  1  0
  9 10  2  0
 10 11  1  0
 11 12  1  0
 12 13  1  0
 13 14  1  0
 14 15  2  0
 15 16  1  0
 16 17  1  0
 17 18  1  0
 17 19  1  0
 16 20  1  0
 16 21  1  0
 15 22  1  0
 14 23  1  0
 13 24  1  0
 13 25  1  0
 12 26  1  0
 11 27  2  0
 27 28  1  0
 28 29  1  0
 29 30  2  0
 30 31  1  0
 31 32  2  0
 32 33  1  0
 33 34  2  0
 34 35  1  0
 32 36  1  0
 31 37  1  0
 30 38  1  0
  8 39  1  0
  8 40  1  0
  6 41  1  0
  6 42  1  0
  5 43  1  0
  5 44  1  0
  4 45  1  0
  4 46  1  0
  7  2  1  0
 28  9  1  0
 34 29  1  0
 17 12  1  0
M  END
>  <cnnaffinity>  (1) 
-6.35282

>  <filename>  (1) 
O=C1OCCCN1Cc1nc(C2CC=CCC2)nn1-c1cccnc1

$$$$
