
     RDKit          3D

 40 42  0  0  0  0  0  0  0  0999 V2000
    5.0083    1.8358   16.9895 H   0  0  0  0  0  0  0  0  0  0  0  0
    5.4427    1.2931   17.8284 C   0  0  0  0  0  0  0  0  0  0  0  0
    6.5966    0.6502   17.5926 N   0  0  0  0  0  0  0  0  0  0  0  0
    7.1678   -0.0033   18.6137 C   0  0  0  0  0  0  0  0  0  0  0  0
    8.1041   -0.5133   18.3876 H   0  0  0  0  0  0  0  0  0  0  0  0
    6.6113   -0.0735   19.9156 C   0  0  0  0  0  0  0  0  0  0  0  0
    7.2608   -0.7180   21.0190 N   0  0  0  0  0  0  0  0  0  0  0  0
    6.5413   -1.6879   21.7549 C   0  0  0  0  0  0  0  0  0  0  0  0
    5.7556   -2.4437   21.2023 O   0  0  0  0  0  0  0  0  0  0  0  0
    6.7668   -1.7672   23.1268 N   0  0  0  0  0  0  0  0  0  0  0  0
    6.5811   -3.0491   23.8249 C   0  0  0  0  0  0  0  0  0  0  0  0
    6.2771   -3.8133   23.1074 H   0  0  0  0  0  0  0  0  0  0  0  0
    5.7676   -2.9708   24.5619 H   0  0  0  0  0  0  0  0  0  0  0  0
    7.8860   -3.4871   24.4795 C   0  0  0  0  0  0  0  0  0  0  0  0
    8.0799   -3.6078   25.8674 C   0  0  0  0  0  0  0  0  0  0  0  0
    7.2730   -3.3563   26.5609 H   0  0  0  0  0  0  0  0  0  0  0  0
    9.3281   -3.9712   26.3914 C   0  0  0  0  0  0  0  0  0  0  0  0
    9.4765   -4.0923   27.4601 H   0  0  0  0  0  0  0  0  0  0  0  0
   10.4220   -4.1554   25.5429 C   0  0  0  0  0  0  0  0  0  0  0  0
   11.3863   -4.4278   25.9593 H   0  0  0  0  0  0  0  0  0  0  0  0
   10.2756   -3.9687   24.1689 C   0  0  0  0  0  0  0  0  0  0  0  0
   11.1316   -3.9781   23.5065 H   0  0  0  0  0  0  0  0  0  0  0  0
    9.0063   -3.7036   23.6541 C   0  0  0  0  0  0  0  0  0  0  0  0
    8.7883   -3.7248   21.9306 Cl  0  0  0  0  0  0  0  0  0  0  0  0
    7.0999   -0.6260   23.9796 C   0  0  0  0  0  0  0  0  0  0  0  0
    6.4005    0.2031   23.7966 H   0  0  0  0  0  0  0  0  0  0  0  0
    6.9420   -0.9342   25.0208 H   0  0  0  0  0  0  0  0  0  0  0  0
    8.5454   -0.1484   23.8453 C   0  0  0  0  0  0  0  0  0  0  0  0
    9.2268   -0.9984   23.9823 H   0  0  0  0  0  0  0  0  0  0  0  0
    8.7478    0.5480   24.6655 H   0  0  0  0  0  0  0  0  0  0  0  0
    8.8287    0.5497   22.5191 C   0  0  0  0  0  0  0  0  0  0  0  0
    9.8571    0.9322   22.5224 H   0  0  0  0  0  0  0  0  0  0  0  0
    8.1669    1.4186   22.4071 H   0  0  0  0  0  0  0  0  0  0  0  0
    8.6630   -0.3617   21.3051 C   0  0  0  0  0  0  0  0  0  0  0  0
    9.0614    0.1592   20.4295 H   0  0  0  0  0  0  0  0  0  0  0  0
    9.2660   -1.2678   21.4258 H   0  0  0  0  0  0  0  0  0  0  0  0
    5.3899    0.5761   20.1269 C   0  0  0  0  0  0  0  0  0  0  0  0
    4.9317    0.5340   21.1147 H   0  0  0  0  0  0  0  0  0  0  0  0
    4.8057    1.2834   19.0723 C   0  0  0  0  0  0  0  0  0  0  0  0
    3.8815    1.8306   19.2117 H   0  0  0  0  0  0  0  0  0  0  0  0
  1  2  1  0
  2  3  2  0
  3  4  1  0
  4  5  1  0
  4  6  2  0
  6  7  1  0
  7  8  1  0
  8  9  2  0
  8 10  1  0
 10 11  1  0
 11 12  1  0
 11 13  1  0
 11 14  1  0
 14 15  2  0
 15 16  1  0
 15 17  1  0
 17 18  1  0
 17 19  2  0
 19 20  1  0
 19 21  1  0
 21 22  1  0
 21 23  2  0
 23 24  1  0
 10 25  1  0
 25 26  1  0
 25 27  1  0
 25 28  1  0
 28 29  1  0
 28 30  1  0
 28 31  1  0
 31 32  1  0
 31 33  1  0
 31 34  1  0
 34 35  1  0
 34 36  1  0
  6 37  1  0
 37 38  1  0
 37 39  2  0
 39 40  1  0
 39  2  1  0
 34  7  1  0
 23 14  1  0
M  END
>  <cnnaffinity>  (1) 
-5.41467

>  <filename>  (1) 
O=C1N(Cc2ccccc2Cl)CCCCN1c1cccnc1

$$$$
