
     RDKit          3D

 32 34  0  0  0  0  0  0  0  0999 V2000
    4.9123    1.7866   16.9928 H   0  0  0  0  0  0  0  0  0  0  0  0
    5.3993    1.2954   17.8318 C   0  0  0  0  0  0  0  0  0  0  0  0
    6.5648    0.6846   17.5641 N   0  0  0  0  0  0  0  0  0  0  0  0
    7.1724    0.0676   18.5834 C   0  0  0  0  0  0  0  0  0  0  0  0
    8.1215   -0.4189   18.3588 H   0  0  0  0  0  0  0  0  0  0  0  0
    6.6627    0.0083   19.8912 C   0  0  0  0  0  0  0  0  0  0  0  0
    7.3971   -0.6893   21.0186 C   0  0  2  0  0  0  0  0  0  0  0  0
    8.1966   -1.2899   20.5819 H   0  0  0  0  0  0  0  0  0  0  0  0
    6.5194   -1.6783   21.7876 C   0  0  0  0  0  0  0  0  0  0  0  0
    5.8718   -2.6068   21.3498 O   0  0  0  0  0  0  0  0  0  0  0  0
    6.5866   -1.3288   23.0925 N   0  0  0  0  0  0  0  0  0  0  0  0
    6.0031   -1.8570   23.7186 H   0  0  0  0  0  0  0  0  0  0  0  0
    7.3859   -0.1826   23.4477 C   0  0  0  0  0  0  0  0  0  0  0  0
    8.1723   -0.4642   24.1605 H   0  0  0  0  0  0  0  0  0  0  0  0
    6.7909    0.6101   23.9273 H   0  0  0  0  0  0  0  0  0  0  0  0
    7.9566    0.2895   22.0918 C   0  0  1  0  0  0  0  0  0  0  0  0
    7.5495    1.2865   21.8904 H   0  0  0  0  0  0  0  0  0  0  0  0
    9.4667    0.4289   22.0563 C   0  0  0  0  0  0  0  0  0  0  0  0
   10.0368    1.6762   21.7404 C   0  0  0  0  0  0  0  0  0  0  0  0
    9.3719    2.5120   21.5291 H   0  0  0  0  0  0  0  0  0  0  0  0
   11.4173    1.8647   21.7007 C   0  0  0  0  0  0  0  0  0  0  0  0
   11.8233    2.8442   21.4602 H   0  0  0  0  0  0  0  0  0  0  0  0
   12.2675    0.7928   21.9795 C   0  0  0  0  0  0  0  0  0  0  0  0
   13.3436    0.9251   21.9512 H   0  0  0  0  0  0  0  0  0  0  0  0
   11.7394   -0.4650   22.2718 C   0  0  0  0  0  0  0  0  0  0  0  0
   12.3847   -1.3149   22.4724 H   0  0  0  0  0  0  0  0  0  0  0  0
   10.3535   -0.6375   22.3047 C   0  0  0  0  0  0  0  0  0  0  0  0
    9.7883   -2.2458   22.6722 Cl  0  0  0  0  0  0  0  0  0  0  0  0
    5.4460    0.6488   20.1499 C   0  0  0  0  0  0  0  0  0  0  0  0
    5.0152    0.6279   21.1554 H   0  0  0  0  0  0  0  0  0  0  0  0
    4.8076    1.3088   19.0992 C   0  0  0  0  0  0  0  0  0  0  0  0
    3.8779    1.8415   19.2564 H   0  0  0  0  0  0  0  0  0  0  0  0
  1  2  1  0
  2  3  2  0
  3  4  1  0
  4  5  1  0
  4  6  2  0
  6  7  1  0
  7  8  1  6
  7  9  1  0
  9 10  2  0
  9 11  1  0
 11 12  1  0
 11 13  1  0
 13 14  1  0
 13 15  1  0
 13 16  1  0
 16 17  1  6
 16 18  1  0
 18 19  2  0
 19 20  1  0
 19 21  1  0
 21 22  1  0
 21 23  2  0
 23 24  1  0
 23 25  1  0
 25 26  1  0
 25 27  2  0
 27 28  1  0
  6 29  1  0
 29 30  1  0
 29 31  2  0
 31 32  1  0
 31  2  1  0
 16  7  1  0
 27 18  1  0
M  END
>  <cnnaffinity>  (1) 
-5.41265

>  <filename>  (1) 
O=C1NC[C@@H](c2ccccc2Cl)[C@@H]1c1cccnc1

$$$$
