
     RDKit          3D

 29 31  0  0  0  0  0  0  0  0999 V2000
    4.9309    1.7906   17.0304 H   0  0  0  0  0  0  0  0  0  0  0  0
    5.4070    1.2743   17.8609 C   0  0  0  0  0  0  0  0  0  0  0  0
    6.5634    0.6505   17.5825 N   0  0  0  0  0  0  0  0  0  0  0  0
    7.2036    0.0446   18.5871 C   0  0  0  0  0  0  0  0  0  0  0  0
    8.1510   -0.4291   18.3456 H   0  0  0  0  0  0  0  0  0  0  0  0
    6.7071   -0.0048   19.9124 C   0  0  0  0  0  0  0  0  0  0  0  0
    7.4018   -0.6787   20.9859 N   0  0  0  0  0  0  0  0  0  0  0  0
    8.7797   -0.6615   21.1704 C   0  0  0  0  0  0  0  0  0  0  0  0
    9.5794   -0.0664   20.4998 O   0  0  0  0  0  0  0  0  0  0  0  0
    9.0392   -1.5918   22.3624 C   0  0  0  0  0  0  0  0  0  0  0  0
   10.0875   -1.9089   22.8555 O   0  0  0  0  0  0  0  0  0  0  0  0
    7.7901   -2.0375   22.7581 N   0  0  0  0  0  0  0  0  0  0  0  0
    7.5810   -3.0771   23.7176 C   0  0  0  0  0  0  0  0  0  0  0  0
    8.2736   -4.2879   23.5606 C   0  0  0  0  0  0  0  0  0  0  0  0
    8.9840   -4.3613   22.7427 H   0  0  0  0  0  0  0  0  0  0  0  0
    8.0824   -5.3572   24.4387 C   0  0  0  0  0  0  0  0  0  0  0  0
    8.6259   -6.2899   24.3214 H   0  0  0  0  0  0  0  0  0  0  0  0
    7.1918   -5.2006   25.5044 C   0  0  0  0  0  0  0  0  0  0  0  0
    6.9260   -6.4959   26.6348 Cl  0  0  0  0  0  0  0  0  0  0  0  0
    6.5065   -4.0017   25.6987 C   0  0  0  0  0  0  0  0  0  0  0  0
    5.8249   -3.9010   26.5364 H   0  0  0  0  0  0  0  0  0  0  0  0
    6.7020   -2.9354   24.8109 C   0  0  0  0  0  0  0  0  0  0  0  0
    5.8493   -1.4577   25.1206 Cl  0  0  0  0  0  0  0  0  0  0  0  0
    6.8364   -1.6685   21.8108 C   0  0  0  0  0  0  0  0  0  0  0  0
    5.7635   -2.1849   21.6795 O   0  0  0  0  0  0  0  0  0  0  0  0
    5.4835    0.6203   20.1766 C   0  0  0  0  0  0  0  0  0  0  0  0
    5.0650    0.5663   21.1798 H   0  0  0  0  0  0  0  0  0  0  0  0
    4.8255    1.2868   19.1325 C   0  0  0  0  0  0  0  0  0  0  0  0
    3.8904    1.8214   19.2899 H   0  0  0  0  0  0  0  0  0  0  0  0
  1  2  1  0
  2  3  2  0
  3  4  1  0
  4  5  1  0
  4  6  2  0
  6  7  1  0
  7  8  1  0
  8  9  2  0
  8 10  1  0
 10 11  2  0
 10 12  1  0
 12 13  1  0
 13 14  2  0
 14 15  1  0
 14 16  1  0
 16 17  1  0
 16 18  2  0
 18 19  1  0
 18 20  1  0
 20 21  1  0
 20 22  2  0
 22 23  1  0
 12 24  1  0
 24 25  2  0
  6 26  1  0
 26 27  1  0
 26 28  2  0
 28 29  1  0
 28  2  1  0
 24  7  1  0
 22 13  1  0
M  END
>  <cnnaffinity>  (1) 
-5.07379

>  <filename>  (1) 
O=C1C(=O)N(c2ccc(Cl)cc2Cl)C(=O)N1c1cccnc1

$$$$
