
     RDKit          3D

 37 40  0  0  0  0  0  0  0  0999 V2000
    4.9871    1.8088   16.9824 H   0  0  0  0  0  0  0  0  0  0  0  0
    5.4569    1.3034   17.8227 C   0  0  0  0  0  0  0  0  0  0  0  0
    6.6387    0.7129   17.5706 N   0  0  0  0  0  0  0  0  0  0  0  0
    7.2465    0.0930   18.5857 C   0  0  0  0  0  0  0  0  0  0  0  0
    8.2150   -0.3610   18.3906 H   0  0  0  0  0  0  0  0  0  0  0  0
    6.6816   -0.0196   19.8684 C   0  0  0  0  0  0  0  0  0  0  0  0
    7.3731   -0.7565   20.8767 N   0  0  0  0  0  0  0  0  0  0  0  0
    8.7115   -0.4933   20.9489 N   0  0  0  0  0  0  0  0  0  0  0  0
    9.3961   -0.9928   21.9361 C   0  0  0  0  0  0  0  0  0  0  0  0
   10.8261   -0.4727   22.0753 C   0  0  0  0  0  0  0  0  0  0  0  0
   11.2077   -0.2514   21.0748 H   0  0  0  0  0  0  0  0  0  0  0  0
   11.4616   -1.2338   22.5372 H   0  0  0  0  0  0  0  0  0  0  0  0
   10.9092    0.7509   22.9086 N   0  0  0  0  0  0  0  0  0  0  0  0
   10.6484    0.6723   24.2817 C   0  0  0  0  0  0  0  0  0  0  0  0
   10.8813   -0.3088   24.9473 O   0  0  0  0  0  0  0  0  0  0  0  0
   10.0673    1.9849   24.6820 C   0  0  0  0  0  0  0  0  0  0  0  0
    9.4538    2.3699   25.8766 C   0  0  0  0  0  0  0  0  0  0  0  0
    9.2474    1.6384   26.6556 H   0  0  0  0  0  0  0  0  0  0  0  0
    9.0966    3.7150   26.0145 C   0  0  0  0  0  0  0  0  0  0  0  0
    8.6596    4.0741   26.9436 H   0  0  0  0  0  0  0  0  0  0  0  0
    9.3421    4.6353   24.9746 C   0  0  0  0  0  0  0  0  0  0  0  0
    9.0907    5.6799   25.1303 H   0  0  0  0  0  0  0  0  0  0  0  0
    9.8526    4.2154   23.7396 C   0  0  0  0  0  0  0  0  0  0  0  0
    9.9693    4.9330   22.9269 H   0  0  0  0  0  0  0  0  0  0  0  0
   10.1939    2.8617   23.6044 C   0  0  0  0  0  0  0  0  0  0  0  0
   10.6440    2.0457   22.4247 C   0  0  0  0  0  0  0  0  0  0  0  0
   10.7304    2.3569   21.2621 O   0  0  0  0  0  0  0  0  0  0  0  0
    8.8148   -1.9092   22.8906 C   0  0  0  0  0  0  0  0  0  0  0  0
    9.4229   -2.2682   23.7173 H   0  0  0  0  0  0  0  0  0  0  0  0
    7.5140   -2.2855   22.7382 C   0  0  0  0  0  0  0  0  0  0  0  0
    6.9926   -2.9794   23.3883 H   0  0  0  0  0  0  0  0  0  0  0  0
    6.6912   -1.7644   21.6528 C   0  0  0  0  0  0  0  0  0  0  0  0
    5.5570   -2.1339   21.4007 O   0  0  0  0  0  0  0  0  0  0  0  0
    5.4582    0.6023   20.1312 C   0  0  0  0  0  0  0  0  0  0  0  0
    5.0157    0.5482   21.1249 H   0  0  0  0  0  0  0  0  0  0  0  0
    4.8426    1.2874   19.0787 C   0  0  0  0  0  0  0  0  0  0  0  0
    3.9054    1.8125   19.2247 H   0  0  0  0  0  0  0  0  0  0  0  0
  1  2  1  0
  2  3  2  0
  3  4  1  0
  4  5  1  0
  4  6  2  0
  6  7  1  0
  7  8  1  0
  8  9  2  0
  9 10  1  0
 10 11  1  0
 10 12  1  0
 10 13  1  0
 13 14  1  0
 14 15  2  0
 14 16  1  0
 16 17  2  0
 17 18  1  0
 17 19  1  0
 19 20  1  0
 19 21  2  0
 21 22  1  0
 21 23  1  0
 23 24  1  0
 23 25  2  0
 25 26  1  0
 26 27  2  0
  9 28  1  0
 28 29  1  0
 28 30  2  0
 30 31  1  0
 30 32  1  0
 32 33  2  0
  6 34  1  0
 34 35  1  0
 34 36  2  0
 36 37  1  0
 36  2  1  0
 32  7  1  0
 26 13  1  0
 25 16  1  0
M  END
>  <cnnaffinity>  (1) 
-5.38056

>  <filename>  (1) 
O=C1c2ccccc2C(=O)N1Cc1ccc(=O)n(-c2cccnc2)n1

$$$$
