
     RDKit          3D

 33 35  0  0  0  0  0  0  0  0999 V2000
    4.9068    1.7877   16.9354 H   0  0  0  0  0  0  0  0  0  0  0  0
    5.3684    1.3389   17.8140 C   0  0  0  0  0  0  0  0  0  0  0  0
    6.5464    0.7285   17.6139 N   0  0  0  0  0  0  0  0  0  0  0  0
    7.1259    0.1694   18.6780 C   0  0  0  0  0  0  0  0  0  0  0  0
    8.0812   -0.3127   18.4849 H   0  0  0  0  0  0  0  0  0  0  0  0
    6.5998    0.1954   19.9829 C   0  0  0  0  0  0  0  0  0  0  0  0
    7.3671   -0.4786   21.0492 C   0  0  0  0  0  0  0  0  0  0  0  0
    7.1166   -0.0568   22.3271 O   0  0  0  0  0  0  0  0  0  0  0  0
    7.7875   -0.6433   23.3817 C   0  0  0  0  0  0  0  0  0  0  0  0
    7.5479   -0.0082   24.6981 C   0  0  0  0  0  0  0  0  0  0  0  0
    8.4834   -0.1649   25.7400 C   0  0  0  0  0  0  0  0  0  0  0  0
    9.4198   -0.7008   25.5754 H   0  0  0  0  0  0  0  0  0  0  0  0
    8.2254    0.3904   26.9922 C   0  0  0  0  0  0  0  0  0  0  0  0
    8.9475    0.2537   27.7922 H   0  0  0  0  0  0  0  0  0  0  0  0
    7.0493    1.1111   27.2224 C   0  0  0  0  0  0  0  0  0  0  0  0
    6.8911    1.5494   28.2032 H   0  0  0  0  0  0  0  0  0  0  0  0
    6.1114    1.2638   26.1898 C   0  0  0  0  0  0  0  0  0  0  0  0
    4.8067    1.9888   26.4065 C   0  0  0  0  0  0  0  0  0  0  0  0
    3.8299    1.1508   26.8027 F   0  0  0  0  0  0  0  0  0  0  0  0
    4.9009    2.9497   27.3413 F   0  0  0  0  0  0  0  0  0  0  0  0
    4.3756    2.5769   25.2742 F   0  0  0  0  0  0  0  0  0  0  0  0
    6.3599    0.6950   24.9377 C   0  0  0  0  0  0  0  0  0  0  0  0
    5.6449    0.7839   24.1261 H   0  0  0  0  0  0  0  0  0  0  0  0
    8.4958   -1.7772   23.2197 C   0  0  0  0  0  0  0  0  0  0  0  0
    8.9256   -2.3134   24.0507 H   0  0  0  0  0  0  0  0  0  0  0  0
    8.6081   -2.3811   21.9016 C   0  0  0  0  0  0  0  0  0  0  0  0
    8.9879   -3.5245   21.7220 O   0  0  0  0  0  0  0  0  0  0  0  0
    8.1889   -1.5123   20.8189 C   0  0  0  0  0  0  0  0  0  0  0  0
    8.4851   -1.8048   19.8344 H   0  0  0  0  0  0  0  0  0  0  0  0
    5.3516    0.8126   20.1696 C   0  0  0  0  0  0  0  0  0  0  0  0
    4.8792    0.8300   21.1523 H   0  0  0  0  0  0  0  0  0  0  0  0
    4.7350    1.3917   19.0610 C   0  0  0  0  0  0  0  0  0  0  0  0
    3.7749    1.8862   19.1456 H   0  0  0  0  0  0  0  0  0  0  0  0
  1  2  1  0
  2  3  2  0
  3  4  1  0
  4  5  1  0
  4  6  2  0
  6  7  1  0
  7  8  1  0
  8  9  1  0
  9 10  1  0
 10 11  2  0
 11 12  1  0
 11 13  1  0
 13 14  1  0
 13 15  2  0
 15 16  1  0
 15 17  1  0
 17 18  1  0
 18 19  1  0
 18 20  1  0
 18 21  1  0
 17 22  2  0
 22 23  1  0
  9 24  2  0
 24 25  1  0
 24 26  1  0
 26 27  2  0
 26 28  1  0
 28 29  1  0
  6 30  1  0
 30 31  1  0
 30 32  2  0
 32 33  1  0
 32  2  1  0
 28  7  2  0
 22 10  1  0
M  END
>  <cnnaffinity>  (1) 
-5.28677

>  <filename>  (1) 
O=c1cc(-c2cccnc2)oc(-c2cccc(C(F)(F)F)c2)c1

$$$$
