
     RDKit          3D

 33 35  0  0  0  0  0  0  0  0999 V2000
    4.9772    1.7845   16.9821 H   0  0  0  0  0  0  0  0  0  0  0  0
    5.4551    1.3030   17.8326 C   0  0  0  0  0  0  0  0  0  0  0  0
    6.6358    0.7083   17.5794 N   0  0  0  0  0  0  0  0  0  0  0  0
    7.2459    0.0981   18.5996 C   0  0  0  0  0  0  0  0  0  0  0  0
    8.2154   -0.3629   18.4180 H   0  0  0  0  0  0  0  0  0  0  0  0
    6.6849    0.0000   19.8843 C   0  0  0  0  0  0  0  0  0  0  0  0
    7.3763   -0.7346   20.8932 N   0  0  0  0  0  0  0  0  0  0  0  0
    8.7159   -0.4601   20.9848 N   0  0  0  0  0  0  0  0  0  0  0  0
    9.4037   -1.0003   21.9499 C   0  0  0  0  0  0  0  0  0  0  0  0
   10.8579   -0.5847   22.0355 C   0  0  0  0  0  0  0  0  0  0  0  0
   11.2719   -0.5964   21.0206 H   0  0  0  0  0  0  0  0  0  0  0  0
   11.4154   -1.3109   22.6403 H   0  0  0  0  0  0  0  0  0  0  0  0
   10.9823    0.7978   22.6556 C   0  0  0  0  0  0  0  0  0  0  0  0
   11.1272    1.9568   21.8761 C   0  0  0  0  0  0  0  0  0  0  0  0
   11.1476    1.8721   20.7920 H   0  0  0  0  0  0  0  0  0  0  0  0
   11.2118    3.2222   22.4626 C   0  0  0  0  0  0  0  0  0  0  0  0
   11.4327    4.0855   21.8448 H   0  0  0  0  0  0  0  0  0  0  0  0
   11.0130    3.3682   23.8369 C   0  0  0  0  0  0  0  0  0  0  0  0
   11.0075    4.3478   24.2998 H   0  0  0  0  0  0  0  0  0  0  0  0
   10.7757    2.2411   24.6225 C   0  0  0  0  0  0  0  0  0  0  0  0
   10.5053    2.3184   25.6663 H   0  0  0  0  0  0  0  0  0  0  0  0
   10.8430    0.9779   24.0404 C   0  0  0  0  0  0  0  0  0  0  0  0
   10.8192   -0.3758   25.1334 Cl  0  0  0  0  0  0  0  0  0  0  0  0
    8.7992   -1.9163   22.8922 C   0  0  0  0  0  0  0  0  0  0  0  0
    9.4003   -2.3215   23.7015 H   0  0  0  0  0  0  0  0  0  0  0  0
    7.4974   -2.2641   22.7456 C   0  0  0  0  0  0  0  0  0  0  0  0
    6.9774   -2.9590   23.3933 H   0  0  0  0  0  0  0  0  0  0  0  0
    6.6844   -1.7421   21.6565 C   0  0  0  0  0  0  0  0  0  0  0  0
    5.5564   -2.1202   21.3932 O   0  0  0  0  0  0  0  0  0  0  0  0
    5.4577    0.6185   20.1486 C   0  0  0  0  0  0  0  0  0  0  0  0
    5.0189    0.5893   21.1474 H   0  0  0  0  0  0  0  0  0  0  0  0
    4.8432    1.2964   19.0907 C   0  0  0  0  0  0  0  0  0  0  0  0
    3.9020    1.8182   19.2275 H   0  0  0  0  0  0  0  0  0  0  0  0
  1  2  1  0
  2  3  2  0
  3  4  1  0
  4  5  1  0
  4  6  2  0
  6  7  1  0
  7  8  1  0
  8  9  2  0
  9 10  1  0
 10 11  1  0
 10 12  1  0
 10 13  1  0
 13 14  2  0
 14 15  1  0
 14 16  1  0
 16 17  1  0
 16 18  2  0
 18 19  1  0
 18 20  1  0
 20 21  1  0
 20 22  2  0
 22 23  1  0
  9 24  1  0
 24 25  1  0
 24 26  2  0
 26 27  1  0
 26 28  1  0
 28 29  2  0
  6 30  1  0
 30 31  1  0
 30 32  2  0
 32 33  1  0
 32  2  1  0
 28  7  1  0
 22 13  1  0
M  END
>  <cnnaffinity>  (1) 
-5.68053

>  <filename>  (1) 
O=c1ccc(Cc2ccccc2Cl)nn1-c1cccnc1

$$$$
