
     RDKit          3D

 33 35  0  0  0  0  0  0  0  0999 V2000
    4.9058    1.7545   16.9183 H   0  0  0  0  0  0  0  0  0  0  0  0
    5.3758    1.3598   17.8181 C   0  0  0  0  0  0  0  0  0  0  0  0
    6.5812    0.7987   17.6512 N   0  0  0  0  0  0  0  0  0  0  0  0
    7.1625    0.2639   18.7323 C   0  0  0  0  0  0  0  0  0  0  0  0
    8.1315   -0.1994   18.5513 H   0  0  0  0  0  0  0  0  0  0  0  0
    6.6044    0.2740   20.0289 C   0  0  0  0  0  0  0  0  0  0  0  0
    7.3004   -0.4525   21.1309 C   0  0  0  0  0  0  0  0  0  0  0  0
    7.5226    0.3732   22.6625 S   0  0  0  0  0  0  0  0  0  0  0  0
    8.2937   -0.8613   23.6511 C   0  0  0  0  0  0  0  0  0  0  0  0
    8.4218   -0.5476   25.1344 C   0  0  0  0  0  0  0  0  0  0  0  0
    9.3819   -0.9471   25.4845 H   0  0  0  0  0  0  0  0  0  0  0  0
    8.4431    0.5335   25.2885 H   0  0  0  0  0  0  0  0  0  0  0  0
    7.2890   -1.1917   25.9209 C   0  0  0  0  0  0  0  0  0  0  0  0
    7.4172   -2.4745   26.4724 C   0  0  0  0  0  0  0  0  0  0  0  0
    8.3629   -3.0069   26.3988 H   0  0  0  0  0  0  0  0  0  0  0  0
    6.3425   -3.0822   27.1234 C   0  0  0  0  0  0  0  0  0  0  0  0
    6.4354   -4.0776   27.5475 H   0  0  0  0  0  0  0  0  0  0  0  0
    5.1214   -2.4086   27.2404 C   0  0  0  0  0  0  0  0  0  0  0  0
    3.8193   -3.1869   28.0769 Cl  0  0  0  0  0  0  0  0  0  0  0  0
    4.9737   -1.1321   26.6710 C   0  0  0  0  0  0  0  0  0  0  0  0
    3.4736   -0.2685   26.7481 Cl  0  0  0  0  0  0  0  0  0  0  0  0
    6.0557   -0.5378   26.0146 C   0  0  0  0  0  0  0  0  0  0  0  0
    5.9209    0.4394   25.5576 H   0  0  0  0  0  0  0  0  0  0  0  0
    8.6846   -2.0627   23.1795 C   0  0  0  0  0  0  0  0  0  0  0  0
    9.2387   -2.7654   23.7964 H   0  0  0  0  0  0  0  0  0  0  0  0
    8.3511   -2.6095   21.8652 C   0  0  0  0  0  0  0  0  0  0  0  0
    8.5742   -3.7745   21.5703 O   0  0  0  0  0  0  0  0  0  0  0  0
    7.7371   -1.7036   20.9032 C   0  0  0  0  0  0  0  0  0  0  0  0
    7.5931   -2.1147   19.9222 H   0  0  0  0  0  0  0  0  0  0  0  0
    5.3556    0.8932   20.1820 C   0  0  0  0  0  0  0  0  0  0  0  0
    4.8842    0.9483   21.1622 H   0  0  0  0  0  0  0  0  0  0  0  0
    4.7257    1.4263   19.0527 C   0  0  0  0  0  0  0  0  0  0  0  0
    3.7501    1.8922   19.1125 H   0  0  0  0  0  0  0  0  0  0  0  0
  1  2  1  0
  2  3  2  0
  3  4  1  0
  4  5  1  0
  4  6  2  0
  6  7  1  0
  7  8  1  0
  8  9  1  0
  9 10  1  0
 10 11  1  0
 10 12  1  0
 10 13  1  0
 13 14  2  0
 14 15  1  0
 14 16  1  0
 16 17  1  0
 16 18  2  0
 18 19  1  0
 18 20  1  0
 20 21  1  0
 20 22  2  0
 22 23  1  0
  9 24  2  0
 24 25  1  0
 24 26  1  0
 26 27  2  0
 26 28  1  0
 28 29  1  0
  6 30  1  0
 30 31  1  0
 30 32  2  0
 32 33  1  0
 32  2  1  0
 28  7  2  0
 22 13  1  0
M  END
>  <cnnaffinity>  (1) 
-5.83972

>  <filename>  (1) 
O=c1cc(Cc2ccc(Cl)c(Cl)c2)sc(-c2cccnc2)c1

$$$$
