
     RDKit          3D

 36 39  0  0  0  0  0  0  0  0999 V2000
    4.9083    1.7814   16.9945 H   0  0  0  0  0  0  0  0  0  0  0  0
    5.3980    1.2966   17.8340 C   0  0  0  0  0  0  0  0  0  0  0  0
    6.5633    0.6836   17.5631 N   0  0  0  0  0  0  0  0  0  0  0  0
    7.1846    0.0794   18.5832 C   0  0  0  0  0  0  0  0  0  0  0  0
    8.1226   -0.4340   18.3739 H   0  0  0  0  0  0  0  0  0  0  0  0
    6.6716    0.0344   19.8920 C   0  0  0  0  0  0  0  0  0  0  0  0
    7.3608   -0.6658   20.9368 N   0  0  0  0  0  0  0  0  0  0  0  0
    8.6418   -0.2710   21.2700 C   0  0  0  0  0  0  0  0  0  0  0  0
    9.0512    0.5725   20.7122 H   0  0  0  0  0  0  0  0  0  0  0  0
    9.3509   -0.8792   22.2694 C   0  0  0  0  0  0  0  0  0  0  0  0
   10.7210   -0.4421   22.6145 C   0  0  0  0  0  0  0  0  0  0  0  0
   11.7849   -1.3080   22.4592 C   0  0  0  0  0  0  0  0  0  0  0  0
   11.5971   -2.3299   22.1349 H   0  0  0  0  0  0  0  0  0  0  0  0
   13.0890   -0.9847   22.6697 N   0  0  0  0  0  0  0  0  0  0  0  0
   13.3407    0.2288   23.1095 C   0  0  0  0  0  0  0  0  0  0  0  0
   14.3799    0.4812   23.3143 H   0  0  0  0  0  0  0  0  0  0  0  0
   12.3486    1.2275   23.3340 C   0  0  0  0  0  0  0  0  0  0  0  0
   12.6725    2.5430   23.7763 C   0  0  0  0  0  0  0  0  0  0  0  0
   13.7185    2.7955   23.9373 H   0  0  0  0  0  0  0  0  0  0  0  0
   11.6798    3.4680   23.9951 C   0  0  0  0  0  0  0  0  0  0  0  0
   11.9216    4.4693   24.3422 H   0  0  0  0  0  0  0  0  0  0  0  0
   10.3184    3.1254   23.7733 C   0  0  0  0  0  0  0  0  0  0  0  0
    9.5374    3.8594   23.9480 H   0  0  0  0  0  0  0  0  0  0  0  0
    9.9796    1.8657   23.3360 C   0  0  0  0  0  0  0  0  0  0  0  0
    8.9386    1.5948   23.1805 H   0  0  0  0  0  0  0  0  0  0  0  0
   10.9883    0.8846   23.0857 C   0  0  0  0  0  0  0  0  0  0  0  0
    8.7474   -1.9737   22.9594 C   0  0  0  0  0  0  0  0  0  0  0  0
    9.3071   -2.4562   23.7638 H   0  0  0  0  0  0  0  0  0  0  0  0
    7.4887   -2.3804   22.6495 C   0  0  0  0  0  0  0  0  0  0  0  0
    6.9878   -3.2023   23.1351 H   0  0  0  0  0  0  0  0  0  0  0  0
    6.6998   -1.7585   21.6011 C   0  0  0  0  0  0  0  0  0  0  0  0
    5.5878   -2.1427   21.2737 O   0  0  0  0  0  0  0  0  0  0  0  0
    5.4468    0.6555   20.1581 C   0  0  0  0  0  0  0  0  0  0  0  0
    5.0190    0.6132   21.1619 H   0  0  0  0  0  0  0  0  0  0  0  0
    4.8087    1.3145   19.1046 C   0  0  0  0  0  0  0  0  0  0  0  0
    3.8734    1.8429   19.2621 H   0  0  0  0  0  0  0  0  0  0  0  0
  1  2  1  0
  2  3  2  0
  3  4  1  0
  4  5  1  0
  4  6  2  0
  6  7  1  0
  7  8  1  0
  8  9  1  0
  8 10  2  0
 10 11  1  0
 11 12  2  0
 12 13  1  0
 12 14  1  0
 14 15  2  0
 15 16  1  0
 15 17  1  0
 17 18  2  0
 18 19  1  0
 18 20  1  0
 20 21  1  0
 20 22  2  0
 22 23  1  0
 22 24  1  0
 24 25  1  0
 24 26  2  0
 10 27  1  0
 27 28  1  0
 27 29  2  0
 29 30  1  0
 29 31  1  0
 31 32  2  0
  6 33  1  0
 33 34  1  0
 33 35  2  0
 35 36  1  0
 35  2  1  0
 31  7  1  0
 26 11  1  0
 26 17  1  0
M  END
>  <cnnaffinity>  (1) 
-5.81042

>  <filename>  (1) 
O=c1ccc(-c2cncc3ccccc23)cn1-c1cccnc1

$$$$
