
     RDKit          3D

 25 27  0  0  0  0  0  0  0  0999 V2000
    4.9972    1.9102   16.9058 H   0  0  0  0  0  0  0  0  0  0  0  0
    5.4492    1.3764   17.7394 C   0  0  0  0  0  0  0  0  0  0  0  0
    6.6349    0.7990   17.4899 N   0  0  0  0  0  0  0  0  0  0  0  0
    7.2286    0.1513   18.4958 C   0  0  0  0  0  0  0  0  0  0  0  0
    8.2254   -0.2452   18.3080 H   0  0  0  0  0  0  0  0  0  0  0  0
    6.6408   -0.0308   19.7609 C   0  0  0  0  0  0  0  0  0  0  0  0
    7.3814   -0.8564   20.7701 C   0  0  0  0  0  0  0  0  0  0  0  0
    8.6670   -0.6347   20.8289 N   0  0  0  0  0  0  0  0  0  0  0  0
    9.4083   -1.1562   21.8717 N   0  0  0  0  0  0  0  0  0  0  0  0
   10.7580   -0.8027   22.0259 C   0  0  0  0  0  0  0  0  0  0  0  0
   11.2608    0.4568   21.9166 N   0  0  0  0  0  0  0  0  0  0  0  0
   12.5117    0.3740   22.2286 N   0  0  0  0  0  0  0  0  0  0  0  0
   12.7389   -0.8905   22.5161 N   0  0  0  0  0  0  0  0  0  0  0  0
   13.6514   -1.2221   22.8071 H   0  0  0  0  0  0  0  0  0  0  0  0
   11.6824   -1.6771   22.4233 N   0  0  0  0  0  0  0  0  0  0  0  0
    8.8281   -1.9448   22.8590 C   0  0  0  0  0  0  0  0  0  0  0  0
    9.5021   -2.2467   23.6625 H   0  0  0  0  0  0  0  0  0  0  0  0
    7.5361   -2.3058   22.7931 C   0  0  0  0  0  0  0  0  0  0  0  0
    7.0746   -2.9555   23.5208 H   0  0  0  0  0  0  0  0  0  0  0  0
    6.7008   -1.8939   21.6662 C   0  0  0  0  0  0  0  0  0  0  0  0
    5.5898   -2.3683   21.4797 O   0  0  0  0  0  0  0  0  0  0  0  0
    5.4145    0.6063   20.0158 C   0  0  0  0  0  0  0  0  0  0  0  0
    4.9536    0.5546   21.0045 H   0  0  0  0  0  0  0  0  0  0  0  0
    4.8118    1.3264   18.9830 C   0  0  0  0  0  0  0  0  0  0  0  0
    3.8808    1.8660   19.1224 H   0  0  0  0  0  0  0  0  0  0  0  0
  1  2  1  0
  2  3  2  0
  3  4  1  0
  4  5  1  0
  4  6  2  0
  6  7  1  0
  7  8  2  0
  8  9  1  0
  9 10  1  0
 10 11  1  0
 11 12  2  0
 12 13  1  0
 13 14  1  0
 13 15  1  0
  9 16  1  0
 16 17  1  0
 16 18  2  0
 18 19  1  0
 18 20  1  0
 20 21  2  0
  6 22  1  0
 22 23  1  0
 22 24  2  0
 24 25  1  0
 24  2  1  0
 20  7  1  0
 15 10  2  0
M  END
>  <cnnaffinity>  (1) 
-4.91429

>  <filename>  (1) 
O=c1ccn(-c2nn[nH]n2)nc1-c1cccnc1

$$$$
