
     RDKit          3D

 35 38  0  0  0  0  0  0  0  0999 V2000
    4.9269    1.8300   16.9708 H   0  0  0  0  0  0  0  0  0  0  0  0
    5.4006    1.3234   17.8095 C   0  0  0  0  0  0  0  0  0  0  0  0
    6.5634    0.7065   17.5453 N   0  0  0  0  0  0  0  0  0  0  0  0
    7.1788    0.0731   18.5515 C   0  0  0  0  0  0  0  0  0  0  0  0
    8.1256   -0.4108   18.3098 H   0  0  0  0  0  0  0  0  0  0  0  0
    6.6546   -0.0073   19.8583 C   0  0  0  0  0  0  0  0  0  0  0  0
    7.3552   -0.7127   20.9191 N   0  0  0  0  0  0  0  0  0  0  0  0
    8.6389   -0.3098   21.2648 C   0  0  0  0  0  0  0  0  0  0  0  0
    9.0375    0.5261   20.6893 H   0  0  0  0  0  0  0  0  0  0  0  0
    9.3647   -0.8962   22.2490 C   0  0  0  0  0  0  0  0  0  0  0  0
   10.7294   -0.4278   22.5538 C   0  0  0  0  0  0  0  0  0  0  0  0
   11.8227   -1.2979   22.4487 C   0  0  0  0  0  0  0  0  0  0  0  0
   11.6441   -2.3505   22.2513 H   0  0  0  0  0  0  0  0  0  0  0  0
   13.1457   -0.8450   22.6353 C   0  0  0  0  0  0  0  0  0  0  0  0
   13.9717   -1.5359   22.4768 H   0  0  0  0  0  0  0  0  0  0  0  0
   13.4064    0.4535   23.0595 C   0  0  0  0  0  0  0  0  0  0  0  0
   14.4079    0.7748   23.3329 H   0  0  0  0  0  0  0  0  0  0  0  0
   12.3159    1.3311   23.1678 C   0  0  0  0  0  0  0  0  0  0  0  0
   10.9851    0.9348   22.8797 C   0  0  0  0  0  0  0  0  0  0  0  0
   10.1722    2.1113   23.0428 C   0  0  0  0  0  0  0  0  0  0  0  0
    9.1019    2.1798   22.8947 H   0  0  0  0  0  0  0  0  0  0  0  0
   10.9987    3.1318   23.4087 C   0  0  0  0  0  0  0  0  0  0  0  0
   10.7728    4.1784   23.5588 H   0  0  0  0  0  0  0  0  0  0  0  0
   12.2880    2.6622   23.5088 N   0  0  0  0  0  0  0  0  0  0  0  0
   13.0985    3.2285   23.6916 H   0  0  0  0  0  0  0  0  0  0  0  0
    8.7704   -2.0329   22.9878 C   0  0  0  0  0  0  0  0  0  0  0  0
    9.2598   -2.6997   23.8718 O   0  0  0  0  0  0  0  0  0  0  0  0
    7.4744   -2.3310   22.6043 N   0  0  0  0  0  0  0  0  0  0  0  0
    7.0263   -3.0744   23.1065 H   0  0  0  0  0  0  0  0  0  0  0  0
    6.7245   -1.7797   21.6124 C   0  0  0  0  0  0  0  0  0  0  0  0
    5.6267   -2.2200   21.3587 O   0  0  0  0  0  0  0  0  0  0  0  0
    5.4384    0.6374   20.1192 C   0  0  0  0  0  0  0  0  0  0  0  0
    5.0100    0.6043   21.1193 H   0  0  0  0  0  0  0  0  0  0  0  0
    4.8046    1.3214   19.0740 C   0  0  0  0  0  0  0  0  0  0  0  0
    3.8669    1.8486   19.2239 H   0  0  0  0  0  0  0  0  0  0  0  0
  1  2  1  0
  2  3  2  0
  3  4  1  0
  4  5  1  0
  4  6  2  0
  6  7  1  0
  7  8  1  0
  8  9  1  0
  8 10  2  0
 10 11  1  0
 11 12  2  0
 12 13  1  0
 12 14  1  0
 14 15  1  0
 14 16  2  0
 16 17  1  0
 16 18  1  0
 18 19  2  0
 19 20  1  0
 20 21  1  0
 20 22  2  0
 22 23  1  0
 22 24  1  0
 24 25  1  0
 10 26  1  0
 26 27  2  0
 26 28  1  0
 28 29  1  0
 28 30  1  0
 30 31  2  0
  6 32  1  0
 32 33  1  0
 32 34  2  0
 34 35  1  0
 34  2  1  0
 30  7  1  0
 19 11  1  0
 24 18  1  0
M  END
>  <cnnaffinity>  (1) 
-6.06469

>  <filename>  (1) 
O=c1[nH]c(=O)n(-c2cccnc2)cc1-c1cccc2[nH]ccc12

$$$$
