
     RDKit          3D

 22 23  0  0  0  0  0  0  0  0999 V2000
    4.9830    1.8889   16.9938 H   0  0  0  0  0  0  0  0  0  0  0  0
    5.4750    1.3301   17.7858 C   0  0  0  0  0  0  0  0  0  0  0  0
    6.6314    0.7294   17.4635 N   0  0  0  0  0  0  0  0  0  0  0  0
    7.2593    0.0406   18.4252 C   0  0  0  0  0  0  0  0  0  0  0  0
    8.1896   -0.4288   18.1164 H   0  0  0  0  0  0  0  0  0  0  0  0
    6.7617   -0.1070   19.7426 C   0  0  0  0  0  0  0  0  0  0  0  0
    7.4537   -0.8551   20.7539 N   0  0  0  0  0  0  0  0  0  0  0  0
    8.7540   -0.6083   21.1941 C   0  0  0  0  0  0  0  0  0  0  0  0
    9.3943    0.0988   20.6896 H   0  0  0  0  0  0  0  0  0  0  0  0
    9.0167   -1.3851   22.2706 C   0  0  0  0  0  0  0  0  0  0  0  0
   10.3635   -1.5660   22.9513 C   0  0  0  0  0  0  0  0  0  0  0  0
   11.1645   -0.5190   22.6768 F   0  0  0  0  0  0  0  0  0  0  0  0
   10.9680   -2.6825   22.5096 F   0  0  0  0  0  0  0  0  0  0  0  0
   10.2865   -1.6556   24.2895 F   0  0  0  0  0  0  0  0  0  0  0  0
    7.8486   -2.1352   22.4924 N   0  0  0  0  0  0  0  0  0  0  0  0
    7.5849   -2.7281   23.2615 H   0  0  0  0  0  0  0  0  0  0  0  0
    6.8575   -1.8250   21.5893 C   0  0  0  0  0  0  0  0  0  0  0  0
    5.7605   -2.3397   21.5392 O   0  0  0  0  0  0  0  0  0  0  0  0
    5.5572    0.5386   20.0638 C   0  0  0  0  0  0  0  0  0  0  0  0
    5.1624    0.4773   21.0799 H   0  0  0  0  0  0  0  0  0  0  0  0
    4.9056    1.2654   19.0625 C   0  0  0  0  0  0  0  0  0  0  0  0
    3.9819    1.7976   19.2695 H   0  0  0  0  0  0  0  0  0  0  0  0
  1  2  1  0
  2  3  2  0
  3  4  1  0
  4  5  1  0
  4  6  2  0
  6  7  1  0
  7  8  1  0
  8  9  1  0
  8 10  2  0
 10 11  1  0
 11 12  1  0
 11 13  1  0
 11 14  1  0
 10 15  1  0
 15 16  1  0
 15 17  1  0
 17 18  2  0
  6 19  1  0
 19 20  1  0
 19 21  2  0
 21 22  1  0
 21  2  1  0
 17  7  1  0
M  END
>  <cnnaffinity>  (1) 
-4.87907

>  <filename>  (1) 
O=c1[nH]c(C(F)(F)F)cn1-c1cccnc1

$$$$
