
     RDKit          3D

 33 35  0  0  0  0  0  0  0  0999 V2000
    4.9885    1.8363   16.9481 H   0  0  0  0  0  0  0  0  0  0  0  0
    5.4555    1.3319   17.7914 C   0  0  0  0  0  0  0  0  0  0  0  0
    6.6401    0.7442   17.5436 N   0  0  0  0  0  0  0  0  0  0  0  0
    7.2476    0.1264   18.5601 C   0  0  0  0  0  0  0  0  0  0  0  0
    8.2186   -0.3214   18.3625 H   0  0  0  0  0  0  0  0  0  0  0  0
    6.6838    0.0156   19.8455 C   0  0  0  0  0  0  0  0  0  0  0  0
    7.3665   -0.7244   20.8615 N   0  0  0  0  0  0  0  0  0  0  0  0
    8.6906   -0.3983   21.0021 N   0  0  0  0  0  0  0  0  0  0  0  0
    9.3831   -1.0238   21.9041 C   0  0  0  0  0  0  0  0  0  0  0  0
   10.4121   -0.6928   21.9883 H   0  0  0  0  0  0  0  0  0  0  0  0
    8.8580   -2.0902   22.7237 C   0  0  0  0  0  0  0  0  0  0  0  0
    9.6781   -2.7600   23.8063 C   0  0  0  0  0  0  0  0  0  0  0  0
   10.7532   -2.6597   23.6256 H   0  0  0  0  0  0  0  0  0  0  0  0
    9.4556   -3.8334   23.8044 H   0  0  0  0  0  0  0  0  0  0  0  0
    9.3016   -2.1635   25.1497 C   0  0  0  0  0  0  0  0  0  0  0  0
    8.2831   -2.7381   25.9299 C   0  0  0  0  0  0  0  0  0  0  0  0
    7.8689   -3.7134   25.6701 H   0  0  0  0  0  0  0  0  0  0  0  0
    7.7225   -2.0522   27.0088 C   0  0  0  0  0  0  0  0  0  0  0  0
    6.8946   -2.5047   27.5451 H   0  0  0  0  0  0  0  0  0  0  0  0
    8.1833   -0.7762   27.3503 C   0  0  0  0  0  0  0  0  0  0  0  0
    7.7314   -0.2406   28.1856 H   0  0  0  0  0  0  0  0  0  0  0  0
    9.2289   -0.2037   26.6168 C   0  0  0  0  0  0  0  0  0  0  0  0
    9.5861    0.8017   26.8006 H   0  0  0  0  0  0  0  0  0  0  0  0
    9.8013   -0.9154   25.5589 C   0  0  0  0  0  0  0  0  0  0  0  0
   11.1825   -0.2048   24.7555 Cl  0  0  0  0  0  0  0  0  0  0  0  0
    7.5397   -2.4111   22.5666 C   0  0  0  0  0  0  0  0  0  0  0  0
    7.0309   -3.1351   23.1920 H   0  0  0  0  0  0  0  0  0  0  0  0
    6.6933   -1.7886   21.5707 C   0  0  0  0  0  0  0  0  0  0  0  0
    5.5430   -2.1077   21.3188 O   0  0  0  0  0  0  0  0  0  0  0  0
    5.4495    0.6235   20.0973 C   0  0  0  0  0  0  0  0  0  0  0  0
    4.9957    0.5615   21.0854 H   0  0  0  0  0  0  0  0  0  0  0  0
    4.8340    1.3097   19.0437 C   0  0  0  0  0  0  0  0  0  0  0  0
    3.8893    1.8264   19.1815 H   0  0  0  0  0  0  0  0  0  0  0  0
  1  2  1  0
  2  3  2  0
  3  4  1  0
  4  5  1  0
  4  6  2  0
  6  7  1  0
  7  8  1  0
  8  9  2  0
  9 10  1  0
  9 11  1  0
 11 12  1  0
 12 13  1  0
 12 14  1  0
 12 15  1  0
 15 16  2  0
 16 17  1  0
 16 18  1  0
 18 19  1  0
 18 20  2  0
 20 21  1  0
 20 22  1  0
 22 23  1  0
 22 24  2  0
 24 25  1  0
 11 26  2  0
 26 27  1  0
 26 28  1  0
 28 29  2  0
  6 30  1  0
 30 31  1  0
 30 32  2  0
 32 33  1  0
 32  2  1  0
 28  7  1  0
 24 15  1  0
M  END
>  <cnnaffinity>  (1) 
-5.40862

>  <filename>  (1) 
O=c1cc(Cc2ccccc2Cl)cnn1-c1cccnc1

$$$$
