
     RDKit          3D

 33 35  0  0  0  0  0  0  0  0999 V2000
    4.9628    1.7818   16.9195 H   0  0  0  0  0  0  0  0  0  0  0  0
    5.4234    1.2798   17.7670 C   0  0  0  0  0  0  0  0  0  0  0  0
    6.5748    0.6331   17.5204 N   0  0  0  0  0  0  0  0  0  0  0  0
    7.1709    0.0212   18.5483 C   0  0  0  0  0  0  0  0  0  0  0  0
    8.1032   -0.4955   18.3411 H   0  0  0  0  0  0  0  0  0  0  0  0
    6.6647    0.0297   19.8658 C   0  0  0  0  0  0  0  0  0  0  0  0
    7.3508   -0.6003   20.9293 N   0  0  0  0  0  0  0  0  0  0  0  0
    7.3961   -0.2050   22.2699 C   0  0  0  0  0  0  0  0  0  0  0  0
    6.8393    0.7830   22.7238 O   0  0  0  0  0  0  0  0  0  0  0  0
    8.2513   -1.2531   22.8933 C   0  0  0  0  0  0  0  0  0  0  0  0
    8.6670   -1.4072   24.1801 O   0  0  0  0  0  0  0  0  0  0  0  0
    8.2916   -0.4084   25.1229 C   0  0  0  0  0  0  0  0  0  0  0  0
    8.4534    0.5784   24.6713 H   0  0  0  0  0  0  0  0  0  0  0  0
    9.1517   -0.5642   26.3726 C   0  0  0  0  0  0  0  0  0  0  0  0
   10.1292   -0.0781   26.2705 H   0  0  0  0  0  0  0  0  0  0  0  0
    9.3320   -1.6373   26.5280 H   0  0  0  0  0  0  0  0  0  0  0  0
    8.2759    0.0179   27.4842 C   0  0  0  0  0  0  0  0  0  0  0  0
    8.6249   -0.2742   28.4780 H   0  0  0  0  0  0  0  0  0  0  0  0
    8.2772    1.1181   27.4428 H   0  0  0  0  0  0  0  0  0  0  0  0
    6.8733   -0.5153   27.1327 C   0  0  0  0  0  0  0  0  0  0  0  0
    6.0595    0.0665   27.5793 H   0  0  0  0  0  0  0  0  0  0  0  0
    6.7646   -1.5381   27.5111 H   0  0  0  0  0  0  0  0  0  0  0  0
    6.8240   -0.5316   25.5869 C   0  0  0  0  0  0  0  0  0  0  0  0
    6.2493    0.3074   25.1893 H   0  0  0  0  0  0  0  0  0  0  0  0
    6.3767   -1.4525   25.1916 H   0  0  0  0  0  0  0  0  0  0  0  0
    8.6261   -2.1124   21.9286 C   0  0  0  0  0  0  0  0  0  0  0  0
    9.2128   -3.0093   22.0598 H   0  0  0  0  0  0  0  0  0  0  0  0
    8.1909   -1.6919   20.6721 N   0  0  0  0  0  0  0  0  0  0  0  0
    7.7287   -2.3888   20.0827 H   0  0  0  0  0  0  0  0  0  0  0  0
    5.4563    0.6965   20.1082 C   0  0  0  0  0  0  0  0  0  0  0  0
    5.0531    0.7298   21.1171 H   0  0  0  0  0  0  0  0  0  0  0  0
    4.8223    1.3182   19.0297 C   0  0  0  0  0  0  0  0  0  0  0  0
    3.8824    1.8432   19.1649 H   0  0  0  0  0  0  0  0  0  0  0  0
  1  2  1  0
  2  3  2  0
  3  4  1  0
  4  5  1  0
  4  6  2  0
  6  7  1  0
  7  8  1  0
  8  9  2  0
  8 10  1  0
 10 11  1  0
 11 12  1  0
 12 13  1  0
 12 14  1  0
 14 15  1  0
 14 16  1  0
 14 17  1  0
 17 18  1  0
 17 19  1  0
 17 20  1  0
 20 21  1  0
 20 22  1  0
 20 23  1  0
 23 24  1  0
 23 25  1  0
 10 26  2  0
 26 27  1  0
 26 28  1  0
 28 29  1  0
  6 30  1  0
 30 31  1  0
 30 32  2  0
 32 33  1  0
 32  2  1  0
 28  7  1  0
 23 12  1  0
M  END
>  <cnnaffinity>  (1) 
-4.84237

>  <filename>  (1) 
O=c1c(OC2CCCC2)c[nH]n1-c1cccnc1

$$$$
