
     RDKit          3D

 31 33  0  0  0  0  0  0  0  0999 V2000
    9.9111   -1.2464   27.4081 H   0  0  0  0  0  0  0  0  0  0  0  0
    9.6146   -1.1316   26.4958 O   0  0  0  0  0  0  0  0  0  0  0  0
    9.0673   -2.2944   26.0645 C   0  0  0  0  0  0  0  0  0  0  0  0
    9.1242   -3.4614   26.8225 C   0  0  0  0  0  0  0  0  0  0  0  0
    9.8038   -3.5604   27.6531 H   0  0  0  0  0  0  0  0  0  0  0  0
    8.3586   -4.5731   26.4703 C   0  0  0  0  0  0  0  0  0  0  0  0
    8.3517   -5.9268   27.5527 Cl  0  0  0  0  0  0  0  0  0  0  0  0
    7.6368   -4.5977   25.2853 C   0  0  0  0  0  0  0  0  0  0  0  0
    7.0440   -5.4777   25.0563 H   0  0  0  0  0  0  0  0  0  0  0  0
    7.7243   -3.4892   24.4257 C   0  0  0  0  0  0  0  0  0  0  0  0
    7.2899   -3.5170   23.4345 H   0  0  0  0  0  0  0  0  0  0  0  0
    8.4254   -2.3375   24.7999 C   0  0  0  0  0  0  0  0  0  0  0  0
    8.5223   -1.1776   24.0264 O   0  0  0  0  0  0  0  0  0  0  0  0
    8.1134   -1.2824   22.7179 N   0  0  0  0  0  0  0  0  0  0  0  0
    7.1255   -0.4729   22.1756 C   0  0  0  0  0  0  0  0  0  0  0  0
    6.4647    0.0905   22.8191 H   0  0  0  0  0  0  0  0  0  0  0  0
    7.2325   -0.5909   20.8268 C   0  0  0  0  0  0  0  0  0  0  0  0
    6.5407    0.0719   19.7271 C   0  0  0  0  0  0  0  0  0  0  0  0
    7.0974    0.1220   18.4322 C   0  0  0  0  0  0  0  0  0  0  0  0
    8.0536   -0.3511   18.2216 H   0  0  0  0  0  0  0  0  0  0  0  0
    6.5427    0.7509   17.3926 N   0  0  0  0  0  0  0  0  0  0  0  0
    5.3795    1.3868   17.6097 C   0  0  0  0  0  0  0  0  0  0  0  0
    4.9554    1.9091   16.7550 H   0  0  0  0  0  0  0  0  0  0  0  0
    4.7280    1.3920   18.8466 C   0  0  0  0  0  0  0  0  0  0  0  0
    3.7920    1.9265   18.9554 H   0  0  0  0  0  0  0  0  0  0  0  0
    5.3130    0.7235   19.9215 C   0  0  0  0  0  0  0  0  0  0  0  0
    4.8316    0.6992   20.8975 H   0  0  0  0  0  0  0  0  0  0  0  0
    8.3225   -1.4234   20.5676 N   0  0  0  0  0  0  0  0  0  0  0  0
    8.4579   -2.0043   19.7607 H   0  0  0  0  0  0  0  0  0  0  0  0
    8.8932   -1.8859   21.7323 C   0  0  0  0  0  0  0  0  0  0  0  0
    9.7960   -2.6831   21.8305 O   0  0  0  0  0  0  0  0  0  0  0  0
  1  2  1  0
  2  3  1  0
  3  4  2  0
  4  5  1  0
  4  6  1  0
  6  7  1  0
  6  8  2  0
  8  9  1  0
  8 10  1  0
 10 11  1  0
 10 12  2  0
 12 13  1  0
 13 14  1  0
 14 15  1  0
 15 16  1  0
 15 17  2  0
 17 18  1  0
 18 19  2  0
 19 20  1  0
 19 21  1  0
 21 22  2  0
 22 23  1  0
 22 24  1  0
 24 25  1  0
 24 26  2  0
 26 27  1  0
 17 28  1  0
 28 29  1  0
 28 30  1  0
 30 31  2  0
 12  3  1  0
 30 14  1  0
 26 18  1  0
M  END
>  <cnnaffinity>  (1) 
-5.30054

>  <filename>  (1) 
O=c1[nH]c(-c2cccnc2)cn1Oc1ccc(Cl)cc1O

$$$$
