
     RDKit          3D

 30 32  0  0  0  0  0  0  0  0999 V2000
    4.9961    1.7364   17.0587 H   0  0  0  0  0  0  0  0  0  0  0  0
    5.4542    1.2764   17.9349 C   0  0  0  0  0  0  0  0  0  0  0  0
    6.6255    0.6569   17.7172 N   0  0  0  0  0  0  0  0  0  0  0  0
    7.2255    0.0984   18.7708 C   0  0  0  0  0  0  0  0  0  0  0  0
    8.1815   -0.3882   18.5764 H   0  0  0  0  0  0  0  0  0  0  0  0
    6.7160    0.1261   20.0799 C   0  0  0  0  0  0  0  0  0  0  0  0
    7.5060   -0.5012   21.1414 C   0  0  0  0  0  0  0  0  0  0  0  0
    8.4274   -1.4669   21.0402 C   0  0  0  0  0  0  0  0  0  0  0  0
    8.8147   -2.0190   20.1942 H   0  0  0  0  0  0  0  0  0  0  0  0
    8.9494   -1.7589   22.2731 O   0  0  0  0  0  0  0  0  0  0  0  0
    8.3753   -0.9483   23.2143 C   0  0  0  0  0  0  0  0  0  0  0  0
    8.6440   -0.9920   24.3870 O   0  0  0  0  0  0  0  0  0  0  0  0
    7.4656   -0.1368   22.5057 N   0  0  0  0  0  0  0  0  0  0  0  0
    6.8620    1.0425   22.9510 N   0  0  0  0  0  0  0  0  0  0  0  0
    7.2035    1.8893   22.5214 H   0  0  0  0  0  0  0  0  0  0  0  0
    6.3313    1.1720   24.2368 C   0  0  0  0  0  0  0  0  0  0  0  0
    5.7571    0.0688   24.8791 C   0  0  0  0  0  0  0  0  0  0  0  0
    5.8053   -0.8925   24.3814 H   0  0  0  0  0  0  0  0  0  0  0  0
    5.1721    0.2155   26.1338 C   0  0  0  0  0  0  0  0  0  0  0  0
    4.7202   -0.6511   26.6019 H   0  0  0  0  0  0  0  0  0  0  0  0
    5.1570    1.4565   26.7740 C   0  0  0  0  0  0  0  0  0  0  0  0
    4.6834    1.5649   27.7473 H   0  0  0  0  0  0  0  0  0  0  0  0
    5.7327    2.5583   26.1328 C   0  0  0  0  0  0  0  0  0  0  0  0
    5.7186    3.5309   26.6140 H   0  0  0  0  0  0  0  0  0  0  0  0
    6.3132    2.4260   24.8660 C   0  0  0  0  0  0  0  0  0  0  0  0
    6.7562    3.2880   24.3716 H   0  0  0  0  0  0  0  0  0  0  0  0
    5.4836    0.7713   20.2953 C   0  0  0  0  0  0  0  0  0  0  0  0
    5.0795    0.8196   21.3079 H   0  0  0  0  0  0  0  0  0  0  0  0
    4.8416    1.3437   19.1945 C   0  0  0  0  0  0  0  0  0  0  0  0
    3.8955    1.8666   19.2998 H   0  0  0  0  0  0  0  0  0  0  0  0
  1  2  1  0
  2  3  2  0
  3  4  1  0
  4  5  1  0
  4  6  2  0
  6  7  1  0
  7  8  2  0
  8  9  1  0
  8 10  1  0
 10 11  1  0
 11 12  2  0
 11 13  1  0
 13 14  1  0
 14 15  1  0
 14 16  1  0
 16 17  2  0
 17 18  1  0
 17 19  1  0
 19 20  1  0
 19 21  2  0
 21 22  1  0
 21 23  1  0
 23 24  1  0
 23 25  2  0
 25 26  1  0
  6 27  1  0
 27 28  1  0
 27 29  2  0
 29 30  1  0
 29  2  1  0
 13  7  1  0
 25 16  1  0
M  END
>  <cnnaffinity>  (1) 
-4.75992

>  <filename>  (1) 
O=c1occ(-c2cccnc2)n1Nc1ccccc1

$$$$
