
     RDKit          3D

 35 38  0  0  0  0  0  0  0  0999 V2000
    4.8832    1.7851   16.8784 H   0  0  0  0  0  0  0  0  0  0  0  0
    5.3434    1.3853   17.7765 C   0  0  0  0  0  0  0  0  0  0  0  0
    6.5584    0.8431   17.6084 N   0  0  0  0  0  0  0  0  0  0  0  0
    7.1471    0.3214   18.6879 C   0  0  0  0  0  0  0  0  0  0  0  0
    8.1266   -0.1248   18.5075 H   0  0  0  0  0  0  0  0  0  0  0  0
    6.5867    0.3287   19.9836 C   0  0  0  0  0  0  0  0  0  0  0  0
    7.2691   -0.4265   21.0749 C   0  0  0  0  0  0  0  0  0  0  0  0
    7.5814    0.4097   22.5843 S   0  0  0  0  0  0  0  0  0  0  0  0
    8.2568   -0.8759   23.5858 C   0  0  0  0  0  0  0  0  0  0  0  0
    8.4338   -0.5476   25.0284 C   0  0  0  0  0  0  0  0  0  0  0  0
    9.7128   -0.3948   25.5391 C   0  0  0  0  0  0  0  0  0  0  0  0
   10.5660   -0.4217   24.8695 H   0  0  0  0  0  0  0  0  0  0  0  0
    9.9306   -0.1874   26.9238 C   0  0  0  0  0  0  0  0  0  0  0  0
   10.9439   -0.0815   27.2930 H   0  0  0  0  0  0  0  0  0  0  0  0
    8.8672   -0.0918   27.7930 C   0  0  0  0  0  0  0  0  0  0  0  0
    8.9787    0.0959   28.8579 H   0  0  0  0  0  0  0  0  0  0  0  0
    7.5351   -0.2050   27.3130 C   0  0  0  0  0  0  0  0  0  0  0  0
    6.5172   -0.0360   28.2158 N   0  0  0  0  0  0  0  0  0  0  0  0
    5.2892   -0.2143   27.7894 C   0  0  0  0  0  0  0  0  0  0  0  0
    4.4967   -0.0471   28.5220 H   0  0  0  0  0  0  0  0  0  0  0  0
    4.9501   -0.6025   26.4616 C   0  0  0  0  0  0  0  0  0  0  0  0
    3.9097   -0.7704   26.2076 H   0  0  0  0  0  0  0  0  0  0  0  0
    5.9574   -0.7477   25.5338 C   0  0  0  0  0  0  0  0  0  0  0  0
    5.7702   -1.0504   24.5022 H   0  0  0  0  0  0  0  0  0  0  0  0
    7.3063   -0.4935   25.9264 C   0  0  0  0  0  0  0  0  0  0  0  0
    8.6224   -2.0888   23.1105 C   0  0  0  0  0  0  0  0  0  0  0  0
    9.1780   -2.7879   23.7316 H   0  0  0  0  0  0  0  0  0  0  0  0
    8.2492   -2.6294   21.8000 C   0  0  0  0  0  0  0  0  0  0  0  0
    8.4589   -3.7971   21.5025 O   0  0  0  0  0  0  0  0  0  0  0  0
    7.6033   -1.7117   20.8609 C   0  0  0  0  0  0  0  0  0  0  0  0
    7.3889   -2.1487   19.8961 H   0  0  0  0  0  0  0  0  0  0  0  0
    5.3340    0.9435   20.1428 C   0  0  0  0  0  0  0  0  0  0  0  0
    4.8793    1.0052   21.1312 H   0  0  0  0  0  0  0  0  0  0  0  0
    4.6970    1.4582   19.0130 C   0  0  0  0  0  0  0  0  0  0  0  0
    3.7222    1.9264   19.0738 H   0  0  0  0  0  0  0  0  0  0  0  0
  1  2  1  0
  2  3  2  0
  3  4  1  0
  4  5  1  0
  4  6  2  0
  6  7  1  0
  7  8  1  0
  8  9  1  0
  9 10  1  0
 10 11  2  0
 11 12  1  0
 11 13  1  0
 13 14  1  0
 13 15  2  0
 15 16  1  0
 15 17  1  0
 17 18  2  0
 18 19  1  0
 19 20  1  0
 19 21  2  0
 21 22  1  0
 21 23  1  0
 23 24  1  0
 23 25  2  0
  9 26  2  0
 26 27  1  0
 26 28  1  0
 28 29  2  0
 28 30  1  0
 30 31  1  0
  6 32  1  0
 32 33  1  0
 32 34  2  0
 34 35  1  0
 34  2  1  0
 30  7  2  0
 25 10  1  0
 25 17  1  0
M  END
>  <cnnaffinity>  (1) 
-5.69665

>  <filename>  (1) 
O=c1cc(-c2cccnc2)sc(-c2cccc3ncccc23)c1

$$$$
