
     RDKit          3D

 31 33  0  0  0  0  0  0  0  0999 V2000
    5.2820    1.7575   17.0529 H   0  0  0  0  0  0  0  0  0  0  0  0
    5.7359    1.2835   17.9214 C   0  0  0  0  0  0  0  0  0  0  0  0
    6.9169    0.6788   17.7220 N   0  0  0  0  0  0  0  0  0  0  0  0
    7.4963    0.0778   18.7746 C   0  0  0  0  0  0  0  0  0  0  0  0
    8.4455   -0.4196   18.5721 H   0  0  0  0  0  0  0  0  0  0  0  0
    6.9150    0.0321   20.0627 C   0  0  0  0  0  0  0  0  0  0  0  0
    7.4546   -0.7279   21.1573 N   0  0  0  0  0  0  0  0  0  0  0  0
    8.6243   -0.5167   21.9251 C   0  0  0  0  0  0  0  0  0  0  0  0
    9.6144    0.6101   21.7816 C   0  0  0  0  0  0  0  0  0  0  0  0
    9.3591    1.4200   22.4765 H   0  0  0  0  0  0  0  0  0  0  0  0
    9.5099    1.0219   20.7686 H   0  0  0  0  0  0  0  0  0  0  0  0
   11.0438    0.1078   21.9955 C   0  0  0  0  0  0  0  0  0  0  0  0
   11.4489   -0.9791   21.2064 C   0  0  0  0  0  0  0  0  0  0  0  0
   10.6678   -1.4676   20.6355 H   0  0  0  0  0  0  0  0  0  0  0  0
   12.7636   -1.4414   21.1985 C   0  0  0  0  0  0  0  0  0  0  0  0
   13.0601   -2.1808   20.4570 H   0  0  0  0  0  0  0  0  0  0  0  0
   13.6757   -0.9188   22.1211 C   0  0  0  0  0  0  0  0  0  0  0  0
   14.6804   -1.3263   22.1678 H   0  0  0  0  0  0  0  0  0  0  0  0
   13.2842    0.0999   22.9927 C   0  0  0  0  0  0  0  0  0  0  0  0
   13.9725    0.5112   23.7262 H   0  0  0  0  0  0  0  0  0  0  0  0
   11.9906    0.6309   22.8892 C   0  0  0  0  0  0  0  0  0  0  0  0
   11.6041    1.9797   23.9224 Cl  0  0  0  0  0  0  0  0  0  0  0  0
    8.6602   -1.5250   22.8091 C   0  0  0  0  0  0  0  0  0  0  0  0
    9.4038   -1.8316   23.5352 H   0  0  0  0  0  0  0  0  0  0  0  0
    7.5627   -2.3305   22.6692 O   0  0  0  0  0  0  0  0  0  0  0  0
    6.7852   -1.8615   21.6494 C   0  0  0  0  0  0  0  0  0  0  0  0
    5.7664   -2.3855   21.2788 O   0  0  0  0  0  0  0  0  0  0  0  0
    5.6828    0.6719   20.2490 C   0  0  0  0  0  0  0  0  0  0  0  0
    5.2137    0.6348   21.2331 H   0  0  0  0  0  0  0  0  0  0  0  0
    5.0861    1.3119   19.1604 C   0  0  0  0  0  0  0  0  0  0  0  0
    4.1318    1.8183   19.2610 H   0  0  0  0  0  0  0  0  0  0  0  0
  1  2  1  0
  2  3  2  0
  3  4  1  0
  4  5  1  0
  4  6  2  0
  6  7  1  0
  7  8  1  0
  8  9  1  0
  9 10  1  0
  9 11  1  0
  9 12  1  0
 12 13  2  0
 13 14  1  0
 13 15  1  0
 15 16  1  0
 15 17  2  0
 17 18  1  0
 17 19  1  0
 19 20  1  0
 19 21  2  0
 21 22  1  0
  8 23  2  0
 23 24  1  0
 23 25  1  0
 25 26  1  0
 26 27  2  0
  6 28  1  0
 28 29  1  0
 28 30  2  0
 30 31  1  0
 30  2  1  0
 26  7  1  0
 21 12  1  0
M  END
>  <cnnaffinity>  (1) 
-5.78975

>  <filename>  (1) 
O=c1occ(Cc2ccccc2Cl)n1-c1cccnc1

$$$$
