
     RDKit          3D

 39 41  0  0  0  0  0  0  0  0999 V2000
   11.7313    3.2494   24.1022 H   0  0  0  0  0  0  0  0  0  0  0  0
   12.3012    3.4988   23.3594 O   0  0  0  0  0  0  0  0  0  0  0  0
   12.0535    2.5289   22.3230 C   0  0  0  0  0  0  0  0  0  0  0  0
   12.4987    2.9423   21.4035 H   0  0  0  0  0  0  0  0  0  0  0  0
   10.9563    2.4915   22.1484 H   0  0  0  0  0  0  0  0  0  0  0  0
   12.5624    1.1855   22.5946 C   0  0  0  0  0  0  0  0  0  0  0  0
   13.3055    0.7321   21.9840 H   0  0  0  0  0  0  0  0  0  0  0  0
   11.7789   -1.0521   21.8328 C   0  0  0  0  0  0  0  0  0  0  0  0
   12.8666   -1.0808   21.2552 H   0  0  0  0  0  0  0  0  0  0  0  0
   11.6380   -0.0861   21.0876 H   0  0  0  0  0  0  0  0  0  0  0  0
   11.6566   -1.2167   21.7015 C   0  0  0  0  0  0  0  0  0  0  0  0
   12.2186   -1.7932   22.7104 H   0  0  0  0  0  0  0  0  0  0  0  0
   11.0402   -2.3615   20.7726 H   0  0  0  0  0  0  0  0  0  0  0  0
   10.5079   -0.9040   22.6474 N   0  0  0  0  0  0  0  0  0  0  0  0
    9.1961   -0.8745   22.2226 C   0  0  0  0  0  0  0  0  0  0  0  0
    8.5526   -0.3112   21.1351 C   0  0  0  0  0  0  0  0  0  0  0  0
    9.0262    0.3560   20.4342 H   0  0  0  0  0  0  0  0  0  0  0  0
    7.1608   -0.5395   20.9937 C   0  0  0  0  0  0  0  0  0  0  0  0
    6.4727    0.0503   19.8274 C   0  0  0  0  0  0  0  0  0  0  0  0
    7.0782   -0.0443   18.5701 C   0  0  0  0  0  0  0  0  0  0  0  0
    7.9891   -0.6261   18.4379 H   0  0  0  0  0  0  0  0  0  0  0  0
    6.5975    0.5288   17.4639 N   0  0  0  0  0  0  0  0  0  0  0  0
    5.4627    1.2340   17.5810 C   0  0  0  0  0  0  0  0  0  0  0  0
    5.1049    1.7128   16.6710 H   0  0  0  0  0  0  0  0  0  0  0  0
    4.7495    1.3495   18.7798 C   0  0  0  0  0  0  0  0  0  0  0  0
    3.8283    1.9221   18.7992 H   0  0  0  0  0  0  0  0  0  0  0  0
    5.2551    0.7353   19.9264 C   0  0  0  0  0  0  0  0  0  0  0  0
    4.7314    0.7885   20.8844 H   0  0  0  0  0  0  0  0  0  0  0  0
    6.4321   -1.2416   21.8134 N   0  0  0  0  0  0  0  0  0  0  0  0
    7.0601   -1.8193   22.8825 C   0  0  0  0  0  0  0  0  0  0  0  0
    6.5542   -2.6206   23.6341 O   0  0  0  0  0  0  0  0  0  0  0  0
    8.3816   -1.4693   23.1326 N   0  0  0  0  0  0  0  0  0  0  0  0
    8.7959   -2.0718   23.8190 H   0  0  0  0  0  0  0  0  0  0  0  0
   10.7823   -0.0763   23.9016 C   0  0  0  0  0  0  0  0  0  0  0  0
   10.6382   -0.6774   24.8099 H   0  0  0  0  0  0  0  0  0  0  0  0
   10.0678    0.7547   23.9342 H   0  0  0  0  0  0  0  0  0  0  0  0
   12.2562    0.4485   23.8138 C   0  0  0  0  0  0  0  0  0  0  0  0
   12.9023   -0.4180   23.7727 H   0  0  0  0  0  0  0  0  0  0  0  0
   12.5125    0.9854   24.7474 H   0  0  0  0  0  0  0  0  0  0  0  0
  1  2  1  0
  2  3  1  0
  3  4  1  0
  3  5  1  0
  3  6  1  0
  6  7  1  0
  6  8  1  0
  8  9  1  0
  8 10  1  0
  8 11  1  0
 11 12  1  0
 11 13  1  0
 11 14  1  0
 14 15  1  0
 15 16  2  0
 16 17  1  0
 16 18  1  0
 18 19  1  0
 19 20  2  0
 20 21  1  0
 20 22  1  0
 22 23  2  0
 23 24  1  0
 23 25  1  0
 25 26  1  0
 25 27  2  0
 27 28  1  0
 18 29  2  0
 29 30  1  0
 30 31  2  0
 30 32  1  0
 32 33  1  0
 14 34  1  0
 34 35  1  0
 34 36  1  0
 34 37  1  0
 37 38  1  0
 37 39  1  0
 37  6  1  0
 32 15  1  0
 27 19  1  0
M  END
>  <cnnaffinity>  (1) 
-4.85812

>  <filename>  (1) 
O=c1nc(-c2cccnc2)cc(N2CCC(CO)CC2)[nH]1

$$$$
