
     RDKit          3D

 46 49  0  0  0  0  0  0  0  0999 V2000
   12.1119   -1.1820   21.1126 O   0  0  0  0  0  0  0  0  0  0  0  0
   11.8898   -0.1810   21.7743 C   0  0  0  0  0  0  0  0  0  0  0  0
   12.7699    0.3230   22.8139 C   0  0  0  0  0  0  0  0  0  0  0  0
   12.4903    1.4422   23.5270 C   0  0  0  0  0  0  0  0  0  0  0  0
   11.2871    2.1618   23.2524 C   0  0  0  0  0  0  0  0  0  0  0  0
   10.8240    3.3602   24.0312 C   0  0  0  0  0  0  0  0  0  0  0  0
   11.8400    4.0291   24.5934 F   0  0  0  0  0  0  0  0  0  0  0  0
   10.1558    4.2495   23.2640 F   0  0  0  0  0  0  0  0  0  0  0  0
    9.9686    3.0147   25.0142 F   0  0  0  0  0  0  0  0  0  0  0  0
   10.4517    1.7244   22.2623 C   0  0  0  0  0  0  0  0  0  0  0  0
   10.7122    0.5968   21.5478 N   0  0  0  0  0  0  0  0  0  0  0  0
    9.6534    0.0968   20.6636 C   0  0  0  0  0  0  0  0  0  0  0  0
    8.5593   -0.6623   21.3667 C   0  0  0  0  0  0  0  0  0  0  0  0
    8.7258   -1.4364   22.4124 N   0  0  0  0  0  0  0  0  0  0  0  0
    7.4968   -1.9962   22.6003 C   0  0  0  0  0  0  0  0  0  0  0  0
    7.3027   -2.9795   23.7135 C   0  0  0  0  0  0  0  0  0  0  0  0
    8.2479   -4.2037   23.6205 C   0  0  0  0  0  0  0  0  0  0  0  0
    8.3278   -4.7628   25.0533 C   0  0  0  0  0  0  0  0  0  0  0  0
    7.9899   -3.5807   25.9963 C   0  0  0  0  0  0  0  0  0  0  0  0
    7.6966   -2.3789   25.0827 C   0  0  0  0  0  0  0  0  0  0  0  0
    8.6146   -1.7900   24.9365 H   0  0  0  0  0  0  0  0  0  0  0  0
    6.9269   -1.7078   25.4811 H   0  0  0  0  0  0  0  0  0  0  0  0
    7.1210   -3.8259   26.6194 H   0  0  0  0  0  0  0  0  0  0  0  0
    8.8126   -3.3514   26.6831 H   0  0  0  0  0  0  0  0  0  0  0  0
    7.6104   -5.5797   25.2010 H   0  0  0  0  0  0  0  0  0  0  0  0
    9.3199   -5.1827   25.2547 H   0  0  0  0  0  0  0  0  0  0  0  0
    7.9102   -4.9496   22.8917 H   0  0  0  0  0  0  0  0  0  0  0  0
    9.2401   -3.8490   23.3020 H   0  0  0  0  0  0  0  0  0  0  0  0
    6.2518   -3.3007   23.7087 H   0  0  0  0  0  0  0  0  0  0  0  0
    6.5819   -1.5972   21.7435 N   0  0  0  0  0  0  0  0  0  0  0  0
    7.2688   -0.7489   20.9281 N   0  0  0  0  0  0  0  0  0  0  0  0
    6.6061   -0.0485   19.8818 C   0  0  0  0  0  0  0  0  0  0  0  0
    5.4051    0.6244   20.1359 C   0  0  0  0  0  0  0  0  0  0  0  0
    4.8060    1.3198   19.0817 C   0  0  0  0  0  0  0  0  0  0  0  0
    5.4122    1.3108   17.8189 C   0  0  0  0  0  0  0  0  0  0  0  0
    6.5487    0.6475   17.5617 N   0  0  0  0  0  0  0  0  0  0  0  0
    7.1240   -0.0108   18.5746 C   0  0  0  0  0  0  0  0  0  0  0  0
    8.0461   -0.5351   18.3374 H   0  0  0  0  0  0  0  0  0  0  0  0
    4.9680    1.8497   16.9831 H   0  0  0  0  0  0  0  0  0  0  0  0
    3.8828    1.8721   19.2244 H   0  0  0  0  0  0  0  0  0  0  0  0
    4.9630    0.5926   21.1337 H   0  0  0  0  0  0  0  0  0  0  0  0
   10.1101   -0.5843   19.9439 H   0  0  0  0  0  0  0  0  0  0  0  0
    9.2168    0.9406   20.1183 H   0  0  0  0  0  0  0  0  0  0  0  0
    9.5584    2.2776   21.9862 H   0  0  0  0  0  0  0  0  0  0  0  0
   13.2057    1.7869   24.2763 H   0  0  0  0  0  0  0  0  0  0  0  0
   13.6432   -0.2942   22.9629 H   0  0  0  0  0  0  0  0  0  0  0  0
  1  2  2  0
  2  3  1  0
  3  4  2  0
  4  5  1  0
  5  6  1  0
  6  7  1  0
  6  8  1  0
  6  9  1  0
  5 10  2  0
 10 11  1  0
 11 12  1  0
 12 13  1  0
 13 14  2  0
 14 15  1  0
 15 16  1  0
 16 17  1  0
 17 18  1  0
 18 19  1  0
 19 20  1  0
 20 21  1  0
 20 22  1  0
 19 23  1  0
 19 24  1  0
 18 25  1  0
 18 26  1  0
 17 27  1  0
 17 28  1  0
 16 29  1  0
 15 30  2  0
 30 31  1  0
 31 32  1  0
 32 33  2  0
 33 34  1  0
 34 35  2  0
 35 36  1  0
 36 37  2  0
 37 38  1  0
 35 39  1  0
 34 40  1  0
 33 41  1  0
 12 42  1  0
 12 43  1  0
 10 44  1  0
  4 45  1  0
  3 46  1  0
 11  2  1  0
 31 13  1  0
 37 32  1  0
 20 16  1  0
M  END
>  <cnnaffinity>  (1) 
-6.87084

>  <filename>  (1) 
O=c1ccc(C(F)(F)F)cn1Cc1nc(C2CCCC2)nn1-c1cccnc1

$$$$
