
     RDKit          3D

 29 31  0  0  0  0  0  0  0  0999 V2000
    4.9956    1.7976   16.9656 H   0  0  0  0  0  0  0  0  0  0  0  0
    5.4853    1.3160   17.8086 C   0  0  0  0  0  0  0  0  0  0  0  0
    6.6787    0.7573   17.5537 N   0  0  0  0  0  0  0  0  0  0  0  0
    7.3004    0.1497   18.5696 C   0  0  0  0  0  0  0  0  0  0  0  0
    8.2821   -0.2752   18.3638 H   0  0  0  0  0  0  0  0  0  0  0  0
    6.7394    0.0152   19.8517 C   0  0  0  0  0  0  0  0  0  0  0  0
    7.4751   -0.7811   20.8767 C   0  0  0  0  0  0  0  0  0  0  0  0
    8.7456   -0.4910   20.9861 N   0  0  0  0  0  0  0  0  0  0  0  0
    9.4871   -1.1222   21.9508 N   0  0  0  0  0  0  0  0  0  0  0  0
   10.8799   -0.8013   21.9714 C   0  0  0  0  0  0  0  0  0  0  0  0
   11.2886    0.5422   21.9562 C   0  0  0  0  0  0  0  0  0  0  0  0
   10.5359    1.3239   21.9216 H   0  0  0  0  0  0  0  0  0  0  0  0
   12.5755    0.9038   22.0667 N   0  0  0  0  0  0  0  0  0  0  0  0
   13.5130   -0.0567   22.0954 C   0  0  0  0  0  0  0  0  0  0  0  0
   14.5526    0.2435   22.1873 H   0  0  0  0  0  0  0  0  0  0  0  0
   13.1853   -1.4085   21.9833 C   0  0  0  0  0  0  0  0  0  0  0  0
   14.1612   -2.3202   21.9142 F   0  0  0  0  0  0  0  0  0  0  0  0
   11.8542   -1.8089   21.9784 C   0  0  0  0  0  0  0  0  0  0  0  0
   11.5802   -2.8542   21.9778 H   0  0  0  0  0  0  0  0  0  0  0  0
    8.9111   -1.9275   22.9097 C   0  0  0  0  0  0  0  0  0  0  0  0
    9.5826   -2.2590   23.7051 H   0  0  0  0  0  0  0  0  0  0  0  0
    7.6121   -2.2753   22.8529 C   0  0  0  0  0  0  0  0  0  0  0  0
    7.1359   -2.8966   23.5991 H   0  0  0  0  0  0  0  0  0  0  0  0
    6.7922   -1.8522   21.7214 C   0  0  0  0  0  0  0  0  0  0  0  0
    5.6830   -2.3219   21.5024 O   0  0  0  0  0  0  0  0  0  0  0  0
    5.5096    0.6373   20.1114 C   0  0  0  0  0  0  0  0  0  0  0  0
    5.0711    0.5975   21.1096 H   0  0  0  0  0  0  0  0  0  0  0  0
    4.8724    1.2985   19.0642 C   0  0  0  0  0  0  0  0  0  0  0  0
    3.9270    1.8064   19.2079 H   0  0  0  0  0  0  0  0  0  0  0  0
  1  2  1  0
  2  3  2  0
  3  4  1  0
  4  5  1  0
  4  6  2  0
  6  7  1  0
  7  8  2  0
  8  9  1  0
  9 10  1  0
 10 11  2  0
 11 12  1  0
 11 13  1  0
 13 14  2  0
 14 15  1  0
 14 16  1  0
 16 17  1  0
 16 18  2  0
 18 19  1  0
  9 20  1  0
 20 21  1  0
 20 22  2  0
 22 23  1  0
 22 24  1  0
 24 25  2  0
  6 26  1  0
 26 27  1  0
 26 28  2  0
 28 29  1  0
 28  2  1  0
 24  7  1  0
 18 10  1  0
M  END
>  <cnnaffinity>  (1) 
-5.60516

>  <filename>  (1) 
O=c1ccn(-c2cncc(F)c2)nc1-c1cccnc1

$$$$
