
     RDKit          3D

 45 48  0  0  0  0  0  0  0  0999 V2000
    3.7607    3.9826   27.0053 O   0  0  0  0  0  0  0  0  0  0  0  0
    4.5487    3.3080   26.3639 C   0  0  0  0  0  0  0  0  0  0  0  0
    4.2407    2.1847   25.4906 C   0  0  0  0  0  0  0  0  0  0  0  0
    5.2310    1.5395   24.8145 C   0  0  0  0  0  0  0  0  0  0  0  0
    6.6084    1.9382   24.9440 C   0  0  0  0  0  0  0  0  0  0  0  0
    7.6814    1.2324   24.1690 C   0  0  0  0  0  0  0  0  0  0  0  0
    7.9262    1.7719   22.7342 C   0  0  0  0  0  0  0  0  0  0  0  0
    8.9305    0.8925   22.0608 C   0  0  0  0  0  0  0  0  0  0  0  0
   10.2311    0.9213   22.2989 N   0  0  0  0  0  0  0  0  0  0  0  0
   10.6769   -0.2513   21.7906 C   0  0  0  0  0  0  0  0  0  0  0  0
   12.1093   -0.5736   21.7335 C   0  0  0  0  0  0  0  0  0  0  0  0
   13.1258    0.2213   22.3096 C   0  0  0  0  0  0  0  0  0  0  0  0
   14.4085    0.0924   21.7957 C   0  0  0  0  0  0  0  0  0  0  0  0
   14.5993   -0.7957   20.7003 C   0  0  0  0  0  0  0  0  0  0  0  0
   16.0327   -0.3531   19.6384 Cl  0  0  0  0  0  0  0  0  0  0  0  0
   13.7246   -1.6868   20.3079 N   0  0  0  0  0  0  0  0  0  0  0  0
   12.5059   -1.6042   20.8805 C   0  0  0  0  0  0  0  0  0  0  0  0
   11.7672   -2.3417   20.6076 H   0  0  0  0  0  0  0  0  0  0  0  0
   15.2068    0.7542   22.1098 H   0  0  0  0  0  0  0  0  0  0  0  0
   12.9246    0.9480   23.1025 H   0  0  0  0  0  0  0  0  0  0  0  0
    9.7279   -0.9970   21.2411 N   0  0  0  0  0  0  0  0  0  0  0  0
    8.6117   -0.2459   21.4030 N   0  0  0  0  0  0  0  0  0  0  0  0
    7.3055   -0.7592   20.9909 C   0  0  0  0  0  0  0  0  0  0  0  0
    6.6034    0.0240   19.8954 C   0  0  0  0  0  0  0  0  0  0  0  0
    5.3754    0.6678   20.0911 C   0  0  0  0  0  0  0  0  0  0  0  0
    4.7802    1.3392   19.0196 C   0  0  0  0  0  0  0  0  0  0  0  0
    5.4354    1.3400   17.7858 C   0  0  0  0  0  0  0  0  0  0  0  0
    6.6066    0.7197   17.5713 N   0  0  0  0  0  0  0  0  0  0  0  0
    7.1676    0.0877   18.6092 C   0  0  0  0  0  0  0  0  0  0  0  0
    8.1119   -0.4154   18.4022 H   0  0  0  0  0  0  0  0  0  0  0  0
    4.9990    1.8498   16.9289 H   0  0  0  0  0  0  0  0  0  0  0  0
    3.8362    1.8619   19.1274 H   0  0  0  0  0  0  0  0  0  0  0  0
    4.8867    0.6459   21.0678 H   0  0  0  0  0  0  0  0  0  0  0  0
    6.6548   -0.8316   21.8734 H   0  0  0  0  0  0  0  0  0  0  0  0
    7.5009   -1.7819   20.6625 H   0  0  0  0  0  0  0  0  0  0  0  0
    6.9922    1.8184   22.1611 H   0  0  0  0  0  0  0  0  0  0  0  0
    8.3223    2.7901   22.7760 H   0  0  0  0  0  0  0  0  0  0  0  0
    8.6421    1.2742   24.7011 H   0  0  0  0  0  0  0  0  0  0  0  0
    7.4202    0.1665   24.0976 H   0  0  0  0  0  0  0  0  0  0  0  0
    6.9083    2.9695   25.7863 C   0  0  0  0  0  0  0  0  0  0  0  0
    5.9023    3.6178   26.4566 N   0  0  0  0  0  0  0  0  0  0  0  0
    6.0202    4.4008   27.0823 H   0  0  0  0  0  0  0  0  0  0  0  0
    7.9310    3.2954   25.9739 H   0  0  0  0  0  0  0  0  0  0  0  0
    4.9929    0.6865   24.1738 H   0  0  0  0  0  0  0  0  0  0  0  0
    3.1943    1.9220   25.4363 H   0  0  0  0  0  0  0  0  0  0  0  0
  1  2  2  0
  2  3  1  0
  3  4  2  0
  4  5  1  0
  5  6  1  0
  6  7  1  0
  7  8  1  0
  8  9  2  0
  9 10  1  0
 10 11  1  0
 11 12  2  0
 12 13  1  0
 13 14  2  0
 14 15  1  0
 14 16  1  0
 16 17  2  0
 17 18  1  0
 13 19  1  0
 12 20  1  0
 10 21  2  0
 21 22  1  0
 22 23  1  0
 23 24  1  0
 24 25  2  0
 25 26  1  0
 26 27  2  0
 27 28  1  0
 28 29  2  0
 29 30  1  0
 27 31  1  0
 26 32  1  0
 25 33  1  0
 23 34  1  0
 23 35  1  0
  7 36  1  0
  7 37  1  0
  6 38  1  0
  6 39  1  0
  5 40  2  0
 40 41  1  0
 41 42  1  0
 40 43  1  0
  4 44  1  0
  3 45  1  0
 41  2  1  0
 22  8  1  0
 29 24  1  0
 17 11  1  0
M  END
>  <cnnaffinity>  (1) 
-6.55677

>  <filename>  (1) 
O=c1ccc(CCc2nc(-c3ccc(Cl)nc3)nn2Cc2cccnc2)c[nH]1

$$$$
