
     RDKit          3D

 31 33  0  0  0  0  0  0  0  0999 V2000
    4.9249    1.8331   16.9658 H   0  0  0  0  0  0  0  0  0  0  0  0
    5.3960    1.3260   17.8052 C   0  0  0  0  0  0  0  0  0  0  0  0
    6.5581    0.7077   17.5450 N   0  0  0  0  0  0  0  0  0  0  0  0
    7.1715    0.0708   18.5491 C   0  0  0  0  0  0  0  0  0  0  0  0
    8.1218   -0.4070   18.3110 H   0  0  0  0  0  0  0  0  0  0  0  0
    6.6382   -0.0134   19.8515 C   0  0  0  0  0  0  0  0  0  0  0  0
    7.3317   -0.7185   20.9156 N   0  0  0  0  0  0  0  0  0  0  0  0
    8.6005   -0.2898   21.2870 C   0  0  0  0  0  0  0  0  0  0  0  0
    8.9902    0.5566   20.7279 H   0  0  0  0  0  0  0  0  0  0  0  0
    9.3294   -0.8782   22.2706 C   0  0  0  0  0  0  0  0  0  0  0  0
   10.7135   -0.4043   22.5514 C   0  0  0  0  0  0  0  0  0  0  0  0
   11.8085   -1.2814   22.4533 C   0  0  0  0  0  0  0  0  0  0  0  0
   11.5915   -2.3260   22.2707 H   0  0  0  0  0  0  0  0  0  0  0  0
   13.1290   -0.8586   22.6241 C   0  0  0  0  0  0  0  0  0  0  0  0
   13.9744   -1.5227   22.4780 H   0  0  0  0  0  0  0  0  0  0  0  0
   13.3385    0.4522   23.0293 C   0  0  0  0  0  0  0  0  0  0  0  0
   14.5726    0.8466   23.3516 F   0  0  0  0  0  0  0  0  0  0  0  0
   12.3050    1.3755   23.1401 C   0  0  0  0  0  0  0  0  0  0  0  0
   12.4839    2.3907   23.4663 H   0  0  0  0  0  0  0  0  0  0  0  0
   11.0178    0.9387   22.8514 C   0  0  0  0  0  0  0  0  0  0  0  0
   10.0262    1.8421   22.9188 F   0  0  0  0  0  0  0  0  0  0  0  0
    8.7318   -2.0316   22.9933 C   0  0  0  0  0  0  0  0  0  0  0  0
    9.2236   -2.7111   23.8671 O   0  0  0  0  0  0  0  0  0  0  0  0
    7.4449   -2.3347   22.5987 N   0  0  0  0  0  0  0  0  0  0  0  0
    7.0052   -3.0876   23.0948 H   0  0  0  0  0  0  0  0  0  0  0  0
    6.7015   -1.7867   21.6024 C   0  0  0  0  0  0  0  0  0  0  0  0
    5.6056   -2.2307   21.3425 O   0  0  0  0  0  0  0  0  0  0  0  0
    5.4277    0.6386   20.1124 C   0  0  0  0  0  0  0  0  0  0  0  0
    5.0074    0.6055   21.1165 H   0  0  0  0  0  0  0  0  0  0  0  0
    4.7974    1.3258   19.0688 C   0  0  0  0  0  0  0  0  0  0  0  0
    3.8643    1.8568   19.2186 H   0  0  0  0  0  0  0  0  0  0  0  0
  1  2  1  0
  2  3  2  0
  3  4  1  0
  4  5  1  0
  4  6  2  0
  6  7  1  0
  7  8  1  0
  8  9  1  0
  8 10  2  0
 10 11  1  0
 11 12  2  0
 12 13  1  0
 12 14  1  0
 14 15  1  0
 14 16  2  0
 16 17  1  0
 16 18  1  0
 18 19  1  0
 18 20  2  0
 20 21  1  0
 10 22  1  0
 22 23  2  0
 22 24  1  0
 24 25  1  0
 24 26  1  0
 26 27  2  0
  6 28  1  0
 28 29  1  0
 28 30  2  0
 30 31  1  0
 30  2  1  0
 26  7  1  0
 20 11  1  0
M  END
>  <cnnaffinity>  (1) 
-5.23833

>  <filename>  (1) 
O=c1[nH]c(=O)n(-c2cccnc2)cc1-c1ccc(F)cc1F

$$$$
