
     RDKit          3D

 21 22  0  0  0  0  0  0  0  0999 V2000
    4.9270    1.8008   17.0016 H   0  0  0  0  0  0  0  0  0  0  0  0
    5.4160    1.2991   17.8323 C   0  0  0  0  0  0  0  0  0  0  0  0
    6.5792    0.6892   17.5509 N   0  0  0  0  0  0  0  0  0  0  0  0
    7.2119    0.0690   18.5520 C   0  0  0  0  0  0  0  0  0  0  0  0
    8.1450   -0.4374   18.3105 H   0  0  0  0  0  0  0  0  0  0  0  0
    6.7134   -0.0021   19.8683 C   0  0  0  0  0  0  0  0  0  0  0  0
    7.4290   -0.7207   20.8794 N   0  0  0  0  0  0  0  0  0  0  0  0
    8.7941   -0.6427   21.1218 C   0  0  0  0  0  0  0  0  0  0  0  0
    9.4733   -0.1035   20.4789 H   0  0  0  0  0  0  0  0  0  0  0  0
    9.0627   -1.3832   22.2190 C   0  0  0  0  0  0  0  0  0  0  0  0
   10.3527   -1.7352   22.7810 N   0  0  0  0  0  4  0  0  0  0  0  0
   10.3399   -2.4722   23.7548 O   0  0  0  0  0  0  0  0  0  0  0  0
   11.3479   -1.2896   22.2331 O   0  0  0  0  0  1  0  0  0  0  0  0
    7.8575   -1.9058   22.6723 N   0  0  0  0  0  0  0  0  0  0  0  0
    7.6576   -2.5549   23.4156 H   0  0  0  0  0  0  0  0  0  0  0  0
    6.8474   -1.6380   21.7890 C   0  0  0  0  0  0  0  0  0  0  0  0
    5.7515   -2.1506   21.7668 O   0  0  0  0  0  0  0  0  0  0  0  0
    5.4918    0.6363   20.1483 C   0  0  0  0  0  0  0  0  0  0  0  0
    5.0612    0.5838   21.1506 H   0  0  0  0  0  0  0  0  0  0  0  0
    4.8346    1.3054   19.1071 C   0  0  0  0  0  0  0  0  0  0  0  0
    3.8879    1.8237   19.2652 H   0  0  0  0  0  0  0  0  0  0  0  0
  1  2  1  0
  2  3  2  0
  3  4  1  0
  4  5  1  0
  4  6  2  0
  6  7  1  0
  7  8  1  0
  8  9  1  0
  8 10  2  0
 10 11  1  0
 11 12  2  0
 11 13  1  0
 10 14  1  0
 14 15  1  0
 14 16  1  0
 16 17  2  0
  6 18  1  0
 18 19  1  0
 18 20  2  0
 20 21  1  0
 20  2  1  0
 16  7  1  0
M  CHG  2  11   1  13  -1
M  END
>  <cnnaffinity>  (1) 
-4.58494

>  <filename>  (1) 
O=c1[nH]c([N+](=O)[O-])cn1-c1cccnc1

$$$$
