
     RDKit          3D

 33 35  0  0  0  0  0  0  0  0999 V2000
    4.9131    1.7967   16.9835 H   0  0  0  0  0  0  0  0  0  0  0  0
    5.3875    1.3011   17.8266 C   0  0  0  0  0  0  0  0  0  0  0  0
    6.5467    0.6795   17.5585 N   0  0  0  0  0  0  0  0  0  0  0  0
    7.1530    0.0637   18.5775 C   0  0  0  0  0  0  0  0  0  0  0  0
    8.1103   -0.4108   18.3672 H   0  0  0  0  0  0  0  0  0  0  0  0
    6.6398   -0.0040   19.8896 C   0  0  0  0  0  0  0  0  0  0  0  0
    7.3425   -0.7248   20.9703 C   0  0  0  0  0  0  0  0  0  0  0  0
    6.6914   -1.6528   21.7489 C   0  0  0  0  0  0  0  0  0  0  0  0
    5.6349   -1.8293   21.5383 H   0  0  0  0  0  0  0  0  0  0  0  0
    7.3421   -2.3722   22.7979 C   0  0  0  0  0  0  0  0  0  0  0  0
    6.6275   -3.3949   23.6186 C   0  0  0  0  0  0  0  0  0  0  0  0
    7.0618   -3.5966   24.8751 N   0  0  0  0  0  0  0  0  0  0  0  0
    6.4281   -4.4867   25.6333 C   0  0  0  0  0  0  0  0  0  0  0  0
    6.8003   -4.5904   26.6507 H   0  0  0  0  0  0  0  0  0  0  0  0
    5.3648   -5.2650   25.1727 C   0  0  0  0  0  0  0  0  0  0  0  0
    4.6980   -6.2259   26.0954 C   0  0  0  0  0  0  0  0  0  0  0  0
    4.1787   -7.2708   25.4219 F   0  0  0  0  0  0  0  0  0  0  0  0
    5.5437   -6.7211   27.0169 F   0  0  0  0  0  0  0  0  0  0  0  0
    3.6844   -5.6443   26.7649 F   0  0  0  0  0  0  0  0  0  0  0  0
    4.9087   -5.0826   23.8596 C   0  0  0  0  0  0  0  0  0  0  0  0
    4.0725   -5.6649   23.4646 H   0  0  0  0  0  0  0  0  0  0  0  0
    5.5556   -4.1352   23.0844 C   0  0  0  0  0  0  0  0  0  0  0  0
    5.2608   -3.9726   22.0577 H   0  0  0  0  0  0  0  0  0  0  0  0
    8.6641   -2.0996   23.0425 C   0  0  0  0  0  0  0  0  0  0  0  0
    9.2471   -2.5856   23.8254 H   0  0  0  0  0  0  0  0  0  0  0  0
    9.3025   -1.1790   22.2773 N   0  0  0  0  0  0  0  0  0  0  0  0
   10.2587   -0.8864   22.3817 H   0  0  0  0  0  0  0  0  0  0  0  0
    8.7573   -0.4254   21.2394 C   0  0  0  0  0  0  0  0  0  0  0  0
    9.5142    0.3731   20.7008 O   0  0  0  0  0  0  0  0  0  0  0  0
    5.4214    0.6439   20.1422 C   0  0  0  0  0  0  0  0  0  0  0  0
    5.0116    0.6342   21.1545 H   0  0  0  0  0  0  0  0  0  0  0  0
    4.7955    1.3191   19.0960 C   0  0  0  0  0  0  0  0  0  0  0  0
    3.8664    1.8537   19.2466 H   0  0  0  0  0  0  0  0  0  0  0  0
  1  2  1  0
  2  3  2  0
  3  4  1  0
  4  5  1  0
  4  6  2  0
  6  7  1  0
  7  8  2  0
  8  9  1  0
  8 10  1  0
 10 11  1  0
 11 12  2  0
 12 13  1  0
 13 14  1  0
 13 15  2  0
 15 16  1  0
 16 17  1  0
 16 18  1  0
 16 19  1  0
 15 20  1  0
 20 21  1  0
 20 22  2  0
 22 23  1  0
 10 24  2  0
 24 25  1  0
 24 26  1  0
 26 27  1  0
 26 28  1  0
 28 29  2  0
  6 30  1  0
 30 31  1  0
 30 32  2  0
 32 33  1  0
 32  2  1  0
 28  7  1  0
 22 11  1  0
M  END
>  <cnnaffinity>  (1) 
-5.57206

>  <filename>  (1) 
O=c1[nH]cc(-c2ccc(C(F)(F)F)cn2)cc1-c1cccnc1

$$$$
