
     RDKit          3D

 44 47  0  0  0  0  0  0  0  0999 V2000
   10.0640    1.9950   24.1592 O   0  0  0  0  0  0  0  0  0  0  0  0
    9.4228    2.3811   23.1997 C   0  0  0  0  0  0  0  0  0  0  0  0
    8.6623    3.5617   23.2168 N   0  0  0  0  0  0  0  0  0  0  0  0
    7.8500    3.6645   22.0646 N   0  0  0  0  0  0  0  0  0  0  0  0
    8.2908    2.6053   21.2603 C   0  0  0  0  0  0  0  0  0  0  0  0
    9.1989    1.8188   21.8571 C   0  0  0  0  0  0  0  0  0  0  0  0
    9.7005    0.5006   21.3004 C   0  0  0  0  0  0  0  0  0  0  0  0
    8.7453   -0.6335   21.5436 C   0  0  0  0  0  0  0  0  0  0  0  0
    8.9101   -1.5300   22.4915 N   0  0  0  0  0  0  0  0  0  0  0  0
    7.6920   -2.1178   22.5778 C   0  0  0  0  0  0  0  0  0  0  0  0
    7.3896   -3.1009   23.6657 C   0  0  0  0  0  0  0  0  0  0  0  0
    6.9002   -4.4591   23.1189 C   0  0  0  0  0  0  0  0  0  0  0  0
    6.6528   -5.4459   24.2676 C   0  0  0  0  0  0  0  0  0  0  0  0
    5.7173   -4.8738   25.3210 C   0  0  0  0  0  0  0  0  0  0  0  0
    4.4626   -4.7460   24.7711 F   0  0  0  0  0  0  0  0  0  0  0  0
    5.5880   -5.7622   26.3547 F   0  0  0  0  0  0  0  0  0  0  0  0
    6.1583   -3.5205   25.8555 C   0  0  0  0  0  0  0  0  0  0  0  0
    6.4060   -2.5189   24.7188 C   0  0  0  0  0  0  0  0  0  0  0  0
    6.8027   -1.5825   25.1308 H   0  0  0  0  0  0  0  0  0  0  0  0
    5.4549   -2.2749   24.2329 H   0  0  0  0  0  0  0  0  0  0  0  0
    5.3984   -3.1588   26.5550 H   0  0  0  0  0  0  0  0  0  0  0  0
    7.0788   -3.6842   26.4265 H   0  0  0  0  0  0  0  0  0  0  0  0
    7.5958   -5.6824   24.7741 H   0  0  0  0  0  0  0  0  0  0  0  0
    6.2239   -6.3808   23.8999 H   0  0  0  0  0  0  0  0  0  0  0  0
    5.9789   -4.3103   22.5415 H   0  0  0  0  0  0  0  0  0  0  0  0
    7.6455   -4.8783   22.4322 H   0  0  0  0  0  0  0  0  0  0  0  0
    8.3533   -3.2562   24.1638 H   0  0  0  0  0  0  0  0  0  0  0  0
    6.8011   -1.6824   21.7080 N   0  0  0  0  0  0  0  0  0  0  0  0
    7.4889   -0.7322   21.0114 N   0  0  0  0  0  0  0  0  0  0  0  0
    6.8126   -0.0327   19.9568 C   0  0  0  0  0  0  0  0  0  0  0  0
    5.5891    0.6017   20.2167 C   0  0  0  0  0  0  0  0  0  0  0  0
    4.9484    1.2609   19.1641 C   0  0  0  0  0  0  0  0  0  0  0  0
    5.5321    1.2475   17.8920 C   0  0  0  0  0  0  0  0  0  0  0  0
    6.6877    0.6195   17.6254 N   0  0  0  0  0  0  0  0  0  0  0  0
    7.3063   -0.0043   18.6378 C   0  0  0  0  0  0  0  0  0  0  0  0
    8.2287   -0.5248   18.3823 H   0  0  0  0  0  0  0  0  0  0  0  0
    5.0531    1.7583   17.0595 H   0  0  0  0  0  0  0  0  0  0  0  0
    4.0061    1.7751   19.3174 H   0  0  0  0  0  0  0  0  0  0  0  0
    5.1560    0.5601   21.2190 H   0  0  0  0  0  0  0  0  0  0  0  0
    9.8458    0.5922   20.2225 H   0  0  0  0  0  0  0  0  0  0  0  0
   10.6554    0.2092   21.7471 H   0  0  0  0  0  0  0  0  0  0  0  0
    7.8352    2.4148   20.2974 H   0  0  0  0  0  0  0  0  0  0  0  0
    7.9774    4.5768   21.6108 H   0  0  0  0  0  0  0  0  0  0  0  0
    8.2108    3.6678   24.1193 H   0  0  0  0  0  0  0  0  0  0  0  0
  1  2  2  0
  2  3  1  0
  3  4  1  0
  4  5  1  0
  5  6  2  0
  6  7  1  0
  7  8  1  0
  8  9  2  0
  9 10  1  0
 10 11  1  0
 11 12  1  0
 12 13  1  0
 13 14  1  0
 14 15  1  0
 14 16  1  0
 14 17  1  0
 17 18  1  0
 18 19  1  0
 18 20  1  0
 17 21  1  0
 17 22  1  0
 13 23  1  0
 13 24  1  0
 12 25  1  0
 12 26  1  0
 11 27  1  0
 10 28  2  0
 28 29  1  0
 29 30  1  0
 30 31  2  0
 31 32  1  0
 32 33  2  0
 33 34  1  0
 34 35  2  0
 35 36  1  0
 33 37  1  0
 32 38  1  0
 31 39  1  0
  7 40  1  0
  7 41  1  0
  5 42  1  0
  4 43  1  0
  3 44  1  0
  6  2  1  0
 29  8  1  0
 35 30  1  0
 18 11  1  0
M  END
>  <cnnaffinity>  (1) 
-5.92313

>  <filename>  (1) 
O=c1[nH][nH]cc1Cc1nc(C2CCC(F)(F)CC2)nn1-c1cccnc1

$$$$
