
     RDKit          3D

 30 32  0  0  0  0  0  0  0  0999 V2000
    8.4157   -1.5778   24.0623 O   0  0  0  0  0  0  0  0  0  0  0  0
    8.1715   -1.3925   22.9041 C   0  0  0  0  0  0  0  0  0  0  0  0
    8.5753   -2.1827   21.8711 O   0  0  0  0  0  0  0  0  0  0  0  0
    8.0611   -1.6973   20.6728 N   0  0  0  0  0  0  0  0  0  0  0  0
    7.3688   -0.6509   20.9823 C   0  0  0  0  0  0  0  0  0  0  0  0
    6.6200    0.0634   19.9587 C   0  0  0  0  0  0  0  0  0  0  0  0
    5.3939    0.7137   20.1492 C   0  0  0  0  0  0  0  0  0  0  0  0
    4.8193    1.3574   19.0521 C   0  0  0  0  0  0  0  0  0  0  0  0
    5.4972    1.3325   17.8254 C   0  0  0  0  0  0  0  0  0  0  0  0
    6.6507    0.6779   17.6222 N   0  0  0  0  0  0  0  0  0  0  0  0
    7.1746    0.0392   18.6681 C   0  0  0  0  0  0  0  0  0  0  0  0
    8.0867   -0.5284   18.4963 H   0  0  0  0  0  0  0  0  0  0  0  0
    5.0871    1.8459   16.9599 H   0  0  0  0  0  0  0  0  0  0  0  0
    3.8735    1.8841   19.1360 H   0  0  0  0  0  0  0  0  0  0  0  0
    4.8969    0.7019   21.1236 H   0  0  0  0  0  0  0  0  0  0  0  0
    7.4192   -0.3687   22.3300 N   0  0  0  0  0  0  0  0  0  0  0  0
    7.1703    0.8908   23.0586 C   0  0  0  0  0  0  0  0  0  0  0  0
    8.4541    1.5459   23.5718 C   0  0  0  0  0  0  0  0  0  0  0  0
    9.3869    2.1034   22.6766 C   0  0  0  0  0  0  0  0  0  0  0  0
    8.9743    2.2300   21.0038 Cl  0  0  0  0  0  0  0  0  0  0  0  0
   10.6341    2.5702   23.1349 C   0  0  0  0  0  0  0  0  0  0  0  0
   11.8305    3.2200   22.0642 Cl  0  0  0  0  0  0  0  0  0  0  0  0
   10.9448    2.5048   24.4943 C   0  0  0  0  0  0  0  0  0  0  0  0
   10.0154    1.9855   25.3919 C   0  0  0  0  0  0  0  0  0  0  0  0
    8.7740    1.5380   24.9392 C   0  0  0  0  0  0  0  0  0  0  0  0
    8.0567    1.1416   25.6560 H   0  0  0  0  0  0  0  0  0  0  0  0
   10.2668    1.9078   26.4417 H   0  0  0  0  0  0  0  0  0  0  0  0
   11.9089    2.8708   24.8338 H   0  0  0  0  0  0  0  0  0  0  0  0
    6.4989    0.6830   23.9005 H   0  0  0  0  0  0  0  0  0  0  0  0
    6.6526    1.5893   22.3957 H   0  0  0  0  0  0  0  0  0  0  0  0
  1  2  2  0
  2  3  1  0
  3  4  1  0
  4  5  2  0
  5  6  1  0
  6  7  2  0
  7  8  1  0
  8  9  2  0
  9 10  1  0
 10 11  2  0
 11 12  1  0
  9 13  1  0
  8 14  1  0
  7 15  1  0
  5 16  1  0
 16 17  1  0
 17 18  1  0
 18 19  2  0
 19 20  1  0
 19 21  1  0
 21 22  1  0
 21 23  2  0
 23 24  1  0
 24 25  2  0
 25 26  1  0
 24 27  1  0
 23 28  1  0
 17 29  1  0
 17 30  1  0
 16  2  1  0
 25 18  1  0
 11  6  1  0
M  END
>  <cnnaffinity>  (1) 
-5.32577

>  <filename>  (1) 
O=c1onc(-c2cccnc2)n1Cc1cccc(Cl)c1Cl

$$$$
