
     RDKit          3D

 34 36  0  0  0  0  0  0  0  0999 V2000
    4.9315    1.7915   16.9892 H   0  0  0  0  0  0  0  0  0  0  0  0
    5.4013    1.2885   17.8329 C   0  0  0  0  0  0  0  0  0  0  0  0
    6.5655    0.6677   17.5755 N   0  0  0  0  0  0  0  0  0  0  0  0
    7.1570    0.0311   18.5917 C   0  0  0  0  0  0  0  0  0  0  0  0
    8.1196   -0.4304   18.3609 H   0  0  0  0  0  0  0  0  0  0  0  0
    6.6367   -0.0174   19.8967 C   0  0  0  0  0  0  0  0  0  0  0  0
    7.3754   -0.6681   20.9816 C   0  0  0  0  0  0  0  0  0  0  0  0
    7.7165   -0.0654   22.1779 C   0  0  0  0  0  0  0  0  0  0  0  0
    7.4912    1.3867   22.4198 C   0  0  0  0  0  0  0  0  0  0  0  0
    8.0125    2.3553   21.5431 C   0  0  0  0  0  0  0  0  0  0  0  0
    8.5497    2.0152   20.6593 H   0  0  0  0  0  0  0  0  0  0  0  0
    7.8290    3.7128   21.8206 C   0  0  0  0  0  0  0  0  0  0  0  0
    8.2627    4.4930   21.2013 H   0  0  0  0  0  0  0  0  0  0  0  0
    7.0702    4.1143   22.9196 C   0  0  0  0  0  0  0  0  0  0  0  0
    6.9044    5.1773   23.0806 H   0  0  0  0  0  0  0  0  0  0  0  0
    6.5322    3.1573   23.7915 C   0  0  0  0  0  0  0  0  0  0  0  0
    5.7937    3.5979   25.0361 C   0  0  0  0  0  0  0  0  0  0  0  0
    6.6383    3.7423   26.0779 F   0  0  0  0  0  0  0  0  0  0  0  0
    5.1756    4.7830   24.8647 F   0  0  0  0  0  0  0  0  0  0  0  0
    4.8554    2.7051   25.4081 F   0  0  0  0  0  0  0  0  0  0  0  0
    6.7685    1.7964   23.5487 C   0  0  0  0  0  0  0  0  0  0  0  0
    6.3936    1.0332   24.2285 H   0  0  0  0  0  0  0  0  0  0  0  0
    8.3444   -0.8663   23.1930 C   0  0  0  0  0  0  0  0  0  0  0  0
    8.5927   -0.3630   24.1314 H   0  0  0  0  0  0  0  0  0  0  0  0
    8.6366   -2.1787   22.9787 C   0  0  0  0  0  0  0  0  0  0  0  0
    9.1129   -2.8187   23.7068 H   0  0  0  0  0  0  0  0  0  0  0  0
    8.2984   -2.8212   21.7123 C   0  0  0  0  0  0  0  0  0  0  0  0
    8.4538   -3.9908   21.4050 O   0  0  0  0  0  0  0  0  0  0  0  0
    7.7341   -1.9734   20.7803 N   0  0  0  0  0  0  0  0  0  0  0  0
    7.4723   -2.4813   19.9526 H   0  0  0  0  0  0  0  0  0  0  0  0
    5.4247    0.6454   20.1524 C   0  0  0  0  0  0  0  0  0  0  0  0
    5.0156    0.6489   21.1671 H   0  0  0  0  0  0  0  0  0  0  0  0
    4.7993    1.3023   19.0958 C   0  0  0  0  0  0  0  0  0  0  0  0
    3.8739    1.8436   19.2411 H   0  0  0  0  0  0  0  0  0  0  0  0
  1  2  1  0
  2  3  2  0
  3  4  1  0
  4  5  1  0
  4  6  2  0
  6  7  1  0
  7  8  2  0
  8  9  1  0
  9 10  2  0
 10 11  1  0
 10 12  1  0
 12 13  1  0
 12 14  2  0
 14 15  1  0
 14 16  1  0
 16 17  1  0
 17 18  1  0
 17 19  1  0
 17 20  1  0
 16 21  2  0
 21 22  1  0
  8 23  1  0
 23 24  1  0
 23 25  2  0
 25 26  1  0
 25 27  1  0
 27 28  2  0
 27 29  1  0
 29 30  1  0
  6 31  1  0
 31 32  1  0
 31 33  2  0
 33 34  1  0
 33  2  1  0
 29  7  1  0
 21  9  1  0
M  END
>  <cnnaffinity>  (1) 
-5.30922

>  <filename>  (1) 
O=c1ccc(-c2cccc(C(F)(F)F)c2)c(-c2cccnc2)[nH]1

$$$$
