
     RDKit          3D

 31 33  0  0  0  0  0  0  0  0999 V2000
    4.9447    1.8376   16.8592 H   0  0  0  0  0  0  0  0  0  0  0  0
    5.4198    1.3534   17.7071 C   0  0  0  0  0  0  0  0  0  0  0  0
    6.5936    0.7602   17.4492 N   0  0  0  0  0  0  0  0  0  0  0  0
    7.1928    0.1410   18.4683 C   0  0  0  0  0  0  0  0  0  0  0  0
    8.1423   -0.3508   18.2570 H   0  0  0  0  0  0  0  0  0  0  0  0
    6.6628    0.0749   19.7688 C   0  0  0  0  0  0  0  0  0  0  0  0
    7.3622   -0.7173   20.8148 C   0  0  0  0  0  0  0  0  0  0  0  0
    6.6226   -1.6238   21.4205 N   0  0  0  0  0  0  0  0  0  0  0  0
    7.1999   -2.3479   22.3572 N   0  0  0  0  0  0  0  0  0  0  0  0
    6.4003   -3.3195   22.8962 O   0  0  0  0  0  0  0  0  0  0  0  0
    6.3637   -3.4646   24.3156 C   0  0  0  0  0  0  0  0  0  0  0  0
    5.9062   -4.6864   24.8292 C   0  0  0  0  0  0  0  0  0  0  0  0
    5.6162   -5.4746   24.1434 H   0  0  0  0  0  0  0  0  0  0  0  0
    5.8536   -4.8537   26.2205 C   0  0  0  0  0  0  0  0  0  0  0  0
    5.5164   -5.7970   26.6450 H   0  0  0  0  0  0  0  0  0  0  0  0
    6.2470   -3.8316   27.0918 C   0  0  0  0  0  0  0  0  0  0  0  0
    6.2323   -3.9810   28.1659 H   0  0  0  0  0  0  0  0  0  0  0  0
    6.6482   -2.6070   26.5544 C   0  0  0  0  0  0  0  0  0  0  0  0
    7.1660   -1.3206   27.5988 Cl  0  0  0  0  0  0  0  0  0  0  0  0
    6.6777   -2.4060   25.1750 C   0  0  0  0  0  0  0  0  0  0  0  0
    6.9560   -1.4611   24.7336 H   0  0  0  0  0  0  0  0  0  0  0  0
    8.5381   -2.3820   22.6335 C   0  0  0  0  0  0  0  0  0  0  0  0
    8.7581   -3.1580   23.3601 H   0  0  0  0  0  0  0  0  0  0  0  0
    9.3766   -1.4888   22.0778 C   0  0  0  0  0  0  0  0  0  0  0  0
   10.4238   -1.3714   22.3192 H   0  0  0  0  0  0  0  0  0  0  0  0
    8.8364   -0.5237   21.1284 C   0  0  0  0  0  0  0  0  0  0  0  0
    9.5405    0.3513   20.6300 O   0  0  0  0  0  0  0  0  0  0  0  0
    5.4318    0.6982   20.0221 C   0  0  0  0  0  0  0  0  0  0  0  0
    4.9959    0.6502   21.0239 H   0  0  0  0  0  0  0  0  0  0  0  0
    4.7981    1.3488   18.9630 C   0  0  0  0  0  0  0  0  0  0  0  0
    3.8355    1.8333   19.0902 H   0  0  0  0  0  0  0  0  0  0  0  0
  1  2  1  0
  2  3  2  0
  3  4  1  0
  4  5  1  0
  4  6  2  0
  6  7  1  0
  7  8  2  0
  8  9  1  0
  9 10  1  0
 10 11  1  0
 11 12  2  0
 12 13  1  0
 12 14  1  0
 14 15  1  0
 14 16  2  0
 16 17  1  0
 16 18  1  0
 18 19  1  0
 18 20  2  0
 20 21  1  0
  9 22  1  0
 22 23  1  0
 22 24  2  0
 24 25  1  0
 24 26  1  0
 26 27  2  0
  6 28  1  0
 28 29  1  0
 28 30  2  0
 30 31  1  0
 30  2  1  0
 26  7  1  0
 20 11  1  0
M  END
>  <cnnaffinity>  (1) 
-5.3211

>  <filename>  (1) 
O=c1ccn(Oc2cccc(Cl)c2)nc1-c1cccnc1

$$$$
