
     RDKit          3D

 41 44  0  0  0  0  0  0  0  0999 V2000
    7.8075    4.5855   28.7080 H   0  0  0  0  0  0  0  0  0  0  0  0
    7.6598    4.9049   27.6758 C   0  0  0  0  0  0  0  0  0  0  0  0
    7.3985    3.9283   26.8074 N   0  0  0  0  0  0  0  0  0  0  0  0
    7.2101    4.2761   25.5259 C   0  0  0  0  0  0  0  0  0  0  0  0
    6.9814    3.2535   24.6375 N   0  0  0  0  0  0  0  0  0  0  0  0
    6.8021    1.8628   25.1045 C   0  0  0  0  0  0  0  0  0  0  0  0
    7.7723    1.3844   25.2950 H   0  0  0  0  0  0  0  0  0  0  0  0
    6.2422    1.8414   26.0424 H   0  0  0  0  0  0  0  0  0  0  0  0
    6.0440    1.0274   24.0607 C   0  0  0  0  0  0  0  0  0  0  0  0
    5.9625   -0.0099   24.4028 H   0  0  0  0  0  0  0  0  0  0  0  0
    5.0309    1.4340   23.9427 H   0  0  0  0  0  0  0  0  0  0  0  0
    6.6949    1.0344   22.7323 N   0  0  0  0  0  0  0  0  0  0  0  0
    7.3086   -0.1681   22.3748 N   0  0  0  0  0  0  0  0  0  0  0  0
    7.3602   -0.6430   21.0423 C   0  0  0  0  0  0  0  0  0  0  0  0
    6.6511    0.0242   19.9347 C   0  0  0  0  0  0  0  0  0  0  0  0
    7.1800    0.0280   18.6311 C   0  0  0  0  0  0  0  0  0  0  0  0
    8.1336   -0.4596   18.4232 H   0  0  0  0  0  0  0  0  0  0  0  0
    6.6021    0.6334   17.5844 N   0  0  0  0  0  0  0  0  0  0  0  0
    5.4398    1.2719   17.7961 C   0  0  0  0  0  0  0  0  0  0  0  0
    4.9869    1.7565   16.9300 H   0  0  0  0  0  0  0  0  0  0  0  0
    4.8214    1.3307   19.0503 C   0  0  0  0  0  0  0  0  0  0  0  0
    3.8927    1.8786   19.1778 H   0  0  0  0  0  0  0  0  0  0  0  0
    5.4360    0.7115   20.1349 C   0  0  0  0  0  0  0  0  0  0  0  0
    5.0227    0.7743   21.1407 H   0  0  0  0  0  0  0  0  0  0  0  0
    8.1775   -1.7045   21.0819 C   0  0  0  0  0  0  0  0  0  0  0  0
    8.5447   -2.3858   20.3348 H   0  0  0  0  0  0  0  0  0  0  0  0
    8.6273   -1.9254   22.3598 O   0  0  0  0  0  0  0  0  0  0  0  0
    8.1040   -0.9811   23.1911 C   0  0  0  0  0  0  0  0  0  0  0  0
    8.3309   -0.9171   24.3755 O   0  0  0  0  0  0  0  0  0  0  0  0
    7.6048    2.1736   22.4890 C   0  0  0  0  0  0  0  0  0  0  0  0
    7.6621    2.3308   21.4044 H   0  0  0  0  0  0  0  0  0  0  0  0
    8.6148    1.9259   22.8533 H   0  0  0  0  0  0  0  0  0  0  0  0
    7.1041    3.4454   23.1812 C   0  0  0  0  0  0  0  0  0  0  0  0
    7.8292    4.2336   22.9596 H   0  0  0  0  0  0  0  0  0  0  0  0
    6.1443    3.7437   22.7337 H   0  0  0  0  0  0  0  0  0  0  0  0
    7.2302    5.6260   25.0992 C   0  0  0  0  0  0  0  0  0  0  0  0
    6.9914    5.8394   24.0684 H   0  0  0  0  0  0  0  0  0  0  0  0
    7.5078    6.6279   26.0200 C   0  0  0  0  0  0  0  0  0  0  0  0
    7.5466    7.6730   25.7085 H   0  0  0  0  0  0  0  0  0  0  0  0
    7.7303    6.2559   27.3519 C   0  0  0  0  0  0  0  0  0  0  0  0
    7.9527    6.9799   28.1273 H   0  0  0  0  0  0  0  0  0  0  0  0
  1  2  1  0
  2  3  2  0
  3  4  1  0
  4  5  1  0
  5  6  1  0
  6  7  1  0
  6  8  1  0
  6  9  1  0
  9 10  1  0
  9 11  1  0
  9 12  1  0
 12 13  1  0
 13 14  1  0
 14 15  1  0
 15 16  2  0
 16 17  1  0
 16 18  1  0
 18 19  2  0
 19 20  1  0
 19 21  1  0
 21 22  1  0
 21 23  2  0
 23 24  1  0
 14 25  2  0
 25 26  1  0
 25 27  1  0
 27 28  1  0
 28 29  2  0
 12 30  1  0
 30 31  1  0
 30 32  1  0
 30 33  1  0
 33 34  1  0
 33 35  1  0
  4 36  2  0
 36 37  1  0
 36 38  1  0
 38 39  1  0
 38 40  2  0
 40 41  1  0
 40  2  1  0
 33  5  1  0
 28 13  1  0
 23 15  1  0
M  END
>  <cnnaffinity>  (1) 
-5.0872

>  <filename>  (1) 
O=c1occ(-c2cccnc2)n1N1CCN(c2ccccn2)CC1

$$$$
