
     RDKit          3D

 50 53  0  0  0  0  0  0  0  0999 V2000
   12.5155    0.9067   24.7358 O   0  0  0  0  0  0  0  0  0  0  0  0
   11.3528    0.5344   24.7423 C   0  0  0  0  0  0  0  0  0  0  0  0
   10.1698    1.3113   24.5016 C   0  0  0  0  0  0  0  0  0  0  0  0
    8.9403    0.7368   24.5896 C   0  0  0  0  0  0  0  0  0  0  0  0
    7.7809    1.5141   24.3186 N   0  0  0  0  0  0  0  0  0  0  0  0
    6.8274    1.7436   25.2606 N   0  0  0  0  0  0  0  0  0  0  0  0
    5.8328    2.2388   24.5512 C   0  0  0  0  0  0  0  0  0  0  0  0
    4.4399    2.3870   25.1179 C   0  0  0  0  0  0  0  0  0  0  0  0
    4.3111    2.9468   26.5551 C   0  0  0  0  0  0  0  0  0  0  0  0
    2.8350    2.9063   26.9989 C   0  0  0  0  0  0  0  0  0  0  0  0
    2.2780    1.6023   26.9154 O   0  0  0  0  0  0  0  0  0  0  0  0
    2.3549    1.0245   25.6241 C   0  0  0  0  0  0  0  0  0  0  0  0
    3.8039    0.9740   25.1690 C   0  0  0  0  0  0  0  0  0  0  0  0
    3.9518    0.4779   24.2181 H   0  0  0  0  0  0  0  0  0  0  0  0
    4.3704    0.3815   25.8971 H   0  0  0  0  0  0  0  0  0  0  0  0
    1.9336    0.0189   25.7097 H   0  0  0  0  0  0  0  0  0  0  0  0
    1.7383    1.5855   24.9001 H   0  0  0  0  0  0  0  0  0  0  0  0
    2.7355    3.1785   28.0530 H   0  0  0  0  0  0  0  0  0  0  0  0
    2.2330    3.6183   26.4019 H   0  0  0  0  0  0  0  0  0  0  0  0
    4.8879    2.2927   27.2246 H   0  0  0  0  0  0  0  0  0  0  0  0
    4.7143    3.9602   26.6698 H   0  0  0  0  0  0  0  0  0  0  0  0
    3.9153    3.0284   24.3962 H   0  0  0  0  0  0  0  0  0  0  0  0
    6.0812    2.3255   23.2130 N   0  0  0  0  0  0  0  0  0  0  0  0
    7.3100    1.8515   23.0927 C   0  0  0  0  0  0  0  0  0  0  0  0
    8.1198    1.7104   21.8391 C   0  0  0  0  0  0  0  0  0  0  0  0
    8.5385    0.2709   21.4545 C   0  0  0  0  0  0  0  0  0  0  0  0
    7.3762   -0.6470   21.0210 C   0  0  0  0  0  0  0  0  0  0  0  0
    6.6025   -0.0419   19.8696 C   0  0  0  0  0  0  0  0  0  0  0  0
    5.4064    0.6560   20.0833 C   0  0  0  0  0  0  0  0  0  0  0  0
    4.8115    1.3321   19.0140 C   0  0  0  0  0  0  0  0  0  0  0  0
    5.4341    1.2905   17.7639 C   0  0  0  0  0  0  0  0  0  0  0  0
    6.5742    0.6255   17.5293 N   0  0  0  0  0  0  0  0  0  0  0  0
    7.1353   -0.0118   18.5660 C   0  0  0  0  0  0  0  0  0  0  0  0
    8.0764   -0.5221   18.3494 H   0  0  0  0  0  0  0  0  0  0  0  0
    5.0018    1.8163   16.9145 H   0  0  0  0  0  0  0  0  0  0  0  0
    3.9006    1.9046   19.1400 H   0  0  0  0  0  0  0  0  0  0  0  0
    4.9914    0.7053   21.0933 H   0  0  0  0  0  0  0  0  0  0  0  0
    7.7826   -1.6258   20.7272 H   0  0  0  0  0  0  0  0  0  0  0  0
    6.6967   -0.8345   21.8673 H   0  0  0  0  0  0  0  0  0  0  0  0
    9.2498    0.3392   20.6211 H   0  0  0  0  0  0  0  0  0  0  0  0
    9.0888   -0.2031   22.2749 H   0  0  0  0  0  0  0  0  0  0  0  0
    9.0158    2.3330   21.9422 H   0  0  0  0  0  0  0  0  0  0  0  0
    7.5365    2.1615   21.0302 H   0  0  0  0  0  0  0  0  0  0  0  0
    8.7743   -0.6626   24.8450 C   0  0  0  0  0  0  0  0  0  0  0  0
    9.8856   -1.4094   25.0592 C   0  0  0  0  0  0  0  0  0  0  0  0
   11.1089   -0.7984   25.0321 N   0  0  0  0  0  0  0  0  0  0  0  0
   11.9897   -1.2082   25.3136 H   0  0  0  0  0  0  0  0  0  0  0  0
    9.8594   -2.4803   25.2313 H   0  0  0  0  0  0  0  0  0  0  0  0
    7.7851   -1.1101   24.8276 H   0  0  0  0  0  0  0  0  0  0  0  0
   10.3252    2.3538   24.2999 H   0  0  0  0  0  0  0  0  0  0  0  0
  1  2  2  0
  2  3  1  0
  3  4  2  0
  4  5  1  0
  5  6  1  0
  6  7  2  0
  7  8  1  0
  8  9  1  0
  9 10  1  0
 10 11  1  0
 11 12  1  0
 12 13  1  0
 13 14  1  0
 13 15  1  0
 12 16  1  0
 12 17  1  0
 10 18  1  0
 10 19  1  0
  9 20  1  0
  9 21  1  0
  8 22  1  0
  7 23  1  0
 23 24  2  0
 24 25  1  0
 25 26  1  0
 26 27  1  0
 27 28  1  0
 28 29  2  0
 29 30  1  0
 30 31  2  0
 31 32  1  0
 32 33  2  0
 33 34  1  0
 31 35  1  0
 30 36  1  0
 29 37  1  0
 27 38  1  0
 27 39  1  0
 26 40  1  0
 26 41  1  0
 25 42  1  0
 25 43  1  0
  4 44  1  0
 44 45  2  0
 45 46  1  0
 46 47  1  0
 45 48  1  0
 44 49  1  0
  3 50  1  0
 46  2  1  0
 24  5  1  0
 33 28  1  0
 13  8  1  0
M  END
>  <cnnaffinity>  (1) 
-5.79102

>  <filename>  (1) 
O=c1cc(-n2nc(C3CCOCC3)nc2CCCc2cccnc2)cc[nH]1

$$$$
