
     RDKit          3D

 31 33  0  0  0  0  0  0  0  0999 V2000
    4.9220    1.8234   16.9690 H   0  0  0  0  0  0  0  0  0  0  0  0
    5.3941    1.3199   17.8107 C   0  0  0  0  0  0  0  0  0  0  0  0
    6.5576    0.7032   17.5479 N   0  0  0  0  0  0  0  0  0  0  0  0
    7.1719    0.0715   18.5549 C   0  0  0  0  0  0  0  0  0  0  0  0
    8.1213   -0.4075   18.3189 H   0  0  0  0  0  0  0  0  0  0  0  0
    6.6474   -0.0077   19.8599 C   0  0  0  0  0  0  0  0  0  0  0  0
    7.3432   -0.7161   20.9202 N   0  0  0  0  0  0  0  0  0  0  0  0
    8.6179   -0.3005   21.2791 C   0  0  0  0  0  0  0  0  0  0  0  0
    9.0077    0.5428   20.7108 H   0  0  0  0  0  0  0  0  0  0  0  0
    9.3361   -0.8815   22.2679 C   0  0  0  0  0  0  0  0  0  0  0  0
   10.7131   -0.4154   22.5890 C   0  0  0  0  0  0  0  0  0  0  0  0
   11.7982   -1.2968   22.4032 C   0  0  0  0  0  0  0  0  0  0  0  0
   11.5683   -2.3203   22.1188 H   0  0  0  0  0  0  0  0  0  0  0  0
   13.1232   -0.9001   22.6155 C   0  0  0  0  0  0  0  0  0  0  0  0
   13.9411   -1.5972   22.4320 H   0  0  0  0  0  0  0  0  0  0  0  0
   13.3905    0.3760   23.1216 C   0  0  0  0  0  0  0  0  0  0  0  0
   14.4085    0.6649   23.3837 H   0  0  0  0  0  0  0  0  0  0  0  0
   12.3368    1.2722   23.3276 C   0  0  0  0  0  0  0  0  0  0  0  0
   12.5127    2.2679   23.7240 H   0  0  0  0  0  0  0  0  0  0  0  0
   11.0203    0.8885   23.0460 C   0  0  0  0  0  0  0  0  0  0  0  0
    9.7811    2.0844   23.3296 Cl  0  0  0  0  0  0  0  0  0  0  0  0
    8.7380   -2.0270   22.9903 C   0  0  0  0  0  0  0  0  0  0  0  0
    9.2161   -2.7071   23.8742 O   0  0  0  0  0  0  0  0  0  0  0  0
    7.4575   -2.3347   22.5928 N   0  0  0  0  0  0  0  0  0  0  0  0
    7.0117   -3.0789   23.0887 H   0  0  0  0  0  0  0  0  0  0  0  0
    6.7126   -1.7825   21.6053 C   0  0  0  0  0  0  0  0  0  0  0  0
    5.6141   -2.2208   21.3522 O   0  0  0  0  0  0  0  0  0  0  0  0
    5.4359    0.6442   20.1205 C   0  0  0  0  0  0  0  0  0  0  0  0
    5.0141    0.6068   21.1237 H   0  0  0  0  0  0  0  0  0  0  0  0
    4.7970    1.3264   19.0762 C   0  0  0  0  0  0  0  0  0  0  0  0
    3.8582    1.8576   19.2251 H   0  0  0  0  0  0  0  0  0  0  0  0
  1  2  1  0
  2  3  2  0
  3  4  1  0
  4  5  1  0
  4  6  2  0
  6  7  1  0
  7  8  1  0
  8  9  1  0
  8 10  2  0
 10 11  1  0
 11 12  2  0
 12 13  1  0
 12 14  1  0
 14 15  1  0
 14 16  2  0
 16 17  1  0
 16 18  1  0
 18 19  1  0
 18 20  2  0
 20 21  1  0
 10 22  1  0
 22 23  2  0
 22 24  1  0
 24 25  1  0
 24 26  1  0
 26 27  2  0
  6 28  1  0
 28 29  1  0
 28 30  2  0
 30 31  1  0
 30  2  1  0
 26  7  1  0
 20 11  1  0
M  END
>  <cnnaffinity>  (1) 
-5.20718

>  <filename>  (1) 
O=c1[nH]c(=O)n(-c2cccnc2)cc1-c1ccccc1Cl

$$$$
