
     RDKit          3D

 29 31  0  0  0  0  0  0  0  0999 V2000
   13.5500    2.9224   23.0095 H   0  0  0  0  0  0  0  0  0  0  0  0
   12.5442    2.5113   22.9388 C   0  0  0  0  0  0  0  0  0  0  0  0
   12.3650    1.1478   22.8281 N   0  0  0  0  0  0  0  0  0  0  0  0
   11.1008    0.8905   22.6960 C   0  0  0  0  0  0  0  0  0  0  0  0
   10.6877   -0.4058   22.5505 N   0  0  0  0  0  0  0  0  0  0  0  0
   11.4510   -0.9874   22.8784 H   0  0  0  0  0  0  0  0  0  0  0  0
    9.3723   -0.8647   22.2670 C   0  0  0  0  0  0  0  0  0  0  0  0
    8.6528   -0.2828   21.2821 C   0  0  0  0  0  0  0  0  0  0  0  0
    9.0678    0.5378   20.6996 H   0  0  0  0  0  0  0  0  0  0  0  0
    7.3605   -0.6810   20.9414 N   0  0  0  0  0  0  0  0  0  0  0  0
    6.6663    0.0226   19.8899 C   0  0  0  0  0  0  0  0  0  0  0  0
    7.1845    0.0783   18.5814 C   0  0  0  0  0  0  0  0  0  0  0  0
    8.1276   -0.4206   18.3533 H   0  0  0  0  0  0  0  0  0  0  0  0
    6.5633    0.6873   17.5652 N   0  0  0  0  0  0  0  0  0  0  0  0
    5.3981    1.3010   17.8286 C   0  0  0  0  0  0  0  0  0  0  0  0
    4.9202    1.7941   16.9857 H   0  0  0  0  0  0  0  0  0  0  0  0
    4.8101    1.3178   19.0975 C   0  0  0  0  0  0  0  0  0  0  0  0
    3.8745    1.8420   19.2490 H   0  0  0  0  0  0  0  0  0  0  0  0
    5.4469    0.6549   20.1508 C   0  0  0  0  0  0  0  0  0  0  0  0
    5.0215    0.6081   21.1522 H   0  0  0  0  0  0  0  0  0  0  0  0
    6.7278   -1.7550   21.6062 C   0  0  0  0  0  0  0  0  0  0  0  0
    5.6335   -2.2025   21.3602 O   0  0  0  0  0  0  0  0  0  0  0  0
    7.4734   -2.3206   22.5823 N   0  0  0  0  0  0  0  0  0  0  0  0
    7.0400   -3.0862   23.0507 H   0  0  0  0  0  0  0  0  0  0  0  0
    8.7447   -2.0246   22.9967 C   0  0  0  0  0  0  0  0  0  0  0  0
    9.2081   -2.7193   23.8750 O   0  0  0  0  0  0  0  0  0  0  0  0
   10.0258    2.2541   22.7941 S   0  0  0  0  0  0  0  0  0  0  0  0
   11.4213    3.2668   22.9474 C   0  0  0  0  0  0  0  0  0  0  0  0
   11.3121    4.3378   23.0268 H   0  0  0  0  0  0  0  0  0  0  0  0
  1  2  1  0
  2  3  1  0
  3  4  2  0
  4  5  1  0
  5  6  1  0
  5  7  1  0
  7  8  2  0
  8  9  1  0
  8 10  1  0
 10 11  1  0
 11 12  2  0
 12 13  1  0
 12 14  1  0
 14 15  2  0
 15 16  1  0
 15 17  1  0
 17 18  1  0
 17 19  2  0
 19 20  1  0
 10 21  1  0
 21 22  2  0
 21 23  1  0
 23 24  1  0
 23 25  1  0
 25 26  2  0
  4 27  1  0
 27 28  1  0
 28 29  1  0
 28  2  2  0
 25  7  1  0
 19 11  1  0
M  END
>  <cnnaffinity>  (1) 
-5.38828

>  <filename>  (1) 
O=c1[nH]c(=O)n(-c2cccnc2)cc1Nc1nccs1

$$$$
