
     RDKit          3D

 30 32  0  0  0  0  0  0  0  0999 V2000
    5.1783    1.6790   16.9115 H   0  0  0  0  0  0  0  0  0  0  0  0
    5.5812    1.2376   17.8181 C   0  0  0  0  0  0  0  0  0  0  0  0
    6.7664    0.6121   17.6995 N   0  0  0  0  0  0  0  0  0  0  0  0
    7.2932    0.0657   18.8028 C   0  0  0  0  0  0  0  0  0  0  0  0
    8.2600   -0.4260   18.7111 H   0  0  0  0  0  0  0  0  0  0  0  0
    6.6446    0.0730   20.0508 C   0  0  0  0  0  0  0  0  0  0  0  0
    7.2515   -0.5784   21.1699 N   0  0  0  0  0  0  0  0  0  0  0  0
    8.5900   -0.3543   21.3245 N   0  0  0  0  0  0  0  0  0  0  0  0
    9.1762   -0.8425   22.3883 C   0  0  0  0  0  0  0  0  0  0  0  0
   10.6368   -0.5634   22.5022 C   0  0  0  0  0  0  0  0  0  0  0  0
   11.2212    0.0211   23.6348 C   0  0  0  0  0  0  0  0  0  0  0  0
   10.6210    0.3788   24.4638 H   0  0  0  0  0  0  0  0  0  0  0  0
   12.6114   -0.0002   23.7403 C   0  0  0  0  0  0  0  0  0  0  0  0
   13.3260    0.4413   25.2459 Cl  0  0  0  0  0  0  0  0  0  0  0  0
   13.4299   -0.5262   22.7369 C   0  0  0  0  0  0  0  0  0  0  0  0
   14.5061   -0.5631   22.8541 H   0  0  0  0  0  0  0  0  0  0  0  0
   12.8218   -1.0761   21.6099 C   0  0  0  0  0  0  0  0  0  0  0  0
   13.8005   -1.8411   20.4027 Cl  0  0  0  0  0  0  0  0  0  0  0  0
   11.4397   -1.0695   21.4750 C   0  0  0  0  0  0  0  0  0  0  0  0
   10.9380   -1.5131   20.6335 H   0  0  0  0  0  0  0  0  0  0  0  0
    8.5333   -1.8233   23.3318 C   0  0  0  0  0  0  0  0  0  0  0  0
    9.1036   -2.3546   24.2788 O   0  0  0  0  0  0  0  0  0  0  0  0
    7.1555   -2.1266   22.9778 C   0  0  0  0  0  0  0  0  0  0  0  0
    6.6492   -2.8651   23.5831 H   0  0  0  0  0  0  0  0  0  0  0  0
    6.5723   -1.4860   21.9506 C   0  0  0  0  0  0  0  0  0  0  0  0
    5.5383   -1.6643   21.6576 H   0  0  0  0  0  0  0  0  0  0  0  0
    5.4138    0.7318   20.1680 C   0  0  0  0  0  0  0  0  0  0  0  0
    4.9215    0.7806   21.1410 H   0  0  0  0  0  0  0  0  0  0  0  0
    4.8806    1.3344   19.0268 C   0  0  0  0  0  0  0  0  0  0  0  0
    3.9422    1.8775   19.0647 H   0  0  0  0  0  0  0  0  0  0  0  0
  1  2  1  0
  2  3  2  0
  3  4  1  0
  4  5  1  0
  4  6  2  0
  6  7  1  0
  7  8  1  0
  8  9  2  0
  9 10  1  0
 10 11  2  0
 11 12  1  0
 11 13  1  0
 13 14  1  0
 13 15  2  0
 15 16  1  0
 15 17  1  0
 17 18  1  0
 17 19  2  0
 19 20  1  0
  9 21  1  0
 21 22  2  0
 21 23  1  0
 23 24  1  0
 23 25  2  0
 25 26  1  0
  6 27  1  0
 27 28  1  0
 27 29  2  0
 29 30  1  0
 29  2  1  0
 25  7  1  0
 19 10  1  0
M  END
>  <cnnaffinity>  (1) 
-5.60068

>  <filename>  (1) 
O=c1ccn(-c2cccnc2)nc1-c1cc(Cl)cc(Cl)c1

$$$$
