
     RDKit          3D

 34 36  0  0  0  0  0  0  0  0999 V2000
    4.6770    1.9937   16.8745 H   0  0  0  0  0  0  0  0  0  0  0  0
    4.9984    1.2219   17.5673 C   0  0  0  0  0  0  0  0  0  0  0  0
    6.0196    0.4538   17.1542 N   0  0  0  0  0  0  0  0  0  0  0  0
    6.5000   -0.4541   18.0106 C   0  0  0  0  0  0  0  0  0  0  0  0
    7.3344   -1.0585   17.6583 H   0  0  0  0  0  0  0  0  0  0  0  0
    6.0045   -0.6229   19.3239 C   0  0  0  0  0  0  0  0  0  0  0  0
    6.7595   -1.3523   20.3303 N   0  0  0  0  0  0  0  0  0  0  0  0
    7.9628   -0.7750   20.7235 C   0  0  0  0  0  0  0  0  0  0  0  0
    8.2581    0.1193   20.1750 H   0  0  0  0  0  0  0  0  0  0  0  0
    8.7246   -1.2926   21.7163 C   0  0  0  0  0  0  0  0  0  0  0  0
   10.0044   -0.6733   22.0763 C   0  0  0  0  0  0  0  0  0  0  0  0
   10.1025    0.7090   22.3198 C   0  0  0  0  0  0  0  0  0  0  0  0
    9.2051    1.3186   22.2897 H   0  0  0  0  0  0  0  0  0  0  0  0
   11.3293    1.2879   22.6289 C   0  0  0  0  0  0  0  0  0  0  0  0
   11.3842    2.3524   22.8541 H   0  0  0  0  0  0  0  0  0  0  0  0
   12.4819    0.4866   22.6613 C   0  0  0  0  0  0  0  0  0  0  0  0
   13.7852    1.0383   23.1747 C   0  0  0  0  0  0  0  0  0  0  0  0
   14.8355    0.6353   22.4386 F   0  0  0  0  0  0  0  0  0  0  0  0
   13.8100    2.3827   23.2201 F   0  0  0  0  0  0  0  0  0  0  0  0
   14.0174    0.5868   24.4258 F   0  0  0  0  0  0  0  0  0  0  0  0
   12.3934   -0.8910   22.3889 C   0  0  0  0  0  0  0  0  0  0  0  0
   13.2745   -1.5236   22.3975 H   0  0  0  0  0  0  0  0  0  0  0  0
   11.1586   -1.4629   22.1267 C   0  0  0  0  0  0  0  0  0  0  0  0
   11.0517   -2.5342   22.0031 H   0  0  0  0  0  0  0  0  0  0  0  0
    8.2510   -2.5214   22.3829 C   0  0  0  0  0  0  0  0  0  0  0  0
    8.8787   -3.3298   23.0344 O   0  0  0  0  0  0  0  0  0  0  0  0
    6.8921   -2.7335   22.2194 N   0  0  0  0  0  0  0  0  0  0  0  0
    6.5581   -3.5791   22.6362 H   0  0  0  0  0  0  0  0  0  0  0  0
    6.2157   -2.4372   21.0670 C   0  0  0  0  0  0  0  0  0  0  0  0
    5.2469   -3.0891   20.7645 O   0  0  0  0  0  0  0  0  0  0  0  0
    4.8801    0.1133   19.7063 C   0  0  0  0  0  0  0  0  0  0  0  0
    4.4525   -0.0349   20.6981 H   0  0  0  0  0  0  0  0  0  0  0  0
    4.3804    1.0705   18.8140 C   0  0  0  0  0  0  0  0  0  0  0  0
    3.5464    1.7099   19.0808 H   0  0  0  0  0  0  0  0  0  0  0  0
  1  2  1  0
  2  3  2  0
  3  4  1  0
  4  5  1  0
  4  6  2  0
  6  7  1  0
  7  8  1  0
  8  9  1  0
  8 10  2  0
 10 11  1  0
 11 12  2  0
 12 13  1  0
 12 14  1  0
 14 15  1  0
 14 16  2  0
 16 17  1  0
 17 18  1  0
 17 19  1  0
 17 20  1  0
 16 21  1  0
 21 22  1  0
 21 23  2  0
 23 24  1  0
 10 25  1  0
 25 26  2  0
 25 27  1  0
 27 28  1  0
 27 29  1  0
 29 30  2  0
  6 31  1  0
 31 32  1  0
 31 33  2  0
 33 34  1  0
 33  2  1  0
 29  7  1  0
 23 11  1  0
M  END
>  <cnnaffinity>  (1) 
-5.60821

>  <filename>  (1) 
O=c1[nH]c(=O)n(-c2cccnc2)cc1-c1ccc(C(F)(F)F)cc1

$$$$
