
     RDKit          3D

 33 35  0  0  0  0  0  0  0  0999 V2000
    5.3569    1.7060   16.9371 H   0  0  0  0  0  0  0  0  0  0  0  0
    5.7366    1.1300   17.7809 C   0  0  0  0  0  0  0  0  0  0  0  0
    6.8706    0.4486   17.5638 N   0  0  0  0  0  0  0  0  0  0  0  0
    7.3693   -0.2535   18.5931 C   0  0  0  0  0  0  0  0  0  0  0  0
    8.2942   -0.7984   18.3989 H   0  0  0  0  0  0  0  0  0  0  0  0
    6.7712   -0.3359   19.8640 C   0  0  0  0  0  0  0  0  0  0  0  0
    7.4146   -1.0670   20.9639 C   0  0  0  0  0  0  0  0  0  0  0  0
    8.5313   -0.6233   21.6052 C   0  0  0  0  0  0  0  0  0  0  0  0
    9.2910    0.6703   21.4502 C   0  0  0  0  0  0  0  0  0  0  0  0
    9.1640    1.0693   20.4363 H   0  0  0  0  0  0  0  0  0  0  0  0
   10.3605    0.4432   21.5770 H   0  0  0  0  0  0  0  0  0  0  0  0
    8.9246    1.8027   22.4227 C   0  0  0  0  0  0  0  0  0  0  0  0
    9.1547    1.7412   23.8322 C   0  0  0  0  0  0  0  0  0  0  0  0
    9.6270    0.9042   24.3663 H   0  0  0  0  0  0  0  0  0  0  0  0
    8.7348    2.9782   24.4375 C   0  0  0  0  0  0  0  0  0  0  0  0
    9.3958    3.7684   24.7712 H   0  0  0  0  0  0  0  0  0  0  0  0
    8.1373    3.8941   23.3599 C   0  0  0  0  0  0  0  0  0  0  0  0
    7.5917    4.9570   23.3866 H   0  0  0  0  0  0  0  0  0  0  0  0
    8.0038    3.8365   23.2600 C   0  0  0  0  0  0  0  0  0  0  0  0
    5.9696    2.6705   23.2557 Cl  0  0  0  0  0  0  0  0  0  0  0  0
    8.3640    3.0680   21.9803 C   0  0  0  0  0  0  0  0  0  0  0  0
    7.4036    3.1411   21.4655 H   0  0  0  0  0  0  0  0  0  0  0  0
    8.8056   -1.5101   22.7488 C   0  0  0  0  0  0  0  0  0  0  0  0
    9.6483   -1.4324   23.6256 O   0  0  0  0  0  0  0  0  0  0  0  0
    7.8778   -2.5179   22.6729 N   0  0  0  0  0  0  0  0  0  0  0  0
    7.7797   -3.0706   23.5075 H   0  0  0  0  0  0  0  0  0  0  0  0
    6.8678   -2.2893   21.6575 C   0  0  0  0  0  0  0  0  0  0  0  0
    6.7772   -3.1447   20.9718 H   0  0  0  0  0  0  0  0  0  0  0  0
    5.8669   -2.0957   22.0806 H   0  0  0  0  0  0  0  0  0  0  0  0
    5.5816    0.3843   20.0649 C   0  0  0  0  0  0  0  0  0  0  0  0
    5.1318    0.4156   21.0650 H   0  0  0  0  0  0  0  0  0  0  0  0
    5.0594    1.1297   19.0074 C   0  0  0  0  0  0  0  0  0  0  0  0
    4.1589    1.7218   19.1272 H   0  0  0  0  0  0  0  0  0  0  0  0
  1  2  1  0
  2  3  2  0
  3  4  1  0
  4  5  1  0
  4  6  2  0
  6  7  1  0
  7  8  2  0
  8  9  1  0
  9 10  1  0
  9 11  1  0
  9 12  1  0
 12 13  2  0
 13 14  1  0
 13 15  1  0
 15 16  1  0
 15 17  2  0
 17 18  1  0
 17 19  1  0
 19 20  1  0
 19 21  2  0
 21 22  1  0
  8 23  1  0
 23 24  2  0
 23 25  1  0
 25 26  1  0
 25 27  1  0
 27 28  1  0
 27 29  1  0
  6 30  1  0
 30 31  1  0
 30 32  2  0
 32 33  1  0
 32  2  1  0
 27  7  1  0
 21 12  1  0
M  END
>  <cnnaffinity>  (1) 
-5.01954

>  <filename>  (1) 
O=C1NCC(c2cccnc2)=C1Cc1cccc(Cl)c1

$$$$
