
     RDKit          3D

 47 50  0  0  0  0  0  0  0  0999 V2000
   10.7889   -0.0530   26.4013 O   0  0  0  0  0  0  0  0  0  0  0  0
   11.0905    0.4590   25.3809 C   0  0  0  0  0  0  0  0  0  0  0  0
   10.2914    1.0004   24.3212 C   0  0  0  0  0  0  0  0  0  0  0  0
   10.7203    1.7799   23.2726 C   0  0  0  0  0  0  0  0  0  0  0  0
    9.8778    1.8843   22.0159 C   0  0  0  0  0  0  0  0  0  0  0  0
   10.3960    0.8413   21.1804 O   0  0  0  0  0  0  0  0  0  0  0  0
    9.4750    0.1081   20.4236 C   0  0  0  0  0  0  0  0  0  0  0  0
    8.4924   -0.7010   21.2247 C   0  0  0  0  0  0  0  0  0  0  0  0
    8.7424   -1.4323   22.2922 N   0  0  0  0  0  0  0  0  0  0  0  0
    7.5284   -1.9850   22.5808 C   0  0  0  0  0  0  0  0  0  0  0  0
    7.3558   -2.9295   23.7320 C   0  0  0  0  0  0  0  0  0  0  0  0
    8.2217   -4.2062   23.6171 C   0  0  0  0  0  0  0  0  0  0  0  0
    8.3005   -4.7765   25.0459 C   0  0  0  0  0  0  0  0  0  0  0  0
    7.9956   -3.5953   26.0019 C   0  0  0  0  0  0  0  0  0  0  0  0
    7.7770   -2.3590   25.1071 C   0  0  0  0  0  0  0  0  0  0  0  0
    7.0286   -1.6686   25.5156 H   0  0  0  0  0  0  0  0  0  0  0  0
    8.7174   -1.7989   24.9990 H   0  0  0  0  0  0  0  0  0  0  0  0
    8.8049   -3.4295   26.7224 H   0  0  0  0  0  0  0  0  0  0  0  0
    7.0989   -3.8106   26.5953 H   0  0  0  0  0  0  0  0  0  0  0  0
    9.2851   -5.2166   25.2400 H   0  0  0  0  0  0  0  0  0  0  0  0
    7.5700   -5.5814   25.1899 H   0  0  0  0  0  0  0  0  0  0  0  0
    7.8102   -4.9163   22.8907 H   0  0  0  0  0  0  0  0  0  0  0  0
    9.2251   -3.9278   23.2682 H   0  0  0  0  0  0  0  0  0  0  0  0
    6.2910   -3.1958   23.7510 H   0  0  0  0  0  0  0  0  0  0  0  0
    6.5581   -1.6307   21.7615 N   0  0  0  0  0  0  0  0  0  0  0  0
    7.1828   -0.8205   20.8687 N   0  0  0  0  0  0  0  0  0  0  0  0
    6.4863   -0.1535   19.8216 C   0  0  0  0  0  0  0  0  0  0  0  0
    5.3183    0.5685   20.0890 C   0  0  0  0  0  0  0  0  0  0  0  0
    4.7572    1.3212   19.0532 C   0  0  0  0  0  0  0  0  0  0  0  0
    5.3614    1.3065   17.7903 C   0  0  0  0  0  0  0  0  0  0  0  0
    6.4506    0.5737   17.5132 N   0  0  0  0  0  0  0  0  0  0  0  0
    6.9866   -0.1441   18.5043 C   0  0  0  0  0  0  0  0  0  0  0  0
    7.8737   -0.7196   18.2446 H   0  0  0  0  0  0  0  0  0  0  0  0
    4.9561    1.8956   16.9703 H   0  0  0  0  0  0  0  0  0  0  0  0
    3.8725    1.9281   19.2137 H   0  0  0  0  0  0  0  0  0  0  0  0
    4.8879    0.5387   21.0906 H   0  0  0  0  0  0  0  0  0  0  0  0
    8.9460    0.7788   19.7346 H   0  0  0  0  0  0  0  0  0  0  0  0
   10.0802   -0.5998   19.8502 H   0  0  0  0  0  0  0  0  0  0  0  0
    8.8130    1.7231   22.2364 H   0  0  0  0  0  0  0  0  0  0  0  0
   10.0212    2.8514   21.5139 H   0  0  0  0  0  0  0  0  0  0  0  0
   11.9976    2.3066   23.0889 C   0  0  0  0  0  0  0  0  0  0  0  0
   13.1428    1.4449   22.8196 C   0  0  0  0  0  0  0  0  0  0  0  0
   13.3916    1.0233   24.0800 N   0  0  0  0  0  0  0  0  0  0  0  0
   12.5888    0.6137   24.5713 H   0  0  0  0  0  0  0  0  0  0  0  0
   13.8635    1.7397   24.6124 H   0  0  0  0  0  0  0  0  0  0  0  0
   12.0738    3.3504   22.7822 H   0  0  0  0  0  0  0  0  0  0  0  0
    9.2584    0.6961   24.3946 H   0  0  0  0  0  0  0  0  0  0  0  0
  1  2  2  0
  2  3  1  0
  3  4  2  0
  4  5  1  0
  5  6  1  0
  6  7  1  0
  7  8  1  0
  8  9  2  0
  9 10  1  0
 10 11  1  0
 11 12  1  0
 12 13  1  0
 13 14  1  0
 14 15  1  0
 15 16  1  0
 15 17  1  0
 14 18  1  0
 14 19  1  0
 13 20  1  0
 13 21  1  0
 12 22  1  0
 12 23  1  0
 11 24  1  0
 10 25  2  0
 25 26  1  0
 26 27  1  0
 27 28  2  0
 28 29  1  0
 29 30  2  0
 30 31  1  0
 31 32  2  0
 32 33  1  0
 30 34  1  0
 29 35  1  0
 28 36  1  0
  7 37  1  0
  7 38  1  0
  5 39  1  0
  5 40  1  0
  4 41  1  0
 41 42  2  0
 42 43  1  0
 43 44  1  0
 42 45  1  0
 41 46  1  0
  3 47  1  0
 43  2  1  0
 26  8  1  0
 32 27  1  0
 15 11  1  0
M  END
>  <cnnaffinity>  (1) 
-6.25524

>  <filename>  (1) 
O=c1cc(COCc2nc(C3CCCC3)nn2-c2cccnc2)cc[nH]1

$$$$
