
     RDKit          3D

 35 38  0  0  0  0  0  0  0  0999 V2000
    5.0067    2.0112   16.9131 H   0  0  0  0  0  0  0  0  0  0  0  0
    5.3785    1.3892   17.7259 C   0  0  0  0  0  0  0  0  0  0  0  0
    6.4989    0.6936   17.4692 N   0  0  0  0  0  0  0  0  0  0  0  0
    6.9948   -0.0544   18.4599 C   0  0  0  0  0  0  0  0  0  0  0  0
    7.9364   -0.5636   18.2635 H   0  0  0  0  0  0  0  0  0  0  0  0
    6.3896   -0.1975   19.7249 C   0  0  0  0  0  0  0  0  0  0  0  0
    7.0632   -0.9417   20.7651 N   0  0  0  0  0  0  0  0  0  0  0  0
    8.3221   -0.4939   21.1010 C   0  0  0  0  0  0  0  0  0  0  0  0
    8.6887    0.3386   20.5065 H   0  0  0  0  0  0  0  0  0  0  0  0
    9.0798   -1.0372   22.0995 C   0  0  0  0  0  0  0  0  0  0  0  0
   10.4279   -0.4597   22.3608 C   0  0  0  0  0  0  0  0  0  0  0  0
   11.6027   -1.2621   22.3267 C   0  0  0  0  0  0  0  0  0  0  0  0
   11.5040   -2.3335   22.1521 H   0  0  0  0  0  0  0  0  0  0  0  0
   12.8626   -0.6919   22.4788 C   0  0  0  0  0  0  0  0  0  0  0  0
   13.7499   -1.3103   22.3946 H   0  0  0  0  0  0  0  0  0  0  0  0
   12.9796    0.6971   22.7024 C   0  0  0  0  0  0  0  0  0  0  0  0
   14.0775    1.6049   22.8880 C   0  0  0  0  0  0  0  0  0  0  0  0
   15.1279    1.3455   22.8477 H   0  0  0  0  0  0  0  0  0  0  0  0
   13.5450    2.8499   23.0442 C   0  0  0  0  0  0  0  0  0  0  0  0
   14.0437    3.7928   23.2185 H   0  0  0  0  0  0  0  0  0  0  0  0
   12.1659    2.7814   22.9770 N   0  0  0  0  0  0  0  0  0  0  0  0
   11.5497    3.5593   22.8043 H   0  0  0  0  0  0  0  0  0  0  0  0
   11.7997    1.4780   22.7477 C   0  0  0  0  0  0  0  0  0  0  0  0
   10.5319    0.9212   22.5606 C   0  0  0  0  0  0  0  0  0  0  0  0
    9.6480    1.5502   22.5601 H   0  0  0  0  0  0  0  0  0  0  0  0
    8.5173   -2.1154   22.8539 C   0  0  0  0  0  0  0  0  0  0  0  0
    9.1026   -2.5518   23.6644 H   0  0  0  0  0  0  0  0  0  0  0  0
    7.2601   -2.5588   22.5771 C   0  0  0  0  0  0  0  0  0  0  0  0
    6.7621   -3.3374   23.1354 H   0  0  0  0  0  0  0  0  0  0  0  0
    6.4483   -2.0243   21.4907 C   0  0  0  0  0  0  0  0  0  0  0  0
    5.3595   -2.4862   21.2020 O   0  0  0  0  0  0  0  0  0  0  0  0
    5.2259    0.5344   19.9820 C   0  0  0  0  0  0  0  0  0  0  0  0
    4.7620    0.4803   20.9663 H   0  0  0  0  0  0  0  0  0  0  0  0
    4.7176    1.3488   18.9589 C   0  0  0  0  0  0  0  0  0  0  0  0
    3.8399    1.9691   19.1092 H   0  0  0  0  0  0  0  0  0  0  0  0
  1  2  1  0
  2  3  2  0
  3  4  1  0
  4  5  1  0
  4  6  2  0
  6  7  1  0
  7  8  1  0
  8  9  1  0
  8 10  2  0
 10 11  1  0
 11 12  2  0
 12 13  1  0
 12 14  1  0
 14 15  1  0
 14 16  2  0
 16 17  1  0
 17 18  1  0
 17 19  2  0
 19 20  1  0
 19 21  1  0
 21 22  1  0
 21 23  1  0
 23 24  2  0
 24 25  1  0
 10 26  1  0
 26 27  1  0
 26 28  2  0
 28 29  1  0
 28 30  1  0
 30 31  2  0
  6 32  1  0
 32 33  1  0
 32 34  2  0
 34 35  1  0
 34  2  1  0
 30  7  1  0
 24 11  1  0
 23 16  1  0
M  END
>  <cnnaffinity>  (1) 
-5.98152

>  <filename>  (1) 
O=c1ccc(-c2ccc3cc[nH]c3c2)cn1-c1cccnc1

$$$$
