
     RDKit          3D

 33 36  0  0  0  0  0  0  0  0999 V2000
    5.0023    1.6842   17.0157 H   0  0  0  0  0  0  0  0  0  0  0  0
    5.4611    1.2469   17.8993 C   0  0  0  0  0  0  0  0  0  0  0  0
    6.6298    0.6163   17.6985 N   0  0  0  0  0  0  0  0  0  0  0  0
    7.2127    0.0617   18.7662 C   0  0  0  0  0  0  0  0  0  0  0  0
    8.1507   -0.4629   18.5893 H   0  0  0  0  0  0  0  0  0  0  0  0
    6.7001    0.1226   20.0756 C   0  0  0  0  0  0  0  0  0  0  0  0
    7.4205   -0.5706   21.1511 C   0  0  0  0  0  0  0  0  0  0  0  0
    7.9975   -1.7791   21.1232 C   0  0  0  0  0  0  0  0  0  0  0  0
    8.0015   -2.5589   20.3845 H   0  0  0  0  0  0  0  0  0  0  0  0
    8.5825   -2.0610   22.3268 O   0  0  0  0  0  0  0  0  0  0  0  0
    8.3784   -1.0151   23.1803 C   0  0  0  0  0  0  0  0  0  0  0  0
    8.7848   -0.9738   24.3112 O   0  0  0  0  0  0  0  0  0  0  0  0
    7.6434   -0.0666   22.4548 N   0  0  0  0  0  0  0  0  0  0  0  0
    7.2150    1.1935   22.9960 C   0  0  0  0  0  0  0  0  0  0  0  0
    7.6457    2.4035   22.4652 C   0  0  0  0  0  0  0  0  0  0  0  0
    8.3254    2.4328   21.6144 H   0  0  0  0  0  0  0  0  0  0  0  0
    7.2808    3.6255   22.9451 N   0  0  0  0  0  0  0  0  0  0  0  0
    6.4320    3.6697   23.9492 C   0  0  0  0  0  0  0  0  0  0  0  0
    6.1296    4.6491   24.3197 H   0  0  0  0  0  0  0  0  0  0  0  0
    5.8740    2.5104   24.5728 C   0  0  0  0  0  0  0  0  0  0  0  0
    4.9043    2.6013   25.6181 C   0  0  0  0  0  0  0  0  0  0  0  0
    4.5983    3.5866   25.9522 H   0  0  0  0  0  0  0  0  0  0  0  0
    4.3526    1.4662   26.1606 C   0  0  0  0  0  0  0  0  0  0  0  0
    3.5666    1.5470   26.9063 H   0  0  0  0  0  0  0  0  0  0  0  0
    4.7813    0.1866   25.7255 C   0  0  0  0  0  0  0  0  0  0  0  0
    4.3472   -0.7072   26.1631 H   0  0  0  0  0  0  0  0  0  0  0  0
    5.7285    0.0702   24.7303 C   0  0  0  0  0  0  0  0  0  0  0  0
    6.0616   -0.9051   24.3894 H   0  0  0  0  0  0  0  0  0  0  0  0
    6.2857    1.2302   24.1021 C   0  0  0  0  0  0  0  0  0  0  0  0
    5.4838    0.8029   20.2630 C   0  0  0  0  0  0  0  0  0  0  0  0
    5.0907    0.8946   21.2769 H   0  0  0  0  0  0  0  0  0  0  0  0
    4.8409    1.3542   19.1523 C   0  0  0  0  0  0  0  0  0  0  0  0
    3.8929    1.8777   19.2436 H   0  0  0  0  0  0  0  0  0  0  0  0
  1  2  1  0
  2  3  2  0
  3  4  1  0
  4  5  1  0
  4  6  2  0
  6  7  1  0
  7  8  2  0
  8  9  1  0
  8 10  1  0
 10 11  1  0
 11 12  2  0
 11 13  1  0
 13 14  1  0
 14 15  2  0
 15 16  1  0
 15 17  1  0
 17 18  2  0
 18 19  1  0
 18 20  1  0
 20 21  2  0
 21 22  1  0
 21 23  1  0
 23 24  1  0
 23 25  2  0
 25 26  1  0
 25 27  1  0
 27 28  1  0
 27 29  2  0
  6 30  1  0
 30 31  1  0
 30 32  2  0
 32 33  1  0
 32  2  1  0
 13  7  1  0
 29 14  1  0
 29 20  1  0
M  END
>  <cnnaffinity>  (1) 
-4.98441

>  <filename>  (1) 
O=c1occ(-c2cccnc2)n1-c1cncc2ccccc12

$$$$
