
     RDKit          3D

 36 39  0  0  0  0  0  0  0  0999 V2000
    4.9097    1.7814   16.9951 H   0  0  0  0  0  0  0  0  0  0  0  0
    5.3961    1.2974   17.8369 C   0  0  0  0  0  0  0  0  0  0  0  0
    6.5592    0.6785   17.5717 N   0  0  0  0  0  0  0  0  0  0  0  0
    7.1704    0.0583   18.5861 C   0  0  0  0  0  0  0  0  0  0  0  0
    8.1226   -0.4259   18.3791 H   0  0  0  0  0  0  0  0  0  0  0  0
    6.6429   -0.0026   19.8888 C   0  0  0  0  0  0  0  0  0  0  0  0
    7.3417   -0.6885   20.9374 N   0  0  0  0  0  0  0  0  0  0  0  0
    6.7197   -1.7444   21.5758 C   0  0  0  0  0  0  0  0  0  0  0  0
    5.7059   -1.9686   21.2451 H   0  0  0  0  0  0  0  0  0  0  0  0
    7.3323   -2.4489   22.5713 C   0  0  0  0  0  0  0  0  0  0  0  0
    6.6514   -3.5704   23.2666 C   0  0  0  0  0  0  0  0  0  0  0  0
    5.8556   -4.5221   22.5448 C   0  0  0  0  0  0  0  0  0  0  0  0
    5.7786   -4.4074   21.4624 H   0  0  0  0  0  0  0  0  0  0  0  0
    5.2293   -5.5471   23.0778 N   0  0  0  0  0  0  0  0  0  0  0  0
    5.3430   -5.7080   24.4426 C   0  0  0  0  0  0  0  0  0  0  0  0
    4.6750   -6.8003   25.0715 C   0  0  0  0  0  0  0  0  0  0  0  0
    4.0967   -7.4609   24.4364 H   0  0  0  0  0  0  0  0  0  0  0  0
    4.7675   -6.9924   26.4345 C   0  0  0  0  0  0  0  0  0  0  0  0
    4.2564   -7.8264   26.9153 H   0  0  0  0  0  0  0  0  0  0  0  0
    5.5356   -6.1017   27.2415 C   0  0  0  0  0  0  0  0  0  0  0  0
    5.5980   -6.2697   28.3151 H   0  0  0  0  0  0  0  0  0  0  0  0
    6.1938   -5.0389   26.6733 C   0  0  0  0  0  0  0  0  0  0  0  0
    6.7848   -4.3499   27.2785 H   0  0  0  0  0  0  0  0  0  0  0  0
    6.1101   -4.8185   25.2650 C   0  0  0  0  0  0  0  0  0  0  0  0
    6.7692   -3.7388   24.6300 C   0  0  0  0  0  0  0  0  0  0  0  0
    7.3484   -3.0381   25.2335 H   0  0  0  0  0  0  0  0  0  0  0  0
    8.6564   -2.0619   22.9574 C   0  0  0  0  0  0  0  0  0  0  0  0
    9.1641   -2.6256   23.7414 H   0  0  0  0  0  0  0  0  0  0  0  0
    9.2887   -1.0302   22.3436 C   0  0  0  0  0  0  0  0  0  0  0  0
   10.2836   -0.7012   22.5986 H   0  0  0  0  0  0  0  0  0  0  0  0
    8.6685   -0.2537   21.2873 C   0  0  0  0  0  0  0  0  0  0  0  0
    9.2118    0.6810   20.7194 O   0  0  0  0  0  0  0  0  0  0  0  0
    5.4330    0.6447   20.1543 C   0  0  0  0  0  0  0  0  0  0  0  0
    5.0222    0.6241   21.1671 H   0  0  0  0  0  0  0  0  0  0  0  0
    4.8013    1.3190   19.1045 C   0  0  0  0  0  0  0  0  0  0  0  0
    3.8679    1.8491   19.2618 H   0  0  0  0  0  0  0  0  0  0  0  0
  1  2  1  0
  2  3  2  0
  3  4  1  0
  4  5  1  0
  4  6  2  0
  6  7  1  0
  7  8  1  0
  8  9  1  0
  8 10  2  0
 10 11  1  0
 11 12  2  0
 12 13  1  0
 12 14  1  0
 14 15  2  0
 15 16  1  0
 16 17  1  0
 16 18  2  0
 18 19  1  0
 18 20  1  0
 20 21  1  0
 20 22  2  0
 22 23  1  0
 22 24  1  0
 24 25  2  0
 25 26  1  0
 10 27  1  0
 27 28  1  0
 27 29  2  0
 29 30  1  0
 29 31  1  0
 31 32  2  0
  6 33  1  0
 33 34  1  0
 33 35  2  0
 35 36  1  0
 35  2  1  0
 31  7  1  0
 25 11  1  0
 24 15  1  0
M  END
>  <cnnaffinity>  (1) 
-5.7765

>  <filename>  (1) 
O=c1ccc(-c2cnc3ccccc3c2)cn1-c1cccnc1

$$$$
