
     RDKit          3D

 49 52  0  0  0  0  0  0  0  0999 V2000
    6.2696    2.8774   22.9548 O   0  0  0  0  0  0  0  0  0  0  0  0
    7.0613    3.7932   23.1567 C   0  0  0  0  0  0  0  0  0  0  0  0
    6.6504    5.1664   23.4345 C   0  0  0  0  0  0  0  0  0  0  0  0
    7.5466    6.1695   23.6399 C   0  0  0  0  0  0  0  0  0  0  0  0
    8.9498    5.8834   23.5803 C   0  0  0  0  0  0  0  0  0  0  0  0
    9.3632    4.6116   23.3304 C   0  0  0  0  0  0  0  0  0  0  0  0
    8.4656    3.5768   23.1590 N   0  0  0  0  0  0  0  0  0  0  0  0
    8.9529    2.2370   22.8165 C   0  0  0  0  0  0  0  0  0  0  0  0
    9.0357    2.0208   21.3035 C   0  0  0  0  0  0  0  0  0  0  0  0
    9.5301    0.6096   20.9331 C   0  0  0  0  0  0  0  0  0  0  0  0
    8.6258   -0.4763   21.4183 C   0  0  0  0  0  0  0  0  0  0  0  0
    8.8443   -1.2819   22.4370 N   0  0  0  0  0  0  0  0  0  0  0  0
    7.6602   -1.9438   22.5682 C   0  0  0  0  0  0  0  0  0  0  0  0
    7.4403   -2.9279   23.6735 C   0  0  0  0  0  0  0  0  0  0  0  0
    7.4238   -2.2742   25.0737 C   0  0  0  0  0  0  0  0  0  0  0  0
    7.8120   -3.3906   26.0594 C   0  0  0  0  0  0  0  0  0  0  0  0
    8.4771   -4.5122   25.2261 C   0  0  0  0  0  0  0  0  0  0  0  0
    8.5252   -4.0179   23.7705 C   0  0  0  0  0  0  0  0  0  0  0  0
    9.5069   -3.5869   23.5435 H   0  0  0  0  0  0  0  0  0  0  0  0
    8.3512   -4.8260   23.0514 H   0  0  0  0  0  0  0  0  0  0  0  0
    9.4807   -4.7485   25.5930 H   0  0  0  0  0  0  0  0  0  0  0  0
    7.8952   -5.4370   25.3039 H   0  0  0  0  0  0  0  0  0  0  0  0
    8.4854   -3.0079   26.8327 H   0  0  0  0  0  0  0  0  0  0  0  0
    6.9302   -3.7765   26.5815 H   0  0  0  0  0  0  0  0  0  0  0  0
    8.1568   -1.4598   25.1123 H   0  0  0  0  0  0  0  0  0  0  0  0
    6.4454   -1.8364   25.3001 H   0  0  0  0  0  0  0  0  0  0  0  0
    6.4697   -3.3950   23.4860 H   0  0  0  0  0  0  0  0  0  0  0  0
    6.7370   -1.6025   21.6970 N   0  0  0  0  0  0  0  0  0  0  0  0
    7.3624   -0.6648   20.9372 N   0  0  0  0  0  0  0  0  0  0  0  0
    6.6609    0.0098   19.9006 C   0  0  0  0  0  0  0  0  0  0  0  0
    5.4420    0.6462   20.1662 C   0  0  0  0  0  0  0  0  0  0  0  0
    4.8103    1.3105   19.1093 C   0  0  0  0  0  0  0  0  0  0  0  0
    5.4017    1.2950   17.8388 C   0  0  0  0  0  0  0  0  0  0  0  0
    6.5634    0.6759   17.5779 N   0  0  0  0  0  0  0  0  0  0  0  0
    7.1727    0.0571   18.5945 C   0  0  0  0  0  0  0  0  0  0  0  0
    8.1163   -0.4341   18.3718 H   0  0  0  0  0  0  0  0  0  0  0  0
    4.9163    1.7821   16.9950 H   0  0  0  0  0  0  0  0  0  0  0  0
    3.8770    1.8418   19.2618 H   0  0  0  0  0  0  0  0  0  0  0  0
    5.0211    0.6182   21.1754 H   0  0  0  0  0  0  0  0  0  0  0  0
    9.6286    0.5375   19.8462 H   0  0  0  0  0  0  0  0  0  0  0  0
   10.5222    0.4279   21.3594 H   0  0  0  0  0  0  0  0  0  0  0  0
    8.0526    2.2031   20.8516 H   0  0  0  0  0  0  0  0  0  0  0  0
    9.7247    2.7591   20.8861 H   0  0  0  0  0  0  0  0  0  0  0  0
    9.9381    2.0776   23.2743 H   0  0  0  0  0  0  0  0  0  0  0  0
    8.2788    1.5110   23.2733 H   0  0  0  0  0  0  0  0  0  0  0  0
   10.4209    4.3461   23.2560 H   0  0  0  0  0  0  0  0  0  0  0  0
    9.6800    6.6732   23.7305 H   0  0  0  0  0  0  0  0  0  0  0  0
    7.2116    7.1900   23.8432 H   0  0  0  0  0  0  0  0  0  0  0  0
    5.5783    5.3019   23.4540 H   0  0  0  0  0  0  0  0  0  0  0  0
  1  2  2  0
  2  3  1  0
  3  4  2  0
  4  5  1  0
  5  6  2  0
  6  7  1  0
  7  8  1  0
  8  9  1  0
  9 10  1  0
 10 11  1  0
 11 12  2  0
 12 13  1  0
 13 14  1  0
 14 15  1  0
 15 16  1  0
 16 17  1  0
 17 18  1  0
 18 19  1  0
 18 20  1  0
 17 21  1  0
 17 22  1  0
 16 23  1  0
 16 24  1  0
 15 25  1  0
 15 26  1  0
 14 27  1  0
 13 28  2  0
 28 29  1  0
 29 30  1  0
 30 31  2  0
 31 32  1  0
 32 33  2  0
 33 34  1  0
 34 35  2  0
 35 36  1  0
 33 37  1  0
 32 38  1  0
 31 39  1  0
 10 40  1  0
 10 41  1  0
  9 42  1  0
  9 43  1  0
  8 44  1  0
  8 45  1  0
  6 46  1  0
  5 47  1  0
  4 48  1  0
  3 49  1  0
  7  2  1  0
 29 11  1  0
 35 30  1  0
 18 14  1  0
M  END
>  <cnnaffinity>  (1) 
-6.25171

>  <filename>  (1) 
O=c1ccccn1CCCc1nc(C2CCCC2)nn1-c1cccnc1

$$$$
