
     RDKit          3D

 50 53  0  0  0  0  0  0  0  0999 V2000
    9.0482    4.3029   25.3405 O   0  0  0  0  0  0  0  0  0  0  0  0
    8.1716    3.4799   25.1286 C   0  0  0  0  0  0  0  0  0  0  0  0
    8.3087    2.0465   25.0437 C   0  0  0  0  0  0  0  0  0  0  0  0
    7.2141    1.2567   24.8158 C   0  0  0  0  0  0  0  0  0  0  0  0
    7.3424   -0.1608   24.7184 N   0  0  0  0  0  0  0  0  0  0  0  0
    6.5301   -1.0051   25.4105 N   0  0  0  0  0  0  0  0  0  0  0  0
    6.9572   -2.1990   25.0350 C   0  0  0  0  0  0  0  0  0  0  0  0
    6.3292   -3.4699   25.5318 C   0  0  0  0  0  0  0  0  0  0  0  0
    6.4491   -3.6041   27.0767 C   0  0  0  0  0  0  0  0  0  0  0  0
    5.6100   -4.7325   27.6279 C   0  0  0  0  0  0  0  0  0  0  0  0
    4.6027   -5.2986   26.9583 C   0  0  0  0  0  0  0  0  0  0  0  0
    4.2367   -4.9272   25.5383 C   0  0  0  0  0  0  0  0  0  0  0  0
    4.8411   -3.5806   25.1012 C   0  0  0  0  0  0  0  0  0  0  0  0
    4.2886   -2.7435   25.5531 H   0  0  0  0  0  0  0  0  0  0  0  0
    4.7484   -3.4667   24.0133 H   0  0  0  0  0  0  0  0  0  0  0  0
    3.1452   -4.9069   25.4263 H   0  0  0  0  0  0  0  0  0  0  0  0
    4.5805   -5.7288   24.8651 H   0  0  0  0  0  0  0  0  0  0  0  0
    4.0142   -6.0866   27.4311 H   0  0  0  0  0  0  0  0  0  0  0  0
    5.8471   -5.0662   28.6391 H   0  0  0  0  0  0  0  0  0  0  0  0
    7.4981   -3.7474   27.3698 H   0  0  0  0  0  0  0  0  0  0  0  0
    6.1367   -2.6572   27.5450 H   0  0  0  0  0  0  0  0  0  0  0  0
    6.8956   -4.2817   25.0555 H   0  0  0  0  0  0  0  0  0  0  0  0
    7.9692   -2.1792   24.1314 N   0  0  0  0  0  0  0  0  0  0  0  0
    8.1844   -0.8893   23.9406 C   0  0  0  0  0  0  0  0  0  0  0  0
    9.0872   -0.3155   22.8943 C   0  0  0  0  0  0  0  0  0  0  0  0
    8.3124    0.3334   21.7337 C   0  0  0  0  0  0  0  0  0  0  0  0
    7.4108   -0.6733   20.9994 C   0  0  0  0  0  0  0  0  0  0  0  0
    6.6406   -0.0156   19.8844 C   0  0  0  0  0  0  0  0  0  0  0  0
    5.4307    0.6454   20.1340 C   0  0  0  0  0  0  0  0  0  0  0  0
    4.7929    1.3137   19.0867 C   0  0  0  0  0  0  0  0  0  0  0  0
    5.3904    1.3035   17.8221 C   0  0  0  0  0  0  0  0  0  0  0  0
    6.5528    0.6877   17.5607 N   0  0  0  0  0  0  0  0  0  0  0  0
    7.1545    0.0574   18.5790 C   0  0  0  0  0  0  0  0  0  0  0  0
    8.1070   -0.4187   18.3395 H   0  0  0  0  0  0  0  0  0  0  0  0
    4.9187    1.8055   16.9790 H   0  0  0  0  0  0  0  0  0  0  0  0
    3.8640    1.8519   19.2379 H   0  0  0  0  0  0  0  0  0  0  0  0
    5.0107    0.6418   21.1429 H   0  0  0  0  0  0  0  0  0  0  0  0
    6.7123   -1.1327   21.7128 H   0  0  0  0  0  0  0  0  0  0  0  0
    8.0237   -1.4966   20.6051 H   0  0  0  0  0  0  0  0  0  0  0  0
    7.7050    1.1678   22.1127 H   0  0  0  0  0  0  0  0  0  0  0  0
    9.0216    0.7688   21.0198 H   0  0  0  0  0  0  0  0  0  0  0  0
    9.7692    0.4061   23.3520 H   0  0  0  0  0  0  0  0  0  0  0  0
    9.7012   -1.1450   22.5285 H   0  0  0  0  0  0  0  0  0  0  0  0
    5.9060    1.8350   24.6573 C   0  0  0  0  0  0  0  0  0  0  0  0
    5.7717    3.1890   24.7234 C   0  0  0  0  0  0  0  0  0  0  0  0
    6.8774    3.9580   24.9491 N   0  0  0  0  0  0  0  0  0  0  0  0
    6.9095    4.9656   25.0195 H   0  0  0  0  0  0  0  0  0  0  0  0
    4.8232    3.7094   24.6130 H   0  0  0  0  0  0  0  0  0  0  0  0
    5.0468    1.1964   24.4964 H   0  0  0  0  0  0  0  0  0  0  0  0
    9.3050    1.6686   25.2100 H   0  0  0  0  0  0  0  0  0  0  0  0
  1  2  2  0
  2  3  1  0
  3  4  2  0
  4  5  1  0
  5  6  1  0
  6  7  2  0
  7  8  1  0
  8  9  1  0
  9 10  1  0
 10 11  2  0
 11 12  1  0
 12 13  1  0
 13 14  1  0
 13 15  1  0
 12 16  1  0
 12 17  1  0
 11 18  1  0
 10 19  1  0
  9 20  1  0
  9 21  1  0
  8 22  1  0
  7 23  1  0
 23 24  2  0
 24 25  1  0
 25 26  1  0
 26 27  1  0
 27 28  1  0
 28 29  2  0
 29 30  1  0
 30 31  2  0
 31 32  1  0
 32 33  2  0
 33 34  1  0
 31 35  1  0
 30 36  1  0
 29 37  1  0
 27 38  1  0
 27 39  1  0
 26 40  1  0
 26 41  1  0
 25 42  1  0
 25 43  1  0
  4 44  1  0
 44 45  2  0
 45 46  1  0
 46 47  1  0
 45 48  1  0
 44 49  1  0
  3 50  1  0
 46  2  1  0
 24  5  1  0
 33 28  1  0
 13  8  1  0
M  END
>  <cnnaffinity>  (1) 
-5.93043

>  <filename>  (1) 
O=c1cc(-n2nc(C3CC=CCC3)nc2CCCc2cccnc2)cc[nH]1

$$$$
