
     RDKit          3D

 35 37  0  0  0  0  0  0  0  0999 V2000
    4.9184    1.8011   16.9746 H   0  0  0  0  0  0  0  0  0  0  0  0
    5.3879    1.3045   17.8198 C   0  0  0  0  0  0  0  0  0  0  0  0
    6.5517    0.6829   17.5602 N   0  0  0  0  0  0  0  0  0  0  0  0
    7.1561    0.0734   18.5855 C   0  0  0  0  0  0  0  0  0  0  0  0
    8.1025   -0.4185   18.3533 H   0  0  0  0  0  0  0  0  0  0  0  0
    6.6466    0.0102   19.8968 C   0  0  0  0  0  0  0  0  0  0  0  0
    7.3654   -0.7141   20.9777 C   0  0  0  0  0  0  0  0  0  0  0  0
    8.7803   -0.5644   21.1339 C   0  0  0  0  0  0  0  0  0  0  0  0
    9.3050    0.1058   20.4514 H   0  0  0  0  0  0  0  0  0  0  0  0
    9.4265   -1.2207   22.1347 C   0  0  0  0  0  0  0  0  0  0  0  0
   10.4900   -1.1486   22.3062 H   0  0  0  0  0  0  0  0  0  0  0  0
    8.7400   -2.1063   23.0690 C   0  0  0  0  0  0  0  0  0  0  0  0
    9.3212   -2.7008   23.9626 O   0  0  0  0  0  0  0  0  0  0  0  0
    7.3279   -2.2342   22.8517 N   0  0  0  0  0  0  0  0  0  0  0  0
    6.5473   -3.0642   23.7378 C   0  0  0  0  0  0  0  0  0  0  0  0
    6.5702   -2.8194   25.1163 C   0  0  0  0  0  0  0  0  0  0  0  0
    7.1946   -2.0141   25.4820 H   0  0  0  0  0  0  0  0  0  0  0  0
    5.8296   -3.6319   25.9750 C   0  0  0  0  0  0  0  0  0  0  0  0
    5.8645   -3.4467   27.0457 H   0  0  0  0  0  0  0  0  0  0  0  0
    5.0605   -4.6940   25.4867 C   0  0  0  0  0  0  0  0  0  0  0  0
    4.4888   -5.3259   26.1576 H   0  0  0  0  0  0  0  0  0  0  0  0
    5.0437   -4.9179   24.1088 C   0  0  0  0  0  0  0  0  0  0  0  0
    4.3109   -5.9302   23.5000 O   0  0  0  0  0  0  0  0  0  0  0  0
    3.5466   -6.7940   24.2022 C   0  0  0  0  0  0  0  0  0  0  0  0
    4.2499   -7.5213   25.0873 F   0  0  0  0  0  0  0  0  0  0  0  0
    2.9938   -7.6145   23.3188 F   0  0  0  0  0  0  0  0  0  0  0  0
    2.5698   -6.1871   24.8994 F   0  0  0  0  0  0  0  0  0  0  0  0
    5.7704   -4.1086   23.2280 C   0  0  0  0  0  0  0  0  0  0  0  0
    5.7490   -4.3145   22.1651 H   0  0  0  0  0  0  0  0  0  0  0  0
    6.7014   -1.5356   21.8428 C   0  0  0  0  0  0  0  0  0  0  0  0
    5.6293   -1.6926   21.7642 H   0  0  0  0  0  0  0  0  0  0  0  0
    5.4236    0.6545   20.1395 C   0  0  0  0  0  0  0  0  0  0  0  0
    5.0058    0.6495   21.1489 H   0  0  0  0  0  0  0  0  0  0  0  0
    4.7951    1.3208   19.0880 C   0  0  0  0  0  0  0  0  0  0  0  0
    3.8642    1.8530   19.2372 H   0  0  0  0  0  0  0  0  0  0  0  0
  1  2  1  0
  2  3  2  0
  3  4  1  0
  4  5  1  0
  4  6  2  0
  6  7  1  0
  7  8  1  0
  8  9  1  0
  8 10  2  0
 10 11  1  0
 10 12  1  0
 12 13  2  0
 12 14  1  0
 14 15  1  0
 15 16  2  0
 16 17  1  0
 16 18  1  0
 18 19  1  0
 18 20  2  0
 20 21  1  0
 20 22  1  0
 22 23  1  0
 23 24  1  0
 24 25  1  0
 24 26  1  0
 24 27  1  0
 22 28  2  0
 28 29  1  0
 14 30  1  0
 30 31  1  0
  6 32  1  0
 32 33  1  0
 32 34  2  0
 34 35  1  0
 34  2  1  0
 30  7  2  0
 28 15  1  0
M  END
>  <cnnaffinity>  (1) 
-5.83151

>  <filename>  (1) 
O=c1ccc(-c2cccnc2)cn1-c1cccc(OC(F)(F)F)c1

$$$$
