
     RDKit          3D

 30 31  0  0  0  0  0  0  0  0999 V2000
    8.1032   -8.0966   21.9685 H   0  0  0  0  0  0  0  0  0  0  0  0
    7.5493   -7.4257   22.3883 O   0  0  0  0  0  0  0  0  0  0  0  0
    7.5037   -4.9786   21.2122 C   0  0  0  0  0  0  0  0  0  0  0  0
    8.1485   -6.6862   22.6000 H   0  0  0  0  0  0  0  0  0  0  0  0
    7.1160   -6.9248   21.6701 H   0  0  0  0  0  0  0  0  0  0  0  0
    7.4885   -4.7384   21.0138 C   0  0  0  0  0  0  0  0  0  0  0  0
    8.2586   -5.3970   20.3953 H   0  0  0  0  0  0  0  0  0  0  0  0
    6.3690   -4.6605   21.3790 H   0  0  0  0  0  0  0  0  0  0  0  0
    8.2741   -4.0493   22.0321 N   0  0  0  0  0  0  0  0  0  0  0  0
    8.6376   -4.4986   22.9058 H   0  0  0  0  0  0  0  0  0  0  0  0
    8.2117   -2.6484   22.0563 C   0  0  0  0  0  0  0  0  0  0  0  0
    7.5780   -2.0094   21.0398 C   0  0  0  0  0  0  0  0  0  0  0  0
    7.1960   -2.6602   20.2487 H   0  0  0  0  0  0  0  0  0  0  0  0
    7.3726   -0.6299   21.0261 N   0  0  0  0  0  0  0  0  0  0  0  0
    6.6835   -0.0023   19.9170 C   0  0  0  0  0  0  0  0  0  0  0  0
    7.1874   -0.0464   18.5999 C   0  0  0  0  0  0  0  0  0  0  0  0
    8.1250   -0.5581   18.3918 H   0  0  0  0  0  0  0  0  0  0  0  0
    6.5936    0.5506   17.5559 N   0  0  0  0  0  0  0  0  0  0  0  0
    5.4543    1.2231   17.7851 C   0  0  0  0  0  0  0  0  0  0  0  0
    4.9953    1.7031   16.9208 H   0  0  0  0  0  0  0  0  0  0  0  0
    4.8687    1.3249   19.0520 C   0  0  0  0  0  0  0  0  0  0  0  0
    3.9539    1.8976   19.1780 H   0  0  0  0  0  0  0  0  0  0  0  0
    5.5006    0.7152   20.1404 C   0  0  0  0  0  0  0  0  0  0  0  0
    5.1065    0.8115   21.1504 H   0  0  0  0  0  0  0  0  0  0  0  0
    7.7359    0.1518   22.1613 C   0  0  0  0  0  0  0  0  0  0  0  0
    7.4242    1.3019   22.3564 O   0  0  0  0  0  0  0  0  0  0  0  0
    8.5265   -0.4948   23.0641 N   0  0  0  0  0  0  0  0  0  0  0  0
    8.7221    0.0463   23.8834 H   0  0  0  0  0  0  0  0  0  0  0  0
    8.7314   -1.8548   23.1905 C   0  0  0  0  0  0  0  0  0  0  0  0
    9.2832   -2.2535   24.1979 O   0  0  0  0  0  0  0  0  0  0  0  0
  1  2  1  0
  2  3  1  0
  3  4  1  0
  3  5  1  0
  3  6  1  0
  6  7  1  0
  6  8  1  0
  6  9  1  0
  9 10  1  0
  9 11  1  0
 11 12  2  0
 12 13  1  0
 12 14  1  0
 14 15  1  0
 15 16  2  0
 16 17  1  0
 16 18  1  0
 18 19  2  0
 19 20  1  0
 19 21  1  0
 21 22  1  0
 21 23  2  0
 23 24  1  0
 14 25  1  0
 25 26  2  0
 25 27  1  0
 27 28  1  0
 27 29  1  0
 29 30  2  0
 29 11  1  0
 23 15  1  0
M  END
>  <cnnaffinity>  (1) 
-4.83815

>  <filename>  (1) 
O=c1[nH]c(=O)n(-c2cccnc2)cc1NCCO

$$$$
