
     RDKit          3D

 37 40  0  0  0  0  0  0  0  0999 V2000
    7.1350    0.8625   22.4710 H   0  0  0  0  0  0  0  0  0  0  0  0
    7.5225   -0.1150   22.2373 C   0  0  0  0  0  0  0  0  0  0  0  0
    7.4093   -0.6348   21.0049 C   0  0  0  0  0  0  0  0  0  0  0  0
    6.6536   -0.0143   19.9010 C   0  0  0  0  0  0  0  0  0  0  0  0
    7.1654    0.0120   18.5915 C   0  0  0  0  0  0  0  0  0  0  0  0
    8.1200   -0.4623   18.3620 H   0  0  0  0  0  0  0  0  0  0  0  0
    6.5670    0.6372   17.5712 N   0  0  0  0  0  0  0  0  0  0  0  0
    5.4102    1.2710   17.8182 C   0  0  0  0  0  0  0  0  0  0  0  0
    4.9693    1.8063   16.9789 H   0  0  0  0  0  0  0  0  0  0  0  0
    4.7951    1.2866   19.0745 C   0  0  0  0  0  0  0  0  0  0  0  0
    3.8745    1.8415   19.2173 H   0  0  0  0  0  0  0  0  0  0  0  0
    5.4276    0.6374   20.1336 C   0  0  0  0  0  0  0  0  0  0  0  0
    4.9948    0.6312   21.1352 H   0  0  0  0  0  0  0  0  0  0  0  0
    8.0613   -1.8391   20.7284 N   0  0  0  0  0  0  0  0  0  0  0  0
    7.7506   -2.4017   19.9513 H   0  0  0  0  0  0  0  0  0  0  0  0
    8.3278   -2.7617   21.7309 C   0  0  0  0  0  0  0  0  0  0  0  0
    8.4071   -3.9357   21.4360 O   0  0  0  0  0  0  0  0  0  0  0  0
    8.4797   -2.2405   23.0084 N   0  0  0  0  0  0  0  0  0  0  0  0
    8.8488   -3.1085   24.0897 C   0  0  0  0  0  0  0  0  0  0  0  0
   10.0931   -2.9971   24.6790 C   0  0  0  0  0  0  0  0  0  0  0  0
   10.7685   -2.2125   24.3444 H   0  0  0  0  0  0  0  0  0  0  0  0
   10.5549   -3.8086   25.6691 N   0  0  0  0  0  0  0  0  0  0  0  0
    9.7519   -4.7053   26.1826 C   0  0  0  0  0  0  0  0  0  0  0  0
   10.1217   -5.2944   27.0303 H   0  0  0  0  0  0  0  0  0  0  0  0
    8.4231   -4.9229   25.7022 C   0  0  0  0  0  0  0  0  0  0  0  0
    7.5791   -5.9294   26.2628 C   0  0  0  0  0  0  0  0  0  0  0  0
    7.9496   -6.5275   27.0944 H   0  0  0  0  0  0  0  0  0  0  0  0
    6.3224   -6.1467   25.7547 C   0  0  0  0  0  0  0  0  0  0  0  0
    5.7013   -6.9426   26.1616 H   0  0  0  0  0  0  0  0  0  0  0  0
    5.8383   -5.3570   24.6789 C   0  0  0  0  0  0  0  0  0  0  0  0
    4.8482   -5.5576   24.2748 H   0  0  0  0  0  0  0  0  0  0  0  0
    6.6216   -4.3516   24.1433 C   0  0  0  0  0  0  0  0  0  0  0  0
    6.2329   -3.7367   23.3402 H   0  0  0  0  0  0  0  0  0  0  0  0
    7.9515   -4.1132   24.6161 C   0  0  0  0  0  0  0  0  0  0  0  0
    8.3511   -0.7958   23.2823 C   0  0  0  0  0  0  0  0  0  0  0  0
    9.3497   -0.3212   23.3366 H   0  0  0  0  0  0  0  0  0  0  0  0
    7.9115   -0.6542   24.2822 H   0  0  0  0  0  0  0  0  0  0  0  0
  1  2  1  0
  2  3  2  0
  3  4  1  0
  4  5  2  0
  5  6  1  0
  5  7  1  0
  7  8  2  0
  8  9  1  0
  8 10  1  0
 10 11  1  0
 10 12  2  0
 12 13  1  0
  3 14  1  0
 14 15  1  0
 14 16  1  0
 16 17  2  0
 16 18  1  0
 18 19  1  0
 19 20  2  0
 20 21  1  0
 20 22  1  0
 22 23  2  0
 23 24  1  0
 23 25  1  0
 25 26  2  0
 26 27  1  0
 26 28  1  0
 28 29  1  0
 28 30  2  0
 30 31  1  0
 30 32  1  0
 32 33  1  0
 32 34  2  0
 18 35  1  0
 35 36  1  0
 35 37  1  0
 35  2  1  0
 12  4  1  0
 34 19  1  0
 34 25  1  0
M  END
>  <cnnaffinity>  (1) 
-5.57755

>  <filename>  (1) 
O=C1NC(c2cccnc2)=CCN1c1cncc2ccccc12

$$$$
