
     RDKit          3D

 35 38  0  0  0  0  0  0  0  0999 V2000
    5.3902    1.5735   16.6633 H   0  0  0  0  0  0  0  0  0  0  0  0
    5.7023    1.0897   17.5855 C   0  0  0  0  0  0  0  0  0  0  0  0
    6.6190    0.1215   17.4630 N   0  0  0  0  0  0  0  0  0  0  0  0
    7.0308   -0.4904   18.5817 C   0  0  0  0  0  0  0  0  0  0  0  0
    7.7479   -1.2982   18.4295 H   0  0  0  0  0  0  0  0  0  0  0  0
    6.6015   -0.1437   19.8891 C   0  0  0  0  0  0  0  0  0  0  0  0
    7.1844   -0.7053   21.1357 C   0  0  0  0  0  0  0  0  0  0  0  0
    7.0572    0.0656   22.1984 N   0  0  0  0  0  0  0  0  0  0  0  0
    7.8026   -0.3238   23.3183 N   0  0  0  0  0  0  0  0  0  0  0  0
    7.6728    0.4169   24.5141 C   0  0  0  0  0  0  0  0  0  0  0  0
    8.1811   -0.1115   25.6096 N   0  0  0  0  0  0  0  0  0  0  0  0
    8.0199    0.5859   26.7772 C   0  0  0  0  0  0  0  0  0  0  0  0
    8.5140    0.0028   27.9766 C   0  0  0  0  0  0  0  0  0  0  0  0
    9.0104   -0.9565   27.8837 H   0  0  0  0  0  0  0  0  0  0  0  0
    8.3715    0.6562   29.1840 C   0  0  0  0  0  0  0  0  0  0  0  0
    8.7796    0.2221   30.0953 H   0  0  0  0  0  0  0  0  0  0  0  0
    7.7446    1.9310   29.2481 C   0  0  0  0  0  0  0  0  0  0  0  0
    7.6679    2.4307   30.2071 H   0  0  0  0  0  0  0  0  0  0  0  0
    7.2702    2.5314   28.1039 C   0  0  0  0  0  0  0  0  0  0  0  0
    6.8076    3.5168   28.1373 H   0  0  0  0  0  0  0  0  0  0  0  0
    7.3928    1.8709   26.8461 C   0  0  0  0  0  0  0  0  0  0  0  0
    6.9042    2.4238   25.6220 C   0  0  0  0  0  0  0  0  0  0  0  0
    6.4377    3.4088   25.6218 H   0  0  0  0  0  0  0  0  0  0  0  0
    7.0351    1.7020   24.4692 C   0  0  0  0  0  0  0  0  0  0  0  0
    6.6869    2.0512   23.5094 H   0  0  0  0  0  0  0  0  0  0  0  0
    8.7960   -1.2903   23.1779 C   0  0  0  0  0  0  0  0  0  0  0  0
    9.4969   -1.4262   23.9841 H   0  0  0  0  0  0  0  0  0  0  0  0
    8.9215   -2.0360   22.0351 C   0  0  0  0  0  0  0  0  0  0  0  0
    9.5506   -2.9177   21.9497 H   0  0  0  0  0  0  0  0  0  0  0  0
    7.6970   -2.1835   21.0611 C   0  0  0  0  0  0  0  0  0  0  0  0
    7.7428   -2.0980   21.0737 O   0  0  0  0  0  0  0  0  0  0  0  0
    5.6203    0.8735   19.9739 C   0  0  0  0  0  0  0  0  0  0  0  0
    5.2382    1.1819   20.9481 H   0  0  0  0  0  0  0  0  0  0  0  0
    5.1602    1.4827   18.8116 C   0  0  0  0  0  0  0  0  0  0  0  0
    4.4091    2.2664   18.8442 H   0  0  0  0  0  0  0  0  0  0  0  0
  1  2  1  0
  2  3  2  0
  3  4  1  0
  4  5  1  0
  4  6  2  0
  6  7  1  0
  7  8  2  0
  8  9  1  0
  9 10  1  0
 10 11  2  0
 11 12  1  0
 12 13  2  0
 13 14  1  0
 13 15  1  0
 15 16  1  0
 15 17  2  0
 17 18  1  0
 17 19  1  0
 19 20  1  0
 19 21  2  0
 21 22  1  0
 22 23  1  0
 22 24  2  0
 24 25  1  0
  9 26  1  0
 26 27  1  0
 26 28  2  0
 28 29  1  0
 28 30  1  0
 30 31  2  0
  6 32  1  0
 32 33  1  0
 32 34  2  0
 34 35  1  0
 34  2  1  0
 30  7  1  0
 24 10  1  0
 21 12  1  0
M  END
>  <cnnaffinity>  (1) 
-5.07814

>  <filename>  (1) 
O=c1ccn(-c2ccc3ccccc3n2)nc1-c1cccnc1

$$$$
