
     RDKit          3D

 34 37  0  0  0  0  0  0  0  0999 V2000
    4.9207    1.8147   16.9545 H   0  0  0  0  0  0  0  0  0  0  0  0
    5.3782    1.2995   17.7971 C   0  0  0  0  0  0  0  0  0  0  0  0
    6.5367    0.6664   17.5451 N   0  0  0  0  0  0  0  0  0  0  0  0
    7.1369    0.0538   18.5752 C   0  0  0  0  0  0  0  0  0  0  0  0
    8.0854   -0.4334   18.3421 H   0  0  0  0  0  0  0  0  0  0  0  0
    6.6363    0.0330   19.8943 C   0  0  0  0  0  0  0  0  0  0  0  0
    7.3379   -0.6797   21.0039 C   0  0  0  0  0  0  0  0  0  0  0  0
    7.5276   -2.0990   20.8723 C   0  0  0  0  0  0  0  0  0  0  0  0
    7.0955   -2.5753   19.9938 H   0  0  0  0  0  0  0  0  0  0  0  0
    8.1583   -2.8294   21.8322 C   0  0  0  0  0  0  0  0  0  0  0  0
    8.3777   -3.8826   21.7508 H   0  0  0  0  0  0  0  0  0  0  0  0
    8.5754   -2.2048   23.0754 C   0  0  0  0  0  0  0  0  0  0  0  0
    9.1076   -2.7555   24.0244 O   0  0  0  0  0  0  0  0  0  0  0  0
    8.3125   -0.8514   23.1650 N   0  0  0  0  0  0  0  0  0  0  0  0
    8.6240   -0.5039   24.0596 H   0  0  0  0  0  0  0  0  0  0  0  0
    7.7719   -0.0614   22.1774 C   0  0  0  0  0  0  0  0  0  0  0  0
    7.6845    1.3641   22.4941 C   0  0  0  0  0  0  0  0  0  0  0  0
    8.2046    2.5550   21.3231 S   0  0  0  0  0  0  0  0  0  0  0  0
    7.6788    3.8550   22.3543 C   0  0  0  0  0  0  0  0  0  0  0  0
    7.7128    5.2308   22.0660 C   0  0  0  0  0  0  0  0  0  0  0  0
    8.0399    5.5899   21.0944 H   0  0  0  0  0  0  0  0  0  0  0  0
    7.3200    6.1246   23.0550 C   0  0  0  0  0  0  0  0  0  0  0  0
    7.3676    7.1936   22.8593 H   0  0  0  0  0  0  0  0  0  0  0  0
    6.8710    5.6586   24.3112 C   0  0  0  0  0  0  0  0  0  0  0  0
    6.5897    6.3762   25.0744 H   0  0  0  0  0  0  0  0  0  0  0  0
    6.7940    4.2999   24.5821 C   0  0  0  0  0  0  0  0  0  0  0  0
    6.4441    3.9362   25.5454 H   0  0  0  0  0  0  0  0  0  0  0  0
    7.1926    3.3716   23.5914 C   0  0  0  0  0  0  0  0  0  0  0  0
    7.2075    1.9373   23.6391 C   0  0  0  0  0  0  0  0  0  0  0  0
    6.8342    1.3626   24.4845 H   0  0  0  0  0  0  0  0  0  0  0  0
    5.4115    0.6798   20.1179 C   0  0  0  0  0  0  0  0  0  0  0  0
    4.9724    0.6580   21.1171 H   0  0  0  0  0  0  0  0  0  0  0  0
    4.7700    1.3227   19.0564 C   0  0  0  0  0  0  0  0  0  0  0  0
    3.8316    1.8537   19.1952 H   0  0  0  0  0  0  0  0  0  0  0  0
  1  2  1  0
  2  3  2  0
  3  4  1  0
  4  5  1  0
  4  6  2  0
  6  7  1  0
  7  8  1  0
  8  9  1  0
  8 10  2  0
 10 11  1  0
 10 12  1  0
 12 13  2  0
 12 14  1  0
 14 15  1  0
 14 16  1  0
 16 17  1  0
 17 18  1  0
 18 19  1  0
 19 20  2  0
 20 21  1  0
 20 22  1  0
 22 23  1  0
 22 24  2  0
 24 25  1  0
 24 26  1  0
 26 27  1  0
 26 28  2  0
 28 29  1  0
 29 30  1  0
  6 31  1  0
 31 32  1  0
 31 33  2  0
 33 34  1  0
 33  2  1  0
 16  7  2  0
 29 17  2  0
 28 19  1  0
M  END
>  <cnnaffinity>  (1) 
-5.0666

>  <filename>  (1) 
O=c1ccc(-c2cccnc2)c(-c2cc3ccccc3s2)[nH]1

$$$$
