
     RDKit          3D

 43 46  0  0  0  0  0  0  0  0999 V2000
   12.0364   -1.1675   21.1206 O   0  0  0  0  0  0  0  0  0  0  0  0
   11.8726   -0.1624   21.7893 C   0  0  0  0  0  0  0  0  0  0  0  0
   12.7982    0.2706   22.8229 C   0  0  0  0  0  0  0  0  0  0  0  0
   12.5734    1.3814   23.5732 C   0  0  0  0  0  0  0  0  0  0  0  0
   11.3919    2.1583   23.3544 C   0  0  0  0  0  0  0  0  0  0  0  0
   10.5115    1.7750   22.3916 C   0  0  0  0  0  0  0  0  0  0  0  0
   10.7290    0.6731   21.6010 N   0  0  0  0  0  0  0  0  0  0  0  0
    9.6526    0.2196   20.7106 C   0  0  0  0  0  0  0  0  0  0  0  0
    8.6042   -0.6138   21.3741 C   0  0  0  0  0  0  0  0  0  0  0  0
    8.8077   -1.4586   22.3571 N   0  0  0  0  0  0  0  0  0  0  0  0
    7.5773   -1.9920   22.5697 C   0  0  0  0  0  0  0  0  0  0  0  0
    7.3578   -2.9593   23.6850 C   0  0  0  0  0  0  0  0  0  0  0  0
    8.2483   -4.2217   23.5816 C   0  0  0  0  0  0  0  0  0  0  0  0
    8.3446   -4.7722   25.0201 C   0  0  0  0  0  0  0  0  0  0  0  0
    8.0161   -3.5889   25.9725 C   0  0  0  0  0  0  0  0  0  0  0  0
    7.7161   -2.3701   25.0745 C   0  0  0  0  0  0  0  0  0  0  0  0
    6.9070   -1.7371   25.4629 H   0  0  0  0  0  0  0  0  0  0  0  0
    8.6037   -1.7247   24.9833 H   0  0  0  0  0  0  0  0  0  0  0  0
    8.8388   -3.3780   26.6666 H   0  0  0  0  0  0  0  0  0  0  0  0
    7.1518   -3.8355   26.6023 H   0  0  0  0  0  0  0  0  0  0  0  0
    9.3362   -5.1972   25.2182 H   0  0  0  0  0  0  0  0  0  0  0  0
    7.6325   -5.5930   25.1744 H   0  0  0  0  0  0  0  0  0  0  0  0
    9.2437   -3.9413   23.2037 H   0  0  0  0  0  0  0  0  0  0  0  0
    7.8336   -4.9476   22.8700 H   0  0  0  0  0  0  0  0  0  0  0  0
    6.2926   -3.2270   23.6447 H   0  0  0  0  0  0  0  0  0  0  0  0
    6.6419   -1.5570   21.7523 N   0  0  0  0  0  0  0  0  0  0  0  0
    7.3112   -0.6883   20.9498 N   0  0  0  0  0  0  0  0  0  0  0  0
    6.6457   -0.0025   19.8969 C   0  0  0  0  0  0  0  0  0  0  0  0
    5.4332    0.6463   20.1555 C   0  0  0  0  0  0  0  0  0  0  0  0
    4.8072    1.3162   19.1032 C   0  0  0  0  0  0  0  0  0  0  0  0
    5.3982    1.2979   17.8341 C   0  0  0  0  0  0  0  0  0  0  0  0
    6.5531    0.6677   17.5767 N   0  0  0  0  0  0  0  0  0  0  0  0
    7.1606    0.0401   18.5883 C   0  0  0  0  0  0  0  0  0  0  0  0
    8.1043   -0.4458   18.3461 H   0  0  0  0  0  0  0  0  0  0  0  0
    4.9312    1.8014   16.9898 H   0  0  0  0  0  0  0  0  0  0  0  0
    3.8742    1.8472   19.2514 H   0  0  0  0  0  0  0  0  0  0  0  0
    5.0160    0.6037   21.1611 H   0  0  0  0  0  0  0  0  0  0  0  0
   10.0992   -0.4198   19.9470 H   0  0  0  0  0  0  0  0  0  0  0  0
    9.1803    1.0858   20.2388 H   0  0  0  0  0  0  0  0  0  0  0  0
    9.5764    2.2985   22.2040 H   0  0  0  0  0  0  0  0  0  0  0  0
   11.1791    3.0393   23.9486 H   0  0  0  0  0  0  0  0  0  0  0  0
   13.2849    1.6900   24.3348 H   0  0  0  0  0  0  0  0  0  0  0  0
   13.6514   -0.3865   22.9283 H   0  0  0  0  0  0  0  0  0  0  0  0
  1  2  2  0
  2  3  1  0
  3  4  2  0
  4  5  1  0
  5  6  2  0
  6  7  1  0
  7  8  1  0
  8  9  1  0
  9 10  2  0
 10 11  1  0
 11 12  1  0
 12 13  1  0
 13 14  1  0
 14 15  1  0
 15 16  1  0
 16 17  1  0
 16 18  1  0
 15 19  1  0
 15 20  1  0
 14 21  1  0
 14 22  1  0
 13 23  1  0
 13 24  1  0
 12 25  1  0
 11 26  2  0
 26 27  1  0
 27 28  1  0
 28 29  2  0
 29 30  1  0
 30 31  2  0
 31 32  1  0
 32 33  2  0
 33 34  1  0
 31 35  1  0
 30 36  1  0
 29 37  1  0
  8 38  1  0
  8 39  1  0
  6 40  1  0
  5 41  1  0
  4 42  1  0
  3 43  1  0
  7  2  1  0
 27  9  1  0
 33 28  1  0
 16 12  1  0
M  END
>  <cnnaffinity>  (1) 
-6.60768

>  <filename>  (1) 
O=c1ccccn1Cc1nc(C2CCCC2)nn1-c1cccnc1

$$$$
