
     RDKit          3D

 30 32  0  0  0  0  0  0  0  0999 V2000
    4.9961    1.8822   16.7440 H   0  0  0  0  0  0  0  0  0  0  0  0
    5.4063    1.3637   17.6096 C   0  0  0  0  0  0  0  0  0  0  0  0
    6.5777    0.7313   17.4241 N   0  0  0  0  0  0  0  0  0  0  0  0
    7.1130    0.1095   18.4813 C   0  0  0  0  0  0  0  0  0  0  0  0
    8.0767   -0.3618   18.2975 H   0  0  0  0  0  0  0  0  0  0  0  0
    6.5316    0.0594   19.7683 C   0  0  0  0  0  0  0  0  0  0  0  0
    7.2284   -0.5419   20.9120 C   0  0  0  0  0  0  0  0  0  0  0  0
    7.1326   -0.3118   22.2530 C   0  0  0  0  0  0  0  0  0  0  0  0
    6.4067    0.2021   22.8589 H   0  0  0  0  0  0  0  0  0  0  0  0
    8.2130   -0.9374   22.8474 N   0  0  0  0  0  0  0  0  0  0  0  0
    8.4633   -0.9000   24.2064 O   0  0  0  0  0  0  0  0  0  0  0  0
    8.4652   -2.1442   24.8361 C   0  0  0  0  0  0  0  0  0  0  0  0
    9.1596   -2.2459   26.0403 C   0  0  0  0  0  0  0  0  0  0  0  0
    9.6170   -1.3595   26.4696 H   0  0  0  0  0  0  0  0  0  0  0  0
    9.2769   -3.5045   26.6401 C   0  0  0  0  0  0  0  0  0  0  0  0
    9.8335   -3.5840   27.5657 H   0  0  0  0  0  0  0  0  0  0  0  0
    8.7137   -4.6472   26.0518 C   0  0  0  0  0  0  0  0  0  0  0  0
    8.8394   -5.6342   26.4863 H   0  0  0  0  0  0  0  0  0  0  0  0
    8.0045   -4.4920   24.8590 C   0  0  0  0  0  0  0  0  0  0  0  0
    7.3842   -5.8707   24.0139 Cl  0  0  0  0  0  0  0  0  0  0  0  0
    7.8153   -3.2454   24.2819 C   0  0  0  0  0  0  0  0  0  0  0  0
    7.2127   -3.1289   23.3904 H   0  0  0  0  0  0  0  0  0  0  0  0
    8.9748   -1.6451   21.9194 C   0  0  0  0  0  0  0  0  0  0  0  0
    9.9174   -2.3847   22.0898 O   0  0  0  0  0  0  0  0  0  0  0  0
    8.3519   -1.3542   20.7227 N   0  0  0  0  0  0  0  0  0  0  0  0
    8.4860   -2.0152   19.9759 H   0  0  0  0  0  0  0  0  0  0  0  0
    5.2936    0.7101   19.9240 C   0  0  0  0  0  0  0  0  0  0  0  0
    4.7901    0.7018   20.8895 H   0  0  0  0  0  0  0  0  0  0  0  0
    4.7297    1.3765   18.8328 C   0  0  0  0  0  0  0  0  0  0  0  0
    3.8044    1.9367   18.9148 H   0  0  0  0  0  0  0  0  0  0  0  0
  1  2  1  0
  2  3  2  0
  3  4  1  0
  4  5  1  0
  4  6  2  0
  6  7  1  0
  7  8  2  0
  8  9  1  0
  8 10  1  0
 10 11  1  0
 11 12  1  0
 12 13  2  0
 13 14  1  0
 13 15  1  0
 15 16  1  0
 15 17  2  0
 17 18  1  0
 17 19  1  0
 19 20  1  0
 19 21  2  0
 21 22  1  0
 10 23  1  0
 23 24  2  0
 23 25  1  0
 25 26  1  0
  6 27  1  0
 27 28  1  0
 27 29  2  0
 29 30  1  0
 29  2  1  0
 25  7  1  0
 21 12  1  0
M  END
>  <cnnaffinity>  (1) 
-5.77919

>  <filename>  (1) 
O=c1[nH]c(-c2cccnc2)cn1Oc1cccc(Cl)c1

$$$$
