
     RDKit          3D

 43 46  0  0  0  0  0  0  0  0999 V2000
   13.1226    1.6852   24.5346 O   0  0  0  0  0  0  0  0  0  0  0  0
   12.4736    1.3640   23.5570 C   0  0  0  0  0  0  0  0  0  0  0  0
   12.7418    0.2550   22.6596 C   0  0  0  0  0  0  0  0  0  0  0  0
   11.8294   -0.0780   21.7091 C   0  0  0  0  0  0  0  0  0  0  0  0
   10.6083    0.6632   21.5423 C   0  0  0  0  0  0  0  0  0  0  0  0
    9.5342    0.1345   20.6265 C   0  0  0  0  0  0  0  0  0  0  0  0
    8.4898   -0.6758   21.3307 C   0  0  0  0  0  0  0  0  0  0  0  0
    8.6914   -1.4660   22.3588 N   0  0  0  0  0  0  0  0  0  0  0  0
    7.4717   -2.0396   22.5650 C   0  0  0  0  0  0  0  0  0  0  0  0
    7.3001   -3.0426   23.6694 C   0  0  0  0  0  0  0  0  0  0  0  0
    7.7204   -2.4745   25.0465 C   0  0  0  0  0  0  0  0  0  0  0  0
    8.0036   -3.7017   25.9311 C   0  0  0  0  0  0  0  0  0  0  0  0
    8.3255   -4.8641   24.9587 C   0  0  0  0  0  0  0  0  0  0  0  0
    8.2401   -4.2697   23.5394 C   0  0  0  0  0  0  0  0  0  0  0  0
    9.2337   -3.9135   23.2265 H   0  0  0  0  0  0  0  0  0  0  0  0
    7.8905   -4.9957   22.7961 H   0  0  0  0  0  0  0  0  0  0  0  0
    9.3160   -5.2956   25.1438 H   0  0  0  0  0  0  0  0  0  0  0  0
    7.6007   -5.6768   25.0928 H   0  0  0  0  0  0  0  0  0  0  0  0
    8.8309   -3.4987   26.6211 H   0  0  0  0  0  0  0  0  0  0  0  0
    7.1319   -3.9531   26.5476 H   0  0  0  0  0  0  0  0  0  0  0  0
    8.6477   -1.8990   24.9060 H   0  0  0  0  0  0  0  0  0  0  0  0
    6.9630   -1.8032   25.4680 H   0  0  0  0  0  0  0  0  0  0  0  0
    6.2478   -3.3656   23.6832 H   0  0  0  0  0  0  0  0  0  0  0  0
    6.5348   -1.6470   21.7277 N   0  0  0  0  0  0  0  0  0  0  0  0
    7.1996   -0.7887   20.9067 N   0  0  0  0  0  0  0  0  0  0  0  0
    6.5428   -0.0857   19.8619 C   0  0  0  0  0  0  0  0  0  0  0  0
    5.3565    0.6093   20.1150 C   0  0  0  0  0  0  0  0  0  0  0  0
    4.7767    1.3243   19.0638 C   0  0  0  0  0  0  0  0  0  0  0  0
    5.3883    1.3172   17.8041 C   0  0  0  0  0  0  0  0  0  0  0  0
    6.5189    0.6416   17.5493 N   0  0  0  0  0  0  0  0  0  0  0  0
    7.0757   -0.0338   18.5605 C   0  0  0  0  0  0  0  0  0  0  0  0
    8.0116   -0.5410   18.3345 H   0  0  0  0  0  0  0  0  0  0  0  0
    4.9628    1.8714   16.9685 H   0  0  0  0  0  0  0  0  0  0  0  0
    3.8661    1.8952   19.2069 H   0  0  0  0  0  0  0  0  0  0  0  0
    4.9212    0.5976   21.1150 H   0  0  0  0  0  0  0  0  0  0  0  0
    9.9743   -0.5277   19.8726 H   0  0  0  0  0  0  0  0  0  0  0  0
    9.0496    0.9557   20.0934 H   0  0  0  0  0  0  0  0  0  0  0  0
   10.4037    1.7726   22.3071 C   0  0  0  0  0  0  0  0  0  0  0  0
   11.3400    2.1198   23.2484 N   0  0  0  0  0  0  0  0  0  0  0  0
   11.2307    2.8386   23.9483 H   0  0  0  0  0  0  0  0  0  0  0  0
    9.5061    2.3898   22.2308 H   0  0  0  0  0  0  0  0  0  0  0  0
   12.0053   -0.9382   21.0618 H   0  0  0  0  0  0  0  0  0  0  0  0
   13.6645   -0.2839   22.8407 H   0  0  0  0  0  0  0  0  0  0  0  0
  1  2  2  0
  2  3  1  0
  3  4  2  0
  4  5  1  0
  5  6  1  0
  6  7  1  0
  7  8  2  0
  8  9  1  0
  9 10  1  0
 10 11  1  0
 11 12  1  0
 12 13  1  0
 13 14  1  0
 14 15  1  0
 14 16  1  0
 13 17  1  0
 13 18  1  0
 12 19  1  0
 12 20  1  0
 11 21  1  0
 11 22  1  0
 10 23  1  0
  9 24  2  0
 24 25  1  0
 25 26  1  0
 26 27  2  0
 27 28  1  0
 28 29  2  0
 29 30  1  0
 30 31  2  0
 31 32  1  0
 29 33  1  0
 28 34  1  0
 27 35  1  0
  6 36  1  0
  6 37  1  0
  5 38  2  0
 38 39  1  0
 39 40  1  0
 38 41  1  0
  4 42  1  0
  3 43  1  0
 39  2  1  0
 25  7  1  0
 31 26  1  0
 14 10  1  0
M  END
>  <cnnaffinity>  (1) 
-6.48314

>  <filename>  (1) 
O=c1ccc(Cc2nc(C3CCCC3)nn2-c2cccnc2)c[nH]1

$$$$
