
     RDKit          3D

 25 26  0  0  0  0  0  0  0  0999 V2000
    4.9556    1.8934   16.9188 H   0  0  0  0  0  0  0  0  0  0  0  0
    5.4125    1.3525   17.7478 C   0  0  0  0  0  0  0  0  0  0  0  0
    6.5772    0.7315   17.4994 N   0  0  0  0  0  0  0  0  0  0  0  0
    7.1710    0.0883   18.5130 C   0  0  0  0  0  0  0  0  0  0  0  0
    8.1064   -0.4151   18.2789 H   0  0  0  0  0  0  0  0  0  0  0  0
    6.6371    0.0167   19.8135 C   0  0  0  0  0  0  0  0  0  0  0  0
    7.3079   -0.6498   20.9045 N   0  0  0  0  0  0  0  0  0  0  0  0
    8.5681   -0.2162   21.2655 C   0  0  0  0  0  0  0  0  0  0  0  0
    9.0315    0.4817   20.5760 H   0  0  0  0  0  0  0  0  0  0  0  0
    9.1708   -0.6388   22.4064 C   0  0  0  0  0  0  0  0  0  0  0  0
   10.1609   -0.2862   22.6714 H   0  0  0  0  0  0  0  0  0  0  0  0
    8.4844   -1.5812   23.2350 C   0  0  0  0  0  0  0  0  0  0  0  0
    9.2473   -2.1242   24.7409 S   0  0  0  0  0  0  0  0  0  0  0  0
   10.2229   -3.5581   24.1239 C   0  0  0  0  0  0  0  0  0  0  0  0
   11.1161   -3.1802   23.2134 F   0  0  0  0  0  0  0  0  0  0  0  0
    9.4412   -4.4868   23.5813 F   0  0  0  0  0  0  0  0  0  0  0  0
   10.8465   -4.0773   25.1787 F   0  0  0  0  0  0  0  0  0  0  0  0
    7.3036   -2.1290   22.8321 C   0  0  0  0  0  0  0  0  0  0  0  0
    6.8055   -2.9399   23.3401 H   0  0  0  0  0  0  0  0  0  0  0  0
    6.6551   -1.7342   21.6032 C   0  0  0  0  0  0  0  0  0  0  0  0
    5.6663   -2.2902   21.1590 O   0  0  0  0  0  0  0  0  0  0  0  0
    5.4212    0.6565   20.0565 C   0  0  0  0  0  0  0  0  0  0  0  0
    4.9966    0.6091   21.0564 H   0  0  0  0  0  0  0  0  0  0  0  0
    4.8033    1.3385   19.0063 C   0  0  0  0  0  0  0  0  0  0  0  0
    3.8754    1.8740   19.1661 H   0  0  0  0  0  0  0  0  0  0  0  0
  1  2  1  0
  2  3  2  0
  3  4  1  0
  4  5  1  0
  4  6  2  0
  6  7  1  0
  7  8  1  0
  8  9  1  0
  8 10  2  0
 10 11  1  0
 10 12  1  0
 12 13  1  0
 13 14  1  0
 14 15  1  0
 14 16  1  0
 14 17  1  0
 12 18  2  0
 18 19  1  0
 18 20  1  0
 20 21  2  0
  6 22  1  0
 22 23  1  0
 22 24  2  0
 24 25  1  0
 24  2  1  0
 20  7  1  0
M  END
>  <cnnaffinity>  (1) 
-4.61185

>  <filename>  (1) 
O=c1cc(SC(F)(F)F)ccn1-c1cccnc1

$$$$
