
     RDKit          3D

 46 49  0  0  0  0  0  0  0  0999 V2000
    3.3766    3.8563   27.1649 O   0  0  0  0  0  0  0  0  0  0  0  0
    4.3151    3.3537   26.5682 C   0  0  0  0  0  0  0  0  0  0  0  0
    5.7118    3.7598   26.6269 C   0  0  0  0  0  0  0  0  0  0  0  0
    6.6547    3.0989   25.9009 C   0  0  0  0  0  0  0  0  0  0  0  0
    6.2986    1.9831   25.0675 C   0  0  0  0  0  0  0  0  0  0  0  0
    7.3448    1.2807   24.2675 C   0  0  0  0  0  0  0  0  0  0  0  0
    7.5108    1.8149   22.8250 C   0  0  0  0  0  0  0  0  0  0  0  0
    8.4895    0.9377   22.1444 C   0  0  0  0  0  0  0  0  0  0  0  0
    9.7941    0.9975   22.3523 N   0  0  0  0  0  0  0  0  0  0  0  0
   10.2382   -0.1641   21.8264 C   0  0  0  0  0  0  0  0  0  0  0  0
   11.6506   -0.5638   21.7399 C   0  0  0  0  0  0  0  0  0  0  0  0
   12.7100    0.2110   22.2360 C   0  0  0  0  0  0  0  0  0  0  0  0
   14.0074   -0.1713   21.9153 C   0  0  0  0  0  0  0  0  0  0  0  0
   15.0047    0.6034   22.3524 F   0  0  0  0  0  0  0  0  0  0  0  0
   14.2651   -1.2523   21.0680 C   0  0  0  0  0  0  0  0  0  0  0  0
   13.2077   -2.0306   20.6197 C   0  0  0  0  0  0  0  0  0  0  0  0
   11.9184   -1.7383   21.0313 C   0  0  0  0  0  0  0  0  0  0  0  0
   11.0700   -2.3374   20.7344 H   0  0  0  0  0  0  0  0  0  0  0  0
   13.4053   -2.8403   19.9252 H   0  0  0  0  0  0  0  0  0  0  0  0
   15.2291   -1.4853   20.6677 H   0  0  0  0  0  0  0  0  0  0  0  0
   12.5449    1.1187   22.8071 H   0  0  0  0  0  0  0  0  0  0  0  0
    9.2835   -0.9295   21.3174 N   0  0  0  0  0  0  0  0  0  0  0  0
    8.1654   -0.2252   21.5348 N   0  0  0  0  0  0  0  0  0  0  0  0
    6.8951   -0.7468   21.0467 C   0  0  0  0  0  0  0  0  0  0  0  0
    6.3336    0.0352   19.8861 C   0  0  0  0  0  0  0  0  0  0  0  0
    5.1330    0.7411   19.9813 C   0  0  0  0  0  0  0  0  0  0  0  0
    4.6755    1.4471   18.8676 C   0  0  0  0  0  0  0  0  0  0  0  0
    5.4426    1.4245   17.6997 C   0  0  0  0  0  0  0  0  0  0  0  0
    6.6011    0.7555   17.5924 N   0  0  0  0  0  0  0  0  0  0  0  0
    7.0317    0.0868   18.6682 C   0  0  0  0  0  0  0  0  0  0  0  0
    7.9767   -0.4469   18.5525 H   0  0  0  0  0  0  0  0  0  0  0  0
    5.1086    1.9545   16.8082 H   0  0  0  0  0  0  0  0  0  0  0  0
    3.7514    2.0103   18.8960 H   0  0  0  0  0  0  0  0  0  0  0  0
    4.5690    0.7327   20.9169 H   0  0  0  0  0  0  0  0  0  0  0  0
    7.0978   -1.7853   20.7637 H   0  0  0  0  0  0  0  0  0  0  0  0
    6.1861   -0.7631   21.8804 H   0  0  0  0  0  0  0  0  0  0  0  0
    6.5651    1.8275   22.2739 H   0  0  0  0  0  0  0  0  0  0  0  0
    7.9023    2.8347   22.8313 H   0  0  0  0  0  0  0  0  0  0  0  0
    7.1232    0.2035   24.2127 H   0  0  0  0  0  0  0  0  0  0  0  0
    8.3192    1.3625   24.7664 H   0  0  0  0  0  0  0  0  0  0  0  0
    4.9954    1.5864   25.0145 C   0  0  0  0  0  0  0  0  0  0  0  0
    4.0499    2.2730   25.7314 N   0  0  0  0  0  0  0  0  0  0  0  0
    3.0675    2.0492   25.7783 H   0  0  0  0  0  0  0  0  0  0  0  0
    4.6722    0.7187   24.4382 H   0  0  0  0  0  0  0  0  0  0  0  0
    7.7049    3.3946   25.9534 H   0  0  0  0  0  0  0  0  0  0  0  0
    5.9284    4.5902   27.2817 H   0  0  0  0  0  0  0  0  0  0  0  0
  1  2  2  0
  2  3  1  0
  3  4  2  0
  4  5  1  0
  5  6  1  0
  6  7  1  0
  7  8  1  0
  8  9  2  0
  9 10  1  0
 10 11  1  0
 11 12  2  0
 12 13  1  0
 13 14  1  0
 13 15  2  0
 15 16  1  0
 16 17  2  0
 17 18  1  0
 16 19  1  0
 15 20  1  0
 12 21  1  0
 10 22  2  0
 22 23  1  0
 23 24  1  0
 24 25  1  0
 25 26  2  0
 26 27  1  0
 27 28  2  0
 28 29  1  0
 29 30  2  0
 30 31  1  0
 28 32  1  0
 27 33  1  0
 26 34  1  0
 24 35  1  0
 24 36  1  0
  7 37  1  0
  7 38  1  0
  6 39  1  0
  6 40  1  0
  5 41  2  0
 41 42  1  0
 42 43  1  0
 41 44  1  0
  4 45  1  0
  3 46  1  0
 42  2  1  0
 23  8  1  0
 30 25  1  0
 17 11  1  0
M  END
>  <cnnaffinity>  (1) 
-6.56709

>  <filename>  (1) 
O=c1ccc(CCc2nc(-c3cccc(F)c3)nn2Cc2cccnc2)c[nH]1

$$$$
