
     RDKit          3D

 35 38  0  0  0  0  0  0  0  0999 V2000
    4.9373    1.8014   16.9883 H   0  0  0  0  0  0  0  0  0  0  0  0
    5.3900    1.2954   17.8394 C   0  0  0  0  0  0  0  0  0  0  0  0
    6.5411    0.6623   17.5833 N   0  0  0  0  0  0  0  0  0  0  0  0
    7.1346    0.0304   18.5986 C   0  0  0  0  0  0  0  0  0  0  0  0
    8.1079   -0.4093   18.3915 H   0  0  0  0  0  0  0  0  0  0  0  0
    6.6048   -0.0333   19.9001 C   0  0  0  0  0  0  0  0  0  0  0  0
    7.3430   -0.7422   20.9922 C   0  0  0  0  0  0  0  0  0  0  0  0
    6.6040   -1.5117   21.7498 N   0  0  0  0  0  0  0  0  0  0  0  0
    7.1794   -2.1628   22.8039 N   0  0  0  0  0  0  0  0  0  0  0  0
    6.3122   -2.9574   23.6310 C   0  0  0  0  0  0  0  0  0  0  0  0
    6.2374   -2.7076   24.9873 C   0  0  0  0  0  0  0  0  0  0  0  0
    6.8398   -1.8929   25.3740 H   0  0  0  0  0  0  0  0  0  0  0  0
    5.3697   -3.4553   25.8325 C   0  0  0  0  0  0  0  0  0  0  0  0
    5.3167   -3.2190   26.8948 H   0  0  0  0  0  0  0  0  0  0  0  0
    4.6038   -4.4673   25.3016 C   0  0  0  0  0  0  0  0  0  0  0  0
    3.9251   -5.0834   25.8844 H   0  0  0  0  0  0  0  0  0  0  0  0
    4.6771   -4.7751   23.9133 C   0  0  0  0  0  0  0  0  0  0  0  0
    3.9002   -5.8097   23.4615 N   0  0  0  0  0  0  0  0  0  0  0  0
    4.0060   -6.1568   22.2012 C   0  0  0  0  0  0  0  0  0  0  0  0
    3.3542   -6.9693   21.8743 H   0  0  0  0  0  0  0  0  0  0  0  0
    4.8875   -5.5228   21.2779 C   0  0  0  0  0  0  0  0  0  0  0  0
    4.9305   -5.8593   20.2514 H   0  0  0  0  0  0  0  0  0  0  0  0
    5.6370   -4.4505   21.6903 C   0  0  0  0  0  0  0  0  0  0  0  0
    6.2842   -3.8941   21.0120 H   0  0  0  0  0  0  0  0  0  0  0  0
    5.5451   -4.0243   23.0516 C   0  0  0  0  0  0  0  0  0  0  0  0
    8.5258   -2.0799   23.0462 C   0  0  0  0  0  0  0  0  0  0  0  0
    8.8715   -2.7020   23.8744 H   0  0  0  0  0  0  0  0  0  0  0  0
    9.3554   -1.3439   22.2932 C   0  0  0  0  0  0  0  0  0  0  0  0
   10.4207   -1.2795   22.4633 H   0  0  0  0  0  0  0  0  0  0  0  0
    8.8202   -0.5620   21.1927 C   0  0  0  0  0  0  0  0  0  0  0  0
    9.5275    0.1664   20.5025 O   0  0  0  0  0  0  0  0  0  0  0  0
    5.3952    0.6242   20.1546 C   0  0  0  0  0  0  0  0  0  0  0  0
    4.9826    0.6103   21.1647 H   0  0  0  0  0  0  0  0  0  0  0  0
    4.7872    1.3155   19.1029 C   0  0  0  0  0  0  0  0  0  0  0  0
    3.8649    1.8659   19.2349 H   0  0  0  0  0  0  0  0  0  0  0  0
  1  2  1  0
  2  3  2  0
  3  4  1  0
  4  5  1  0
  4  6  2  0
  6  7  1  0
  7  8  2  0
  8  9  1  0
  9 10  1  0
 10 11  2  0
 11 12  1  0
 11 13  1  0
 13 14  1  0
 13 15  2  0
 15 16  1  0
 15 17  1  0
 17 18  2  0
 18 19  1  0
 19 20  1  0
 19 21  2  0
 21 22  1  0
 21 23  1  0
 23 24  1  0
 23 25  2  0
  9 26  1  0
 26 27  1  0
 26 28  2  0
 28 29  1  0
 28 30  1  0
 30 31  2  0
  6 32  1  0
 32 33  1  0
 32 34  2  0
 34 35  1  0
 34  2  1  0
 30  7  1  0
 25 10  1  0
 25 17  1  0
M  END
>  <cnnaffinity>  (1) 
-5.7047

>  <filename>  (1) 
O=c1ccn(-c2cccc3ncccc23)nc1-c1cccnc1

$$$$
