
     RDKit          3D

 46 49  0  0  0  0  0  0  0  0999 V2000
   10.7607    4.3381   22.8863 O   0  0  0  0  0  0  0  0  0  0  0  0
   11.1077    3.2328   23.2863 C   0  0  0  0  0  0  0  0  0  0  0  0
   12.4967    2.8895   23.5749 C   0  0  0  0  0  0  0  0  0  0  0  0
   12.8551    1.7008   24.1331 C   0  0  0  0  0  0  0  0  0  0  0  0
   11.8409    0.7524   24.4665 C   0  0  0  0  0  0  0  0  0  0  0  0
   10.5402    1.0094   24.1415 C   0  0  0  0  0  0  0  0  0  0  0  0
   10.1759    2.1746   23.4960 N   0  0  0  0  0  0  0  0  0  0  0  0
    8.8785    2.2661   22.8074 C   0  0  0  0  0  0  0  0  0  0  0  0
    9.0143    2.0036   21.2986 C   0  0  0  0  0  0  0  0  0  0  0  0
    9.5171    0.5920   20.9270 C   0  0  0  0  0  0  0  0  0  0  0  0
    8.6335   -0.5087   21.4173 C   0  0  0  0  0  0  0  0  0  0  0  0
    8.8597   -1.3599   22.3939 N   0  0  0  0  0  0  0  0  0  0  0  0
    7.6672   -2.0104   22.5418 C   0  0  0  0  0  0  0  0  0  0  0  0
    7.4476   -3.0421   23.5819 C   0  0  0  0  0  0  0  0  0  0  0  0
    6.2114   -3.7167   23.6794 C   0  0  0  0  0  0  0  0  0  0  0  0
    6.0165   -4.6857   24.6639 C   0  0  0  0  0  0  0  0  0  0  0  0
    7.0400   -4.9876   25.5695 C   0  0  0  0  0  0  0  0  0  0  0  0
    8.2647   -4.3176   25.4873 C   0  0  0  0  0  0  0  0  0  0  0  0
    8.4708   -3.3541   24.4992 C   0  0  0  0  0  0  0  0  0  0  0  0
    9.4263   -2.8385   24.4345 H   0  0  0  0  0  0  0  0  0  0  0  0
    9.0589   -4.5429   26.1953 H   0  0  0  0  0  0  0  0  0  0  0  0
    6.8836   -5.7393   26.3379 H   0  0  0  0  0  0  0  0  0  0  0  0
    5.0631   -5.2030   24.7319 H   0  0  0  0  0  0  0  0  0  0  0  0
    5.4072   -3.4679   22.9886 H   0  0  0  0  0  0  0  0  0  0  0  0
    6.7294   -1.6132   21.6982 N   0  0  0  0  0  0  0  0  0  0  0  0
    7.3612   -0.6747   20.9535 N   0  0  0  0  0  0  0  0  0  0  0  0
    6.6722   -0.0130   19.9003 C   0  0  0  0  0  0  0  0  0  0  0  0
    5.4546    0.6190   20.1596 C   0  0  0  0  0  0  0  0  0  0  0  0
    4.8303    1.2987   19.1105 C   0  0  0  0  0  0  0  0  0  0  0  0
    5.4230    1.2993   17.8425 C   0  0  0  0  0  0  0  0  0  0  0  0
    6.5691    0.6560   17.5771 N   0  0  0  0  0  0  0  0  0  0  0  0
    7.1718    0.0164   18.5865 C   0  0  0  0  0  0  0  0  0  0  0  0
    8.0953   -0.5062   18.3445 H   0  0  0  0  0  0  0  0  0  0  0  0
    4.9603    1.8233   17.0075 H   0  0  0  0  0  0  0  0  0  0  0  0
    3.8982    1.8276   19.2614 H   0  0  0  0  0  0  0  0  0  0  0  0
    5.0265    0.5697   21.1610 H   0  0  0  0  0  0  0  0  0  0  0  0
    9.5714    0.5158   19.8377 H   0  0  0  0  0  0  0  0  0  0  0  0
   10.5275    0.4258   21.3136 H   0  0  0  0  0  0  0  0  0  0  0  0
    9.7191    2.7402   20.9042 H   0  0  0  0  0  0  0  0  0  0  0  0
    8.0485    2.1880   20.8091 H   0  0  0  0  0  0  0  0  0  0  0  0
    8.4751    3.2684   22.9799 H   0  0  0  0  0  0  0  0  0  0  0  0
    8.1856    1.5489   23.2711 H   0  0  0  0  0  0  0  0  0  0  0  0
    9.7425    0.2830   24.3172 H   0  0  0  0  0  0  0  0  0  0  0  0
   12.0877   -0.1616   24.9916 H   0  0  0  0  0  0  0  0  0  0  0  0
   13.9035    1.4620   24.3178 H   0  0  0  0  0  0  0  0  0  0  0  0
   13.1892    3.6868   23.3468 H   0  0  0  0  0  0  0  0  0  0  0  0
  1  2  2  0
  2  3  1  0
  3  4  2  0
  4  5  1  0
  5  6  2  0
  6  7  1  0
  7  8  1  0
  8  9  1  0
  9 10  1  0
 10 11  1  0
 11 12  2  0
 12 13  1  0
 13 14  1  0
 14 15  2  0
 15 16  1  0
 16 17  2  0
 17 18  1  0
 18 19  2  0
 19 20  1  0
 18 21  1  0
 17 22  1  0
 16 23  1  0
 15 24  1  0
 13 25  2  0
 25 26  1  0
 26 27  1  0
 27 28  2  0
 28 29  1  0
 29 30  2  0
 30 31  1  0
 31 32  2  0
 32 33  1  0
 30 34  1  0
 29 35  1  0
 28 36  1  0
 10 37  1  0
 10 38  1  0
  9 39  1  0
  9 40  1  0
  8 41  1  0
  8 42  1  0
  6 43  1  0
  5 44  1  0
  4 45  1  0
  3 46  1  0
  7  2  1  0
 26 11  1  0
 32 27  1  0
 19 14  1  0
M  END
>  <cnnaffinity>  (1) 
-6.05248

>  <filename>  (1) 
O=c1ccccn1CCCc1nc(-c2ccccc2)nn1-c1cccnc1

$$$$
