
     RDKit          3D

 25 27  0  0  0  0  0  0  0  0999 V2000
    4.9165    1.8253   16.9420 H   0  0  0  0  0  0  0  0  0  0  0  0
    5.3740    1.3389   17.8012 C   0  0  0  0  0  0  0  0  0  0  0  0
    6.5413    0.7153   17.5770 N   0  0  0  0  0  0  0  0  0  0  0  0
    7.1310    0.1202   18.6177 C   0  0  0  0  0  0  0  0  0  0  0  0
    8.0577   -0.4222   18.4272 H   0  0  0  0  0  0  0  0  0  0  0  0
    6.6197    0.1487   19.9231 C   0  0  0  0  0  0  0  0  0  0  0  0
    7.3731   -0.5685   20.9765 C   0  0  0  0  0  0  0  0  0  0  0  0
    8.0116   -1.6268   20.5757 N   0  0  0  0  0  0  0  0  0  0  0  0
    8.5164   -2.4638   21.5267 C   0  0  0  0  0  0  0  0  0  0  0  0
    8.7919   -3.6256   21.3583 O   0  0  0  0  0  0  0  0  0  0  0  0
    8.7110   -1.9322   22.8173 N   0  0  0  0  0  0  0  0  0  0  0  0
    9.1456   -2.6330   23.3934 H   0  0  0  0  0  0  0  0  0  0  0  0
    8.0342   -0.8316   23.2888 C   0  0  0  0  0  0  0  0  0  0  0  0
    8.0686   -0.4655   24.7507 C   0  0  0  0  0  0  0  0  0  0  0  0
    7.4250    0.6084   25.2913 N   0  0  0  0  0  0  0  0  0  0  0  0
    7.7054    0.6126   26.5587 N   0  0  0  0  0  0  0  0  0  0  0  0
    8.4834   -0.4294   26.7577 N   0  0  0  0  0  0  0  0  0  0  0  0
    8.8691   -0.6357   27.6715 H   0  0  0  0  0  0  0  0  0  0  0  0
    8.7461   -1.1441   25.6800 N   0  0  0  0  0  0  0  0  0  0  0  0
    7.3462   -0.1247   22.3375 C   0  0  0  0  0  0  0  0  0  0  0  0
    6.7867    0.7587   22.5934 H   0  0  0  0  0  0  0  0  0  0  0  0
    5.3791    0.7607   20.1327 C   0  0  0  0  0  0  0  0  0  0  0  0
    4.9105    0.7194   21.1164 H   0  0  0  0  0  0  0  0  0  0  0  0
    4.7468    1.3722   19.0510 C   0  0  0  0  0  0  0  0  0  0  0  0
    3.7952    1.8794   19.1655 H   0  0  0  0  0  0  0  0  0  0  0  0
  1  2  1  0
  2  3  2  0
  3  4  1  0
  4  5  1  0
  4  6  2  0
  6  7  1  0
  7  8  2  0
  8  9  1  0
  9 10  2  0
  9 11  1  0
 11 12  1  0
 11 13  1  0
 13 14  1  0
 14 15  1  0
 15 16  2  0
 16 17  1  0
 17 18  1  0
 17 19  1  0
 13 20  2  0
 20 21  1  0
  6 22  1  0
 22 23  1  0
 22 24  2  0
 24 25  1  0
 24  2  1  0
 20  7  1  0
 19 14  2  0
M  END
>  <cnnaffinity>  (1) 
-4.79226

>  <filename>  (1) 
O=c1nc(-c2cccnc2)cc(-c2nn[nH]n2)[nH]1

$$$$
