
     RDKit          3D

 41 44  0  0  0  0  0  0  0  0999 V2000
    6.5660    6.6319   26.9635 H   0  0  0  0  0  0  0  0  0  0  0  0
    7.3702    6.2822   26.3173 C   0  0  0  0  0  0  0  0  0  0  0  0
    7.1087    5.1754   25.6220 N   0  0  0  0  0  0  0  0  0  0  0  0
    8.0557    4.7363   24.7792 C   0  0  0  0  0  0  0  0  0  0  0  0
    7.7500    3.6282   24.0329 N   0  0  0  0  0  0  0  0  0  0  0  0
    6.6120    2.7652   24.3717 C   0  0  0  0  0  0  0  0  0  0  0  0
    6.3776    2.8819   25.4316 H   0  0  0  0  0  0  0  0  0  0  0  0
    5.7138    3.0720   23.8135 H   0  0  0  0  0  0  0  0  0  0  0  0
    6.9432    1.2945   24.0742 C   0  0  0  0  0  0  0  0  0  0  0  0
    6.0443    0.6870   24.2475 H   0  0  0  0  0  0  0  0  0  0  0  0
    7.7003    0.9516   24.7957 H   0  0  0  0  0  0  0  0  0  0  0  0
    7.4197    1.1029   22.6893 N   0  0  0  0  0  0  0  0  0  0  0  0
    7.6745   -0.1702   22.2741 C   0  0  0  0  0  0  0  0  0  0  0  0
    8.1713   -1.1987   22.9793 C   0  0  0  0  0  0  0  0  0  0  0  0
    8.6718   -1.2404   23.9397 H   0  0  0  0  0  0  0  0  0  0  0  0
    7.9747   -2.3727   22.2691 O   0  0  0  0  0  0  0  0  0  0  0  0
    7.2705   -2.0656   21.1367 C   0  0  0  0  0  0  0  0  0  0  0  0
    6.7204   -2.8687   20.4306 O   0  0  0  0  0  0  0  0  0  0  0  0
    7.2961   -0.6762   21.0052 N   0  0  0  0  0  0  0  0  0  0  0  0
    6.6531    0.0105   19.9182 C   0  0  0  0  0  0  0  0  0  0  0  0
    7.1969    0.0733   18.6151 C   0  0  0  0  0  0  0  0  0  0  0  0
    8.1521   -0.4048   18.3925 H   0  0  0  0  0  0  0  0  0  0  0  0
    6.5957    0.7175   17.6050 N   0  0  0  0  0  0  0  0  0  0  0  0
    5.4210    1.3216   17.8484 C   0  0  0  0  0  0  0  0  0  0  0  0
    4.9385    1.8046   17.0003 H   0  0  0  0  0  0  0  0  0  0  0  0
    4.8082    1.3167   19.1036 C   0  0  0  0  0  0  0  0  0  0  0  0
    3.8598    1.8181   19.2469 H   0  0  0  0  0  0  0  0  0  0  0  0
    5.4386    0.6520   20.1566 C   0  0  0  0  0  0  0  0  0  0  0  0
    5.0326    0.6446   21.1671 H   0  0  0  0  0  0  0  0  0  0  0  0
    7.7581    2.3003   21.9164 C   0  0  0  0  0  0  0  0  0  0  0  0
    8.3841    2.0354   21.0623 H   0  0  0  0  0  0  0  0  0  0  0  0
    6.8494    2.7770   21.5235 H   0  0  0  0  0  0  0  0  0  0  0  0
    8.4958    3.3191   22.8026 C   0  0  0  0  0  0  0  0  0  0  0  0
    9.4858    2.9075   23.0485 H   0  0  0  0  0  0  0  0  0  0  0  0
    8.6509    4.2367   22.2197 H   0  0  0  0  0  0  0  0  0  0  0  0
    9.3206    5.3610   24.6602 C   0  0  0  0  0  0  0  0  0  0  0  0
   10.0496    4.9448   23.9783 H   0  0  0  0  0  0  0  0  0  0  0  0
    9.5832    6.4876   25.4238 C   0  0  0  0  0  0  0  0  0  0  0  0
   10.5503    6.9846   25.3516 H   0  0  0  0  0  0  0  0  0  0  0  0
    8.5785    6.9722   26.2682 C   0  0  0  0  0  0  0  0  0  0  0  0
    8.7196    7.8579   26.8719 H   0  0  0  0  0  0  0  0  0  0  0  0
  1  2  1  0
  2  3  2  0
  3  4  1  0
  4  5  1  0
  5  6  1  0
  6  7  1  0
  6  8  1  0
  6  9  1  0
  9 10  1  0
  9 11  1  0
  9 12  1  0
 12 13  1  0
 13 14  2  0
 14 15  1  0
 14 16  1  0
 16 17  1  0
 17 18  2  0
 17 19  1  0
 19 20  1  0
 20 21  2  0
 21 22  1  0
 21 23  1  0
 23 24  2  0
 24 25  1  0
 24 26  1  0
 26 27  1  0
 26 28  2  0
 28 29  1  0
 12 30  1  0
 30 31  1  0
 30 32  1  0
 30 33  1  0
 33 34  1  0
 33 35  1  0
  4 36  2  0
 36 37  1  0
 36 38  1  0
 38 39  1  0
 38 40  2  0
 40 41  1  0
 40  2  1  0
 33  5  1  0
 19 13  1  0
 28 20  1  0
M  END
>  <cnnaffinity>  (1) 
-5.28396

>  <filename>  (1) 
O=c1occ(N2CCN(c3ccccn3)CC2)n1-c1cccnc1

$$$$
