
     RDKit          3D

 31 34  0  0  0  0  0  0  0  0999 V2000
    4.9898    1.7381   16.9636 H   0  0  0  0  0  0  0  0  0  0  0  0
    5.4461    1.2791   17.8375 C   0  0  0  0  0  0  0  0  0  0  0  0
    6.6171    0.6568   17.6373 N   0  0  0  0  0  0  0  0  0  0  0  0
    7.1852    0.0694   18.6969 C   0  0  0  0  0  0  0  0  0  0  0  0
    8.1258   -0.4444   18.5088 H   0  0  0  0  0  0  0  0  0  0  0  0
    6.6535    0.0856   20.0016 C   0  0  0  0  0  0  0  0  0  0  0  0
    7.3566   -0.6224   21.0838 C   0  0  0  0  0  0  0  0  0  0  0  0
    7.8327   -1.8745   21.1183 C   0  0  0  0  0  0  0  0  0  0  0  0
    7.7385   -2.7147   20.4526 H   0  0  0  0  0  0  0  0  0  0  0  0
    8.4502   -2.1272   22.3105 O   0  0  0  0  0  0  0  0  0  0  0  0
    8.3539   -1.0177   23.1024 C   0  0  0  0  0  0  0  0  0  0  0  0
    8.7919   -0.9553   24.2213 O   0  0  0  0  0  0  0  0  0  0  0  0
    7.6632   -0.0650   22.3510 N   0  0  0  0  0  0  0  0  0  0  0  0
    7.1952    1.1575   22.9140 C   0  0  0  0  0  0  0  0  0  0  0  0
    7.5001    2.3802   22.4200 C   0  0  0  0  0  0  0  0  0  0  0  0
    8.1082    2.5836   21.5488 H   0  0  0  0  0  0  0  0  0  0  0  0
    6.8524    3.6919   23.3414 S   0  0  0  0  0  0  0  0  0  0  0  0
    6.1128    2.5875   24.4672 C   0  0  0  0  0  0  0  0  0  0  0  0
    5.3473    2.9272   25.6042 C   0  0  0  0  0  0  0  0  0  0  0  0
    5.1748    3.9656   25.8736 H   0  0  0  0  0  0  0  0  0  0  0  0
    4.7974    1.9025   26.3650 C   0  0  0  0  0  0  0  0  0  0  0  0
    4.1960    2.1428   27.2422 H   0  0  0  0  0  0  0  0  0  0  0  0
    4.9903    0.5537   26.0021 C   0  0  0  0  0  0  0  0  0  0  0  0
    4.5254   -0.2324   26.5958 H   0  0  0  0  0  0  0  0  0  0  0  0
    5.7558    0.2190   24.8894 C   0  0  0  0  0  0  0  0  0  0  0  0
    5.8983   -0.8252   24.6198 H   0  0  0  0  0  0  0  0  0  0  0  0
    6.3557    1.2423   24.1104 C   0  0  0  0  0  0  0  0  0  0  0  0
    5.4246    0.7460   20.1794 C   0  0  0  0  0  0  0  0  0  0  0  0
    4.9907    0.7870   21.1772 H   0  0  0  0  0  0  0  0  0  0  0  0
    4.8043    1.3365   19.0789 C   0  0  0  0  0  0  0  0  0  0  0  0
    3.8505    1.8444   19.1720 H   0  0  0  0  0  0  0  0  0  0  0  0
  1  2  1  0
  2  3  2  0
  3  4  1  0
  4  5  1  0
  4  6  2  0
  6  7  1  0
  7  8  2  0
  8  9  1  0
  8 10  1  0
 10 11  1  0
 11 12  2  0
 11 13  1  0
 13 14  1  0
 14 15  2  0
 15 16  1  0
 15 17  1  0
 17 18  1  0
 18 19  2  0
 19 20  1  0
 19 21  1  0
 21 22  1  0
 21 23  2  0
 23 24  1  0
 23 25  1  0
 25 26  1  0
 25 27  2  0
  6 28  1  0
 28 29  1  0
 28 30  2  0
 30 31  1  0
 30  2  1  0
 13  7  1  0
 27 14  1  0
 27 18  1  0
M  END
>  <cnnaffinity>  (1) 
-5.13253

>  <filename>  (1) 
O=c1occ(-c2cccnc2)n1-c1csc2ccccc12

$$$$
