
     RDKit          3D

 45 49  0  0  0  0  0  0  0  0999 V2000
   12.0827   -1.0494   21.5186 O   0  0  0  0  0  0  0  0  0  0  0  0
   11.5956   -0.1070   22.1274 C   0  0  0  0  0  0  0  0  0  0  0  0
   12.0785    0.2442   23.5279 C   0  0  0  0  0  0  0  0  0  0  0  0
   11.9381    1.7267   23.8942 C   0  0  0  0  0  0  0  0  0  0  0  0
   10.5271    2.2061   23.5240 C   0  0  0  0  0  0  0  0  0  0  0  0
   10.2124    1.9759   22.0432 C   0  0  0  0  0  0  0  0  0  0  0  0
   10.5096    0.6013   21.6373 N   0  0  0  0  0  0  0  0  0  0  0  0
    9.6214   -0.0746   20.6855 C   0  0  0  0  0  0  0  0  0  0  0  0
    8.5708   -0.9424   21.3266 C   0  0  0  0  0  0  0  0  0  0  0  0
    8.7715   -1.7319   22.3649 N   0  0  0  0  0  0  0  0  0  0  0  0
    7.5382   -2.2158   22.6430 C   0  0  0  0  0  0  0  0  0  0  0  0
    7.3565   -3.0152   23.8761 C   0  0  0  0  0  0  0  0  0  0  0  0
    5.9810   -3.0889   24.5269 C   0  0  0  0  0  0  0  0  0  0  0  0
    7.0706   -2.2713   25.1554 C   0  0  0  0  0  0  0  0  0  0  0  0
    7.4165   -0.9013   25.6066 C   0  0  0  0  0  0  0  0  0  0  0  0
    7.6689   -2.1190   26.5004 C   0  0  0  0  0  0  0  0  0  0  0  0
    6.9924   -2.2357   27.3437 H   0  0  0  0  0  0  0  0  0  0  0  0
    8.6833   -2.4647   26.6724 H   0  0  0  0  0  0  0  0  0  0  0  0
    8.2614   -0.4598   25.0770 H   0  0  0  0  0  0  0  0  0  0  0  0
    6.6185   -0.2243   25.8956 H   0  0  0  0  0  0  0  0  0  0  0  0
    5.6820   -4.0024   25.0387 H   0  0  0  0  0  0  0  0  0  0  0  0
    5.1851   -2.5484   24.0233 H   0  0  0  0  0  0  0  0  0  0  0  0
    8.0765   -3.8274   23.9618 H   0  0  0  0  0  0  0  0  0  0  0  0
    6.5943   -1.8301   21.8017 N   0  0  0  0  0  0  0  0  0  0  0  0
    7.2680   -1.0444   20.9195 N   0  0  0  0  0  0  0  0  0  0  0  0
    6.5839   -0.3699   19.8675 C   0  0  0  0  0  0  0  0  0  0  0  0
    5.4540    0.4017   20.1570 C   0  0  0  0  0  0  0  0  0  0  0  0
    4.9283    1.2058   19.1415 C   0  0  0  0  0  0  0  0  0  0  0  0
    5.5179    1.1692   17.8712 C   0  0  0  0  0  0  0  0  0  0  0  0
    6.5388    0.3558   17.5613 N   0  0  0  0  0  0  0  0  0  0  0  0
    7.0481   -0.4041   18.5399 C   0  0  0  0  0  0  0  0  0  0  0  0
    7.8810   -1.0522   18.2702 H   0  0  0  0  0  0  0  0  0  0  0  0
    5.1577    1.8171   17.0734 H   0  0  0  0  0  0  0  0  0  0  0  0
    4.0797    1.8566   19.3259 H   0  0  0  0  0  0  0  0  0  0  0  0
    5.0296    0.3641   21.1602 H   0  0  0  0  0  0  0  0  0  0  0  0
    9.1638    0.6633   20.0203 H   0  0  0  0  0  0  0  0  0  0  0  0
   10.2577   -0.7274   20.0855 H   0  0  0  0  0  0  0  0  0  0  0  0
    9.1480    2.1630   21.8533 H   0  0  0  0  0  0  0  0  0  0  0  0
   10.7594    2.6923   21.4100 H   0  0  0  0  0  0  0  0  0  0  0  0
   10.3868    3.2692   23.7535 H   0  0  0  0  0  0  0  0  0  0  0  0
    9.7908    1.6458   24.1184 H   0  0  0  0  0  0  0  0  0  0  0  0
   12.1181    1.8666   24.9665 H   0  0  0  0  0  0  0  0  0  0  0  0
   12.7048    2.3247   23.3805 H   0  0  0  0  0  0  0  0  0  0  0  0
   11.4609   -0.3730   24.2013 H   0  0  0  0  0  0  0  0  0  0  0  0
   13.0997   -0.1387   23.5917 H   0  0  0  0  0  0  0  0  0  0  0  0
  1  2  2  0
  2  3  1  0
  3  4  1  0
  4  5  1  0
  5  6  1  0
  6  7  1  0
  7  8  1  0
  8  9  1  0
  9 10  2  0
 10 11  1  0
 11 12  1  0
 12 13  1  0
 13 14  1  0
 14 15  1  0
 15 16  1  0
 16 17  1  0
 16 18  1  0
 15 19  1  0
 15 20  1  0
 13 21  1  0
 13 22  1  0
 12 23  1  0
 11 24  2  0
 24 25  1  0
 25 26  1  0
 26 27  2  0
 27 28  1  0
 28 29  2  0
 29 30  1  0
 30 31  2  0
 31 32  1  0
 29 33  1  0
 28 34  1  0
 27 35  1  0
  8 36  1  0
  8 37  1  0
  6 38  1  0
  6 39  1  0
  5 40  1  0
  5 41  1  0
  4 42  1  0
  4 43  1  0
  3 44  1  0
  3 45  1  0
  7  2  1  0
 25  9  1  0
 31 26  1  0
 14 12  1  0
 16 14  1  0
M  END
>  <cnnaffinity>  (1) 
-6.28332

>  <filename>  (1) 
O=C1CCCCN1Cc1nc(C2CC23CC3)nn1-c1cccnc1

$$$$
