
     RDKit          3D

 42 45  0  0  0  0  0  0  0  0999 V2000
   14.4186   -1.7883   22.1959 O   0  0  0  0  0  0  0  0  0  0  0  0
   13.3992   -1.1206   22.1633 C   0  0  0  0  0  0  0  0  0  0  0  0
   13.1709    0.1565   22.8202 C   0  0  0  0  0  0  0  0  0  0  0  0
   12.0357    0.8628   22.5705 C   0  0  0  0  0  0  0  0  0  0  0  0
   11.0075    0.3614   21.6875 C   0  0  0  0  0  0  0  0  0  0  0  0
    9.8185    1.2638   21.3795 C   0  0  0  0  0  0  0  0  0  0  0  0
    8.6929    1.1842   22.3596 C   0  0  0  0  0  0  0  0  0  0  0  0
    8.5879    1.8936   23.4616 N   0  0  0  0  0  0  0  0  0  0  0  0
    7.4469    1.4183   24.0285 C   0  0  0  0  0  0  0  0  0  0  0  0
    7.0062    1.8981   25.3326 C   0  0  0  0  0  0  0  0  0  0  0  0
    5.8678    1.4305   26.0147 C   0  0  0  0  0  0  0  0  0  0  0  0
    5.5928    1.9625   27.2701 C   0  0  0  0  0  0  0  0  0  0  0  0
    6.4656    2.9368   27.7811 C   0  0  0  0  0  0  0  0  0  0  0  0
    6.1354    3.6321   29.3405 Cl  0  0  0  0  0  0  0  0  0  0  0  0
    7.5428    3.3817   27.1561 N   0  0  0  0  0  0  0  0  0  0  0  0
    7.8072    2.8609   25.9547 C   0  0  0  0  0  0  0  0  0  0  0  0
    8.7045    3.2150   25.4547 H   0  0  0  0  0  0  0  0  0  0  0  0
    4.7421    1.6467   27.8590 H   0  0  0  0  0  0  0  0  0  0  0  0
    5.2277    0.6624   25.5737 H   0  0  0  0  0  0  0  0  0  0  0  0
    6.8370    0.4880   23.3188 N   0  0  0  0  0  0  0  0  0  0  0  0
    7.6469    0.3419   22.2440 N   0  0  0  0  0  0  0  0  0  0  0  0
    7.3264   -0.5694   21.1491 C   0  0  0  0  0  0  0  0  0  0  0  0
    6.6733    0.1030   19.9495 C   0  0  0  0  0  0  0  0  0  0  0  0
    5.4596    0.7799   20.1205 C   0  0  0  0  0  0  0  0  0  0  0  0
    4.8579    1.3725   19.0087 C   0  0  0  0  0  0  0  0  0  0  0  0
    5.4860    1.2773   17.7638 C   0  0  0  0  0  0  0  0  0  0  0  0
    6.6442    0.6276   17.5737 N   0  0  0  0  0  0  0  0  0  0  0  0
    7.2139    0.0694   18.6523 C   0  0  0  0  0  0  0  0  0  0  0  0
    8.1557   -0.4424   18.4537 H   0  0  0  0  0  0  0  0  0  0  0  0
    5.0392    1.7437   16.8855 H   0  0  0  0  0  0  0  0  0  0  0  0
    3.9283    1.9239   19.0974 H   0  0  0  0  0  0  0  0  0  0  0  0
    5.0046    0.8473   21.1105 H   0  0  0  0  0  0  0  0  0  0  0  0
    8.2487   -1.0731   20.8449 H   0  0  0  0  0  0  0  0  0  0  0  0
    6.6700   -1.3315   21.5790 H   0  0  0  0  0  0  0  0  0  0  0  0
   10.1551    2.3032   21.3833 H   0  0  0  0  0  0  0  0  0  0  0  0
    9.4186    1.0984   20.3750 H   0  0  0  0  0  0  0  0  0  0  0  0
   11.1597   -0.8934   21.1784 C   0  0  0  0  0  0  0  0  0  0  0  0
   12.3149   -1.6038   21.4359 N   0  0  0  0  0  0  0  0  0  0  0  0
   12.5589   -2.5137   21.0694 H   0  0  0  0  0  0  0  0  0  0  0  0
   10.4097   -1.3728   20.5534 H   0  0  0  0  0  0  0  0  0  0  0  0
   11.8821    1.8320   23.0489 H   0  0  0  0  0  0  0  0  0  0  0  0
   13.9718    0.4974   23.4643 H   0  0  0  0  0  0  0  0  0  0  0  0
  1  2  2  0
  2  3  1  0
  3  4  2  0
  4  5  1  0
  5  6  1  0
  6  7  1  0
  7  8  2  0
  8  9  1  0
  9 10  1  0
 10 11  2  0
 11 12  1  0
 12 13  2  0
 13 14  1  0
 13 15  1  0
 15 16  2  0
 16 17  1  0
 12 18  1  0
 11 19  1  0
  9 20  2  0
 20 21  1  0
 21 22  1  0
 22 23  1  0
 23 24  2  0
 24 25  1  0
 25 26  2  0
 26 27  1  0
 27 28  2  0
 28 29  1  0
 26 30  1  0
 25 31  1  0
 24 32  1  0
 22 33  1  0
 22 34  1  0
  6 35  1  0
  6 36  1  0
  5 37  2  0
 37 38  1  0
 38 39  1  0
 37 40  1  0
  4 41  1  0
  3 42  1  0
 38  2  1  0
 21  7  1  0
 28 23  1  0
 16 10  1  0
M  END
>  <cnnaffinity>  (1) 
-6.56617

>  <filename>  (1) 
O=c1ccc(Cc2nc(-c3ccc(Cl)nc3)nn2Cc2cccnc2)c[nH]1

$$$$
