
     RDKit          3D

 33 36  0  0  0  0  0  0  0  0999 V2000
    4.9210    1.7986   16.9820 H   0  0  0  0  0  0  0  0  0  0  0  0
    5.3899    1.3006   17.8298 C   0  0  0  0  0  0  0  0  0  0  0  0
    6.5463    0.6706   17.5694 N   0  0  0  0  0  0  0  0  0  0  0  0
    7.1544    0.0454   18.5830 C   0  0  0  0  0  0  0  0  0  0  0  0
    8.1139   -0.4158   18.3703 H   0  0  0  0  0  0  0  0  0  0  0  0
    6.6340   -0.0186   19.8881 C   0  0  0  0  0  0  0  0  0  0  0  0
    7.3450   -0.6984   20.9422 N   0  0  0  0  0  0  0  0  0  0  0  0
    6.7228   -1.7443   21.5855 C   0  0  0  0  0  0  0  0  0  0  0  0
    5.7174   -1.9453   21.2241 H   0  0  0  0  0  0  0  0  0  0  0  0
    7.3458   -2.4535   22.5822 C   0  0  0  0  0  0  0  0  0  0  0  0
    6.6897   -3.5810   23.2804 C   0  0  0  0  0  0  0  0  0  0  0  0
    7.2500   -4.2671   24.2182 N   0  0  0  0  0  0  0  0  0  0  0  0
    6.4082   -5.2540   24.6960 C   0  0  0  0  0  0  0  0  0  0  0  0
    6.7131   -6.1517   25.7377 C   0  0  0  0  0  0  0  0  0  0  0  0
    7.6968   -6.1074   26.1986 H   0  0  0  0  0  0  0  0  0  0  0  0
    5.7575   -7.0938   26.1132 C   0  0  0  0  0  0  0  0  0  0  0  0
    5.9665   -7.7998   26.9116 H   0  0  0  0  0  0  0  0  0  0  0  0
    4.5128   -7.1665   25.4547 C   0  0  0  0  0  0  0  0  0  0  0  0
    3.7928   -7.9247   25.7584 H   0  0  0  0  0  0  0  0  0  0  0  0
    4.1944   -6.2797   24.4304 C   0  0  0  0  0  0  0  0  0  0  0  0
    3.2272   -6.3213   23.9406 H   0  0  0  0  0  0  0  0  0  0  0  0
    5.1476   -5.3216   24.0596 C   0  0  0  0  0  0  0  0  0  0  0  0
    5.0520   -4.0818   22.8527 S   0  0  0  0  0  0  0  0  0  0  0  0
    8.6756   -2.0763   22.9704 C   0  0  0  0  0  0  0  0  0  0  0  0
    9.1648   -2.6420   23.7683 H   0  0  0  0  0  0  0  0  0  0  0  0
    9.2952   -1.0375   22.3561 C   0  0  0  0  0  0  0  0  0  0  0  0
   10.2947   -0.7027   22.5935 H   0  0  0  0  0  0  0  0  0  0  0  0
    8.6711   -0.2674   21.2929 C   0  0  0  0  0  0  0  0  0  0  0  0
    9.2187    0.6608   20.7195 O   0  0  0  0  0  0  0  0  0  0  0  0
    5.4258    0.6328   20.1498 C   0  0  0  0  0  0  0  0  0  0  0  0
    5.0313    0.6187   21.1697 H   0  0  0  0  0  0  0  0  0  0  0  0
    4.7995    1.3171   19.0998 C   0  0  0  0  0  0  0  0  0  0  0  0
    3.8699    1.8516   19.2499 H   0  0  0  0  0  0  0  0  0  0  0  0
  1  2  1  0
  2  3  2  0
  3  4  1  0
  4  5  1  0
  4  6  2  0
  6  7  1  0
  7  8  1  0
  8  9  1  0
  8 10  2  0
 10 11  1  0
 11 12  2  0
 12 13  1  0
 13 14  2  0
 14 15  1  0
 14 16  1  0
 16 17  1  0
 16 18  2  0
 18 19  1  0
 18 20  1  0
 20 21  1  0
 20 22  2  0
 22 23  1  0
 10 24  1  0
 24 25  1  0
 24 26  2  0
 26 27  1  0
 26 28  1  0
 28 29  2  0
  6 30  1  0
 30 31  1  0
 30 32  2  0
 32 33  1  0
 32  2  1  0
 28  7  1  0
 23 11  1  0
 22 13  1  0
M  END
>  <cnnaffinity>  (1) 
-5.93304

>  <filename>  (1) 
O=c1ccc(-c2nc3ccccc3s2)cn1-c1cccnc1

$$$$
