
     RDKit          3D

 35 38  0  0  0  0  0  0  0  0999 V2000
    5.3357    1.4431   16.6415 H   0  0  0  0  0  0  0  0  0  0  0  0
    5.6827    1.1047   17.6161 C   0  0  0  0  0  0  0  0  0  0  0  0
    6.8704    0.4801   17.6394 N   0  0  0  0  0  0  0  0  0  0  0  0
    7.3307    0.0766   18.8291 C   0  0  0  0  0  0  0  0  0  0  0  0
    8.3194   -0.3854   18.8046 H   0  0  0  0  0  0  0  0  0  0  0  0
    6.6374    0.2488   20.0370 C   0  0  0  0  0  0  0  0  0  0  0  0
    7.1981   -0.2403   21.2978 C   0  0  0  0  0  0  0  0  0  0  0  0
    6.9372    0.2316   22.4910 N   0  0  0  0  0  0  0  0  0  0  0  0
    7.6564   -0.5341   23.3664 C   0  0  0  0  0  0  0  0  0  0  0  0
    7.6080   -0.3472   24.4318 H   0  0  0  0  0  0  0  0  0  0  0  0
    8.3724   -1.4964   22.7046 C   0  0  0  0  0  0  0  0  0  0  0  0
    9.2270   -2.6239   23.2134 C   0  0  0  0  0  0  0  0  0  0  0  0
   10.0736   -2.8056   22.5417 H   0  0  0  0  0  0  0  0  0  0  0  0
    9.6303   -2.4006   24.2069 H   0  0  0  0  0  0  0  0  0  0  0  0
    8.4688   -3.8729   23.3024 N   0  0  0  0  0  0  0  0  0  0  0  0
    7.8795   -4.4298   22.1729 C   0  0  0  0  0  0  0  0  0  0  0  0
    8.2733   -4.2132   21.0474 O   0  0  0  0  0  0  0  0  0  0  0  0
    6.7111   -5.2292   22.6180 C   0  0  0  0  0  0  0  0  0  0  0  0
    5.7105   -5.8907   21.9009 C   0  0  0  0  0  0  0  0  0  0  0  0
    5.7497   -5.9693   20.8182 H   0  0  0  0  0  0  0  0  0  0  0  0
    4.6585   -6.4536   22.6273 C   0  0  0  0  0  0  0  0  0  0  0  0
    3.8441   -6.9518   22.1051 H   0  0  0  0  0  0  0  0  0  0  0  0
    4.6075   -6.3422   24.0321 C   0  0  0  0  0  0  0  0  0  0  0  0
    3.7572   -6.7609   24.5594 H   0  0  0  0  0  0  0  0  0  0  0  0
    5.6244   -5.6958   24.7426 C   0  0  0  0  0  0  0  0  0  0  0  0
    5.6006   -5.6084   25.8271 H   0  0  0  0  0  0  0  0  0  0  0  0
    6.6663   -5.1391   24.0070 C   0  0  0  0  0  0  0  0  0  0  0  0
    7.7960   -4.2738   24.4511 C   0  0  0  0  0  0  0  0  0  0  0  0
    8.1141   -3.9463   25.5699 O   0  0  0  0  0  0  0  0  0  0  0  0
    8.0797   -1.2795   21.3666 N   0  0  0  0  0  0  0  0  0  0  0  0
    8.1447   -1.9893   20.6491 H   0  0  0  0  0  0  0  0  0  0  0  0
    5.4062    0.9288   19.9970 C   0  0  0  0  0  0  0  0  0  0  0  0
    4.8629    1.1260   20.9236 H   0  0  0  0  0  0  0  0  0  0  0  0
    4.9188    1.3495   18.7629 C   0  0  0  0  0  0  0  0  0  0  0  0
    3.9711    1.8716   18.6758 H   0  0  0  0  0  0  0  0  0  0  0  0
  1  2  1  0
  2  3  2  0
  3  4  1  0
  4  5  1  0
  4  6  2  0
  6  7  1  0
  7  8  2  0
  8  9  1  0
  9 10  1  0
  9 11  2  0
 11 12  1  0
 12 13  1  0
 12 14  1  0
 12 15  1  0
 15 16  1  0
 16 17  2  0
 16 18  1  0
 18 19  2  0
 19 20  1  0
 19 21  1  0
 21 22  1  0
 21 23  2  0
 23 24  1  0
 23 25  1  0
 25 26  1  0
 25 27  2  0
 27 28  1  0
 28 29  2  0
 11 30  1  0
 30 31  1  0
  6 32  1  0
 32 33  1  0
 32 34  2  0
 34 35  1  0
 34  2  1  0
 30  7  1  0
 28 15  1  0
 27 18  1  0
M  END
>  <cnnaffinity>  (1) 
-5.62688

>  <filename>  (1) 
O=C1c2ccccc2C(=O)N1Cc1cnc(-c2cccnc2)[nH]1

$$$$
