
     RDKit          3D

 33 35  0  0  0  0  0  0  0  0999 V2000
    4.9382    1.8036   16.9874 H   0  0  0  0  0  0  0  0  0  0  0  0
    5.3896    1.2961   17.8377 C   0  0  0  0  0  0  0  0  0  0  0  0
    6.5418    0.6618   17.5818 N   0  0  0  0  0  0  0  0  0  0  0  0
    7.1325    0.0311   18.5991 C   0  0  0  0  0  0  0  0  0  0  0  0
    8.1058   -0.4139   18.3991 H   0  0  0  0  0  0  0  0  0  0  0  0
    6.5983   -0.0324   19.8985 C   0  0  0  0  0  0  0  0  0  0  0  0
    7.3256   -0.7490   20.9870 C   0  0  0  0  0  0  0  0  0  0  0  0
    6.5817   -1.5127   21.7474 N   0  0  0  0  0  0  0  0  0  0  0  0
    7.1614   -2.1842   22.7948 N   0  0  0  0  0  0  0  0  0  0  0  0
    6.2879   -2.9893   23.6133 C   0  0  0  0  0  0  0  0  0  0  0  0
    5.2136   -3.6652   23.0167 C   0  0  0  0  0  0  0  0  0  0  0  0
    5.0764   -3.5303   21.9483 H   0  0  0  0  0  0  0  0  0  0  0  0
    4.3648   -4.4542   23.8023 C   0  0  0  0  0  0  0  0  0  0  0  0
    3.5236   -4.9746   23.3465 H   0  0  0  0  0  0  0  0  0  0  0  0
    4.5789   -4.5713   25.1810 C   0  0  0  0  0  0  0  0  0  0  0  0
    3.9095   -5.1827   25.7825 H   0  0  0  0  0  0  0  0  0  0  0  0
    5.6506   -3.8987   25.7862 C   0  0  0  0  0  0  0  0  0  0  0  0
    5.8653   -3.9849   27.2857 C   0  0  0  0  0  0  0  0  0  0  0  0
    5.4068   -5.1366   27.8098 F   0  0  0  0  0  0  0  0  0  0  0  0
    7.1713   -3.8986   27.5996 F   0  0  0  0  0  0  0  0  0  0  0  0
    5.2356   -2.9871   27.9353 F   0  0  0  0  0  0  0  0  0  0  0  0
    6.5014   -3.1053   24.9968 C   0  0  0  0  0  0  0  0  0  0  0  0
    7.3204   -2.5422   25.4326 H   0  0  0  0  0  0  0  0  0  0  0  0
    8.5168   -2.1239   23.0281 C   0  0  0  0  0  0  0  0  0  0  0  0
    8.8632   -2.7488   23.8507 H   0  0  0  0  0  0  0  0  0  0  0  0
    9.3489   -1.3704   22.2853 C   0  0  0  0  0  0  0  0  0  0  0  0
   10.4121   -1.3020   22.4607 H   0  0  0  0  0  0  0  0  0  0  0  0
    8.8141   -0.5704   21.1894 C   0  0  0  0  0  0  0  0  0  0  0  0
    9.5227    0.1652   20.5107 O   0  0  0  0  0  0  0  0  0  0  0  0
    5.3898    0.6279   20.1513 C   0  0  0  0  0  0  0  0  0  0  0  0
    4.9769    0.6166   21.1610 H   0  0  0  0  0  0  0  0  0  0  0  0
    4.7821    1.3170   19.0992 C   0  0  0  0  0  0  0  0  0  0  0  0
    3.8603    1.8716   19.2322 H   0  0  0  0  0  0  0  0  0  0  0  0
  1  2  1  0
  2  3  2  0
  3  4  1  0
  4  5  1  0
  4  6  2  0
  6  7  1  0
  7  8  2  0
  8  9  1  0
  9 10  1  0
 10 11  2  0
 11 12  1  0
 11 13  1  0
 13 14  1  0
 13 15  2  0
 15 16  1  0
 15 17  1  0
 17 18  1  0
 18 19  1  0
 18 20  1  0
 18 21  1  0
 17 22  2  0
 22 23  1  0
  9 24  1  0
 24 25  1  0
 24 26  2  0
 26 27  1  0
 26 28  1  0
 28 29  2  0
  6 30  1  0
 30 31  1  0
 30 32  2  0
 32 33  1  0
 32  2  1  0
 28  7  1  0
 22 10  1  0
M  END
>  <cnnaffinity>  (1) 
-5.51601

>  <filename>  (1) 
O=c1ccn(-c2cccc(C(F)(F)F)c2)nc1-c1cccnc1

$$$$
