
     RDKit          3D

 48 52  0  0  0  0  0  0  0  0999 V2000
    9.2982    2.5923   22.5482 O   0  0  0  0  0  0  0  0  0  0  0  0
   10.2878    1.8788   22.5602 C   0  0  0  0  0  0  0  0  0  0  0  0
   11.4092    2.1737   23.5571 C   0  0  0  0  0  0  0  0  0  0  0  0
   12.5319    1.1356   23.6448 C   0  0  0  0  0  0  0  0  0  0  0  0
   12.7858    0.5835   22.2272 C   0  0  0  0  0  0  0  0  0  0  0  0
   14.1113   -0.1557   22.1090 C   0  0  0  0  0  0  0  0  0  0  0  0
   15.1049    0.7436   22.2682 F   0  0  0  0  0  0  0  0  0  0  0  0
   14.3146   -0.7921   20.9395 F   0  0  0  0  0  0  0  0  0  0  0  0
   14.3019   -1.0926   23.0349 F   0  0  0  0  0  0  0  0  0  0  0  0
   11.5349   -0.1559   21.7492 C   0  0  0  0  0  0  0  0  0  0  0  0
   10.4364    0.8178   21.6749 N   0  0  0  0  0  0  0  0  0  0  0  0
    9.2816    0.4531   20.8517 C   0  0  0  0  0  0  0  0  0  0  0  0
    8.2753   -0.4897   21.4663 C   0  0  0  0  0  0  0  0  0  0  0  0
    8.4259   -1.3182   22.4821 N   0  0  0  0  0  0  0  0  0  0  0  0
    7.2211   -1.9565   22.5506 C   0  0  0  0  0  0  0  0  0  0  0  0
    6.8477   -3.0166   23.5033 C   0  0  0  0  0  0  0  0  0  0  0  0
    7.1862   -2.9833   24.9952 C   0  0  0  0  0  0  0  0  0  0  0  0
    7.8671   -3.9482   24.0697 C   0  0  0  0  0  0  0  0  0  0  0  0
    9.2545   -4.2787   23.6774 C   0  0  0  0  0  0  0  0  0  0  0  0
    8.1719   -5.3623   23.7722 C   0  0  0  0  0  0  0  0  0  0  0  0
    8.2399   -6.0627   24.6014 H   0  0  0  0  0  0  0  0  0  0  0  0
    7.7190   -5.7648   22.8636 H   0  0  0  0  0  0  0  0  0  0  0  0
   10.0027   -4.2790   24.4703 H   0  0  0  0  0  0  0  0  0  0  0  0
    9.5686   -3.8515   22.7237 H   0  0  0  0  0  0  0  0  0  0  0  0
    7.8159   -2.1732   25.3684 H   0  0  0  0  0  0  0  0  0  0  0  0
    6.4468   -3.3666   25.6962 H   0  0  0  0  0  0  0  0  0  0  0  0
    5.9093   -3.4957   23.2224 H   0  0  0  0  0  0  0  0  0  0  0  0
    6.3569   -1.5806   21.6304 N   0  0  0  0  0  0  0  0  0  0  0  0
    7.0256   -0.6427   20.9283 N   0  0  0  0  0  0  0  0  0  0  0  0
    6.4035   -0.0095   19.8158 C   0  0  0  0  0  0  0  0  0  0  0  0
    5.2421    0.7577   19.9668 C   0  0  0  0  0  0  0  0  0  0  0  0
    4.7350    1.3978   18.8320 C   0  0  0  0  0  0  0  0  0  0  0  0
    5.3814    1.2296   17.6005 C   0  0  0  0  0  0  0  0  0  0  0  0
    6.4686    0.4577   17.4468 N   0  0  0  0  0  0  0  0  0  0  0  0
    6.9477   -0.1578   18.5307 C   0  0  0  0  0  0  0  0  0  0  0  0
    7.7977   -0.8234   18.3823 H   0  0  0  0  0  0  0  0  0  0  0  0
    5.0063    1.7162   16.7024 H   0  0  0  0  0  0  0  0  0  0  0  0
    3.8556    2.0311   18.8855 H   0  0  0  0  0  0  0  0  0  0  0  0
    4.7612    0.8421   20.9434 H   0  0  0  0  0  0  0  0  0  0  0  0
    9.6400   -0.0073   19.9211 H   0  0  0  0  0  0  0  0  0  0  0  0
    8.7456    1.3607   20.5617 H   0  0  0  0  0  0  0  0  0  0  0  0
   11.6916   -0.5877   20.7511 H   0  0  0  0  0  0  0  0  0  0  0  0
   11.2563   -0.9916   22.4146 H   0  0  0  0  0  0  0  0  0  0  0  0
   12.9124    1.4357   21.5521 H   0  0  0  0  0  0  0  0  0  0  0  0
   12.2521    0.3112   24.3194 H   0  0  0  0  0  0  0  0  0  0  0  0
   13.4414    1.5884   24.0604 H   0  0  0  0  0  0  0  0  0  0  0  0
   10.9074    2.3327   24.5163 H   0  0  0  0  0  0  0  0  0  0  0  0
   11.7958    3.1515   23.2422 H   0  0  0  0  0  0  0  0  0  0  0  0
  1  2  2  0
  2  3  1  0
  3  4  1  0
  4  5  1  0
  5  6  1  0
  6  7  1  0
  6  8  1  0
  6  9  1  0
  5 10  1  0
 10 11  1  0
 11 12  1  0
 12 13  1  0
 13 14  2  0
 14 15  1  0
 15 16  1  0
 16 17  1  0
 17 18  1  0
 18 19  1  0
 19 20  1  0
 20 21  1  0
 20 22  1  0
 19 23  1  0
 19 24  1  0
 17 25  1  0
 17 26  1  0
 16 27  1  0
 15 28  2  0
 28 29  1  0
 29 30  1  0
 30 31  2  0
 31 32  1  0
 32 33  2  0
 33 34  1  0
 34 35  2  0
 35 36  1  0
 33 37  1  0
 32 38  1  0
 31 39  1  0
 12 40  1  0
 12 41  1  0
 10 42  1  0
 10 43  1  0
  5 44  1  0
  4 45  1  0
  4 46  1  0
  3 47  1  0
  3 48  1  0
 11  2  1  0
 29 13  1  0
 35 30  1  0
 18 16  1  0
 20 18  1  0
M  END
>  <cnnaffinity>  (1) 
-6.78181

>  <filename>  (1) 
O=C1CCC(C(F)(F)F)CN1Cc1nc(C2CC23CC3)nn1-c1cccnc1

$$$$
