
     RDKit          3D

 36 38  0  0  0  0  0  0  0  0999 V2000
    5.0282    1.8422   16.9497 H   0  0  0  0  0  0  0  0  0  0  0  0
    5.4642    1.3189   17.7984 C   0  0  0  0  0  0  0  0  0  0  0  0
    6.6268    0.6881   17.5727 N   0  0  0  0  0  0  0  0  0  0  0  0
    7.1871    0.0428   18.6028 C   0  0  0  0  0  0  0  0  0  0  0  0
    8.1276   -0.4642   18.3802 H   0  0  0  0  0  0  0  0  0  0  0  0
    6.6345   -0.0213   19.9031 C   0  0  0  0  0  0  0  0  0  0  0  0
    7.3173   -0.7582   21.0592 C   0  0  2  0  0  0  0  0  0  0  0  0
    8.1778   -1.3194   20.6801 H   0  0  0  0  0  0  0  0  0  0  0  0
    6.4433   -1.8239   21.7470 C   0  0  0  0  0  0  0  0  0  0  0  0
    5.7830   -2.7000   21.2241 O   0  0  0  0  0  0  0  0  0  0  0  0
    6.5577   -1.6686   23.0903 N   0  0  0  0  0  0  0  0  0  0  0  0
    5.8886   -2.1632   23.6543 H   0  0  0  0  0  0  0  0  0  0  0  0
    7.3233   -0.5254   23.5422 C   0  0  0  0  0  0  0  0  0  0  0  0
    8.1647   -0.8295   24.1826 H   0  0  0  0  0  0  0  0  0  0  0  0
    6.6859    0.1561   24.1233 H   0  0  0  0  0  0  0  0  0  0  0  0
    7.8194    0.1415   22.2327 C   0  0  1  0  0  0  0  0  0  0  0  0
    7.3647    1.1452   22.1553 H   0  0  0  0  0  0  0  0  0  0  0  0
    9.2400    0.2161   22.2490 O   0  0  0  0  0  0  0  0  0  0  0  0
    9.8381    1.3711   21.6606 C   0  0  0  0  0  0  0  0  0  0  0  0
    9.3227    1.6111   20.7128 H   0  0  0  0  0  0  0  0  0  0  0  0
    9.8401    2.5637   22.6536 C   0  0  0  0  0  0  0  0  0  0  0  0
    9.1293    2.3788   23.4695 H   0  0  0  0  0  0  0  0  0  0  0  0
    9.5052    3.4743   22.1464 H   0  0  0  0  0  0  0  0  0  0  0  0
   11.2973    2.7214   23.1866 C   0  0  0  0  0  0  0  0  0  0  0  0
   11.7402    3.6526   22.8097 H   0  0  0  0  0  0  0  0  0  0  0  0
   11.3062    2.7848   24.2837 H   0  0  0  0  0  0  0  0  0  0  0  0
   12.0868    1.5042   22.6504 C   0  0  0  0  0  0  0  0  0  0  0  0
   13.1428    1.7416   22.4457 H   0  0  0  0  0  0  0  0  0  0  0  0
   12.0864    0.6942   23.3892 H   0  0  0  0  0  0  0  0  0  0  0  0
   11.3184    1.0862   21.3855 C   0  0  0  0  0  0  0  0  0  0  0  0
   11.4743    0.0384   21.1135 H   0  0  0  0  0  0  0  0  0  0  0  0
   11.6333    1.7182   20.5421 H   0  0  0  0  0  0  0  0  0  0  0  0
    5.4125    0.6366   20.1062 C   0  0  0  0  0  0  0  0  0  0  0  0
    4.9324    0.6178   21.0879 H   0  0  0  0  0  0  0  0  0  0  0  0
    4.8201    1.3160   19.0395 C   0  0  0  0  0  0  0  0  0  0  0  0
    3.8862    1.8523   19.1555 H   0  0  0  0  0  0  0  0  0  0  0  0
  1  2  1  0
  2  3  2  0
  3  4  1  0
  4  5  1  0
  4  6  2  0
  6  7  1  0
  7  8  1  6
  7  9  1  0
  9 10  2  0
  9 11  1  0
 11 12  1  0
 11 13  1  0
 13 14  1  0
 13 15  1  0
 13 16  1  0
 16 17  1  6
 16 18  1  0
 18 19  1  0
 19 20  1  0
 19 21  1  0
 21 22  1  0
 21 23  1  0
 21 24  1  0
 24 25  1  0
 24 26  1  0
 24 27  1  0
 27 28  1  0
 27 29  1  0
 27 30  1  0
 30 31  1  0
 30 32  1  0
  6 33  1  0
 33 34  1  0
 33 35  2  0
 35 36  1  0
 35  2  1  0
 16  7  1  0
 30 19  1  0
M  END
>  <cnnaffinity>  (1) 
-4.89722

>  <filename>  (1) 
O=C1NC[C@@H](OC2CCCC2)[C@@H]1c1cccnc1

$$$$
