
     RDKit          3D

 30 32  0  0  0  0  0  0  0  0999 V2000
    4.9143    1.7797   16.9958 H   0  0  0  0  0  0  0  0  0  0  0  0
    5.4014    1.2945   17.8392 C   0  0  0  0  0  0  0  0  0  0  0  0
    6.5655    0.6766   17.5802 N   0  0  0  0  0  0  0  0  0  0  0  0
    7.1777    0.0623   18.5989 C   0  0  0  0  0  0  0  0  0  0  0  0
    8.1168   -0.4371   18.3747 H   0  0  0  0  0  0  0  0  0  0  0  0
    6.6616    0.0078   19.9052 C   0  0  0  0  0  0  0  0  0  0  0  0
    7.3446   -0.6874   20.9533 N   0  0  0  0  0  0  0  0  0  0  0  0
    6.5546   -1.4177   21.8011 N   0  0  0  0  0  0  0  0  0  0  0  0
    7.1229   -2.0868   22.7711 C   0  0  0  0  0  0  0  0  0  0  0  0
    6.2480   -2.8526   23.7010 C   0  0  0  0  0  0  0  0  0  0  0  0
    6.3652   -2.6897   25.0974 C   0  0  0  0  0  0  0  0  0  0  0  0
    7.1109   -2.0090   25.4972 H   0  0  0  0  0  0  0  0  0  0  0  0
    5.5546   -3.3894   25.9847 C   0  0  0  0  0  0  0  0  0  0  0  0
    5.6353   -3.2454   27.0570 H   0  0  0  0  0  0  0  0  0  0  0  0
    4.6168   -4.2877   25.4723 C   0  0  0  0  0  0  0  0  0  0  0  0
    3.5830   -5.1580   26.5566 Cl  0  0  0  0  0  0  0  0  0  0  0  0
    4.4911   -4.5033   24.1027 C   0  0  0  0  0  0  0  0  0  0  0  0
    3.7603   -5.2019   23.7126 H   0  0  0  0  0  0  0  0  0  0  0  0
    5.3146   -3.7871   23.2297 C   0  0  0  0  0  0  0  0  0  0  0  0
    5.1822   -4.1204   21.5411 Cl  0  0  0  0  0  0  0  0  0  0  0  0
    8.6104   -2.0897   23.0229 C   0  0  0  0  0  0  0  0  0  0  0  0
    9.1657   -2.7083   23.9235 O   0  0  0  0  0  0  0  0  0  0  0  0
    9.3623   -1.2614   22.0873 C   0  0  0  0  0  0  0  0  0  0  0  0
   10.4358   -1.2189   22.2240 H   0  0  0  0  0  0  0  0  0  0  0  0
    8.7187   -0.6115   21.1067 C   0  0  0  0  0  0  0  0  0  0  0  0
    9.2392    0.0294   20.3927 H   0  0  0  0  0  0  0  0  0  0  0  0
    5.4409    0.6461   20.1647 C   0  0  0  0  0  0  0  0  0  0  0  0
    5.0278    0.6013   21.1743 H   0  0  0  0  0  0  0  0  0  0  0  0
    4.8104    1.3127   19.1102 C   0  0  0  0  0  0  0  0  0  0  0  0
    3.8760    1.8429   19.2630 H   0  0  0  0  0  0  0  0  0  0  0  0
  1  2  1  0
  2  3  2  0
  3  4  1  0
  4  5  1  0
  4  6  2  0
  6  7  1  0
  7  8  1  0
  8  9  2  0
  9 10  1  0
 10 11  2  0
 11 12  1  0
 11 13  1  0
 13 14  1  0
 13 15  2  0
 15 16  1  0
 15 17  1  0
 17 18  1  0
 17 19  2  0
 19 20  1  0
  9 21  1  0
 21 22  2  0
 21 23  1  0
 23 24  1  0
 23 25  2  0
 25 26  1  0
  6 27  1  0
 27 28  1  0
 27 29  2  0
 29 30  1  0
 29  2  1  0
 25  7  1  0
 19 10  1  0
M  END
>  <cnnaffinity>  (1) 
-5.30714

>  <filename>  (1) 
O=c1ccn(-c2cccnc2)nc1-c1ccc(Cl)cc1Cl

$$$$
