
     RDKit          3D

 34 36  0  0  0  0  0  0  0  0999 V2000
    5.2118    2.0077   16.9043 H   0  0  0  0  0  0  0  0  0  0  0  0
    5.4775    1.3781   17.7534 C   0  0  0  0  0  0  0  0  0  0  0  0
    6.6253    0.6897   17.6517 N   0  0  0  0  0  0  0  0  0  0  0  0
    6.9992   -0.0681   18.6926 C   0  0  0  0  0  0  0  0  0  0  0  0
    7.9364   -0.6148   18.5906 H   0  0  0  0  0  0  0  0  0  0  0  0
    6.2414   -0.1798   19.8741 C   0  0  0  0  0  0  0  0  0  0  0  0
    6.7274   -0.9005   21.0088 N   0  0  0  0  0  0  0  0  0  0  0  0
    7.4950   -0.2957   22.0355 C   0  0  0  0  0  0  0  0  0  0  0  0
    7.7537    1.4815   22.1951 S   0  0  0  0  0  0  0  0  0  0  0  0
    8.1573    1.9705   20.8939 O   0  0  0  0  0  0  0  0  0  0  0  0
    6.6486    2.0233   22.9636 O   0  0  0  0  0  0  0  0  0  0  0  0
    9.0892    1.5068   23.1585 N   0  0  0  0  0  0  0  0  0  0  0  0
    8.9328    1.4942   24.6208 C   0  0  0  0  0  0  0  0  0  0  0  0
    8.4451    2.4243   24.9422 H   0  0  0  0  0  0  0  0  0  0  0  0
    8.2838    0.6637   24.9321 H   0  0  0  0  0  0  0  0  0  0  0  0
   10.2978    1.3251   25.3137 C   0  0  0  0  0  0  0  0  0  0  0  0
   10.6029    0.2666   25.2916 H   0  0  0  0  0  0  0  0  0  0  0  0
   10.2136    1.6161   26.3585 H   0  0  0  0  0  0  0  0  0  0  0  0
   11.3010    2.1544   24.7659 O   0  0  0  0  0  0  0  0  0  0  0  0
   11.5666    1.9492   23.3862 C   0  0  0  0  0  0  0  0  0  0  0  0
   11.8576    2.9287   22.9955 H   0  0  0  0  0  0  0  0  0  0  0  0
   12.4262    1.2733   23.2645 H   0  0  0  0  0  0  0  0  0  0  0  0
   10.4080    1.3638   22.5331 C   0  0  0  0  0  0  0  0  0  0  0  0
   10.3951    1.8593   21.5581 H   0  0  0  0  0  0  0  0  0  0  0  0
   10.6129    0.3006   22.3436 H   0  0  0  0  0  0  0  0  0  0  0  0
    7.9346   -1.3013   22.8032 C   0  0  0  0  0  0  0  0  0  0  0  0
    8.5337   -1.4027   23.7070 H   0  0  0  0  0  0  0  0  0  0  0  0
    7.4893   -2.5018   22.2948 O   0  0  0  0  0  0  0  0  0  0  0  0
    6.6920   -2.2977   21.1937 C   0  0  0  0  0  0  0  0  0  0  0  0
    6.1060   -3.1426   20.5806 O   0  0  0  0  0  0  0  0  0  0  0  0
    5.0255    0.5049   19.9542 C   0  0  0  0  0  0  0  0  0  0  0  0
    4.4009    0.4216   20.8446 H   0  0  0  0  0  0  0  0  0  0  0  0
    4.6470    1.3150   18.8775 C   0  0  0  0  0  0  0  0  0  0  0  0
    3.7474    1.9209   18.9136 H   0  0  0  0  0  0  0  0  0  0  0  0
  1  2  1  0
  2  3  2  0
  3  4  1  0
  4  5  1  0
  4  6  2  0
  6  7  1  0
  7  8  1  0
  8  9  1  0
  9 10  2  0
  9 11  2  0
  9 12  1  0
 12 13  1  0
 13 14  1  0
 13 15  1  0
 13 16  1  0
 16 17  1  0
 16 18  1  0
 16 19  1  0
 19 20  1  0
 20 21  1  0
 20 22  1  0
 20 23  1  0
 23 24  1  0
 23 25  1  0
  8 26  2  0
 26 27  1  0
 26 28  1  0
 28 29  1  0
 29 30  2  0
  6 31  1  0
 31 32  1  0
 31 33  2  0
 33 34  1  0
 33  2  1  0
 29  7  1  0
 23 12  1  0
M  END
>  <cnnaffinity>  (1) 
-5.02509

>  <filename>  (1) 
O=c1occ(S(=O)(=O)N2CCOCC2)n1-c1cccnc1

$$$$
