
     RDKit          3D

 32 35  0  0  0  0  0  0  0  0999 V2000
    5.0384    2.0929   16.6281 H   0  0  0  0  0  0  0  0  0  0  0  0
    5.4861    1.5395   17.4531 C   0  0  0  0  0  0  0  0  0  0  0  0
    6.6080    0.8574   17.1686 N   0  0  0  0  0  0  0  0  0  0  0  0
    7.1778    0.1597   18.1572 C   0  0  0  0  0  0  0  0  0  0  0  0
    8.0845   -0.3800   17.8833 H   0  0  0  0  0  0  0  0  0  0  0  0
    6.6628    0.0764   19.4630 C   0  0  0  0  0  0  0  0  0  0  0  0
    7.3013   -0.7585   20.4812 C   0  0  0  0  0  0  0  0  0  0  0  0
    6.7445   -1.3702   21.5492 C   0  0  0  0  0  0  0  0  0  0  0  0
    5.7135   -1.4399   21.8464 H   0  0  0  0  0  0  0  0  0  0  0  0
    7.7554   -2.0138   22.2579 N   0  0  0  0  0  0  0  0  0  0  0  0
    7.6437   -2.5938   23.5433 C   0  0  0  0  0  0  0  0  0  0  0  0
    6.9724   -3.7420   23.7798 C   0  0  0  0  0  0  0  0  0  0  0  0
    6.4684   -4.3410   23.0336 H   0  0  0  0  0  0  0  0  0  0  0  0
    7.0255   -4.2504   25.4295 S   0  0  0  0  0  0  0  0  0  0  0  0
    7.9805   -2.8592   25.8643 C   0  0  0  0  0  0  0  0  0  0  0  0
    8.4565   -2.5363   27.1466 C   0  0  0  0  0  0  0  0  0  0  0  0
    8.2376   -3.2112   27.9647 H   0  0  0  0  0  0  0  0  0  0  0  0
    9.2175   -1.3830   27.3064 C   0  0  0  0  0  0  0  0  0  0  0  0
    9.6533   -1.1492   28.2744 H   0  0  0  0  0  0  0  0  0  0  0  0
    9.4851   -0.5406   26.2085 C   0  0  0  0  0  0  0  0  0  0  0  0
   10.0650    0.3686   26.3528 H   0  0  0  0  0  0  0  0  0  0  0  0
    9.0059   -0.8574   24.9439 C   0  0  0  0  0  0  0  0  0  0  0  0
    9.2385   -0.2020   24.1108 H   0  0  0  0  0  0  0  0  0  0  0  0
    8.2543   -2.0407   24.7472 C   0  0  0  0  0  0  0  0  0  0  0  0
    8.9803   -1.8221   21.6117 C   0  0  0  0  0  0  0  0  0  0  0  0
   10.0800   -2.2164   21.9219 O   0  0  0  0  0  0  0  0  0  0  0  0
    8.6563   -1.0616   20.5097 N   0  0  0  0  0  0  0  0  0  0  0  0
    9.4150   -0.7071   19.9543 H   0  0  0  0  0  0  0  0  0  0  0  0
    5.4912    0.8061   19.7443 C   0  0  0  0  0  0  0  0  0  0  0  0
    5.0592    0.7973   20.7483 H   0  0  0  0  0  0  0  0  0  0  0  0
    4.9008    1.5516   18.7239 C   0  0  0  0  0  0  0  0  0  0  0  0
    4.0038    2.1423   18.8845 H   0  0  0  0  0  0  0  0  0  0  0  0
  1  2  1  0
  2  3  2  0
  3  4  1  0
  4  5  1  0
  4  6  2  0
  6  7  1  0
  7  8  2  0
  8  9  1  0
  8 10  1  0
 10 11  1  0
 11 12  2  0
 12 13  1  0
 12 14  1  0
 14 15  1  0
 15 16  2  0
 16 17  1  0
 16 18  1  0
 18 19  1  0
 18 20  2  0
 20 21  1  0
 20 22  1  0
 22 23  1  0
 22 24  2  0
 10 25  1  0
 25 26  2  0
 25 27  1  0
 27 28  1  0
  6 29  1  0
 29 30  1  0
 29 31  2  0
 31 32  1  0
 31  2  1  0
 27  7  1  0
 24 11  1  0
 24 15  1  0
M  END
>  <cnnaffinity>  (1) 
-5.6333

>  <filename>  (1) 
O=c1[nH]c(-c2cccnc2)cn1-c1csc2ccccc12

$$$$
