
     RDKit          3D

 32 34  0  0  0  0  0  0  0  0999 V2000
    4.9301    1.7800   16.9945 H   0  0  0  0  0  0  0  0  0  0  0  0
    5.4092    1.2897   17.8389 C   0  0  0  0  0  0  0  0  0  0  0  0
    6.5702    0.6656   17.5858 N   0  0  0  0  0  0  0  0  0  0  0  0
    7.1669    0.0564   18.6141 C   0  0  0  0  0  0  0  0  0  0  0  0
    8.1171   -0.4269   18.3786 H   0  0  0  0  0  0  0  0  0  0  0  0
    6.6406    0.0038   19.9158 C   0  0  0  0  0  0  0  0  0  0  0  0
    7.3550   -0.6912   21.0130 C   0  0  0  0  0  0  0  0  0  0  0  0
    6.6492   -1.3909   21.8437 N   0  0  0  0  0  0  0  0  0  0  0  0
    7.2803   -2.0317   22.9078 N   0  0  0  0  0  0  0  0  0  0  0  0
    6.4053   -2.5642   23.9158 C   0  0  0  0  0  0  0  0  0  0  0  0
    6.6129   -2.2150   25.2610 C   0  0  0  0  0  0  0  0  0  0  0  0
    7.4437   -1.5685   25.5069 H   0  0  0  0  0  0  0  0  0  0  0  0
    5.7814   -2.6848   26.2783 C   0  0  0  0  0  0  0  0  0  0  0  0
    5.9477   -2.4168   27.3172 H   0  0  0  0  0  0  0  0  0  0  0  0
    4.7262   -3.5316   25.9510 C   0  0  0  0  0  0  0  0  0  0  0  0
    3.6893   -4.1315   27.2053 Cl  0  0  0  0  0  0  0  0  0  0  0  0
    4.4882   -3.9085   24.6311 C   0  0  0  0  0  0  0  0  0  0  0  0
    3.6577   -4.5682   24.3959 H   0  0  0  0  0  0  0  0  0  0  0  0
    5.3243   -3.4201   23.6154 C   0  0  0  0  0  0  0  0  0  0  0  0
    4.9784   -3.9597   22.0101 Cl  0  0  0  0  0  0  0  0  0  0  0  0
    8.6737   -2.2849   22.9877 C   0  0  0  0  0  0  0  0  0  0  0  0
    9.1774   -2.9004   23.9023 O   0  0  0  0  0  0  0  0  0  0  0  0
    9.4707   -1.7456   21.8081 C   0  0  0  0  0  0  0  0  0  0  0  0
    9.5498   -2.5589   21.0754 H   0  0  0  0  0  0  0  0  0  0  0  0
   10.4824   -1.5625   22.1680 H   0  0  0  0  0  0  0  0  0  0  0  0
    8.8408   -0.4954   21.1926 C   0  0  0  0  0  0  0  0  0  0  0  0
    9.3324   -0.2170   20.2526 H   0  0  0  0  0  0  0  0  0  0  0  0
    8.9761    0.3691   21.8570 H   0  0  0  0  0  0  0  0  0  0  0  0
    5.4195    0.6466   20.1620 C   0  0  0  0  0  0  0  0  0  0  0  0
    4.9959    0.6219   21.1666 H   0  0  0  0  0  0  0  0  0  0  0  0
    4.8079    1.3116   19.1032 C   0  0  0  0  0  0  0  0  0  0  0  0
    3.8741    1.8457   19.2513 H   0  0  0  0  0  0  0  0  0  0  0  0
  1  2  1  0
  2  3  2  0
  3  4  1  0
  4  5  1  0
  4  6  2  0
  6  7  1  0
  7  8  2  0
  8  9  1  0
  9 10  1  0
 10 11  2  0
 11 12  1  0
 11 13  1  0
 13 14  1  0
 13 15  2  0
 15 16  1  0
 15 17  1  0
 17 18  1  0
 17 19  2  0
 19 20  1  0
  9 21  1  0
 21 22  2  0
 21 23  1  0
 23 24  1  0
 23 25  1  0
 23 26  1  0
 26 27  1  0
 26 28  1  0
  6 29  1  0
 29 30  1  0
 29 31  2  0
 31 32  1  0
 31  2  1  0
 26  7  1  0
 19 10  1  0
M  END
>  <cnnaffinity>  (1) 
-5.15748

>  <filename>  (1) 
O=C1CCC(c2cccnc2)=NN1c1ccc(Cl)cc1Cl

$$$$
