
     RDKit          3D

 41 44  0  0  0  0  0  0  0  0999 V2000
    8.4131    1.8880   26.9530 O   0  0  0  0  0  0  0  0  0  0  0  0
    8.6664    1.9139   25.7611 C   0  0  0  0  0  0  0  0  0  0  0  0
    9.9574    2.1075   25.1202 C   0  0  0  0  0  0  0  0  0  0  0  0
   10.0452    2.2004   23.7603 C   0  0  0  0  0  0  0  0  0  0  0  0
    8.8848    2.0595   22.9223 C   0  0  0  0  0  0  0  0  0  0  0  0
    9.0356    2.0056   21.4208 C   0  0  0  0  0  0  0  0  0  0  0  0
    9.5274    0.6095   20.9456 C   0  0  0  0  0  0  0  0  0  0  0  0
    8.6464   -0.5078   21.4051 C   0  0  0  0  0  0  0  0  0  0  0  0
    8.8616   -1.3294   22.4187 N   0  0  0  0  0  0  0  0  0  0  0  0
    7.6528   -1.9203   22.5955 C   0  0  0  0  0  0  0  0  0  0  0  0
    7.3783   -2.8089   23.7651 C   0  0  0  0  0  0  0  0  0  0  0  0
    6.4603   -2.1470   24.8476 C   0  0  0  0  0  0  0  0  0  0  0  0
    5.1863   -3.4357   24.6320 S   0  0  0  0  0  0  0  0  0  0  0  0
    6.4582   -4.0209   23.4602 C   0  0  0  0  0  0  0  0  0  0  0  0
    6.8801   -4.9922   23.7348 H   0  0  0  0  0  0  0  0  0  0  0  0
    6.0955   -4.0705   22.4272 H   0  0  0  0  0  0  0  0  0  0  0  0
    6.1109   -1.1352   24.6036 H   0  0  0  0  0  0  0  0  0  0  0  0
    6.8847   -2.1256   25.8571 H   0  0  0  0  0  0  0  0  0  0  0  0
    8.3553   -3.0929   24.1664 H   0  0  0  0  0  0  0  0  0  0  0  0
    6.7233   -1.5573   21.7346 N   0  0  0  0  0  0  0  0  0  0  0  0
    7.3692   -0.6607   20.9469 N   0  0  0  0  0  0  0  0  0  0  0  0
    6.6656    0.0048   19.9052 C   0  0  0  0  0  0  0  0  0  0  0  0
    5.4462    0.6384   20.1644 C   0  0  0  0  0  0  0  0  0  0  0  0
    4.8143    1.3070   19.1117 C   0  0  0  0  0  0  0  0  0  0  0  0
    5.4004    1.2936   17.8414 C   0  0  0  0  0  0  0  0  0  0  0  0
    6.5572    0.6668   17.5807 N   0  0  0  0  0  0  0  0  0  0  0  0
    7.1698    0.0454   18.5943 C   0  0  0  0  0  0  0  0  0  0  0  0
    8.1142   -0.4445   18.3602 H   0  0  0  0  0  0  0  0  0  0  0  0
    4.9270    1.7930   16.9986 H   0  0  0  0  0  0  0  0  0  0  0  0
    3.8816    1.8372   19.2626 H   0  0  0  0  0  0  0  0  0  0  0  0
    5.0129    0.5982   21.1642 H   0  0  0  0  0  0  0  0  0  0  0  0
   10.5322    0.4062   21.3264 H   0  0  0  0  0  0  0  0  0  0  0  0
    9.5764    0.5959   19.8569 H   0  0  0  0  0  0  0  0  0  0  0  0
    8.0851    2.2490   20.9227 H   0  0  0  0  0  0  0  0  0  0  0  0
    9.7587    2.7625   21.0999 H   0  0  0  0  0  0  0  0  0  0  0  0
    7.6839    1.8041   23.5231 C   0  0  0  0  0  0  0  0  0  0  0  0
    7.6028    1.7323   24.8859 N   0  0  0  0  0  0  0  0  0  0  0  0
    6.7687    1.6024   25.4391 H   0  0  0  0  0  0  0  0  0  0  0  0
    6.7714    1.6300   22.9589 H   0  0  0  0  0  0  0  0  0  0  0  0
   11.0150    2.3588   23.2858 H   0  0  0  0  0  0  0  0  0  0  0  0
   10.8126    2.1072   25.7760 H   0  0  0  0  0  0  0  0  0  0  0  0
  1  2  2  0
  2  3  1  0
  3  4  2  0
  4  5  1  0
  5  6  1  0
  6  7  1  0
  7  8  1  0
  8  9  2  0
  9 10  1  0
 10 11  1  0
 11 12  1  0
 12 13  1  0
 13 14  1  0
 14 15  1  0
 14 16  1  0
 12 17  1  0
 12 18  1  0
 11 19  1  0
 10 20  2  0
 20 21  1  0
 21 22  1  0
 22 23  2  0
 23 24  1  0
 24 25  2  0
 25 26  1  0
 26 27  2  0
 27 28  1  0
 25 29  1  0
 24 30  1  0
 23 31  1  0
  7 32  1  0
  7 33  1  0
  6 34  1  0
  6 35  1  0
  5 36  2  0
 36 37  1  0
 37 38  1  0
 36 39  1  0
  4 40  1  0
  3 41  1  0
 37  2  1  0
 21  8  1  0
 27 22  1  0
 14 11  1  0
M  END
>  <cnnaffinity>  (1) 
-5.93877

>  <filename>  (1) 
O=c1ccc(CCc2nc(C3CSC3)nn2-c2cccnc2)c[nH]1

$$$$
