
     RDKit          3D

 33 35  0  0  0  0  0  0  0  0999 V2000
    4.9413    1.8079   16.9333 H   0  0  0  0  0  0  0  0  0  0  0  0
    5.3938    1.2952   17.7783 C   0  0  0  0  0  0  0  0  0  0  0  0
    6.5545    0.6630   17.5438 N   0  0  0  0  0  0  0  0  0  0  0  0
    7.1367    0.0513   18.5862 C   0  0  0  0  0  0  0  0  0  0  0  0
    8.0944   -0.4257   18.3651 H   0  0  0  0  0  0  0  0  0  0  0  0
    6.6104    0.0374   19.8966 C   0  0  0  0  0  0  0  0  0  0  0  0
    7.3092   -0.6633   21.0322 C   0  0  0  0  0  0  0  0  0  0  0  0
    7.5143   -2.0816   20.9154 C   0  0  0  0  0  0  0  0  0  0  0  0
    7.0650   -2.5947   20.0664 H   0  0  0  0  0  0  0  0  0  0  0  0
    8.2153   -2.8005   21.8394 C   0  0  0  0  0  0  0  0  0  0  0  0
    8.4133   -3.8558   21.7689 H   0  0  0  0  0  0  0  0  0  0  0  0
    8.7634   -2.1622   23.0221 C   0  0  0  0  0  0  0  0  0  0  0  0
    9.4045   -2.6940   23.9119 O   0  0  0  0  0  0  0  0  0  0  0  0
    8.4843   -0.8037   23.1138 N   0  0  0  0  0  0  0  0  0  0  0  0
    8.9227   -0.4497   23.9548 H   0  0  0  0  0  0  0  0  0  0  0  0
    7.8205   -0.0349   22.1641 C   0  0  0  0  0  0  0  0  0  0  0  0
    7.7244    1.4578   22.3766 C   0  0  0  0  0  0  0  0  0  0  0  0
    6.5847    1.8667   22.9494 N   0  0  0  0  0  0  0  0  0  0  0  0
    6.3991    3.1822   23.1018 C   0  0  0  0  0  0  0  0  0  0  0  0
    5.4441    3.4638   23.5254 H   0  0  0  0  0  0  0  0  0  0  0  0
    7.3465    4.1457   22.7618 C   0  0  0  0  0  0  0  0  0  0  0  0
    7.0898    5.1939   22.8656 H   0  0  0  0  0  0  0  0  0  0  0  0
    8.5740    3.7253   22.2516 C   0  0  0  0  0  0  0  0  0  0  0  0
    9.3618    4.4500   22.0620 H   0  0  0  0  0  0  0  0  0  0  0  0
    8.7503    2.3591   22.0108 C   0  0  0  0  0  0  0  0  0  0  0  0
    9.9764    1.7261   21.4033 C   0  0  0  0  0  0  0  0  0  0  0  0
   10.8650    2.5747   20.8752 F   0  0  0  0  0  0  0  0  0  0  0  0
    9.6235    0.8566   20.4280 F   0  0  0  0  0  0  0  0  0  0  0  0
   10.6317    0.9973   22.3314 F   0  0  0  0  0  0  0  0  0  0  0  0
    5.3796    0.6761   20.0986 C   0  0  0  0  0  0  0  0  0  0  0  0
    4.9469    0.6880   21.0995 H   0  0  0  0  0  0  0  0  0  0  0  0
    4.7636    1.3188   19.0249 C   0  0  0  0  0  0  0  0  0  0  0  0
    3.8273    1.8498   19.1541 H   0  0  0  0  0  0  0  0  0  0  0  0
  1  2  1  0
  2  3  2  0
  3  4  1  0
  4  5  1  0
  4  6  2  0
  6  7  1  0
  7  8  1  0
  8  9  1  0
  8 10  2  0
 10 11  1  0
 10 12  1  0
 12 13  2  0
 12 14  1  0
 14 15  1  0
 14 16  1  0
 16 17  1  0
 17 18  2  0
 18 19  1  0
 19 20  1  0
 19 21  2  0
 21 22  1  0
 21 23  1  0
 23 24  1  0
 23 25  2  0
 25 26  1  0
 26 27  1  0
 26 28  1  0
 26 29  1  0
  6 30  1  0
 30 31  1  0
 30 32  2  0
 32 33  1  0
 32  2  1  0
 16  7  2  0
 25 17  1  0
M  END
>  <cnnaffinity>  (1) 
-5.14377

>  <filename>  (1) 
O=c1ccc(-c2cccnc2)c(-c2ncccc2C(F)(F)F)[nH]1

$$$$
