
     RDKit          3D

 27 29  0  0  0  0  0  0  0  0999 V2000
    4.9247    1.8229   16.9525 H   0  0  0  0  0  0  0  0  0  0  0  0
    5.3774    1.3266   17.8073 C   0  0  0  0  0  0  0  0  0  0  0  0
    6.5430    0.7039   17.5723 N   0  0  0  0  0  0  0  0  0  0  0  0
    7.1401    0.1042   18.6042 C   0  0  0  0  0  0  0  0  0  0  0  0
    8.0692   -0.4337   18.4087 H   0  0  0  0  0  0  0  0  0  0  0  0
    6.6270    0.1222   19.9069 C   0  0  0  0  0  0  0  0  0  0  0  0
    7.3804   -0.5901   20.9547 C   0  0  0  0  0  0  0  0  0  0  0  0
    8.0322   -1.6392   20.5417 N   0  0  0  0  0  0  0  0  0  0  0  0
    8.5395   -2.4581   21.4974 C   0  0  0  0  0  0  0  0  0  0  0  0
    8.8114   -3.6239   21.3393 O   0  0  0  0  0  0  0  0  0  0  0  0
    8.7595   -1.9253   22.7866 N   0  0  0  0  0  0  0  0  0  0  0  0
    9.1283   -2.7084   23.3002 H   0  0  0  0  0  0  0  0  0  0  0  0
    8.0419   -0.8449   23.2804 C   0  0  0  0  0  0  0  0  0  0  0  0
    8.0345   -0.4248   24.7230 C   0  0  0  0  0  0  0  0  0  0  0  0
    7.2825    0.5355   25.2327 N   0  0  0  0  0  0  0  0  0  0  0  0
    7.6081    0.6033   26.5564 C   0  0  0  0  0  0  0  0  0  0  0  0
    7.1514    1.3125   27.2316 H   0  0  0  0  0  0  0  0  0  0  0  0
    8.5642   -0.3162   26.8667 C   0  0  0  0  0  0  0  0  0  0  0  0
    9.0751   -0.5284   27.7947 H   0  0  0  0  0  0  0  0  0  0  0  0
    8.8281   -0.9752   25.6963 N   0  0  0  0  0  0  0  0  0  0  0  0
    9.5225   -1.6916   25.5613 H   0  0  0  0  0  0  0  0  0  0  0  0
    7.3473   -0.1550   22.3151 C   0  0  0  0  0  0  0  0  0  0  0  0
    6.7824    0.7270   22.5740 H   0  0  0  0  0  0  0  0  0  0  0  0
    5.3896    0.7352   20.1317 C   0  0  0  0  0  0  0  0  0  0  0  0
    4.9312    0.6899   21.1205 H   0  0  0  0  0  0  0  0  0  0  0  0
    4.7551    1.3549   19.0592 C   0  0  0  0  0  0  0  0  0  0  0  0
    3.8111    1.8724   19.1836 H   0  0  0  0  0  0  0  0  0  0  0  0
  1  2  1  0
  2  3  2  0
  3  4  1  0
  4  5  1  0
  4  6  2  0
  6  7  1  0
  7  8  2  0
  8  9  1  0
  9 10  2  0
  9 11  1  0
 11 12  1  0
 11 13  1  0
 13 14  1  0
 14 15  2  0
 15 16  1  0
 16 17  1  0
 16 18  2  0
 18 19  1  0
 18 20  1  0
 20 21  1  0
 13 22  2  0
 22 23  1  0
  6 24  1  0
 24 25  1  0
 24 26  2  0
 26 27  1  0
 26  2  1  0
 22  7  1  0
 20 14  1  0
M  END
>  <cnnaffinity>  (1) 
-4.9584

>  <filename>  (1) 
O=c1nc(-c2cccnc2)cc(-c2ncc[nH]2)[nH]1

$$$$
