
     RDKit          3D

 36 39  0  0  0  0  0  0  0  0999 V2000
    4.9210    1.8091   16.9719 H   0  0  0  0  0  0  0  0  0  0  0  0
    5.3990    1.3126   17.8142 C   0  0  0  0  0  0  0  0  0  0  0  0
    6.5639    0.6979   17.5517 N   0  0  0  0  0  0  0  0  0  0  0  0
    7.1827    0.0830   18.5676 C   0  0  0  0  0  0  0  0  0  0  0  0
    8.1191   -0.4188   18.3345 H   0  0  0  0  0  0  0  0  0  0  0  0
    6.6656    0.0210   19.8765 C   0  0  0  0  0  0  0  0  0  0  0  0
    7.3408   -0.6971   20.9295 N   0  0  0  0  0  0  0  0  0  0  0  0
    8.6164   -0.3048   21.2683 C   0  0  0  0  0  0  0  0  0  0  0  0
    9.0065    0.5456   20.7161 H   0  0  0  0  0  0  0  0  0  0  0  0
    9.3375   -0.9049   22.2632 C   0  0  0  0  0  0  0  0  0  0  0  0
   10.7121   -0.4476   22.5871 C   0  0  0  0  0  0  0  0  0  0  0  0
   11.7804   -1.3043   22.4008 C   0  0  0  0  0  0  0  0  0  0  0  0
   11.5670   -2.3252   22.1001 H   0  0  0  0  0  0  0  0  0  0  0  0
   13.1264   -0.9012   22.6199 C   0  0  0  0  0  0  0  0  0  0  0  0
   13.9334   -1.6158   22.4540 H   0  0  0  0  0  0  0  0  0  0  0  0
   13.3895    0.3581   23.1065 C   0  0  0  0  0  0  0  0  0  0  0  0
   14.3828    0.7165   23.3625 H   0  0  0  0  0  0  0  0  0  0  0  0
   12.3226    1.2729   23.3290 C   0  0  0  0  0  0  0  0  0  0  0  0
   12.6733    2.5172   23.7807 N   0  0  0  0  0  0  0  0  0  0  0  0
   11.7158    3.3887   23.9750 C   0  0  0  0  0  0  0  0  0  0  0  0
   12.0280    4.3757   24.3178 H   0  0  0  0  0  0  0  0  0  0  0  0
   10.3354    3.1138   23.7754 C   0  0  0  0  0  0  0  0  0  0  0  0
    9.6111    3.8983   23.9622 H   0  0  0  0  0  0  0  0  0  0  0  0
    9.9607    1.8651   23.3430 C   0  0  0  0  0  0  0  0  0  0  0  0
    8.9121    1.6057   23.1920 H   0  0  0  0  0  0  0  0  0  0  0  0
   10.9671    0.8827   23.0774 C   0  0  0  0  0  0  0  0  0  0  0  0
    8.7442   -2.0006   22.9628 C   0  0  0  0  0  0  0  0  0  0  0  0
    9.3209   -2.4748   23.7589 H   0  0  0  0  0  0  0  0  0  0  0  0
    7.4817   -2.4040   22.6620 C   0  0  0  0  0  0  0  0  0  0  0  0
    6.9664   -3.2162   23.1493 H   0  0  0  0  0  0  0  0  0  0  0  0
    6.6911   -1.7899   21.6046 C   0  0  0  0  0  0  0  0  0  0  0  0
    5.5857   -2.1884   21.2839 O   0  0  0  0  0  0  0  0  0  0  0  0
    5.4509    0.6627   20.1358 C   0  0  0  0  0  0  0  0  0  0  0  0
    5.0294    0.6051   21.1388 H   0  0  0  0  0  0  0  0  0  0  0  0
    4.8101    1.3276   19.0839 C   0  0  0  0  0  0  0  0  0  0  0  0
    3.8677    1.8443   19.2348 H   0  0  0  0  0  0  0  0  0  0  0  0
  1  2  1  0
  2  3  2  0
  3  4  1  0
  4  5  1  0
  4  6  2  0
  6  7  1  0
  7  8  1  0
  8  9  1  0
  8 10  2  0
 10 11  1  0
 11 12  2  0
 12 13  1  0
 12 14  1  0
 14 15  1  0
 14 16  2  0
 16 17  1  0
 16 18  1  0
 18 19  2  0
 19 20  1  0
 20 21  1  0
 20 22  2  0
 22 23  1  0
 22 24  1  0
 24 25  1  0
 24 26  2  0
 10 27  1  0
 27 28  1  0
 27 29  2  0
 29 30  1  0
 29 31  1  0
 31 32  2  0
  6 33  1  0
 33 34  1  0
 33 35  2  0
 35 36  1  0
 35  2  1  0
 31  7  1  0
 26 11  1  0
 26 18  1  0
M  END
>  <cnnaffinity>  (1) 
-6.06599

>  <filename>  (1) 
O=c1ccc(-c2cccc3ncccc23)cn1-c1cccnc1

$$$$
