
     RDKit          3D

 30 32  0  0  0  0  0  0  0  0999 V2000
    4.9128    1.7739   17.0020 H   0  0  0  0  0  0  0  0  0  0  0  0
    5.4044    1.2901   17.8439 C   0  0  0  0  0  0  0  0  0  0  0  0
    6.5697    0.6763   17.5831 N   0  0  0  0  0  0  0  0  0  0  0  0
    7.1796    0.0646   18.6080 C   0  0  0  0  0  0  0  0  0  0  0  0
    8.1206   -0.4312   18.3705 H   0  0  0  0  0  0  0  0  0  0  0  0
    6.6599   -0.0007   19.9151 C   0  0  0  0  0  0  0  0  0  0  0  0
    7.4041   -0.7182   20.9883 C   0  0  0  0  0  0  0  0  0  0  0  0
    6.3979   -1.6332   22.1046 S   0  0  0  0  0  0  0  0  0  0  0  0
    7.5545   -2.3417   23.2047 C   0  0  0  0  0  0  0  0  0  0  0  0
    6.9512   -3.1585   24.3493 C   0  0  0  0  0  0  0  0  0  0  0  0
    6.0160   -3.6296   24.0280 H   0  0  0  0  0  0  0  0  0  0  0  0
    7.6424   -3.9648   24.6256 H   0  0  0  0  0  0  0  0  0  0  0  0
    6.6786   -2.2756   25.5473 C   0  0  0  0  0  0  0  0  0  0  0  0
    7.8601   -1.9850   26.7829 S   0  0  0  0  0  0  0  0  0  0  0  0
    6.8214   -0.8707   27.5912 C   0  0  0  0  0  0  0  0  0  0  0  0
    7.1328   -0.3697   28.4969 H   0  0  0  0  0  0  0  0  0  0  0  0
    5.6359   -0.7260   26.9412 C   0  0  0  0  0  0  0  0  0  0  0  0
    4.8364   -0.0720   27.2694 H   0  0  0  0  0  0  0  0  0  0  0  0
    5.5580   -1.5298   25.7660 C   0  0  0  0  0  0  0  0  0  0  0  0
    4.7034   -1.5330   25.0982 H   0  0  0  0  0  0  0  0  0  0  0  0
    8.8812   -2.1269   23.1262 C   0  0  0  0  0  0  0  0  0  0  0  0
    9.5639   -2.5637   23.8506 H   0  0  0  0  0  0  0  0  0  0  0  0
    9.5595   -1.3072   22.1100 C   0  0  0  0  0  0  0  0  0  0  0  0
   10.7727   -1.1811   22.1198 O   0  0  0  0  0  0  0  0  0  0  0  0
    8.7464   -0.6493   21.0788 C   0  0  0  0  0  0  0  0  0  0  0  0
    9.3321   -0.0513   20.3885 H   0  0  0  0  0  0  0  0  0  0  0  0
    5.4388    0.6502   20.1601 C   0  0  0  0  0  0  0  0  0  0  0  0
    5.0106    0.6307   21.1634 H   0  0  0  0  0  0  0  0  0  0  0  0
    4.8054    1.3128   19.1089 C   0  0  0  0  0  0  0  0  0  0  0  0
    3.8732    1.8451   19.2642 H   0  0  0  0  0  0  0  0  0  0  0  0
  1  2  1  0
  2  3  2  0
  3  4  1  0
  4  5  1  0
  4  6  2  0
  6  7  1  0
  7  8  1  0
  8  9  1  0
  9 10  1  0
 10 11  1  0
 10 12  1  0
 10 13  1  0
 13 14  1  0
 14 15  1  0
 15 16  1  0
 15 17  2  0
 17 18  1  0
 17 19  1  0
 19 20  1  0
  9 21  2  0
 21 22  1  0
 21 23  1  0
 23 24  2  0
 23 25  1  0
 25 26  1  0
  6 27  1  0
 27 28  1  0
 27 29  2  0
 29 30  1  0
 29  2  1  0
 25  7  2  0
 19 13  2  0
M  END
>  <cnnaffinity>  (1) 
-5.33039

>  <filename>  (1) 
O=c1cc(Cc2cccs2)sc(-c2cccnc2)c1

$$$$
