
     RDKit          3D

 49 52  0  0  0  0  0  0  0  0999 V2000
    6.3982    1.4670   25.2977 O   0  0  0  0  0  0  0  0  0  0  0  0
    7.5298    1.7224   24.9151 C   0  0  0  0  0  0  0  0  0  0  0  0
    8.7110    1.8952   25.7438 C   0  0  0  0  0  0  0  0  0  0  0  0
    9.9363    2.0852   25.1576 C   0  0  0  0  0  0  0  0  0  0  0  0
   10.0604    2.2120   23.7471 C   0  0  0  0  0  0  0  0  0  0  0  0
    8.9578    2.0802   22.9447 C   0  0  0  0  0  0  0  0  0  0  0  0
    9.0356    2.0138   21.4501 C   0  0  0  0  0  0  0  0  0  0  0  0
    9.5222    0.6193   20.9521 C   0  0  0  0  0  0  0  0  0  0  0  0
    8.6401   -0.4967   21.4046 C   0  0  0  0  0  0  0  0  0  0  0  0
    8.8673   -1.3256   22.4067 N   0  0  0  0  0  0  0  0  0  0  0  0
    7.6615   -1.9267   22.5858 C   0  0  0  0  0  0  0  0  0  0  0  0
    7.3873   -2.8266   23.7541 C   0  0  0  0  0  0  0  0  0  0  0  0
    6.5644   -4.0682   23.3437 C   0  0  0  0  0  0  0  0  0  0  0  0
    6.3856   -5.0481   24.5277 C   0  0  0  0  0  0  0  0  0  0  0  0
    6.3649   -4.3610   25.8990 C   0  0  0  0  0  0  0  0  0  0  0  0
    5.5929   -5.0917   26.7637 F   0  0  0  0  0  0  0  0  0  0  0  0
    7.6385   -4.3582   26.4243 F   0  0  0  0  0  0  0  0  0  0  0  0
    5.8528   -2.9309   25.8554 C   0  0  0  0  0  0  0  0  0  0  0  0
    6.6995   -2.0315   24.9209 C   0  0  0  0  0  0  0  0  0  0  0  0
    6.0492   -1.2386   24.5230 H   0  0  0  0  0  0  0  0  0  0  0  0
    7.4910   -1.5310   25.4938 H   0  0  0  0  0  0  0  0  0  0  0  0
    5.8275   -2.5448   26.8799 H   0  0  0  0  0  0  0  0  0  0  0  0
    4.8156   -2.9816   25.4995 H   0  0  0  0  0  0  0  0  0  0  0  0
    5.4476   -5.6032   24.4144 H   0  0  0  0  0  0  0  0  0  0  0  0
    7.1984   -5.7816   24.5681 H   0  0  0  0  0  0  0  0  0  0  0  0
    5.5867   -3.7210   22.9752 H   0  0  0  0  0  0  0  0  0  0  0  0
    7.0467   -4.5764   22.5002 H   0  0  0  0  0  0  0  0  0  0  0  0
    8.3779   -3.1426   24.1027 H   0  0  0  0  0  0  0  0  0  0  0  0
    6.7241   -1.5580   21.7293 N   0  0  0  0  0  0  0  0  0  0  0  0
    7.3632   -0.6490   20.9532 N   0  0  0  0  0  0  0  0  0  0  0  0
    6.6631    0.0088   19.9050 C   0  0  0  0  0  0  0  0  0  0  0  0
    5.4422    0.6407   20.1638 C   0  0  0  0  0  0  0  0  0  0  0  0
    4.8121    1.3091   19.1096 C   0  0  0  0  0  0  0  0  0  0  0  0
    5.4005    1.2946   17.8404 C   0  0  0  0  0  0  0  0  0  0  0  0
    6.5555    0.6646   17.5803 N   0  0  0  0  0  0  0  0  0  0  0  0
    7.1684    0.0448   18.5941 C   0  0  0  0  0  0  0  0  0  0  0  0
    8.1113   -0.4456   18.3577 H   0  0  0  0  0  0  0  0  0  0  0  0
    4.9299    1.7968   16.9972 H   0  0  0  0  0  0  0  0  0  0  0  0
    3.8792    1.8400   19.2596 H   0  0  0  0  0  0  0  0  0  0  0  0
    5.0084    0.5951   21.1636 H   0  0  0  0  0  0  0  0  0  0  0  0
    9.5619    0.6122   19.8635 H   0  0  0  0  0  0  0  0  0  0  0  0
   10.5290    0.4026   21.3210 H   0  0  0  0  0  0  0  0  0  0  0  0
    9.7487    2.7697   21.1114 H   0  0  0  0  0  0  0  0  0  0  0  0
    8.0675    2.2613   20.9988 H   0  0  0  0  0  0  0  0  0  0  0  0
    7.7436    1.8430   23.5496 N   0  0  0  0  0  0  0  0  0  0  0  0
    6.9007    1.5922   23.0535 H   0  0  0  0  0  0  0  0  0  0  0  0
   11.0294    2.3747   23.2853 H   0  0  0  0  0  0  0  0  0  0  0  0
   10.8431    2.0936   25.7570 H   0  0  0  0  0  0  0  0  0  0  0  0
    8.5478    1.8316   26.8117 H   0  0  0  0  0  0  0  0  0  0  0  0
  1  2  2  0
  2  3  1  0
  3  4  2  0
  4  5  1  0
  5  6  2  0
  6  7  1  0
  7  8  1  0
  8  9  1  0
  9 10  2  0
 10 11  1  0
 11 12  1  0
 12 13  1  0
 13 14  1  0
 14 15  1  0
 15 16  1  0
 15 17  1  0
 15 18  1  0
 18 19  1  0
 19 20  1  0
 19 21  1  0
 18 22  1  0
 18 23  1  0
 14 24  1  0
 14 25  1  0
 13 26  1  0
 13 27  1  0
 12 28  1  0
 11 29  2  0
 29 30  1  0
 30 31  1  0
 31 32  2  0
 32 33  1  0
 33 34  2  0
 34 35  1  0
 35 36  2  0
 36 37  1  0
 34 38  1  0
 33 39  1  0
 32 40  1  0
  8 41  1  0
  8 42  1  0
  7 43  1  0
  7 44  1  0
  6 45  1  0
 45 46  1  0
  5 47  1  0
  4 48  1  0
  3 49  1  0
 45  2  1  0
 30  9  1  0
 36 31  1  0
 19 12  1  0
M  END
>  <cnnaffinity>  (1) 
-6.24088

>  <filename>  (1) 
O=c1cccc(CCc2nc(C3CCC(F)(F)CC3)nn2-c2cccnc2)[nH]1

$$$$
