
     RDKit          3D

 31 33  0  0  0  0  0  0  0  0999 V2000
    4.9228    1.8176   16.9580 H   0  0  0  0  0  0  0  0  0  0  0  0
    5.3869    1.3104   17.8001 C   0  0  0  0  0  0  0  0  0  0  0  0
    6.5462    0.6816   17.5489 N   0  0  0  0  0  0  0  0  0  0  0  0
    7.1456    0.0712   18.5783 C   0  0  0  0  0  0  0  0  0  0  0  0
    8.0881   -0.4247   18.3440 H   0  0  0  0  0  0  0  0  0  0  0  0
    6.6421    0.0545   19.8946 C   0  0  0  0  0  0  0  0  0  0  0  0
    7.3454   -0.6537   21.0116 C   0  0  0  0  0  0  0  0  0  0  0  0
    7.5770   -2.0664   20.8816 C   0  0  0  0  0  0  0  0  0  0  0  0
    7.1461   -2.5588   20.0100 H   0  0  0  0  0  0  0  0  0  0  0  0
    8.2292   -2.7767   21.8393 C   0  0  0  0  0  0  0  0  0  0  0  0
    8.4976   -3.8188   21.7496 H   0  0  0  0  0  0  0  0  0  0  0  0
    8.6316   -2.1444   23.0813 C   0  0  0  0  0  0  0  0  0  0  0  0
    9.2090   -2.6778   24.0090 O   0  0  0  0  0  0  0  0  0  0  0  0
    8.2924   -0.8093   23.1869 N   0  0  0  0  0  0  0  0  0  0  0  0
    8.6093   -0.4523   24.0748 H   0  0  0  0  0  0  0  0  0  0  0  0
    7.7303   -0.0324   22.1932 C   0  0  0  0  0  0  0  0  0  0  0  0
    7.5523    1.4059   22.4789 C   0  0  0  0  0  0  0  0  0  0  0  0
    8.0559    2.3757   21.5950 C   0  0  0  0  0  0  0  0  0  0  0  0
    8.5448    2.0610   20.6759 H   0  0  0  0  0  0  0  0  0  0  0  0
    7.8783    3.7275   21.8728 C   0  0  0  0  0  0  0  0  0  0  0  0
    8.3065    4.4896   21.2356 H   0  0  0  0  0  0  0  0  0  0  0  0
    7.1164    4.1363   22.9701 C   0  0  0  0  0  0  0  0  0  0  0  0
    6.8192    5.8287   23.1794 Cl  0  0  0  0  0  0  0  0  0  0  0  0
    6.5915    3.1727   23.8467 C   0  0  0  0  0  0  0  0  0  0  0  0
    5.6603    3.6221   25.2333 Cl  0  0  0  0  0  0  0  0  0  0  0  0
    6.8303    1.8186   23.6115 C   0  0  0  0  0  0  0  0  0  0  0  0
    6.4247    1.0768   24.2943 H   0  0  0  0  0  0  0  0  0  0  0  0
    5.4222    0.7097   20.1269 C   0  0  0  0  0  0  0  0  0  0  0  0
    5.0003    0.7052   21.1352 H   0  0  0  0  0  0  0  0  0  0  0  0
    4.7788    1.3380   19.0596 C   0  0  0  0  0  0  0  0  0  0  0  0
    3.8350    1.8573   19.1939 H   0  0  0  0  0  0  0  0  0  0  0  0
  1  2  1  0
  2  3  2  0
  3  4  1  0
  4  5  1  0
  4  6  2  0
  6  7  1  0
  7  8  1  0
  8  9  1  0
  8 10  2  0
 10 11  1  0
 10 12  1  0
 12 13  2  0
 12 14  1  0
 14 15  1  0
 14 16  1  0
 16 17  1  0
 17 18  2  0
 18 19  1  0
 18 20  1  0
 20 21  1  0
 20 22  2  0
 22 23  1  0
 22 24  1  0
 24 25  1  0
 24 26  2  0
 26 27  1  0
  6 28  1  0
 28 29  1  0
 28 30  2  0
 30 31  1  0
 30  2  1  0
 16  7  2  0
 26 17  1  0
M  END
>  <cnnaffinity>  (1) 
-5.0691

>  <filename>  (1) 
O=c1ccc(-c2cccnc2)c(-c2ccc(Cl)c(Cl)c2)[nH]1

$$$$
