
     RDKit          3D

 36 39  0  0  0  0  0  0  0  0999 V2000
    4.8932    1.8010   16.8742 H   0  0  0  0  0  0  0  0  0  0  0  0
    5.3476    1.3901   17.7716 C   0  0  0  0  0  0  0  0  0  0  0  0
    6.5589    0.8394   17.6068 N   0  0  0  0  0  0  0  0  0  0  0  0
    7.1493    0.3334   18.6946 C   0  0  0  0  0  0  0  0  0  0  0  0
    8.1383   -0.0900   18.5189 H   0  0  0  0  0  0  0  0  0  0  0  0
    6.5827    0.3464   19.9892 C   0  0  0  0  0  0  0  0  0  0  0  0
    7.2498   -0.4214   21.0827 C   0  0  0  0  0  0  0  0  0  0  0  0
    7.5275    0.3900   22.6114 S   0  0  0  0  0  0  0  0  0  0  0  0
    8.2306   -0.8893   23.5925 C   0  0  0  0  0  0  0  0  0  0  0  0
    8.4286   -0.5596   25.0312 C   0  0  0  0  0  0  0  0  0  0  0  0
    9.7140   -0.3997   25.5255 C   0  0  0  0  0  0  0  0  0  0  0  0
   10.5608   -0.4138   24.8448 H   0  0  0  0  0  0  0  0  0  0  0  0
    9.9458   -0.2066   26.9096 C   0  0  0  0  0  0  0  0  0  0  0  0
   10.9646   -0.0975   27.2655 H   0  0  0  0  0  0  0  0  0  0  0  0
    8.8938   -0.1194   27.7922 C   0  0  0  0  0  0  0  0  0  0  0  0
    9.0808    0.0335   28.8539 H   0  0  0  0  0  0  0  0  0  0  0  0
    7.5499   -0.2242   27.3287 C   0  0  0  0  0  0  0  0  0  0  0  0
    6.4384   -0.0572   28.2092 C   0  0  0  0  0  0  0  0  0  0  0  0
    6.6385    0.2275   29.2410 H   0  0  0  0  0  0  0  0  0  0  0  0
    5.1534   -0.2571   27.7618 C   0  0  0  0  0  0  0  0  0  0  0  0
    4.3167   -0.1222   28.4428 H   0  0  0  0  0  0  0  0  0  0  0  0
    4.9117   -0.6551   26.4204 C   0  0  0  0  0  0  0  0  0  0  0  0
    3.8957   -0.8645   26.0934 H   0  0  0  0  0  0  0  0  0  0  0  0
    5.9643   -0.7788   25.5363 C   0  0  0  0  0  0  0  0  0  0  0  0
    5.8046   -1.0843   24.5066 H   0  0  0  0  0  0  0  0  0  0  0  0
    7.3078   -0.5113   25.9439 C   0  0  0  0  0  0  0  0  0  0  0  0
    8.5944   -2.1041   23.1177 C   0  0  0  0  0  0  0  0  0  0  0  0
    9.1205   -2.8028   23.7627 H   0  0  0  0  0  0  0  0  0  0  0  0
    8.2422   -2.6221   21.7951 C   0  0  0  0  0  0  0  0  0  0  0  0
    8.4791   -3.7847   21.4851 O   0  0  0  0  0  0  0  0  0  0  0  0
    7.5677   -1.7135   20.8654 C   0  0  0  0  0  0  0  0  0  0  0  0
    7.3139   -2.1727   19.9187 H   0  0  0  0  0  0  0  0  0  0  0  0
    5.3288    0.9599   20.1437 C   0  0  0  0  0  0  0  0  0  0  0  0
    4.8720    1.0197   21.1341 H   0  0  0  0  0  0  0  0  0  0  0  0
    4.6934    1.4724   19.0076 C   0  0  0  0  0  0  0  0  0  0  0  0
    3.7224    1.9519   19.0743 H   0  0  0  0  0  0  0  0  0  0  0  0
  1  2  1  0
  2  3  2  0
  3  4  1  0
  4  5  1  0
  4  6  2  0
  6  7  1  0
  7  8  1  0
  8  9  1  0
  9 10  1  0
 10 11  2  0
 11 12  1  0
 11 13  1  0
 13 14  1  0
 13 15  2  0
 15 16  1  0
 15 17  1  0
 17 18  2  0
 18 19  1  0
 18 20  1  0
 20 21  1  0
 20 22  2  0
 22 23  1  0
 22 24  1  0
 24 25  1  0
 24 26  2  0
  9 27  2  0
 27 28  1  0
 27 29  1  0
 29 30  2  0
 29 31  1  0
 31 32  1  0
  6 33  1  0
 33 34  1  0
 33 35  2  0
 35 36  1  0
 35  2  1  0
 31  7  2  0
 26 10  1  0
 26 17  1  0
M  END
>  <cnnaffinity>  (1) 
-5.48531

>  <filename>  (1) 
O=c1cc(-c2cccnc2)sc(-c2cccc3ccccc23)c1

$$$$
