
     RDKit          3D

 31 33  0  0  0  0  0  0  0  0999 V2000
    4.9203    1.7817   16.9964 H   0  0  0  0  0  0  0  0  0  0  0  0
    5.4056    1.2902   17.8359 C   0  0  0  0  0  0  0  0  0  0  0  0
    6.5719    0.6751   17.5714 N   0  0  0  0  0  0  0  0  0  0  0  0
    7.1640    0.0417   18.5895 C   0  0  0  0  0  0  0  0  0  0  0  0
    8.1231   -0.4278   18.3676 H   0  0  0  0  0  0  0  0  0  0  0  0
    6.6413   -0.0133   19.8930 C   0  0  0  0  0  0  0  0  0  0  0  0
    7.3730   -0.6744   20.9790 C   0  0  0  0  0  0  0  0  0  0  0  0
    7.7126   -0.0631   22.1747 C   0  0  0  0  0  0  0  0  0  0  0  0
    7.4873    1.3850   22.4211 C   0  0  0  0  0  0  0  0  0  0  0  0
    6.7818    1.8007   23.5603 C   0  0  0  0  0  0  0  0  0  0  0  0
    6.4017    1.0562   24.2537 H   0  0  0  0  0  0  0  0  0  0  0  0
    6.5472    3.1518   23.8107 C   0  0  0  0  0  0  0  0  0  0  0  0
    6.0056    3.4955   24.6835 H   0  0  0  0  0  0  0  0  0  0  0  0
    7.0553    4.0819   22.9107 C   0  0  0  0  0  0  0  0  0  0  0  0
    6.8473    5.3899   23.1263 F   0  0  0  0  0  0  0  0  0  0  0  0
    7.7963    3.7122   21.7975 C   0  0  0  0  0  0  0  0  0  0  0  0
    8.1992    4.5121   21.1871 H   0  0  0  0  0  0  0  0  0  0  0  0
    7.9927    2.3560   21.5378 C   0  0  0  0  0  0  0  0  0  0  0  0
    8.5364    2.0258   20.6572 H   0  0  0  0  0  0  0  0  0  0  0  0
    8.3398   -0.8608   23.1891 C   0  0  0  0  0  0  0  0  0  0  0  0
    8.5996   -0.3666   24.1316 H   0  0  0  0  0  0  0  0  0  0  0  0
    8.6274   -2.1723   22.9707 C   0  0  0  0  0  0  0  0  0  0  0  0
    9.1043   -2.8058   23.7018 H   0  0  0  0  0  0  0  0  0  0  0  0
    8.2999   -2.8292   21.7116 C   0  0  0  0  0  0  0  0  0  0  0  0
    8.4833   -3.9996   21.4230 O   0  0  0  0  0  0  0  0  0  0  0  0
    7.7165   -1.9891   20.7801 N   0  0  0  0  0  0  0  0  0  0  0  0
    7.4610   -2.4776   19.9386 H   0  0  0  0  0  0  0  0  0  0  0  0
    5.4293    0.6495   20.1577 C   0  0  0  0  0  0  0  0  0  0  0  0
    5.0138    0.6392   21.1729 H   0  0  0  0  0  0  0  0  0  0  0  0
    4.8015    1.3049   19.1010 C   0  0  0  0  0  0  0  0  0  0  0  0
    3.8723    1.8447   19.2548 H   0  0  0  0  0  0  0  0  0  0  0  0
  1  2  1  0
  2  3  2  0
  3  4  1  0
  4  5  1  0
  4  6  2  0
  6  7  1  0
  7  8  2  0
  8  9  1  0
  9 10  2  0
 10 11  1  0
 10 12  1  0
 12 13  1  0
 12 14  2  0
 14 15  1  0
 14 16  1  0
 16 17  1  0
 16 18  2  0
 18 19  1  0
  8 20  1  0
 20 21  1  0
 20 22  2  0
 22 23  1  0
 22 24  1  0
 24 25  2  0
 24 26  1  0
 26 27  1  0
  6 28  1  0
 28 29  1  0
 28 30  2  0
 30 31  1  0
 30  2  1  0
 26  7  1  0
 18  9  1  0
M  END
>  <cnnaffinity>  (1) 
-5.09804

>  <filename>  (1) 
O=c1ccc(-c2ccc(F)cc2)c(-c2cccnc2)[nH]1

$$$$
