
     RDKit          3D

 30 32  0  0  0  0  0  0  0  0999 V2000
    5.2133    1.6132   17.0465 H   0  0  0  0  0  0  0  0  0  0  0  0
    5.7340    1.1839   17.8946 C   0  0  0  0  0  0  0  0  0  0  0  0
    6.9842    0.7163   17.7237 N   0  0  0  0  0  0  0  0  0  0  0  0
    7.6057    0.1729   18.7937 C   0  0  0  0  0  0  0  0  0  0  0  0
    8.6184   -0.2038   18.6667 H   0  0  0  0  0  0  0  0  0  0  0  0
    6.9901    0.0418   20.0601 C   0  0  0  0  0  0  0  0  0  0  0  0
    7.6404   -0.5905   21.1298 N   0  0  0  0  0  0  0  0  0  0  0  0
    9.0075   -0.5010   21.1774 N   0  0  0  0  0  0  0  0  0  0  0  0
    9.6465   -0.9941   22.2232 C   0  0  0  0  0  0  0  0  0  0  0  0
   11.0821   -0.8129   22.2963 C   0  0  0  0  0  0  0  0  0  0  0  0
   11.6430    0.0364   23.2484 C   0  0  0  0  0  0  0  0  0  0  0  0
   11.0096    0.6379   23.8923 H   0  0  0  0  0  0  0  0  0  0  0  0
   13.0293    0.0894   23.3715 C   0  0  0  0  0  0  0  0  0  0  0  0
   13.4737    0.7165   24.1301 H   0  0  0  0  0  0  0  0  0  0  0  0
   13.8515   -0.6897   22.5545 C   0  0  0  0  0  0  0  0  0  0  0  0
   14.9184   -0.6792   22.7107 H   0  0  0  0  0  0  0  0  0  0  0  0
   13.2901   -1.4916   21.5599 C   0  0  0  0  0  0  0  0  0  0  0  0
   14.3539   -2.5123   20.3530 Br  0  0  0  0  0  0  0  0  0  0  0  0
   11.9078   -1.5439   21.4511 C   0  0  0  0  0  0  0  0  0  0  0  0
   11.4636   -2.1916   20.7200 H   0  0  0  0  0  0  0  0  0  0  0  0
    8.9399   -1.7230   23.3051 C   0  0  0  0  0  0  0  0  0  0  0  0
    9.4953   -2.1838   24.2986 O   0  0  0  0  0  0  0  0  0  0  0  0
    7.5065   -1.9042   23.1680 C   0  0  0  0  0  0  0  0  0  0  0  0
    6.9613   -2.4905   23.9057 H   0  0  0  0  0  0  0  0  0  0  0  0
    6.8934   -1.3139   22.0872 C   0  0  0  0  0  0  0  0  0  0  0  0
    5.8209   -1.4118   21.9550 H   0  0  0  0  0  0  0  0  0  0  0  0
    5.7066    0.5647   20.2311 C   0  0  0  0  0  0  0  0  0  0  0  0
    5.2347    0.5313   21.2136 H   0  0  0  0  0  0  0  0  0  0  0  0
    5.0769    1.1383   19.1290 C   0  0  0  0  0  0  0  0  0  0  0  0
    4.0817    1.5528   19.2173 H   0  0  0  0  0  0  0  0  0  0  0  0
  1  2  1  0
  2  3  2  0
  3  4  1  0
  4  5  1  0
  4  6  2  0
  6  7  1  0
  7  8  1  0
  8  9  2  0
  9 10  1  0
 10 11  2  0
 11 12  1  0
 11 13  1  0
 13 14  1  0
 13 15  2  0
 15 16  1  0
 15 17  1  0
 17 18  1  0
 17 19  2  0
 19 20  1  0
  9 21  1  0
 21 22  2  0
 21 23  1  0
 23 24  1  0
 23 25  2  0
 25 26  1  0
  6 27  1  0
 27 28  1  0
 27 29  2  0
 29 30  1  0
 29  2  1  0
 25  7  1  0
 19 10  1  0
M  END
>  <cnnaffinity>  (1) 
-6.05769

>  <filename>  (1) 
O=c1ccn(-c2cccnc2)nc1-c1cccc(Br)c1

$$$$
