
     RDKit          3D

 26 28  0  0  0  0  0  0  0  0999 V2000
    4.9111    1.7811   16.9970 H   0  0  0  0  0  0  0  0  0  0  0  0
    5.3975    1.2940   17.8402 C   0  0  0  0  0  0  0  0  0  0  0  0
    6.5598    0.6744   17.5773 N   0  0  0  0  0  0  0  0  0  0  0  0
    7.1767    0.0575   18.5900 C   0  0  0  0  0  0  0  0  0  0  0  0
    8.1265   -0.4249   18.3773 H   0  0  0  0  0  0  0  0  0  0  0  0
    6.6655    0.0036   19.9033 C   0  0  0  0  0  0  0  0  0  0  0  0
    7.3554   -0.6780   20.9450 N   0  0  0  0  0  0  0  0  0  0  0  0
    6.7579   -1.4399   21.9400 C   0  0  0  0  0  0  0  0  0  0  0  0
    5.6892   -1.5954   21.9955 H   0  0  0  0  0  0  0  0  0  0  0  0
    7.7279   -1.9337   22.7456 C   0  0  0  0  0  0  0  0  0  0  0  0
    7.6497   -2.7672   23.9134 C   0  0  0  0  0  0  0  0  0  0  0  0
    6.4217   -3.1775   24.3445 O   0  0  0  0  0  0  0  0  0  0  0  0
    6.6327   -3.9382   25.4456 C   0  0  0  0  0  0  0  0  0  0  0  0
    5.7593   -4.3504   25.9260 H   0  0  0  0  0  0  0  0  0  0  0  0
    7.9563   -4.0259   25.7221 C   0  0  0  0  0  0  0  0  0  0  0  0
    8.4153   -4.5649   26.5337 H   0  0  0  0  0  0  0  0  0  0  0  0
    8.6260   -3.2622   24.7232 C   0  0  0  0  0  0  0  0  0  0  0  0
    9.6875   -3.0910   24.6053 H   0  0  0  0  0  0  0  0  0  0  0  0
    8.9383   -1.4631   22.2265 N   0  0  0  0  0  0  0  0  0  0  0  0
    9.8706   -1.6027   22.5590 H   0  0  0  0  0  0  0  0  0  0  0  0
    8.7550   -0.6727   21.1260 C   0  0  0  0  0  0  0  0  0  0  0  0
    9.6125   -0.1139   20.4747 O   0  0  0  0  0  0  0  0  0  0  0  0
    5.4469    0.6433   20.1625 C   0  0  0  0  0  0  0  0  0  0  0  0
    5.0195    0.6321   21.1676 H   0  0  0  0  0  0  0  0  0  0  0  0
    4.8100    1.3096   19.1102 C   0  0  0  0  0  0  0  0  0  0  0  0
    3.8761    1.8419   19.2646 H   0  0  0  0  0  0  0  0  0  0  0  0
  1  2  1  0
  2  3  2  0
  3  4  1  0
  4  5  1  0
  4  6  2  0
  6  7  1  0
  7  8  1  0
  8  9  1  0
  8 10  2  0
 10 11  1  0
 11 12  1  0
 12 13  1  0
 13 14  1  0
 13 15  2  0
 15 16  1  0
 15 17  1  0
 17 18  1  0
 10 19  1  0
 19 20  1  0
 19 21  1  0
 21 22  2  0
  6 23  1  0
 23 24  1  0
 23 25  2  0
 25 26  1  0
 25  2  1  0
 21  7  1  0
 17 11  2  0
M  END
>  <cnnaffinity>  (1) 
-4.95714

>  <filename>  (1) 
O=c1[nH]c(-c2ccco2)cn1-c1cccnc1

$$$$
