
     RDKit          3D

 34 37  0  0  0  0  0  0  0  0999 V2000
    4.9496    1.9879   16.6642 H   0  0  0  0  0  0  0  0  0  0  0  0
    5.4187    1.4588   17.4896 C   0  0  0  0  0  0  0  0  0  0  0  0
    6.5775    0.8352   17.2255 N   0  0  0  0  0  0  0  0  0  0  0  0
    7.1787    0.2005   18.2363 C   0  0  0  0  0  0  0  0  0  0  0  0
    8.1320   -0.2739   18.0072 H   0  0  0  0  0  0  0  0  0  0  0  0
    6.6516    0.1240   19.5285 C   0  0  0  0  0  0  0  0  0  0  0  0
    7.3361   -0.6131   20.5764 C   0  0  0  0  0  0  0  0  0  0  0  0
    6.6776   -0.9977   21.6312 N   0  0  0  0  0  0  0  0  0  0  0  0
    7.5789   -1.5378   22.5013 N   0  0  0  0  0  0  0  0  0  0  0  0
    7.1043   -1.9669   23.7725 C   0  0  0  0  0  0  0  0  0  0  0  0
    5.9687   -2.7516   23.8467 C   0  0  0  0  0  0  0  0  0  0  0  0
    5.3257   -2.8932   22.9820 H   0  0  0  0  0  0  0  0  0  0  0  0
    5.5798   -3.4075   24.9726 N   0  0  0  0  0  0  0  0  0  0  0  0
    6.3279   -3.2849   26.0499 C   0  0  0  0  0  0  0  0  0  0  0  0
    6.0321   -3.8720   26.9218 H   0  0  0  0  0  0  0  0  0  0  0  0
    7.4728   -2.4296   26.1251 C   0  0  0  0  0  0  0  0  0  0  0  0
    8.2928   -2.3387   27.2893 C   0  0  0  0  0  0  0  0  0  0  0  0
    8.1862   -3.1175   28.0364 H   0  0  0  0  0  0  0  0  0  0  0  0
    9.1984   -1.3182   27.4160 C   0  0  0  0  0  0  0  0  0  0  0  0
    9.7819   -1.1984   28.3318 H   0  0  0  0  0  0  0  0  0  0  0  0
    9.3710   -0.3864   26.3549 C   0  0  0  0  0  0  0  0  0  0  0  0
   10.0624    0.4362   26.4935 H   0  0  0  0  0  0  0  0  0  0  0  0
    8.6957   -0.5320   25.1591 C   0  0  0  0  0  0  0  0  0  0  0  0
    8.8442    0.1631   24.3342 H   0  0  0  0  0  0  0  0  0  0  0  0
    7.7823   -1.6225   24.9939 C   0  0  0  0  0  0  0  0  0  0  0  0
    8.8634   -1.6898   21.9500 C   0  0  0  0  0  0  0  0  0  0  0  0
    9.8021   -2.2857   22.4176 O   0  0  0  0  0  0  0  0  0  0  0  0
    8.7883   -0.9429   20.6394 C   0  0  0  0  0  0  0  0  0  0  0  0
    9.4363   -0.0633   20.6901 H   0  0  0  0  0  0  0  0  0  0  0  0
    9.1820   -1.5379   19.8104 H   0  0  0  0  0  0  0  0  0  0  0  0
    5.4355    0.7790   19.7895 C   0  0  0  0  0  0  0  0  0  0  0  0
    5.0142    0.7430   20.7956 H   0  0  0  0  0  0  0  0  0  0  0  0
    4.8142    1.4621   18.7517 C   0  0  0  0  0  0  0  0  0  0  0  0
    3.8853    1.9979   18.9125 H   0  0  0  0  0  0  0  0  0  0  0  0
  1  2  1  0
  2  3  2  0
  3  4  1  0
  4  5  1  0
  4  6  2  0
  6  7  1  0
  7  8  2  0
  8  9  1  0
  9 10  1  0
 10 11  2  0
 11 12  1  0
 11 13  1  0
 13 14  2  0
 14 15  1  0
 14 16  1  0
 16 17  2  0
 17 18  1  0
 17 19  1  0
 19 20  1  0
 19 21  2  0
 21 22  1  0
 21 23  1  0
 23 24  1  0
 23 25  2  0
  9 26  1  0
 26 27  2  0
 26 28  1  0
 28 29  1  0
 28 30  1  0
  6 31  1  0
 31 32  1  0
 31 33  2  0
 33 34  1  0
 33  2  1  0
 28  7  1  0
 25 10  1  0
 25 16  1  0
M  END
>  <cnnaffinity>  (1) 
-4.95026

>  <filename>  (1) 
O=C1CC(c2cccnc2)=NN1c1cncc2ccccc12

$$$$
