
     RDKit          3D

 33 35  0  0  0  0  0  0  0  0999 V2000
    5.0347    1.7683   16.9011 H   0  0  0  0  0  0  0  0  0  0  0  0
    5.4720    1.2788   17.7678 C   0  0  0  0  0  0  0  0  0  0  0  0
    6.6361    0.6430   17.5593 N   0  0  0  0  0  0  0  0  0  0  0  0
    7.2073    0.0606   18.6147 C   0  0  0  0  0  0  0  0  0  0  0  0
    8.1520   -0.4537   18.4324 H   0  0  0  0  0  0  0  0  0  0  0  0
    6.6658    0.0743   19.9076 C   0  0  0  0  0  0  0  0  0  0  0  0
    7.3839   -0.5754   20.9928 C   0  0  0  0  0  0  0  0  0  0  0  0
    6.8619   -0.7190   22.1681 N   0  0  0  0  0  0  0  0  0  0  0  0
    7.7667   -1.4468   22.9380 N   0  0  0  0  0  0  0  0  0  0  0  0
    7.5328   -1.8542   24.2798 C   0  0  0  0  0  0  0  0  0  0  0  0
    8.3676   -2.4184   24.9430 O   0  0  0  0  0  0  0  0  0  0  0  0
    6.2682   -1.5385   24.6562 N   0  0  0  0  0  0  0  0  0  0  0  0
    5.8374   -0.9693   23.9321 H   0  0  0  0  0  0  0  0  0  0  0  0
    5.8722   -1.3508   26.0402 C   0  0  0  0  0  0  0  0  0  0  0  0
    5.9087   -2.3069   26.5902 H   0  0  0  0  0  0  0  0  0  0  0  0
    4.8256   -1.0300   26.0256 H   0  0  0  0  0  0  0  0  0  0  0  0
    6.6938   -0.2924   26.7467 C   0  0  0  0  0  0  0  0  0  0  0  0
    6.7877    0.6314   26.1825 H   0  0  0  0  0  0  0  0  0  0  0  0
    7.8910   -0.6694   27.5729 C   0  0  0  0  0  0  0  0  0  0  0  0
    8.1288   -1.7310   27.6492 H   0  0  0  0  0  0  0  0  0  0  0  0
    8.7776   -0.0398   27.5140 H   0  0  0  0  0  0  0  0  0  0  0  0
    6.6407   -0.1476   28.2362 C   0  0  0  0  0  0  0  0  0  0  0  0
    6.6669    0.8552   28.6609 H   0  0  0  0  0  0  0  0  0  0  0  0
    6.0223   -0.8489   28.7928 H   0  0  0  0  0  0  0  0  0  0  0  0
    8.9168   -1.8003   22.2657 C   0  0  0  0  0  0  0  0  0  0  0  0
    9.8320   -2.4640   22.6650 O   0  0  0  0  0  0  0  0  0  0  0  0
    8.7365   -1.1961   20.8904 C   0  0  0  0  0  0  0  0  0  0  0  0
    8.7996   -1.9949   20.1525 H   0  0  0  0  0  0  0  0  0  0  0  0
    9.5447   -0.4950   20.6671 H   0  0  0  0  0  0  0  0  0  0  0  0
    5.4275    0.7144   20.1085 C   0  0  0  0  0  0  0  0  0  0  0  0
    4.9675    0.7232   21.1007 H   0  0  0  0  0  0  0  0  0  0  0  0
    4.8290    1.3302   19.0129 C   0  0  0  0  0  0  0  0  0  0  0  0
    3.8881    1.8628   19.1114 H   0  0  0  0  0  0  0  0  0  0  0  0
  1  2  1  0
  2  3  2  0
  3  4  1  0
  4  5  1  0
  4  6  2  0
  6  7  1  0
  7  8  2  0
  8  9  1  0
  9 10  1  0
 10 11  2  0
 10 12  1  0
 12 13  1  0
 12 14  1  0
 14 15  1  0
 14 16  1  0
 14 17  1  0
 17 18  1  0
 17 19  1  0
 19 20  1  0
 19 21  1  0
 19 22  1  0
 22 23  1  0
 22 24  1  0
  9 25  1  0
 25 26  2  0
 25 27  1  0
 27 28  1  0
 27 29  1  0
  6 30  1  0
 30 31  1  0
 30 32  2  0
 32 33  1  0
 32  2  1  0
 27  7  1  0
 22 17  1  0
M  END
>  <cnnaffinity>  (1) 
-4.89157

>  <filename>  (1) 
O=C1CC(c2cccnc2)=NN1C(=O)NCC1CC1

$$$$
