
     RDKit          3D

 37 40  0  0  0  0  0  0  0  0999 V2000
    4.9163    1.8021   16.9758 H   0  0  0  0  0  0  0  0  0  0  0  0
    5.3948    1.3056   17.8191 C   0  0  0  0  0  0  0  0  0  0  0  0
    6.5605    0.6909   17.5563 N   0  0  0  0  0  0  0  0  0  0  0  0
    7.1828    0.0862   18.5766 C   0  0  0  0  0  0  0  0  0  0  0  0
    8.1186   -0.4234   18.3453 H   0  0  0  0  0  0  0  0  0  0  0  0
    6.6674    0.0322   19.8855 C   0  0  0  0  0  0  0  0  0  0  0  0
    7.3472   -0.6827   20.9322 N   0  0  0  0  0  0  0  0  0  0  0  0
    8.6252   -0.2966   21.2713 C   0  0  0  0  0  0  0  0  0  0  0  0
    9.0184    0.5526   20.7206 H   0  0  0  0  0  0  0  0  0  0  0  0
    9.3413   -0.8976   22.2645 C   0  0  0  0  0  0  0  0  0  0  0  0
   10.7200   -0.4535   22.5947 C   0  0  0  0  0  0  0  0  0  0  0  0
   11.7705   -1.3316   22.3923 C   0  0  0  0  0  0  0  0  0  0  0  0
   11.5377   -2.3469   22.0819 H   0  0  0  0  0  0  0  0  0  0  0  0
   13.1208   -0.9481   22.6138 C   0  0  0  0  0  0  0  0  0  0  0  0
   13.9157   -1.6772   22.4569 H   0  0  0  0  0  0  0  0  0  0  0  0
   13.4044    0.3060   23.0974 C   0  0  0  0  0  0  0  0  0  0  0  0
   14.4270    0.5963   23.3326 H   0  0  0  0  0  0  0  0  0  0  0  0
   12.3551    1.2478   23.3356 C   0  0  0  0  0  0  0  0  0  0  0  0
   12.6443    2.5694   23.7852 C   0  0  0  0  0  0  0  0  0  0  0  0
   13.6961    2.8222   23.8992 H   0  0  0  0  0  0  0  0  0  0  0  0
   11.6448    3.4802   24.0342 C   0  0  0  0  0  0  0  0  0  0  0  0
   11.8796    4.4799   24.3911 H   0  0  0  0  0  0  0  0  0  0  0  0
   10.2866    3.1158   23.8237 C   0  0  0  0  0  0  0  0  0  0  0  0
    9.4968    3.8426   24.0047 H   0  0  0  0  0  0  0  0  0  0  0  0
    9.9702    1.8521   23.3756 C   0  0  0  0  0  0  0  0  0  0  0  0
    8.9290    1.5764   23.2194 H   0  0  0  0  0  0  0  0  0  0  0  0
   10.9894    0.8754   23.0986 C   0  0  0  0  0  0  0  0  0  0  0  0
    8.7444   -1.9937   22.9631 C   0  0  0  0  0  0  0  0  0  0  0  0
    9.3192   -2.4650   23.7611 H   0  0  0  0  0  0  0  0  0  0  0  0
    7.4807   -2.3950   22.6606 C   0  0  0  0  0  0  0  0  0  0  0  0
    6.9693   -3.2138   23.1449 H   0  0  0  0  0  0  0  0  0  0  0  0
    6.6949   -1.7752   21.6032 C   0  0  0  0  0  0  0  0  0  0  0  0
    5.5871   -2.1740   21.2811 O   0  0  0  0  0  0  0  0  0  0  0  0
    5.4508    0.6655   20.1450 C   0  0  0  0  0  0  0  0  0  0  0  0
    5.0306    0.6038   21.1464 H   0  0  0  0  0  0  0  0  0  0  0  0
    4.8117    1.3227   19.0903 C   0  0  0  0  0  0  0  0  0  0  0  0
    3.8743    1.8401   19.2430 H   0  0  0  0  0  0  0  0  0  0  0  0
  1  2  1  0
  2  3  2  0
  3  4  1  0
  4  5  1  0
  4  6  2  0
  6  7  1  0
  7  8  1  0
  8  9  1  0
  8 10  2  0
 10 11  1  0
 11 12  2  0
 12 13  1  0
 12 14  1  0
 14 15  1  0
 14 16  2  0
 16 17  1  0
 16 18  1  0
 18 19  2  0
 19 20  1  0
 19 21  1  0
 21 22  1  0
 21 23  2  0
 23 24  1  0
 23 25  1  0
 25 26  1  0
 25 27  2  0
 10 28  1  0
 28 29  1  0
 28 30  2  0
 30 31  1  0
 30 32  1  0
 32 33  2  0
  6 34  1  0
 34 35  1  0
 34 36  2  0
 36 37  1  0
 36  2  1  0
 32  7  1  0
 27 11  1  0
 27 18  1  0
M  END
>  <cnnaffinity>  (1) 
-5.66512

>  <filename>  (1) 
O=c1ccc(-c2cccc3ccccc23)cn1-c1cccnc1

$$$$
