
     RDKit          3D

 31 34  0  0  0  0  0  0  0  0999 V2000
    4.8555    1.7515   16.9850 H   0  0  0  0  0  0  0  0  0  0  0  0
    5.3778    1.2887   17.8195 C   0  0  0  0  0  0  0  0  0  0  0  0
    6.5701    0.7309   17.5286 N   0  0  0  0  0  0  0  0  0  0  0  0
    7.2551    0.1941   18.5341 C   0  0  0  0  0  0  0  0  0  0  0  0
    8.2129   -0.2728   18.3125 H   0  0  0  0  0  0  0  0  0  0  0  0
    6.8151    0.1712   19.8878 C   0  0  0  0  0  0  0  0  0  0  0  0
    7.6743   -0.3923   20.8179 N   0  0  0  0  0  0  0  0  0  0  0  0
    7.6845   -0.0990   22.0702 C   0  0  0  0  0  0  0  0  0  0  0  0
    7.3808    1.2132   22.6871 C   0  0  0  0  0  0  0  0  0  0  0  0
    7.6709    2.4070   22.0854 C   0  0  0  0  0  0  0  0  0  0  0  0
    8.1035    2.5766   21.1082 H   0  0  0  0  0  0  0  0  0  0  0  0
    7.2983    3.8044   23.0237 S   0  0  0  0  0  0  0  0  0  0  0  0
    6.7188    2.8232   24.3344 C   0  0  0  0  0  0  0  0  0  0  0  0
    6.1970    3.2921   25.5575 C   0  0  0  0  0  0  0  0  0  0  0  0
    6.1277    4.3582   25.7606 H   0  0  0  0  0  0  0  0  0  0  0  0
    5.7624    2.3606   26.4897 C   0  0  0  0  0  0  0  0  0  0  0  0
    5.3576    2.7002   27.4391 H   0  0  0  0  0  0  0  0  0  0  0  0
    5.8322    0.9801   26.2103 C   0  0  0  0  0  0  0  0  0  0  0  0
    5.4808    0.2685   26.9531 H   0  0  0  0  0  0  0  0  0  0  0  0
    6.3391    0.5236   24.9986 C   0  0  0  0  0  0  0  0  0  0  0  0
    6.3463   -0.5414   24.7856 H   0  0  0  0  0  0  0  0  0  0  0  0
    6.8122    1.4478   24.0332 C   0  0  0  0  0  0  0  0  0  0  0  0
    8.3288   -1.1591   22.9273 C   0  0  0  0  0  0  0  0  0  0  0  0
    8.5004   -0.8791   23.9872 H   0  0  0  0  0  0  0  0  0  0  0  0
    8.6779   -2.2315   22.4936 O   0  0  0  0  0  0  0  0  0  0  0  0
    6.7578   -2.7649   21.0175 C   0  0  0  0  0  0  0  0  0  0  0  0
    6.5350   -3.0706   20.8930 O   0  0  0  0  0  0  0  0  0  0  0  0
    5.5424    0.7023   20.1572 C   0  0  0  0  0  0  0  0  0  0  0  0
    5.1563    0.7111   21.1771 H   0  0  0  0  0  0  0  0  0  0  0  0
    4.8273    1.2815   19.1014 C   0  0  0  0  0  0  0  0  0  0  0  0
    3.8724    1.7648   19.2753 H   0  0  0  0  0  0  0  0  0  0  0  0
  1  2  1  0
  2  3  2  0
  3  4  1  0
  4  5  1  0
  4  6  2  0
  6  7  1  0
  7  8  1  0
  8  9  1  0
  9 10  2  0
 10 11  1  0
 10 12  1  0
 12 13  1  0
 13 14  2  0
 14 15  1  0
 14 16  1  0
 16 17  1  0
 16 18  2  0
 18 19  1  0
 18 20  1  0
 20 21  1  0
 20 22  2  0
  8 23  2  0
 23 24  1  0
 23 25  1  0
 25 26  1  0
 26 27  2  0
  6 28  1  0
 28 29  1  0
 28 30  2  0
 30 31  1  0
 30  2  1  0
 26  7  1  0
 22  9  1  0
 22 13  1  0
M  END
>  <cnnaffinity>  (1) 
-5.40442

>  <filename>  (1) 
O=c1occ(-c2csc3ccccc23)n1-c1cccnc1

$$$$
