
     RDKit          3D

 46 49  0  0  0  0  0  0  0  0999 V2000
    7.1929    5.8085   22.7281 O   0  0  0  0  0  0  0  0  0  0  0  0
    7.8316    4.5503   22.3082 C   0  0  0  0  0  0  0  0  0  0  0  0
    8.4407    3.5156   23.1946 C   0  0  0  0  0  0  0  0  0  0  0  0
    9.0843    2.2017   22.9299 C   0  0  0  0  0  0  0  0  0  0  0  0
    9.0556    1.8655   21.5256 C   0  0  0  0  0  0  0  0  0  0  0  0
    9.5668    0.5521   20.9621 C   0  0  0  0  0  0  0  0  0  0  0  0
    8.6406   -0.4870   21.4258 C   0  0  0  0  0  0  0  0  0  0  0  0
    8.8520   -1.2657   22.4569 N   0  0  0  0  0  0  0  0  0  0  0  0
    7.6863   -1.9539   22.5616 C   0  0  0  0  0  0  0  0  0  0  0  0
    7.4946   -2.9842   23.6303 C   0  0  0  0  0  0  0  0  0  0  0  0
    7.5943   -2.3595   25.0618 C   0  0  0  0  0  0  0  0  0  0  0  0
    8.9800   -2.5632   25.6863 C   0  0  0  0  0  0  0  0  0  0  0  0
    9.3141   -4.0558   25.8117 C   0  0  0  0  0  0  0  0  0  0  0  0
   10.6721   -4.2151   25.7869 F   0  0  0  0  0  0  0  0  0  0  0  0
    8.9244   -4.5023   27.0480 F   0  0  0  0  0  0  0  0  0  0  0  0
    8.6889   -4.9526   24.7324 C   0  0  0  0  0  0  0  0  0  0  0  0
    8.4752   -4.1802   23.4291 C   0  0  0  0  0  0  0  0  0  0  0  0
    9.4458   -3.8192   23.0658 H   0  0  0  0  0  0  0  0  0  0  0  0
    8.0812   -4.8475   22.6586 H   0  0  0  0  0  0  0  0  0  0  0  0
    7.7290   -5.3168   25.1112 H   0  0  0  0  0  0  0  0  0  0  0  0
    9.3245   -5.8298   24.5786 H   0  0  0  0  0  0  0  0  0  0  0  0
    9.7350   -2.0911   25.0500 H   0  0  0  0  0  0  0  0  0  0  0  0
    9.0439   -2.0932   26.6726 H   0  0  0  0  0  0  0  0  0  0  0  0
    7.3488   -1.2934   25.0371 H   0  0  0  0  0  0  0  0  0  0  0  0
    6.8426   -2.8258   25.7120 H   0  0  0  0  0  0  0  0  0  0  0  0
    6.4751   -3.3496   23.5004 H   0  0  0  0  0  0  0  0  0  0  0  0
    6.7648   -1.6308   21.6842 N   0  0  0  0  0  0  0  0  0  0  0  0
    7.3738   -0.6591   20.9459 N   0  0  0  0  0  0  0  0  0  0  0  0
    6.6634    0.0082   19.9056 C   0  0  0  0  0  0  0  0  0  0  0  0
    5.4400    0.6423   20.1663 C   0  0  0  0  0  0  0  0  0  0  0  0
    4.8081    1.3078   19.1084 C   0  0  0  0  0  0  0  0  0  0  0  0
    5.4023    1.2968   17.8379 C   0  0  0  0  0  0  0  0  0  0  0  0
    6.5696    0.6818   17.5743 N   0  0  0  0  0  0  0  0  0  0  0  0
    7.1729    0.0593   18.5957 C   0  0  0  0  0  0  0  0  0  0  0  0
    8.1196   -0.4335   18.3754 H   0  0  0  0  0  0  0  0  0  0  0  0
    4.9110    1.7796   16.9953 H   0  0  0  0  0  0  0  0  0  0  0  0
    3.8721    1.8442   19.2637 H   0  0  0  0  0  0  0  0  0  0  0  0
    5.0108    0.6143   21.1703 H   0  0  0  0  0  0  0  0  0  0  0  0
   10.5449    0.4557   21.3979 H   0  0  0  0  0  0  0  0  0  0  0  0
    9.6229    0.6093   19.8698 H   0  0  0  0  0  0  0  0  0  0  0  0
    8.4322    2.6513   20.6240 C   0  0  0  0  0  0  0  0  0  0  0  0
    7.8315    4.5500   22.3082 N   0  0  0  0  0  0  0  0  0  0  0  0
    7.4442    4.7062   20.7582 H   0  0  0  0  0  0  0  0  0  0  0  0
    8.2834    2.3659   19.6071 H   0  0  0  0  0  0  0  0  0  0  0  0
    9.5195    1.5147   23.6850 H   0  0  0  0  0  0  0  0  0  0  0  0
    8.4368    3.8532   24.2286 H   0  0  0  0  0  0  0  0  0  0  0  0
  1  2  2  0
  2  3  1  0
  3  4  2  0
  4  5  1  0
  5  6  1  0
  6  7  1  0
  7  8  2  0
  8  9  1  0
  9 10  1  0
 10 11  1  0
 11 12  1  0
 12 13  1  0
 13 14  1  0
 13 15  1  0
 13 16  1  0
 16 17  1  0
 17 18  1  0
 17 19  1  0
 16 20  1  0
 16 21  1  0
 12 22  1  0
 12 23  1  0
 11 24  1  0
 11 25  1  0
 10 26  1  0
  9 27  2  0
 27 28  1  0
 28 29  1  0
 29 30  2  0
 30 31  1  0
 31 32  2  0
 32 33  1  0
 33 34  2  0
 34 35  1  0
 32 36  1  0
 31 37  1  0
 30 38  1  0
  6 39  1  0
  6 40  1  0
  5 41  2  0
 41 42  1  0
 42 43  1  0
 41 44  1  0
  4 45  1  0
  3 46  1  0
 42  2  1  0
 28  7  1  0
 34 29  1  0
 17 10  1  0
M  END
>  <cnnaffinity>  (1) 
-6.35408

>  <filename>  (1) 
O=c1ccc(Cc2nc(C3CCC(F)(F)CC3)nn2-c2cccnc2)c[nH]1

$$$$
