
     RDKit          3D

 31 33  0  0  0  0  0  0  0  0999 V2000
    4.9155    1.7952   16.9825 H   0  0  0  0  0  0  0  0  0  0  0  0
    5.3928    1.3025   17.8257 C   0  0  0  0  0  0  0  0  0  0  0  0
    6.5573    0.6878   17.5615 N   0  0  0  0  0  0  0  0  0  0  0  0
    7.1779    0.0782   18.5776 C   0  0  0  0  0  0  0  0  0  0  0  0
    8.1212   -0.4215   18.3528 H   0  0  0  0  0  0  0  0  0  0  0  0
    6.6558    0.0221   19.8834 C   0  0  0  0  0  0  0  0  0  0  0  0
    7.3526   -0.6819   20.9291 N   0  0  0  0  0  0  0  0  0  0  0  0
    8.6365   -0.2870   21.2671 C   0  0  0  0  0  0  0  0  0  0  0  0
    9.0316    0.5538   20.7007 H   0  0  0  0  0  0  0  0  0  0  0  0
    9.3428   -0.8873   22.2516 C   0  0  0  0  0  0  0  0  0  0  0  0
   10.7073   -0.4477   22.5912 C   0  0  0  0  0  0  0  0  0  0  0  0
   11.7790   -1.3372   22.4016 C   0  0  0  0  0  0  0  0  0  0  0  0
   11.5399   -2.3545   22.1048 H   0  0  0  0  0  0  0  0  0  0  0  0
   13.0943   -0.9429   22.6512 C   0  0  0  0  0  0  0  0  0  0  0  0
   13.9068   -1.6533   22.5237 H   0  0  0  0  0  0  0  0  0  0  0  0
   13.3574    0.3320   23.1526 C   0  0  0  0  0  0  0  0  0  0  0  0
   14.3650    0.6434   23.4113 H   0  0  0  0  0  0  0  0  0  0  0  0
   12.3072    1.2363   23.3338 C   0  0  0  0  0  0  0  0  0  0  0  0
   12.6708    2.8583   23.7928 Cl  0  0  0  0  0  0  0  0  0  0  0  0
   10.9845    0.8533   23.0666 C   0  0  0  0  0  0  0  0  0  0  0  0
    9.7040    1.9895   23.3501 Cl  0  0  0  0  0  0  0  0  0  0  0  0
    8.7382   -2.0116   22.9940 C   0  0  0  0  0  0  0  0  0  0  0  0
    9.1976   -2.6765   23.8988 O   0  0  0  0  0  0  0  0  0  0  0  0
    7.4730   -2.3138   22.5806 N   0  0  0  0  0  0  0  0  0  0  0  0
    7.0271   -3.0596   23.0667 H   0  0  0  0  0  0  0  0  0  0  0  0
    6.7276   -1.7518   21.6067 C   0  0  0  0  0  0  0  0  0  0  0  0
    5.6318   -2.2013   21.3720 O   0  0  0  0  0  0  0  0  0  0  0  0
    5.4405    0.6559   20.1494 C   0  0  0  0  0  0  0  0  0  0  0  0
    5.0208    0.6094   21.1540 H   0  0  0  0  0  0  0  0  0  0  0  0
    4.8069    1.3194   19.0956 C   0  0  0  0  0  0  0  0  0  0  0  0
    3.8748    1.8436   19.2486 H   0  0  0  0  0  0  0  0  0  0  0  0
  1  2  1  0
  2  3  2  0
  3  4  1  0
  4  5  1  0
  4  6  2  0
  6  7  1  0
  7  8  1  0
  8  9  1  0
  8 10  2  0
 10 11  1  0
 11 12  2  0
 12 13  1  0
 12 14  1  0
 14 15  1  0
 14 16  2  0
 16 17  1  0
 16 18  1  0
 18 19  1  0
 18 20  2  0
 20 21  1  0
 10 22  1  0
 22 23  2  0
 22 24  1  0
 24 25  1  0
 24 26  1  0
 26 27  2  0
  6 28  1  0
 28 29  1  0
 28 30  2  0
 30 31  1  0
 30  2  1  0
 26  7  1  0
 20 11  1  0
M  END
>  <cnnaffinity>  (1) 
-5.502

>  <filename>  (1) 
O=c1[nH]c(=O)n(-c2cccnc2)cc1-c1cccc(Cl)c1Cl

$$$$
