
     RDKit          3D

 42 44  0  0  0  0  0  0  0  0999 V2000
    5.9177    8.0372   22.9253 H   0  0  0  0  0  0  0  0  0  0  0  0
    5.3389    7.5617   23.5409 O   0  0  0  0  0  0  0  0  0  0  0  0
    5.9538    6.3271   23.8948 C   0  0  0  0  0  0  0  0  0  0  0  0
    5.3347    5.9138   24.6960 H   0  0  0  0  0  0  0  0  0  0  0  0
    6.9619    6.4771   24.3084 H   0  0  0  0  0  0  0  0  0  0  0  0
    6.0201    5.3579   22.7035 C   0  0  0  0  0  0  0  0  0  0  0  0
    4.9982    5.2180   22.3018 H   0  0  0  0  0  0  0  0  0  0  0  0
    6.5653    5.9056   21.9216 H   0  0  0  0  0  0  0  0  0  0  0  0
    6.7250    4.0905   22.9759 N   0  0  0  0  0  0  0  0  0  0  0  0
    5.8593    3.0042   23.4851 C   0  0  0  0  0  0  0  0  0  0  0  0
    5.0944    2.7167   22.7371 H   0  0  0  0  0  0  0  0  0  0  0  0
    5.3343    3.3409   24.3871 H   0  0  0  0  0  0  0  0  0  0  0  0
    6.6822    1.7331   23.7731 C   0  0  0  0  0  0  0  0  0  0  0  0
    7.4529    1.9826   24.5228 H   0  0  0  0  0  0  0  0  0  0  0  0
    6.0393    0.9459   24.1834 H   0  0  0  0  0  0  0  0  0  0  0  0
    7.2810    1.2788   22.5144 N   0  0  0  0  0  0  0  0  0  0  0  0
    7.6217   -0.0727   22.2475 C   0  0  0  0  0  0  0  0  0  0  0  0
    8.2995   -0.8701   23.2318 C   0  0  0  0  0  0  0  0  0  0  0  0
    8.5476   -0.3857   24.1812 H   0  0  0  0  0  0  0  0  0  0  0  0
    8.6249   -2.1747   22.9869 C   0  0  0  0  0  0  0  0  0  0  0  0
    9.0987   -2.8190   23.7140 H   0  0  0  0  0  0  0  0  0  0  0  0
    8.2927   -2.8069   21.7168 C   0  0  0  0  0  0  0  0  0  0  0  0
    8.4039   -3.9879   21.4326 O   0  0  0  0  0  0  0  0  0  0  0  0
    7.7990   -1.9292   20.7622 N   0  0  0  0  0  0  0  0  0  0  0  0
    7.5352   -2.4129   19.9179 H   0  0  0  0  0  0  0  0  0  0  0  0
    7.3723   -0.6417   21.0015 C   0  0  0  0  0  0  0  0  0  0  0  0
    6.6660    0.0287   19.8882 C   0  0  0  0  0  0  0  0  0  0  0  0
    7.1603   -0.0237   18.5657 C   0  0  0  0  0  0  0  0  0  0  0  0
    8.0730   -0.5757   18.3392 H   0  0  0  0  0  0  0  0  0  0  0  0
    6.5948    0.6015   17.5274 N   0  0  0  0  0  0  0  0  0  0  0  0
    5.4589    1.2775   17.7637 C   0  0  0  0  0  0  0  0  0  0  0  0
    5.0070    1.7743   16.9103 H   0  0  0  0  0  0  0  0  0  0  0  0
    4.8450    1.3450   19.0192 C   0  0  0  0  0  0  0  0  0  0  0  0
    3.9043    1.8720   19.1375 H   0  0  0  0  0  0  0  0  0  0  0  0
    5.4681    0.7325   20.1051 C   0  0  0  0  0  0  0  0  0  0  0  0
    5.0279    0.7660   21.1039 H   0  0  0  0  0  0  0  0  0  0  0  0
    8.1598    2.3027   21.9535 C   0  0  0  0  0  0  0  0  0  0  0  0
    8.5274    1.9488   20.9845 H   0  0  0  0  0  0  0  0  0  0  0  0
    9.0376    2.4926   22.5982 H   0  0  0  0  0  0  0  0  0  0  0  0
    7.3829    3.6016   21.7519 C   0  0  0  0  0  0  0  0  0  0  0  0
    6.6218    3.4113   20.9653 H   0  0  0  0  0  0  0  0  0  0  0  0
    8.0885    4.3710   21.4119 H   0  0  0  0  0  0  0  0  0  0  0  0
  1  2  1  0
  2  3  1  0
  3  4  1  0
  3  5  1  0
  3  6  1  0
  6  7  1  0
  6  8  1  0
  6  9  1  0
  9 10  1  0
 10 11  1  0
 10 12  1  0
 10 13  1  0
 13 14  1  0
 13 15  1  0
 13 16  1  0
 16 17  1  0
 17 18  1  0
 18 19  1  0
 18 20  2  0
 20 21  1  0
 20 22  1  0
 22 23  2  0
 22 24  1  0
 24 25  1  0
 24 26  1  0
 26 27  1  0
 27 28  2  0
 28 29  1  0
 28 30  1  0
 30 31  2  0
 31 32  1  0
 31 33  1  0
 33 34  1  0
 33 35  2  0
 35 36  1  0
 16 37  1  0
 37 38  1  0
 37 39  1  0
 37 40  1  0
 40 41  1  0
 40 42  1  0
 40  9  1  0
 26 17  2  0
 35 27  1  0
M  END
>  <cnnaffinity>  (1) 
-5.18908

>  <filename>  (1) 
O=c1ccc(N2CCN(CCO)CC2)c(-c2cccnc2)[nH]1

$$$$
