
     RDKit          3D

 33 35  0  0  0  0  0  0  0  0999 V2000
    4.9649    1.7973   16.9713 H   0  0  0  0  0  0  0  0  0  0  0  0
    5.4053    1.2773   17.8183 C   0  0  0  0  0  0  0  0  0  0  0  0
    6.5646    0.6384   17.5817 N   0  0  0  0  0  0  0  0  0  0  0  0
    7.1480    0.0304   18.6172 C   0  0  0  0  0  0  0  0  0  0  0  0
    8.0969   -0.4665   18.4025 H   0  0  0  0  0  0  0  0  0  0  0  0
    6.6335    0.0387   19.9280 C   0  0  0  0  0  0  0  0  0  0  0  0
    7.3876   -0.6024   21.0136 C   0  0  0  0  0  0  0  0  0  0  0  0
    7.7225   -0.0453   22.2289 C   0  0  0  0  0  0  0  0  0  0  0  0
    7.5035    1.4002   22.4682 C   0  0  0  0  0  0  0  0  0  0  0  0
    6.8811    1.7347   23.6092 N   0  0  0  0  0  0  0  0  0  0  0  0
    6.6679    3.0191   23.8624 C   0  0  0  0  0  0  0  0  0  0  0  0
    6.1629    3.2446   24.7996 H   0  0  0  0  0  0  0  0  0  0  0  0
    7.1054    4.0410   23.0197 C   0  0  0  0  0  0  0  0  0  0  0  0
    6.7712    5.4528   23.3617 C   0  0  0  0  0  0  0  0  0  0  0  0
    7.6667    6.3193   22.8545 F   0  0  0  0  0  0  0  0  0  0  0  0
    6.7388    5.6458   24.6954 F   0  0  0  0  0  0  0  0  0  0  0  0
    5.5625    5.8164   22.8931 F   0  0  0  0  0  0  0  0  0  0  0  0
    7.8113    3.7085   21.8600 C   0  0  0  0  0  0  0  0  0  0  0  0
    8.2441    4.4882   21.2342 H   0  0  0  0  0  0  0  0  0  0  0  0
    7.9629    2.3656   21.5523 C   0  0  0  0  0  0  0  0  0  0  0  0
    8.3988    2.0421   20.6150 H   0  0  0  0  0  0  0  0  0  0  0  0
    8.3103   -0.8754   23.2512 C   0  0  0  0  0  0  0  0  0  0  0  0
    8.5293   -0.4432   24.2313 H   0  0  0  0  0  0  0  0  0  0  0  0
    8.5859   -2.1825   22.9985 C   0  0  0  0  0  0  0  0  0  0  0  0
    9.0405   -2.8519   23.7150 H   0  0  0  0  0  0  0  0  0  0  0  0
    8.2643   -2.7829   21.7098 C   0  0  0  0  0  0  0  0  0  0  0  0
    8.3841   -3.9540   21.3981 O   0  0  0  0  0  0  0  0  0  0  0  0
    7.7679   -1.8987   20.7698 N   0  0  0  0  0  0  0  0  0  0  0  0
    7.4766   -2.3972   19.9456 H   0  0  0  0  0  0  0  0  0  0  0  0
    5.3955    0.6770   20.1465 C   0  0  0  0  0  0  0  0  0  0  0  0
    4.9522    0.6782   21.1462 H   0  0  0  0  0  0  0  0  0  0  0  0
    4.7769    1.3062   19.0679 C   0  0  0  0  0  0  0  0  0  0  0  0
    3.8421    1.8450   19.1901 H   0  0  0  0  0  0  0  0  0  0  0  0
  1  2  1  0
  2  3  2  0
  3  4  1  0
  4  5  1  0
  4  6  2  0
  6  7  1  0
  7  8  2  0
  8  9  1  0
  9 10  2  0
 10 11  1  0
 11 12  1  0
 11 13  2  0
 13 14  1  0
 14 15  1  0
 14 16  1  0
 14 17  1  0
 13 18  1  0
 18 19  1  0
 18 20  2  0
 20 21  1  0
  8 22  1  0
 22 23  1  0
 22 24  2  0
 24 25  1  0
 24 26  1  0
 26 27  2  0
 26 28  1  0
 28 29  1  0
  6 30  1  0
 30 31  1  0
 30 32  2  0
 32 33  1  0
 32  2  1  0
 28  7  1  0
 20  9  1  0
M  END
>  <cnnaffinity>  (1) 
-5.44743

>  <filename>  (1) 
O=c1ccc(-c2ccc(C(F)(F)F)cn2)c(-c2cccnc2)[nH]1

$$$$
