
     RDKit          3D

 47 50  0  0  0  0  0  0  0  0999 V2000
   11.0774    1.7704   25.5614 O   0  0  0  0  0  0  0  0  0  0  0  0
    9.9785    1.9399   25.0599 C   0  0  0  0  0  0  0  0  0  0  0  0
    8.6769    1.8709   25.7046 C   0  0  0  0  0  0  0  0  0  0  0  0
    7.5421    1.8139   24.9367 C   0  0  0  0  0  0  0  0  0  0  0  0
    7.6124    1.8848   23.5169 C   0  0  0  0  0  0  0  0  0  0  0  0
    8.8259    2.0775   22.9006 C   0  0  0  0  0  0  0  0  0  0  0  0
    9.0476    2.0097   21.4230 C   0  0  0  0  0  0  0  0  0  0  0  0
    9.5398    0.6079   20.9425 C   0  0  0  0  0  0  0  0  0  0  0  0
    8.6528   -0.5169   21.3789 C   0  0  0  0  0  0  0  0  0  0  0  0
    8.8786   -1.3408   22.3834 N   0  0  0  0  0  0  0  0  0  0  0  0
    7.6682   -1.9276   22.5767 C   0  0  0  0  0  0  0  0  0  0  0  0
    7.3981   -2.8152   23.7656 C   0  0  0  0  0  0  0  0  0  0  0  0
    6.5091   -4.0295   23.4007 C   0  0  0  0  0  0  0  0  0  0  0  0
    6.1312   -4.8188   24.6547 C   0  0  0  0  0  0  0  0  0  0  0  0
    5.5034   -3.9944   25.6211 O   0  0  0  0  0  0  0  0  0  0  0  0
    6.3503   -2.9536   26.0796 C   0  0  0  0  0  0  0  0  0  0  0  0
    6.7503   -2.0140   24.9390 C   0  0  0  0  0  0  0  0  0  0  0  0
    5.8513   -1.4908   24.5792 H   0  0  0  0  0  0  0  0  0  0  0  0
    7.4509   -1.2524   25.3092 H   0  0  0  0  0  0  0  0  0  0  0  0
    7.2531   -3.3814   26.5549 H   0  0  0  0  0  0  0  0  0  0  0  0
    5.7827   -2.4237   26.8513 H   0  0  0  0  0  0  0  0  0  0  0  0
    7.0335   -5.2908   25.0880 H   0  0  0  0  0  0  0  0  0  0  0  0
    5.4140   -5.6117   24.4220 H   0  0  0  0  0  0  0  0  0  0  0  0
    7.0299   -4.6854   22.6921 H   0  0  0  0  0  0  0  0  0  0  0  0
    5.5973   -3.6630   22.9067 H   0  0  0  0  0  0  0  0  0  0  0  0
    8.3938   -3.1553   24.0876 H   0  0  0  0  0  0  0  0  0  0  0  0
    6.7266   -1.5542   21.7281 N   0  0  0  0  0  0  0  0  0  0  0  0
    7.3712   -0.6595   20.9362 N   0  0  0  0  0  0  0  0  0  0  0  0
    6.6671    0.0080   19.8992 C   0  0  0  0  0  0  0  0  0  0  0  0
    5.4486    0.6428   20.1623 C   0  0  0  0  0  0  0  0  0  0  0  0
    4.8132    1.3090   19.1103 C   0  0  0  0  0  0  0  0  0  0  0  0
    5.3995    1.2946   17.8396 C   0  0  0  0  0  0  0  0  0  0  0  0
    6.5556    0.6675   17.5763 N   0  0  0  0  0  0  0  0  0  0  0  0
    7.1702    0.0468   18.5886 C   0  0  0  0  0  0  0  0  0  0  0  0
    8.1128   -0.4462   18.3552 H   0  0  0  0  0  0  0  0  0  0  0  0
    4.9271    1.7971   16.9979 H   0  0  0  0  0  0  0  0  0  0  0  0
    3.8797    1.8385   19.2617 H   0  0  0  0  0  0  0  0  0  0  0  0
    5.0201    0.6005   21.1638 H   0  0  0  0  0  0  0  0  0  0  0  0
   10.5448    0.3899   21.3164 H   0  0  0  0  0  0  0  0  0  0  0  0
    9.5878    0.5988   19.8536 H   0  0  0  0  0  0  0  0  0  0  0  0
    9.7803    2.7643   21.1209 H   0  0  0  0  0  0  0  0  0  0  0  0
    8.1076    2.2553   20.9167 H   0  0  0  0  0  0  0  0  0  0  0  0
    9.9377    2.2033   23.6966 N   0  0  0  0  0  0  0  0  0  0  0  0
   10.8851    2.2232   23.3550 H   0  0  0  0  0  0  0  0  0  0  0  0
    6.7363    1.7058   22.8998 H   0  0  0  0  0  0  0  0  0  0  0  0
    6.5721    1.6492   25.4062 H   0  0  0  0  0  0  0  0  0  0  0  0
    8.6905    1.8632   26.7860 H   0  0  0  0  0  0  0  0  0  0  0  0
  1  2  2  0
  2  3  1  0
  3  4  2  0
  4  5  1  0
  5  6  2  0
  6  7  1  0
  7  8  1  0
  8  9  1  0
  9 10  2  0
 10 11  1  0
 11 12  1  0
 12 13  1  0
 13 14  1  0
 14 15  1  0
 15 16  1  0
 16 17  1  0
 17 18  1  0
 17 19  1  0
 16 20  1  0
 16 21  1  0
 14 22  1  0
 14 23  1  0
 13 24  1  0
 13 25  1  0
 12 26  1  0
 11 27  2  0
 27 28  1  0
 28 29  1  0
 29 30  2  0
 30 31  1  0
 31 32  2  0
 32 33  1  0
 33 34  2  0
 34 35  1  0
 32 36  1  0
 31 37  1  0
 30 38  1  0
  8 39  1  0
  8 40  1  0
  7 41  1  0
  7 42  1  0
  6 43  1  0
 43 44  1  0
  5 45  1  0
  4 46  1  0
  3 47  1  0
 43  2  1  0
 28  9  1  0
 34 29  1  0
 17 12  1  0
M  END
>  <cnnaffinity>  (1) 
-5.97298

>  <filename>  (1) 
O=c1cccc(CCc2nc(C3CCOCC3)nn2-c2cccnc2)[nH]1

$$$$
