
     RDKit          3D

 45 48  0  0  0  0  0  0  0  0999 V2000
    9.2841    1.9716   24.5279 O   0  0  0  0  0  0  0  0  0  0  0  0
    8.8394    2.5326   23.5312 C   0  0  0  0  0  0  0  0  0  0  0  0
    8.3931    3.9637   23.1982 C   0  0  0  0  0  0  0  0  0  0  0  0
    8.2740    3.8374   23.2583 C   0  0  0  0  0  0  0  0  0  0  0  0
    7.7728    2.4902   21.4847 C   0  0  0  0  0  0  0  0  0  0  0  0
    8.7042    1.8247   22.3738 N   0  0  0  0  0  0  0  0  0  0  0  0
    9.4308    0.5904   21.9943 C   0  0  0  0  0  0  0  0  0  0  0  0
    8.6418   -0.6948   22.0716 C   0  0  0  0  0  0  0  0  0  0  0  0
    8.7768   -1.6490   22.9758 N   0  0  0  0  0  0  0  0  0  0  0  0
    7.7260   -2.4715   22.7197 C   0  0  0  0  0  0  0  0  0  0  0  0
    7.3452   -3.6007   23.6404 C   0  0  0  0  0  0  0  0  0  0  0  0
    6.7656   -4.8266   22.8861 C   0  0  0  0  0  0  0  0  0  0  0  0
    6.1148   -5.8345   23.8050 C   0  0  0  0  0  0  0  0  0  0  0  0
    5.7908   -5.5828   25.0724 C   0  0  0  0  0  0  0  0  0  0  0  0
    6.0366   -4.2466   25.7368 C   0  0  0  0  0  0  0  0  0  0  0  0
    6.3251   -3.1309   24.7174 C   0  0  0  0  0  0  0  0  0  0  0  0
    5.3928   -2.8477   24.2080 H   0  0  0  0  0  0  0  0  0  0  0  0
    6.6920   -2.2352   25.2337 H   0  0  0  0  0  0  0  0  0  0  0  0
    6.8799   -4.3484   26.4374 H   0  0  0  0  0  0  0  0  0  0  0  0
    5.1755   -3.9737   26.3603 H   0  0  0  0  0  0  0  0  0  0  0  0
    5.3365   -6.3666   25.6835 H   0  0  0  0  0  0  0  0  0  0  0  0
    5.8764   -6.8064   23.3708 H   0  0  0  0  0  0  0  0  0  0  0  0
    7.5490   -5.3148   22.2937 H   0  0  0  0  0  0  0  0  0  0  0  0
    6.0166   -4.4757   22.1605 H   0  0  0  0  0  0  0  0  0  0  0  0
    8.2781   -3.8804   24.1456 H   0  0  0  0  0  0  0  0  0  0  0  0
    6.9884   -2.1114   21.6857 N   0  0  0  0  0  0  0  0  0  0  0  0
    7.5977   -0.9793   21.2442 N   0  0  0  0  0  0  0  0  0  0  0  0
    7.0422   -0.3224   20.1076 C   0  0  0  0  0  0  0  0  0  0  0  0
    5.7140    0.1162   20.1717 C   0  0  0  0  0  0  0  0  0  0  0  0
    5.1569    0.7100   19.0350 C   0  0  0  0  0  0  0  0  0  0  0  0
    5.9340    0.8174   17.8767 C   0  0  0  0  0  0  0  0  0  0  0  0
    7.2028    0.3882   17.8035 N   0  0  0  0  0  0  0  0  0  0  0  0
    7.7422   -0.1678   18.8987 C   0  0  0  0  0  0  0  0  0  0  0  0
    8.7668   -0.5286   18.7932 H   0  0  0  0  0  0  0  0  0  0  0  0
    5.5228    1.2571   16.9707 H   0  0  0  0  0  0  0  0  0  0  0  0
    4.1431    1.0940   19.0423 H   0  0  0  0  0  0  0  0  0  0  0  0
    5.1537   -0.0097   21.1016 H   0  0  0  0  0  0  0  0  0  0  0  0
    9.8114    0.6798   20.9630 H   0  0  0  0  0  0  0  0  0  0  0  0
   10.3114    0.4567   22.6344 H   0  0  0  0  0  0  0  0  0  0  0  0
    8.1297    2.4780   20.4427 H   0  0  0  0  0  0  0  0  0  0  0  0
    6.7306    2.1065   21.4787 H   0  0  0  0  0  0  0  0  0  0  0  0
    7.8225    3.8021   22.0819 H   0  0  0  0  0  0  0  0  0  0  0  0
    9.7060    4.8410   22.6260 H   0  0  0  0  0  0  0  0  0  0  0  0
    8.5139    4.1735   24.4551 H   0  0  0  0  0  0  0  0  0  0  0  0
    7.1343    3.8325   23.7362 H   0  0  0  0  0  0  0  0  0  0  0  0
  1  2  2  0
  2  3  1  0
  3  4  1  0
  4  5  1  0
  5  6  1  0
  6  7  1  0
  7  8  1  0
  8  9  2  0
  9 10  1  0
 10 11  1  0
 11 12  1  0
 12 13  1  0
 13 14  2  0
 14 15  1  0
 15 16  1  0
 16 17  1  0
 16 18  1  0
 15 19  1  0
 15 20  1  0
 14 21  1  0
 13 22  1  0
 12 23  1  0
 12 24  1  0
 11 25  1  0
 10 26  2  0
 26 27  1  0
 27 28  1  0
 28 29  2  0
 29 30  1  0
 30 31  2  0
 31 32  1  0
 32 33  2  0
 33 34  1  0
 31 35  1  0
 30 36  1  0
 29 37  1  0
  7 38  1  0
  7 39  1  0
  5 40  1  0
  5 41  1  0
  4 42  1  0
  4 43  1  0
  3 44  1  0
  3 45  1  0
  6  2  1  0
 27  8  1  0
 33 28  1  0
 16 11  1  0
M  END
>  <cnnaffinity>  (1) 
-5.94319

>  <filename>  (1) 
O=C1CCCN1Cc1nc(C2CC=CCC2)nn1-c1cccnc1

$$$$
