
     RDKit          3D

 27 29  0  0  0  0  0  0  0  0999 V2000
    4.9626    1.7927   16.9347 H   0  0  0  0  0  0  0  0  0  0  0  0
    5.4193    1.2799   17.7799 C   0  0  0  0  0  0  0  0  0  0  0  0
    6.5714    0.6321   17.5338 N   0  0  0  0  0  0  0  0  0  0  0  0
    7.1686    0.0226   18.5623 C   0  0  0  0  0  0  0  0  0  0  0  0
    8.1055   -0.4854   18.3475 H   0  0  0  0  0  0  0  0  0  0  0  0
    6.6653    0.0308   19.8817 C   0  0  0  0  0  0  0  0  0  0  0  0
    7.3538   -0.6037   20.9440 N   0  0  0  0  0  0  0  0  0  0  0  0
    7.4328   -0.2218   22.2904 C   0  0  0  0  0  0  0  0  0  0  0  0
    6.8843    0.7631   22.7634 O   0  0  0  0  0  0  0  0  0  0  0  0
    8.2864   -1.2663   22.8995 C   0  0  0  0  0  0  0  0  0  0  0  0
    8.6118   -1.2951   24.2761 N   0  0  0  0  0  0  0  0  0  0  0  0
    8.2778   -0.3022   25.1790 C   0  0  0  0  0  0  0  0  0  0  0  0
    7.8474    0.6165   24.8083 H   0  0  0  0  0  0  0  0  0  0  0  0
    8.6178   -0.7201   26.4317 C   0  0  0  0  0  0  0  0  0  0  0  0
    8.4702   -0.1581   27.3444 H   0  0  0  0  0  0  0  0  0  0  0  0
    9.2099   -2.0121   26.2999 C   0  0  0  0  0  0  0  0  0  0  0  0
    9.6031   -2.6288   27.0973 H   0  0  0  0  0  0  0  0  0  0  0  0
    9.2059   -2.3325   24.9723 C   0  0  0  0  0  0  0  0  0  0  0  0
    9.6368   -3.1863   24.4722 H   0  0  0  0  0  0  0  0  0  0  0  0
    8.6285   -2.1356   21.9281 C   0  0  0  0  0  0  0  0  0  0  0  0
    9.1830   -3.0622   22.0001 H   0  0  0  0  0  0  0  0  0  0  0  0
    8.1987   -1.6891   20.6788 N   0  0  0  0  0  0  0  0  0  0  0  0
    7.7583   -2.3600   20.0558 H   0  0  0  0  0  0  0  0  0  0  0  0
    5.4552    0.6957   20.1253 C   0  0  0  0  0  0  0  0  0  0  0  0
    5.0556    0.7279   21.1370 H   0  0  0  0  0  0  0  0  0  0  0  0
    4.8225    1.3144   19.0446 C   0  0  0  0  0  0  0  0  0  0  0  0
    3.8846    1.8400   19.1805 H   0  0  0  0  0  0  0  0  0  0  0  0
  1  2  1  0
  2  3  2  0
  3  4  1  0
  4  5  1  0
  4  6  2  0
  6  7  1  0
  7  8  1  0
  8  9  2  0
  8 10  1  0
 10 11  1  0
 11 12  1  0
 12 13  1  0
 12 14  2  0
 14 15  1  0
 14 16  1  0
 16 17  1  0
 16 18  2  0
 18 19  1  0
 10 20  2  0
 20 21  1  0
 20 22  1  0
 22 23  1  0
  6 24  1  0
 24 25  1  0
 24 26  2  0
 26 27  1  0
 26  2  1  0
 22  7  1  0
 18 11  1  0
M  END
>  <cnnaffinity>  (1) 
-4.77538

>  <filename>  (1) 
O=c1c(-n2cccc2)c[nH]n1-c1cccnc1

$$$$
