
     RDKit          3D

 30 32  0  0  0  0  0  0  0  0999 V2000
    5.0557    2.1344   16.8974 H   0  0  0  0  0  0  0  0  0  0  0  0
    5.4571    1.4472   17.6384 C   0  0  0  0  0  0  0  0  0  0  0  0
    6.5596    0.7673   17.2801 N   0  0  0  0  0  0  0  0  0  0  0  0
    7.1017   -0.0562   18.1817 C   0  0  0  0  0  0  0  0  0  0  0  0
    7.9736   -0.6325   17.8702 H   0  0  0  0  0  0  0  0  0  0  0  0
    6.5651   -0.2591   19.4677 C   0  0  0  0  0  0  0  0  0  0  0  0
    7.2800   -1.0424   20.4139 N   0  0  0  0  0  0  0  0  0  0  0  0
    8.5993   -0.7817   20.8078 C   0  0  0  0  0  0  0  0  0  0  0  0
    9.1905    0.0135   20.3867 H   0  0  0  0  0  0  0  0  0  0  0  0
    8.8971   -1.6728   21.7718 C   0  0  0  0  0  0  0  0  0  0  0  0
    9.9631   -1.8925   22.5548 O   0  0  0  0  0  0  0  0  0  0  0  0
   11.0495   -1.0305   22.4414 C   0  0  0  0  0  0  0  0  0  0  0  0
   12.2881   -1.6170   22.1891 C   0  0  0  0  0  0  0  0  0  0  0  0
   12.3297   -2.6868   22.0573 H   0  0  0  0  0  0  0  0  0  0  0  0
   13.4536   -0.8517   22.2043 C   0  0  0  0  0  0  0  0  0  0  0  0
   14.4256   -1.2978   22.0111 H   0  0  0  0  0  0  0  0  0  0  0  0
   13.3563    0.5053   22.5095 C   0  0  0  0  0  0  0  0  0  0  0  0
   14.8080    1.4183   22.6807 Cl  0  0  0  0  0  0  0  0  0  0  0  0
   12.1221    1.1177   22.7301 C   0  0  0  0  0  0  0  0  0  0  0  0
   12.0923    2.1846   22.9381 H   0  0  0  0  0  0  0  0  0  0  0  0
   10.9520    0.3460   22.6821 C   0  0  0  0  0  0  0  0  0  0  0  0
    9.9854    0.8070   22.8574 H   0  0  0  0  0  0  0  0  0  0  0  0
    7.8206   -2.5102   21.9419 N   0  0  0  0  0  0  0  0  0  0  0  0
    7.6221   -3.1045   22.7237 H   0  0  0  0  0  0  0  0  0  0  0  0
    6.7521   -2.0862   21.1801 C   0  0  0  0  0  0  0  0  0  0  0  0
    5.6359   -2.5599   21.1827 O   0  0  0  0  0  0  0  0  0  0  0  0
    5.3633    0.3835   19.7990 C   0  0  0  0  0  0  0  0  0  0  0  0
    4.8795    0.1638   20.7505 H   0  0  0  0  0  0  0  0  0  0  0  0
    4.8161    1.2775   18.8716 C   0  0  0  0  0  0  0  0  0  0  0  0
    3.9311    1.8656   19.1009 H   0  0  0  0  0  0  0  0  0  0  0  0
  1  2  1  0
  2  3  2  0
  3  4  1  0
  4  5  1  0
  4  6  2  0
  6  7  1  0
  7  8  1  0
  8  9  1  0
  8 10  2  0
 10 11  1  0
 11 12  1  0
 12 13  2  0
 13 14  1  0
 13 15  1  0
 15 16  1  0
 15 17  2  0
 17 18  1  0
 17 19  1  0
 19 20  1  0
 19 21  2  0
 21 22  1  0
 10 23  1  0
 23 24  1  0
 23 25  1  0
 25 26  2  0
  6 27  1  0
 27 28  1  0
 27 29  2  0
 29 30  1  0
 29  2  1  0
 25  7  1  0
 21 12  1  0
M  END
>  <cnnaffinity>  (1) 
-5.29243

>  <filename>  (1) 
O=c1[nH]c(Oc2ccc(Cl)cc2)cn1-c1cccnc1

$$$$
