
     RDKit          3D

 38 41  0  0  0  0  0  0  0  0999 V2000
    4.9481    1.8473   16.9544 H   0  0  0  0  0  0  0  0  0  0  0  0
    5.4243    1.3444   17.7929 C   0  0  0  0  0  0  0  0  0  0  0  0
    6.5826    0.7180   17.5185 N   0  0  0  0  0  0  0  0  0  0  0  0
    7.2041    0.1125   18.5405 C   0  0  0  0  0  0  0  0  0  0  0  0
    8.1181   -0.4381   18.3226 H   0  0  0  0  0  0  0  0  0  0  0  0
    6.7253    0.1234   19.8661 C   0  0  0  0  0  0  0  0  0  0  0  0
    7.4565   -0.4888   20.9344 N   0  0  0  0  0  0  0  0  0  0  0  0
    7.2240   -1.8045   21.2766 C   0  0  0  0  0  0  0  0  0  0  0  0
    6.3743   -2.5249   20.7992 O   0  0  0  0  0  0  0  0  0  0  0  0
    8.2549   -2.1827   22.3201 C   0  0  0  0  0  0  0  0  0  0  0  0
    7.7264   -2.5084   23.2184 H   0  0  0  0  0  0  0  0  0  0  0  0
    8.8009   -3.0525   21.9559 H   0  0  0  0  0  0  0  0  0  0  0  0
    9.1323   -0.9289   22.4976 C   0  0  0  0  0  0  0  0  0  0  0  0
    9.3910   -0.7187   23.5422 H   0  0  0  0  0  0  0  0  0  0  0  0
   10.0705   -1.0448   21.9455 H   0  0  0  0  0  0  0  0  0  0  0  0
    8.3160    0.2436   21.8736 C   0  0  2  0  0  0  0  0  0  0  0  0
    8.9696    0.9065   21.2994 H   0  0  0  0  0  0  0  0  0  0  0  0
    7.5462    1.0781   22.9109 C   0  0  0  0  0  0  0  0  0  0  0  0
    6.8894    0.4199   23.9355 C   0  0  0  0  0  0  0  0  0  0  0  0
    6.9037   -0.6660   23.9878 H   0  0  0  0  0  0  0  0  0  0  0  0
    6.2601    1.1072   25.0026 C   0  0  0  0  0  0  0  0  0  0  0  0
    5.8224    0.5253   25.8073 H   0  0  0  0  0  0  0  0  0  0  0  0
    6.2467    2.4792   25.0416 C   0  0  0  0  0  0  0  0  0  0  0  0
    5.7851    3.0219   25.8637 H   0  0  0  0  0  0  0  0  0  0  0  0
    6.8461    3.2251   23.9827 C   0  0  0  0  0  0  0  0  0  0  0  0
    6.7618    4.6503   23.9707 C   0  0  0  0  0  0  0  0  0  0  0  0
    6.3049    5.1388   24.8259 H   0  0  0  0  0  0  0  0  0  0  0  0
    7.2760    5.3865   22.9316 C   0  0  0  0  0  0  0  0  0  0  0  0
    7.1461    6.4672   22.8884 H   0  0  0  0  0  0  0  0  0  0  0  0
    7.9717    4.7305   21.8872 C   0  0  0  0  0  0  0  0  0  0  0  0
    8.3854    5.3295   21.0791 H   0  0  0  0  0  0  0  0  0  0  0  0
    8.1047    3.3554   21.8903 C   0  0  0  0  0  0  0  0  0  0  0  0
    8.6941    2.8874   21.1102 H   0  0  0  0  0  0  0  0  0  0  0  0
    7.5105    2.5398   22.9069 C   0  0  0  0  0  0  0  0  0  0  0  0
    5.4834    0.7073   20.1188 C   0  0  0  0  0  0  0  0  0  0  0  0
    5.0650    0.6385   21.1244 H   0  0  0  0  0  0  0  0  0  0  0  0
    4.8273    1.3518   19.0612 C   0  0  0  0  0  0  0  0  0  0  0  0
    3.8790    1.8600   19.2109 H   0  0  0  0  0  0  0  0  0  0  0  0
  1  2  1  0
  2  3  2  0
  3  4  1  0
  4  5  1  0
  4  6  2  0
  6  7  1  0
  7  8  1  0
  8  9  2  0
  8 10  1  0
 10 11  1  0
 10 12  1  0
 10 13  1  0
 13 14  1  0
 13 15  1  0
 13 16  1  0
 16 17  1  6
 16 18  1  0
 18 19  2  0
 19 20  1  0
 19 21  1  0
 21 22  1  0
 21 23  2  0
 23 24  1  0
 23 25  1  0
 25 26  2  0
 26 27  1  0
 26 28  1  0
 28 29  1  0
 28 30  2  0
 30 31  1  0
 30 32  1  0
 32 33  1  0
 32 34  2  0
  6 35  1  0
 35 36  1  0
 35 37  2  0
 37 38  1  0
 37  2  1  0
 16  7  1  0
 34 18  1  0
 34 25  1  0
M  END
>  <cnnaffinity>  (1) 
-5.09134

>  <filename>  (1) 
O=C1CC[C@H](c2cccc3ccccc23)N1c1cccnc1

$$$$
