
     RDKit          3D

 31 34  0  0  0  0  0  0  0  0999 V2000
    4.9245    1.7940   16.9857 H   0  0  0  0  0  0  0  0  0  0  0  0
    5.4038    1.2962   17.8277 C   0  0  0  0  0  0  0  0  0  0  0  0
    6.5703    0.6820   17.5693 N   0  0  0  0  0  0  0  0  0  0  0  0
    7.2017    0.0801   18.5830 C   0  0  0  0  0  0  0  0  0  0  0  0
    8.1340   -0.4224   18.3300 H   0  0  0  0  0  0  0  0  0  0  0  0
    6.6976    0.0361   19.8981 C   0  0  0  0  0  0  0  0  0  0  0  0
    7.3732   -0.6556   20.9494 N   0  0  0  0  0  0  0  0  0  0  0  0
    6.8416   -1.6087   21.8563 C   0  0  0  0  0  0  0  0  0  0  0  0
    5.7352   -2.1070   21.8321 O   0  0  0  0  0  0  0  0  0  0  0  0
    7.9638   -1.9381   22.7133 C   0  0  0  0  0  0  0  0  0  0  0  0
    7.8322   -2.7956   23.8570 C   0  0  0  0  0  0  0  0  0  0  0  0
    8.8676   -3.1903   24.5209 N   0  0  0  0  0  0  0  0  0  0  0  0
    8.4994   -4.0120   25.5695 C   0  0  0  0  0  0  0  0  0  0  0  0
    9.3925   -4.5896   26.4875 C   0  0  0  0  0  0  0  0  0  0  0  0
   10.4520   -4.4012   26.3627 H   0  0  0  0  0  0  0  0  0  0  0  0
    8.8948   -5.3738   27.5166 C   0  0  0  0  0  0  0  0  0  0  0  0
    9.5755   -5.7745   28.2563 H   0  0  0  0  0  0  0  0  0  0  0  0
    7.5154   -5.6268   27.6224 C   0  0  0  0  0  0  0  0  0  0  0  0
    7.1540   -6.2697   28.4156 H   0  0  0  0  0  0  0  0  0  0  0  0
    6.6115   -5.0665   26.7254 C   0  0  0  0  0  0  0  0  0  0  0  0
    5.5469   -5.2593   26.8377 H   0  0  0  0  0  0  0  0  0  0  0  0
    7.1077   -4.2473   25.6964 C   0  0  0  0  0  0  0  0  0  0  0  0
    6.2690   -3.3967   24.4356 S   0  0  0  0  0  0  0  0  0  0  0  0
    9.0926   -1.3986   22.1715 C   0  0  0  0  0  0  0  0  0  0  0  0
   10.1291   -1.5228   22.4794 H   0  0  0  0  0  0  0  0  0  0  0  0
    8.7545   -0.6874   21.0709 N   0  0  0  0  0  0  0  0  0  0  0  0
    9.3294   -0.0818   20.5116 H   0  0  0  0  0  0  0  0  0  0  0  0
    5.4630    0.6530   20.1505 C   0  0  0  0  0  0  0  0  0  0  0  0
    5.0285    0.5968   21.1454 H   0  0  0  0  0  0  0  0  0  0  0  0
    4.8193    1.3081   19.0970 C   0  0  0  0  0  0  0  0  0  0  0  0
    3.8834    1.8308   19.2471 H   0  0  0  0  0  0  0  0  0  0  0  0
  1  2  1  0
  2  3  2  0
  3  4  1  0
  4  5  1  0
  4  6  2  0
  6  7  1  0
  7  8  1  0
  8  9  2  0
  8 10  1  0
 10 11  1  0
 11 12  2  0
 12 13  1  0
 13 14  2  0
 14 15  1  0
 14 16  1  0
 16 17  1  0
 16 18  2  0
 18 19  1  0
 18 20  1  0
 20 21  1  0
 20 22  2  0
 22 23  1  0
 10 24  2  0
 24 25  1  0
 24 26  1  0
 26 27  1  0
  6 28  1  0
 28 29  1  0
 28 30  2  0
 30 31  1  0
 30  2  1  0
 26  7  1  0
 23 11  1  0
 22 13  1  0
M  END
>  <cnnaffinity>  (1) 
-5.0331

>  <filename>  (1) 
O=c1c(-c2nc3ccccc3s2)c[nH]n1-c1cccnc1

$$$$
