
     RDKit          3D

 32 34  0  0  0  0  0  0  0  0999 V2000
    4.9586    1.7900   16.9514 H   0  0  0  0  0  0  0  0  0  0  0  0
    5.4539    1.3232   17.8025 C   0  0  0  0  0  0  0  0  0  0  0  0
    6.6403    0.7526   17.5446 N   0  0  0  0  0  0  0  0  0  0  0  0
    7.2588    0.1426   18.5626 C   0  0  0  0  0  0  0  0  0  0  0  0
    8.2341   -0.2949   18.3605 H   0  0  0  0  0  0  0  0  0  0  0  0
    6.7076    0.0184   19.8505 C   0  0  0  0  0  0  0  0  0  0  0  0
    7.4621   -0.7747   20.8746 C   0  0  0  0  0  0  0  0  0  0  0  0
    8.7422   -0.5007   20.9399 N   0  0  0  0  0  0  0  0  0  0  0  0
    9.4939   -1.0677   21.9610 N   0  0  0  0  0  0  0  0  0  0  0  0
   10.8977   -0.8302   22.0189 C   0  0  0  0  0  0  0  0  0  0  0  0
   11.6388   -1.9384   22.0908 N   0  0  0  0  0  0  0  0  0  0  0  0
   12.9665   -1.8202   22.0424 C   0  0  0  0  0  0  0  0  0  0  0  0
   13.5370   -2.7462   22.0226 H   0  0  0  0  0  0  0  0  0  0  0  0
   13.6204   -0.5901   22.0977 C   0  0  0  0  0  0  0  0  0  0  0  0
   14.7000   -0.5640   22.1006 H   0  0  0  0  0  0  0  0  0  0  0  0
   12.8633    0.5748   22.1742 C   0  0  0  0  0  0  0  0  0  0  0  0
   13.3613    1.5477   22.2616 H   0  0  0  0  0  0  0  0  0  0  0  0
   11.4653    0.4630   22.0936 C   0  0  0  0  0  0  0  0  0  0  0  0
   10.5828    1.6777   22.0911 C   0  0  0  0  0  0  0  0  0  0  0  0
   10.0946    1.9509   20.8727 F   0  0  0  0  0  0  0  0  0  0  0  0
    9.5459    1.5464   22.9332 F   0  0  0  0  0  0  0  0  0  0  0  0
   11.2651    2.7762   22.4825 F   0  0  0  0  0  0  0  0  0  0  0  0
    8.9210   -1.9190   22.8885 C   0  0  0  0  0  0  0  0  0  0  0  0
    9.5949   -2.3295   23.6414 H   0  0  0  0  0  0  0  0  0  0  0  0
    7.6218   -2.2356   22.8670 C   0  0  0  0  0  0  0  0  0  0  0  0
    7.1746   -2.8587   23.6287 H   0  0  0  0  0  0  0  0  0  0  0  0
    6.7862   -1.8200   21.7548 C   0  0  0  0  0  0  0  0  0  0  0  0
    5.6729   -2.2930   21.5686 O   0  0  0  0  0  0  0  0  0  0  0  0
    5.4798    0.6465   20.1140 C   0  0  0  0  0  0  0  0  0  0  0  0
    5.0379    0.6235   21.1152 H   0  0  0  0  0  0  0  0  0  0  0  0
    4.8507    1.3129   19.0631 C   0  0  0  0  0  0  0  0  0  0  0  0
    3.9066    1.8244   19.1997 H   0  0  0  0  0  0  0  0  0  0  0  0
  1  2  1  0
  2  3  2  0
  3  4  1  0
  4  5  1  0
  4  6  2  0
  6  7  1  0
  7  8  2  0
  8  9  1  0
  9 10  1  0
 10 11  2  0
 11 12  1  0
 12 13  1  0
 12 14  2  0
 14 15  1  0
 14 16  1  0
 16 17  1  0
 16 18  2  0
 18 19  1  0
 19 20  1  0
 19 21  1  0
 19 22  1  0
  9 23  1  0
 23 24  1  0
 23 25  2  0
 25 26  1  0
 25 27  1  0
 27 28  2  0
  6 29  1  0
 29 30  1  0
 29 31  2  0
 31 32  1  0
 31  2  1  0
 27  7  1  0
 18 10  1  0
M  END
>  <cnnaffinity>  (1) 
-5.99016

>  <filename>  (1) 
O=c1ccn(-c2ncccc2C(F)(F)F)nc1-c1cccnc1

$$$$
