
     RDKit          3D

 42 45  0  0  0  0  0  0  0  0999 V2000
    9.9080    2.0546   24.0880 O   0  0  0  0  0  0  0  0  0  0  0  0
    9.3134    2.4237   23.0962 C   0  0  0  0  0  0  0  0  0  0  0  0
    8.5924    3.6391   23.0500 N   0  0  0  0  0  0  0  0  0  0  0  0
    7.8048    3.7049   21.8718 N   0  0  0  0  0  0  0  0  0  0  0  0
    8.2394    2.6139   21.1122 C   0  0  0  0  0  0  0  0  0  0  0  0
    9.1105    1.8306   21.7597 C   0  0  0  0  0  0  0  0  0  0  0  0
    9.6215    0.5143   21.2296 C   0  0  0  0  0  0  0  0  0  0  0  0
    8.6870   -0.6342   21.4833 C   0  0  0  0  0  0  0  0  0  0  0  0
    8.8837   -1.5459   22.4029 N   0  0  0  0  0  0  0  0  0  0  0  0
    7.6541   -2.1114   22.5502 C   0  0  0  0  0  0  0  0  0  0  0  0
    7.4061   -3.0649   23.6723 C   0  0  0  0  0  0  0  0  0  0  0  0
    7.2511   -2.2948   25.0211 C   0  0  0  0  0  0  0  0  0  0  0  0
    7.3122   -3.2108   26.2204 C   0  0  0  0  0  0  0  0  0  0  0  0
    7.7751   -4.4621   26.1674 C   0  0  0  0  0  0  0  0  0  0  0  0
    8.3065   -5.1008   24.9053 C   0  0  0  0  0  0  0  0  0  0  0  0
    8.5681   -4.0759   23.7937 C   0  0  0  0  0  0  0  0  0  0  0  0
    8.7350   -4.5830   22.8371 H   0  0  0  0  0  0  0  0  0  0  0  0
    9.4847   -3.5077   24.0113 H   0  0  0  0  0  0  0  0  0  0  0  0
    7.5859   -5.8579   24.5615 H   0  0  0  0  0  0  0  0  0  0  0  0
    9.2262   -5.6554   25.1316 H   0  0  0  0  0  0  0  0  0  0  0  0
    7.7573   -5.0831   27.0628 H   0  0  0  0  0  0  0  0  0  0  0  0
    6.9925   -2.7883   27.1727 H   0  0  0  0  0  0  0  0  0  0  0  0
    6.3143   -1.7230   25.0325 H   0  0  0  0  0  0  0  0  0  0  0  0
    8.0558   -1.5442   25.1091 H   0  0  0  0  0  0  0  0  0  0  0  0
    6.4653   -3.5782   23.4380 H   0  0  0  0  0  0  0  0  0  0  0  0
    6.7366   -1.6673   21.7209 N   0  0  0  0  0  0  0  0  0  0  0  0
    7.4131   -0.7283   20.9953 N   0  0  0  0  0  0  0  0  0  0  0  0
    6.7402   -0.0460   19.9378 C   0  0  0  0  0  0  0  0  0  0  0  0
    5.5212    0.5991   20.1900 C   0  0  0  0  0  0  0  0  0  0  0  0
    4.8895    1.2698   19.1380 C   0  0  0  0  0  0  0  0  0  0  0  0
    5.4884    1.2659   17.8709 C   0  0  0  0  0  0  0  0  0  0  0  0
    6.6427    0.6277   17.6166 N   0  0  0  0  0  0  0  0  0  0  0  0
    7.2441   -0.0160   18.6256 C   0  0  0  0  0  0  0  0  0  0  0  0
    8.1681   -0.5375   18.3761 H   0  0  0  0  0  0  0  0  0  0  0  0
    5.0205    1.7774   17.0286 H   0  0  0  0  0  0  0  0  0  0  0  0
    3.9481    1.7925   19.2862 H   0  0  0  0  0  0  0  0  0  0  0  0
    5.1020    0.5660   21.1970 H   0  0  0  0  0  0  0  0  0  0  0  0
    9.7615    0.5882   20.1481 H   0  0  0  0  0  0  0  0  0  0  0  0
   10.5786    0.2736   21.6980 H   0  0  0  0  0  0  0  0  0  0  0  0
    7.8222    2.4093   20.1305 H   0  0  0  0  0  0  0  0  0  0  0  0
    7.9112    4.5976   21.3726 H   0  0  0  0  0  0  0  0  0  0  0  0
    8.0839    3.7409   23.9289 H   0  0  0  0  0  0  0  0  0  0  0  0
  1  2  2  0
  2  3  1  0
  3  4  1  0
  4  5  1  0
  5  6  2  0
  6  7  1  0
  7  8  1  0
  8  9  2  0
  9 10  1  0
 10 11  1  0
 11 12  1  0
 12 13  1  0
 13 14  2  0
 14 15  1  0
 15 16  1  0
 16 17  1  0
 16 18  1  0
 15 19  1  0
 15 20  1  0
 14 21  1  0
 13 22  1  0
 12 23  1  0
 12 24  1  0
 11 25  1  0
 10 26  2  0
 26 27  1  0
 27 28  1  0
 28 29  2  0
 29 30  1  0
 30 31  2  0
 31 32  1  0
 32 33  2  0
 33 34  1  0
 31 35  1  0
 30 36  1  0
 29 37  1  0
  7 38  1  0
  7 39  1  0
  5 40  1  0
  4 41  1  0
  3 42  1  0
  6  2  1  0
 27  8  1  0
 33 28  1  0
 16 11  1  0
M  END
>  <cnnaffinity>  (1) 
-5.9057

>  <filename>  (1) 
O=c1[nH][nH]cc1Cc1nc(C2CC=CCC2)nn1-c1cccnc1

$$$$
