
     RDKit          3D

 36 39  0  0  0  0  0  0  0  0999 V2000
    4.9147    1.7946   16.9845 H   0  0  0  0  0  0  0  0  0  0  0  0
    5.3935    1.3021   17.8266 C   0  0  0  0  0  0  0  0  0  0  0  0
    6.5586    0.6887   17.5608 N   0  0  0  0  0  0  0  0  0  0  0  0
    7.1779    0.0775   18.5780 C   0  0  0  0  0  0  0  0  0  0  0  0
    8.1222   -0.4244   18.3532 H   0  0  0  0  0  0  0  0  0  0  0  0
    6.6574    0.0224   19.8864 C   0  0  0  0  0  0  0  0  0  0  0  0
    7.3567   -0.6795   20.9336 N   0  0  0  0  0  0  0  0  0  0  0  0
    8.6434   -0.2906   21.2625 C   0  0  0  0  0  0  0  0  0  0  0  0
    9.0381    0.5529   20.7013 H   0  0  0  0  0  0  0  0  0  0  0  0
    9.3523   -0.8899   22.2522 C   0  0  0  0  0  0  0  0  0  0  0  0
   10.7144   -0.4715   22.5841 C   0  0  0  0  0  0  0  0  0  0  0  0
   11.7742   -1.3281   22.3477 C   0  0  0  0  0  0  0  0  0  0  0  0
   11.5499   -2.3290   21.9973 H   0  0  0  0  0  0  0  0  0  0  0  0
   13.1141   -0.9357   22.5882 C   0  0  0  0  0  0  0  0  0  0  0  0
   13.9146   -1.6506   22.4076 H   0  0  0  0  0  0  0  0  0  0  0  0
   13.3833    0.3107   23.1094 C   0  0  0  0  0  0  0  0  0  0  0  0
   14.3883    0.6473   23.3462 H   0  0  0  0  0  0  0  0  0  0  0  0
   12.3222    1.2260   23.3787 C   0  0  0  0  0  0  0  0  0  0  0  0
   12.6591    2.4595   23.8785 N   0  0  0  0  0  0  0  0  0  0  0  0
   11.6864    3.3047   24.1288 C   0  0  0  0  0  0  0  0  0  0  0  0
   11.9805    4.2778   24.5262 H   0  0  0  0  0  0  0  0  0  0  0  0
   10.3081    3.0213   23.9326 C   0  0  0  0  0  0  0  0  0  0  0  0
    9.5676    3.7751   24.1724 H   0  0  0  0  0  0  0  0  0  0  0  0
    9.9483    1.7923   23.4385 C   0  0  0  0  0  0  0  0  0  0  0  0
    8.9013    1.5285   23.2873 H   0  0  0  0  0  0  0  0  0  0  0  0
   10.9664    0.8378   23.1208 C   0  0  0  0  0  0  0  0  0  0  0  0
    8.7451   -2.0089   22.9908 C   0  0  0  0  0  0  0  0  0  0  0  0
    9.2031   -2.6753   23.8951 O   0  0  0  0  0  0  0  0  0  0  0  0
    7.4738   -2.3068   22.5859 N   0  0  0  0  0  0  0  0  0  0  0  0
    7.0279   -3.0569   23.0695 H   0  0  0  0  0  0  0  0  0  0  0  0
    6.7279   -1.7470   21.6105 C   0  0  0  0  0  0  0  0  0  0  0  0
    5.6320   -2.1918   21.3688 O   0  0  0  0  0  0  0  0  0  0  0  0
    5.4405    0.6545   20.1500 C   0  0  0  0  0  0  0  0  0  0  0  0
    5.0173    0.6111   21.1513 H   0  0  0  0  0  0  0  0  0  0  0  0
    4.8070    1.3184   19.0963 C   0  0  0  0  0  0  0  0  0  0  0  0
    3.8737    1.8433   19.2500 H   0  0  0  0  0  0  0  0  0  0  0  0
  1  2  1  0
  2  3  2  0
  3  4  1  0
  4  5  1  0
  4  6  2  0
  6  7  1  0
  7  8  1  0
  8  9  1  0
  8 10  2  0
 10 11  1  0
 11 12  2  0
 12 13  1  0
 12 14  1  0
 14 15  1  0
 14 16  2  0
 16 17  1  0
 16 18  1  0
 18 19  2  0
 19 20  1  0
 20 21  1  0
 20 22  2  0
 22 23  1  0
 22 24  1  0
 24 25  1  0
 24 26  2  0
 10 27  1  0
 27 28  2  0
 27 29  1  0
 29 30  1  0
 29 31  1  0
 31 32  2  0
  6 33  1  0
 33 34  1  0
 33 35  2  0
 35 36  1  0
 35  2  1  0
 31  7  1  0
 26 11  1  0
 26 18  1  0
M  END
>  <cnnaffinity>  (1) 
-5.69855

>  <filename>  (1) 
O=c1[nH]c(=O)n(-c2cccnc2)cc1-c1cccc2ncccc12

$$$$
