
     RDKit          3D

 44 47  0  0  0  0  0  0  0  0999 V2000
   13.1865    1.5795   24.4793 O   0  0  0  0  0  0  0  0  0  0  0  0
   12.5233    1.2755   23.5041 C   0  0  0  0  0  0  0  0  0  0  0  0
   12.7609    0.1673   22.5957 C   0  0  0  0  0  0  0  0  0  0  0  0
   11.8404   -0.1535   21.6445 C   0  0  0  0  0  0  0  0  0  0  0  0
   10.6391    0.6206   21.4843 C   0  0  0  0  0  0  0  0  0  0  0  0
    9.5378    0.1178   20.5848 C   0  0  0  0  0  0  0  0  0  0  0  0
    8.4911   -0.6953   21.2912 C   0  0  0  0  0  0  0  0  0  0  0  0
    8.6872   -1.4761   22.3359 N   0  0  0  0  0  0  0  0  0  0  0  0
    7.4746   -2.0417   22.5428 C   0  0  0  0  0  0  0  0  0  0  0  0
    7.3115   -3.0921   23.6188 C   0  0  0  0  0  0  0  0  0  0  0  0
    5.9296   -3.0586   24.3158 C   0  0  0  0  0  0  0  0  0  0  0  0
    4.8465   -3.7397   23.5071 C   0  0  0  0  0  0  0  0  0  0  0  0
    5.1009   -4.5240   22.4517 C   0  0  0  0  0  0  0  0  0  0  0  0
    6.5013   -4.8717   21.9902 C   0  0  0  0  0  0  0  0  0  0  0  0
    7.5689   -4.5111   23.0404 C   0  0  0  0  0  0  0  0  0  0  0  0
    7.5389   -5.2355   23.8669 H   0  0  0  0  0  0  0  0  0  0  0  0
    8.5776   -4.5661   22.6118 H   0  0  0  0  0  0  0  0  0  0  0  0
    6.6937   -4.3249   21.0568 H   0  0  0  0  0  0  0  0  0  0  0  0
    6.5694   -5.9382   21.7342 H   0  0  0  0  0  0  0  0  0  0  0  0
    4.2726   -4.9170   21.8637 H   0  0  0  0  0  0  0  0  0  0  0  0
    3.8166   -3.5435   23.8054 H   0  0  0  0  0  0  0  0  0  0  0  0
    6.0180   -3.5583   25.2931 H   0  0  0  0  0  0  0  0  0  0  0  0
    5.6415   -2.0255   24.5503 H   0  0  0  0  0  0  0  0  0  0  0  0
    8.0952   -2.8567   24.3464 H   0  0  0  0  0  0  0  0  0  0  0  0
    6.5391   -1.6632   21.6872 N   0  0  0  0  0  0  0  0  0  0  0  0
    7.2006   -0.8189   20.8557 N   0  0  0  0  0  0  0  0  0  0  0  0
    6.5211   -0.1187   19.8157 C   0  0  0  0  0  0  0  0  0  0  0  0
    5.3408    0.5831   20.0814 C   0  0  0  0  0  0  0  0  0  0  0  0
    4.7689    1.3278   19.0460 C   0  0  0  0  0  0  0  0  0  0  0  0
    5.3825    1.3342   17.7884 C   0  0  0  0  0  0  0  0  0  0  0  0
    6.5002    0.6436   17.5186 N   0  0  0  0  0  0  0  0  0  0  0  0
    7.0493   -0.0639   18.5117 C   0  0  0  0  0  0  0  0  0  0  0  0
    7.9663   -0.5999   18.2674 H   0  0  0  0  0  0  0  0  0  0  0  0
    4.9597    1.9061   16.9668 H   0  0  0  0  0  0  0  0  0  0  0  0
    3.8672    1.9063   19.2066 H   0  0  0  0  0  0  0  0  0  0  0  0
    4.9110    0.5442   21.0815 H   0  0  0  0  0  0  0  0  0  0  0  0
    9.0670    0.9584   20.0659 H   0  0  0  0  0  0  0  0  0  0  0  0
    9.9600   -0.5546   19.8321 H   0  0  0  0  0  0  0  0  0  0  0  0
   10.4560    1.7195   22.2671 C   0  0  0  0  0  0  0  0  0  0  0  0
   11.3942    2.0426   23.2133 N   0  0  0  0  0  0  0  0  0  0  0  0
   11.2900    2.7685   23.9053 H   0  0  0  0  0  0  0  0  0  0  0  0
    9.5856    2.3734   22.1865 H   0  0  0  0  0  0  0  0  0  0  0  0
   12.0173   -1.0007   20.9778 H   0  0  0  0  0  0  0  0  0  0  0  0
   13.6780   -0.3811   22.7482 H   0  0  0  0  0  0  0  0  0  0  0  0
  1  2  2  0
  2  3  1  0
  3  4  2  0
  4  5  1  0
  5  6  1  0
  6  7  1  0
  7  8  2  0
  8  9  1  0
  9 10  1  0
 10 11  1  0
 11 12  1  0
 12 13  2  0
 13 14  1  0
 14 15  1  0
 15 16  1  0
 15 17  1  0
 14 18  1  0
 14 19  1  0
 13 20  1  0
 12 21  1  0
 11 22  1  0
 11 23  1  0
 10 24  1  0
  9 25  2  0
 25 26  1  0
 26 27  1  0
 27 28  2  0
 28 29  1  0
 29 30  2  0
 30 31  1  0
 31 32  2  0
 32 33  1  0
 30 34  1  0
 29 35  1  0
 28 36  1  0
  6 37  1  0
  6 38  1  0
  5 39  2  0
 39 40  1  0
 40 41  1  0
 39 42  1  0
  4 43  1  0
  3 44  1  0
 40  2  1  0
 26  7  1  0
 32 27  1  0
 15 10  1  0
M  END
>  <cnnaffinity>  (1) 
-6.14517

>  <filename>  (1) 
O=c1ccc(Cc2nc(C3CC=CCC3)nn2-c2cccnc2)c[nH]1

$$$$
