
     RDKit          3D

 30 32  0  0  0  0  0  0  0  0999 V2000
    4.9670    1.7883   16.9836 H   0  0  0  0  0  0  0  0  0  0  0  0
    5.4232    1.2819   17.8308 C   0  0  0  0  0  0  0  0  0  0  0  0
    6.5896    0.6576   17.5884 N   0  0  0  0  0  0  0  0  0  0  0  0
    7.2010    0.0539   18.6147 C   0  0  0  0  0  0  0  0  0  0  0  0
    8.1659   -0.4132   18.4306 H   0  0  0  0  0  0  0  0  0  0  0  0
    6.6611   -0.0002   19.9107 C   0  0  0  0  0  0  0  0  0  0  0  0
    7.3663   -0.7009   20.9357 N   0  0  0  0  0  0  0  0  0  0  0  0
    8.7294   -0.5812   20.9200 N   0  0  0  0  0  0  0  0  0  0  0  0
    9.4119   -1.1212   21.8985 C   0  0  0  0  0  0  0  0  0  0  0  0
   10.8773   -0.9040   21.9297 C   0  0  0  0  0  0  0  0  0  0  0  0
   11.7192   -2.0287   22.0177 C   0  0  0  0  0  0  0  0  0  0  0  0
   11.2552   -3.0006   22.1654 H   0  0  0  0  0  0  0  0  0  0  0  0
   13.1024   -1.8879   21.9639 C   0  0  0  0  0  0  0  0  0  0  0  0
   13.7432   -2.7622   21.9167 H   0  0  0  0  0  0  0  0  0  0  0  0
   13.6631   -0.6100   22.0237 C   0  0  0  0  0  0  0  0  0  0  0  0
   14.7375   -0.4935   22.0713 H   0  0  0  0  0  0  0  0  0  0  0  0
   12.8450    0.5217   22.0768 C   0  0  0  0  0  0  0  0  0  0  0  0
   13.2668    1.5143   22.1909 H   0  0  0  0  0  0  0  0  0  0  0  0
   11.4605    0.3729   21.9420 C   0  0  0  0  0  0  0  0  0  0  0  0
   10.4852    1.8029   21.8723 Cl  0  0  0  0  0  0  0  0  0  0  0  0
    8.8003   -1.9985   22.9592 C   0  0  0  0  0  0  0  0  0  0  0  0
    9.4354   -2.5756   23.8354 O   0  0  0  0  0  0  0  0  0  0  0  0
    7.3512   -2.1284   22.8444 C   0  0  0  0  0  0  0  0  0  0  0  0
    6.8523   -2.7414   23.5823 H   0  0  0  0  0  0  0  0  0  0  0  0
    6.7004   -1.4790   21.8652 C   0  0  0  0  0  0  0  0  0  0  0  0
    5.6235   -1.5465   21.7153 H   0  0  0  0  0  0  0  0  0  0  0  0
    5.4425    0.6541   20.1555 C   0  0  0  0  0  0  0  0  0  0  0  0
    5.0346    0.6788   21.1656 H   0  0  0  0  0  0  0  0  0  0  0  0
    4.8144    1.3079   19.0901 C   0  0  0  0  0  0  0  0  0  0  0  0
    3.8774    1.8414   19.2247 H   0  0  0  0  0  0  0  0  0  0  0  0
  1  2  1  0
  2  3  2  0
  3  4  1  0
  4  5  1  0
  4  6  2  0
  6  7  1  0
  7  8  1  0
  8  9  2  0
  9 10  1  0
 10 11  2  0
 11 12  1  0
 11 13  1  0
 13 14  1  0
 13 15  2  0
 15 16  1  0
 15 17  1  0
 17 18  1  0
 17 19  2  0
 19 20  1  0
  9 21  1  0
 21 22  2  0
 21 23  1  0
 23 24  1  0
 23 25  2  0
 25 26  1  0
  6 27  1  0
 27 28  1  0
 27 29  2  0
 29 30  1  0
 29  2  1  0
 25  7  1  0
 19 10  1  0
M  END
>  <cnnaffinity>  (1) 
-5.77664

>  <filename>  (1) 
O=c1ccn(-c2cccnc2)nc1-c1ccccc1Cl

$$$$
