
     RDKit          3D

 48 51  0  0  0  0  0  0  0  0999 V2000
   11.9602   -1.2535   21.2239 O   0  0  0  0  0  0  0  0  0  0  0  0
   11.8472   -0.1838   21.8013 C   0  0  0  0  0  0  0  0  0  0  0  0
   12.9474    0.3026   22.7366 C   0  0  0  0  0  0  0  0  0  0  0  0
   12.5023    1.2872   23.8274 C   0  0  0  0  0  0  0  0  0  0  0  0
   11.6144    2.3658   23.1917 C   0  0  0  0  0  0  0  0  0  0  0  0
   10.3959    1.7154   22.5360 C   0  0  0  0  0  0  0  0  0  0  0  0
   10.7822    0.6747   21.5702 N   0  0  0  0  0  0  0  0  0  0  0  0
    9.6932    0.2095   20.7099 C   0  0  0  0  0  0  0  0  0  0  0  0
    8.6394   -0.6126   21.3848 C   0  0  0  0  0  0  0  0  0  0  0  0
    8.8252   -1.4511   22.3777 N   0  0  0  0  0  0  0  0  0  0  0  0
    7.6023   -1.9853   22.5689 C   0  0  0  0  0  0  0  0  0  0  0  0
    7.3679   -2.9697   23.6646 C   0  0  0  0  0  0  0  0  0  0  0  0
    6.9541   -4.3488   23.0896 C   0  0  0  0  0  0  0  0  0  0  0  0
    6.4445   -5.2809   24.1587 C   0  0  0  0  0  0  0  0  0  0  0  0
    6.0528   -4.8744   25.3710 C   0  0  0  0  0  0  0  0  0  0  0  0
    6.1402   -3.4382   25.8414 C   0  0  0  0  0  0  0  0  0  0  0  0
    6.3162   -2.4535   24.6756 C   0  0  0  0  0  0  0  0  0  0  0  0
    6.6002   -1.4631   25.0544 H   0  0  0  0  0  0  0  0  0  0  0  0
    5.3689   -2.3323   24.1367 H   0  0  0  0  0  0  0  0  0  0  0  0
    5.2425   -3.1777   26.4164 H   0  0  0  0  0  0  0  0  0  0  0  0
    6.9788   -3.3416   26.5507 H   0  0  0  0  0  0  0  0  0  0  0  0
    5.6644   -5.6009   26.0852 H   0  0  0  0  0  0  0  0  0  0  0  0
    6.3776   -6.3310   23.8813 H   0  0  0  0  0  0  0  0  0  0  0  0
    6.1739   -4.1991   22.3258 H   0  0  0  0  0  0  0  0  0  0  0  0
    7.7994   -4.8130   22.5620 H   0  0  0  0  0  0  0  0  0  0  0  0
    8.3388   -3.0618   24.1723 H   0  0  0  0  0  0  0  0  0  0  0  0
    6.6705   -1.5520   21.7390 N   0  0  0  0  0  0  0  0  0  0  0  0
    7.3475   -0.6844   20.9472 N   0  0  0  0  0  0  0  0  0  0  0  0
    6.6647   -0.0010   19.9040 C   0  0  0  0  0  0  0  0  0  0  0  0
    5.4437    0.6365   20.1626 C   0  0  0  0  0  0  0  0  0  0  0  0
    4.8119    1.3069   19.1115 C   0  0  0  0  0  0  0  0  0  0  0  0
    5.4003    1.2942   17.8405 C   0  0  0  0  0  0  0  0  0  0  0  0
    6.5553    0.6672   17.5797 N   0  0  0  0  0  0  0  0  0  0  0  0
    7.1679    0.0413   18.5900 C   0  0  0  0  0  0  0  0  0  0  0  0
    8.1099   -0.4447   18.3462 H   0  0  0  0  0  0  0  0  0  0  0  0
    4.9324    1.7982   16.9964 H   0  0  0  0  0  0  0  0  0  0  0  0
    3.8794    1.8409   19.2576 H   0  0  0  0  0  0  0  0  0  0  0  0
    5.0215    0.6012   21.1660 H   0  0  0  0  0  0  0  0  0  0  0  0
    9.2241    1.0833   20.2470 H   0  0  0  0  0  0  0  0  0  0  0  0
   10.1077   -0.4419   19.9354 H   0  0  0  0  0  0  0  0  0  0  0  0
    9.7313    1.2671   23.2950 H   0  0  0  0  0  0  0  0  0  0  0  0
    9.8055    2.4694   21.9939 H   0  0  0  0  0  0  0  0  0  0  0  0
   11.2815    3.1060   23.9317 H   0  0  0  0  0  0  0  0  0  0  0  0
   12.1754    2.9098   22.4180 H   0  0  0  0  0  0  0  0  0  0  0  0
   11.9416    0.7619   24.6173 H   0  0  0  0  0  0  0  0  0  0  0  0
   13.3770    1.7317   24.3155 H   0  0  0  0  0  0  0  0  0  0  0  0
   13.4225   -0.6002   23.1319 H   0  0  0  0  0  0  0  0  0  0  0  0
   13.6769    0.7766   22.0639 H   0  0  0  0  0  0  0  0  0  0  0  0
  1  2  2  0
  2  3  1  0
  3  4  1  0
  4  5  1  0
  5  6  1  0
  6  7  1  0
  7  8  1  0
  8  9  1  0
  9 10  2  0
 10 11  1  0
 11 12  1  0
 12 13  1  0
 13 14  1  0
 14 15  2  0
 15 16  1  0
 16 17  1  0
 17 18  1  0
 17 19  1  0
 16 20  1  0
 16 21  1  0
 15 22  1  0
 14 23  1  0
 13 24  1  0
 13 25  1  0
 12 26  1  0
 11 27  2  0
 27 28  1  0
 28 29  1  0
 29 30  2  0
 30 31  1  0
 31 32  2  0
 32 33  1  0
 33 34  2  0
 34 35  1  0
 32 36  1  0
 31 37  1  0
 30 38  1  0
  8 39  1  0
  8 40  1  0
  6 41  1  0
  6 42  1  0
  5 43  1  0
  5 44  1  0
  4 45  1  0
  4 46  1  0
  3 47  1  0
  3 48  1  0
  7  2  1  0
 28  9  1  0
 34 29  1  0
 17 12  1  0
M  END
>  <cnnaffinity>  (1) 
-6.47995

>  <filename>  (1) 
O=C1CCCCN1Cc1nc(C2CC=CCC2)nn1-c1cccnc1

$$$$
