
     RDKit          3D

 46 49  0  0  0  0  0  0  0  0999 V2000
   10.5610    4.4543   23.0834 O   0  0  0  0  0  0  0  0  0  0  0  0
    9.3547    4.6622   23.1558 C   0  0  0  0  0  0  0  0  0  0  0  0
    8.7817    5.9860   23.3838 C   0  0  0  0  0  0  0  0  0  0  0  0
    7.4402    6.1975   23.4613 C   0  0  0  0  0  0  0  0  0  0  0  0
    6.5442    5.0911   23.3100 C   0  0  0  0  0  0  0  0  0  0  0  0
    7.0465    3.8429   23.1024 C   0  0  0  0  0  0  0  0  0  0  0  0
    8.4064    3.6074   23.0626 N   0  0  0  0  0  0  0  0  0  0  0  0
    8.8979    2.2598   22.7620 C   0  0  0  0  0  0  0  0  0  0  0  0
    9.0391    2.0234   21.2571 C   0  0  0  0  0  0  0  0  0  0  0  0
    9.5368    0.6055   20.9257 C   0  0  0  0  0  0  0  0  0  0  0  0
    8.6330   -0.4746   21.4197 C   0  0  0  0  0  0  0  0  0  0  0  0
    8.8605   -1.2827   22.4293 N   0  0  0  0  0  0  0  0  0  0  0  0
    7.6838   -1.9520   22.5714 C   0  0  0  0  0  0  0  0  0  0  0  0
    7.4708   -2.9702   23.6299 C   0  0  0  0  0  0  0  0  0  0  0  0
    6.2308   -3.6362   23.7259 C   0  0  0  0  0  0  0  0  0  0  0  0
    6.0402   -4.5908   24.7230 C   0  0  0  0  0  0  0  0  0  0  0  0
    4.5092   -5.4080   24.8321 Cl  0  0  0  0  0  0  0  0  0  0  0  0
    7.0496   -4.9068   25.6363 C   0  0  0  0  0  0  0  0  0  0  0  0
    8.2767   -4.2423   25.5378 C   0  0  0  0  0  0  0  0  0  0  0  0
    8.4958   -3.2819   24.5486 C   0  0  0  0  0  0  0  0  0  0  0  0
    9.4588   -2.7762   24.4912 H   0  0  0  0  0  0  0  0  0  0  0  0
    9.0676   -4.4809   26.2438 H   0  0  0  0  0  0  0  0  0  0  0  0
    6.8737   -5.6553   26.4047 H   0  0  0  0  0  0  0  0  0  0  0  0
    5.4240   -3.4069   23.0321 H   0  0  0  0  0  0  0  0  0  0  0  0
    6.7514   -1.6011   21.6994 N   0  0  0  0  0  0  0  0  0  0  0  0
    7.3688   -0.6635   20.9424 N   0  0  0  0  0  0  0  0  0  0  0  0
    6.6621    0.0093   19.9035 C   0  0  0  0  0  0  0  0  0  0  0  0
    5.4419    0.6430   20.1680 C   0  0  0  0  0  0  0  0  0  0  0  0
    4.8118    1.3095   19.1109 C   0  0  0  0  0  0  0  0  0  0  0  0
    5.4021    1.2950   17.8396 C   0  0  0  0  0  0  0  0  0  0  0  0
    6.5638    0.6755   17.5793 N   0  0  0  0  0  0  0  0  0  0  0  0
    7.1730    0.0569   18.5963 C   0  0  0  0  0  0  0  0  0  0  0  0
    8.1162   -0.4353   18.3734 H   0  0  0  0  0  0  0  0  0  0  0  0
    4.9148    1.7812   16.9963 H   0  0  0  0  0  0  0  0  0  0  0  0
    3.8774    1.8414   19.2616 H   0  0  0  0  0  0  0  0  0  0  0  0
    5.0141    0.6110   21.1744 H   0  0  0  0  0  0  0  0  0  0  0  0
   10.5195    0.4316   21.3749 H   0  0  0  0  0  0  0  0  0  0  0  0
    9.6493    0.5054   19.8434 H   0  0  0  0  0  0  0  0  0  0  0  0
    8.0730    2.2004   20.7699 H   0  0  0  0  0  0  0  0  0  0  0  0
    9.7471    2.7527   20.8578 H   0  0  0  0  0  0  0  0  0  0  0  0
    9.8614    2.1305   23.2593 H   0  0  0  0  0  0  0  0  0  0  0  0
    8.2170    1.5217   23.2055 H   0  0  0  0  0  0  0  0  0  0  0  0
    6.4032    2.9701   22.9599 H   0  0  0  0  0  0  0  0  0  0  0  0
    5.4703    5.2449   23.3533 H   0  0  0  0  0  0  0  0  0  0  0  0
    7.0365    7.1993   23.6302 H   0  0  0  0  0  0  0  0  0  0  0  0
    9.5216    6.7666   23.4828 H   0  0  0  0  0  0  0  0  0  0  0  0
  1  2  2  0
  2  3  1  0
  3  4  2  0
  4  5  1  0
  5  6  2  0
  6  7  1  0
  7  8  1  0
  8  9  1  0
  9 10  1  0
 10 11  1  0
 11 12  2  0
 12 13  1  0
 13 14  1  0
 14 15  2  0
 15 16  1  0
 16 17  1  0
 16 18  2  0
 18 19  1  0
 19 20  2  0
 20 21  1  0
 19 22  1  0
 18 23  1  0
 15 24  1  0
 13 25  2  0
 25 26  1  0
 26 27  1  0
 27 28  2  0
 28 29  1  0
 29 30  2  0
 30 31  1  0
 31 32  2  0
 32 33  1  0
 30 34  1  0
 29 35  1  0
 28 36  1  0
 10 37  1  0
 10 38  1  0
  9 39  1  0
  9 40  1  0
  8 41  1  0
  8 42  1  0
  6 43  1  0
  5 44  1  0
  4 45  1  0
  3 46  1  0
  7  2  1  0
 26 11  1  0
 32 27  1  0
 20 14  1  0
M  END
>  <cnnaffinity>  (1) 
-6.20867

>  <filename>  (1) 
O=c1ccccn1CCCc1nc(-c2cccc(Cl)c2)nn1-c1cccnc1

$$$$
