
     RDKit          3D

 34 36  0  0  0  0  0  0  0  0999 V2000
    4.9504    1.8393   16.8225 H   0  0  0  0  0  0  0  0  0  0  0  0
    5.4309    1.3540   17.6690 C   0  0  0  0  0  0  0  0  0  0  0  0
    6.5789    0.7075   17.4118 N   0  0  0  0  0  0  0  0  0  0  0  0
    7.2200    0.1260   18.4343 C   0  0  0  0  0  0  0  0  0  0  0  0
    8.1533   -0.3794   18.1932 H   0  0  0  0  0  0  0  0  0  0  0  0
    6.7418    0.1553   19.7608 C   0  0  0  0  0  0  0  0  0  0  0  0
    7.4304   -0.4573   20.8713 N   0  0  0  0  0  0  0  0  0  0  0  0
    6.6853   -1.2287   21.7587 C   0  0  0  0  0  0  0  0  0  0  0  0
    5.6277   -1.3398   21.5151 H   0  0  0  0  0  0  0  0  0  0  0  0
    7.2217   -1.8102   22.8460 C   0  0  0  0  0  0  0  0  0  0  0  0
    6.4784   -2.8047   23.7041 C   0  0  0  0  0  0  0  0  0  0  0  0
    6.6076   -2.5441   24.7634 H   0  0  0  0  0  0  0  0  0  0  0  0
    5.3961   -2.7702   23.5152 H   0  0  0  0  0  0  0  0  0  0  0  0
    7.0023   -4.2189   23.4644 C   0  0  0  0  0  0  0  0  0  0  0  0
    7.9839   -4.7582   24.3173 C   0  0  0  0  0  0  0  0  0  0  0  0
    8.3104   -4.1570   25.1645 H   0  0  0  0  0  0  0  0  0  0  0  0
    8.5456   -6.0152   24.0820 C   0  0  0  0  0  0  0  0  0  0  0  0
    9.2925   -6.4288   24.7567 H   0  0  0  0  0  0  0  0  0  0  0  0
    8.1406   -6.7534   22.9646 C   0  0  0  0  0  0  0  0  0  0  0  0
    8.5858   -7.7204   22.7480 H   0  0  0  0  0  0  0  0  0  0  0  0
    7.1572   -6.2579   22.1117 C   0  0  0  0  0  0  0  0  0  0  0  0
    6.8027   -6.8503   21.2741 H   0  0  0  0  0  0  0  0  0  0  0  0
    6.6078   -4.9959   22.3589 C   0  0  0  0  0  0  0  0  0  0  0  0
    5.4876   -4.3763   21.1741 Cl  0  0  0  0  0  0  0  0  0  0  0  0
    8.6397   -1.5685   23.1578 C   0  0  0  0  0  0  0  0  0  0  0  0
    9.2493   -1.9248   24.1469 O   0  0  0  0  0  0  0  0  0  0  0  0
    9.3124   -0.8502   22.2035 N   0  0  0  0  0  0  0  0  0  0  0  0
   10.2697   -0.6451   22.4052 H   0  0  0  0  0  0  0  0  0  0  0  0
    8.8010   -0.2002   21.1270 C   0  0  0  0  0  0  0  0  0  0  0  0
    9.5030    0.5180   20.4582 O   0  0  0  0  0  0  0  0  0  0  0  0
    5.5245    0.8004   20.0034 C   0  0  0  0  0  0  0  0  0  0  0  0
    5.1220    0.8254   21.0157 H   0  0  0  0  0  0  0  0  0  0  0  0
    4.8632    1.4187   18.9433 C   0  0  0  0  0  0  0  0  0  0  0  0
    3.9245    1.9367   19.0989 H   0  0  0  0  0  0  0  0  0  0  0  0
  1  2  1  0
  2  3  2  0
  3  4  1  0
  4  5  1  0
  4  6  2  0
  6  7  1  0
  7  8  1  0
  8  9  1  0
  8 10  2  0
 10 11  1  0
 11 12  1  0
 11 13  1  0
 11 14  1  0
 14 15  2  0
 15 16  1  0
 15 17  1  0
 17 18  1  0
 17 19  2  0
 19 20  1  0
 19 21  1  0
 21 22  1  0
 21 23  2  0
 23 24  1  0
 10 25  1  0
 25 26  2  0
 25 27  1  0
 27 28  1  0
 27 29  1  0
 29 30  2  0
  6 31  1  0
 31 32  1  0
 31 33  2  0
 33 34  1  0
 33  2  1  0
 29  7  1  0
 23 14  1  0
M  END
>  <cnnaffinity>  (1) 
-5.40111

>  <filename>  (1) 
O=c1[nH]c(=O)n(-c2cccnc2)cc1Cc1ccccc1Cl

$$$$
