
     RDKit          3D

 32 35  0  0  0  0  0  0  0  0999 V2000
    5.0035    1.8547   16.9364 H   0  0  0  0  0  0  0  0  0  0  0  0
    5.4761    1.3282   17.7624 C   0  0  0  0  0  0  0  0  0  0  0  0
    6.6534    0.7355   17.4950 N   0  0  0  0  0  0  0  0  0  0  0  0
    7.2544    0.0766   18.4920 C   0  0  0  0  0  0  0  0  0  0  0  0
    8.2143   -0.3850   18.2675 H   0  0  0  0  0  0  0  0  0  0  0  0
    6.7066   -0.0611   19.7865 C   0  0  0  0  0  0  0  0  0  0  0  0
    7.3695   -0.8209   20.7882 N   0  0  0  0  0  0  0  0  0  0  0  0
    6.8265   -1.7327   21.7208 C   0  0  0  0  0  0  0  0  0  0  0  0
    5.7039   -2.1995   21.6525 O   0  0  0  0  0  0  0  0  0  0  0  0
    7.9374   -1.9873   22.6751 C   0  0  0  0  0  0  0  0  0  0  0  0
    7.7699   -2.7121   23.9392 C   0  0  0  0  0  0  0  0  0  0  0  0
    6.6484   -2.6186   24.7076 C   0  0  0  0  0  0  0  0  0  0  0  0
    5.8144   -1.9571   24.5187 H   0  0  0  0  0  0  0  0  0  0  0  0
    6.6112   -3.6692   26.0716 S   0  0  0  0  0  0  0  0  0  0  0  0
    8.1789   -4.2962   25.6684 C   0  0  0  0  0  0  0  0  0  0  0  0
    8.8758   -5.3026   26.3583 C   0  0  0  0  0  0  0  0  0  0  0  0
    8.4209   -5.8153   27.2007 H   0  0  0  0  0  0  0  0  0  0  0  0
   10.1586   -5.6288   25.9414 C   0  0  0  0  0  0  0  0  0  0  0  0
   10.7084   -6.4083   26.4625 H   0  0  0  0  0  0  0  0  0  0  0  0
   10.7368   -4.9774   24.8343 C   0  0  0  0  0  0  0  0  0  0  0  0
   11.7327   -5.2701   24.5187 H   0  0  0  0  0  0  0  0  0  0  0  0
   10.0300   -4.0135   24.1246 C   0  0  0  0  0  0  0  0  0  0  0  0
   10.4841   -3.5289   23.2638 H   0  0  0  0  0  0  0  0  0  0  0  0
    8.7139   -3.6700   24.5193 C   0  0  0  0  0  0  0  0  0  0  0  0
    9.0248   -1.3699   22.1457 C   0  0  0  0  0  0  0  0  0  0  0  0
   10.0199   -1.3204   22.5635 H   0  0  0  0  0  0  0  0  0  0  0  0
    8.7619   -0.7479   20.9253 N   0  0  0  0  0  0  0  0  0  0  0  0
    9.1183    0.1997   20.7899 H   0  0  0  0  0  0  0  0  0  0  0  0
    5.4876    0.5847   20.0568 C   0  0  0  0  0  0  0  0  0  0  0  0
    5.0597    0.5532   21.0577 H   0  0  0  0  0  0  0  0  0  0  0  0
    4.8665    1.2893   19.0206 C   0  0  0  0  0  0  0  0  0  0  0  0
    3.9340    1.8226   19.1817 H   0  0  0  0  0  0  0  0  0  0  0  0
  1  2  1  0
  2  3  2  0
  3  4  1  0
  4  5  1  0
  4  6  2  0
  6  7  1  0
  7  8  1  0
  8  9  2  0
  8 10  1  0
 10 11  1  0
 11 12  2  0
 12 13  1  0
 12 14  1  0
 14 15  1  0
 15 16  2  0
 16 17  1  0
 16 18  1  0
 18 19  1  0
 18 20  2  0
 20 21  1  0
 20 22  1  0
 22 23  1  0
 22 24  2  0
 10 25  2  0
 25 26  1  0
 25 27  1  0
 27 28  1  0
  6 29  1  0
 29 30  1  0
 29 31  2  0
 31 32  1  0
 31  2  1  0
 27  7  1  0
 24 11  1  0
 24 15  1  0
M  END
>  <cnnaffinity>  (1) 
-5.33373

>  <filename>  (1) 
O=c1c(-c2csc3ccccc23)c[nH]n1-c1cccnc1

$$$$
