
     RDKit          3D

 29 31  0  0  0  0  0  0  0  0999 V2000
    4.9129    1.7786   16.9968 H   0  0  0  0  0  0  0  0  0  0  0  0
    5.4017    1.2941   17.8398 C   0  0  0  0  0  0  0  0  0  0  0  0
    6.5665    0.6768   17.5813 N   0  0  0  0  0  0  0  0  0  0  0  0
    7.1781    0.0620   18.6008 C   0  0  0  0  0  0  0  0  0  0  0  0
    8.1181   -0.4371   18.3762 H   0  0  0  0  0  0  0  0  0  0  0  0
    6.6599    0.0026   19.9083 C   0  0  0  0  0  0  0  0  0  0  0  0
    7.3384   -0.6977   20.9532 N   0  0  0  0  0  0  0  0  0  0  0  0
    6.5478   -1.4416   21.8021 N   0  0  0  0  0  0  0  0  0  0  0  0
    7.1199   -2.0898   22.7880 C   0  0  0  0  0  0  0  0  0  0  0  0
    6.2386   -2.8538   23.7201 C   0  0  0  0  0  0  0  0  0  0  0  0
    5.1522   -3.5818   23.2213 C   0  0  0  0  0  0  0  0  0  0  0  0
    4.9666   -3.5787   22.1521 H   0  0  0  0  0  0  0  0  0  0  0  0
    4.3260   -4.3105   23.9850 N   0  0  0  0  0  0  0  0  0  0  0  0
    4.5651   -4.3154   25.2865 C   0  0  0  0  0  0  0  0  0  0  0  0
    3.4782   -5.2310   26.2809 Cl  0  0  0  0  0  0  0  0  0  0  0  0
    5.6195   -3.6383   25.9137 C   0  0  0  0  0  0  0  0  0  0  0  0
    5.7509   -3.6904   26.9886 H   0  0  0  0  0  0  0  0  0  0  0  0
    6.4732   -2.9001   25.1102 C   0  0  0  0  0  0  0  0  0  0  0  0
    7.3157   -2.3673   25.5495 H   0  0  0  0  0  0  0  0  0  0  0  0
    8.6209   -2.0886   23.0211 C   0  0  0  0  0  0  0  0  0  0  0  0
    9.1891   -2.7229   23.9051 O   0  0  0  0  0  0  0  0  0  0  0  0
    9.3625   -1.2572   22.0848 C   0  0  0  0  0  0  0  0  0  0  0  0
   10.4365   -1.2187   22.2152 H   0  0  0  0  0  0  0  0  0  0  0  0
    8.7124   -0.6092   21.1063 C   0  0  0  0  0  0  0  0  0  0  0  0
    9.2380    0.0349   20.3956 H   0  0  0  0  0  0  0  0  0  0  0  0
    5.4413    0.6459   20.1653 C   0  0  0  0  0  0  0  0  0  0  0  0
    5.0257    0.6053   21.1733 H   0  0  0  0  0  0  0  0  0  0  0  0
    4.8103    1.3127   19.1107 C   0  0  0  0  0  0  0  0  0  0  0  0
    3.8752    1.8436   19.2639 H   0  0  0  0  0  0  0  0  0  0  0  0
  1  2  1  0
  2  3  2  0
  3  4  1  0
  4  5  1  0
  4  6  2  0
  6  7  1  0
  7  8  1  0
  8  9  2  0
  9 10  1  0
 10 11  2  0
 11 12  1  0
 11 13  1  0
 13 14  2  0
 14 15  1  0
 14 16  1  0
 16 17  1  0
 16 18  2  0
 18 19  1  0
  9 20  1  0
 20 21  2  0
 20 22  1  0
 22 23  1  0
 22 24  2  0
 24 25  1  0
  6 26  1  0
 26 27  1  0
 26 28  2  0
 28 29  1  0
 28  2  1  0
 24  7  1  0
 18 10  1  0
M  END
>  <cnnaffinity>  (1) 
-5.07265

>  <filename>  (1) 
O=c1ccn(-c2cccnc2)nc1-c1ccc(Cl)nc1

$$$$
