
     RDKit          3D

 32 34  0  0  0  0  0  0  0  0999 V2000
   11.2119   -0.5537   24.2298 H   0  0  0  0  0  0  0  0  0  0  0  0
   10.4657   -0.1210   23.7989 O   0  0  0  0  0  0  0  0  0  0  0  0
   10.9511    0.9447   23.1104 C   0  0  0  0  0  0  0  0  0  0  0  0
   12.0274    1.6973   23.6239 C   0  0  0  0  0  0  0  0  0  0  0  0
   12.4674    1.4091   24.5725 H   0  0  0  0  0  0  0  0  0  0  0  0
   12.4774    2.8293   22.9397 C   0  0  0  0  0  0  0  0  0  0  0  0
   13.7982    3.8007   23.4966 Cl  0  0  0  0  0  0  0  0  0  0  0  0
   11.8649    3.2395   21.7624 C   0  0  0  0  0  0  0  0  0  0  0  0
   12.2035    4.1324   21.2543 H   0  0  0  0  0  0  0  0  0  0  0  0
   10.8096    2.4915   21.2720 C   0  0  0  0  0  0  0  0  0  0  0  0
   10.2995    2.7976   20.3853 H   0  0  0  0  0  0  0  0  0  0  0  0
   10.3495    1.3446   21.8998 C   0  0  0  0  0  0  0  0  0  0  0  0
    9.2949    0.7766   21.1833 O   0  0  0  0  0  0  0  0  0  0  0  0
    8.7549   -0.4134   21.6285 N   0  0  0  0  0  0  0  0  0  0  0  0
    9.5203   -1.5639   21.4226 C   0  0  0  0  0  0  0  0  0  0  0  0
   10.7128   -1.6803   21.3588 O   0  0  0  0  0  0  0  0  0  0  0  0
    8.6182   -2.6051   21.3448 N   0  0  0  0  0  0  0  0  0  0  0  0
    8.9160   -3.5559   21.2950 H   0  0  0  0  0  0  0  0  0  0  0  0
    7.3298   -2.2059   21.1433 C   0  0  0  0  0  0  0  0  0  0  0  0
    6.4076   -2.9477   20.9320 O   0  0  0  0  0  0  0  0  0  0  0  0
    7.3279   -0.6640   21.2751 C   0  0  2  0  0  0  0  0  0  0  0  0
    6.6969   -0.4181   22.1466 H   0  0  0  0  0  0  0  0  0  0  0  0
    6.7611    0.0874   20.0757 C   0  0  0  0  0  0  0  0  0  0  0  0
    7.4141    0.1837   18.8321 C   0  0  0  0  0  0  0  0  0  0  0  0
    8.4137   -0.2300   18.7094 H   0  0  0  0  0  0  0  0  0  0  0  0
    6.8705    0.7445   17.7391 N   0  0  0  0  0  0  0  0  0  0  0  0
    5.6462    1.2802   17.8637 C   0  0  0  0  0  0  0  0  0  0  0  0
    5.2272    1.7471   16.9729 H   0  0  0  0  0  0  0  0  0  0  0  0
    4.9140    1.2644   19.0543 C   0  0  0  0  0  0  0  0  0  0  0  0
    3.9438    1.7498   19.1005 H   0  0  0  0  0  0  0  0  0  0  0  0
    5.4752    0.6408   20.1705 C   0  0  0  0  0  0  0  0  0  0  0  0
    4.9165    0.5945   21.1082 H   0  0  0  0  0  0  0  0  0  0  0  0
  1  2  1  0
  2  3  1  0
  3  4  2  0
  4  5  1  0
  4  6  1  0
  6  7  1  0
  6  8  2  0
  8  9  1  0
  8 10  1  0
 10 11  1  0
 10 12  2  0
 12 13  1  0
 13 14  1  0
 14 15  1  0
 15 16  2  0
 15 17  1  0
 17 18  1  0
 17 19  1  0
 19 20  2  0
 19 21  1  0
 21 22  1  1
 21 23  1  0
 23 24  2  0
 24 25  1  0
 24 26  1  0
 26 27  2  0
 27 28  1  0
 27 29  1  0
 29 30  1  0
 29 31  2  0
 31 32  1  0
 12  3  1  0
 21 14  1  0
 31 23  1  0
M  END
>  <cnnaffinity>  (1) 
-5.24726

>  <filename>  (1) 
O=C1NC(=O)N(Oc2ccc(Cl)cc2O)[C@H]1c1cccnc1

$$$$
