
     RDKit          3D

 44 47  0  0  0  0  0  0  0  0999 V2000
    5.6050    1.0565   30.4276 H   0  0  0  0  0  0  0  0  0  0  0  0
    6.6250    0.8594   30.1050 C   0  0  0  0  0  0  0  0  0  0  0  0
    6.7442    0.4004   28.8569 N   0  0  0  0  0  0  0  0  0  0  0  0
    7.9804    0.1213   28.4250 C   0  0  0  0  0  0  0  0  0  0  0  0
    8.0743   -0.3598   27.1307 N   0  0  0  0  0  0  0  0  0  0  0  0
    9.3350   -0.3243   26.3930 C   0  0  0  0  0  0  0  0  0  0  0  0
    9.9306   -1.2298   26.5943 H   0  0  0  0  0  0  0  0  0  0  0  0
    9.9204    0.5535   26.6904 H   0  0  0  0  0  0  0  0  0  0  0  0
    9.0800   -0.2349   24.8834 C   0  0  0  0  0  0  0  0  0  0  0  0
   10.0366   -0.2750   24.3546 H   0  0  0  0  0  0  0  0  0  0  0  0
    8.5752    0.7128   24.6363 H   0  0  0  0  0  0  0  0  0  0  0  0
    8.2338   -1.3678   24.4215 N   0  0  0  0  0  0  0  0  0  0  0  0
    8.0122   -1.2708   23.0362 N   0  0  0  0  0  0  0  0  0  0  0  0
    7.3562   -0.2698   22.3287 C   0  0  0  0  0  0  0  0  0  0  0  0
    6.8720    0.7572   22.7766 O   0  0  0  0  0  0  0  0  0  0  0  0
    7.3689   -0.6595   20.9946 N   0  0  0  0  0  0  0  0  0  0  0  0
    6.6857   -0.0019   19.9429 C   0  0  0  0  0  0  0  0  0  0  0  0
    7.1854    0.0260   18.6154 C   0  0  0  0  0  0  0  0  0  0  0  0
    8.1333   -0.4554   18.3808 H   0  0  0  0  0  0  0  0  0  0  0  0
    6.5785    0.6435   17.5936 N   0  0  0  0  0  0  0  0  0  0  0  0
    5.4197    1.2712   17.8515 C   0  0  0  0  0  0  0  0  0  0  0  0
    4.9556    1.7835   17.0117 H   0  0  0  0  0  0  0  0  0  0  0  0
    4.8217    1.2885   19.1176 C   0  0  0  0  0  0  0  0  0  0  0  0
    3.8857    1.8224   19.2666 H   0  0  0  0  0  0  0  0  0  0  0  0
    5.4624    0.6489   20.1847 C   0  0  0  0  0  0  0  0  0  0  0  0
    5.0525    0.6653   21.1931 H   0  0  0  0  0  0  0  0  0  0  0  0
    8.0428   -1.9346   20.7965 C   0  0  0  0  0  0  0  0  0  0  0  0
    8.9072   -1.8076   20.1364 H   0  0  0  0  0  0  0  0  0  0  0  0
    7.3436   -2.6415   20.3426 H   0  0  0  0  0  0  0  0  0  0  0  0
    8.4544   -2.3741   22.2099 C   0  0  0  0  0  0  0  0  0  0  0  0
    7.9576   -3.3008   22.5160 H   0  0  0  0  0  0  0  0  0  0  0  0
    9.5351   -2.5204   22.3086 H   0  0  0  0  0  0  0  0  0  0  0  0
    6.9410   -1.3242   25.1628 C   0  0  0  0  0  0  0  0  0  0  0  0
    6.3168   -2.1582   24.8248 H   0  0  0  0  0  0  0  0  0  0  0  0
    6.4246   -0.3798   24.9326 H   0  0  0  0  0  0  0  0  0  0  0  0
    7.1796   -1.4329   26.6722 C   0  0  0  0  0  0  0  0  0  0  0  0
    6.2243   -1.3526   27.2000 H   0  0  0  0  0  0  0  0  0  0  0  0
    7.6132   -2.4287   26.8894 H   0  0  0  0  0  0  0  0  0  0  0  0
    9.1053    0.1699   29.2753 C   0  0  0  0  0  0  0  0  0  0  0  0
   10.0465   -0.2071   28.8856 H   0  0  0  0  0  0  0  0  0  0  0  0
    8.9722    0.7038   30.5544 C   0  0  0  0  0  0  0  0  0  0  0  0
    9.8488    0.8212   31.1981 H   0  0  0  0  0  0  0  0  0  0  0  0
    7.6900    1.0539   30.9879 C   0  0  0  0  0  0  0  0  0  0  0  0
    7.4962    1.4375   31.9825 H   0  0  0  0  0  0  0  0  0  0  0  0
  1  2  1  0
  2  3  2  0
  3  4  1  0
  4  5  1  0
  5  6  1  0
  6  7  1  0
  6  8  1  0
  6  9  1  0
  9 10  1  0
  9 11  1  0
  9 12  1  0
 12 13  1  0
 13 14  1  0
 14 15  2  0
 14 16  1  0
 16 17  1  0
 17 18  2  0
 18 19  1  0
 18 20  1  0
 20 21  2  0
 21 22  1  0
 21 23  1  0
 23 24  1  0
 23 25  2  0
 25 26  1  0
 16 27  1  0
 27 28  1  0
 27 29  1  0
 27 30  1  0
 30 31  1  0
 30 32  1  0
 12 33  1  0
 33 34  1  0
 33 35  1  0
 33 36  1  0
 36 37  1  0
 36 38  1  0
  4 39  2  0
 39 40  1  0
 39 41  1  0
 41 42  1  0
 41 43  2  0
 43 44  1  0
 43  2  1  0
 36  5  1  0
 30 13  1  0
 25 17  1  0
M  END
>  <cnnaffinity>  (1) 
-5.30411

>  <filename>  (1) 
O=C1N(c2cccnc2)CCN1N1CCN(c2ccccn2)CC1

$$$$
