
     RDKit          3D

 33 35  0  0  0  0  0  0  0  0999 V2000
    4.9400    1.7931   16.9857 H   0  0  0  0  0  0  0  0  0  0  0  0
    5.4005    1.2847   17.8314 C   0  0  0  0  0  0  0  0  0  0  0  0
    6.5652    0.6598   17.5835 N   0  0  0  0  0  0  0  0  0  0  0  0
    7.1559    0.0330   18.6048 C   0  0  0  0  0  0  0  0  0  0  0  0
    8.1151   -0.4362   18.3717 H   0  0  0  0  0  0  0  0  0  0  0  0
    6.6361    0.0005   19.9100 C   0  0  0  0  0  0  0  0  0  0  0  0
    7.3725   -0.6448   20.9975 C   0  0  0  0  0  0  0  0  0  0  0  0
    7.7146   -0.0650   22.1989 C   0  0  0  0  0  0  0  0  0  0  0  0
    7.5008    1.3896   22.4372 C   0  0  0  0  0  0  0  0  0  0  0  0
    6.9036    1.7042   23.5959 N   0  0  0  0  0  0  0  0  0  0  0  0
    6.6747    2.9921   23.8807 C   0  0  0  0  0  0  0  0  0  0  0  0
    5.9862    3.3734   25.2120 C   0  0  0  0  0  0  0  0  0  0  0  0
    6.7896    4.1851   25.9369 F   0  0  0  0  0  0  0  0  0  0  0  0
    5.6560    2.3426   25.9922 F   0  0  0  0  0  0  0  0  0  0  0  0
    4.8573    4.0760   24.9709 F   0  0  0  0  0  0  0  0  0  0  0  0
    7.0787    4.0289   23.0275 C   0  0  0  0  0  0  0  0  0  0  0  0
    6.8777    5.0613   23.2837 H   0  0  0  0  0  0  0  0  0  0  0  0
    7.7540    3.7169   21.8503 C   0  0  0  0  0  0  0  0  0  0  0  0
    8.1166    4.5403   21.2318 H   0  0  0  0  0  0  0  0  0  0  0  0
    7.9425    2.3695   21.5240 C   0  0  0  0  0  0  0  0  0  0  0  0
    8.4111    2.0339   20.6031 H   0  0  0  0  0  0  0  0  0  0  0  0
    8.3077   -0.8825   23.2234 C   0  0  0  0  0  0  0  0  0  0  0  0
    8.5289   -0.4096   24.1808 H   0  0  0  0  0  0  0  0  0  0  0  0
    8.5916   -2.1953   22.9950 C   0  0  0  0  0  0  0  0  0  0  0  0
    9.0486   -2.8518   23.7245 H   0  0  0  0  0  0  0  0  0  0  0  0
    8.2685   -2.8088   21.7129 C   0  0  0  0  0  0  0  0  0  0  0  0
    8.4139   -3.9753   21.3912 O   0  0  0  0  0  0  0  0  0  0  0  0
    7.7329   -1.9465   20.7773 N   0  0  0  0  0  0  0  0  0  0  0  0
    7.4681   -2.4557   19.9512 H   0  0  0  0  0  0  0  0  0  0  0  0
    5.4134    0.6490   20.1513 C   0  0  0  0  0  0  0  0  0  0  0  0
    4.9949    0.6529   21.1605 H   0  0  0  0  0  0  0  0  0  0  0  0
    4.7925    1.3006   19.0907 C   0  0  0  0  0  0  0  0  0  0  0  0
    3.8660    1.8439   19.2307 H   0  0  0  0  0  0  0  0  0  0  0  0
  1  2  1  0
  2  3  2  0
  3  4  1  0
  4  5  1  0
  4  6  2  0
  6  7  1  0
  7  8  2  0
  8  9  1  0
  9 10  2  0
 10 11  1  0
 11 12  1  0
 12 13  1  0
 12 14  1  0
 12 15  1  0
 11 16  2  0
 16 17  1  0
 16 18  1  0
 18 19  1  0
 18 20  2  0
 20 21  1  0
  8 22  1  0
 22 23  1  0
 22 24  2  0
 24 25  1  0
 24 26  1  0
 26 27  2  0
 26 28  1  0
 28 29  1  0
  6 30  1  0
 30 31  1  0
 30 32  2  0
 32 33  1  0
 32  2  1  0
 28  7  1  0
 20  9  1  0
M  END
>  <cnnaffinity>  (1) 
-5.53025

>  <filename>  (1) 
O=c1ccc(-c2cccc(C(F)(F)F)n2)c(-c2cccnc2)[nH]1

$$$$
