
     RDKit          3D

 32 34  0  0  0  0  0  0  0  0999 V2000
    4.9195    1.7971   16.9743 H   0  0  0  0  0  0  0  0  0  0  0  0
    5.3939    1.3016   17.8187 C   0  0  0  0  0  0  0  0  0  0  0  0
    6.5578    0.6846   17.5580 N   0  0  0  0  0  0  0  0  0  0  0  0
    7.1707    0.0742   18.5804 C   0  0  0  0  0  0  0  0  0  0  0  0
    8.1077   -0.4224   18.3324 H   0  0  0  0  0  0  0  0  0  0  0  0
    6.6639    0.0252   19.8941 C   0  0  0  0  0  0  0  0  0  0  0  0
    7.3402   -0.6895   20.9812 C   0  0  0  0  0  0  0  0  0  0  0  0
    6.8221   -1.2087   22.1128 C   0  0  0  0  0  0  0  0  0  0  0  0
    5.8062   -1.2622   22.4224 H   0  0  0  0  0  0  0  0  0  0  0  0
    7.8342   -1.8025   22.8526 N   0  0  0  0  0  0  0  0  0  0  0  0
    7.7019   -2.3924   24.1417 C   0  0  0  0  0  0  0  0  0  0  0  0
    8.3740   -1.7960   25.2150 C   0  0  0  0  0  0  0  0  0  0  0  0
    8.9988   -0.9312   25.0070 H   0  0  0  0  0  0  0  0  0  0  0  0
    8.2398   -2.3128   26.5045 C   0  0  0  0  0  0  0  0  0  0  0  0
    8.7751   -1.8473   27.3258 H   0  0  0  0  0  0  0  0  0  0  0  0
    7.4299   -3.4300   26.7289 C   0  0  0  0  0  0  0  0  0  0  0  0
    7.3234   -3.8450   27.7285 H   0  0  0  0  0  0  0  0  0  0  0  0
    6.7654   -4.0314   25.6596 C   0  0  0  0  0  0  0  0  0  0  0  0
    6.1412   -4.9026   25.8459 H   0  0  0  0  0  0  0  0  0  0  0  0
    6.9047   -3.5369   24.3491 C   0  0  0  0  0  0  0  0  0  0  0  0
    6.1758   -4.2278   23.2080 C   0  0  0  0  0  0  0  0  0  0  0  0
    6.8936   -4.2858   22.0730 F   0  0  0  0  0  0  0  0  0  0  0  0
    5.8544   -5.5013   23.5262 F   0  0  0  0  0  0  0  0  0  0  0  0
    5.0115   -3.6023   22.9093 F   0  0  0  0  0  0  0  0  0  0  0  0
    9.0466   -1.6331   22.1805 C   0  0  0  0  0  0  0  0  0  0  0  0
   10.1724   -1.9506   22.4941 O   0  0  0  0  0  0  0  0  0  0  0  0
    8.6895   -0.9860   21.0216 N   0  0  0  0  0  0  0  0  0  0  0  0
    9.4234   -0.6868   20.4110 H   0  0  0  0  0  0  0  0  0  0  0  0
    5.4354    0.6643   20.1368 C   0  0  0  0  0  0  0  0  0  0  0  0
    5.0062    0.6574   21.1428 H   0  0  0  0  0  0  0  0  0  0  0  0
    4.7980    1.3199   19.0849 C   0  0  0  0  0  0  0  0  0  0  0  0
    3.8651    1.8498   19.2379 H   0  0  0  0  0  0  0  0  0  0  0  0
  1  2  1  0
  2  3  2  0
  3  4  1  0
  4  5  1  0
  4  6  2  0
  6  7  1  0
  7  8  2  0
  8  9  1  0
  8 10  1  0
 10 11  1  0
 11 12  2  0
 12 13  1  0
 12 14  1  0
 14 15  1  0
 14 16  2  0
 16 17  1  0
 16 18  1  0
 18 19  1  0
 18 20  2  0
 20 21  1  0
 21 22  1  0
 21 23  1  0
 21 24  1  0
 10 25  1  0
 25 26  2  0
 25 27  1  0
 27 28  1  0
  6 29  1  0
 29 30  1  0
 29 31  2  0
 31 32  1  0
 31  2  1  0
 27  7  1  0
 20 11  1  0
M  END
>  <cnnaffinity>  (1) 
-5.70389

>  <filename>  (1) 
O=c1[nH]c(-c2cccnc2)cn1-c1ccccc1C(F)(F)F

$$$$
