
     RDKit          3D

 40 43  0  0  0  0  0  0  0  0999 V2000
    5.0577    1.6670   17.0921 H   0  0  0  0  0  0  0  0  0  0  0  0
    5.5159    1.1651   17.9442 C   0  0  0  0  0  0  0  0  0  0  0  0
    6.6868    0.5516   17.7100 N   0  0  0  0  0  0  0  0  0  0  0  0
    7.2908   -0.0370   18.7552 C   0  0  0  0  0  0  0  0  0  0  0  0
    8.2456   -0.5142   18.5317 H   0  0  0  0  0  0  0  0  0  0  0  0
    6.7857   -0.0928   20.0868 C   0  0  0  0  0  0  0  0  0  0  0  0
    7.5676   -0.6302   21.1623 N   0  0  0  0  0  0  0  0  0  0  0  0
    8.5531   -0.4827   20.9822 H   0  0  0  0  0  0  0  0  0  0  0  0
    7.3486   -1.9664   21.7547 C   0  0  0  0  0  0  0  0  0  0  0  0
    6.2284   -1.8746   22.7849 C   0  0  0  0  0  0  0  0  0  0  0  0
    5.4756   -1.5785   22.0517 H   0  0  0  0  0  0  0  0  0  0  0  0
    6.4278   -1.0611   23.4845 H   0  0  0  0  0  0  0  0  0  0  0  0
    5.7577   -3.0813   23.5084 N   0  0  0  0  0  0  0  0  0  0  0  0
    4.7827   -3.9423   23.0139 C   0  0  0  0  0  0  0  0  0  0  0  0
    4.2704   -3.8564   21.9180 O   0  0  0  0  0  0  0  0  0  0  0  0
    4.4725   -4.9422   24.0649 C   0  0  0  0  0  0  0  0  0  0  0  0
    3.6290   -6.0543   24.0172 C   0  0  0  0  0  0  0  0  0  0  0  0
    3.1073   -6.3282   23.1025 H   0  0  0  0  0  0  0  0  0  0  0  0
    3.4801   -6.8026   25.1854 C   0  0  0  0  0  0  0  0  0  0  0  0
    2.8285   -7.6750   25.1901 H   0  0  0  0  0  0  0  0  0  0  0  0
    4.1550   -6.4320   26.3693 C   0  0  0  0  0  0  0  0  0  0  0  0
    3.9890   -7.0231   27.2709 H   0  0  0  0  0  0  0  0  0  0  0  0
    5.0088   -5.3179   26.3993 C   0  0  0  0  0  0  0  0  0  0  0  0
    5.5063   -5.0543   27.3341 H   0  0  0  0  0  0  0  0  0  0  0  0
    5.1696   -4.5821   25.2143 C   0  0  0  0  0  0  0  0  0  0  0  0
    5.9967   -3.3736   24.8582 C   0  0  0  0  0  0  0  0  0  0  0  0
    6.7478   -2.7448   25.5655 O   0  0  0  0  0  0  0  0  0  0  0  0
    8.6434   -2.6718   22.1802 C   0  0  0  0  0  0  0  0  0  0  0  0
    8.7423   -2.8494   23.2570 H   0  0  0  0  0  0  0  0  0  0  0  0
    9.5464   -2.1378   21.8543 H   0  0  0  0  0  0  0  0  0  0  0  0
    8.2359   -3.8708   21.2850 C   0  0  0  0  0  0  0  0  0  0  0  0
    8.9452   -4.0750   20.5025 H   0  0  0  0  0  0  0  0  0  0  0  0
    8.0152   -4.7939   21.8272 H   0  0  0  0  0  0  0  0  0  0  0  0
    6.9942   -3.1112   20.7763 C   0  0  0  0  0  0  0  0  0  0  0  0
    6.0643   -3.6421   20.9483 H   0  0  0  0  0  0  0  0  0  0  0  0
    6.9071   -2.7279   19.7591 H   0  0  0  0  0  0  0  0  0  0  0  0
    5.5370    0.5278   20.2808 C   0  0  0  0  0  0  0  0  0  0  0  0
    5.0894    0.5336   21.2737 H   0  0  0  0  0  0  0  0  0  0  0  0
    4.9033    1.1673   19.2002 C   0  0  0  0  0  0  0  0  0  0  0  0
    3.9608    1.6898   19.3285 H   0  0  0  0  0  0  0  0  0  0  0  0
  1  2  1  0
  2  3  2  0
  3  4  1  0
  4  5  1  0
  4  6  2  0
  6  7  1  0
  7  8  1  0
  7  9  1  0
  9 10  1  0
 10 11  1  0
 10 12  1  0
 10 13  1  0
 13 14  1  0
 14 15  2  0
 14 16  1  0
 16 17  2  0
 17 18  1  0
 17 19  1  0
 19 20  1  0
 19 21  2  0
 21 22  1  0
 21 23  1  0
 23 24  1  0
 23 25  2  0
 25 26  1  0
 26 27  2  0
  9 28  1  0
 28 29  1  0
 28 30  1  0
 28 31  1  0
 31 32  1  0
 31 33  1  0
 31 34  1  0
 34 35  1  0
 34 36  1  0
  6 37  1  0
 37 38  1  0
 37 39  2  0
 39 40  1  0
 39  2  1  0
 34  9  1  0
 26 13  1  0
 25 16  1  0
M  END
>  <cnnaffinity>  (1) 
-5.36521

>  <filename>  (1) 
O=C1c2ccccc2C(=O)N1CC1(Nc2cccnc2)CCC1

$$$$
