
     RDKit          3D

 32 34  0  0  0  0  0  0  0  0999 V2000
    4.9117    1.8822   16.8408 H   0  0  0  0  0  0  0  0  0  0  0  0
    5.3586    1.4046   17.7100 C   0  0  0  0  0  0  0  0  0  0  0  0
    6.5348    0.7914   17.5108 N   0  0  0  0  0  0  0  0  0  0  0  0
    7.1024    0.1775   18.5540 C   0  0  0  0  0  0  0  0  0  0  0  0
    8.0447   -0.3275   18.3388 H   0  0  0  0  0  0  0  0  0  0  0  0
    6.5467    0.1712   19.8441 C   0  0  0  0  0  0  0  0  0  0  0  0
    7.2245   -0.5734   20.9293 C   0  0  0  0  0  0  0  0  0  0  0  0
    7.7936   -1.6981   20.5896 N   0  0  0  0  0  0  0  0  0  0  0  0
    8.3165   -2.4768   21.5786 C   0  0  0  0  0  0  0  0  0  0  0  0
    8.6860   -3.6263   21.4690 O   0  0  0  0  0  0  0  0  0  0  0  0
    8.4490   -1.9192   22.8503 N   0  0  0  0  0  0  0  0  0  0  0  0
    8.9444   -2.5715   23.4321 H   0  0  0  0  0  0  0  0  0  0  0  0
    7.8523   -0.7640   23.2595 C   0  0  0  0  0  0  0  0  0  0  0  0
    7.8968   -0.3696   24.7335 C   0  0  0  0  0  0  0  0  0  0  0  0
    6.7183   -0.2296   25.3476 N   0  0  0  0  0  0  0  0  0  0  0  0
    6.6984   -0.0080   26.6667 C   0  0  0  0  0  0  0  0  0  0  0  0
    5.7073    0.0927   27.1013 H   0  0  0  0  0  0  0  0  0  0  0  0
    7.8519    0.0878   27.4525 C   0  0  0  0  0  0  0  0  0  0  0  0
    7.7758    0.2836   28.5187 H   0  0  0  0  0  0  0  0  0  0  0  0
    9.0877   -0.0217   26.8207 C   0  0  0  0  0  0  0  0  0  0  0  0
   10.0269    0.0485   27.3692 H   0  0  0  0  0  0  0  0  0  0  0  0
    9.1069   -0.2043   25.4387 C   0  0  0  0  0  0  0  0  0  0  0  0
   10.3863   -0.2597   24.6722 C   0  0  0  0  0  0  0  0  0  0  0  0
   10.3119    0.4412   23.5314 F   0  0  0  0  0  0  0  0  0  0  0  0
   11.4460    0.1960   25.3579 F   0  0  0  0  0  0  0  0  0  0  0  0
   10.6620   -1.5395   24.3271 F   0  0  0  0  0  0  0  0  0  0  0  0
    7.2155   -0.0634   22.2665 C   0  0  0  0  0  0  0  0  0  0  0  0
    6.7217    0.8714   22.4784 H   0  0  0  0  0  0  0  0  0  0  0  0
    5.3257    0.8345   20.0381 C   0  0  0  0  0  0  0  0  0  0  0  0
    4.8524    0.8588   21.0207 H   0  0  0  0  0  0  0  0  0  0  0  0
    4.7113    1.4453   18.9477 C   0  0  0  0  0  0  0  0  0  0  0  0
    3.7587    1.9566   19.0412 H   0  0  0  0  0  0  0  0  0  0  0  0
  1  2  1  0
  2  3  2  0
  3  4  1  0
  4  5  1  0
  4  6  2  0
  6  7  1  0
  7  8  2  0
  8  9  1  0
  9 10  2  0
  9 11  1  0
 11 12  1  0
 11 13  1  0
 13 14  1  0
 14 15  2  0
 15 16  1  0
 16 17  1  0
 16 18  2  0
 18 19  1  0
 18 20  1  0
 20 21  1  0
 20 22  2  0
 22 23  1  0
 23 24  1  0
 23 25  1  0
 23 26  1  0
 13 27  2  0
 27 28  1  0
  6 29  1  0
 29 30  1  0
 29 31  2  0
 31 32  1  0
 31  2  1  0
 27  7  1  0
 22 14  1  0
M  END
>  <cnnaffinity>  (1) 
-5.62761

>  <filename>  (1) 
O=c1nc(-c2cccnc2)cc(-c2ncccc2C(F)(F)F)[nH]1

$$$$
