
     RDKit          3D

 34 36  0  0  0  0  0  0  0  0999 V2000
    5.0770    1.7414   16.9472 H   0  0  0  0  0  0  0  0  0  0  0  0
    5.4723    1.2196   17.8159 C   0  0  0  0  0  0  0  0  0  0  0  0
    6.5865    0.4980   17.6217 N   0  0  0  0  0  0  0  0  0  0  0  0
    7.0906   -0.1456   18.6779 C   0  0  0  0  0  0  0  0  0  0  0  0
    7.9949   -0.7184   18.4842 H   0  0  0  0  0  0  0  0  0  0  0  0
    6.5555   -0.0925   19.9866 C   0  0  0  0  0  0  0  0  0  0  0  0
    7.2658   -0.8080   21.0742 C   0  0  0  0  0  0  0  0  0  0  0  0
    7.7164   -0.2790   22.2744 C   0  0  0  0  0  0  0  0  0  0  0  0
    7.6752    1.2175   22.5370 C   0  0  0  0  0  0  0  0  0  0  0  0
    6.6237    1.5422   22.5986 H   0  0  0  0  0  0  0  0  0  0  0  0
    8.4056    2.0312   21.4337 C   0  0  0  0  0  0  0  0  0  0  0  0
    7.7745    2.1919   20.5570 H   0  0  0  0  0  0  0  0  0  0  0  0
    9.2659    1.4388   21.1002 H   0  0  0  0  0  0  0  0  0  0  0  0
    8.8965    3.3371   22.0914 C   0  0  0  0  0  0  0  0  0  0  0  0
    8.4764    4.2225   21.5998 H   0  0  0  0  0  0  0  0  0  0  0  0
    9.9893    3.3878   22.0225 H   0  0  0  0  0  0  0  0  0  0  0  0
    8.4779    3.2346   23.5675 C   0  0  0  0  0  0  0  0  0  0  0  0
    9.1592    3.7480   24.2553 H   0  0  0  0  0  0  0  0  0  0  0  0
    7.4953    3.6973   23.7070 H   0  0  0  0  0  0  0  0  0  0  0  0
    8.3725    1.7324   23.8094 C   0  0  0  0  0  0  0  0  0  0  0  0
    9.3813    1.2989   23.8442 H   0  0  0  0  0  0  0  0  0  0  0  0
    7.8595    1.4821   24.7472 H   0  0  0  0  0  0  0  0  0  0  0  0
    8.3593   -1.1786   23.2027 C   0  0  0  0  0  0  0  0  0  0  0  0
    8.7264   -0.7679   24.1445 H   0  0  0  0  0  0  0  0  0  0  0  0
    8.5401   -2.4994   22.9277 C   0  0  0  0  0  0  0  0  0  0  0  0
    9.0264   -3.1948   23.6044 H   0  0  0  0  0  0  0  0  0  0  0  0
    8.1139   -3.0506   21.6527 C   0  0  0  0  0  0  0  0  0  0  0  0
    8.2184   -4.2127   21.2921 O   0  0  0  0  0  0  0  0  0  0  0  0
    7.5563   -2.1275   20.7849 N   0  0  0  0  0  0  0  0  0  0  0  0
    7.3137   -2.5456   19.9008 H   0  0  0  0  0  0  0  0  0  0  0  0
    5.3748    0.6514   20.1576 C   0  0  0  0  0  0  0  0  0  0  0  0
    4.8904    0.7108   21.1357 H   0  0  0  0  0  0  0  0  0  0  0  0
    4.8216    1.3062   19.0524 C   0  0  0  0  0  0  0  0  0  0  0  0
    3.9074    1.8845   19.1318 H   0  0  0  0  0  0  0  0  0  0  0  0
  1  2  1  0
  2  3  2  0
  3  4  1  0
  4  5  1  0
  4  6  2  0
  6  7  1  0
  7  8  2  0
  8  9  1  0
  9 10  1  0
  9 11  1  0
 11 12  1  0
 11 13  1  0
 11 14  1  0
 14 15  1  0
 14 16  1  0
 14 17  1  0
 17 18  1  0
 17 19  1  0
 17 20  1  0
 20 21  1  0
 20 22  1  0
  8 23  1  0
 23 24  1  0
 23 25  2  0
 25 26  1  0
 25 27  1  0
 27 28  2  0
 27 29  1  0
 29 30  1  0
  6 31  1  0
 31 32  1  0
 31 33  2  0
 33 34  1  0
 33  2  1  0
 29  7  1  0
 20  9  1  0
M  END
>  <cnnaffinity>  (1) 
-5.35196

>  <filename>  (1) 
O=c1ccc(C2CCCC2)c(-c2cccnc2)[nH]1

$$$$
