
     RDKit          3D

 34 36  0  0  0  0  0  0  0  0999 V2000
    4.9370    1.7829   16.9958 H   0  0  0  0  0  0  0  0  0  0  0  0
    5.4071    1.2882   17.8443 C   0  0  0  0  0  0  0  0  0  0  0  0
    6.5686    0.6682   17.5925 N   0  0  0  0  0  0  0  0  0  0  0  0
    7.1739    0.0537   18.6161 C   0  0  0  0  0  0  0  0  0  0  0  0
    8.1153   -0.4318   18.3619 H   0  0  0  0  0  0  0  0  0  0  0  0
    6.6555   -0.0088   19.9225 C   0  0  0  0  0  0  0  0  0  0  0  0
    7.4001   -0.7312   20.9881 C   0  0  0  0  0  0  0  0  0  0  0  0
    6.3870   -1.6653   22.0819 S   0  0  0  0  0  0  0  0  0  0  0  0
    7.5533   -2.3357   23.2159 C   0  0  0  0  0  0  0  0  0  0  0  0
    7.0129   -3.1054   24.1998 N   0  0  0  0  0  0  0  0  0  0  0  0
    7.6751   -3.4964   24.8494 H   0  0  0  0  0  0  0  0  0  0  0  0
    5.6050   -3.3808   24.4253 C   0  0  0  0  0  0  0  0  0  0  0  0
    5.0569   -2.4411   24.5767 H   0  0  0  0  0  0  0  0  0  0  0  0
    5.1748   -3.8633   23.5373 H   0  0  0  0  0  0  0  0  0  0  0  0
    5.3838   -4.2808   25.6346 C   0  0  0  0  0  0  0  0  0  0  0  0
    5.3459   -5.6808   25.5220 C   0  0  0  0  0  0  0  0  0  0  0  0
    5.4728   -6.1689   24.5622 H   0  0  0  0  0  0  0  0  0  0  0  0
    5.1359   -6.4637   26.6635 C   0  0  0  0  0  0  0  0  0  0  0  0
    5.1151   -7.5499   26.5931 H   0  0  0  0  0  0  0  0  0  0  0  0
    4.9476   -5.9549   27.8866 N   0  0  0  0  0  0  0  0  0  0  0  0
    4.9709   -4.6221   28.0007 C   0  0  0  0  0  0  0  0  0  0  0  0
    4.8191   -4.2285   29.0048 H   0  0  0  0  0  0  0  0  0  0  0  0
    5.1746   -3.7554   26.9207 C   0  0  0  0  0  0  0  0  0  0  0  0
    5.1634   -2.6849   27.0941 H   0  0  0  0  0  0  0  0  0  0  0  0
    8.8902   -2.1504   23.1441 C   0  0  0  0  0  0  0  0  0  0  0  0
    9.5614   -2.6104   23.8609 H   0  0  0  0  0  0  0  0  0  0  0  0
    9.5549   -1.3498   22.1406 C   0  0  0  0  0  0  0  0  0  0  0  0
   10.7715   -1.2184   22.1318 O   0  0  0  0  0  0  0  0  0  0  0  0
    8.7368   -0.6791   21.1034 C   0  0  0  0  0  0  0  0  0  0  0  0
    9.3212   -0.0818   20.4195 H   0  0  0  0  0  0  0  0  0  0  0  0
    5.4353    0.6480   20.1639 C   0  0  0  0  0  0  0  0  0  0  0  0
    5.0072    0.6368   21.1668 H   0  0  0  0  0  0  0  0  0  0  0  0
    4.8082    1.3090   19.1085 C   0  0  0  0  0  0  0  0  0  0  0  0
    3.8771    1.8435   19.2512 H   0  0  0  0  0  0  0  0  0  0  0  0
  1  2  1  0
  2  3  2  0
  3  4  1  0
  4  5  1  0
  4  6  2  0
  6  7  1  0
  7  8  1  0
  8  9  1  0
  9 10  1  0
 10 11  1  0
 10 12  1  0
 12 13  1  0
 12 14  1  0
 12 15  1  0
 15 16  2  0
 16 17  1  0
 16 18  1  0
 18 19  1  0
 18 20  2  0
 20 21  1  0
 21 22  1  0
 21 23  2  0
 23 24  1  0
  9 25  2  0
 25 26  1  0
 25 27  1  0
 27 28  2  0
 27 29  1  0
 29 30  1  0
  6 31  1  0
 31 32  1  0
 31 33  2  0
 33 34  1  0
 33  2  1  0
 29  7  2  0
 23 15  1  0
M  END
>  <cnnaffinity>  (1) 
-5.25456

>  <filename>  (1) 
O=c1cc(NCc2ccncc2)sc(-c2cccnc2)c1

$$$$
