
     RDKit          3D

 34 37  0  0  0  0  0  0  0  0999 V2000
    4.9216    1.7916   17.0186 H   0  0  0  0  0  0  0  0  0  0  0  0
    5.4031    1.2800   17.8496 C   0  0  0  0  0  0  0  0  0  0  0  0
    6.5584    0.6569   17.5666 N   0  0  0  0  0  0  0  0  0  0  0  0
    7.1998    0.0528   18.5727 C   0  0  0  0  0  0  0  0  0  0  0  0
    8.1453   -0.4272   18.3385 H   0  0  0  0  0  0  0  0  0  0  0  0
    6.7145    0.0110   19.9006 C   0  0  0  0  0  0  0  0  0  0  0  0
    7.4367   -0.6468   20.9642 N   0  0  0  0  0  0  0  0  0  0  0  0
    8.8014   -0.5817   21.1764 C   0  0  0  0  0  0  0  0  0  0  0  0
    9.5960    0.0077   20.4891 O   0  0  0  0  0  0  0  0  0  0  0  0
    9.0535   -1.4276   22.4333 C   0  0  0  0  0  0  0  0  0  0  0  0
   10.1051   -1.6966   22.9516 O   0  0  0  0  0  0  0  0  0  0  0  0
    7.8061   -1.8816   22.8447 N   0  0  0  0  0  0  0  0  0  0  0  0
    7.5610   -2.6168   24.0826 C   0  0  0  0  0  0  0  0  0  0  0  0
    8.1411   -2.1230   25.2366 C   0  0  0  0  0  0  0  0  0  0  0  0
    8.7849   -1.2526   25.1755 H   0  0  0  0  0  0  0  0  0  0  0  0
    7.9335   -2.7354   26.5008 C   0  0  0  0  0  0  0  0  0  0  0  0
    8.4097   -2.3060   27.3790 H   0  0  0  0  0  0  0  0  0  0  0  0
    7.1530   -3.8610   26.6259 C   0  0  0  0  0  0  0  0  0  0  0  0
    6.9923   -4.3392   27.5900 H   0  0  0  0  0  0  0  0  0  0  0  0
    6.5519   -4.4355   25.4703 C   0  0  0  0  0  0  0  0  0  0  0  0
    5.7324   -5.6056   25.5350 C   0  0  0  0  0  0  0  0  0  0  0  0
    5.5650   -6.0738   26.5030 H   0  0  0  0  0  0  0  0  0  0  0  0
    5.1874   -6.1099   24.3805 C   0  0  0  0  0  0  0  0  0  0  0  0
    4.5559   -6.9901   24.3778 H   0  0  0  0  0  0  0  0  0  0  0  0
    5.4905   -5.4668   23.1519 C   0  0  0  0  0  0  0  0  0  0  0  0
    5.0506   -5.8380   22.2318 H   0  0  0  0  0  0  0  0  0  0  0  0
    6.2851   -4.4296   23.0418 N   0  0  0  0  0  0  0  0  0  0  0  0
    6.7721   -3.8408   24.1793 C   0  0  0  0  0  0  0  0  0  0  0  0
    6.8607   -1.5371   21.8773 C   0  0  0  0  0  0  0  0  0  0  0  0
    5.7521   -1.9690   21.7767 O   0  0  0  0  0  0  0  0  0  0  0  0
    5.4859    0.6268   20.1680 C   0  0  0  0  0  0  0  0  0  0  0  0
    5.0606    0.5738   21.1682 H   0  0  0  0  0  0  0  0  0  0  0  0
    4.8266    1.2915   19.1241 C   0  0  0  0  0  0  0  0  0  0  0  0
    3.8912    1.8235   19.2832 H   0  0  0  0  0  0  0  0  0  0  0  0
  1  2  1  0
  2  3  2  0
  3  4  1  0
  4  5  1  0
  4  6  2  0
  6  7  1  0
  7  8  1  0
  8  9  2  0
  8 10  1  0
 10 11  2  0
 10 12  1  0
 12 13  1  0
 13 14  2  0
 14 15  1  0
 14 16  1  0
 16 17  1  0
 16 18  2  0
 18 19  1  0
 18 20  1  0
 20 21  2  0
 21 22  1  0
 21 23  1  0
 23 24  1  0
 23 25  2  0
 25 26  1  0
 25 27  1  0
 27 28  2  0
 12 29  1  0
 29 30  2  0
  6 31  1  0
 31 32  1  0
 31 33  2  0
 33 34  1  0
 33  2  1  0
 29  7  1  0
 28 13  1  0
 28 20  1  0
M  END
>  <cnnaffinity>  (1) 
-5.43791

>  <filename>  (1) 
O=C1C(=O)N(c2cccc3cccnc23)C(=O)N1c1cccnc1

$$$$
