
     RDKit          3D

 29 31  0  0  0  0  0  0  0  0999 V2000
    4.9279    1.7906   16.9960 H   0  0  0  0  0  0  0  0  0  0  0  0
    5.4037    1.2935   17.8350 C   0  0  0  0  0  0  0  0  0  0  0  0
    6.5661    0.6772   17.5627 N   0  0  0  0  0  0  0  0  0  0  0  0
    7.1905    0.0736   18.5776 C   0  0  0  0  0  0  0  0  0  0  0  0
    8.1277   -0.4353   18.3487 H   0  0  0  0  0  0  0  0  0  0  0  0
    6.6844    0.0268   19.8928 C   0  0  0  0  0  0  0  0  0  0  0  0
    7.3902   -0.6773   20.8993 N   0  0  0  0  0  0  0  0  0  0  0  0
    8.7764   -0.6680   21.0895 C   0  0  0  0  0  0  0  0  0  0  0  0
    9.4320   -0.1145   20.4330 H   0  0  0  0  0  0  0  0  0  0  0  0
    9.0554   -1.4159   22.1788 C   0  0  0  0  0  0  0  0  0  0  0  0
   10.3570   -1.6753   22.8594 C   0  0  0  0  0  0  0  0  0  0  0  0
   10.3699   -2.6443   23.3760 H   0  0  0  0  0  0  0  0  0  0  0  0
   11.1780   -1.6986   22.1334 H   0  0  0  0  0  0  0  0  0  0  0  0
   10.6532   -0.6426   23.8481 N   0  0  0  0  0  0  0  0  0  0  0  0
   11.1803    0.5922   23.5936 C   0  0  0  0  0  0  0  0  0  0  0  0
   11.5516    0.8692   22.6156 H   0  0  0  0  0  0  0  0  0  0  0  0
   11.1767    1.3645   24.6467 N   0  0  0  0  0  0  0  0  0  0  0  0
   10.5938    0.6147   25.6388 C   0  0  0  0  0  0  0  0  0  0  0  0
   10.4720    1.0035   26.6378 H   0  0  0  0  0  0  0  0  0  0  0  0
   10.2494   -0.6176   25.1679 C   0  0  0  0  0  0  0  0  0  0  0  0
    9.7471   -1.4468   25.6411 H   0  0  0  0  0  0  0  0  0  0  0  0
    7.8323   -1.8623   22.6680 N   0  0  0  0  0  0  0  0  0  0  0  0
    7.5955   -2.4564   23.4404 H   0  0  0  0  0  0  0  0  0  0  0  0
    6.8103   -1.5768   21.8039 C   0  0  0  0  0  0  0  0  0  0  0  0
    5.7128   -2.0954   21.8027 O   0  0  0  0  0  0  0  0  0  0  0  0
    5.4568    0.6493   20.1603 C   0  0  0  0  0  0  0  0  0  0  0  0
    5.0249    0.6000   21.1592 H   0  0  0  0  0  0  0  0  0  0  0  0
    4.8178    1.3067   19.1055 C   0  0  0  0  0  0  0  0  0  0  0  0
    3.8833    1.8320   19.2584 H   0  0  0  0  0  0  0  0  0  0  0  0
  1  2  1  0
  2  3  2  0
  3  4  1  0
  4  5  1  0
  4  6  2  0
  6  7  1  0
  7  8  1  0
  8  9  1  0
  8 10  2  0
 10 11  1  0
 11 12  1  0
 11 13  1  0
 11 14  1  0
 14 15  1  0
 15 16  1  0
 15 17  2  0
 17 18  1  0
 18 19  1  0
 18 20  2  0
 20 21  1  0
 10 22  1  0
 22 23  1  0
 22 24  1  0
 24 25  2  0
  6 26  1  0
 26 27  1  0
 26 28  2  0
 28 29  1  0
 28  2  1  0
 24  7  1  0
 20 14  1  0
M  END
>  <cnnaffinity>  (1) 
-5.21144

>  <filename>  (1) 
O=c1[nH]c(Cn2ccnc2)cn1-c1cccnc1

$$$$
