
     RDKit          3D

 32 34  0  0  0  0  0  0  0  0999 V2000
    5.0566    1.9879   16.9035 H   0  0  0  0  0  0  0  0  0  0  0  0
    5.5124    1.3903   17.6898 C   0  0  0  0  0  0  0  0  0  0  0  0
    6.6777    0.7923   17.3867 N   0  0  0  0  0  0  0  0  0  0  0  0
    7.2669    0.0605   18.3383 C   0  0  0  0  0  0  0  0  0  0  0  0
    8.2223   -0.3827   18.0797 H   0  0  0  0  0  0  0  0  0  0  0  0
    6.7078   -0.1447   19.6198 C   0  0  0  0  0  0  0  0  0  0  0  0
    7.3393   -0.9150   20.6230 N   0  0  0  0  0  0  0  0  0  0  0  0
    6.7845   -1.9356   21.4366 C   0  0  0  0  0  0  0  0  0  0  0  0
    5.6155   -2.2770   21.4842 O   0  0  0  0  0  0  0  0  0  0  0  0
    7.9409   -2.4436   22.1550 C   0  0  0  0  0  0  0  0  0  0  0  0
    7.8542   -3.2314   22.8826 H   0  0  0  0  0  0  0  0  0  0  0  0
    9.0451   -1.7761   21.7494 C   0  0  0  0  0  0  0  0  0  0  0  0
   10.4376   -1.7840   22.2766 C   0  0  0  0  0  0  0  0  0  0  0  0
   11.1350   -1.5847   21.4591 H   0  0  0  0  0  0  0  0  0  0  0  0
   10.6620   -2.7831   22.6592 H   0  0  0  0  0  0  0  0  0  0  0  0
   10.5953   -0.7550   23.3854 C   0  0  0  0  0  0  0  0  0  0  0  0
   10.1892   -1.0971   24.6830 C   0  0  0  0  0  0  0  0  0  0  0  0
    9.8498   -2.1139   24.8542 H   0  0  0  0  0  0  0  0  0  0  0  0
   10.1649   -0.1635   25.7179 C   0  0  0  0  0  0  0  0  0  0  0  0
    9.7937   -0.4607   26.6945 H   0  0  0  0  0  0  0  0  0  0  0  0
   10.5795    1.1463   25.4683 C   0  0  0  0  0  0  0  0  0  0  0  0
   10.5620    1.8840   26.2618 H   0  0  0  0  0  0  0  0  0  0  0  0
   11.0397    1.5070   24.2014 C   0  0  0  0  0  0  0  0  0  0  0  0
   11.3905    2.5108   23.9892 H   0  0  0  0  0  0  0  0  0  0  0  0
   11.0459    0.5570   23.1748 C   0  0  0  0  0  0  0  0  0  0  0  0
   11.6246    1.0600   21.6051 Cl  0  0  0  0  0  0  0  0  0  0  0  0
    8.7335   -0.8380   20.7683 N   0  0  0  0  0  0  0  0  0  0  0  0
    9.0358    0.1164   21.0034 H   0  0  0  0  0  0  0  0  0  0  0  0
    5.4922    0.4762   19.9189 C   0  0  0  0  0  0  0  0  0  0  0  0
    5.0612    0.3130   20.9040 H   0  0  0  0  0  0  0  0  0  0  0  0
    4.8962    1.2785   18.9422 C   0  0  0  0  0  0  0  0  0  0  0  0
    3.9755    1.8157   19.1461 H   0  0  0  0  0  0  0  0  0  0  0  0
  1  2  1  0
  2  3  2  0
  3  4  1  0
  4  5  1  0
  4  6  2  0
  6  7  1  0
  7  8  1  0
  8  9  2  0
  8 10  1  0
 10 11  1  0
 10 12  2  0
 12 13  1  0
 13 14  1  0
 13 15  1  0
 13 16  1  0
 16 17  2  0
 17 18  1  0
 17 19  1  0
 19 20  1  0
 19 21  2  0
 21 22  1  0
 21 23  1  0
 23 24  1  0
 23 25  2  0
 25 26  1  0
 12 27  1  0
 27 28  1  0
  6 29  1  0
 29 30  1  0
 29 31  2  0
 31 32  1  0
 31  2  1  0
 27  7  1  0
 25 16  1  0
M  END
>  <cnnaffinity>  (1) 
-5.14097

>  <filename>  (1) 
O=c1cc(Cc2ccccc2Cl)[nH]n1-c1cccnc1

$$$$
