
     RDKit          3D

 34 37  0  0  0  0  0  0  0  0999 V2000
    4.9210    1.8061   16.9787 H   0  0  0  0  0  0  0  0  0  0  0  0
    5.3842    1.3027   17.8256 C   0  0  0  0  0  0  0  0  0  0  0  0
    6.5389    0.6718   17.5605 N   0  0  0  0  0  0  0  0  0  0  0  0
    7.1511    0.0481   18.5719 C   0  0  0  0  0  0  0  0  0  0  0  0
    8.1121   -0.4148   18.3612 H   0  0  0  0  0  0  0  0  0  0  0  0
    6.6375   -0.0044   19.8793 C   0  0  0  0  0  0  0  0  0  0  0  0
    7.3549   -0.6780   20.9333 N   0  0  0  0  0  0  0  0  0  0  0  0
    6.7427   -1.7233   21.5762 C   0  0  0  0  0  0  0  0  0  0  0  0
    5.7390   -1.9522   21.2347 H   0  0  0  0  0  0  0  0  0  0  0  0
    7.3506   -2.4391   22.5734 C   0  0  0  0  0  0  0  0  0  0  0  0
    6.6085   -3.5445   23.1935 C   0  0  0  0  0  0  0  0  0  0  0  0
    5.4173   -3.9591   22.8301 N   0  0  0  0  0  0  0  0  0  0  0  0
    5.1238   -5.0062   23.6842 C   0  0  0  0  0  0  0  0  0  0  0  0
    3.9800   -5.8216   23.7563 C   0  0  0  0  0  0  0  0  0  0  0  0
    3.1655   -5.6424   23.0596 H   0  0  0  0  0  0  0  0  0  0  0  0
    3.9390   -6.8130   24.7343 C   0  0  0  0  0  0  0  0  0  0  0  0
    3.0640   -7.4501   24.8046 H   0  0  0  0  0  0  0  0  0  0  0  0
    5.0108   -6.9909   25.6452 C   0  0  0  0  0  0  0  0  0  0  0  0
    4.9309   -7.7351   26.4308 H   0  0  0  0  0  0  0  0  0  0  0  0
    6.1562   -6.2021   25.5813 C   0  0  0  0  0  0  0  0  0  0  0  0
    6.9913   -6.3621   26.2621 H   0  0  0  0  0  0  0  0  0  0  0  0
    6.1887   -5.2175   24.5891 C   0  0  0  0  0  0  0  0  0  0  0  0
    7.1225   -4.2685   24.2384 N   0  0  0  0  0  0  0  0  0  0  0  0
    8.0066   -4.1067   24.6807 H   0  0  0  0  0  0  0  0  0  0  0  0
    8.6799   -2.0667   22.9661 C   0  0  0  0  0  0  0  0  0  0  0  0
    9.2010   -2.6168   23.7575 H   0  0  0  0  0  0  0  0  0  0  0  0
    9.3037   -1.0270   22.3536 C   0  0  0  0  0  0  0  0  0  0  0  0
   10.3042   -0.6959   22.5951 H   0  0  0  0  0  0  0  0  0  0  0  0
    8.6831   -0.2529   21.2856 C   0  0  0  0  0  0  0  0  0  0  0  0
    9.2356    0.6732   20.7170 O   0  0  0  0  0  0  0  0  0  0  0  0
    5.4239    0.6356   20.1437 C   0  0  0  0  0  0  0  0  0  0  0  0
    5.0343    0.6151   21.1634 H   0  0  0  0  0  0  0  0  0  0  0  0
    4.7941    1.3177   19.0952 C   0  0  0  0  0  0  0  0  0  0  0  0
    3.8669    1.8547   19.2450 H   0  0  0  0  0  0  0  0  0  0  0  0
  1  2  1  0
  2  3  2  0
  3  4  1  0
  4  5  1  0
  4  6  2  0
  6  7  1  0
  7  8  1  0
  8  9  1  0
  8 10  2  0
 10 11  1  0
 11 12  2  0
 12 13  1  0
 13 14  2  0
 14 15  1  0
 14 16  1  0
 16 17  1  0
 16 18  2  0
 18 19  1  0
 18 20  1  0
 20 21  1  0
 20 22  2  0
 22 23  1  0
 23 24  1  0
 10 25  1  0
 25 26  1  0
 25 27  2  0
 27 28  1  0
 27 29  1  0
 29 30  2  0
  6 31  1  0
 31 32  1  0
 31 33  2  0
 33 34  1  0
 33  2  1  0
 29  7  1  0
 23 11  1  0
 22 13  1  0
M  END
>  <cnnaffinity>  (1) 
-5.82199

>  <filename>  (1) 
O=c1ccc(-c2nc3ccccc3[nH]2)cn1-c1cccnc1

$$$$
