
     RDKit          3D

 35 38  0  0  0  0  0  0  0  0999 V2000
    4.9188    1.8006   16.9699 H   0  0  0  0  0  0  0  0  0  0  0  0
    5.3917    1.3034   17.8156 C   0  0  0  0  0  0  0  0  0  0  0  0
    6.5573    0.6854   17.5576 N   0  0  0  0  0  0  0  0  0  0  0  0
    7.1697    0.0739   18.5795 C   0  0  0  0  0  0  0  0  0  0  0  0
    8.1078   -0.4216   18.3285 H   0  0  0  0  0  0  0  0  0  0  0  0
    6.6647    0.0233   19.8926 C   0  0  0  0  0  0  0  0  0  0  0  0
    7.3429   -0.6912   20.9761 C   0  0  0  0  0  0  0  0  0  0  0  0
    6.8323   -1.1996   22.1186 C   0  0  0  0  0  0  0  0  0  0  0  0
    5.8173   -1.2686   22.4303 H   0  0  0  0  0  0  0  0  0  0  0  0
    7.8482   -1.7834   22.8575 N   0  0  0  0  0  0  0  0  0  0  0  0
    7.7128   -2.3685   24.1518 C   0  0  0  0  0  0  0  0  0  0  0  0
    8.4213   -1.8153   25.1983 C   0  0  0  0  0  0  0  0  0  0  0  0
    9.0920   -0.9868   24.9877 H   0  0  0  0  0  0  0  0  0  0  0  0
    8.2848   -2.3325   26.5111 C   0  0  0  0  0  0  0  0  0  0  0  0
    8.8633   -1.8826   27.3124 H   0  0  0  0  0  0  0  0  0  0  0  0
    7.4449   -3.3945   26.7539 C   0  0  0  0  0  0  0  0  0  0  0  0
    7.3402   -3.8078   27.7525 H   0  0  0  0  0  0  0  0  0  0  0  0
    6.6985   -3.9976   25.6956 C   0  0  0  0  0  0  0  0  0  0  0  0
    5.8262   -5.1038   25.9418 C   0  0  0  0  0  0  0  0  0  0  0  0
    5.7388   -5.4672   26.9635 H   0  0  0  0  0  0  0  0  0  0  0  0
    5.1242   -5.6973   24.9197 C   0  0  0  0  0  0  0  0  0  0  0  0
    4.4667   -6.5403   25.1230 H   0  0  0  0  0  0  0  0  0  0  0  0
    5.2632   -5.2152   23.5879 C   0  0  0  0  0  0  0  0  0  0  0  0
    4.7111   -5.6970   22.7856 H   0  0  0  0  0  0  0  0  0  0  0  0
    6.0951   -4.1493   23.3154 C   0  0  0  0  0  0  0  0  0  0  0  0
    6.2166   -3.7841   22.2980 H   0  0  0  0  0  0  0  0  0  0  0  0
    6.8310   -3.4937   24.3613 C   0  0  0  0  0  0  0  0  0  0  0  0
    9.0545   -1.6246   22.1736 C   0  0  0  0  0  0  0  0  0  0  0  0
   10.1838   -1.9440   22.4779 O   0  0  0  0  0  0  0  0  0  0  0  0
    8.6927   -0.9967   21.0040 N   0  0  0  0  0  0  0  0  0  0  0  0
    9.4336   -0.6894   20.4063 H   0  0  0  0  0  0  0  0  0  0  0  0
    5.4376    0.6658   20.1339 C   0  0  0  0  0  0  0  0  0  0  0  0
    5.0080    0.6619   21.1372 H   0  0  0  0  0  0  0  0  0  0  0  0
    4.7979    1.3204   19.0829 C   0  0  0  0  0  0  0  0  0  0  0  0
    3.8637    1.8514   19.2334 H   0  0  0  0  0  0  0  0  0  0  0  0
  1  2  1  0
  2  3  2  0
  3  4  1  0
  4  5  1  0
  4  6  2  0
  6  7  1  0
  7  8  2  0
  8  9  1  0
  8 10  1  0
 10 11  1  0
 11 12  2  0
 12 13  1  0
 12 14  1  0
 14 15  1  0
 14 16  2  0
 16 17  1  0
 16 18  1  0
 18 19  2  0
 19 20  1  0
 19 21  1  0
 21 22  1  0
 21 23  2  0
 23 24  1  0
 23 25  1  0
 25 26  1  0
 25 27  2  0
 10 28  1  0
 28 29  2  0
 28 30  1  0
 30 31  1  0
  6 32  1  0
 32 33  1  0
 32 34  2  0
 34 35  1  0
 34  2  1  0
 30  7  1  0
 27 11  1  0
 27 18  1  0
M  END
>  <cnnaffinity>  (1) 
-5.57787

>  <filename>  (1) 
O=c1[nH]c(-c2cccnc2)cn1-c1cccc2ccccc12

$$$$
