
     RDKit          3D

 31 33  0  0  0  0  0  0  0  0999 V2000
    4.8902    1.7985   17.0159 H   0  0  0  0  0  0  0  0  0  0  0  0
    5.4068    1.2934   17.8270 C   0  0  0  0  0  0  0  0  0  0  0  0
    6.5696    0.6623   17.5708 N   0  0  0  0  0  0  0  0  0  0  0  0
    7.1793    0.0405   18.5949 C   0  0  0  0  0  0  0  0  0  0  0  0
    8.1297   -0.4476   18.4044 H   0  0  0  0  0  0  0  0  0  0  0  0
    6.6621    0.0206   19.8963 C   0  0  0  0  0  0  0  0  0  0  0  0
    7.3750   -0.6747   20.9514 C   0  0  0  0  0  0  0  0  0  0  0  0
    7.7038   -0.0636   22.1578 C   0  0  0  0  0  0  0  0  0  0  0  0
    7.4587    1.3646   22.3998 C   0  0  0  0  0  0  0  0  0  0  0  0
    6.7767    1.7829   23.5504 C   0  0  0  0  0  0  0  0  0  0  0  0
    6.3998    1.0459   24.2503 H   0  0  0  0  0  0  0  0  0  0  0  0
    6.5556    3.1442   23.7958 C   0  0  0  0  0  0  0  0  0  0  0  0
    6.0061    3.4717   24.6695 H   0  0  0  0  0  0  0  0  0  0  0  0
    7.0456    4.1068   22.9174 C   0  0  0  0  0  0  0  0  0  0  0  0
    6.7446    5.9722   23.2166 Br  0  0  0  0  0  0  0  0  0  0  0  0
    7.7827    3.7003   21.8135 C   0  0  0  0  0  0  0  0  0  0  0  0
    8.2060    4.4914   21.2065 H   0  0  0  0  0  0  0  0  0  0  0  0
    7.9666    2.3365   21.5255 C   0  0  0  0  0  0  0  0  0  0  0  0
    8.5364    2.0259   20.6542 H   0  0  0  0  0  0  0  0  0  0  0  0
    8.3550   -0.8511   23.2169 C   0  0  0  0  0  0  0  0  0  0  0  0
    8.6144   -0.3733   24.1613 H   0  0  0  0  0  0  0  0  0  0  0  0
    8.6387   -2.1827   22.9890 C   0  0  0  0  0  0  0  0  0  0  0  0
    9.1207   -2.8031   23.7333 H   0  0  0  0  0  0  0  0  0  0  0  0
    8.2846   -2.7777   21.7091 C   0  0  0  0  0  0  0  0  0  0  0  0
    8.4829   -3.9549   21.4582 O   0  0  0  0  0  0  0  0  0  0  0  0
    7.6972   -2.0120   20.7373 N   0  0  0  0  0  0  0  0  0  0  0  0
    7.4364   -2.4787   19.8765 H   0  0  0  0  0  0  0  0  0  0  0  0
    5.4511    0.6654   20.1667 C   0  0  0  0  0  0  0  0  0  0  0  0
    5.0102    0.6470   21.1683 H   0  0  0  0  0  0  0  0  0  0  0  0
    4.8245    1.3098   19.1025 C   0  0  0  0  0  0  0  0  0  0  0  0
    3.8863    1.8290   19.2580 H   0  0  0  0  0  0  0  0  0  0  0  0
  1  2  1  0
  2  3  2  0
  3  4  1  0
  4  5  1  0
  4  6  2  0
  6  7  1  0
  7  8  2  0
  8  9  1  0
  9 10  2  0
 10 11  1  0
 10 12  1  0
 12 13  1  0
 12 14  2  0
 14 15  1  0
 14 16  1  0
 16 17  1  0
 16 18  2  0
 18 19  1  0
  8 20  1  0
 20 21  1  0
 20 22  2  0
 22 23  1  0
 22 24  1  0
 24 25  2  0
 24 26  1  0
 26 27  1  0
  6 28  1  0
 28 29  1  0
 28 30  2  0
 30 31  1  0
 30  2  1  0
 26  7  1  0
 18  9  1  0
M  END
>  <cnnaffinity>  (1) 
-5.15428

>  <filename>  (1) 
O=c1ccc(-c2ccc(Br)cc2)c(-c2cccnc2)[nH]1

$$$$
