
     RDKit          3D

 35 37  0  0  0  0  0  0  0  0999 V2000
    4.9152    1.7925   16.9879 H   0  0  0  0  0  0  0  0  0  0  0  0
    5.3985    1.2972   17.8269 C   0  0  0  0  0  0  0  0  0  0  0  0
    6.5634    0.6886   17.5613 N   0  0  0  0  0  0  0  0  0  0  0  0
    7.1757    0.0727   18.5767 C   0  0  0  0  0  0  0  0  0  0  0  0
    8.1231   -0.4156   18.3412 H   0  0  0  0  0  0  0  0  0  0  0  0
    6.6648    0.0109   19.8827 C   0  0  0  0  0  0  0  0  0  0  0  0
    7.3957   -0.6958   21.0020 C   0  0  2  0  0  0  0  0  0  0  0  0
    8.1897   -1.3276   20.5838 H   0  0  0  0  0  0  0  0  0  0  0  0
    6.5177   -1.6548   21.8219 C   0  0  0  0  0  0  0  0  0  0  0  0
    5.7885   -2.5497   21.4418 O   0  0  0  0  0  0  0  0  0  0  0  0
    6.7331   -1.3603   23.1239 N   0  0  0  0  0  0  0  0  0  0  0  0
    6.2692   -1.9638   23.7820 H   0  0  0  0  0  0  0  0  0  0  0  0
    7.7467   -0.3742   23.4251 C   0  0  0  0  0  0  0  0  0  0  0  0
    8.6613   -0.8376   23.8309 H   0  0  0  0  0  0  0  0  0  0  0  0
    7.4013    0.3503   24.1767 H   0  0  0  0  0  0  0  0  0  0  0  0
    7.9934    0.2833   22.0447 C   0  0  1  0  0  0  0  0  0  0  0  0
    7.4134    1.2212   22.0162 H   0  0  0  0  0  0  0  0  0  0  0  0
    9.4669    0.6305   21.7673 C   0  0  0  0  0  0  0  0  0  0  0  0
   10.0757   -0.2775   21.8454 H   0  0  0  0  0  0  0  0  0  0  0  0
    9.5555    0.9845   20.7333 H   0  0  0  0  0  0  0  0  0  0  0  0
    9.9857    1.7025   22.6942 C   0  0  0  0  0  0  0  0  0  0  0  0
    9.5658    3.0300   22.4983 C   0  0  0  0  0  0  0  0  0  0  0  0
    8.9030    3.2445   21.6645 H   0  0  0  0  0  0  0  0  0  0  0  0
    9.9801    4.0633   23.3366 C   0  0  0  0  0  0  0  0  0  0  0  0
    9.6432    5.0793   23.1585 H   0  0  0  0  0  0  0  0  0  0  0  0
   10.8352    3.7849   24.4018 C   0  0  0  0  0  0  0  0  0  0  0  0
   11.1605    4.5987   25.0417 H   0  0  0  0  0  0  0  0  0  0  0  0
   11.2558    2.4715   24.6317 C   0  0  0  0  0  0  0  0  0  0  0  0
   11.9096    2.1971   25.4479 H   0  0  0  0  0  0  0  0  0  0  0  0
   10.8288    1.4493   23.7876 C   0  0  0  0  0  0  0  0  0  0  0  0
   11.3971   -0.1617   24.1531 Cl  0  0  0  0  0  0  0  0  0  0  0  0
    5.4482    0.6527   20.1425 C   0  0  0  0  0  0  0  0  0  0  0  0
    5.0207    0.6246   21.1511 H   0  0  0  0  0  0  0  0  0  0  0  0
    4.8098    1.3096   19.0951 C   0  0  0  0  0  0  0  0  0  0  0  0
    3.8798    1.8403   19.2494 H   0  0  0  0  0  0  0  0  0  0  0  0
  1  2  1  0
  2  3  2  0
  3  4  1  0
  4  5  1  0
  4  6  2  0
  6  7  1  0
  7  8  1  6
  7  9  1  0
  9 10  2  0
  9 11  1  0
 11 12  1  0
 11 13  1  0
 13 14  1  0
 13 15  1  0
 13 16  1  0
 16 17  1  1
 16 18  1  0
 18 19  1  0
 18 20  1  0
 18 21  1  0
 21 22  2  0
 22 23  1  0
 22 24  1  0
 24 25  1  0
 24 26  2  0
 26 27  1  0
 26 28  1  0
 28 29  1  0
 28 30  2  0
 30 31  1  0
  6 32  1  0
 32 33  1  0
 32 34  2  0
 34 35  1  0
 34  2  1  0
 16  7  1  0
 30 21  1  0
M  END
>  <cnnaffinity>  (1) 
-5.4447

>  <filename>  (1) 
O=C1NC[C@@H](Cc2ccccc2Cl)[C@@H]1c1cccnc1

$$$$
