
     RDKit          3D

 33 35  0  0  0  0  0  0  0  0999 V2000
    5.0143    1.8004   16.9165 H   0  0  0  0  0  0  0  0  0  0  0  0
    5.4548    1.3104   17.7790 C   0  0  0  0  0  0  0  0  0  0  0  0
    6.6248    0.6864   17.5550 N   0  0  0  0  0  0  0  0  0  0  0  0
    7.1947    0.0629   18.5901 C   0  0  0  0  0  0  0  0  0  0  0  0
    8.1620   -0.4105   18.4299 H   0  0  0  0  0  0  0  0  0  0  0  0
    6.6116   -0.0176   19.8706 C   0  0  0  0  0  0  0  0  0  0  0  0
    7.2953   -0.7584   20.8832 N   0  0  0  0  0  0  0  0  0  0  0  0
    8.6558   -0.7153   20.7943 N   0  0  0  0  0  0  0  0  0  0  0  0
    9.3841   -1.2646   21.7162 C   0  0  0  0  0  0  0  0  0  0  0  0
   10.8661   -0.9375   21.6194 C   0  0  0  0  0  0  0  0  0  0  0  0
   11.0952   -0.6824   20.5781 H   0  0  0  0  0  0  0  0  0  0  0  0
   11.4604   -1.8216   21.8872 H   0  0  0  0  0  0  0  0  0  0  0  0
   11.1883    0.2199   22.5543 C   0  0  0  0  0  0  0  0  0  0  0  0
   11.2566   -0.0439   23.9331 C   0  0  0  0  0  0  0  0  0  0  0  0
   11.0644   -1.0568   24.2704 H   0  0  0  0  0  0  0  0  0  0  0  0
   11.4888    0.9694   24.8560 C   0  0  0  0  0  0  0  0  0  0  0  0
   11.4788    0.7190   25.9095 H   0  0  0  0  0  0  0  0  0  0  0  0
   11.6795    2.2778   24.4071 C   0  0  0  0  0  0  0  0  0  0  0  0
   11.9214    3.0880   25.0656 H   0  0  0  0  0  0  0  0  0  0  0  0
   11.5736    2.5780   23.0607 C   0  0  0  0  0  0  0  0  0  0  0  0
   11.6647    3.5870   22.6771 H   0  0  0  0  0  0  0  0  0  0  0  0
   11.3283    1.5552   22.1501 C   0  0  0  0  0  0  0  0  0  0  0  0
   11.2501    2.0805   20.5095 Cl  0  0  0  0  0  0  0  0  0  0  0  0
    8.8095   -2.0669   22.8513 C   0  0  0  0  0  0  0  0  0  0  0  0
    9.4898   -2.5992   23.7273 O   0  0  0  0  0  0  0  0  0  0  0  0
    7.3599   -2.1519   22.8122 C   0  0  0  0  0  0  0  0  0  0  0  0
    6.8848   -2.7150   23.6038 H   0  0  0  0  0  0  0  0  0  0  0  0
    6.6684   -1.5073   21.8467 C   0  0  0  0  0  0  0  0  0  0  0  0
    5.5866   -1.5406   21.7610 H   0  0  0  0  0  0  0  0  0  0  0  0
    5.4057    0.6589   20.1041 C   0  0  0  0  0  0  0  0  0  0  0  0
    4.9781    0.6860   21.1073 H   0  0  0  0  0  0  0  0  0  0  0  0
    4.8225    1.3372   19.0269 C   0  0  0  0  0  0  0  0  0  0  0  0
    3.8929    1.8842   19.1442 H   0  0  0  0  0  0  0  0  0  0  0  0
  1  2  1  0
  2  3  2  0
  3  4  1  0
  4  5  1  0
  4  6  2  0
  6  7  1  0
  7  8  1  0
  8  9  2  0
  9 10  1  0
 10 11  1  0
 10 12  1  0
 10 13  1  0
 13 14  2  0
 14 15  1  0
 14 16  1  0
 16 17  1  0
 16 18  2  0
 18 19  1  0
 18 20  1  0
 20 21  1  0
 20 22  2  0
 22 23  1  0
  9 24  1  0
 24 25  2  0
 24 26  1  0
 26 27  1  0
 26 28  2  0
 28 29  1  0
  6 30  1  0
 30 31  1  0
 30 32  2  0
 32 33  1  0
 32  2  1  0
 28  7  1  0
 22 13  1  0
M  END
>  <cnnaffinity>  (1) 
-5.49442

>  <filename>  (1) 
O=c1ccn(-c2cccnc2)nc1Cc1ccccc1Cl

$$$$
