
     RDKit          3D

 38 42  0  0  0  0  0  0  0  0999 V2000
    6.4695    0.0739   24.7684 O   0  0  0  0  0  0  0  0  0  0  0  0
    6.7065    1.0738   24.1150 C   0  0  0  0  0  0  0  0  0  0  0  0
    6.4130    2.2934   24.6716 N   0  0  0  0  0  0  0  0  0  0  0  0
    6.6425    3.4969   23.9887 C   0  0  0  0  0  0  0  0  0  0  0  0
    7.1654    3.4716   22.7114 C   0  0  0  0  0  0  0  0  0  0  0  0
    7.5247    5.1156   21.7945 Br  0  0  0  0  0  0  0  0  0  0  0  0
    7.4425    2.1889   22.0630 C   0  0  0  0  0  0  0  0  0  0  0  0
    7.2036    1.0241   22.7663 C   0  0  0  0  0  0  0  0  0  0  0  0
    7.4980   -0.2612   22.2298 C   0  0  0  0  0  0  0  0  0  0  0  0
    8.0329   -1.1937   22.9517 N   0  0  0  0  0  0  0  0  0  0  0  0
    8.2595   -2.1801   22.0039 C   0  0  0  0  0  0  0  0  0  0  0  0
    8.9375   -3.4824   22.3095 C   0  0  0  0  0  0  0  0  0  0  0  0
    8.2094   -4.7791   22.0530 C   0  0  0  0  0  0  0  0  0  0  0  0
    8.4892   -4.3411   23.5046 C   0  0  0  0  0  0  0  0  0  0  0  0
    9.7860   -4.4646   24.3211 C   0  0  0  0  0  0  0  0  0  0  0  0
    8.9119   -5.6803   24.1218 C   0  0  0  0  0  0  0  0  0  0  0  0
    9.1095   -6.4952   23.4136 H   0  0  0  0  0  0  0  0  0  0  0  0
    8.2481   -6.0183   24.9199 H   0  0  0  0  0  0  0  0  0  0  0  0
   10.7304   -4.3252   23.7851 H   0  0  0  0  0  0  0  0  0  0  0  0
    9.7756   -3.9019   25.2553 H   0  0  0  0  0  0  0  0  0  0  0  0
    8.7361   -5.6692   21.6778 H   0  0  0  0  0  0  0  0  0  0  0  0
    7.1529   -4.7681   21.7676 H   0  0  0  0  0  0  0  0  0  0  0  0
   10.0153   -3.3242   22.2297 H   0  0  0  0  0  0  0  0  0  0  0  0
    7.9305   -1.8772   20.7666 N   0  0  0  0  0  0  0  0  0  0  0  0
    7.3718   -0.6593   20.9073 N   0  0  0  0  0  0  0  0  0  0  0  0
    6.6847    0.0133   19.8904 C   0  0  0  0  0  0  0  0  0  0  0  0
    5.4863    0.6862   20.1525 C   0  0  0  0  0  0  0  0  0  0  0  0
    4.8387    1.3222   19.0923 C   0  0  0  0  0  0  0  0  0  0  0  0
    5.4091    1.2965   17.8143 C   0  0  0  0  0  0  0  0  0  0  0  0
    6.5592    0.6403   17.5560 N   0  0  0  0  0  0  0  0  0  0  0  0
    7.1729    0.0048   18.5736 C   0  0  0  0  0  0  0  0  0  0  0  0
    8.1067   -0.5133   18.3744 H   0  0  0  0  0  0  0  0  0  0  0  0
    4.9069    1.8262   17.0101 H   0  0  0  0  0  0  0  0  0  0  0  0
    3.9010    1.8492   19.2434 H   0  0  0  0  0  0  0  0  0  0  0  0
    5.0612    0.6943   21.1552 H   0  0  0  0  0  0  0  0  0  0  0  0
    7.8573    2.1824   21.0542 H   0  0  0  0  0  0  0  0  0  0  0  0
    6.4164    4.4633   24.4396 H   0  0  0  0  0  0  0  0  0  0  0  0
    6.0299    2.2731   25.6097 H   0  0  0  0  0  0  0  0  0  0  0  0
  1  2  2  0
  2  3  1  0
  3  4  1  0
  4  5  2  0
  5  6  1  0
  5  7  1  0
  7  8  2  0
  8  9  1  0
  9 10  2  0
 10 11  1  0
 11 12  1  0
 12 13  1  0
 13 14  1  0
 14 15  1  0
 15 16  1  0
 16 17  1  0
 16 18  1  0
 15 19  1  0
 15 20  1  0
 13 21  1  0
 13 22  1  0
 12 23  1  0
 11 24  2  0
 24 25  1  0
 25 26  1  0
 26 27  2  0
 27 28  1  0
 28 29  2  0
 29 30  1  0
 30 31  2  0
 31 32  1  0
 29 33  1  0
 28 34  1  0
 27 35  1  0
  7 36  1  0
  4 37  1  0
  3 38  1  0
  8  2  1  0
 25  9  1  0
 31 26  1  0
 14 12  1  0
 16 14  1  0
M  END
>  <cnnaffinity>  (1) 
-6.15605

>  <filename>  (1) 
O=c1[nH]cc(Br)cc1-c1nc(C2CC23CC3)nn1-c1cccnc1

$$$$
