
     RDKit          3D

 45 48  0  0  0  0  0  0  0  0999 V2000
    8.4505    1.4616   27.0330 O   0  0  0  0  0  0  0  0  0  0  0  0
    8.7258    1.6118   25.8520 C   0  0  0  0  0  0  0  0  0  0  0  0
   10.0322    1.8591   25.2355 C   0  0  0  0  0  0  0  0  0  0  0  0
   10.1248    2.0189   23.8891 C   0  0  0  0  0  0  0  0  0  0  0  0
    8.9313    1.9580   23.0595 C   0  0  0  0  0  0  0  0  0  0  0  0
    9.0379    1.9888   21.5502 C   0  0  0  0  0  0  0  0  0  0  0  0
    9.5138    0.6225   20.9604 C   0  0  0  0  0  0  0  0  0  0  0  0
    8.6451   -0.5282   21.3687 C   0  0  0  0  0  0  0  0  0  0  0  0
    8.8784   -1.3599   22.3654 N   0  0  0  0  0  0  0  0  0  0  0  0
    7.6688   -1.9518   22.5667 C   0  0  0  0  0  0  0  0  0  0  0  0
    7.4405   -2.9431   23.6789 C   0  0  0  0  0  0  0  0  0  0  0  0
    8.2163   -2.6294   24.9804 C   0  0  0  0  0  0  0  0  0  0  0  0
    7.4324   -3.3241   26.1154 C   0  0  0  0  0  0  0  0  0  0  0  0
    6.0099   -3.6095   25.5680 C   0  0  0  0  0  0  0  0  0  0  0  0
    5.9725   -3.0402   24.1397 C   0  0  0  0  0  0  0  0  0  0  0  0
    5.5531   -2.0304   24.1598 H   0  0  0  0  0  0  0  0  0  0  0  0
    5.3616   -3.6356   23.4530 H   0  0  0  0  0  0  0  0  0  0  0  0
    5.2309   -3.1531   26.1888 H   0  0  0  0  0  0  0  0  0  0  0  0
    5.8066   -4.6861   25.5650 H   0  0  0  0  0  0  0  0  0  0  0  0
    7.4078   -2.6955   27.0125 H   0  0  0  0  0  0  0  0  0  0  0  0
    7.9171   -4.2605   26.4135 H   0  0  0  0  0  0  0  0  0  0  0  0
    8.2408   -1.5435   25.1386 H   0  0  0  0  0  0  0  0  0  0  0  0
    9.2585   -2.9606   24.9260 H   0  0  0  0  0  0  0  0  0  0  0  0
    7.7761   -3.9126   23.2858 H   0  0  0  0  0  0  0  0  0  0  0  0
    6.7287   -1.5789   21.7120 N   0  0  0  0  0  0  0  0  0  0  0  0
    7.3639   -0.6721   20.9290 N   0  0  0  0  0  0  0  0  0  0  0  0
    6.6569    0.0017   19.8950 C   0  0  0  0  0  0  0  0  0  0  0  0
    5.4402    0.6378   20.1621 C   0  0  0  0  0  0  0  0  0  0  0  0
    4.8115    1.3080   19.1079 C   0  0  0  0  0  0  0  0  0  0  0  0
    5.3989    1.2949   17.8371 C   0  0  0  0  0  0  0  0  0  0  0  0
    6.5558    0.6693   17.5735 N   0  0  0  0  0  0  0  0  0  0  0  0
    7.1656    0.0462   18.5863 C   0  0  0  0  0  0  0  0  0  0  0  0
    8.1116   -0.4405   18.3581 H   0  0  0  0  0  0  0  0  0  0  0  0
    4.9239    1.7928   16.9940 H   0  0  0  0  0  0  0  0  0  0  0  0
    3.8802    1.8401   19.2583 H   0  0  0  0  0  0  0  0  0  0  0  0
    5.0192    0.6049   21.1698 H   0  0  0  0  0  0  0  0  0  0  0  0
    9.5395    0.6854   19.8712 H   0  0  0  0  0  0  0  0  0  0  0  0
   10.5304    0.3912   21.2953 H   0  0  0  0  0  0  0  0  0  0  0  0
    8.0644    2.2645   21.1306 H   0  0  0  0  0  0  0  0  0  0  0  0
    9.7518    2.7677   21.2672 H   0  0  0  0  0  0  0  0  0  0  0  0
    7.7524    1.7559   23.5798 N   0  0  0  0  0  0  0  0  0  0  0  0
    7.7020    1.5590   24.9242 N   0  0  0  0  0  0  0  0  0  0  0  0
    6.8148    1.3756   25.3682 H   0  0  0  0  0  0  0  0  0  0  0  0
   11.0710    2.1834   23.3802 H   0  0  0  0  0  0  0  0  0  0  0  0
   10.8708    1.8831   25.9201 H   0  0  0  0  0  0  0  0  0  0  0  0
  1  2  2  0
  2  3  1  0
  3  4  2  0
  4  5  1  0
  5  6  1  0
  6  7  1  0
  7  8  1  0
  8  9  2  0
  9 10  1  0
 10 11  1  0
 11 12  1  0
 12 13  1  0
 13 14  1  0
 14 15  1  0
 15 16  1  0
 15 17  1  0
 14 18  1  0
 14 19  1  0
 13 20  1  0
 13 21  1  0
 12 22  1  0
 12 23  1  0
 11 24  1  0
 10 25  2  0
 25 26  1  0
 26 27  1  0
 27 28  2  0
 28 29  1  0
 29 30  2  0
 30 31  1  0
 31 32  2  0
 32 33  1  0
 30 34  1  0
 29 35  1  0
 28 36  1  0
  7 37  1  0
  7 38  1  0
  6 39  1  0
  6 40  1  0
  5 41  2  0
 41 42  1  0
 42 43  1  0
  4 44  1  0
  3 45  1  0
 42  2  1  0
 26  8  1  0
 32 27  1  0
 15 11  1  0
M  END
>  <cnnaffinity>  (1) 
-6.10551

>  <filename>  (1) 
O=c1ccc(CCc2nc(C3CCCC3)nn2-c2cccnc2)n[nH]1

$$$$
