
     RDKit          3D

 34 37  0  0  0  0  0  0  0  0999 V2000
    4.9297    1.8799   16.7339 H   0  0  0  0  0  0  0  0  0  0  0  0
    5.3621    1.3712   17.5915 C   0  0  0  0  0  0  0  0  0  0  0  0
    6.5240    0.7315   17.3726 N   0  0  0  0  0  0  0  0  0  0  0  0
    7.0889    0.1029   18.4093 C   0  0  0  0  0  0  0  0  0  0  0  0
    8.0482   -0.3747   18.1999 H   0  0  0  0  0  0  0  0  0  0  0  0
    6.5336    0.0817   19.7017 C   0  0  0  0  0  0  0  0  0  0  0  0
    7.1809   -0.5901   20.8290 C   0  0  0  0  0  0  0  0  0  0  0  0
    7.2093   -0.0925   22.1010 C   0  0  0  0  0  0  0  0  0  0  0  0
    6.8426    0.9010   22.3129 H   0  0  0  0  0  0  0  0  0  0  0  0
    7.8004   -0.8776   23.1239 C   0  0  0  0  0  0  0  0  0  0  0  0
    7.9864   -0.2709   24.4696 C   0  0  0  0  0  0  0  0  0  0  0  0
    6.9153    0.2695   25.1968 C   0  0  0  0  0  0  0  0  0  0  0  0
    5.9177    0.3172   24.7635 H   0  0  0  0  0  0  0  0  0  0  0  0
    7.1171    0.7401   26.5110 C   0  0  0  0  0  0  0  0  0  0  0  0
    6.2776    1.1199   27.0798 H   0  0  0  0  0  0  0  0  0  0  0  0
    8.3724    0.7528   27.1024 C   0  0  0  0  0  0  0  0  0  0  0  0
    8.4881    1.1037   28.1257 H   0  0  0  0  0  0  0  0  0  0  0  0
    9.4585    0.3226   26.3217 C   0  0  0  0  0  0  0  0  0  0  0  0
    9.2931   -0.1948   25.0120 C   0  0  0  0  0  0  0  0  0  0  0  0
   10.6238   -0.4510   24.5106 C   0  0  0  0  0  0  0  0  0  0  0  0
   10.8684   -0.8424   23.5299 H   0  0  0  0  0  0  0  0  0  0  0  0
   11.5077   -0.0925   25.4831 C   0  0  0  0  0  0  0  0  0  0  0  0
   12.5929   -0.1378   25.4905 H   0  0  0  0  0  0  0  0  0  0  0  0
   10.8033    0.3397   26.5887 N   0  0  0  0  0  0  0  0  0  0  0  0
   11.1843    0.7383   27.4326 H   0  0  0  0  0  0  0  0  0  0  0  0
    8.2275   -2.1043   22.9343 N   0  0  0  0  0  0  0  0  0  0  0  0
    8.1208   -2.6404   21.6828 C   0  0  0  0  0  0  0  0  0  0  0  0
    8.3428   -3.7975   21.3941 O   0  0  0  0  0  0  0  0  0  0  0  0
    7.7800   -1.7864   20.6316 N   0  0  0  0  0  0  0  0  0  0  0  0
    7.7430   -2.3063   19.7749 H   0  0  0  0  0  0  0  0  0  0  0  0
    5.3242    0.7664   19.9130 C   0  0  0  0  0  0  0  0  0  0  0  0
    4.8763    0.7713   20.9112 H   0  0  0  0  0  0  0  0  0  0  0  0
    4.7242    1.4111   18.8377 C   0  0  0  0  0  0  0  0  0  0  0  0
    3.7941    1.9561   18.9604 H   0  0  0  0  0  0  0  0  0  0  0  0
  1  2  1  0
  2  3  2  0
  3  4  1  0
  4  5  1  0
  4  6  2  0
  6  7  1  0
  7  8  2  0
  8  9  1  0
  8 10  1  0
 10 11  1  0
 11 12  2  0
 12 13  1  0
 12 14  1  0
 14 15  1  0
 14 16  2  0
 16 17  1  0
 16 18  1  0
 18 19  2  0
 19 20  1  0
 20 21  1  0
 20 22  2  0
 22 23  1  0
 22 24  1  0
 24 25  1  0
 10 26  2  0
 26 27  1  0
 27 28  2  0
 27 29  1  0
 29 30  1  0
  6 31  1  0
 31 32  1  0
 31 33  2  0
 33 34  1  0
 33  2  1  0
 29  7  1  0
 19 11  1  0
 24 18  1  0
M  END
>  <cnnaffinity>  (1) 
-5.40203

>  <filename>  (1) 
O=c1nc(-c2cccc3[nH]ccc23)cc(-c2cccnc2)[nH]1

$$$$
