
     RDKit          3D

 39 42  0  0  0  0  0  0  0  0999 V2000
    7.6825   -4.4078   26.6209 O   0  0  0  0  0  0  0  0  0  0  0  0
    7.4636   -3.3167   26.1271 C   0  0  0  0  0  0  0  0  0  0  0  0
    7.3189   -3.0353   24.7139 C   0  0  0  0  0  0  0  0  0  0  0  0
    7.1771   -1.7440   24.2804 C   0  0  0  0  0  0  0  0  0  0  0  0
    7.3910   -1.4026   22.9073 N   0  0  0  0  0  0  0  0  0  0  0  0
    6.5038   -0.6960   22.1644 N   0  0  0  0  0  0  0  0  0  0  0  0
    7.0912   -0.6260   20.9832 C   0  0  0  0  0  0  0  0  0  0  0  0
    6.4795    0.0456   19.8369 C   0  0  0  0  0  0  0  0  0  0  0  0
    5.2653    0.7452   19.9415 C   0  0  0  0  0  0  0  0  0  0  0  0
    4.7870    1.4012   18.8132 C   0  0  0  0  0  0  0  0  0  0  0  0
    5.5161    1.3145   17.6227 C   0  0  0  0  0  0  0  0  0  0  0  0
    6.6505    0.6079   17.4996 N   0  0  0  0  0  0  0  0  0  0  0  0
    7.1173   -0.0103   18.5906 C   0  0  0  0  0  0  0  0  0  0  0  0
    8.0393   -0.5775   18.4651 H   0  0  0  0  0  0  0  0  0  0  0  0
    5.1663    1.8290   16.7311 H   0  0  0  0  0  0  0  0  0  0  0  0
    3.8822    1.9968   18.8516 H   0  0  0  0  0  0  0  0  0  0  0  0
    4.7281    0.7674   20.8912 H   0  0  0  0  0  0  0  0  0  0  0  0
    8.3187   -1.2106   20.9324 N   0  0  0  0  0  0  0  0  0  0  0  0
    8.4926   -1.6600   22.1571 C   0  0  0  0  0  0  0  0  0  0  0  0
    9.7513   -2.2588   22.7074 C   0  0  0  0  0  0  0  0  0  0  0  0
   10.6795   -1.2158   23.3079 C   0  0  0  0  0  0  0  0  0  0  0  0
   11.6571   -0.5250   22.5818 C   0  0  0  0  0  0  0  0  0  0  0  0
   12.0540   -1.0553   20.9904 Cl  0  0  0  0  0  0  0  0  0  0  0  0
   12.3533    0.5577   23.1450 C   0  0  0  0  0  0  0  0  0  0  0  0
   12.1739    0.9373   24.4159 N   0  0  0  0  0  0  0  0  0  0  0  0
   11.2818    0.2642   25.1528 C   0  0  0  0  0  0  0  0  0  0  0  0
   10.5514   -0.8047   24.6343 C   0  0  0  0  0  0  0  0  0  0  0  0
    9.7403   -1.4829   25.4582 F   0  0  0  0  0  0  0  0  0  0  0  0
   11.1202    0.5677   26.1850 H   0  0  0  0  0  0  0  0  0  0  0  0
   13.0809    1.1187   22.5628 H   0  0  0  0  0  0  0  0  0  0  0  0
    9.5152   -2.9906   23.4801 H   0  0  0  0  0  0  0  0  0  0  0  0
   10.2370   -2.7882   21.8888 H   0  0  0  0  0  0  0  0  0  0  0  0
    6.9270   -0.6855   25.2125 C   0  0  0  0  0  0  0  0  0  0  0  0
    7.0156   -0.9443   26.5387 C   0  0  0  0  0  0  0  0  0  0  0  0
    7.3368   -2.2106   26.9610 N   0  0  0  0  0  0  0  0  0  0  0  0
    7.5138   -2.4770   27.9138 H   0  0  0  0  0  0  0  0  0  0  0  0
    6.8875   -0.1786   27.3019 H   0  0  0  0  0  0  0  0  0  0  0  0
    6.7231    0.3161   24.8467 H   0  0  0  0  0  0  0  0  0  0  0  0
    7.3744   -3.8935   24.0663 H   0  0  0  0  0  0  0  0  0  0  0  0
  1  2  2  0
  2  3  1  0
  3  4  2  0
  4  5  1  0
  5  6  1  0
  6  7  2  0
  7  8  1  0
  8  9  2  0
  9 10  1  0
 10 11  2  0
 11 12  1  0
 12 13  2  0
 13 14  1  0
 11 15  1  0
 10 16  1  0
  9 17  1  0
  7 18  1  0
 18 19  2  0
 19 20  1  0
 20 21  1  0
 21 22  2  0
 22 23  1  0
 22 24  1  0
 24 25  2  0
 25 26  1  0
 26 27  2  0
 27 28  1  0
 26 29  1  0
 24 30  1  0
 20 31  1  0
 20 32  1  0
  4 33  1  0
 33 34  2  0
 34 35  1  0
 35 36  1  0
 34 37  1  0
 33 38  1  0
  3 39  1  0
 35  2  1  0
 19  5  1  0
 27 21  1  0
 13  8  1  0
M  END
>  <cnnaffinity>  (1) 
-6.0356

>  <filename>  (1) 
O=c1cc(-n2nc(-c3cccnc3)nc2Cc2c(F)cncc2Cl)cc[nH]1

$$$$
