
     RDKit          3D

 30 32  0  0  0  0  0  0  0  0999 V2000
    4.9224    1.8237   16.9401 H   0  0  0  0  0  0  0  0  0  0  0  0
    5.3773    1.3348   17.7975 C   0  0  0  0  0  0  0  0  0  0  0  0
    6.5427    0.7100   17.5697 N   0  0  0  0  0  0  0  0  0  0  0  0
    7.1278    0.1115   18.6095 C   0  0  0  0  0  0  0  0  0  0  0  0
    8.0577   -0.4236   18.4186 H   0  0  0  0  0  0  0  0  0  0  0  0
    6.6107    0.1377   19.9110 C   0  0  0  0  0  0  0  0  0  0  0  0
    7.3667   -0.5641   20.9627 C   0  0  0  0  0  0  0  0  0  0  0  0
    8.0275   -1.6158   20.5659 N   0  0  0  0  0  0  0  0  0  0  0  0
    8.5477   -2.4252   21.5263 C   0  0  0  0  0  0  0  0  0  0  0  0
    8.8094   -3.5956   21.3853 O   0  0  0  0  0  0  0  0  0  0  0  0
    8.7932   -1.8601   22.7873 N   0  0  0  0  0  0  0  0  0  0  0  0
    9.1016   -2.5937   23.3979 H   0  0  0  0  0  0  0  0  0  0  0  0
    8.0389   -0.8214   23.2501 C   0  0  0  0  0  0  0  0  0  0  0  0
    8.0707   -0.4977   24.6900 C   0  0  0  0  0  0  0  0  0  0  0  0
    9.2763   -0.5071   25.4230 C   0  0  0  0  0  0  0  0  0  0  0  0
   10.1917   -0.8051   24.9197 H   0  0  0  0  0  0  0  0  0  0  0  0
    9.3276   -0.1197   26.7582 C   0  0  0  0  0  0  0  0  0  0  0  0
   10.2579   -0.0948   27.3134 H   0  0  0  0  0  0  0  0  0  0  0  0
    8.1448    0.2632   27.3839 C   0  0  0  0  0  0  0  0  0  0  0  0
    8.1806    0.6611   28.6609 F   0  0  0  0  0  0  0  0  0  0  0  0
    6.9206    0.2555   26.7283 C   0  0  0  0  0  0  0  0  0  0  0  0
    6.0081    0.5519   27.2299 H   0  0  0  0  0  0  0  0  0  0  0  0
    6.9097   -0.1237   25.3912 C   0  0  0  0  0  0  0  0  0  0  0  0
    5.7126   -0.1311   24.7776 F   0  0  0  0  0  0  0  0  0  0  0  0
    7.3229   -0.1290   22.3145 C   0  0  0  0  0  0  0  0  0  0  0  0
    6.7384    0.7272   22.5923 H   0  0  0  0  0  0  0  0  0  0  0  0
    5.3739    0.7529   20.1291 C   0  0  0  0  0  0  0  0  0  0  0  0
    4.9120    0.7166   21.1175 H   0  0  0  0  0  0  0  0  0  0  0  0
    4.7484    1.3670   19.0469 C   0  0  0  0  0  0  0  0  0  0  0  0
    3.8004    1.8776   19.1639 H   0  0  0  0  0  0  0  0  0  0  0  0
  1  2  1  0
  2  3  2  0
  3  4  1  0
  4  5  1  0
  4  6  2  0
  6  7  1  0
  7  8  2  0
  8  9  1  0
  9 10  2  0
  9 11  1  0
 11 12  1  0
 11 13  1  0
 13 14  1  0
 14 15  2  0
 15 16  1  0
 15 17  1  0
 17 18  1  0
 17 19  2  0
 19 20  1  0
 19 21  1  0
 21 22  1  0
 21 23  2  0
 23 24  1  0
 13 25  2  0
 25 26  1  0
  6 27  1  0
 27 28  1  0
 27 29  2  0
 29 30  1  0
 29  2  1  0
 25  7  1  0
 23 14  1  0
M  END
>  <cnnaffinity>  (1) 
-5.28227

>  <filename>  (1) 
O=c1nc(-c2cccnc2)cc(-c2ccc(F)cc2F)[nH]1

$$$$
