
     RDKit          3D

 34 36  0  0  0  0  0  0  0  0999 V2000
    5.0307    1.7958   16.9371 H   0  0  0  0  0  0  0  0  0  0  0  0
    5.4756    1.3234   17.8139 C   0  0  0  0  0  0  0  0  0  0  0  0
    6.6774    0.7577   17.6219 N   0  0  0  0  0  0  0  0  0  0  0  0
    7.2638    0.1769   18.6780 C   0  0  0  0  0  0  0  0  0  0  0  0
    8.2500   -0.2451   18.4951 H   0  0  0  0  0  0  0  0  0  0  0  0
    6.6732    0.0729   19.9440 C   0  0  0  0  0  0  0  0  0  0  0  0
    7.3320   -0.6795   21.0747 C   0  0  1  0  0  0  0  0  0  0  0  0
    6.7369   -0.5298   21.9880 H   0  0  0  0  0  0  0  0  0  0  0  0
    7.4583   -2.2281   20.9292 C   0  0  0  0  0  0  0  0  0  0  0  0
    6.6152   -3.0738   20.7867 O   0  0  0  0  0  0  0  0  0  0  0  0
    8.7972   -2.4667   21.0621 N   0  0  0  0  0  0  0  0  0  0  0  0
    9.2164   -3.3707   21.0806 H   0  0  0  0  0  0  0  0  0  0  0  0
    9.5645   -1.3668   21.2698 C   0  0  0  0  0  0  0  0  0  0  0  0
   10.7640   -1.4227   21.4372 O   0  0  0  0  0  0  0  0  0  0  0  0
    8.7488   -0.2807   21.2615 N   0  0  0  0  0  0  0  0  0  0  0  0
    9.2162    1.0359   21.3204 C   0  0  0  0  0  0  0  0  0  0  0  0
    8.4479    1.9574   21.1161 O   0  0  0  0  0  0  0  0  0  0  0  0
   10.5240    1.1625   21.6097 N   0  0  0  0  0  0  0  0  0  0  0  0
   10.9875    0.2731   21.7586 H   0  0  0  0  0  0  0  0  0  0  0  0
   11.0920    2.4242   22.0609 C   0  0  0  0  0  0  0  0  0  0  0  0
   10.9947    3.1639   21.2614 H   0  0  0  0  0  0  0  0  0  0  0  0
   12.1667    2.2713   22.2366 H   0  0  0  0  0  0  0  0  0  0  0  0
   10.4509    2.9425   23.3313 C   0  0  0  0  0  0  0  0  0  0  0  0
    9.3850    3.1314   23.2090 H   0  0  0  0  0  0  0  0  0  0  0  0
   11.2068    3.8559   24.2574 C   0  0  0  0  0  0  0  0  0  0  0  0
   10.6589    4.6625   24.7441 H   0  0  0  0  0  0  0  0  0  0  0  0
   12.2327    4.1306   24.0084 H   0  0  0  0  0  0  0  0  0  0  0  0
   10.9096    2.4341   24.6687 C   0  0  0  0  0  0  0  0  0  0  0  0
   10.1563    2.2531   25.4345 H   0  0  0  0  0  0  0  0  0  0  0  0
   11.7256    1.7113   24.6895 H   0  0  0  0  0  0  0  0  0  0  0  0
    5.4301    0.6923   20.1303 C   0  0  0  0  0  0  0  0  0  0  0  0
    4.9636    0.7047   21.1165 H   0  0  0  0  0  0  0  0  0  0  0  0
    4.8154    1.3282   19.0455 C   0  0  0  0  0  0  0  0  0  0  0  0
    3.8590    1.8368   19.1409 H   0  0  0  0  0  0  0  0  0  0  0  0
  1  2  1  0
  2  3  2  0
  3  4  1  0
  4  5  1  0
  4  6  2  0
  6  7  1  0
  7  8  1  1
  7  9  1  0
  9 10  2  0
  9 11  1  0
 11 12  1  0
 11 13  1  0
 13 14  2  0
 13 15  1  0
 15 16  1  0
 16 17  2  0
 16 18  1  0
 18 19  1  0
 18 20  1  0
 20 21  1  0
 20 22  1  0
 20 23  1  0
 23 24  1  0
 23 25  1  0
 25 26  1  0
 25 27  1  0
 25 28  1  0
 28 29  1  0
 28 30  1  0
  6 31  1  0
 31 32  1  0
 31 33  2  0
 33 34  1  0
 33  2  1  0
 15  7  1  0
 28 23  1  0
M  END
>  <cnnaffinity>  (1) 
-5.21705

>  <filename>  (1) 
O=C1NC(=O)N(C(=O)NCC2CC2)[C@H]1c1cccnc1

$$$$
