
     RDKit          3D

 33 36  0  0  0  0  0  0  0  0999 V2000
    4.9644    1.8021   16.9536 H   0  0  0  0  0  0  0  0  0  0  0  0
    5.4426    1.3199   17.8050 C   0  0  0  0  0  0  0  0  0  0  0  0
    6.6266    0.7373   17.5609 N   0  0  0  0  0  0  0  0  0  0  0  0
    7.2256    0.1198   18.5847 C   0  0  0  0  0  0  0  0  0  0  0  0
    8.1963   -0.3292   18.3875 H   0  0  0  0  0  0  0  0  0  0  0  0
    6.6600   -0.0048   19.8663 C   0  0  0  0  0  0  0  0  0  0  0  0
    7.3837   -0.8300   20.8833 C   0  0  0  0  0  0  0  0  0  0  0  0
    8.6790   -0.6219   20.9452 N   0  0  0  0  0  0  0  0  0  0  0  0
    9.4037   -1.2449   21.9289 N   0  0  0  0  0  0  0  0  0  0  0  0
   10.8065   -0.9886   21.9893 C   0  0  0  0  0  0  0  0  0  0  0  0
   11.7432   -1.9488   22.1693 C   0  0  0  0  0  0  0  0  0  0  0  0
   11.5572   -3.0121   22.1965 H   0  0  0  0  0  0  0  0  0  0  0  0
   13.3543   -1.3353   22.2899 S   0  0  0  0  0  0  0  0  0  0  0  0
   12.7672    0.2982   22.3022 C   0  0  0  0  0  0  0  0  0  0  0  0
   13.5182    1.4646   22.5485 C   0  0  0  0  0  0  0  0  0  0  0  0
   14.5514    1.4145   22.8801 H   0  0  0  0  0  0  0  0  0  0  0  0
   12.9118    2.6894   22.3026 C   0  0  0  0  0  0  0  0  0  0  0  0
   13.4993    3.6008   22.4033 H   0  0  0  0  0  0  0  0  0  0  0  0
   11.5730    2.7554   21.8698 C   0  0  0  0  0  0  0  0  0  0  0  0
   11.1202    3.7214   21.6907 H   0  0  0  0  0  0  0  0  0  0  0  0
   10.8106    1.6055   21.7134 C   0  0  0  0  0  0  0  0  0  0  0  0
    9.7618    1.6422   21.4437 H   0  0  0  0  0  0  0  0  0  0  0  0
   11.3929    0.3467   21.9720 C   0  0  0  0  0  0  0  0  0  0  0  0
    8.7869   -2.0044   22.8995 C   0  0  0  0  0  0  0  0  0  0  0  0
    9.4360   -2.3612   23.7009 H   0  0  0  0  0  0  0  0  0  0  0  0
    7.4736   -2.2795   22.8763 C   0  0  0  0  0  0  0  0  0  0  0  0
    6.9937   -2.8638   23.6466 H   0  0  0  0  0  0  0  0  0  0  0  0
    6.6567   -1.8425   21.7574 C   0  0  0  0  0  0  0  0  0  0  0  0
    5.5276   -2.2731   21.5609 O   0  0  0  0  0  0  0  0  0  0  0  0
    5.4391    0.6480   20.1163 C   0  0  0  0  0  0  0  0  0  0  0  0
    4.9862    0.6237   21.1109 H   0  0  0  0  0  0  0  0  0  0  0  0
    4.8244    1.3211   19.0600 C   0  0  0  0  0  0  0  0  0  0  0  0
    3.8855    1.8477   19.1910 H   0  0  0  0  0  0  0  0  0  0  0  0
  1  2  1  0
  2  3  2  0
  3  4  1  0
  4  5  1  0
  4  6  2  0
  6  7  1  0
  7  8  2  0
  8  9  1  0
  9 10  1  0
 10 11  2  0
 11 12  1  0
 11 13  1  0
 13 14  1  0
 14 15  2  0
 15 16  1  0
 15 17  1  0
 17 18  1  0
 17 19  2  0
 19 20  1  0
 19 21  1  0
 21 22  1  0
 21 23  2  0
  9 24  1  0
 24 25  1  0
 24 26  2  0
 26 27  1  0
 26 28  1  0
 28 29  2  0
  6 30  1  0
 30 31  1  0
 30 32  2  0
 32 33  1  0
 32  2  1  0
 28  7  1  0
 23 10  1  0
 23 14  1  0
M  END
>  <cnnaffinity>  (1) 
-6.28253

>  <filename>  (1) 
O=c1ccn(-c2csc3ccccc23)nc1-c1cccnc1

$$$$
