
     RDKit          3D

 34 37  0  0  0  0  0  0  0  0999 V2000
    4.9120    1.8074   16.9760 H   0  0  0  0  0  0  0  0  0  0  0  0
    5.3799    1.3043   17.8190 C   0  0  0  0  0  0  0  0  0  0  0  0
    6.5368    0.6820   17.5487 N   0  0  0  0  0  0  0  0  0  0  0  0
    7.1488    0.0667   18.5659 C   0  0  0  0  0  0  0  0  0  0  0  0
    8.1084   -0.4073   18.3579 H   0  0  0  0  0  0  0  0  0  0  0  0
    6.6455    0.0116   19.8797 C   0  0  0  0  0  0  0  0  0  0  0  0
    7.3652   -0.7035   20.9531 C   0  0  0  0  0  0  0  0  0  0  0  0
    6.7151   -1.6317   21.7270 C   0  0  0  0  0  0  0  0  0  0  0  0
    5.6642   -1.8330   21.5320 H   0  0  0  0  0  0  0  0  0  0  0  0
    7.3595   -2.3593   22.7659 C   0  0  0  0  0  0  0  0  0  0  0  0
    6.5915   -3.3418   23.5382 C   0  0  0  0  0  0  0  0  0  0  0  0
    7.2421   -4.0388   24.5325 O   0  0  0  0  0  0  0  0  0  0  0  0
    6.3197   -4.8743   25.0867 C   0  0  0  0  0  0  0  0  0  0  0  0
    6.5207   -5.7776   26.1332 C   0  0  0  0  0  0  0  0  0  0  0  0
    7.4882   -5.8854   26.6137 H   0  0  0  0  0  0  0  0  0  0  0  0
    5.4104   -6.5289   26.5247 C   0  0  0  0  0  0  0  0  0  0  0  0
    5.5134   -7.2451   27.3344 H   0  0  0  0  0  0  0  0  0  0  0  0
    4.1528   -6.3826   25.8990 C   0  0  0  0  0  0  0  0  0  0  0  0
    3.3125   -6.9815   26.2353 H   0  0  0  0  0  0  0  0  0  0  0  0
    3.9739   -5.4790   24.8611 C   0  0  0  0  0  0  0  0  0  0  0  0
    3.0175   -5.3459   24.3654 H   0  0  0  0  0  0  0  0  0  0  0  0
    5.0776   -4.7140   24.4488 C   0  0  0  0  0  0  0  0  0  0  0  0
    5.2876   -3.7111   23.4485 C   0  0  0  0  0  0  0  0  0  0  0  0
    4.5451   -3.3211   22.7706 H   0  0  0  0  0  0  0  0  0  0  0  0
    8.6865   -2.1071   23.0231 C   0  0  0  0  0  0  0  0  0  0  0  0
    9.2489   -2.6148   23.8032 H   0  0  0  0  0  0  0  0  0  0  0  0
    9.3288   -1.1782   22.2737 N   0  0  0  0  0  0  0  0  0  0  0  0
   10.2923   -0.8860   22.3530 H   0  0  0  0  0  0  0  0  0  0  0  0
    8.7855   -0.4202   21.2299 C   0  0  0  0  0  0  0  0  0  0  0  0
    9.5520    0.3667   20.7004 O   0  0  0  0  0  0  0  0  0  0  0  0
    5.4209    0.6478   20.1327 C   0  0  0  0  0  0  0  0  0  0  0  0
    5.0102    0.6384   21.1443 H   0  0  0  0  0  0  0  0  0  0  0  0
    4.7884    1.3204   19.0878 C   0  0  0  0  0  0  0  0  0  0  0  0
    3.8623    1.8579   19.2381 H   0  0  0  0  0  0  0  0  0  0  0  0
  1  2  1  0
  2  3  2  0
  3  4  1  0
  4  5  1  0
  4  6  2  0
  6  7  1  0
  7  8  2  0
  8  9  1  0
  8 10  1  0
 10 11  1  0
 11 12  1  0
 12 13  1  0
 13 14  2  0
 14 15  1  0
 14 16  1  0
 16 17  1  0
 16 18  2  0
 18 19  1  0
 18 20  1  0
 20 21  1  0
 20 22  2  0
 22 23  1  0
 23 24  1  0
 10 25  2  0
 25 26  1  0
 25 27  1  0
 27 28  1  0
 27 29  1  0
 29 30  2  0
  6 31  1  0
 31 32  1  0
 31 33  2  0
 33 34  1  0
 33  2  1  0
 29  7  1  0
 23 11  2  0
 22 13  1  0
M  END
>  <cnnaffinity>  (1) 
-5.47916

>  <filename>  (1) 
O=c1[nH]cc(-c2cc3ccccc3o2)cc1-c1cccnc1

$$$$
