
     RDKit          3D

 33 35  0  0  0  0  0  0  0  0999 V2000
    3.6868   -3.0621   22.6191 H   0  0  0  0  0  0  0  0  0  0  0  0
    4.3781   -3.1749   21.9602 O   0  0  0  0  0  0  0  0  0  0  0  0
    4.9480   -4.4010   22.1230 C   0  0  0  0  0  0  0  0  0  0  0  0
    4.2232   -5.4358   22.7115 C   0  0  0  0  0  0  0  0  0  0  0  0
    3.2307   -5.2282   23.0902 H   0  0  0  0  0  0  0  0  0  0  0  0
    4.7844   -6.7086   22.8171 C   0  0  0  0  0  0  0  0  0  0  0  0
    3.8747   -7.9616   23.6039 Cl  0  0  0  0  0  0  0  0  0  0  0  0
    6.0783   -6.9450   22.3539 C   0  0  0  0  0  0  0  0  0  0  0  0
    6.5041   -7.9398   22.4365 H   0  0  0  0  0  0  0  0  0  0  0  0
    6.8206   -5.8849   21.8072 C   0  0  0  0  0  0  0  0  0  0  0  0
    7.8426   -6.0311   21.4700 H   0  0  0  0  0  0  0  0  0  0  0  0
    6.2768   -4.5971   21.6853 C   0  0  0  0  0  0  0  0  0  0  0  0
    7.0637   -3.6224   21.0799 O   0  0  0  0  0  0  0  0  0  0  0  0
    7.1550   -2.3155   21.6314 C   0  0  2  0  0  0  0  0  0  0  0  0
    6.1776   -1.9737   21.9907 H   0  0  0  0  0  0  0  0  0  0  0  0
    7.6766   -1.4332   20.6073 N   0  0  0  0  0  0  0  0  0  0  0  0
    6.8614   -0.6548   19.7222 C   0  0  0  0  0  0  0  0  0  0  0  0
    7.2763   -0.3989   18.3943 C   0  0  0  0  0  0  0  0  0  0  0  0
    8.1722   -0.8843   18.0112 H   0  0  0  0  0  0  0  0  0  0  0  0
    6.6452    0.4469   17.5693 N   0  0  0  0  0  0  0  0  0  0  0  0
    5.5686    1.0966   18.0406 C   0  0  0  0  0  0  0  0  0  0  0  0
    5.0921    1.8006   17.3606 H   0  0  0  0  0  0  0  0  0  0  0  0
    5.0657    0.9023   19.3308 C   0  0  0  0  0  0  0  0  0  0  0  0
    4.2037    1.4657   19.6650 H   0  0  0  0  0  0  0  0  0  0  0  0
    5.7132    0.0013   20.1829 C   0  0  0  0  0  0  0  0  0  0  0  0
    5.3731   -0.1673   21.2047 H   0  0  0  0  0  0  0  0  0  0  0  0
    8.9255   -0.9148   20.9855 C   0  0  0  0  0  0  0  0  0  0  0  0
    9.6641   -0.2398   20.3101 O   0  0  0  0  0  0  0  0  0  0  0  0
    9.1436   -1.2745   22.2838 N   0  0  0  0  0  0  0  0  0  0  0  0
   10.1055   -1.1848   22.5559 H   0  0  0  0  0  0  0  0  0  0  0  0
    8.1977   -2.2585   22.7765 C   0  0  0  0  0  0  0  0  0  0  0  0
    8.6570   -3.2454   22.9111 H   0  0  0  0  0  0  0  0  0  0  0  0
    7.7362   -1.9459   23.7219 H   0  0  0  0  0  0  0  0  0  0  0  0
  1  2  1  0
  2  3  1  0
  3  4  2  0
  4  5  1  0
  4  6  1  0
  6  7  1  0
  6  8  2  0
  8  9  1  0
  8 10  1  0
 10 11  1  0
 10 12  2  0
 12 13  1  0
 13 14  1  0
 14 15  1  1
 14 16  1  0
 16 17  1  0
 17 18  2  0
 18 19  1  0
 18 20  1  0
 20 21  2  0
 21 22  1  0
 21 23  1  0
 23 24  1  0
 23 25  2  0
 25 26  1  0
 16 27  1  0
 27 28  2  0
 27 29  1  0
 29 30  1  0
 29 31  1  0
 31 32  1  0
 31 33  1  0
 12  3  1  0
 31 14  1  0
 25 17  1  0
M  END
>  <cnnaffinity>  (1) 
-5.00387

>  <filename>  (1) 
O=C1NC[C@H](Oc2ccc(Cl)cc2O)N1c1cccnc1

$$$$
