
     RDKit          3D

 31 33  0  0  0  0  0  0  0  0999 V2000
    4.9318    1.8004   16.9787 H   0  0  0  0  0  0  0  0  0  0  0  0
    5.3940    1.2962   17.8236 C   0  0  0  0  0  0  0  0  0  0  0  0
    6.5556    0.6723   17.5760 N   0  0  0  0  0  0  0  0  0  0  0  0
    7.1695    0.0722   18.6069 C   0  0  0  0  0  0  0  0  0  0  0  0
    8.1151   -0.4173   18.3820 H   0  0  0  0  0  0  0  0  0  0  0  0
    6.6662    0.0508   19.9288 C   0  0  0  0  0  0  0  0  0  0  0  0
    7.3726   -0.5921   20.9782 N   0  0  0  0  0  0  0  0  0  0  0  0
    7.3540   -0.3335   22.3426 C   0  0  0  0  0  0  0  0  0  0  0  0
    7.0428    0.9241   22.8224 N   0  0  0  0  0  0  0  0  0  0  0  0
    7.5293    2.0566   22.2188 C   0  0  0  0  0  0  0  0  0  0  0  0
    8.1525    2.0783   21.1809 O   0  0  0  0  0  0  0  0  0  0  0  0
    7.1576    3.2362   23.1026 C   0  0  0  0  0  0  0  0  0  0  0  0
    8.0853    3.7377   23.3997 H   0  0  0  0  0  0  0  0  0  0  0  0
    6.5753    3.9501   22.5123 H   0  0  0  0  0  0  0  0  0  0  0  0
    6.3738    2.6407   24.2944 C   0  0  0  0  0  0  0  0  0  0  0  0
    5.3139    2.9154   24.2638 H   0  0  0  0  0  0  0  0  0  0  0  0
    6.7460    2.9882   25.2623 H   0  0  0  0  0  0  0  0  0  0  0  0
    6.5304    1.1084   24.1740 C   0  0  0  0  0  0  0  0  0  0  0  0
    5.5800    0.5698   24.2835 H   0  0  0  0  0  0  0  0  0  0  0  0
    7.2273    0.6799   24.9085 H   0  0  0  0  0  0  0  0  0  0  0  0
    7.6520   -1.3010   23.1178 N   0  0  0  0  0  0  0  0  0  0  0  0
    7.9252   -2.4654   22.2866 C   0  0  0  0  0  0  0  0  0  0  0  0
    7.2184   -3.2778   22.5147 H   0  0  0  0  0  0  0  0  0  0  0  0
    8.9342   -2.8541   22.4803 H   0  0  0  0  0  0  0  0  0  0  0  0
    7.7866   -1.9859   20.8264 C   0  0  0  0  0  0  0  0  0  0  0  0
    8.7326   -2.0436   20.2767 H   0  0  0  0  0  0  0  0  0  0  0  0
    7.0304   -2.5503   20.2675 H   0  0  0  0  0  0  0  0  0  0  0  0
    5.4274    0.6660   20.1539 C   0  0  0  0  0  0  0  0  0  0  0  0
    4.9990    0.6344   21.1513 H   0  0  0  0  0  0  0  0  0  0  0  0
    4.7954    1.3126   19.0873 C   0  0  0  0  0  0  0  0  0  0  0  0
    3.8640    1.8408   19.2345 H   0  0  0  0  0  0  0  0  0  0  0  0
  1  2  1  0
  2  3  2  0
  3  4  1  0
  4  5  1  0
  4  6  2  0
  6  7  1  0
  7  8  1  0
  8  9  1  0
  9 10  1  0
 10 11  2  0
 10 12  1  0
 12 13  1  0
 12 14  1  0
 12 15  1  0
 15 16  1  0
 15 17  1  0
 15 18  1  0
 18 19  1  0
 18 20  1  0
  8 21  2  0
 21 22  1  0
 22 23  1  0
 22 24  1  0
 22 25  1  0
 25 26  1  0
 25 27  1  0
  6 28  1  0
 28 29  1  0
 28 30  2  0
 30 31  1  0
 30  2  1  0
 25  7  1  0
 18  9  1  0
M  END
>  <cnnaffinity>  (1) 
-4.39532

>  <filename>  (1) 
O=C1CCCN1C1=NCCN1c1cccnc1

$$$$
