
     RDKit          3D

 28 29  0  0  0  0  0  0  0  0999 V2000
   13.3260   -1.2048   22.9341 H   0  0  0  0  0  0  0  0  0  0  0  0
   13.0987   -0.8675   22.0601 O   0  0  0  0  0  0  0  0  0  0  0  0
   11.7766   -1.2803   21.7898 C   0  0  0  0  0  0  0  0  0  0  0  0
   11.6111   -1.1187   20.7211 H   0  0  0  0  0  0  0  0  0  0  0  0
   11.6227   -2.3527   21.9878 H   0  0  0  0  0  0  0  0  0  0  0  0
   10.7527   -0.4620   22.5899 C   0  0  0  0  0  0  0  0  0  0  0  0
   10.9338   -0.6238   23.6601 H   0  0  0  0  0  0  0  0  0  0  0  0
   10.9316    0.6034   22.3799 H   0  0  0  0  0  0  0  0  0  0  0  0
    9.3353   -0.8513   22.2741 C   0  0  0  0  0  0  0  0  0  0  0  0
    8.6327   -0.2667   21.2845 C   0  0  0  0  0  0  0  0  0  0  0  0
    9.0274    0.5605   20.6954 H   0  0  0  0  0  0  0  0  0  0  0  0
    7.3505   -0.6780   20.9334 N   0  0  0  0  0  0  0  0  0  0  0  0
    6.6557    0.0213   19.8848 C   0  0  0  0  0  0  0  0  0  0  0  0
    7.1780    0.0775   18.5787 C   0  0  0  0  0  0  0  0  0  0  0  0
    8.1187   -0.4252   18.3561 H   0  0  0  0  0  0  0  0  0  0  0  0
    6.5582    0.6866   17.5631 N   0  0  0  0  0  0  0  0  0  0  0  0
    5.3943    1.3008   17.8281 C   0  0  0  0  0  0  0  0  0  0  0  0
    4.9124    1.7917   16.9864 H   0  0  0  0  0  0  0  0  0  0  0  0
    4.8084    1.3169   19.0983 C   0  0  0  0  0  0  0  0  0  0  0  0
    3.8763    1.8418   19.2539 H   0  0  0  0  0  0  0  0  0  0  0  0
    5.4404    0.6534   20.1531 C   0  0  0  0  0  0  0  0  0  0  0  0
    5.0151    0.6122   21.1570 H   0  0  0  0  0  0  0  0  0  0  0  0
    6.7231   -1.7483   21.6070 C   0  0  0  0  0  0  0  0  0  0  0  0
    5.6249   -2.1924   21.3663 O   0  0  0  0  0  0  0  0  0  0  0  0
    7.4719   -2.3194   22.5779 N   0  0  0  0  0  0  0  0  0  0  0  0
    7.0285   -3.0805   23.0531 H   0  0  0  0  0  0  0  0  0  0  0  0
    8.7338   -1.9997   22.9867 C   0  0  0  0  0  0  0  0  0  0  0  0
    9.2387   -2.6724   23.8604 O   0  0  0  0  0  0  0  0  0  0  0  0
  1  2  1  0
  2  3  1  0
  3  4  1  0
  3  5  1  0
  3  6  1  0
  6  7  1  0
  6  8  1  0
  6  9  1  0
  9 10  2  0
 10 11  1  0
 10 12  1  0
 12 13  1  0
 13 14  2  0
 14 15  1  0
 14 16  1  0
 16 17  2  0
 17 18  1  0
 17 19  1  0
 19 20  1  0
 19 21  2  0
 21 22  1  0
 12 23  1  0
 23 24  2  0
 23 25  1  0
 25 26  1  0
 25 27  1  0
 27 28  2  0
 27  9  1  0
 21 13  1  0
M  END
>  <cnnaffinity>  (1) 
-4.70813

>  <filename>  (1) 
O=c1[nH]c(=O)n(-c2cccnc2)cc1CCO

$$$$
