
     RDKit          3D

 33 35  0  0  0  0  0  0  0  0999 V2000
    4.9222    1.8133   16.9645 H   0  0  0  0  0  0  0  0  0  0  0  0
    5.3808    1.3028   17.8104 C   0  0  0  0  0  0  0  0  0  0  0  0
    6.5436    0.6806   17.5563 N   0  0  0  0  0  0  0  0  0  0  0  0
    7.1485    0.0685   18.5827 C   0  0  0  0  0  0  0  0  0  0  0  0
    8.0970   -0.4219   18.3487 H   0  0  0  0  0  0  0  0  0  0  0  0
    6.6486    0.0408   19.8974 C   0  0  0  0  0  0  0  0  0  0  0  0
    7.3685   -0.6643   20.9993 C   0  0  0  0  0  0  0  0  0  0  0  0
    7.5964   -2.0671   20.8571 C   0  0  0  0  0  0  0  0  0  0  0  0
    7.1576   -2.5091   19.9621 H   0  0  0  0  0  0  0  0  0  0  0  0
    8.2585   -2.7831   21.8106 C   0  0  0  0  0  0  0  0  0  0  0  0
    8.5125   -3.8306   21.7299 H   0  0  0  0  0  0  0  0  0  0  0  0
    8.6258   -2.1518   23.0759 C   0  0  0  0  0  0  0  0  0  0  0  0
    9.1830   -2.6754   24.0252 O   0  0  0  0  0  0  0  0  0  0  0  0
    8.2659   -0.8185   23.1926 N   0  0  0  0  0  0  0  0  0  0  0  0
    8.6099   -0.4514   24.0655 H   0  0  0  0  0  0  0  0  0  0  0  0
    7.7501   -0.0429   22.1779 C   0  0  0  0  0  0  0  0  0  0  0  0
    7.5831    1.3869   22.4445 C   0  0  0  0  0  0  0  0  0  0  0  0
    6.8679    1.8268   23.5739 C   0  0  0  0  0  0  0  0  0  0  0  0
    6.4590    1.1053   24.2859 H   0  0  0  0  0  0  0  0  0  0  0  0
    6.6024    3.1076   23.8217 N   0  0  0  0  0  0  0  0  0  0  0  0
    7.0825    4.0411   22.9753 C   0  0  0  0  0  0  0  0  0  0  0  0
    6.8228    5.5394   23.2217 C   0  0  0  0  0  0  0  0  0  0  0  0
    6.1512    6.0928   22.1895 F   0  0  0  0  0  0  0  0  0  0  0  0
    8.0020    6.1967   23.3058 F   0  0  0  0  0  0  0  0  0  0  0  0
    6.1340    5.8095   24.3324 F   0  0  0  0  0  0  0  0  0  0  0  0
    7.8479    3.6974   21.8499 C   0  0  0  0  0  0  0  0  0  0  0  0
    8.2559    4.4955   21.2434 H   0  0  0  0  0  0  0  0  0  0  0  0
    8.0518    2.3587   21.5403 C   0  0  0  0  0  0  0  0  0  0  0  0
    8.5289    2.0418   20.6107 H   0  0  0  0  0  0  0  0  0  0  0  0
    5.4244    0.6815   20.1349 C   0  0  0  0  0  0  0  0  0  0  0  0
    5.0116    0.6641   21.1438 H   0  0  0  0  0  0  0  0  0  0  0  0
    4.7807    1.3215   19.0744 C   0  0  0  0  0  0  0  0  0  0  0  0
    3.8471    1.8538   19.2136 H   0  0  0  0  0  0  0  0  0  0  0  0
  1  2  1  0
  2  3  2  0
  3  4  1  0
  4  5  1  0
  4  6  2  0
  6  7  1  0
  7  8  1  0
  8  9  1  0
  8 10  2  0
 10 11  1  0
 10 12  1  0
 12 13  2  0
 12 14  1  0
 14 15  1  0
 14 16  1  0
 16 17  1  0
 17 18  2  0
 18 19  1  0
 18 20  1  0
 20 21  2  0
 21 22  1  0
 22 23  1  0
 22 24  1  0
 22 25  1  0
 21 26  1  0
 26 27  1  0
 26 28  2  0
 28 29  1  0
  6 30  1  0
 30 31  1  0
 30 32  2  0
 32 33  1  0
 32  2  1  0
 16  7  2  0
 28 17  1  0
M  END
>  <cnnaffinity>  (1) 
-5.05963

>  <filename>  (1) 
O=c1ccc(-c2cccnc2)c(-c2ccc(C(F)(F)F)nc2)[nH]1

$$$$
