
     RDKit          3D

 33 34  0  0  0  0  0  0  0  0999 V2000
    6.0559   -6.2425   22.2561 H   0  0  0  0  0  0  0  0  0  0  0  0
    6.2585   -7.0650   22.7224 O   0  0  0  0  0  0  0  0  0  0  0  0
    7.6593   -7.1694   22.6179 C   0  0  0  0  0  0  0  0  0  0  0  0
    8.2189   -6.8330   23.5082 H   0  0  0  0  0  0  0  0  0  0  0  0
    7.9877   -8.1691   22.3163 H   0  0  0  0  0  0  0  0  0  0  0  0
    7.4906   -5.2210   20.9456 C   0  0  0  0  0  0  0  0  0  0  0  0
    7.9513   -6.2776   21.5858 H   0  0  0  0  0  0  0  0  0  0  0  0
    7.1540   -6.2688   20.3268 H   0  0  0  0  0  0  0  0  0  0  0  0
    7.6979   -5.1885   20.8208 C   0  0  0  0  0  0  0  0  0  0  0  0
    9.0133   -5.2311   19.8930 H   0  0  0  0  0  0  0  0  0  0  0  0
    6.8668   -4.5032   20.1305 H   0  0  0  0  0  0  0  0  0  0  0  0
    7.9865   -4.1894   21.8220 N   0  0  0  0  0  0  0  0  0  0  0  0
    8.0521   -4.5895   22.7196 H   0  0  0  0  0  0  0  0  0  0  0  0
    7.9594   -2.7735   21.7868 C   0  0  0  0  0  0  0  0  0  0  0  0
    7.4286   -1.9713   20.8257 C   0  0  0  0  0  0  0  0  0  0  0  0
    7.0051   -2.3676   19.9056 H   0  0  0  0  0  0  0  0  0  0  0  0
    7.3538   -0.5789   20.9459 N   0  0  0  0  0  0  0  0  0  0  0  0
    6.7082    0.1439   19.8715 C   0  0  0  0  0  0  0  0  0  0  0  0
    7.1758    0.0264   18.5459 C   0  0  0  0  0  0  0  0  0  0  0  0
    8.0718   -0.5556   18.3403 H   0  0  0  0  0  0  0  0  0  0  0  0
    6.5833    0.5962   17.4905 N   0  0  0  0  0  0  0  0  0  0  0  0
    5.4586    1.2952   17.7151 C   0  0  0  0  0  0  0  0  0  0  0  0
    4.9831    1.7342   16.8393 H   0  0  0  0  0  0  0  0  0  0  0  0
    4.9069    1.4692   18.9900 C   0  0  0  0  0  0  0  0  0  0  0  0
    4.0003    2.0574   19.1069 H   0  0  0  0  0  0  0  0  0  0  0  0
    5.5475    0.8937   20.0959 C   0  0  0  0  0  0  0  0  0  0  0  0
    5.1648    1.0187   21.1089 H   0  0  0  0  0  0  0  0  0  0  0  0
    7.7634    0.0711   22.1368 C   0  0  0  0  0  0  0  0  0  0  0  0
    7.5338    1.2179   22.4434 O   0  0  0  0  0  0  0  0  0  0  0  0
    8.5174   -0.7154   22.9582 N   0  0  0  0  0  0  0  0  0  0  0  0
    8.7633   -0.2808   23.8272 H   0  0  0  0  0  0  0  0  0  0  0  0
    8.5448   -2.0967   22.9831 C   0  0  0  0  0  0  0  0  0  0  0  0
    9.0157   -2.6222   23.9744 O   0  0  0  0  0  0  0  0  0  0  0  0
  1  2  1  0
  2  3  1  0
  3  4  1  0
  3  5  1  0
  3  6  1  0
  6  7  1  0
  6  8  1  0
  6  9  1  0
  9 10  1  0
  9 11  1  0
  9 12  1  0
 12 13  1  0
 12 14  1  0
 14 15  2  0
 15 16  1  0
 15 17  1  0
 17 18  1  0
 18 19  2  0
 19 20  1  0
 19 21  1  0
 21 22  2  0
 22 23  1  0
 22 24  1  0
 24 25  1  0
 24 26  2  0
 26 27  1  0
 17 28  1  0
 28 29  2  0
 28 30  1  0
 30 31  1  0
 30 32  1  0
 32 33  2  0
 32 14  1  0
 26 18  1  0
M  END
>  <cnnaffinity>  (1) 
-4.68951

>  <filename>  (1) 
O=c1[nH]c(=O)n(-c2cccnc2)cc1NCCCO

$$$$
