
     RDKit          3D

 34 36  0  0  0  0  0  0  0  0999 V2000
   13.9173    2.2333   22.5937 H   0  0  0  0  0  0  0  0  0  0  0  0
   12.9876    2.2503   22.3243 O   0  0  0  0  0  0  0  0  0  0  0  0
   12.4406    0.9555   22.4539 C   0  0  2  0  0  0  0  0  0  0  0  0
   13.0676    0.2135   21.9347 H   0  0  0  0  0  0  0  0  0  0  0  0
   11.0348    0.9284   21.8295 C   0  0  0  0  0  0  0  0  0  0  0  0
   11.0895    0.4891   20.8307 H   0  0  0  0  0  0  0  0  0  0  0  0
   10.6528    1.9549   21.7521 H   0  0  0  0  0  0  0  0  0  0  0  0
   10.2241    0.0834   22.7149 N   0  0  0  0  0  0  0  0  0  0  0  0
    9.0768   -0.5521   22.2601 C   0  0  0  0  0  0  0  0  0  0  0  0
    8.5567   -1.7208   22.9294 C   0  0  0  0  0  0  0  0  0  0  0  0
    9.1037   -2.1158   23.7854 H   0  0  0  0  0  0  0  0  0  0  0  0
    7.4139   -2.3229   22.5019 C   0  0  0  0  0  0  0  0  0  0  0  0
    6.9999   -3.2083   22.9598 H   0  0  0  0  0  0  0  0  0  0  0  0
    6.6281   -1.8429   21.3704 C   0  0  0  0  0  0  0  0  0  0  0  0
    5.6179   -2.3989   20.9765 O   0  0  0  0  0  0  0  0  0  0  0  0
    7.1864   -0.6783   20.7333 N   0  0  0  0  0  0  0  0  0  0  0  0
    6.4801   -0.0313   19.6490 C   0  0  0  0  0  0  0  0  0  0  0  0
    7.0267    0.0472   18.3528 C   0  0  0  0  0  0  0  0  0  0  0  0
    7.9257   -0.5159   18.1084 H   0  0  0  0  0  0  0  0  0  0  0  0
    6.4821    0.7599   17.3574 N   0  0  0  0  0  0  0  0  0  0  0  0
    5.3557    1.4410   17.6243 C   0  0  0  0  0  0  0  0  0  0  0  0
    4.9624    2.0515   16.8123 H   0  0  0  0  0  0  0  0  0  0  0  0
    4.6989    1.3770   18.8576 C   0  0  0  0  0  0  0  0  0  0  0  0
    3.7856    1.9438   19.0058 H   0  0  0  0  0  0  0  0  0  0  0  0
    5.2515    0.5960   19.8810 C   0  0  0  0  0  0  0  0  0  0  0  0
    4.7530    0.4555   20.8391 H   0  0  0  0  0  0  0  0  0  0  0  0
    8.3581   -0.0785   21.1864 C   0  0  0  0  0  0  0  0  0  0  0  0
    8.6782    0.8049   20.6470 H   0  0  0  0  0  0  0  0  0  0  0  0
   11.1006   -0.5403   23.7027 C   0  0  0  0  0  0  0  0  0  0  0  0
   11.4769   -1.4871   23.2641 H   0  0  0  0  0  0  0  0  0  0  0  0
   10.5768   -0.7583   24.6399 H   0  0  0  0  0  0  0  0  0  0  0  0
   12.2082    0.4910   23.8896 C   0  0  0  0  0  0  0  0  0  0  0  0
   13.1073    0.0969   24.3716 H   0  0  0  0  0  0  0  0  0  0  0  0
   11.8389    1.3439   24.4750 H   0  0  0  0  0  0  0  0  0  0  0  0
  1  2  1  0
  2  3  1  0
  3  4  1  6
  3  5  1  0
  5  6  1  0
  5  7  1  0
  5  8  1  0
  8  9  1  0
  9 10  1  0
 10 11  1  0
 10 12  2  0
 12 13  1  0
 12 14  1  0
 14 15  2  0
 14 16  1  0
 16 17  1  0
 17 18  2  0
 18 19  1  0
 18 20  1  0
 20 21  2  0
 21 22  1  0
 21 23  1  0
 23 24  1  0
 23 25  2  0
 25 26  1  0
 16 27  1  0
 27 28  1  0
  8 29  1  0
 29 30  1  0
 29 31  1  0
 29 32  1  0
 32 33  1  0
 32 34  1  0
 32  3  1  0
 27  9  2  0
 25 17  1  0
M  END
>  <cnnaffinity>  (1) 
-4.66269

>  <filename>  (1) 
O=c1ccc(N2CC[C@H](O)C2)cn1-c1cccnc1

$$$$
