
     RDKit          3D

 20 20  0  0  0  0  0  0  0  0999 V2000
    5.3931   -2.3244   24.1123 H   0  0  0  0  0  0  0  0  0  0  0  0
    6.4933   -2.4080   24.2649 C   0  0  0  0  0  0  0  0  0  0  0  0
    6.9393   -2.9174   25.2590 O   0  0  0  0  0  0  0  0  0  0  0  0
    7.3965   -1.8567   23.1631 C   0  0  0  0  0  0  0  0  0  0  0  0
    8.0564   -1.1177   23.6450 H   0  0  0  0  0  0  0  0  0  0  0  0
    8.0660   -2.6777   22.8609 H   0  0  0  0  0  0  0  0  0  0  0  0
    6.7330   -1.2597   21.9999 N   0  0  0  0  0  0  0  0  0  0  0  0
    5.7328   -1.2731   21.8601 H   0  0  0  0  0  0  0  0  0  0  0  0
    7.4384   -0.7249   20.9576 C   0  0  0  0  0  0  0  0  0  0  0  0
    8.6476   -0.8118   20.8576 O   0  0  0  0  0  0  0  0  0  0  0  0
    6.6074   -0.0298   19.9316 C   0  0  0  0  0  0  0  0  0  0  0  0
    7.1528    0.0319   18.6469 C   0  0  0  0  0  0  0  0  0  0  0  0
    8.1172   -0.4275   18.4363 H   0  0  0  0  0  0  0  0  0  0  0  0
    6.5663    0.6520   17.6202 N   0  0  0  0  0  0  0  0  0  0  0  0
    5.4046    1.2797   17.8537 C   0  0  0  0  0  0  0  0  0  0  0  0
    4.9577    1.7803   16.9953 H   0  0  0  0  0  0  0  0  0  0  0  0
    4.7888    1.3067   19.1099 C   0  0  0  0  0  0  0  0  0  0  0  0
    3.8628    1.8584   19.2353 H   0  0  0  0  0  0  0  0  0  0  0  0
    5.3951    0.6381   20.1715 C   0  0  0  0  0  0  0  0  0  0  0  0
    4.9471    0.6939   21.1676 H   0  0  0  0  0  0  0  0  0  0  0  0
  1  2  1  0
  2  3  2  0
  2  4  1  0
  4  5  1  0
  4  6  1  0
  4  7  1  0
  7  8  1  0
  7  9  1  0
  9 10  2  0
  9 11  1  0
 11 12  2  0
 12 13  1  0
 12 14  1  0
 14 15  2  0
 15 16  1  0
 15 17  1  0
 17 18  1  0
 17 19  2  0
 19 20  1  0
 19 11  1  0
M  END
>  <cnnaffinity>  (1) 
-3.68201

>  <filename>  (1) 
O=CCNC(=O)c1cccnc1

$$$$
