
     RDKit          3D

 15 15  0  0  0  0  0  0  0  0999 V2000
    7.8686   -0.9081   23.0875 H   0  0  0  0  0  0  0  0  0  0  0  0
    7.4276   -0.1820   22.3784 C   0  0  0  0  0  0  0  0  0  0  0  0
    7.0472    0.9152   22.7073 O   0  0  0  0  0  0  0  0  0  0  0  0
    7.3943   -0.7465   20.9203 C   0  0  0  0  0  0  0  0  0  0  0  0
    8.0068   -1.7678   20.6852 O   0  0  0  0  0  0  0  0  0  0  0  0
    6.6434    0.0001   19.8789 C   0  0  0  0  0  0  0  0  0  0  0  0
    7.1690    0.0493   18.5784 C   0  0  0  0  0  0  0  0  0  0  0  0
    8.1172   -0.4361   18.3664 H   0  0  0  0  0  0  0  0  0  0  0  0
    6.5678    0.6803   17.5677 N   0  0  0  0  0  0  0  0  0  0  0  0
    5.4048    1.2918   17.8371 C   0  0  0  0  0  0  0  0  0  0  0  0
    4.9225    1.7815   16.9968 H   0  0  0  0  0  0  0  0  0  0  0  0
    4.8023    1.3081   19.1022 C   0  0  0  0  0  0  0  0  0  0  0  0
    3.8717    1.8447   19.2544 H   0  0  0  0  0  0  0  0  0  0  0  0
    5.4351    0.6555   20.1596 C   0  0  0  0  0  0  0  0  0  0  0  0
    5.0099    0.6485   21.1738 H   0  0  0  0  0  0  0  0  0  0  0  0
  1  2  1  0
  2  3  2  0
  2  4  1  0
  4  5  2  0
  4  6  1  0
  6  7  2  0
  7  8  1  0
  7  9  1  0
  9 10  2  0
 10 11  1  0
 10 12  1  0
 12 13  1  0
 12 14  2  0
 14 15  1  0
 14  6  1  0
M  END
>  <cnnaffinity>  (1) 
-3.26576

>  <filename>  (1) 
O=CC(=O)c1cccnc1

$$$$
