
     RDKit          3D

 26 27  0  0  0  0  0  0  0  0999 V2000
   10.5877    1.7567   23.9475 H   0  0  0  0  0  0  0  0  0  0  0  0
    9.7470    1.5232   23.5372 O   0  0  0  0  0  0  0  0  0  0  0  0
   10.3094    0.9242   22.1923 P   0  0  0  0  0  0  0  0  0  0  0  0
   11.3248    1.8889   21.7314 O   0  0  0  0  0  0  0  0  0  0  0  0
   11.1819   -0.2842   22.7153 O   0  0  0  0  0  0  0  0  0  0  0  0
   11.8223    0.2285   23.2311 H   0  0  0  0  0  0  0  0  0  0  0  0
    9.0018    0.5336   20.9204 C   0  0  0  0  0  0  0  0  0  0  0  0
    9.4781    0.0244   19.7443 F   0  0  0  0  0  0  0  0  0  0  0  0
    8.2330    1.6257   20.5994 F   0  0  0  0  0  0  0  0  0  0  0  0
    8.1749   -0.5241   21.5763 C   0  0  0  0  0  0  0  0  0  0  0  0
    8.5095   -1.2070   22.6519 N   0  0  0  0  0  0  0  0  0  0  0  0
    7.4519   -2.0515   22.8621 N   0  0  0  0  0  0  0  0  0  0  0  0
    7.5019   -2.8803   23.4557 H   0  0  0  0  0  0  0  0  0  0  0  0
    6.4987   -1.9561   21.8677 C   0  0  0  0  0  0  0  0  0  0  0  0
    5.2805   -3.0705   21.6162 S   0  0  0  0  0  0  0  0  0  0  0  0
    6.9524   -0.9293   21.0521 N   0  0  0  0  0  0  0  0  0  0  0  0
    6.3402   -0.2953   19.9527 C   0  0  0  0  0  0  0  0  0  0  0  0
    7.0206   -0.1712   18.7183 C   0  0  0  0  0  0  0  0  0  0  0  0
    7.9694   -0.6842   18.6060 H   0  0  0  0  0  0  0  0  0  0  0  0
    6.5785    0.5688   17.6850 N   0  0  0  0  0  0  0  0  0  0  0  0
    5.4205    1.2328   17.8446 C   0  0  0  0  0  0  0  0  0  0  0  0
    5.0667    1.8626   17.0340 H   0  0  0  0  0  0  0  0  0  0  0  0
    4.6630    1.1378   19.0193 C   0  0  0  0  0  0  0  0  0  0  0  0
    3.7399    1.7010   19.0889 H   0  0  0  0  0  0  0  0  0  0  0  0
    5.1200    0.3659   20.0942 C   0  0  0  0  0  0  0  0  0  0  0  0
    4.5786    0.3300   21.0397 H   0  0  0  0  0  0  0  0  0  0  0  0
  1  2  1  0
  2  3  1  0
  3  4  2  0
  3  5  1  0
  5  6  1  0
  3  7  1  0
  7  8  1  0
  7  9  1  0
  7 10  1  0
 10 11  2  0
 11 12  1  0
 12 13  1  0
 12 14  1  0
 14 15  2  0
 14 16  1  0
 16 17  1  0
 17 18  2  0
 18 19  1  0
 18 20  1  0
 20 21  2  0
 21 22  1  0
 21 23  1  0
 23 24  1  0
 23 25  2  0
 25 26  1  0
 16 10  1  0
 25 17  1  0
M  END
>  <cnnaffinity>  (1) 
-4.76862

>  <filename>  (1) 
O=P(O)(O)C(F)(F)c1n[nH]c(=S)n1-c1cccnc1

$$$$
