
     RDKit          3D

 42 45  0  0  0  0  0  0  0  0999 V2000
    9.7714    1.5114   23.4745 O   0  0  0  0  0  0  0  0  0  0  0  0
    9.5777    2.0331   22.0833 S   0  0  0  0  0  0  0  0  0  0  0  0
    7.8187    2.4986   21.9366 C   0  0  0  0  0  0  0  0  0  0  0  0
    7.5813    3.8215   22.6824 C   0  0  0  0  0  0  0  0  0  0  0  0
    6.1660    4.3633   22.6800 C   0  0  0  0  0  0  0  0  0  0  0  0
    5.7193    4.6335   21.4442 F   0  0  0  0  0  0  0  0  0  0  0  0
    6.1295    5.5128   23.3802 F   0  0  0  0  0  0  0  0  0  0  0  0
    5.2840    3.5201   23.2498 F   0  0  0  0  0  0  0  0  0  0  0  0
    7.8578    3.7125   23.7355 H   0  0  0  0  0  0  0  0  0  0  0  0
    8.2037    4.6116   22.2514 H   0  0  0  0  0  0  0  0  0  0  0  0
    7.5838    2.5729   20.8714 H   0  0  0  0  0  0  0  0  0  0  0  0
    7.2385    1.6813   22.3798 H   0  0  0  0  0  0  0  0  0  0  0  0
    9.5415    0.5826   20.9989 C   0  0  0  0  0  0  0  0  0  0  0  0
    8.5765   -0.4340   21.4718 C   0  0  0  0  0  0  0  0  0  0  0  0
    8.8085   -1.2543   22.4653 N   0  0  0  0  0  0  0  0  0  0  0  0
    7.6201   -1.9052   22.6226 C   0  0  0  0  0  0  0  0  0  0  0  0
    7.4448   -3.0283   23.5756 C   0  0  0  0  0  0  0  0  0  0  0  0
    8.6846   -3.7224   24.0328 C   0  0  0  0  0  0  0  0  0  0  0  0
    7.8196   -4.4077   22.9645 C   0  0  0  0  0  0  0  0  0  0  0  0
    7.9471   -5.8331   22.4945 C   0  0  0  0  0  0  0  0  0  0  0  0
    7.1735   -4.8226   21.6841 C   0  0  0  0  0  0  0  0  0  0  0  0
    7.5445   -4.3568   20.7737 H   0  0  0  0  0  0  0  0  0  0  0  0
    6.0894   -4.9364   21.7584 H   0  0  0  0  0  0  0  0  0  0  0  0
    8.9381   -6.1214   22.1489 H   0  0  0  0  0  0  0  0  0  0  0  0
    7.3718   -6.6245   22.9713 H   0  0  0  0  0  0  0  0  0  0  0  0
    8.6749   -4.1712   25.0296 H   0  0  0  0  0  0  0  0  0  0  0  0
    9.6451   -3.3189   23.7075 H   0  0  0  0  0  0  0  0  0  0  0  0
    6.5446   -3.0081   24.1889 H   0  0  0  0  0  0  0  0  0  0  0  0
    6.6776   -1.5370   21.7750 N   0  0  0  0  0  0  0  0  0  0  0  0
    7.3116   -0.6175   20.9923 N   0  0  0  0  0  0  0  0  0  0  0  0
    6.6277   -0.0023   19.9087 C   0  0  0  0  0  0  0  0  0  0  0  0
    5.4105    0.6358   20.1513 C   0  0  0  0  0  0  0  0  0  0  0  0
    4.8018    1.3266   19.1021 C   0  0  0  0  0  0  0  0  0  0  0  0
    5.4027    1.3137   17.8376 C   0  0  0  0  0  0  0  0  0  0  0  0
    6.5399    0.6506   17.5793 N   0  0  0  0  0  0  0  0  0  0  0  0
    7.1356    0.0082   18.5929 C   0  0  0  0  0  0  0  0  0  0  0  0
    8.0565   -0.5167   18.3429 H   0  0  0  0  0  0  0  0  0  0  0  0
    4.9515    1.8459   17.0025 H   0  0  0  0  0  0  0  0  0  0  0  0
    3.8868    1.8846   19.2583 H   0  0  0  0  0  0  0  0  0  0  0  0
    4.9697    0.5857   21.1489 H   0  0  0  0  0  0  0  0  0  0  0  0
   10.5424    0.1605   21.0920 H   0  0  0  0  0  0  0  0  0  0  0  0
    9.3638    0.9073   19.9778 H   0  0  0  0  0  0  0  0  0  0  0  0
  1  2  2  0
  2  3  1  0
  3  4  1  0
  4  5  1  0
  5  6  1  0
  5  7  1  0
  5  8  1  0
  4  9  1  0
  4 10  1  0
  3 11  1  0
  3 12  1  0
  2 13  1  0
 13 14  1  0
 14 15  2  0
 15 16  1  0
 16 17  1  0
 17 18  1  0
 18 19  1  0
 19 20  1  0
 20 21  1  0
 21 22  1  0
 21 23  1  0
 20 24  1  0
 20 25  1  0
 18 26  1  0
 18 27  1  0
 17 28  1  0
 16 29  2  0
 29 30  1  0
 30 31  1  0
 31 32  2  0
 32 33  1  0
 33 34  2  0
 34 35  1  0
 35 36  2  0
 36 37  1  0
 34 38  1  0
 33 39  1  0
 32 40  1  0
 13 41  1  0
 13 42  1  0
 30 14  1  0
 36 31  1  0
 19 17  1  0
 21 19  1  0
M  END
>  <cnnaffinity>  (1) 
-5.9422

>  <filename>  (1) 
O=S(CCC(F)(F)F)Cc1nc(C2CC23CC3)nn1-c1cccnc1

$$$$
