
     RDKit          3D

 30 31  0  0  0  0  0  0  0  0999 V2000
    4.9788    1.7562   17.0236 H   0  0  0  0  0  0  0  0  0  0  0  0
    5.4405    1.2678   17.8775 C   0  0  0  0  0  0  0  0  0  0  0  0
    6.6015    0.6426   17.6410 N   0  0  0  0  0  0  0  0  0  0  0  0
    7.1980    0.0288   18.6593 C   0  0  0  0  0  0  0  0  0  0  0  0
    8.1402   -0.4677   18.4296 H   0  0  0  0  0  0  0  0  0  0  0  0
    6.6462    0.0264   19.9348 C   0  0  0  0  0  0  0  0  0  0  0  0
    7.5062   -0.8582   21.1610 S   0  0  0  0  0  0  0  0  0  0  0  0
    8.5439   -1.6447   20.5050 O   0  0  0  0  0  0  0  0  0  0  0  0
    6.5126   -1.4602   22.0325 O   0  0  0  0  0  0  0  0  0  0  0  0
    8.3377    0.3754   22.1316 C   0  0  0  0  0  0  0  0  0  0  0  0
    8.7879   -0.2293   22.9217 H   0  0  0  0  0  0  0  0  0  0  0  0
    7.5391    0.9784   22.5720 H   0  0  0  0  0  0  0  0  0  0  0  0
    9.3736    1.1934   21.3575 C   0  0  0  0  0  0  0  0  0  0  0  0
   10.0975    0.5169   20.8878 H   0  0  0  0  0  0  0  0  0  0  0  0
    8.8700    1.7501   20.5560 H   0  0  0  0  0  0  0  0  0  0  0  0
   10.0833    2.1674   22.2638 C   0  0  0  0  0  0  0  0  0  0  0  0
    9.5905    3.4731   22.4156 C   0  0  0  0  0  0  0  0  0  0  0  0
    8.7119    3.7622   21.8417 H   0  0  0  0  0  0  0  0  0  0  0  0
   10.2213    4.4096   23.2391 C   0  0  0  0  0  0  0  0  0  0  0  0
    9.8228    5.4192   23.3019 H   0  0  0  0  0  0  0  0  0  0  0  0
   11.3659    4.0445   23.9566 C   0  0  0  0  0  0  0  0  0  0  0  0
   11.8648    4.7698   24.5967 H   0  0  0  0  0  0  0  0  0  0  0  0
   11.8640    2.7426   23.8421 C   0  0  0  0  0  0  0  0  0  0  0  0
   12.7432    2.3973   24.3718 H   0  0  0  0  0  0  0  0  0  0  0  0
   11.2209    1.8227   23.0115 C   0  0  0  0  0  0  0  0  0  0  0  0
   11.8888    0.2094   22.9408 Cl  0  0  0  0  0  0  0  0  0  0  0  0
    5.4281    0.6589   20.2032 C   0  0  0  0  0  0  0  0  0  0  0  0
    4.9508    0.6374   21.1882 H   0  0  0  0  0  0  0  0  0  0  0  0
    4.8236    1.3032   19.1328 C   0  0  0  0  0  0  0  0  0  0  0  0
    3.8876    1.8320   19.2557 H   0  0  0  0  0  0  0  0  0  0  0  0
  1  2  1  0
  2  3  2  0
  3  4  1  0
  4  5  1  0
  4  6  2  0
  6  7  1  0
  7  8  2  0
  7  9  2  0
  7 10  1  0
 10 11  1  0
 10 12  1  0
 10 13  1  0
 13 14  1  0
 13 15  1  0
 13 16  1  0
 16 17  2  0
 17 18  1  0
 17 19  1  0
 19 20  1  0
 19 21  2  0
 21 22  1  0
 21 23  1  0
 23 24  1  0
 23 25  2  0
 25 26  1  0
  6 27  1  0
 27 28  1  0
 27 29  2  0
 29 30  1  0
 29  2  1  0
 25 16  1  0
M  END
>  <cnnaffinity>  (1) 
-4.83671

>  <filename>  (1) 
O=S(=O)(CCc1ccccc1Cl)c1cccnc1

$$$$
