
     RDKit          3D

 35 37  0  0  0  0  0  0  0  0999 V2000
    5.0104    1.8403   17.0227 H   0  0  0  0  0  0  0  0  0  0  0  0
    5.4849    1.2940   17.8342 C   0  0  0  0  0  0  0  0  0  0  0  0
    6.6452    0.6863   17.5421 N   0  0  0  0  0  0  0  0  0  0  0  0
    7.2596    0.0255   18.5298 C   0  0  0  0  0  0  0  0  0  0  0  0
    8.1887   -0.4761   18.2658 H   0  0  0  0  0  0  0  0  0  0  0  0
    6.7440   -0.0768   19.8377 C   0  0  0  0  0  0  0  0  0  0  0  0
    7.4168   -0.8357   20.8485 N   0  0  0  0  0  0  0  0  0  0  0  0
    8.7179   -0.5871   21.2587 C   0  0  0  0  0  0  0  0  0  0  0  0
    9.2660    0.2395   20.8200 H   0  0  0  0  0  0  0  0  0  0  0  0
    9.0325   -1.4877   22.2129 C   0  0  0  0  0  0  0  0  0  0  0  0
   10.6507   -1.5562   22.9958 S   0  0  0  0  0  0  0  0  0  0  0  0
   10.7512   -2.8242   23.6839 O   0  0  0  0  0  0  0  0  0  0  0  0
   11.6152   -1.0782   22.0258 O   0  0  0  0  0  0  0  0  0  0  0  0
   10.5274   -0.3738   24.1546 N   0  0  0  0  0  0  0  0  0  0  0  0
   10.5896    1.0325   23.7060 C   0  0  0  0  0  0  0  0  0  0  0  0
    9.6740    1.3263   23.1661 H   0  0  0  0  0  0  0  0  0  0  0  0
   11.4500    1.1611   23.0422 H   0  0  0  0  0  0  0  0  0  0  0  0
   10.7976    1.9515   24.9190 C   0  0  0  0  0  0  0  0  0  0  0  0
   11.8378    1.8409   25.2679 H   0  0  0  0  0  0  0  0  0  0  0  0
   10.6301    2.9917   24.6267 H   0  0  0  0  0  0  0  0  0  0  0  0
    9.8776    1.7036   25.9690 O   0  0  0  0  0  0  0  0  0  0  0  0
    9.8926    0.3499   26.4029 C   0  0  0  0  0  0  0  0  0  0  0  0
    9.1243    0.2816   27.1777 H   0  0  0  0  0  0  0  0  0  0  0  0
   10.8680    0.0811   26.8444 H   0  0  0  0  0  0  0  0  0  0  0  0
    9.5765   -0.6190   25.2578 C   0  0  0  0  0  0  0  0  0  0  0  0
    9.6900   -1.6441   25.6229 H   0  0  0  0  0  0  0  0  0  0  0  0
    8.5327   -0.4675   24.9402 H   0  0  0  0  0  0  0  0  0  0  0  0
    7.8805   -2.2788   22.3822 N   0  0  0  0  0  0  0  0  0  0  0  0
    7.6474   -2.9930   23.0649 H   0  0  0  0  0  0  0  0  0  0  0  0
    6.8835   -1.9093   21.5352 C   0  0  0  0  0  0  0  0  0  0  0  0
    5.4389   -2.7183   21.3853 S   0  0  0  0  0  0  0  0  0  0  0  0
    5.5295    0.5490   20.1336 C   0  0  0  0  0  0  0  0  0  0  0  0
    5.1093    0.4812   21.1403 H   0  0  0  0  0  0  0  0  0  0  0  0
    4.8966    1.2534   19.1039 C   0  0  0  0  0  0  0  0  0  0  0  0
    3.9661    1.7777   19.2822 H   0  0  0  0  0  0  0  0  0  0  0  0
  1  2  1  0
  2  3  2  0
  3  4  1  0
  4  5  1  0
  4  6  2  0
  6  7  1  0
  7  8  1  0
  8  9  1  0
  8 10  2  0
 10 11  1  0
 11 12  2  0
 11 13  2  0
 11 14  1  0
 14 15  1  0
 15 16  1  0
 15 17  1  0
 15 18  1  0
 18 19  1  0
 18 20  1  0
 18 21  1  0
 21 22  1  0
 22 23  1  0
 22 24  1  0
 22 25  1  0
 25 26  1  0
 25 27  1  0
 10 28  1  0
 28 29  1  0
 28 30  1  0
 30 31  2  0
  6 32  1  0
 32 33  1  0
 32 34  2  0
 34 35  1  0
 34  2  1  0
 30  7  1  0
 25 14  1  0
M  END
>  <cnnaffinity>  (1) 
-5.46115

>  <filename>  (1) 
O=S(=O)(c1cn(-c2cccnc2)c(=S)[nH]1)N1CCOCC1

$$$$
