
     RDKit          3D

 39 41  0  0  0  0  0  0  0  0999 V2000
    8.3261   -5.7242   20.9083 O   0  0  0  0  0  0  0  0  0  0  0  0
    8.0686   -5.7331   22.3337 S   0  0  0  0  0  0  0  0  0  0  0  0
    8.7608   -6.5920   23.2592 O   0  0  0  0  0  0  0  0  0  0  0  0
    8.3926   -4.2263   22.8903 N   0  0  0  0  0  0  0  0  0  0  0  0
    7.9573   -3.1086   22.0745 C   0  0  0  0  0  0  0  0  0  0  0  0
    6.9925   -2.2949   22.9086 C   0  0  0  0  0  0  0  0  0  0  0  0
    6.4280   -1.1293   22.0825 C   0  0  0  0  0  0  0  0  0  0  0  0
    7.2683   -0.7897   20.9287 N   0  0  0  0  0  0  0  0  0  0  0  0
    6.7186   -0.0462   19.8706 C   0  0  0  0  0  0  0  0  0  0  0  0
    5.4779    0.6360   19.9683 C   0  0  0  0  0  0  0  0  0  0  0  0
    4.9852    1.3445   18.8619 C   0  0  0  0  0  0  0  0  0  0  0  0
    5.7201    1.3566   17.6727 C   0  0  0  0  0  0  0  0  0  0  0  0
    6.8843    0.7028   17.5300 N   0  0  0  0  0  0  0  0  0  0  0  0
    7.3557    0.0404   18.5953 C   0  0  0  0  0  0  0  0  0  0  0  0
    8.2884   -0.4936   18.4357 H   0  0  0  0  0  0  0  0  0  0  0  0
    5.3668    1.9048   16.8018 H   0  0  0  0  0  0  0  0  0  0  0  0
    4.0457    1.8945   18.9087 H   0  0  0  0  0  0  0  0  0  0  0  0
    4.9188    0.6172   20.9023 H   0  0  0  0  0  0  0  0  0  0  0  0
    8.7124   -0.8529   21.1703 C   0  0  0  0  0  0  0  0  0  0  0  0
    9.1515   -2.2640   21.6236 C   0  0  0  0  0  0  0  0  0  0  0  0
    9.6497   -2.8012   20.8092 H   0  0  0  0  0  0  0  0  0  0  0  0
    9.8686   -2.1575   22.4473 H   0  0  0  0  0  0  0  0  0  0  0  0
    9.0010   -0.1010   21.9212 H   0  0  0  0  0  0  0  0  0  0  0  0
    9.2428   -0.5770   20.2577 H   0  0  0  0  0  0  0  0  0  0  0  0
    6.2613   -0.2557   22.7376 H   0  0  0  0  0  0  0  0  0  0  0  0
    5.4615   -1.4410   21.6749 H   0  0  0  0  0  0  0  0  0  0  0  0
    7.5105   -1.9459   23.8068 H   0  0  0  0  0  0  0  0  0  0  0  0
    6.1864   -2.9511   23.2506 H   0  0  0  0  0  0  0  0  0  0  0  0
    7.4167   -3.4420   21.1786 H   0  0  0  0  0  0  0  0  0  0  0  0
    9.3955   -4.3418   22.9781 H   0  0  0  0  0  0  0  0  0  0  0  0
    6.4108   -5.8355   22.5730 C   0  0  0  0  0  0  0  0  0  0  0  0
    5.5481   -5.6825   21.5207 C   0  0  0  0  0  0  0  0  0  0  0  0
    4.2483   -5.8684   21.7122 N   0  0  0  0  0  0  0  0  0  0  0  0
    3.8451   -6.2052   22.9359 C   0  0  0  0  0  0  0  0  0  0  0  0
    4.6389   -6.3113   24.0039 N   0  0  0  0  0  0  0  0  0  0  0  0
    5.9378   -6.0974   23.8314 C   0  0  0  0  0  0  0  0  0  0  0  0
    6.5750   -6.1700   24.7212 H   0  0  0  0  0  0  0  0  0  0  0  0
    2.7779   -6.4004   23.0762 H   0  0  0  0  0  0  0  0  0  0  0  0
    5.8704   -5.4303   20.5031 H   0  0  0  0  0  0  0  0  0  0  0  0
  1  2  2  0
  2  3  2  0
  2  4  1  0
  4  5  1  0
  5  6  1  0
  6  7  1  0
  7  8  1  0
  8  9  1  0
  9 10  2  0
 10 11  1  0
 11 12  2  0
 12 13  1  0
 13 14  2  0
 14 15  1  0
 12 16  1  0
 11 17  1  0
 10 18  1  0
  8 19  1  0
 19 20  1  0
 20 21  1  0
 20 22  1  0
 19 23  1  0
 19 24  1  0
  7 25  1  0
  7 26  1  0
  6 27  1  0
  6 28  1  0
  5 29  1  0
  4 30  1  0
  2 31  1  0
 31 32  2  0
 32 33  1  0
 33 34  2  0
 34 35  1  0
 35 36  2  0
 36 37  1  0
 34 38  1  0
 32 39  1  0
 20  5  1  0
 36 31  1  0
 14  9  1  0
M  END
>  <cnnaffinity>  (1) 
-5.72009

>  <filename>  (1) 
O=S(=O)(NC1CCN(c2cccnc2)CC1)c1cncnc1

$$$$
