
     RDKit          3D

 32 34  0  0  0  0  0  0  0  0999 V2000
    4.9214    1.8197   16.9737 H   0  0  0  0  0  0  0  0  0  0  0  0
    5.3941    1.2928   17.7996 C   0  0  0  0  0  0  0  0  0  0  0  0
    6.5334    0.6453   17.5095 N   0  0  0  0  0  0  0  0  0  0  0  0
    7.1353   -0.0017   18.5126 C   0  0  0  0  0  0  0  0  0  0  0  0
    8.0529   -0.5221   18.2387 H   0  0  0  0  0  0  0  0  0  0  0  0
    6.6657   -0.0418   19.8490 C   0  0  0  0  0  0  0  0  0  0  0  0
    7.4835   -0.6922   20.9081 C   0  0  0  0  0  0  0  0  0  0  0  0
    8.8233   -0.5444   21.1842 C   0  0  0  0  0  0  0  0  0  0  0  0
    9.5172    0.1537   20.7395 H   0  0  0  0  0  0  0  0  0  0  0  0
    9.1966   -1.4032   22.1661 N   0  0  0  0  0  0  0  0  0  0  0  0
    8.1516   -2.0827   22.5318 N   0  0  0  0  0  0  0  0  0  0  0  0
    7.1121   -1.6357   21.8252 N   0  0  0  0  0  0  0  0  0  0  0  0
    5.8615   -2.2855   21.9234 N   0  0  0  0  0  0  0  0  0  0  0  0
    5.1631   -1.5898   22.1592 H   0  0  0  0  0  0  0  0  0  0  0  0
    5.5861   -3.1247   23.3910 S   0  0  0  0  0  0  0  0  0  0  0  0
    4.1985   -3.5000   23.2181 O   0  0  0  0  0  0  0  0  0  0  0  0
    6.0337   -2.2871   24.4844 O   0  0  0  0  0  0  0  0  0  0  0  0
    6.6547   -4.5012   23.2062 C   0  0  0  0  0  0  0  0  0  0  0  0
    7.4229   -4.9253   24.2943 C   0  0  0  0  0  0  0  0  0  0  0  0
    7.3466   -4.4063   25.2514 H   0  0  0  0  0  0  0  0  0  0  0  0
    8.2910   -6.0035   24.1144 C   0  0  0  0  0  0  0  0  0  0  0  0
    8.8886   -6.3549   24.9519 H   0  0  0  0  0  0  0  0  0  0  0  0
    8.3887   -6.6365   22.8687 C   0  0  0  0  0  0  0  0  0  0  0  0
    9.0903   -7.4549   22.7401 H   0  0  0  0  0  0  0  0  0  0  0  0
    7.5953   -6.1964   21.8011 C   0  0  0  0  0  0  0  0  0  0  0  0
    7.6269   -6.6204   20.8076 H   0  0  0  0  0  0  0  0  0  0  0  0
    6.7319   -5.1232   21.9597 C   0  0  0  0  0  0  0  0  0  0  0  0
    6.1348   -4.7838   21.1154 H   0  0  0  0  0  0  0  0  0  0  0  0
    5.4639    0.6334   20.1167 C   0  0  0  0  0  0  0  0  0  0  0  0
    5.0611    0.6654   21.1310 H   0  0  0  0  0  0  0  0  0  0  0  0
    4.8212    1.3085   19.0728 C   0  0  0  0  0  0  0  0  0  0  0  0
    3.8981    1.8555   19.2330 H   0  0  0  0  0  0  0  0  0  0  0  0
  1  2  1  0
  2  3  2  0
  3  4  1  0
  4  5  1  0
  4  6  2  0
  6  7  1  0
  7  8  2  0
  8  9  1  0
  8 10  1  0
 10 11  2  0
 11 12  1  0
 12 13  1  0
 13 14  1  0
 13 15  1  0
 15 16  2  0
 15 17  2  0
 15 18  1  0
 18 19  2  0
 19 20  1  0
 19 21  1  0
 21 22  1  0
 21 23  2  0
 23 24  1  0
 23 25  1  0
 25 26  1  0
 25 27  2  0
 27 28  1  0
  6 29  1  0
 29 30  1  0
 29 31  2  0
 31 32  1  0
 31  2  1  0
 12  7  1  0
 27 18  1  0
M  END
>  <cnnaffinity>  (1) 
-4.91895

>  <filename>  (1) 
O=S(=O)(Nn1nncc1-c1cccnc1)c1ccccc1

$$$$
