
     RDKit          3D

 34 36  0  0  0  0  0  0  0  0999 V2000
    5.0324    1.7721   16.9057 H   0  0  0  0  0  0  0  0  0  0  0  0
    5.4527    1.3086   17.7952 C   0  0  0  0  0  0  0  0  0  0  0  0
    6.5596    0.5720   17.6130 N   0  0  0  0  0  0  0  0  0  0  0  0
    7.0758   -0.0481   18.6792 C   0  0  0  0  0  0  0  0  0  0  0  0
    8.0153   -0.5823   18.5330 H   0  0  0  0  0  0  0  0  0  0  0  0
    6.5152    0.0157   19.9703 C   0  0  0  0  0  0  0  0  0  0  0  0
    7.1398   -0.7038   21.0480 N   0  0  0  0  0  0  0  0  0  0  0  0
    7.5328   -2.0583   20.9925 C   0  0  0  0  0  0  0  0  0  0  0  0
    7.1938   -2.7454   20.2360 H   0  0  0  0  0  0  0  0  0  0  0  0
    8.3111   -2.2682   22.0691 C   0  0  0  0  0  0  0  0  0  0  0  0
    8.8708   -3.4255   22.5974 N   0  0  0  0  0  0  0  0  0  0  0  0
    9.6595   -3.8527   22.1385 H   0  0  0  0  0  0  0  0  0  0  0  0
    9.5417   -3.4014   24.1197 S   0  0  0  0  0  0  0  0  0  0  0  0
   10.4000   -2.2246   24.2579 O   0  0  0  0  0  0  0  0  0  0  0  0
   10.0929   -4.7379   24.1796 O   0  0  0  0  0  0  0  0  0  0  0  0
    8.1578   -3.1991   25.1762 C   0  0  0  0  0  0  0  0  0  0  0  0
    6.9568   -3.8778   24.9291 C   0  0  0  0  0  0  0  0  0  0  0  0
    6.8129   -4.4821   24.0336 H   0  0  0  0  0  0  0  0  0  0  0  0
    5.9256   -3.7724   25.8618 C   0  0  0  0  0  0  0  0  0  0  0  0
    4.9990   -4.3086   25.6946 H   0  0  0  0  0  0  0  0  0  0  0  0
    6.0742   -2.9839   27.0054 C   0  0  0  0  0  0  0  0  0  0  0  0
    5.2793   -2.9275   27.7434 H   0  0  0  0  0  0  0  0  0  0  0  0
    7.2460   -2.2440   27.1783 C   0  0  0  0  0  0  0  0  0  0  0  0
    7.3316   -1.5616   28.0078 H   0  0  0  0  0  0  0  0  0  0  0  0
    8.3031   -2.3521   26.2835 C   0  0  0  0  0  0  0  0  0  0  0  0
    9.2200   -1.7885   26.4626 H   0  0  0  0  0  0  0  0  0  0  0  0
    8.4057   -1.1131   22.7733 N   0  0  0  0  0  0  0  0  0  0  0  0
    9.0701   -1.0011   23.5284 H   0  0  0  0  0  0  0  0  0  0  0  0
    7.7032   -0.1146   22.1728 C   0  0  0  0  0  0  0  0  0  0  0  0
    7.6507    1.4420   22.7378 S   0  0  0  0  0  0  0  0  0  0  0  0
    5.3901    0.8318   20.1630 C   0  0  0  0  0  0  0  0  0  0  0  0
    4.9700    0.9706   21.1594 H   0  0  0  0  0  0  0  0  0  0  0  0
    4.8539    1.4867   19.0460 C   0  0  0  0  0  0  0  0  0  0  0  0
    3.9893    2.1354   19.1320 H   0  0  0  0  0  0  0  0  0  0  0  0
  1  2  1  0
  2  3  2  0
  3  4  1  0
  4  5  1  0
  4  6  2  0
  6  7  1  0
  7  8  1  0
  8  9  1  0
  8 10  2  0
 10 11  1  0
 11 12  1  0
 11 13  1  0
 13 14  2  0
 13 15  2  0
 13 16  1  0
 16 17  2  0
 17 18  1  0
 17 19  1  0
 19 20  1  0
 19 21  2  0
 21 22  1  0
 21 23  1  0
 23 24  1  0
 23 25  2  0
 25 26  1  0
 10 27  1  0
 27 28  1  0
 27 29  1  0
 29 30  2  0
  6 31  1  0
 31 32  1  0
 31 33  2  0
 33 34  1  0
 33  2  1  0
 29  7  1  0
 25 16  1  0
M  END
>  <cnnaffinity>  (1) 
-5.60466

>  <filename>  (1) 
O=S(=O)(Nc1cn(-c2cccnc2)c(=S)[nH]1)c1ccccc1

$$$$
