
     RDKit          3D

 33 35  0  0  0  0  0  0  0  0999 V2000
    4.9575    1.7916   16.9700 H   0  0  0  0  0  0  0  0  0  0  0  0
    5.4094    1.3084   17.8307 C   0  0  0  0  0  0  0  0  0  0  0  0
    6.5766    0.6800   17.6138 N   0  0  0  0  0  0  0  0  0  0  0  0
    7.1565    0.0645   18.6501 C   0  0  0  0  0  0  0  0  0  0  0  0
    8.1150   -0.4222   18.4666 H   0  0  0  0  0  0  0  0  0  0  0  0
    6.6031    0.0536   19.9436 C   0  0  0  0  0  0  0  0  0  0  0  0
    7.2606   -0.6135   21.0229 N   0  0  0  0  0  0  0  0  0  0  0  0
    7.6743   -0.0849   22.2197 C   0  0  0  0  0  0  0  0  0  0  0  0
    7.5875    1.2403   22.5382 N   0  0  0  0  0  0  0  0  0  0  0  0
    6.8027    1.8005   22.2696 H   0  0  0  0  0  0  0  0  0  0  0  0
    7.5984    1.4794   24.1655 S   0  0  0  0  0  0  0  0  0  0  0  0
    7.1163    2.8472   24.2190 O   0  0  0  0  0  0  0  0  0  0  0  0
    6.8798    0.4383   24.8707 O   0  0  0  0  0  0  0  0  0  0  0  0
    9.3368    1.3130   24.4521 C   0  0  0  0  0  0  0  0  0  0  0  0
    9.7002    0.7430   25.6750 C   0  0  0  0  0  0  0  0  0  0  0  0
    8.9520    0.4156   26.3955 H   0  0  0  0  0  0  0  0  0  0  0  0
   11.0428    0.5298   25.9541 C   0  0  0  0  0  0  0  0  0  0  0  0
   11.2800    0.1362   26.9349 H   0  0  0  0  0  0  0  0  0  0  0  0
   12.0270    0.8563   25.0133 C   0  0  0  0  0  0  0  0  0  0  0  0
   13.0754    0.6659   25.2258 H   0  0  0  0  0  0  0  0  0  0  0  0
   11.6529    1.4257   23.7910 C   0  0  0  0  0  0  0  0  0  0  0  0
   12.4095    1.6743   23.0507 H   0  0  0  0  0  0  0  0  0  0  0  0
   10.3071    1.6522   23.4903 C   0  0  0  0  0  0  0  0  0  0  0  0
   10.0369    2.0365   22.5038 H   0  0  0  0  0  0  0  0  0  0  0  0
    8.3129   -0.9325   22.9669 N   0  0  0  0  0  0  0  0  0  0  0  0
    8.3013   -2.1027   22.2514 C   0  0  0  0  0  0  0  0  0  0  0  0
    8.7529   -3.0147   22.6232 H   0  0  0  0  0  0  0  0  0  0  0  0
    7.6636   -1.9414   21.0599 C   0  0  0  0  0  0  0  0  0  0  0  0
    7.3777   -2.6181   20.2737 H   0  0  0  0  0  0  0  0  0  0  0  0
    5.3985    0.7298   20.1653 C   0  0  0  0  0  0  0  0  0  0  0  0
    4.9764    0.7466   21.1699 H   0  0  0  0  0  0  0  0  0  0  0  0
    4.7819    1.3528   19.0786 C   0  0  0  0  0  0  0  0  0  0  0  0
    3.8462    1.8821   19.2017 H   0  0  0  0  0  0  0  0  0  0  0  0
  1  2  1  0
  2  3  2  0
  3  4  1  0
  4  5  1  0
  4  6  2  0
  6  7  1  0
  7  8  1  0
  8  9  1  0
  9 10  1  0
  9 11  1  0
 11 12  2  0
 11 13  2  0
 11 14  1  0
 14 15  2  0
 15 16  1  0
 15 17  1  0
 17 18  1  0
 17 19  2  0
 19 20  1  0
 19 21  1  0
 21 22  1  0
 21 23  2  0
 23 24  1  0
  8 25  2  0
 25 26  1  0
 26 27  1  0
 26 28  2  0
 28 29  1  0
  6 30  1  0
 30 31  1  0
 30 32  2  0
 32 33  1  0
 32  2  1  0
 28  7  1  0
 23 14  1  0
M  END
>  <cnnaffinity>  (1) 
-5.17611

>  <filename>  (1) 
O=S(=O)(Nc1nccn1-c1cccnc1)c1ccccc1

$$$$
