
     RDKit          3D

 32 34  0  0  0  0  0  0  0  0999 V2000
    4.9287    1.7891   16.9994 H   0  0  0  0  0  0  0  0  0  0  0  0
    5.3997    1.2891   17.8453 C   0  0  0  0  0  0  0  0  0  0  0  0
    6.5581    0.6619   17.5907 N   0  0  0  0  0  0  0  0  0  0  0  0
    7.1704    0.0371   18.6014 C   0  0  0  0  0  0  0  0  0  0  0  0
    8.1257   -0.4287   18.3654 H   0  0  0  0  0  0  0  0  0  0  0  0
    6.6498   -0.0218   19.9126 C   0  0  0  0  0  0  0  0  0  0  0  0
    7.3357   -0.7007   20.9729 N   0  0  0  0  0  0  0  0  0  0  0  0
    6.7469   -1.5980   21.8556 C   0  0  0  0  0  0  0  0  0  0  0  0
    5.6945   -1.8333   21.7439 H   0  0  0  0  0  0  0  0  0  0  0  0
    7.7017   -2.0365   22.7070 C   0  0  0  0  0  0  0  0  0  0  0  0
    7.4918   -3.2252   24.0563 S   0  0  0  0  0  0  0  0  0  0  0  0
    6.5064   -4.2043   23.6062 O   0  0  0  0  0  0  0  0  0  0  0  0
    8.8312   -3.5908   24.4930 O   0  0  0  0  0  0  0  0  0  0  0  0
    6.7413   -2.2360   25.3481 C   0  0  0  0  0  0  0  0  0  0  0  0
    7.5561   -1.6093   26.3031 C   0  0  0  0  0  0  0  0  0  0  0  0
    8.6423   -1.6933   26.2690 H   0  0  0  0  0  0  0  0  0  0  0  0
    6.9485   -0.8860   27.3318 C   0  0  0  0  0  0  0  0  0  0  0  0
    7.5662   -0.4138   28.0895 H   0  0  0  0  0  0  0  0  0  0  0  0
    5.5563   -0.7729   27.4035 C   0  0  0  0  0  0  0  0  0  0  0  0
    5.0922   -0.2244   28.2211 H   0  0  0  0  0  0  0  0  0  0  0  0
    4.7641   -1.3664   26.4156 C   0  0  0  0  0  0  0  0  0  0  0  0
    3.6832   -1.2809   26.4629 H   0  0  0  0  0  0  0  0  0  0  0  0
    5.3486   -2.0924   25.3779 C   0  0  0  0  0  0  0  0  0  0  0  0
    4.7140   -2.5572   24.6255 H   0  0  0  0  0  0  0  0  0  0  0  0
    8.8763   -1.3690   22.3339 N   0  0  0  0  0  0  0  0  0  0  0  0
    9.8208   -1.3791   22.7082 H   0  0  0  0  0  0  0  0  0  0  0  0
    8.6619   -0.5101   21.3093 C   0  0  0  0  0  0  0  0  0  0  0  0
    9.7996    0.5310   20.7179 S   0  0  0  0  0  0  0  0  0  0  0  0
    5.4442    0.6321   20.1685 C   0  0  0  0  0  0  0  0  0  0  0  0
    5.0278    0.6267   21.1762 H   0  0  0  0  0  0  0  0  0  0  0  0
    4.8160    1.3031   19.1144 C   0  0  0  0  0  0  0  0  0  0  0  0
    3.8866    1.8357   19.2640 H   0  0  0  0  0  0  0  0  0  0  0  0
  1  2  1  0
  2  3  2  0
  3  4  1  0
  4  5  1  0
  4  6  2  0
  6  7  1  0
  7  8  1  0
  8  9  1  0
  8 10  2  0
 10 11  1  0
 11 12  2  0
 11 13  2  0
 11 14  1  0
 14 15  2  0
 15 16  1  0
 15 17  1  0
 17 18  1  0
 17 19  2  0
 19 20  1  0
 19 21  1  0
 21 22  1  0
 21 23  2  0
 23 24  1  0
 10 25  1  0
 25 26  1  0
 25 27  1  0
 27 28  2  0
  6 29  1  0
 29 30  1  0
 29 31  2  0
 31 32  1  0
 31  2  1  0
 27  7  1  0
 23 14  1  0
M  END
>  <cnnaffinity>  (1) 
-5.34522

>  <filename>  (1) 
O=S(=O)(c1ccccc1)c1cn(-c2cccnc2)c(=S)[nH]1

$$$$
