
     RDKit          3D

 41 44  0  0  0  0  0  0  0  0999 V2000
    5.1348    1.6204   17.0803 H   0  0  0  0  0  0  0  0  0  0  0  0
    5.5163    1.0975   17.9535 C   0  0  0  0  0  0  0  0  0  0  0  0
    6.5786    0.3054   17.7529 N   0  0  0  0  0  0  0  0  0  0  0  0
    7.0898   -0.3416   18.8079 C   0  0  0  0  0  0  0  0  0  0  0  0
    7.9710   -0.9456   18.6059 H   0  0  0  0  0  0  0  0  0  0  0  0
    6.5743   -0.2288   20.1104 C   0  0  0  0  0  0  0  0  0  0  0  0
    7.2383   -0.9030   21.2336 C   0  0  0  0  0  0  0  0  0  0  0  0
    6.5606   -1.6698   22.0894 N   0  0  0  0  0  0  0  0  0  0  0  0
    7.4882   -2.1177   22.9412 N   0  0  0  0  0  0  0  0  0  0  0  0
    8.7276   -1.6820   22.6978 C   0  0  0  0  0  0  0  0  0  0  0  0
    8.6094   -0.9045   21.5738 C   0  0  0  0  0  0  0  0  0  0  0  0
    9.6195    0.4032   21.1497 S   0  0  0  0  0  0  0  0  0  0  0  0
   10.9526    0.1642   21.6645 O   0  0  0  0  0  0  0  0  0  0  0  0
    9.3484    0.6896   19.7621 O   0  0  0  0  0  0  0  0  0  0  0  0
    8.9803    1.6459   22.0232 N   0  0  0  0  0  0  0  0  0  0  0  0
    7.8545    2.4431   21.5411 C   0  0  0  0  0  0  0  0  0  0  0  0
    7.7382    2.3349   20.4588 H   0  0  0  0  0  0  0  0  0  0  0  0
    6.9311    2.0643   22.0034 H   0  0  0  0  0  0  0  0  0  0  0  0
    7.9914    3.9487   21.9199 C   0  0  0  0  0  0  0  0  0  0  0  0
    6.9811    4.3414   22.1136 H   0  0  0  0  0  0  0  0  0  0  0  0
    8.4065    4.5366   21.1042 H   0  0  0  0  0  0  0  0  0  0  0  0
    8.8498    4.2431   23.0139 O   0  0  0  0  0  0  0  0  0  0  0  0
    8.9553    3.2188   23.9738 C   0  0  0  0  0  0  0  0  0  0  0  0
    7.9872    3.0610   24.4788 H   0  0  0  0  0  0  0  0  0  0  0  0
    9.6665    3.5926   24.7148 H   0  0  0  0  0  0  0  0  0  0  0  0
    9.4796    1.8894   23.3793 C   0  0  0  0  0  0  0  0  0  0  0  0
    9.1861    1.0785   24.0586 H   0  0  0  0  0  0  0  0  0  0  0  0
   10.5731    1.9081   23.3318 H   0  0  0  0  0  0  0  0  0  0  0  0
    9.6596   -2.0314   23.8065 C   0  0  0  0  0  0  0  0  0  0  0  0
   10.5901   -2.4729   23.4408 H   0  0  0  0  0  0  0  0  0  0  0  0
    9.9386   -1.1067   24.3279 H   0  0  0  0  0  0  0  0  0  0  0  0
    8.7961   -2.9975   24.6866 C   0  0  0  0  0  0  0  0  0  0  0  0
    9.2275   -3.9999   24.7160 H   0  0  0  0  0  0  0  0  0  0  0  0
    8.7337   -2.6381   25.7158 H   0  0  0  0  0  0  0  0  0  0  0  0
    7.3733   -3.0613   24.0367 C   0  0  0  0  0  0  0  0  0  0  0  0
    7.1439   -4.0539   23.6347 H   0  0  0  0  0  0  0  0  0  0  0  0
    6.5635   -2.7845   24.7187 H   0  0  0  0  0  0  0  0  0  0  0  0
    5.4234    0.5498   20.2913 C   0  0  0  0  0  0  0  0  0  0  0  0
    4.9571    0.6197   21.2776 H   0  0  0  0  0  0  0  0  0  0  0  0
    4.9023    1.2455   19.2026 C   0  0  0  0  0  0  0  0  0  0  0  0
    4.0386    1.8887   19.3050 H   0  0  0  0  0  0  0  0  0  0  0  0
  1  2  1  0
  2  3  2  0
  3  4  1  0
  4  5  1  0
  4  6  2  0
  6  7  1  0
  7  8  2  0
  8  9  1  0
  9 10  1  0
 10 11  2  0
 11 12  1  0
 12 13  2  0
 12 14  2  0
 12 15  1  0
 15 16  1  0
 16 17  1  0
 16 18  1  0
 16 19  1  0
 19 20  1  0
 19 21  1  0
 19 22  1  0
 22 23  1  0
 23 24  1  0
 23 25  1  0
 23 26  1  0
 26 27  1  0
 26 28  1  0
 10 29  1  0
 29 30  1  0
 29 31  1  0
 29 32  1  0
 32 33  1  0
 32 34  1  0
 32 35  1  0
 35 36  1  0
 35 37  1  0
  6 38  1  0
 38 39  1  0
 38 40  2  0
 40 41  1  0
 40  2  1  0
 11  7  1  0
 26 15  1  0
 35  9  1  0
M  END
>  <cnnaffinity>  (1) 
-5.77515

>  <filename>  (1) 
O=S(=O)(c1c(-c2cccnc2)nn2c1CCC2)N1CCOCC1

$$$$
