
     RDKit          3D

 27 28  0  0  0  0  0  0  0  0999 V2000
    5.2483    1.7958   17.0810 H   0  0  0  0  0  0  0  0  0  0  0  0
    5.6436    1.3022   17.9711 C   0  0  0  0  0  0  0  0  0  0  0  0
    6.8101    0.6617   17.8241 N   0  0  0  0  0  0  0  0  0  0  0  0
    7.3231    0.0452   18.8858 C   0  0  0  0  0  0  0  0  0  0  0  0
    8.2698   -0.4709   18.7468 H   0  0  0  0  0  0  0  0  0  0  0  0
    6.6967    0.0369   20.1255 C   0  0  0  0  0  0  0  0  0  0  0  0
    7.4756   -1.0139   21.3094 S   0  0  0  0  0  0  0  0  0  0  0  0
    8.5685   -1.7013   20.6243 O   0  0  0  0  0  0  0  0  0  0  0  0
    6.4393   -1.7673   22.0045 O   0  0  0  0  0  0  0  0  0  0  0  0
    8.3269   -0.0136   22.5296 C   0  0  0  0  0  0  0  0  0  0  0  0
    8.4524   -0.7361   23.3375 H   0  0  0  0  0  0  0  0  0  0  0  0
    9.3031    0.1824   22.0822 H   0  0  0  0  0  0  0  0  0  0  0  0
    7.5971    1.2195   22.9605 C   0  0  0  0  0  0  0  0  0  0  0  0
    6.6758    1.1523   24.0129 C   0  0  0  0  0  0  0  0  0  0  0  0
    6.5580    0.2096   24.5454 H   0  0  0  0  0  0  0  0  0  0  0  0
    5.9182    2.2735   24.3691 C   0  0  0  0  0  0  0  0  0  0  0  0
    5.2248    2.2059   25.2027 H   0  0  0  0  0  0  0  0  0  0  0  0
    6.0739    3.4758   23.6738 C   0  0  0  0  0  0  0  0  0  0  0  0
    5.5014    4.3629   23.9366 H   0  0  0  0  0  0  0  0  0  0  0  0
    7.0084    3.5632   22.6344 C   0  0  0  0  0  0  0  0  0  0  0  0
    7.2044    5.0939   21.8429 Cl  0  0  0  0  0  0  0  0  0  0  0  0
    7.7681    2.4389   22.2734 C   0  0  0  0  0  0  0  0  0  0  0  0
    8.8947    2.5338   20.9632 Cl  0  0  0  0  0  0  0  0  0  0  0  0
    5.4802    0.7099   20.3002 C   0  0  0  0  0  0  0  0  0  0  0  0
    4.9350    0.7331   21.2467 H   0  0  0  0  0  0  0  0  0  0  0  0
    4.9495    1.3521   19.1809 C   0  0  0  0  0  0  0  0  0  0  0  0
    4.0097    1.8898   19.2290 H   0  0  0  0  0  0  0  0  0  0  0  0
  1  2  1  0
  2  3  2  0
  3  4  1  0
  4  5  1  0
  4  6  2  0
  6  7  1  0
  7  8  2  0
  7  9  2  0
  7 10  1  0
 10 11  1  0
 10 12  1  0
 10 13  1  0
 13 14  2  0
 14 15  1  0
 14 16  1  0
 16 17  1  0
 16 18  2  0
 18 19  1  0
 18 20  1  0
 20 21  1  0
 20 22  2  0
 22 23  1  0
  6 24  1  0
 24 25  1  0
 24 26  2  0
 26 27  1  0
 26  2  1  0
 22 13  1  0
M  END
>  <cnnaffinity>  (1) 
-4.28559

>  <filename>  (1) 
O=S(=O)(Cc1cccc(Cl)c1Cl)c1cccnc1

$$$$
