
     RDKit          3D

 37 40  0  0  0  0  0  0  0  0999 V2000
    5.0186    1.6269   16.5271 H   0  0  0  0  0  0  0  0  0  0  0  0
    5.4554    1.1491   17.3996 C   0  0  0  0  0  0  0  0  0  0  0  0
    6.6500    0.5662   17.2184 N   0  0  0  0  0  0  0  0  0  0  0  0
    7.2459    0.0117   18.2778 C   0  0  0  0  0  0  0  0  0  0  0  0
    8.2156   -0.4468   18.0888 H   0  0  0  0  0  0  0  0  0  0  0  0
    6.6949    0.0270   19.5729 C   0  0  0  0  0  0  0  0  0  0  0  0
    7.4156   -0.4440   20.6916 N   0  0  0  0  0  0  0  0  0  0  0  0
    8.4441   -1.3870   20.7060 C   0  0  0  0  0  0  0  0  0  0  0  0
    8.7627   -1.8325   19.7826 H   0  0  0  0  0  0  0  0  0  0  0  0
    8.9454   -1.4920   21.9601 C   0  0  0  0  0  0  0  0  0  0  0  0
    9.7608   -2.0340   22.4082 H   0  0  0  0  0  0  0  0  0  0  0  0
    8.2204   -0.6019   22.7343 N   0  0  0  0  0  0  0  0  0  0  0  0
    8.4521   -0.0204   23.9554 N   0  0  0  0  0  0  0  0  0  0  0  0
    7.6867    1.0561   23.8663 C   0  0  0  0  0  0  0  0  0  0  0  0
    7.6894    2.0189   24.8349 N   0  0  0  0  0  0  0  0  0  0  0  0
    7.5582    2.9780   24.5885 H   0  0  0  0  0  0  0  0  0  0  0  0
    8.8724    1.9841   25.9467 S   0  0  0  0  0  0  0  0  0  0  0  0
    8.6486    0.8208   26.7705 O   0  0  0  0  0  0  0  0  0  0  0  0
    8.8031    3.3603   26.4070 O   0  0  0  0  0  0  0  0  0  0  0  0
   10.4085    1.7554   25.0676 C   0  0  0  0  0  0  0  0  0  0  0  0
   11.3093    0.7906   25.5474 C   0  0  0  0  0  0  0  0  0  0  0  0
   11.0549    0.1560   26.3977 H   0  0  0  0  0  0  0  0  0  0  0  0
   12.5719    0.6749   24.9584 C   0  0  0  0  0  0  0  0  0  0  0  0
   13.2762   -0.0658   25.3238 H   0  0  0  0  0  0  0  0  0  0  0  0
   12.9339    1.4959   23.8870 C   0  0  0  0  0  0  0  0  0  0  0  0
   13.9277    1.4285   23.4451 H   0  0  0  0  0  0  0  0  0  0  0  0
   12.0067    2.4175   23.3879 C   0  0  0  0  0  0  0  0  0  0  0  0
   12.2613    3.0199   22.5227 H   0  0  0  0  0  0  0  0  0  0  0  0
   10.7375    2.5446   23.9542 C   0  0  0  0  0  0  0  0  0  0  0  0
   10.0411    3.2576   23.5073 H   0  0  0  0  0  0  0  0  0  0  0  0
    6.9233    1.1849   22.7023 C   0  0  0  0  0  0  0  0  0  0  0  0
    6.2014    1.9576   22.5214 H   0  0  0  0  0  0  0  0  0  0  0  0
    7.3271    0.0763   21.9772 C   0  0  0  0  0  0  0  0  0  0  0  0
    5.4150    0.5814   19.7394 C   0  0  0  0  0  0  0  0  0  0  0  0
    4.9559    0.5619   20.7289 H   0  0  0  0  0  0  0  0  0  0  0  0
    4.7926    1.1601   18.6320 C   0  0  0  0  0  0  0  0  0  0  0  0
    3.8258    1.6463   18.7185 H   0  0  0  0  0  0  0  0  0  0  0  0
  1  2  1  0
  2  3  2  0
  3  4  1  0
  4  5  1  0
  4  6  2  0
  6  7  1  0
  7  8  1  0
  8  9  1  0
  8 10  2  0
 10 11  1  0
 10 12  1  0
 12 13  1  0
 13 14  2  0
 14 15  1  0
 15 16  1  0
 15 17  1  0
 17 18  2  0
 17 19  2  0
 17 20  1  0
 20 21  2  0
 21 22  1  0
 21 23  1  0
 23 24  1  0
 23 25  2  0
 25 26  1  0
 25 27  1  0
 27 28  1  0
 27 29  2  0
 29 30  1  0
 14 31  1  0
 31 32  1  0
 31 33  2  0
  6 34  1  0
 34 35  1  0
 34 36  2  0
 36 37  1  0
 36  2  1  0
 33  7  1  0
 33 12  1  0
 29 20  1  0
M  END
>  <cnnaffinity>  (1) 
-5.4651

>  <filename>  (1) 
O=S(=O)(Nc1cc2n(-c3cccnc3)ccn2n1)c1ccccc1

$$$$
