
     RDKit          3D

 28 30  0  0  0  0  0  0  0  0999 V2000
    4.9866    1.7451   17.0308 H   0  0  0  0  0  0  0  0  0  0  0  0
    5.4380    1.2575   17.8890 C   0  0  0  0  0  0  0  0  0  0  0  0
    6.5984    0.6302   17.6595 N   0  0  0  0  0  0  0  0  0  0  0  0
    7.2041    0.0439   18.6862 C   0  0  0  0  0  0  0  0  0  0  0  0
    8.1476   -0.4468   18.4409 H   0  0  0  0  0  0  0  0  0  0  0  0
    6.6484    0.0773   19.9582 C   0  0  0  0  0  0  0  0  0  0  0  0
    7.5521   -0.7941   21.1395 S   0  0  0  0  0  0  0  0  0  0  0  0
    6.9818   -2.1031   21.2843 O   0  0  0  0  0  0  0  0  0  0  0  0
    8.9511   -0.5836   20.8457 O   0  0  0  0  0  0  0  0  0  0  0  0
    7.1172   -0.0540   22.5278 O   0  0  0  0  0  0  0  0  0  0  0  0
    7.5243    1.2214   22.8481 C   0  0  0  0  0  0  0  0  0  0  0  0
    8.1648    2.0762   22.0196 C   0  0  0  0  0  0  0  0  0  0  0  0
    8.5416    1.9044   21.0213 H   0  0  0  0  0  0  0  0  0  0  0  0
    8.3827    3.6405   22.7412 S   0  0  0  0  0  0  0  0  0  0  0  0
    7.6055    3.1405   24.2206 C   0  0  0  0  0  0  0  0  0  0  0  0
    7.3824    3.9294   25.3721 C   0  0  0  0  0  0  0  0  0  0  0  0
    7.6987    4.9669   25.4259 H   0  0  0  0  0  0  0  0  0  0  0  0
    6.7378    3.3465   26.4548 C   0  0  0  0  0  0  0  0  0  0  0  0
    6.5559    3.9332   27.3536 H   0  0  0  0  0  0  0  0  0  0  0  0
    6.3172    2.0038   26.4015 C   0  0  0  0  0  0  0  0  0  0  0  0
    5.8172    1.5765   27.2660 H   0  0  0  0  0  0  0  0  0  0  0  0
    6.5350    1.2286   25.2669 C   0  0  0  0  0  0  0  0  0  0  0  0
    6.2033    0.1954   25.2461 H   0  0  0  0  0  0  0  0  0  0  0  0
    7.1896    1.7884   24.1426 C   0  0  0  0  0  0  0  0  0  0  0  0
    5.4162    0.6774   20.2214 C   0  0  0  0  0  0  0  0  0  0  0  0
    4.9269    0.6794   21.2013 H   0  0  0  0  0  0  0  0  0  0  0  0
    4.8165    1.2991   19.1381 C   0  0  0  0  0  0  0  0  0  0  0  0
    3.8826    1.8296   19.2497 H   0  0  0  0  0  0  0  0  0  0  0  0
  1  2  1  0
  2  3  2  0
  3  4  1  0
  4  5  1  0
  4  6  2  0
  6  7  1  0
  7  8  2  0
  7  9  2  0
  7 10  1  0
 10 11  1  0
 11 12  2  0
 12 13  1  0
 12 14  1  0
 14 15  1  0
 15 16  2  0
 16 17  1  0
 16 18  1  0
 18 19  1  0
 18 20  2  0
 20 21  1  0
 20 22  1  0
 22 23  1  0
 22 24  2  0
  6 25  1  0
 25 26  1  0
 25 27  2  0
 27 28  1  0
 27  2  1  0
 24 11  1  0
 24 15  1  0
M  END
>  <cnnaffinity>  (1) 
-4.87946

>  <filename>  (1) 
O=S(=O)(Oc1csc2ccccc12)c1cccnc1

$$$$
