
     RDKit          3D

 27 28  0  0  0  0  0  0  0  0999 V2000
    6.5710    0.0665   22.6543 H   0  0  0  0  0  0  0  0  0  0  0  0
    7.2609   -0.6008   22.1217 C   0  0  0  0  0  0  0  0  0  0  0  0
    7.4112   -0.7046   20.8666 N   0  0  0  0  0  0  0  0  0  0  0  0
    6.6661    0.0104   19.9097 C   0  0  0  0  0  0  0  0  0  0  0  0
    7.1760    0.0630   18.5929 C   0  0  0  0  0  0  0  0  0  0  0  0
    8.1222   -0.4345   18.3946 H   0  0  0  0  0  0  0  0  0  0  0  0
    6.5675    0.6792   17.5791 N   0  0  0  0  0  0  0  0  0  0  0  0
    5.3974    1.2946   17.8405 C   0  0  0  0  0  0  0  0  0  0  0  0
    4.9121    1.7789   16.9981 H   0  0  0  0  0  0  0  0  0  0  0  0
    4.8065    1.3101   19.1065 C   0  0  0  0  0  0  0  0  0  0  0  0
    3.8746    1.8418   19.2653 H   0  0  0  0  0  0  0  0  0  0  0  0
    5.4443    0.6524   20.1648 C   0  0  0  0  0  0  0  0  0  0  0  0
    5.0014    0.6273   21.1629 H   0  0  0  0  0  0  0  0  0  0  0  0
    8.2108   -1.6451   23.2844 S   0  0  0  0  0  0  0  0  0  0  0  0
    7.9690   -3.0505   22.9548 O   0  0  0  0  0  0  0  0  0  0  0  0
    7.9711   -1.1384   24.6353 O   0  0  0  0  0  0  0  0  0  0  0  0
    9.9363   -1.2769   22.8660 C   0  0  0  0  0  0  0  0  0  0  0  0
   10.5792   -2.0130   21.8603 C   0  0  0  0  0  0  0  0  0  0  0  0
   10.0452   -2.7871   21.3149 H   0  0  0  0  0  0  0  0  0  0  0  0
   11.9227   -1.7497   21.5690 C   0  0  0  0  0  0  0  0  0  0  0  0
   12.4377   -2.3129   20.7970 H   0  0  0  0  0  0  0  0  0  0  0  0
   12.6235   -0.7575   22.2594 C   0  0  0  0  0  0  0  0  0  0  0  0
   13.6709   -0.5635   22.0269 H   0  0  0  0  0  0  0  0  0  0  0  0
   11.9650   -0.0135   23.2436 C   0  0  0  0  0  0  0  0  0  0  0  0
   12.5060    0.7612   23.7802 H   0  0  0  0  0  0  0  0  0  0  0  0
   10.6217   -0.2612   23.5480 C   0  0  0  0  0  0  0  0  0  0  0  0
   10.1281    0.3238   24.3216 H   0  0  0  0  0  0  0  0  0  0  0  0
  1  2  1  0
  2  3  2  3
  3  4  1  0
  4  5  2  0
  5  6  1  0
  5  7  1  0
  7  8  2  0
  8  9  1  0
  8 10  1  0
 10 11  1  0
 10 12  2  0
 12 13  1  0
  2 14  1  0
 14 15  2  0
 14 16  2  0
 14 17  1  0
 17 18  2  0
 18 19  1  0
 18 20  1  0
 20 21  1  0
 20 22  2  0
 22 23  1  0
 22 24  1  0
 24 25  1  0
 24 26  2  0
 26 27  1  0
 12  4  1  0
 26 17  1  0
M  END
>  <cnnaffinity>  (1) 
-4.91813

>  <filename>  (1) 
O=S(=O)(C=Nc1cccnc1)c1ccccc1

$$$$
