
     RDKit          3D

 49 52  0  0  0  0  0  0  0  0999 V2000
    3.4239   -4.5859   22.2184 O   0  0  0  0  0  0  0  0  0  0  0  0
    4.7344   -5.0868   22.5867 S   0  0  0  0  0  0  0  0  0  0  0  0
    5.4756   -5.9363   21.6791 O   0  0  0  0  0  0  0  0  0  0  0  0
    4.5823   -5.8500   24.1738 C   0  0  0  0  0  0  0  0  0  0  0  0
    3.8641   -4.9124   25.1673 C   0  0  0  0  0  0  0  0  0  0  0  0
    4.2894   -3.4294   24.9728 C   0  0  0  0  0  0  0  0  0  0  0  0
    5.6959   -3.3158   24.3731 C   0  0  0  0  0  0  0  0  0  0  0  0
    5.7411   -3.7959   22.9827 N   0  0  0  0  0  0  0  0  0  0  0  0
    6.0391   -2.8615   21.8763 C   0  0  0  0  0  0  0  0  0  0  0  0
    7.2047   -1.9027   22.0618 C   0  0  0  0  0  0  0  0  0  0  0  0
    8.3024   -2.0824   22.7842 N   0  0  0  0  0  0  0  0  0  0  0  0
    9.1248   -1.0895   22.3690 C   0  0  0  0  0  0  0  0  0  0  0  0
   10.5822   -1.0212   22.7175 C   0  0  0  0  0  0  0  0  0  0  0  0
   11.0105    0.3263   23.3550 C   0  0  0  0  0  0  0  0  0  0  0  0
   12.5177    0.4447   23.4577 C   0  0  0  0  0  0  0  0  0  0  0  0
   13.3696   -0.2924   22.7426 C   0  0  0  0  0  0  0  0  0  0  0  0
   12.9336   -1.3530   21.7563 C   0  0  0  0  0  0  0  0  0  0  0  0
   11.4319   -1.2772   21.4428 C   0  0  0  0  0  0  0  0  0  0  0  0
   11.2199   -0.4593   20.7410 H   0  0  0  0  0  0  0  0  0  0  0  0
   11.0915   -2.1911   20.9491 H   0  0  0  0  0  0  0  0  0  0  0  0
   13.1903   -2.3444   22.1562 H   0  0  0  0  0  0  0  0  0  0  0  0
   13.5217   -1.2664   20.8344 H   0  0  0  0  0  0  0  0  0  0  0  0
   14.4444   -0.1544   22.8744 H   0  0  0  0  0  0  0  0  0  0  0  0
   12.9056    1.1910   24.1528 H   0  0  0  0  0  0  0  0  0  0  0  0
   10.5649    0.4492   24.3513 H   0  0  0  0  0  0  0  0  0  0  0  0
   10.6262    1.1594   22.7464 H   0  0  0  0  0  0  0  0  0  0  0  0
   10.7482   -1.8314   23.4366 H   0  0  0  0  0  0  0  0  0  0  0  0
    8.5999   -0.2920   21.4599 N   0  0  0  0  0  0  0  0  0  0  0  0
    7.3563   -0.7994   21.2695 N   0  0  0  0  0  0  0  0  0  0  0  0
    6.6110   -0.2576   20.1847 C   0  0  0  0  0  0  0  0  0  0  0  0
    5.3416    0.3072   20.3374 C   0  0  0  0  0  0  0  0  0  0  0  0
    4.7842    0.9585   19.2292 C   0  0  0  0  0  0  0  0  0  0  0  0
    5.5036    1.0059   18.0327 C   0  0  0  0  0  0  0  0  0  0  0  0
    6.7054    0.4230   17.8690 N   0  0  0  0  0  0  0  0  0  0  0  0
    7.2437   -0.1799   18.9301 C   0  0  0  0  0  0  0  0  0  0  0  0
    8.2291   -0.6232   18.7969 H   0  0  0  0  0  0  0  0  0  0  0  0
    5.1018    1.5404   17.1748 H   0  0  0  0  0  0  0  0  0  0  0  0
    3.8142    1.4389   19.2982 H   0  0  0  0  0  0  0  0  0  0  0  0
    4.8346    0.2811   21.3020 H   0  0  0  0  0  0  0  0  0  0  0  0
    6.2925   -3.4542   20.9890 H   0  0  0  0  0  0  0  0  0  0  0  0
    5.1506   -2.2734   21.6118 H   0  0  0  0  0  0  0  0  0  0  0  0
    6.0866   -2.2929   24.3741 H   0  0  0  0  0  0  0  0  0  0  0  0
    6.4133   -3.8981   24.9774 H   0  0  0  0  0  0  0  0  0  0  0  0
    3.5823   -2.9180   24.3080 H   0  0  0  0  0  0  0  0  0  0  0  0
    4.2698   -2.8984   25.9298 H   0  0  0  0  0  0  0  0  0  0  0  0
    4.1053   -5.2642   26.1784 H   0  0  0  0  0  0  0  0  0  0  0  0
    2.7788   -5.0062   25.0376 H   0  0  0  0  0  0  0  0  0  0  0  0
    5.6133   -6.0667   24.4638 H   0  0  0  0  0  0  0  0  0  0  0  0
    4.0572   -6.7872   23.9926 H   0  0  0  0  0  0  0  0  0  0  0  0
  1  2  2  0
  2  3  2  0
  2  4  1  0
  4  5  1  0
  5  6  1  0
  6  7  1  0
  7  8  1  0
  8  9  1  0
  9 10  1  0
 10 11  2  0
 11 12  1  0
 12 13  1  0
 13 14  1  0
 14 15  1  0
 15 16  2  0
 16 17  1  0
 17 18  1  0
 18 19  1  0
 18 20  1  0
 17 21  1  0
 17 22  1  0
 16 23  1  0
 15 24  1  0
 14 25  1  0
 14 26  1  0
 13 27  1  0
 12 28  2  0
 28 29  1  0
 29 30  1  0
 30 31  2  0
 31 32  1  0
 32 33  2  0
 33 34  1  0
 34 35  2  0
 35 36  1  0
 33 37  1  0
 32 38  1  0
 31 39  1  0
  9 40  1  0
  9 41  1  0
  7 42  1  0
  7 43  1  0
  6 44  1  0
  6 45  1  0
  5 46  1  0
  5 47  1  0
  4 48  1  0
  4 49  1  0
  8  2  1  0
 29 10  1  0
 35 30  1  0
 18 13  1  0
M  END
>  <cnnaffinity>  (1) 
-6.66732

>  <filename>  (1) 
O=S1(=O)CCCCN1Cc1nc(C2CC=CCC2)nn1-c1cccnc1

$$$$
