
     RDKit          3D

 46 49  0  0  0  0  0  0  0  0999 V2000
    6.8831    0.1060   25.3873 O   0  0  0  0  0  0  0  0  0  0  0  0
    5.7390    0.9619   25.1527 S   0  0  0  0  0  0  0  0  0  0  0  0
    4.3845    0.4878   25.3311 O   0  0  0  0  0  0  0  0  0  0  0  0
    5.9087    2.4843   26.0851 C   0  0  0  0  0  0  0  0  0  0  0  0
    5.8553    3.6255   25.0505 C   0  0  0  0  0  0  0  0  0  0  0  0
    5.2947    3.0140   23.7501 C   0  0  0  0  0  0  0  0  0  0  0  0
    5.8218    1.6498   23.5852 N   0  0  0  0  0  0  0  0  0  0  0  0
    7.1196    1.5281   22.8500 C   0  0  0  0  0  0  0  0  0  0  0  0
    7.4584    0.1673   22.2916 C   0  0  0  0  0  0  0  0  0  0  0  0
    8.2920   -0.6991   22.8426 N   0  0  0  0  0  0  0  0  0  0  0  0
    8.1127   -1.8249   22.1160 C   0  0  0  0  0  0  0  0  0  0  0  0
    8.6202   -3.1955   22.5240 C   0  0  0  0  0  0  0  0  0  0  0  0
    9.6908   -3.1623   23.6503 C   0  0  0  0  0  0  0  0  0  0  0  0
    9.1126   -3.1626   25.0500 C   0  0  0  0  0  0  0  0  0  0  0  0
    7.8066   -3.3006   25.3136 C   0  0  0  0  0  0  0  0  0  0  0  0
    6.7642   -3.5071   24.2357 C   0  0  0  0  0  0  0  0  0  0  0  0
    7.4071   -4.0637   22.9508 C   0  0  0  0  0  0  0  0  0  0  0  0
    7.7518   -5.0884   23.1439 H   0  0  0  0  0  0  0  0  0  0  0  0
    6.6764   -4.1106   22.1358 H   0  0  0  0  0  0  0  0  0  0  0  0
    6.2655   -2.5371   24.0680 H   0  0  0  0  0  0  0  0  0  0  0  0
    5.9813   -4.1931   24.5876 H   0  0  0  0  0  0  0  0  0  0  0  0
    7.4721   -3.2534   26.3480 H   0  0  0  0  0  0  0  0  0  0  0  0
    9.8186   -3.0711   25.8760 H   0  0  0  0  0  0  0  0  0  0  0  0
   10.3528   -2.2992   23.5118 H   0  0  0  0  0  0  0  0  0  0  0  0
   10.3503   -4.0377   23.5692 H   0  0  0  0  0  0  0  0  0  0  0  0
    9.0491   -3.6225   21.6143 H   0  0  0  0  0  0  0  0  0  0  0  0
    7.3394   -1.6681   21.0559 N   0  0  0  0  0  0  0  0  0  0  0  0
    6.9166   -0.3726   21.1557 N   0  0  0  0  0  0  0  0  0  0  0  0
    6.3125    0.2367   20.0224 C   0  0  0  0  0  0  0  0  0  0  0  0
    5.3018    1.2020   20.1096 C   0  0  0  0  0  0  0  0  0  0  0  0
    4.8197    1.7559   18.9155 C   0  0  0  0  0  0  0  0  0  0  0  0
    5.3627    1.3337   17.6999 C   0  0  0  0  0  0  0  0  0  0  0  0
    6.3243    0.3990   17.6117 N   0  0  0  0  0  0  0  0  0  0  0  0
    6.7676   -0.1413   18.7453 C   0  0  0  0  0  0  0  0  0  0  0  0
    7.5412   -0.9028   18.6717 H   0  0  0  0  0  0  0  0  0  0  0  0
    5.0237    1.7545   16.7573 H   0  0  0  0  0  0  0  0  0  0  0  0
    4.0371    2.5042   18.9161 H   0  0  0  0  0  0  0  0  0  0  0  0
    4.9050    1.4957   21.0816 H   0  0  0  0  0  0  0  0  0  0  0  0
    7.9777    1.8364   23.4627 H   0  0  0  0  0  0  0  0  0  0  0  0
    7.0607    2.2098   21.9933 H   0  0  0  0  0  0  0  0  0  0  0  0
    5.5588    3.6040   22.8632 H   0  0  0  0  0  0  0  0  0  0  0  0
    4.1980    2.9636   23.7816 H   0  0  0  0  0  0  0  0  0  0  0  0
    6.8614    4.0366   24.8838 H   0  0  0  0  0  0  0  0  0  0  0  0
    5.2208    4.4551   25.3816 H   0  0  0  0  0  0  0  0  0  0  0  0
    6.8444    2.4065   26.6426 H   0  0  0  0  0  0  0  0  0  0  0  0
    5.0688    2.4547   26.7821 H   0  0  0  0  0  0  0  0  0  0  0  0
  1  2  2  0
  2  3  2  0
  2  4  1  0
  4  5  1  0
  5  6  1  0
  6  7  1  0
  7  8  1  0
  8  9  1  0
  9 10  2  0
 10 11  1  0
 11 12  1  0
 12 13  1  0
 13 14  1  0
 14 15  2  0
 15 16  1  0
 16 17  1  0
 17 18  1  0
 17 19  1  0
 16 20  1  0
 16 21  1  0
 15 22  1  0
 14 23  1  0
 13 24  1  0
 13 25  1  0
 12 26  1  0
 11 27  2  0
 27 28  1  0
 28 29  1  0
 29 30  2  0
 30 31  1  0
 31 32  2  0
 32 33  1  0
 33 34  2  0
 34 35  1  0
 32 36  1  0
 31 37  1  0
 30 38  1  0
  8 39  1  0
  8 40  1  0
  6 41  1  0
  6 42  1  0
  5 43  1  0
  5 44  1  0
  4 45  1  0
  4 46  1  0
  7  2  1  0
 28  9  1  0
 34 29  1  0
 17 12  1  0
M  END
>  <cnnaffinity>  (1) 
-5.9457

>  <filename>  (1) 
O=S1(=O)CCCN1Cc1nc(C2CC=CCC2)nn1-c1cccnc1

$$$$
