
     RDKit          3D

 47 50  0  0  0  0  0  0  0  0999 V2000
   11.0564    2.8276   23.9410 O   0  0  0  0  0  0  0  0  0  0  0  0
   10.3892    1.5724   23.6059 S   0  0  0  0  0  0  0  0  0  0  0  0
   11.0911    0.3039   23.7248 O   0  0  0  0  0  0  0  0  0  0  0  0
    8.8383    1.5376   24.5091 C   0  0  0  0  0  0  0  0  0  0  0  0
    7.6978    1.7888   23.5058 C   0  0  0  0  0  0  0  0  0  0  0  0
    8.2892    2.4182   22.2265 C   0  0  0  0  0  0  0  0  0  0  0  0
    9.6481    1.7550   21.9364 C   0  0  0  0  0  0  0  0  0  0  0  0
    9.5735    0.4893   21.0278 C   0  0  0  0  0  0  0  0  0  0  0  0
    8.5848   -0.5835   21.3892 C   0  0  0  0  0  0  0  0  0  0  0  0
    8.7854   -1.4665   22.3428 N   0  0  0  0  0  0  0  0  0  0  0  0
    7.5864   -2.0850   22.4771 C   0  0  0  0  0  0  0  0  0  0  0  0
    7.3990   -3.1142   23.5718 C   0  0  0  0  0  0  0  0  0  0  0  0
    6.6316   -2.5157   24.7999 C   0  0  0  0  0  0  0  0  0  0  0  0
    5.1317   -2.6604   24.6825 C   0  0  0  0  0  0  0  0  0  0  0  0
    4.5875   -3.7057   24.0565 C   0  0  0  0  0  0  0  0  0  0  0  0
    5.4456   -4.8855   23.6581 C   0  0  0  0  0  0  0  0  0  0  0  0
    6.7854   -4.4477   23.0212 C   0  0  0  0  0  0  0  0  0  0  0  0
    6.6121   -4.3406   21.9437 H   0  0  0  0  0  0  0  0  0  0  0  0
    7.5200   -5.2516   23.1535 H   0  0  0  0  0  0  0  0  0  0  0  0
    4.8975   -5.5479   22.9776 H   0  0  0  0  0  0  0  0  0  0  0  0
    5.6554   -5.4849   24.5554 H   0  0  0  0  0  0  0  0  0  0  0  0
    3.5227   -3.7080   23.8364 H   0  0  0  0  0  0  0  0  0  0  0  0
    4.4974   -1.8941   25.1314 H   0  0  0  0  0  0  0  0  0  0  0  0
    6.9728   -3.0463   25.7004 H   0  0  0  0  0  0  0  0  0  0  0  0
    6.9014   -1.4612   24.9666 H   0  0  0  0  0  0  0  0  0  0  0  0
    8.4232   -3.3121   23.9027 H   0  0  0  0  0  0  0  0  0  0  0  0
    6.6536   -1.6549   21.6454 N   0  0  0  0  0  0  0  0  0  0  0  0
    7.3152   -0.7213   20.9016 N   0  0  0  0  0  0  0  0  0  0  0  0
    6.6351   -0.0397   19.8474 C   0  0  0  0  0  0  0  0  0  0  0  0
    5.4311    0.6142   20.1197 C   0  0  0  0  0  0  0  0  0  0  0  0
    4.8102    1.3120   19.0818 C   0  0  0  0  0  0  0  0  0  0  0  0
    5.3975    1.3126   17.8109 C   0  0  0  0  0  0  0  0  0  0  0  0
    6.5320    0.6539   17.5303 N   0  0  0  0  0  0  0  0  0  0  0  0
    7.1326   -0.0064   18.5300 C   0  0  0  0  0  0  0  0  0  0  0  0
    8.0503   -0.5345   18.2729 H   0  0  0  0  0  0  0  0  0  0  0  0
    4.9338    1.8560   16.9899 H   0  0  0  0  0  0  0  0  0  0  0  0
    3.8883    1.8555   19.2501 H   0  0  0  0  0  0  0  0  0  0  0  0
    5.0145    0.5766   21.1280 H   0  0  0  0  0  0  0  0  0  0  0  0
    9.3381    0.8422   20.0194 H   0  0  0  0  0  0  0  0  0  0  0  0
   10.5570    0.0125   20.9876 H   0  0  0  0  0  0  0  0  0  0  0  0
   10.3655    2.4394   21.4774 H   0  0  0  0  0  0  0  0  0  0  0  0
    7.6119    2.3012   21.3720 H   0  0  0  0  0  0  0  0  0  0  0  0
    8.4312    3.4981   22.3569 H   0  0  0  0  0  0  0  0  0  0  0  0
    6.9287    2.4256   23.9513 H   0  0  0  0  0  0  0  0  0  0  0  0
    7.2089    0.8367   23.2629 H   0  0  0  0  0  0  0  0  0  0  0  0
    8.9531    2.3296   25.2494 H   0  0  0  0  0  0  0  0  0  0  0  0
    8.7979    0.5706   25.0127 H   0  0  0  0  0  0  0  0  0  0  0  0
  1  2  2  0
  2  3  2  0
  2  4  1  0
  4  5  1  0
  5  6  1  0
  6  7  1  0
  7  8  1  0
  8  9  1  0
  9 10  2  0
 10 11  1  0
 11 12  1  0
 12 13  1  0
 13 14  1  0
 14 15  2  0
 15 16  1  0
 16 17  1  0
 17 18  1  0
 17 19  1  0
 16 20  1  0
 16 21  1  0
 15 22  1  0
 14 23  1  0
 13 24  1  0
 13 25  1  0
 12 26  1  0
 11 27  2  0
 27 28  1  0
 28 29  1  0
 29 30  2  0
 30 31  1  0
 31 32  2  0
 32 33  1  0
 33 34  2  0
 34 35  1  0
 32 36  1  0
 31 37  1  0
 30 38  1  0
  8 39  1  0
  8 40  1  0
  7 41  1  0
  6 42  1  0
  6 43  1  0
  5 44  1  0
  5 45  1  0
  4 46  1  0
  4 47  1  0
  7  2  1  0
 28  9  1  0
 34 29  1  0
 17 12  1  0
M  END
>  <cnnaffinity>  (1) 
-6.10361

>  <filename>  (1) 
O=S1(=O)CCCC1Cc1nc(C2CC=CCC2)nn1-c1cccnc1

$$$$
