
     RDKit          3D

 50 53  0  0  0  0  0  0  0  0999 V2000
    8.5139    4.0201   21.9172 O   0  0  0  0  0  0  0  0  0  0  0  0
    8.2719    2.6260   21.7636 C   0  0  2  0  0  0  0  0  0  0  0  0
    7.2890    2.2450   22.8740 C   0  0  0  0  0  0  0  0  0  0  0  0
    7.9235    2.2624   24.2692 C   0  0  0  0  0  0  0  0  0  0  0  0
    9.1143    1.3025   24.3252 C   0  0  0  0  0  0  0  0  0  0  0  0
   10.1561    1.6350   23.2416 C   0  0  0  0  0  0  0  0  0  0  0  0
    9.6132    1.8378   21.7992 C   0  0  1  0  0  0  0  0  0  0  0  0
    9.5827    0.5298   20.9641 C   0  0  0  0  0  0  0  0  0  0  0  0
    8.6374   -0.5293   21.4066 C   0  0  0  0  0  0  0  0  0  0  0  0
    8.8828   -1.4320   22.3400 N   0  0  0  0  0  0  0  0  0  0  0  0
    7.6985   -2.0823   22.4620 C   0  0  0  0  0  0  0  0  0  0  0  0
    7.4496   -3.1205   23.5127 C   0  0  0  0  0  0  0  0  0  0  0  0
    6.7013   -4.3686   23.0044 C   0  0  0  0  0  0  0  0  0  0  0  0
    6.0238   -4.9719   24.2471 C   0  0  0  0  0  0  0  0  0  0  0  0
    5.9004   -3.8319   25.2918 C   0  0  0  0  0  0  0  0  0  0  0  0
    6.5851   -2.5933   24.6842 C   0  0  0  0  0  0  0  0  0  0  0  0
    7.1852   -2.0340   25.4120 H   0  0  0  0  0  0  0  0  0  0  0  0
    5.8382   -1.8894   24.3003 H   0  0  0  0  0  0  0  0  0  0  0  0
    6.3720   -4.1259   26.2356 H   0  0  0  0  0  0  0  0  0  0  0  0
    4.8558   -3.6134   25.5353 H   0  0  0  0  0  0  0  0  0  0  0  0
    5.0493   -5.4010   23.9936 H   0  0  0  0  0  0  0  0  0  0  0  0
    6.6180   -5.7973   24.6551 H   0  0  0  0  0  0  0  0  0  0  0  0
    5.9563   -4.0603   22.2618 H   0  0  0  0  0  0  0  0  0  0  0  0
    7.3752   -5.0736   22.5040 H   0  0  0  0  0  0  0  0  0  0  0  0
    8.4342   -3.4046   23.8931 H   0  0  0  0  0  0  0  0  0  0  0  0
    6.7501   -1.6671   21.6386 N   0  0  0  0  0  0  0  0  0  0  0  0
    7.3628   -0.6789   20.9358 N   0  0  0  0  0  0  0  0  0  0  0  0
    6.6559    0.0043   19.9039 C   0  0  0  0  0  0  0  0  0  0  0  0
    5.4400    0.6417   20.1663 C   0  0  0  0  0  0  0  0  0  0  0  0
    4.8113    1.3092   19.1085 C   0  0  0  0  0  0  0  0  0  0  0  0
    5.3978    1.2966   17.8368 C   0  0  0  0  0  0  0  0  0  0  0  0
    6.5559    0.6718   17.5745 N   0  0  0  0  0  0  0  0  0  0  0  0
    7.1648    0.0518   18.5937 C   0  0  0  0  0  0  0  0  0  0  0  0
    8.1102   -0.4338   18.3646 H   0  0  0  0  0  0  0  0  0  0  0  0
    4.9206    1.7890   16.9928 H   0  0  0  0  0  0  0  0  0  0  0  0
    3.8800    1.8390   19.2601 H   0  0  0  0  0  0  0  0  0  0  0  0
    5.0129    0.6128   21.1741 H   0  0  0  0  0  0  0  0  0  0  0  0
    9.3679    0.7849   19.9262 H   0  0  0  0  0  0  0  0  0  0  0  0
   10.5756    0.0727   20.9721 H   0  0  0  0  0  0  0  0  0  0  0  0
   10.3373    2.4865   21.2797 H   0  0  0  0  0  0  0  0  0  0  0  0
   10.6619    2.5643   23.5314 H   0  0  0  0  0  0  0  0  0  0  0  0
   10.9240    0.8517   23.2243 H   0  0  0  0  0  0  0  0  0  0  0  0
    9.5910    1.3471   25.3136 H   0  0  0  0  0  0  0  0  0  0  0  0
    8.7571    0.2722   24.1896 H   0  0  0  0  0  0  0  0  0  0  0  0
    8.2540    3.2861   24.4920 H   0  0  0  0  0  0  0  0  0  0  0  0
    7.1769    1.9958   25.0273 H   0  0  0  0  0  0  0  0  0  0  0  0
    6.4344    2.9290   22.8285 H   0  0  0  0  0  0  0  0  0  0  0  0
    6.9002    1.2414   22.6647 H   0  0  0  0  0  0  0  0  0  0  0  0
    7.7813    2.4240   20.7963 H   0  0  0  0  0  0  0  0  0  0  0  0
    8.9220    4.3416   21.0996 H   0  0  0  0  0  0  0  0  0  0  0  0
  1  2  1  0
  2  3  1  0
  3  4  1  0
  4  5  1  0
  5  6  1  0
  6  7  1  0
  7  8  1  0
  8  9  1  0
  9 10  2  0
 10 11  1  0
 11 12  1  0
 12 13  1  0
 13 14  1  0
 14 15  1  0
 15 16  1  0
 16 17  1  0
 16 18  1  0
 15 19  1  0
 15 20  1  0
 14 21  1  0
 14 22  1  0
 13 23  1  0
 13 24  1  0
 12 25  1  0
 11 26  2  0
 26 27  1  0
 27 28  1  0
 28 29  2  0
 29 30  1  0
 30 31  2  0
 31 32  1  0
 32 33  2  0
 33 34  1  0
 31 35  1  0
 30 36  1  0
 29 37  1  0
  8 38  1  0
  8 39  1  0
  7 40  1  6
  6 41  1  0
  6 42  1  0
  5 43  1  0
  5 44  1  0
  4 45  1  0
  4 46  1  0
  3 47  1  0
  3 48  1  0
  2 49  1  6
  1 50  1  0
  7  2  1  0
 27  9  1  0
 33 28  1  0
 16 12  1  0
M  END
>  <cnnaffinity>  (1) 
-6.1786

>  <filename>  (1) 
O[C@@H]1CCCC[C@H]1Cc1nc(C2CCCC2)nn1-c1cccnc1

$$$$
