
     RDKit          3D

 38 40  0  0  0  0  0  0  0  0999 V2000
    5.9418   -1.8552   21.3529 H   0  0  0  0  0  0  0  0  0  0  0  0
    6.6195   -1.4248   21.8851 O   0  0  0  0  0  0  0  0  0  0  0  0
    7.4436   -0.7155   20.9737 C   0  0  1  0  0  0  0  0  0  0  0  0
    8.1218   -1.4294   20.4707 H   0  0  0  0  0  0  0  0  0  0  0  0
    6.6286   -0.0283   19.8820 C   0  0  0  0  0  0  0  0  0  0  0  0
    7.1287    0.0112   18.5691 C   0  0  0  0  0  0  0  0  0  0  0  0
    8.0604   -0.5015   18.3217 H   0  0  0  0  0  0  0  0  0  0  0  0
    6.5508    0.6493   17.5420 N   0  0  0  0  0  0  0  0  0  0  0  0
    5.4050    1.2976   17.7912 C   0  0  0  0  0  0  0  0  0  0  0  0
    4.9669    1.8455   16.9574 H   0  0  0  0  0  0  0  0  0  0  0  0
    4.7865    1.2948   19.0438 C   0  0  0  0  0  0  0  0  0  0  0  0
    3.8580    1.8372   19.1807 H   0  0  0  0  0  0  0  0  0  0  0  0
    5.3971    0.6162   20.1018 C   0  0  0  0  0  0  0  0  0  0  0  0
    4.9364    0.6171   21.0935 H   0  0  0  0  0  0  0  0  0  0  0  0
    8.3604    0.2170   21.8192 C   0  0  0  0  0  0  0  0  0  0  0  0
    7.5595    1.3620   22.4968 C   0  0  0  0  0  0  0  0  0  0  0  0
    6.7235    0.8978   23.0418 H   0  0  0  0  0  0  0  0  0  0  0  0
    7.1245    1.9694   21.6899 H   0  0  0  0  0  0  0  0  0  0  0  0
    8.3300    2.2840   23.4312 C   0  0  0  0  0  0  0  0  0  0  0  0
    8.9938    3.4328   22.9579 C   0  0  0  0  0  0  0  0  0  0  0  0
    9.0802    3.5843   21.8831 H   0  0  0  0  0  0  0  0  0  0  0  0
    9.5209    4.3857   23.8346 C   0  0  0  0  0  0  0  0  0  0  0  0
   10.0208    5.2790   23.4656 H   0  0  0  0  0  0  0  0  0  0  0  0
    9.4194    4.1565   25.2042 C   0  0  0  0  0  0  0  0  0  0  0  0
    9.8874    5.0940   26.0516 F   0  0  0  0  0  0  0  0  0  0  0  0
    8.8572    2.9945   25.7229 C   0  0  0  0  0  0  0  0  0  0  0  0
    8.8493    2.8468   26.8021 H   0  0  0  0  0  0  0  0  0  0  0  0
    8.3426    2.0524   24.8230 C   0  0  0  0  0  0  0  0  0  0  0  0
    7.9354    1.1203   25.2086 H   0  0  0  0  0  0  0  0  0  0  0  0
    9.6166    0.6701   21.0272 C   0  0  0  0  0  0  0  0  0  0  0  0
    9.7764    1.7483   20.9520 H   0  0  0  0  0  0  0  0  0  0  0  0
    9.6384    0.2660   20.0120 H   0  0  0  0  0  0  0  0  0  0  0  0
   10.5349   -0.0805   22.0168 C   0  0  0  0  0  0  0  0  0  0  0  0
   11.1562   -0.8610   21.5652 H   0  0  0  0  0  0  0  0  0  0  0  0
   11.1757    0.5737   22.6143 H   0  0  0  0  0  0  0  0  0  0  0  0
    9.2924   -0.5997   22.7741 C   0  0  0  0  0  0  0  0  0  0  0  0
    9.1440   -1.6816   22.7136 H   0  0  0  0  0  0  0  0  0  0  0  0
    9.2404   -0.3291   23.8333 H   0  0  0  0  0  0  0  0  0  0  0  0
  1  2  1  0
  2  3  1  0
  3  4  1  6
  3  5  1  0
  5  6  2  0
  6  7  1  0
  6  8  1  0
  8  9  2  0
  9 10  1  0
  9 11  1  0
 11 12  1  0
 11 13  2  0
 13 14  1  0
  3 15  1  0
 15 16  1  0
 16 17  1  0
 16 18  1  0
 16 19  1  0
 19 20  2  0
 20 21  1  0
 20 22  1  0
 22 23  1  0
 22 24  2  0
 24 25  1  0
 24 26  1  0
 26 27  1  0
 26 28  2  0
 28 29  1  0
 15 30  1  0
 30 31  1  0
 30 32  1  0
 30 33  1  0
 33 34  1  0
 33 35  1  0
 33 36  1  0
 36 37  1  0
 36 38  1  0
 13  5  1  0
 36 15  1  0
 28 19  1  0
M  END
>  <cnnaffinity>  (1) 
-5.11318

>  <filename>  (1) 
O[C@@H](c1cccnc1)C1(Cc2ccc(F)cc2)CCC1

$$$$
