
     RDKit          3D

 46 49  0  0  0  0  0  0  0  0999 V2000
   10.3369   -1.5036   24.8774 O   0  0  0  0  0  0  0  0  0  0  0  0
   10.6964   -0.4910   23.9651 C   0  0  1  0  0  0  0  0  0  0  0  0
   11.7783    0.4315   24.5437 C   0  0  0  0  0  0  0  0  0  0  0  0
   12.2459    1.4878   23.5261 C   0  0  0  0  0  0  0  0  0  0  0  0
   12.5783    0.8977   22.1419 C   0  0  0  0  0  0  0  0  0  0  0  0
   11.5245   -0.0934   21.6214 C   0  0  0  0  0  0  0  0  0  0  0  0
   11.1586   -1.1581   22.6609 C   0  0  2  0  0  0  0  0  0  0  0  0
   10.1240   -2.1799   22.1201 C   0  0  0  0  0  0  0  0  0  0  0  0
    8.7664   -1.6291   21.8171 C   0  0  0  0  0  0  0  0  0  0  0  0
    8.4311   -1.1248   20.6447 N   0  0  0  0  0  0  0  0  0  0  0  0
    7.2024   -0.5837   20.8641 C   0  0  0  0  0  0  0  0  0  0  0  0
    6.4821    0.1091   19.7992 C   0  0  0  0  0  0  0  0  0  0  0  0
    5.2654    0.7892   19.9862 C   0  0  0  0  0  0  0  0  0  0  0  0
    4.7107    1.4345   18.8833 C   0  0  0  0  0  0  0  0  0  0  0  0
    5.3736    1.3735   17.6525 C   0  0  0  0  0  0  0  0  0  0  0  0
    6.5252    0.7116   17.4631 N   0  0  0  0  0  0  0  0  0  0  0  0
    7.0603    0.1027   18.5245 C   0  0  0  0  0  0  0  0  0  0  0  0
    7.9980   -0.4237   18.3603 H   0  0  0  0  0  0  0  0  0  0  0  0
    4.9651    1.8758   16.7801 H   0  0  0  0  0  0  0  0  0  0  0  0
    3.7891    1.9977   18.9666 H   0  0  0  0  0  0  0  0  0  0  0  0
    4.7877    0.8064   20.9671 H   0  0  0  0  0  0  0  0  0  0  0  0
    6.7628   -0.7145   22.0992 N   0  0  0  0  0  0  0  0  0  0  0  0
    7.7418   -1.4390   22.7018 N   0  0  0  0  0  0  0  0  0  0  0  0
    7.6115   -1.7577   24.0884 C   0  0  0  0  0  0  0  0  0  0  0  0
    7.7537   -3.0601   24.5910 C   0  0  0  0  0  0  0  0  0  0  0  0
    7.7109   -3.2245   25.9789 C   0  0  0  0  0  0  0  0  0  0  0  0
    7.5479   -2.1030   26.7903 C   0  0  0  0  0  0  0  0  0  0  0  0
    7.4067   -0.8582   26.3130 N   0  0  0  0  0  0  0  0  0  0  0  0
    7.3783   -0.7060   24.9865 C   0  0  0  0  0  0  0  0  0  0  0  0
    7.2120    0.3014   24.6118 H   0  0  0  0  0  0  0  0  0  0  0  0
    7.5348   -2.1903   27.8689 H   0  0  0  0  0  0  0  0  0  0  0  0
    7.8051   -4.2044   26.4386 H   0  0  0  0  0  0  0  0  0  0  0  0
    7.9142   -3.9063   23.9246 H   0  0  0  0  0  0  0  0  0  0  0  0
   10.4985   -2.5638   21.1700 H   0  0  0  0  0  0  0  0  0  0  0  0
   10.0322   -3.0122   22.8240 H   0  0  0  0  0  0  0  0  0  0  0  0
   12.0671   -1.7445   22.8474 H   0  0  0  0  0  0  0  0  0  0  0  0
   11.9009   -0.6207   20.7376 H   0  0  0  0  0  0  0  0  0  0  0  0
   10.6156    0.4318   21.2946 H   0  0  0  0  0  0  0  0  0  0  0  0
   12.6638    1.7255   21.4310 H   0  0  0  0  0  0  0  0  0  0  0  0
   13.5580    0.3976   22.1853 H   0  0  0  0  0  0  0  0  0  0  0  0
   13.1309    2.0031   23.9234 H   0  0  0  0  0  0  0  0  0  0  0  0
   11.4659    2.2535   23.4132 H   0  0  0  0  0  0  0  0  0  0  0  0
   12.6231   -0.1940   24.8515 H   0  0  0  0  0  0  0  0  0  0  0  0
   11.4000    0.9080   25.4608 H   0  0  0  0  0  0  0  0  0  0  0  0
    9.8198    0.1307   23.7155 H   0  0  0  0  0  0  0  0  0  0  0  0
    9.7504   -1.1140   25.5424 H   0  0  0  0  0  0  0  0  0  0  0  0
  1  2  1  0
  2  3  1  0
  3  4  1  0
  4  5  1  0
  5  6  1  0
  6  7  1  0
  7  8  1  0
  8  9  1  0
  9 10  2  0
 10 11  1  0
 11 12  1  0
 12 13  2  0
 13 14  1  0
 14 15  2  0
 15 16  1  0
 16 17  2  0
 17 18  1  0
 15 19  1  0
 14 20  1  0
 13 21  1  0
 11 22  2  0
 22 23  1  0
 23 24  1  0
 24 25  2  0
 25 26  1  0
 26 27  2  0
 27 28  1  0
 28 29  2  0
 29 30  1  0
 27 31  1  0
 26 32  1  0
 25 33  1  0
  8 34  1  0
  8 35  1  0
  7 36  1  1
  6 37  1  0
  6 38  1  0
  5 39  1  0
  5 40  1  0
  4 41  1  0
  4 42  1  0
  3 43  1  0
  3 44  1  0
  2 45  1  6
  1 46  1  0
  7  2  1  0
 23  9  1  0
 29 24  1  0
 17 12  1  0
M  END
>  <cnnaffinity>  (1) 
-5.94622

>  <filename>  (1) 
O[C@H]1CCCC[C@@H]1Cc1nc(-c2cccnc2)nn1-c1cccnc1

$$$$
