
     RDKit          3D

 40 42  0  0  0  0  0  0  0  0999 V2000
    7.3970   -1.9876   22.5098 H   0  0  0  0  0  0  0  0  0  0  0  0
    7.8423   -1.3269   23.0572 O   0  0  0  0  0  0  0  0  0  0  0  0
    7.3696   -0.2330   22.3269 C   0  0  2  0  0  0  0  0  0  0  0  0
    6.4234    0.1441   22.7560 H   0  0  0  0  0  0  0  0  0  0  0  0
    7.1885   -0.8482   21.0086 N   0  0  0  0  0  0  0  0  0  0  0  0
    8.1583   -1.0782   20.8410 H   0  0  0  0  0  0  0  0  0  0  0  0
    6.6223   -0.0964   19.9482 C   0  0  0  0  0  0  0  0  0  0  0  0
    7.1738   -0.0099   18.6365 C   0  0  0  0  0  0  0  0  0  0  0  0
    8.1096   -0.5150   18.4051 H   0  0  0  0  0  0  0  0  0  0  0  0
    6.6139    0.6538   17.6123 N   0  0  0  0  0  0  0  0  0  0  0  0
    5.4592    1.2966   17.8516 C   0  0  0  0  0  0  0  0  0  0  0  0
    5.0236    1.8430   17.0148 H   0  0  0  0  0  0  0  0  0  0  0  0
    4.8358    1.2931   19.1042 C   0  0  0  0  0  0  0  0  0  0  0  0
    3.9105    1.8423   19.2419 H   0  0  0  0  0  0  0  0  0  0  0  0
    5.4262    0.5951   20.1658 C   0  0  0  0  0  0  0  0  0  0  0  0
    4.9702    0.5585   21.1562 H   0  0  0  0  0  0  0  0  0  0  0  0
    8.3127    0.8014   22.2949 N   0  0  0  0  0  0  0  0  0  0  0  0
    9.7462    0.5285   22.2013 C   0  0  0  0  0  0  0  0  0  0  0  0
    9.9838   -0.1757   21.3862 H   0  0  0  0  0  0  0  0  0  0  0  0
   10.0925    0.0478   23.1280 H   0  0  0  0  0  0  0  0  0  0  0  0
   10.5837    1.8083   21.9245 C   0  0  0  0  0  0  0  0  0  0  0  0
   10.5564    2.0486   20.8472 H   0  0  0  0  0  0  0  0  0  0  0  0
   11.6264    1.6066   22.1753 H   0  0  0  0  0  0  0  0  0  0  0  0
   10.1159    2.9683   22.7020 N   0  0  0  0  0  0  0  0  0  0  0  0
   10.9786    3.9623   23.1057 C   0  0  0  0  0  0  0  0  0  0  0  0
   12.2543    3.8640   22.7028 N   0  0  0  0  0  0  0  0  0  0  0  0
   13.0918    4.8350   23.0724 C   0  0  0  0  0  0  0  0  0  0  0  0
   14.1102    4.7392   22.7002 H   0  0  0  0  0  0  0  0  0  0  0  0
   12.7405    5.9094   23.8868 C   0  0  0  0  0  0  0  0  0  0  0  0
   13.4714    6.6584   24.1496 H   0  0  0  0  0  0  0  0  0  0  0  0
   11.4199    5.9967   24.3448 C   0  0  0  0  0  0  0  0  0  0  0  0
   11.0943    6.8077   24.9972 H   0  0  0  0  0  0  0  0  0  0  0  0
   10.5223    5.0174   23.9378 C   0  0  0  0  0  0  0  0  0  0  0  0
    9.4843    5.0468   24.2311 H   0  0  0  0  0  0  0  0  0  0  0  0
    8.6617    3.2036   22.7389 C   0  0  0  0  0  0  0  0  0  0  0  0
    8.3118    3.2010   23.7835 H   0  0  0  0  0  0  0  0  0  0  0  0
    8.4265    4.1904   22.3127 H   0  0  0  0  0  0  0  0  0  0  0  0
    7.8647    2.1429   21.9527 C   0  0  0  0  0  0  0  0  0  0  0  0
    7.9512    2.3488   20.8712 H   0  0  0  0  0  0  0  0  0  0  0  0
    6.8038    2.2668   22.2038 H   0  0  0  0  0  0  0  0  0  0  0  0
  1  2  1  0
  2  3  1  0
  3  4  1  1
  3  5  1  0
  5  6  1  0
  5  7  1  0
  7  8  2  0
  8  9  1  0
  8 10  1  0
 10 11  2  0
 11 12  1  0
 11 13  1  0
 13 14  1  0
 13 15  2  0
 15 16  1  0
  3 17  1  0
 17 18  1  0
 18 19  1  0
 18 20  1  0
 18 21  1  0
 21 22  1  0
 21 23  1  0
 21 24  1  0
 24 25  1  0
 25 26  2  0
 26 27  1  0
 27 28  1  0
 27 29  2  0
 29 30  1  0
 29 31  1  0
 31 32  1  0
 31 33  2  0
 33 34  1  0
 24 35  1  0
 35 36  1  0
 35 37  1  0
 35 38  1  0
 38 39  1  0
 38 40  1  0
 15  7  1  0
 38 17  1  0
 33 25  1  0
M  END
>  <cnnaffinity>  (1) 
-4.87898

>  <filename>  (1) 
O[C@H](Nc1cccnc1)N1CCN(c2ccccn2)CC1

$$$$
