
     RDKit          3D

 47 50  0  0  0  0  0  0  0  0999 V2000
    8.5058    4.0318   21.9168 O   0  0  0  0  0  0  0  0  0  0  0  0
    8.2706    2.6364   21.7655 C   0  0  2  0  0  0  0  0  0  0  0  0
    7.2903    2.2574   22.8775 C   0  0  0  0  0  0  0  0  0  0  0  0
    7.9254    2.2705   24.2722 C   0  0  0  0  0  0  0  0  0  0  0  0
    9.1174    1.3131   24.3252 C   0  0  0  0  0  0  0  0  0  0  0  0
   10.1561    1.6490   23.2406 C   0  0  0  0  0  0  0  0  0  0  0  0
    9.6110    1.8489   21.7997 C   0  0  1  0  0  0  0  0  0  0  0  0
    9.5748    0.5339   20.9728 C   0  0  0  0  0  0  0  0  0  0  0  0
    8.6301   -0.5306   21.4148 C   0  0  0  0  0  0  0  0  0  0  0  0
    8.8673   -1.4395   22.3373 N   0  0  0  0  0  0  0  0  0  0  0  0
    7.6828   -2.1046   22.4525 C   0  0  0  0  0  0  0  0  0  0  0  0
    7.4804   -3.1997   23.4329 C   0  0  0  0  0  0  0  0  0  0  0  0
    8.5078   -3.5660   24.3291 C   0  0  0  0  0  0  0  0  0  0  0  0
    8.3017   -4.6000   25.2464 C   0  0  0  0  0  0  0  0  0  0  0  0
    7.0782   -5.2789   25.2847 C   0  0  0  0  0  0  0  0  0  0  0  0
    6.0557   -4.9195   24.3991 C   0  0  0  0  0  0  0  0  0  0  0  0
    6.2497   -3.8880   23.4795 C   0  0  0  0  0  0  0  0  0  0  0  0
    5.4540   -3.5982   22.7937 H   0  0  0  0  0  0  0  0  0  0  0  0
    5.1011   -5.4384   24.4259 H   0  0  0  0  0  0  0  0  0  0  0  0
    6.9203   -6.0823   26.0030 H   0  0  0  0  0  0  0  0  0  0  0  0
    9.0969   -4.8766   25.9351 H   0  0  0  0  0  0  0  0  0  0  0  0
    9.4640   -3.0439   24.3079 H   0  0  0  0  0  0  0  0  0  0  0  0
    6.7429   -1.6784   21.6228 N   0  0  0  0  0  0  0  0  0  0  0  0
    7.3563   -0.6826   20.9367 N   0  0  0  0  0  0  0  0  0  0  0  0
    6.6571    0.0070   19.9031 C   0  0  0  0  0  0  0  0  0  0  0  0
    5.4401    0.6427   20.1661 C   0  0  0  0  0  0  0  0  0  0  0  0
    4.8109    1.3101   19.1079 C   0  0  0  0  0  0  0  0  0  0  0  0
    5.3986    1.2972   17.8358 C   0  0  0  0  0  0  0  0  0  0  0  0
    6.5553    0.6713   17.5735 N   0  0  0  0  0  0  0  0  0  0  0  0
    7.1654    0.0536   18.5926 C   0  0  0  0  0  0  0  0  0  0  0  0
    8.1090   -0.4326   18.3626 H   0  0  0  0  0  0  0  0  0  0  0  0
    4.9215    1.7895   16.9910 H   0  0  0  0  0  0  0  0  0  0  0  0
    3.8790    1.8397   19.2589 H   0  0  0  0  0  0  0  0  0  0  0  0
    5.0137    0.6083   21.1746 H   0  0  0  0  0  0  0  0  0  0  0  0
   10.5710    0.0828   20.9748 H   0  0  0  0  0  0  0  0  0  0  0  0
    9.3603    0.7882   19.9343 H   0  0  0  0  0  0  0  0  0  0  0  0
   10.3364    2.4925   21.2732 H   0  0  0  0  0  0  0  0  0  0  0  0
   10.9287    0.8709   23.2225 H   0  0  0  0  0  0  0  0  0  0  0  0
   10.6593    2.5789   23.5294 H   0  0  0  0  0  0  0  0  0  0  0  0
    8.7619    0.2840   24.1899 H   0  0  0  0  0  0  0  0  0  0  0  0
    9.5947    1.3548   25.3135 H   0  0  0  0  0  0  0  0  0  0  0  0
    7.1803    2.0017   25.0306 H   0  0  0  0  0  0  0  0  0  0  0  0
    8.2544    3.2936   24.4958 H   0  0  0  0  0  0  0  0  0  0  0  0
    6.8988    1.2571   22.6664 H   0  0  0  0  0  0  0  0  0  0  0  0
    6.4368    2.9420   22.8312 H   0  0  0  0  0  0  0  0  0  0  0  0
    7.7791    2.4302   20.7992 H   0  0  0  0  0  0  0  0  0  0  0  0
    8.9244    4.3500   21.1039 H   0  0  0  0  0  0  0  0  0  0  0  0
  1  2  1  0
  2  3  1  0
  3  4  1  0
  4  5  1  0
  5  6  1  0
  6  7  1  0
  7  8  1  0
  8  9  1  0
  9 10  2  0
 10 11  1  0
 11 12  1  0
 12 13  2  0
 13 14  1  0
 14 15  2  0
 15 16  1  0
 16 17  2  0
 17 18  1  0
 16 19  1  0
 15 20  1  0
 14 21  1  0
 13 22  1  0
 11 23  2  0
 23 24  1  0
 24 25  1  0
 25 26  2  0
 26 27  1  0
 27 28  2  0
 28 29  1  0
 29 30  2  0
 30 31  1  0
 28 32  1  0
 27 33  1  0
 26 34  1  0
  8 35  1  0
  8 36  1  0
  7 37  1  6
  6 38  1  0
  6 39  1  0
  5 40  1  0
  5 41  1  0
  4 42  1  0
  4 43  1  0
  3 44  1  0
  3 45  1  0
  2 46  1  6
  1 47  1  0
  7  2  1  0
 24  9  1  0
 30 25  1  0
 17 12  1  0
M  END
>  <cnnaffinity>  (1) 
-5.73627

>  <filename>  (1) 
O[C@@H]1CCCC[C@H]1Cc1nc(-c2ccccc2)nn1-c1cccnc1

$$$$
