
     RDKit          3D

 45 48  0  0  0  0  0  0  0  0999 V2000
    8.6495    3.2393   24.8126 O   0  0  0  0  0  0  0  0  0  0  0  0
    7.3115    2.8267   24.5795 C   0  0  2  0  0  0  0  0  0  0  0  0
    6.4417    2.7721   25.8429 C   0  0  0  0  0  0  0  0  0  0  0  0
    5.4736    1.5733   25.6592 C   0  0  0  0  0  0  0  0  0  0  0  0
    5.9180    0.8585   24.3603 C   0  0  0  0  0  0  0  0  0  0  0  0
    7.3237    1.3975   24.0615 C   0  0  1  0  0  0  0  0  0  0  0  0
    7.7725    1.2844   22.5905 C   0  0  0  0  0  0  0  0  0  0  0  0
    7.7667   -0.1270   22.1129 C   0  0  0  0  0  0  0  0  0  0  0  0
    8.3065   -1.1041   22.8170 N   0  0  0  0  0  0  0  0  0  0  0  0
    8.1728   -2.1754   22.0157 C   0  0  0  0  0  0  0  0  0  0  0  0
    8.7712   -3.4873   22.3796 C   0  0  0  0  0  0  0  0  0  0  0  0
    8.8403   -3.9091   23.8701 C   0  0  0  0  0  0  0  0  0  0  0  0
    8.6815   -5.4490   23.8096 C   0  0  0  0  0  0  0  0  0  0  0  0
    8.5808   -5.7886   22.4348 O   0  0  0  0  0  0  0  0  0  0  0  0
    8.0540   -4.6760   21.7482 C   0  0  0  0  0  0  0  0  0  0  0  0
    8.2510   -4.7891   20.6760 H   0  0  0  0  0  0  0  0  0  0  0  0
    6.9672   -4.6001   21.9103 H   0  0  0  0  0  0  0  0  0  0  0  0
    9.5033   -6.0405   24.2321 H   0  0  0  0  0  0  0  0  0  0  0  0
    7.7685   -5.7451   24.3470 H   0  0  0  0  0  0  0  0  0  0  0  0
    8.0098   -3.4848   24.4432 H   0  0  0  0  0  0  0  0  0  0  0  0
    9.7730   -3.5941   24.3438 H   0  0  0  0  0  0  0  0  0  0  0  0
    9.7908   -3.4102   22.0040 H   0  0  0  0  0  0  0  0  0  0  0  0
    7.5998   -1.9375   20.8465 N   0  0  0  0  0  0  0  0  0  0  0  0
    7.3022   -0.6132   20.9220 N   0  0  0  0  0  0  0  0  0  0  0  0
    6.6009    0.0314   19.8599 C   0  0  0  0  0  0  0  0  0  0  0  0
    5.3969    0.7144   20.0834 C   0  0  0  0  0  0  0  0  0  0  0  0
    4.7826    1.3610   19.0052 C   0  0  0  0  0  0  0  0  0  0  0  0
    5.4008    1.3197   17.7523 C   0  0  0  0  0  0  0  0  0  0  0  0
    6.5364    0.6382   17.5233 N   0  0  0  0  0  0  0  0  0  0  0  0
    7.1074   -0.0040   18.5461 C   0  0  0  0  0  0  0  0  0  0  0  0
    8.0143   -0.5619   18.3205 H   0  0  0  0  0  0  0  0  0  0  0  0
    4.9717    1.8484   16.9009 H   0  0  0  0  0  0  0  0  0  0  0  0
    3.8495    1.8988   19.1264 H   0  0  0  0  0  0  0  0  0  0  0  0
    4.9397    0.7186   21.0734 H   0  0  0  0  0  0  0  0  0  0  0  0
    7.1485    1.9129   21.9492 H   0  0  0  0  0  0  0  0  0  0  0  0
    8.7953    1.6716   22.5108 H   0  0  0  0  0  0  0  0  0  0  0  0
    8.0436    0.8550   24.6921 H   0  0  0  0  0  0  0  0  0  0  0  0
    5.2330    1.0969   23.5330 H   0  0  0  0  0  0  0  0  0  0  0  0
    5.9248   -0.2346   24.4509 H   0  0  0  0  0  0  0  0  0  0  0  0
    5.5436    0.8991   26.5196 H   0  0  0  0  0  0  0  0  0  0  0  0
    4.4268    1.8887   25.5957 H   0  0  0  0  0  0  0  0  0  0  0  0
    5.9269    3.7215   26.0144 H   0  0  0  0  0  0  0  0  0  0  0  0
    7.1057    2.6019   26.6983 H   0  0  0  0  0  0  0  0  0  0  0  0
    6.8365    3.4750   23.8219 H   0  0  0  0  0  0  0  0  0  0  0  0
    8.6328    4.1654   25.0771 H   0  0  0  0  0  0  0  0  0  0  0  0
  1  2  1  0
  2  3  1  0
  3  4  1  0
  4  5  1  0
  5  6  1  0
  6  7  1  0
  7  8  1  0
  8  9  2  0
  9 10  1  0
 10 11  1  0
 11 12  1  0
 12 13  1  0
 13 14  1  0
 14 15  1  0
 15 16  1  0
 15 17  1  0
 13 18  1  0
 13 19  1  0
 12 20  1  0
 12 21  1  0
 11 22  1  0
 10 23  2  0
 23 24  1  0
 24 25  1  0
 25 26  2  0
 26 27  1  0
 27 28  2  0
 28 29  1  0
 29 30  2  0
 30 31  1  0
 28 32  1  0
 27 33  1  0
 26 34  1  0
  7 35  1  0
  7 36  1  0
  6 37  1  1
  5 38  1  0
  5 39  1  0
  4 40  1  0
  4 41  1  0
  3 42  1  0
  3 43  1  0
  2 44  1  6
  1 45  1  0
  6  2  1  0
 24  8  1  0
 30 25  1  0
 15 11  1  0
M  END
>  <cnnaffinity>  (1) 
-5.70711

>  <filename>  (1) 
O[C@@H]1CCC[C@H]1Cc1nc(C2CCOC2)nn1-c1cccnc1

$$$$
