
     RDKit          3D

 51 54  0  0  0  0  0  0  0  0999 V2000
   11.9334    2.0898   21.9672 O   0  0  0  0  0  0  0  0  0  0  0  0
   10.6573    2.6907   21.7892 C   0  0  2  0  0  0  0  0  0  0  0  0
   10.5681    3.9688   22.6425 C   0  0  0  0  0  0  0  0  0  0  0  0
    9.1683    4.6121   22.7293 C   0  0  0  0  0  0  0  0  0  0  0  0
    8.0683    3.5808   23.0122 C   0  0  0  0  0  0  0  0  0  0  0  0
    8.1358    2.3794   22.0621 C   0  0  0  0  0  0  0  0  0  0  0  0
    9.5184    1.7024   22.0765 C   0  0  1  0  0  0  0  0  0  0  0  0
    9.5684    0.5129   21.0840 C   0  0  0  0  0  0  0  0  0  0  0  0
    8.6085   -0.5505   21.4586 C   0  0  0  0  0  0  0  0  0  0  0  0
    8.8100   -1.3694   22.4723 N   0  0  0  0  0  0  0  0  0  0  0  0
    7.6416   -2.0439   22.5823 C   0  0  0  0  0  0  0  0  0  0  0  0
    7.5271   -3.1117   23.6524 C   0  0  0  0  0  0  0  0  0  0  0  0
    7.1274   -2.5623   25.0469 C   0  0  0  0  0  0  0  0  0  0  0  0
    5.6764   -2.0872   25.0587 C   0  0  0  0  0  0  0  0  0  0  0  0
    4.7919   -3.1075   24.6145 O   0  0  0  0  0  0  0  0  0  0  0  0
    5.0910   -3.7006   23.3539 C   0  0  0  0  0  0  0  0  0  0  0  0
    6.5300   -4.2358   23.3099 C   0  0  0  0  0  0  0  0  0  0  0  0
    6.7566   -4.6817   22.3349 H   0  0  0  0  0  0  0  0  0  0  0  0
    6.6395   -5.0300   24.0634 H   0  0  0  0  0  0  0  0  0  0  0  0
    4.3795   -4.5244   23.2515 H   0  0  0  0  0  0  0  0  0  0  0  0
    4.9436   -2.9747   22.5368 H   0  0  0  0  0  0  0  0  0  0  0  0
    5.5857   -1.1527   24.4843 H   0  0  0  0  0  0  0  0  0  0  0  0
    5.3672   -1.8670   26.0844 H   0  0  0  0  0  0  0  0  0  0  0  0
    7.1995   -3.3862   25.7641 H   0  0  0  0  0  0  0  0  0  0  0  0
    7.8227   -1.7788   25.3740 H   0  0  0  0  0  0  0  0  0  0  0  0
    8.5443   -3.5145   23.7227 H   0  0  0  0  0  0  0  0  0  0  0  0
    6.7141   -1.6620   21.7100 N   0  0  0  0  0  0  0  0  0  0  0  0
    7.3515   -0.7306   20.9538 N   0  0  0  0  0  0  0  0  0  0  0  0
    6.6575   -0.0647   19.9004 C   0  0  0  0  0  0  0  0  0  0  0  0
    5.4497    0.5870   20.1616 C   0  0  0  0  0  0  0  0  0  0  0  0
    4.8327    1.2856   19.1163 C   0  0  0  0  0  0  0  0  0  0  0  0
    5.4290    1.2844   17.8500 C   0  0  0  0  0  0  0  0  0  0  0  0
    6.5636    0.6206   17.5817 N   0  0  0  0  0  0  0  0  0  0  0  0
    7.1554   -0.0409   18.5852 C   0  0  0  0  0  0  0  0  0  0  0  0
    8.0623   -0.5843   18.3243 H   0  0  0  0  0  0  0  0  0  0  0  0
    4.9766    1.8222   17.0192 H   0  0  0  0  0  0  0  0  0  0  0  0
    3.9090    1.8299   19.2728 H   0  0  0  0  0  0  0  0  0  0  0  0
    5.0157    0.5368   21.1609 H   0  0  0  0  0  0  0  0  0  0  0  0
   10.5690    0.0710   21.1025 H   0  0  0  0  0  0  0  0  0  0  0  0
    9.3770    0.8596   20.0662 H   0  0  0  0  0  0  0  0  0  0  0  0
    9.6973    1.3066   23.0904 H   0  0  0  0  0  0  0  0  0  0  0  0
    7.3652    1.6459   22.3348 H   0  0  0  0  0  0  0  0  0  0  0  0
    7.8935    2.6874   21.0346 H   0  0  0  0  0  0  0  0  0  0  0  0
    8.1643    3.2211   24.0456 H   0  0  0  0  0  0  0  0  0  0  0  0
    7.0835    4.0575   22.9253 H   0  0  0  0  0  0  0  0  0  0  0  0
    8.9094    5.1416   21.8049 H   0  0  0  0  0  0  0  0  0  0  0  0
    9.1739    5.3859   23.5076 H   0  0  0  0  0  0  0  0  0  0  0  0
   10.8955    3.6948   23.6569 H   0  0  0  0  0  0  0  0  0  0  0  0
   11.3089    4.6901   22.2761 H   0  0  0  0  0  0  0  0  0  0  0  0
   10.6199    2.8956   20.7155 H   0  0  0  0  0  0  0  0  0  0  0  0
   12.0202    1.9266   22.9159 H   0  0  0  0  0  0  0  0  0  0  0  0
  1  2  1  0
  2  3  1  0
  3  4  1  0
  4  5  1  0
  5  6  1  0
  6  7  1  0
  7  8  1  0
  8  9  1  0
  9 10  2  0
 10 11  1  0
 11 12  1  0
 12 13  1  0
 13 14  1  0
 14 15  1  0
 15 16  1  0
 16 17  1  0
 17 18  1  0
 17 19  1  0
 16 20  1  0
 16 21  1  0
 14 22  1  0
 14 23  1  0
 13 24  1  0
 13 25  1  0
 12 26  1  0
 11 27  2  0
 27 28  1  0
 28 29  1  0
 29 30  2  0
 30 31  1  0
 31 32  2  0
 32 33  1  0
 33 34  2  0
 34 35  1  0
 32 36  1  0
 31 37  1  0
 30 38  1  0
  8 39  1  0
  8 40  1  0
  7 41  1  1
  6 42  1  0
  6 43  1  0
  5 44  1  0
  5 45  1  0
  4 46  1  0
  4 47  1  0
  3 48  1  0
  3 49  1  0
  2 50  1  6
  1 51  1  0
  7  2  1  0
 28  9  1  0
 34 29  1  0
 17 12  1  0
M  END
>  <cnnaffinity>  (1) 
-5.94024

>  <filename>  (1) 
O[C@@H]1CCCC[C@H]1Cc1nc(C2CCOCC2)nn1-c1cccnc1

$$$$
