
     RDKit          3D

 46 49  0  0  0  0  0  0  0  0999 V2000
    7.5184    1.7649   22.6207 O   0  0  0  0  0  0  0  0  0  0  0  0
    8.6155    2.5612   22.2128 C   0  0  1  0  0  0  0  0  0  0  0  0
    8.8837    3.6392   23.2773 C   0  0  0  0  0  0  0  0  0  0  0  0
   10.1375    4.4837   22.9909 C   0  0  0  0  0  0  0  0  0  0  0  0
   11.3491    3.5943   22.6272 C   0  0  0  0  0  0  0  0  0  0  0  0
   11.0553    2.4644   21.6173 C   0  0  0  0  0  0  0  0  0  0  0  0
    9.8264    1.6323   22.0243 C   0  0  2  0  0  0  0  0  0  0  0  0
    9.5769    0.4959   20.9882 C   0  0  0  0  0  0  0  0  0  0  0  0
    8.5989   -0.5527   21.4083 C   0  0  0  0  0  0  0  0  0  0  0  0
    8.8115   -1.4330   22.3588 N   0  0  0  0  0  0  0  0  0  0  0  0
    7.6144   -2.0805   22.4829 C   0  0  0  0  0  0  0  0  0  0  0  0
    7.3922   -3.1415   23.5359 C   0  0  0  0  0  0  0  0  0  0  0  0
    8.4335   -3.4852   24.4314 C   0  0  0  0  0  0  0  0  0  0  0  0
    8.1993   -4.4721   25.3916 C   0  0  0  0  0  0  0  0  0  0  0  0
    6.9408   -5.0786   25.4394 C   0  0  0  0  0  0  0  0  0  0  0  0
    5.9700   -4.6678   24.5212 C   0  0  0  0  0  0  0  0  0  0  0  0
    6.1833   -3.7373   23.5931 N   0  0  0  0  0  0  0  0  0  0  0  0
    4.9695   -5.0987   24.5164 H   0  0  0  0  0  0  0  0  0  0  0  0
    6.6967   -5.8509   26.1606 H   0  0  0  0  0  0  0  0  0  0  0  0
    8.9887   -4.7614   26.0869 H   0  0  0  0  0  0  0  0  0  0  0  0
    9.3872   -2.9715   24.3510 H   0  0  0  0  0  0  0  0  0  0  0  0
    6.6920   -1.6570   21.6290 N   0  0  0  0  0  0  0  0  0  0  0  0
    7.3358   -0.7098   20.9162 N   0  0  0  0  0  0  0  0  0  0  0  0
    6.6633    0.0014   19.8842 C   0  0  0  0  0  0  0  0  0  0  0  0
    5.4529    0.6443   20.1560 C   0  0  0  0  0  0  0  0  0  0  0  0
    4.8117    1.3195   19.1105 C   0  0  0  0  0  0  0  0  0  0  0  0
    5.3952    1.3040   17.8384 C   0  0  0  0  0  0  0  0  0  0  0  0
    6.5436    0.6665   17.5679 N   0  0  0  0  0  0  0  0  0  0  0  0
    7.1639    0.0372   18.5737 C   0  0  0  0  0  0  0  0  0  0  0  0
    8.0968   -0.4651   18.3227 H   0  0  0  0  0  0  0  0  0  0  0  0
    4.9289    1.8180   17.0009 H   0  0  0  0  0  0  0  0  0  0  0  0
    3.8739    1.8450   19.2608 H   0  0  0  0  0  0  0  0  0  0  0  0
    5.0369    0.5788   21.1615 H   0  0  0  0  0  0  0  0  0  0  0  0
   10.5218   -0.0274   20.8068 H   0  0  0  0  0  0  0  0  0  0  0  0
    9.2443    0.9281   20.0416 H   0  0  0  0  0  0  0  0  0  0  0  0
   10.0163    1.1598   23.0057 H   0  0  0  0  0  0  0  0  0  0  0  0
   10.9222    2.8477   20.5921 H   0  0  0  0  0  0  0  0  0  0  0  0
   11.9255    1.7970   21.5662 H   0  0  0  0  0  0  0  0  0  0  0  0
   12.2123    4.1905   22.2992 H   0  0  0  0  0  0  0  0  0  0  0  0
   11.6558    3.1122   23.5640 H   0  0  0  0  0  0  0  0  0  0  0  0
    9.9059    5.2311   22.2243 H   0  0  0  0  0  0  0  0  0  0  0  0
   10.3874    5.0857   23.8750 H   0  0  0  0  0  0  0  0  0  0  0  0
    7.9937    4.2783   23.3762 H   0  0  0  0  0  0  0  0  0  0  0  0
    8.9894    3.1179   24.2384 H   0  0  0  0  0  0  0  0  0  0  0  0
    8.4093    3.0469   21.2369 H   0  0  0  0  0  0  0  0  0  0  0  0
    6.7078    2.2733   22.5235 H   0  0  0  0  0  0  0  0  0  0  0  0
  1  2  1  0
  2  3  1  0
  3  4  1  0
  4  5  1  0
  5  6  1  0
  6  7  1  0
  7  8  1  0
  8  9  1  0
  9 10  2  0
 10 11  1  0
 11 12  1  0
 12 13  2  0
 13 14  1  0
 14 15  2  0
 15 16  1  0
 16 17  2  0
 16 18  1  0
 15 19  1  0
 14 20  1  0
 13 21  1  0
 11 22  2  0
 22 23  1  0
 23 24  1  0
 24 25  2  0
 25 26  1  0
 26 27  2  0
 27 28  1  0
 28 29  2  0
 29 30  1  0
 27 31  1  0
 26 32  1  0
 25 33  1  0
  8 34  1  0
  8 35  1  0
  7 36  1  1
  6 37  1  0
  6 38  1  0
  5 39  1  0
  5 40  1  0
  4 41  1  0
  4 42  1  0
  3 43  1  0
  3 44  1  0
  2 45  1  6
  1 46  1  0
  7  2  1  0
 23  9  1  0
 29 24  1  0
 17 12  1  0
M  END
>  <cnnaffinity>  (1) 
-6.03056

>  <filename>  (1) 
O[C@H]1CCCC[C@@H]1Cc1nc(-c2ccccn2)nn1-c1cccnc1

$$$$
