
     RDKit          3D

 51 54  0  0  0  0  0  0  0  0999 V2000
   11.9423    2.0864   21.9321 O   0  0  0  0  0  0  0  0  0  0  0  0
   10.6617    2.6824   21.7537 C   0  0  2  0  0  0  0  0  0  0  0  0
   10.5644    3.9573   22.6074 C   0  0  0  0  0  0  0  0  0  0  0  0
    9.1716    4.6125   22.6944 C   0  0  0  0  0  0  0  0  0  0  0  0
    8.0643    3.5955   22.9883 C   0  0  0  0  0  0  0  0  0  0  0  0
    8.1346    2.3828   22.0578 C   0  0  0  0  0  0  0  0  0  0  0  0
    9.5165    1.7024   22.0694 C   0  0  1  0  0  0  0  0  0  0  0  0
    9.5569    0.5113   21.0818 C   0  0  0  0  0  0  0  0  0  0  0  0
    8.5982   -0.5689   21.4128 C   0  0  0  0  0  0  0  0  0  0  0  0
    8.7897   -1.4382   22.3837 N   0  0  0  0  0  0  0  0  0  0  0  0
    7.5966   -2.0695   22.4824 C   0  0  0  0  0  0  0  0  0  0  0  0
    7.4359   -3.1448   23.5245 C   0  0  0  0  0  0  0  0  0  0  0  0
    6.0121   -3.2263   24.1111 C   0  0  0  0  0  0  0  0  0  0  0  0
    5.0601   -3.9601   23.1986 C   0  0  0  0  0  0  0  0  0  0  0  0
    5.4587   -4.7215   22.1766 C   0  0  0  0  0  0  0  0  0  0  0  0
    6.9097   -4.9342   21.8123 C   0  0  0  0  0  0  0  0  0  0  0  0
    7.8564   -4.5177   22.9480 C   0  0  0  0  0  0  0  0  0  0  0  0
    7.8211   -5.2647   23.7519 H   0  0  0  0  0  0  0  0  0  0  0  0
    8.8940   -4.4702   22.6012 H   0  0  0  0  0  0  0  0  0  0  0  0
    7.1239   -4.3467   20.9092 H   0  0  0  0  0  0  0  0  0  0  0  0
    7.0784   -5.9819   21.5390 H   0  0  0  0  0  0  0  0  0  0  0  0
    4.7119   -5.1859   21.5366 H   0  0  0  0  0  0  0  0  0  0  0  0
    3.9973   -3.8267   23.3870 H   0  0  0  0  0  0  0  0  0  0  0  0
    5.6251   -2.2242   24.3271 H   0  0  0  0  0  0  0  0  0  0  0  0
    6.0598   -3.7346   25.0866 H   0  0  0  0  0  0  0  0  0  0  0  0
    8.1366   -2.8608   24.3136 H   0  0  0  0  0  0  0  0  0  0  0  0
    6.6872   -1.6790   21.6082 N   0  0  0  0  0  0  0  0  0  0  0  0
    7.3474   -0.7342   20.8857 N   0  0  0  0  0  0  0  0  0  0  0  0
    6.6649   -0.0438   19.8446 C   0  0  0  0  0  0  0  0  0  0  0  0
    5.4558    0.5999   20.1267 C   0  0  0  0  0  0  0  0  0  0  0  0
    4.8257    1.2972   19.0933 C   0  0  0  0  0  0  0  0  0  0  0  0
    5.4082    1.3064   17.8204 C   0  0  0  0  0  0  0  0  0  0  0  0
    6.5437    0.6514   17.5280 N   0  0  0  0  0  0  0  0  0  0  0  0
    7.1521   -0.0115   18.5228 C   0  0  0  0  0  0  0  0  0  0  0  0
    8.0630   -0.5532   18.2616 H   0  0  0  0  0  0  0  0  0  0  0  0
    4.9380    1.8553   17.0072 H   0  0  0  0  0  0  0  0  0  0  0  0
    3.8989    1.8305   19.2688 H   0  0  0  0  0  0  0  0  0  0  0  0
    5.0333    0.5364   21.1308 H   0  0  0  0  0  0  0  0  0  0  0  0
    9.3682    0.8712   20.0693 H   0  0  0  0  0  0  0  0  0  0  0  0
   10.5623    0.0877   21.0974 H   0  0  0  0  0  0  0  0  0  0  0  0
    9.7126    1.3396   23.0951 H   0  0  0  0  0  0  0  0  0  0  0  0
    7.3562    1.6574   22.3344 H   0  0  0  0  0  0  0  0  0  0  0  0
    7.9094    2.7093   21.0335 H   0  0  0  0  0  0  0  0  0  0  0  0
    8.1663    3.2683   24.0297 H   0  0  0  0  0  0  0  0  0  0  0  0
    7.0709    4.0591   22.9130 H   0  0  0  0  0  0  0  0  0  0  0  0
    8.9284    5.1791   21.7885 H   0  0  0  0  0  0  0  0  0  0  0  0
    9.1999    5.3574   23.4953 H   0  0  0  0  0  0  0  0  0  0  0  0
   11.2877    4.6763   22.2103 H   0  0  0  0  0  0  0  0  0  0  0  0
   10.8729    3.6982   23.6346 H   0  0  0  0  0  0  0  0  0  0  0  0
   10.6401    2.8931   20.6771 H   0  0  0  0  0  0  0  0  0  0  0  0
   12.0355    1.9434   22.8855 H   0  0  0  0  0  0  0  0  0  0  0  0
  1  2  1  0
  2  3  1  0
  3  4  1  0
  4  5  1  0
  5  6  1  0
  6  7  1  0
  7  8  1  0
  8  9  1  0
  9 10  2  0
 10 11  1  0
 11 12  1  0
 12 13  1  0
 13 14  1  0
 14 15  2  0
 15 16  1  0
 16 17  1  0
 17 18  1  0
 17 19  1  0
 16 20  1  0
 16 21  1  0
 15 22  1  0
 14 23  1  0
 13 24  1  0
 13 25  1  0
 12 26  1  0
 11 27  2  0
 27 28  1  0
 28 29  1  0
 29 30  2  0
 30 31  1  0
 31 32  2  0
 32 33  1  0
 33 34  2  0
 34 35  1  0
 32 36  1  0
 31 37  1  0
 30 38  1  0
  8 39  1  0
  8 40  1  0
  7 41  1  1
  6 42  1  0
  6 43  1  0
  5 44  1  0
  5 45  1  0
  4 46  1  0
  4 47  1  0
  3 48  1  0
  3 49  1  0
  2 50  1  6
  1 51  1  0
  7  2  1  0
 28  9  1  0
 34 29  1  0
 17 12  1  0
M  END
>  <cnnaffinity>  (1) 
-6.30782

>  <filename>  (1) 
O[C@@H]1CCCC[C@H]1Cc1nc(C2CC=CCC2)nn1-c1cccnc1

$$$$
