
     RDKit          3D

 41 43  0  0  0  0  0  0  0  0999 V2000
    6.6016   -3.4892   20.9016 H   0  0  0  0  0  0  0  0  0  0  0  0
    6.4374   -2.8002   20.2375 O   0  0  0  0  0  0  0  0  0  0  0  0
    6.4920   -1.7474   21.1736 C   0  0  1  0  0  0  0  0  0  0  0  0
    5.4651   -1.4321   21.4343 H   0  0  0  0  0  0  0  0  0  0  0  0
    7.1094   -2.3819   22.3280 N   0  0  0  0  0  0  0  0  0  0  0  0
    6.4946   -2.1580   23.6528 C   0  0  0  0  0  0  0  0  0  0  0  0
    5.7106   -2.9156   23.8118 H   0  0  0  0  0  0  0  0  0  0  0  0
    6.0310   -1.1647   23.7284 H   0  0  0  0  0  0  0  0  0  0  0  0
    7.4895   -2.2401   24.8223 C   0  0  0  0  0  0  0  0  0  0  0  0
    6.9520   -2.2425   25.7695 H   0  0  0  0  0  0  0  0  0  0  0  0
    8.1313   -1.3492   24.8141 H   0  0  0  0  0  0  0  0  0  0  0  0
    8.3377   -3.4300   24.7163 N   0  0  0  0  0  0  0  0  0  0  0  0
    8.3183   -4.4026   25.6807 C   0  0  0  0  0  0  0  0  0  0  0  0
    7.6839   -4.0979   26.8247 N   0  0  0  0  0  0  0  0  0  0  0  0
    7.6522   -5.0231   27.7818 C   0  0  0  0  0  0  0  0  0  0  0  0
    7.1412   -4.7320   28.7004 H   0  0  0  0  0  0  0  0  0  0  0  0
    8.2084   -6.2917   27.6601 C   0  0  0  0  0  0  0  0  0  0  0  0
    8.1412   -6.9938   28.4829 H   0  0  0  0  0  0  0  0  0  0  0  0
    8.8706   -6.6088   26.4647 C   0  0  0  0  0  0  0  0  0  0  0  0
    9.3572   -7.5753   26.3196 H   0  0  0  0  0  0  0  0  0  0  0  0
    8.9468   -5.6525   25.4680 C   0  0  0  0  0  0  0  0  0  0  0  0
    9.4934   -5.8198   24.5501 H   0  0  0  0  0  0  0  0  0  0  0  0
    8.9389   -3.6704   23.3904 C   0  0  0  0  0  0  0  0  0  0  0  0
    8.5843   -4.6305   22.9911 H   0  0  0  0  0  0  0  0  0  0  0  0
   10.0335   -3.7275   23.4773 H   0  0  0  0  0  0  0  0  0  0  0  0
    8.5743   -2.5800   22.3577 C   0  0  0  0  0  0  0  0  0  0  0  0
    9.1337   -1.6582   22.6046 H   0  0  0  0  0  0  0  0  0  0  0  0
    8.9289   -2.9067   21.3725 H   0  0  0  0  0  0  0  0  0  0  0  0
    7.2275   -0.5021   20.6655 C   0  0  0  0  0  0  0  0  0  0  0  0
    7.3084    0.1452   21.5493 H   0  0  0  0  0  0  0  0  0  0  0  0
    8.2413   -0.7883   20.3691 H   0  0  0  0  0  0  0  0  0  0  0  0
    6.5468    0.2600   19.5485 C   0  0  0  0  0  0  0  0  0  0  0  0
    7.0941    0.3261   18.2548 C   0  0  0  0  0  0  0  0  0  0  0  0
    8.0298   -0.1971   18.0432 H   0  0  0  0  0  0  0  0  0  0  0  0
    6.5484    0.9974   17.2317 N   0  0  0  0  0  0  0  0  0  0  0  0
    5.4068    1.6599   17.4778 C   0  0  0  0  0  0  0  0  0  0  0  0
    4.9846    2.2108   16.6395 H   0  0  0  0  0  0  0  0  0  0  0  0
    4.7645    1.6568   18.7207 C   0  0  0  0  0  0  0  0  0  0  0  0
    3.8518    2.2290   18.8533 H   0  0  0  0  0  0  0  0  0  0  0  0
    5.3413    0.9424   19.7727 C   0  0  0  0  0  0  0  0  0  0  0  0
    4.8754    0.9231   20.7622 H   0  0  0  0  0  0  0  0  0  0  0  0
  1  2  1  0
  2  3  1  0
  3  4  1  1
  3  5  1  0
  5  6  1  0
  6  7  1  0
  6  8  1  0
  6  9  1  0
  9 10  1  0
  9 11  1  0
  9 12  1  0
 12 13  1  0
 13 14  2  0
 14 15  1  0
 15 16  1  0
 15 17  2  0
 17 18  1  0
 17 19  1  0
 19 20  1  0
 19 21  2  0
 21 22  1  0
 12 23  1  0
 23 24  1  0
 23 25  1  0
 23 26  1  0
 26 27  1  0
 26 28  1  0
  3 29  1  0
 29 30  1  0
 29 31  1  0
 29 32  1  0
 32 33  2  0
 33 34  1  0
 33 35  1  0
 35 36  2  0
 36 37  1  0
 36 38  1  0
 38 39  1  0
 38 40  2  0
 40 41  1  0
 26  5  1  0
 40 32  1  0
 21 13  1  0
M  END
>  <cnnaffinity>  (1) 
-4.69377

>  <filename>  (1) 
O[C@H](Cc1cccnc1)N1CCN(c2ccccn2)CC1

$$$$
