
     RDKit          3D

 29 30  0  0  0  0  0  0  0  0999 V2000
    9.2240    0.4730   21.0515 H   0  0  0  0  0  0  0  0  0  0  0  0
    9.6594   -0.2801   20.6199 O   0  0  0  0  0  0  0  0  0  0  0  0
    8.6755   -1.2456   20.9018 C   0  0  2  0  0  0  0  0  0  0  0  0
    8.6059   -1.9560   20.0639 H   0  0  0  0  0  0  0  0  0  0  0  0
    7.4523   -0.5148   21.0536 N   0  0  0  0  0  0  0  0  0  0  0  0
    6.8941   -0.7141   21.8730 H   0  0  0  0  0  0  0  0  0  0  0  0
    6.7429    0.0209   19.9638 C   0  0  0  0  0  0  0  0  0  0  0  0
    7.2201    0.0542   18.6203 C   0  0  0  0  0  0  0  0  0  0  0  0
    8.1731   -0.4113   18.3691 H   0  0  0  0  0  0  0  0  0  0  0  0
    6.5824    0.6427   17.5964 N   0  0  0  0  0  0  0  0  0  0  0  0
    5.4202    1.2602   17.8588 C   0  0  0  0  0  0  0  0  0  0  0  0
    4.9472    1.7773   17.0261 H   0  0  0  0  0  0  0  0  0  0  0  0
    4.8314    1.2663   19.1307 C   0  0  0  0  0  0  0  0  0  0  0  0
    3.8919    1.7991   19.2860 H   0  0  0  0  0  0  0  0  0  0  0  0
    5.4897    0.6254   20.1874 C   0  0  0  0  0  0  0  0  0  0  0  0
    5.0516    0.6182   21.1863 H   0  0  0  0  0  0  0  0  0  0  0  0
    9.0402   -1.9896   22.1671 C   0  0  0  0  0  0  0  0  0  0  0  0
    8.2611   -2.7101   22.4251 H   0  0  0  0  0  0  0  0  0  0  0  0
    9.9753   -2.5225   21.9727 H   0  0  0  0  0  0  0  0  0  0  0  0
    9.2110   -1.0312   23.2911 C   0  0  0  0  0  0  0  0  0  0  0  0
    8.1135   -0.7892   24.0242 N   0  0  0  0  0  0  0  0  0  0  0  0
    8.2540   -0.0227   25.1173 C   0  0  0  0  0  0  0  0  0  0  0  0
    7.3710    0.0974   25.7395 H   0  0  0  0  0  0  0  0  0  0  0  0
    9.4539    0.6012   25.4711 C   0  0  0  0  0  0  0  0  0  0  0  0
    9.4851    1.2297   26.3578 H   0  0  0  0  0  0  0  0  0  0  0  0
   10.5813    0.4005   24.6634 C   0  0  0  0  0  0  0  0  0  0  0  0
   11.5315    0.8767   24.8954 H   0  0  0  0  0  0  0  0  0  0  0  0
   10.4538   -0.4297   23.5482 C   0  0  0  0  0  0  0  0  0  0  0  0
   11.2705   -0.6288   22.8562 H   0  0  0  0  0  0  0  0  0  0  0  0
  1  2  1  0
  2  3  1  0
  3  4  1  6
  3  5  1  0
  5  6  1  0
  5  7  1  0
  7  8  2  0
  8  9  1  0
  8 10  1  0
 10 11  2  0
 11 12  1  0
 11 13  1  0
 13 14  1  0
 13 15  2  0
 15 16  1  0
  3 17  1  0
 17 18  1  0
 17 19  1  0
 17 20  1  0
 20 21  2  0
 21 22  1  0
 22 23  1  0
 22 24  2  0
 24 25  1  0
 24 26  1  0
 26 27  1  0
 26 28  2  0
 28 29  1  0
 15  7  1  0
 28 20  1  0
M  END
>  <cnnaffinity>  (1) 
-4.58893

>  <filename>  (1) 
O[C@@H](Cc1ccccn1)Nc1cccnc1

$$$$
