
     RDKit          3D

 51 54  0  0  0  0  0  0  0  0999 V2000
   10.5663    2.8566   21.6288 O   0  0  0  0  0  0  0  0  0  0  0  0
   11.5355    1.8321   21.4217 C   0  0  1  0  0  0  0  0  0  0  0  0
   12.7344    2.1000   22.3538 C   0  0  0  0  0  0  0  0  0  0  0  0
   13.6618    0.8959   22.5820 C   0  0  0  0  0  0  0  0  0  0  0  0
   12.8660   -0.3741   22.8921 C   0  0  0  0  0  0  0  0  0  0  0  0
   11.7803   -0.6953   21.8577 C   0  0  0  0  0  0  0  0  0  0  0  0
   10.8184    0.5015   21.7345 C   0  0  2  0  0  0  0  0  0  0  0  0
    9.6400    0.2154   20.7716 C   0  0  0  0  0  0  0  0  0  0  0  0
    8.5816   -0.6312   21.3903 C   0  0  0  0  0  0  0  0  0  0  0  0
    8.7435   -1.4162   22.4371 N   0  0  0  0  0  0  0  0  0  0  0  0
    7.5338   -1.9919   22.5909 C   0  0  0  0  0  0  0  0  0  0  0  0
    7.2845   -2.9492   23.7129 C   0  0  0  0  0  0  0  0  0  0  0  0
    6.4887   -2.2794   24.8669 C   0  0  0  0  0  0  0  0  0  0  0  0
    5.9912   -3.2802   25.8823 C   0  0  0  0  0  0  0  0  0  0  0  0
    6.0007   -4.5993   25.6879 C   0  0  0  0  0  0  0  0  0  0  0  0
    6.4895   -5.2531   24.4124 C   0  0  0  0  0  0  0  0  0  0  0  0
    6.6222   -4.2614   23.2418 C   0  0  0  0  0  0  0  0  0  0  0  0
    7.2241   -4.7126   22.4434 H   0  0  0  0  0  0  0  0  0  0  0  0
    5.6391   -4.0334   22.8064 H   0  0  0  0  0  0  0  0  0  0  0  0
    5.8208   -6.0750   24.1277 H   0  0  0  0  0  0  0  0  0  0  0  0
    7.4626   -5.7267   24.6167 H   0  0  0  0  0  0  0  0  0  0  0  0
    5.6598   -5.2664   26.4823 H   0  0  0  0  0  0  0  0  0  0  0  0
    5.5908   -2.8672   26.8104 H   0  0  0  0  0  0  0  0  0  0  0  0
    7.1270   -1.5341   25.3612 H   0  0  0  0  0  0  0  0  0  0  0  0
    5.6317   -1.7159   24.4723 H   0  0  0  0  0  0  0  0  0  0  0  0
    8.2836   -3.1916   24.0958 H   0  0  0  0  0  0  0  0  0  0  0  0
    6.6242   -1.6156   21.7143 N   0  0  0  0  0  0  0  0  0  0  0  0
    7.3040   -0.7478   20.9199 N   0  0  0  0  0  0  0  0  0  0  0  0
    6.6259   -0.0531   19.8757 C   0  0  0  0  0  0  0  0  0  0  0  0
    5.4188    0.6086   20.1329 C   0  0  0  0  0  0  0  0  0  0  0  0
    4.8131    1.3091   19.0877 C   0  0  0  0  0  0  0  0  0  0  0  0
    5.4182    1.3104   17.8244 C   0  0  0  0  0  0  0  0  0  0  0  0
    6.5610    0.6576   17.5629 N   0  0  0  0  0  0  0  0  0  0  0  0
    7.1410   -0.0066   18.5680 C   0  0  0  0  0  0  0  0  0  0  0  0
    8.0610   -0.5371   18.3266 H   0  0  0  0  0  0  0  0  0  0  0  0
    4.9644    1.8395   16.9899 H   0  0  0  0  0  0  0  0  0  0  0  0
    3.8881    1.8551   19.2383 H   0  0  0  0  0  0  0  0  0  0  0  0
    4.9815    0.5667   21.1310 H   0  0  0  0  0  0  0  0  0  0  0  0
    9.1891    1.1565   20.4394 H   0  0  0  0  0  0  0  0  0  0  0  0
    9.9635   -0.3271   19.8742 H   0  0  0  0  0  0  0  0  0  0  0  0
   10.3996    0.6690   22.7409 H   0  0  0  0  0  0  0  0  0  0  0  0
   12.2287   -0.9517   20.8823 H   0  0  0  0  0  0  0  0  0  0  0  0
   11.2164   -1.5860   22.1735 H   0  0  0  0  0  0  0  0  0  0  0  0
   12.3826   -0.2530   23.8775 H   0  0  0  0  0  0  0  0  0  0  0  0
   13.5725   -1.2047   22.9315 H   0  0  0  0  0  0  0  0  0  0  0  0
   14.3330    1.1174   23.4231 H   0  0  0  0  0  0  0  0  0  0  0  0
   14.3118    0.6718   21.7259 H   0  0  0  0  0  0  0  0  0  0  0  0
   12.2932    2.4021   23.3146 H   0  0  0  0  0  0  0  0  0  0  0  0
   13.2953    2.9687   21.9854 H   0  0  0  0  0  0  0  0  0  0  0  0
   11.8513    1.8441   20.3691 H   0  0  0  0  0  0  0  0  0  0  0  0
   10.7666    3.6024   21.0439 H   0  0  0  0  0  0  0  0  0  0  0  0
  1  2  1  0
  2  3  1  0
  3  4  1  0
  4  5  1  0
  5  6  1  0
  6  7  1  0
  7  8  1  0
  8  9  1  0
  9 10  2  0
 10 11  1  0
 11 12  1  0
 12 13  1  0
 13 14  1  0
 14 15  2  0
 15 16  1  0
 16 17  1  0
 17 18  1  0
 17 19  1  0
 16 20  1  0
 16 21  1  0
 15 22  1  0
 14 23  1  0
 13 24  1  0
 13 25  1  0
 12 26  1  0
 11 27  2  0
 27 28  1  0
 28 29  1  0
 29 30  2  0
 30 31  1  0
 31 32  2  0
 32 33  1  0
 33 34  2  0
 34 35  1  0
 32 36  1  0
 31 37  1  0
 30 38  1  0
  8 39  1  0
  8 40  1  0
  7 41  1  1
  6 42  1  0
  6 43  1  0
  5 44  1  0
  5 45  1  0
  4 46  1  0
  4 47  1  0
  3 48  1  0
  3 49  1  0
  2 50  1  6
  1 51  1  0
  7  2  1  0
 28  9  1  0
 34 29  1  0
 17 12  1  0
M  END
>  <cnnaffinity>  (1) 
-6.7324

>  <filename>  (1) 
O[C@H]1CCCC[C@@H]1Cc1nc(C2CC=CCC2)nn1-c1cccnc1

$$$$
