
     RDKit          3D

 48 51  0  0  0  0  0  0  0  0999 V2000
    9.3549    1.4745   20.9686 H   0  0  0  0  0  0  0  0  0  0  0  0
    9.5456    0.6207   21.3599 O   0  0  0  0  0  0  0  0  0  0  0  0
    8.3435    0.3462   22.0437 C   0  0  1  0  0  0  0  0  0  0  0  0
    8.6094   -0.3021   22.8931 H   0  0  0  0  0  0  0  0  0  0  0  0
    7.7712    1.5788   22.5464 N   0  0  0  0  0  0  0  0  0  0  0  0
    7.9820    1.9357   23.9514 C   0  0  0  0  0  0  0  0  0  0  0  0
    8.9719    2.4053   24.0975 H   0  0  0  0  0  0  0  0  0  0  0  0
    7.9413    1.0375   24.5805 H   0  0  0  0  0  0  0  0  0  0  0  0
    6.8812    2.9121   24.4170 C   0  0  0  0  0  0  0  0  0  0  0  0
    6.9938    3.1367   25.4795 H   0  0  0  0  0  0  0  0  0  0  0  0
    5.9074    2.4119   24.2793 H   0  0  0  0  0  0  0  0  0  0  0  0
    6.9229    4.1413   23.6127 N   0  0  0  0  0  0  0  0  0  0  0  0
    6.6156    5.3885   24.1331 C   0  0  0  0  0  0  0  0  0  0  0  0
    5.9060    5.4416   25.2671 N   0  0  0  0  0  0  0  0  0  0  0  0
    5.5783    6.6526   25.7308 C   0  0  0  0  0  0  0  0  0  0  0  0
    4.9666    6.6706   26.6319 H   0  0  0  0  0  0  0  0  0  0  0  0
    5.9780    7.8511   25.1437 C   0  0  0  0  0  0  0  0  0  0  0  0
    5.6714    8.7922   25.5816 H   0  0  0  0  0  0  0  0  0  0  0  0
    6.7743    7.7910   23.9949 C   0  0  0  0  0  0  0  0  0  0  0  0
    7.1203    8.7024   23.5078 H   0  0  0  0  0  0  0  0  0  0  0  0
    7.0949    6.5439   23.4760 C   0  0  0  0  0  0  0  0  0  0  0  0
    7.7225    6.4091   22.6053 H   0  0  0  0  0  0  0  0  0  0  0  0
    6.7308    3.8158   22.1889 C   0  0  0  0  0  0  0  0  0  0  0  0
    5.7302    3.3777   22.0287 H   0  0  0  0  0  0  0  0  0  0  0  0
    6.7938    4.7119   21.5614 H   0  0  0  0  0  0  0  0  0  0  0  0
    7.7762    2.7901   21.7090 C   0  0  0  0  0  0  0  0  0  0  0  0
    8.7609    3.2871   21.7244 H   0  0  0  0  0  0  0  0  0  0  0  0
    7.5538    2.5243   20.6759 H   0  0  0  0  0  0  0  0  0  0  0  0
    7.3307   -0.4626   21.1657 C   0  0  0  0  0  0  0  0  0  0  0  0
    6.6483    0.3222   20.0323 C   0  0  0  0  0  0  0  0  0  0  0  0
    7.2209    0.3672   18.7423 C   0  0  0  0  0  0  0  0  0  0  0  0
    8.2193   -0.0431   18.5789 H   0  0  0  0  0  0  0  0  0  0  0  0
    6.6245    0.8656   17.6487 N   0  0  0  0  0  0  0  0  0  0  0  0
    5.4131    1.4171   17.8174 C   0  0  0  0  0  0  0  0  0  0  0  0
    4.9367    1.8191   16.9261 H   0  0  0  0  0  0  0  0  0  0  0  0
    4.7746    1.5021   19.0590 C   0  0  0  0  0  0  0  0  0  0  0  0
    3.8185    2.0089   19.1363 H   0  0  0  0  0  0  0  0  0  0  0  0
    5.3992    0.9513   20.1831 C   0  0  0  0  0  0  0  0  0  0  0  0
    4.9238    1.0008   21.1650 H   0  0  0  0  0  0  0  0  0  0  0  0
    7.9193   -1.8288   20.6889 C   0  0  0  0  0  0  0  0  0  0  0  0
    7.3538   -2.1266   19.8030 H   0  0  0  0  0  0  0  0  0  0  0  0
    8.9985   -1.9014   20.4935 H   0  0  0  0  0  0  0  0  0  0  0  0
    7.3068   -2.5454   21.9067 C   0  0  0  0  0  0  0  0  0  0  0  0
    8.0101   -2.6844   22.7340 H   0  0  0  0  0  0  0  0  0  0  0  0
    6.8046   -3.4975   21.6967 H   0  0  0  0  0  0  0  0  0  0  0  0
    6.3897   -1.3148   22.0814 C   0  0  0  0  0  0  0  0  0  0  0  0
    5.4429   -1.4921   21.5658 H   0  0  0  0  0  0  0  0  0  0  0  0
    6.2262   -0.9561   23.1072 H   0  0  0  0  0  0  0  0  0  0  0  0
  1  2  1  0
  2  3  1  0
  3  4  1  1
  3  5  1  0
  5  6  1  0
  6  7  1  0
  6  8  1  0
  6  9  1  0
  9 10  1  0
  9 11  1  0
  9 12  1  0
 12 13  1  0
 13 14  2  0
 14 15  1  0
 15 16  1  0
 15 17  2  0
 17 18  1  0
 17 19  1  0
 19 20  1  0
 19 21  2  0
 21 22  1  0
 12 23  1  0
 23 24  1  0
 23 25  1  0
 23 26  1  0
 26 27  1  0
 26 28  1  0
  3 29  1  0
 29 30  1  0
 30 31  2  0
 31 32  1  0
 31 33  1  0
 33 34  2  0
 34 35  1  0
 34 36  1  0
 36 37  1  0
 36 38  2  0
 38 39  1  0
 29 40  1  0
 40 41  1  0
 40 42  1  0
 40 43  1  0
 43 44  1  0
 43 45  1  0
 43 46  1  0
 46 47  1  0
 46 48  1  0
 26  5  1  0
 46 29  1  0
 21 13  1  0
 38 30  1  0
M  END
>  <cnnaffinity>  (1) 
-4.64412

>  <filename>  (1) 
O[C@@H](N1CCN(c2ccccn2)CC1)C1(c2cccnc2)CCC1

$$$$
