
     RDKit          3D

 48 51  0  0  0  0  0  0  0  0999 V2000
   10.9309    0.3496   21.1889 O   0  0  0  0  0  0  0  0  0  0  0  0
    9.5534    0.6331   21.0182 C   0  0  0  0  0  0  0  0  0  0  0  0
    9.2020    1.9651   21.7498 C   0  0  0  0  0  0  0  0  0  0  0  0
    9.3574    1.8143   23.2506 C   0  0  0  0  0  0  0  0  0  0  0  0
   10.6627    1.7775   23.7814 C   0  0  0  0  0  0  0  0  0  0  0  0
   10.9100    1.3449   25.0856 C   0  0  0  0  0  0  0  0  0  0  0  0
    9.8499    0.9662   25.9106 C   0  0  0  0  0  0  0  0  0  0  0  0
    8.5377    1.0956   25.4484 C   0  0  0  0  0  0  0  0  0  0  0  0
    8.2985    1.5007   24.1282 C   0  0  0  0  0  0  0  0  0  0  0  0
    6.6345    1.5428   23.5865 Cl  0  0  0  0  0  0  0  0  0  0  0  0
    7.6888    0.8889   26.0973 H   0  0  0  0  0  0  0  0  0  0  0  0
   10.0552    0.5467   26.8899 H   0  0  0  0  0  0  0  0  0  0  0  0
   11.9260    1.2802   25.4498 H   0  0  0  0  0  0  0  0  0  0  0  0
   11.4940    2.0515   23.1324 H   0  0  0  0  0  0  0  0  0  0  0  0
    8.2023    2.3093   21.4643 H   0  0  0  0  0  0  0  0  0  0  0  0
    9.9115    2.7105   21.3763 H   0  0  0  0  0  0  0  0  0  0  0  0
    8.6419   -0.5163   21.4153 C   0  0  0  0  0  0  0  0  0  0  0  0
    8.8541   -1.4247   22.3616 N   0  0  0  0  0  0  0  0  0  0  0  0
    7.6497   -2.0367   22.4889 C   0  0  0  0  0  0  0  0  0  0  0  0
    7.3720   -3.0218   23.5952 C   0  0  0  0  0  0  0  0  0  0  0  0
    6.5429   -4.2431   23.1412 C   0  0  0  0  0  0  0  0  0  0  0  0
    6.2588   -5.2102   24.3152 C   0  0  0  0  0  0  0  0  0  0  0  0
    6.5053   -4.6525   25.5940 O   0  0  0  0  0  0  0  0  0  0  0  0
    5.9877   -3.3492   25.7503 C   0  0  0  0  0  0  0  0  0  0  0  0
    6.6854   -2.3337   24.8181 C   0  0  0  0  0  0  0  0  0  0  0  0
    5.9373   -1.6016   24.4889 H   0  0  0  0  0  0  0  0  0  0  0  0
    7.4496   -1.7781   25.3745 H   0  0  0  0  0  0  0  0  0  0  0  0
    6.1334   -3.0912   26.8024 H   0  0  0  0  0  0  0  0  0  0  0  0
    4.8994   -3.3463   25.5687 H   0  0  0  0  0  0  0  0  0  0  0  0
    6.9145   -6.0814   24.2650 H   0  0  0  0  0  0  0  0  0  0  0  0
    5.2197   -5.5774   24.2610 H   0  0  0  0  0  0  0  0  0  0  0  0
    5.5953   -3.8924   22.7156 H   0  0  0  0  0  0  0  0  0  0  0  0
    7.0634   -4.7898   22.3471 H   0  0  0  0  0  0  0  0  0  0  0  0
    8.3573   -3.3696   23.9199 H   0  0  0  0  0  0  0  0  0  0  0  0
    6.7295   -1.6156   21.6396 N   0  0  0  0  0  0  0  0  0  0  0  0
    7.3758   -0.6605   20.9251 N   0  0  0  0  0  0  0  0  0  0  0  0
    6.6795    0.0141   19.8772 C   0  0  0  0  0  0  0  0  0  0  0  0
    5.4591    0.6423   20.1502 C   0  0  0  0  0  0  0  0  0  0  0  0
    4.8199    1.3092   19.1009 C   0  0  0  0  0  0  0  0  0  0  0  0
    5.4041    1.2975   17.8295 C   0  0  0  0  0  0  0  0  0  0  0  0
    6.5505    0.6557   17.5508 N   0  0  0  0  0  0  0  0  0  0  0  0
    7.1706    0.0306   18.5599 C   0  0  0  0  0  0  0  0  0  0  0  0
    8.0971   -0.4944   18.3176 H   0  0  0  0  0  0  0  0  0  0  0  0
    4.9303    1.8196   17.0019 H   0  0  0  0  0  0  0  0  0  0  0  0
    3.8852    1.8365   19.2633 H   0  0  0  0  0  0  0  0  0  0  0  0
    5.0397    0.6003   21.1570 H   0  0  0  0  0  0  0  0  0  0  0  0
    9.4183    0.8057   19.9506 H   0  0  0  0  0  0  0  0  0  0  0  0
   11.0222   -0.2422   21.9589 H   0  0  0  0  0  0  0  0  0  0  0  0
  1  2  1  0
  2  3  1  0
  3  4  1  0
  4  5  2  0
  5  6  1  0
  6  7  2  0
  7  8  1  0
  8  9  2  0
  9 10  1  0
  8 11  1  0
  7 12  1  0
  6 13  1  0
  5 14  1  0
  3 15  1  0
  3 16  1  0
  2 17  1  0
 17 18  2  0
 18 19  1  0
 19 20  1  0
 20 21  1  0
 21 22  1  0
 22 23  1  0
 23 24  1  0
 24 25  1  0
 25 26  1  0
 25 27  1  0
 24 28  1  0
 24 29  1  0
 22 30  1  0
 22 31  1  0
 21 32  1  0
 21 33  1  0
 20 34  1  0
 19 35  2  0
 35 36  1  0
 36 37  1  0
 37 38  2  0
 38 39  1  0
 39 40  2  0
 40 41  1  0
 41 42  2  0
 42 43  1  0
 40 44  1  0
 39 45  1  0
 38 46  1  0
  2 47  1  0
  1 48  1  0
  9  4  1  0
 36 17  1  0
 42 37  1  0
 25 20  1  0
M  END
>  <cnnaffinity>  (1) 
-5.89242

>  <filename>  (1) 
OC(Cc1ccccc1Cl)c1nc(C2CCOCC2)nn1-c1cccnc1

$$$$
