
     RDKit          3D

 44 47  0  0  0  0  0  0  0  0999 V2000
    9.0063    1.6095   20.6821 O   0  0  0  0  0  0  0  0  0  0  0  0
    8.6887    1.1754   21.9936 C   0  0  0  0  0  0  0  0  0  0  0  0
    7.7641    2.2054   22.7081 C   0  0  0  0  0  0  0  0  0  0  0  0
    8.4231    3.5606   22.9109 C   0  0  0  0  0  0  0  0  0  0  0  0
    8.0273    4.6788   22.1575 C   0  0  0  0  0  0  0  0  0  0  0  0
    8.6839    5.9080   22.2575 C   0  0  0  0  0  0  0  0  0  0  0  0
    9.7813    6.0392   23.1098 C   0  0  0  0  0  0  0  0  0  0  0  0
   10.1714    4.9661   23.9146 C   0  0  0  0  0  0  0  0  0  0  0  0
    9.4720    3.7598   23.8289 C   0  0  0  0  0  0  0  0  0  0  0  0
    9.9193    2.4790   24.9262 Cl  0  0  0  0  0  0  0  0  0  0  0  0
   10.9813    5.0608   24.6332 H   0  0  0  0  0  0  0  0  0  0  0  0
   10.3315    6.9731   23.1503 H   0  0  0  0  0  0  0  0  0  0  0  0
    8.3254    6.7536   21.6779 H   0  0  0  0  0  0  0  0  0  0  0  0
    7.2010    4.5815   21.4597 H   0  0  0  0  0  0  0  0  0  0  0  0
    7.4442    1.7944   23.6710 H   0  0  0  0  0  0  0  0  0  0  0  0
    6.8537    2.3173   22.1079 H   0  0  0  0  0  0  0  0  0  0  0  0
    8.1522   -0.2443   21.9958 C   0  0  0  0  0  0  0  0  0  0  0  0
    8.3893   -1.1906   22.8828 N   0  0  0  0  0  0  0  0  0  0  0  0
    7.7031   -2.2590   22.3896 C   0  0  0  0  0  0  0  0  0  0  0  0
    7.6890   -3.5967   23.0608 C   0  0  0  0  0  0  0  0  0  0  0  0
    9.0779   -4.2930   23.2296 C   0  0  0  0  0  0  0  0  0  0  0  0
    8.9833   -4.1310   24.7613 C   0  0  0  0  0  0  0  0  0  0  0  0
    7.5521   -3.5670   24.6152 C   0  0  0  0  0  0  0  0  0  0  0  0
    6.7542   -4.2054   25.0060 H   0  0  0  0  0  0  0  0  0  0  0  0
    7.4176   -2.5681   25.0364 H   0  0  0  0  0  0  0  0  0  0  0  0
    9.7040   -3.4129   25.1719 H   0  0  0  0  0  0  0  0  0  0  0  0
    9.0746   -5.0526   25.3414 H   0  0  0  0  0  0  0  0  0  0  0  0
    9.0965   -5.3278   22.8739 H   0  0  0  0  0  0  0  0  0  0  0  0
    9.9112   -3.7563   22.7708 H   0  0  0  0  0  0  0  0  0  0  0  0
    6.9446   -4.2142   22.5460 H   0  0  0  0  0  0  0  0  0  0  0  0
    7.0507   -2.0221   21.2711 N   0  0  0  0  0  0  0  0  0  0  0  0
    7.3239   -0.7173   21.0259 N   0  0  0  0  0  0  0  0  0  0  0  0
    6.6798   -0.0177   19.9619 C   0  0  0  0  0  0  0  0  0  0  0  0
    5.4600    0.6318   20.1787 C   0  0  0  0  0  0  0  0  0  0  0  0
    4.8653    1.2937   19.0999 C   0  0  0  0  0  0  0  0  0  0  0  0
    5.5208    1.2783   17.8633 C   0  0  0  0  0  0  0  0  0  0  0  0
    6.6971    0.6635   17.6546 N   0  0  0  0  0  0  0  0  0  0  0  0
    7.2606    0.0204   18.6877 C   0  0  0  0  0  0  0  0  0  0  0  0
    8.2246   -0.4559   18.5074 H   0  0  0  0  0  0  0  0  0  0  0  0
    5.0820    1.7838   17.0080 H   0  0  0  0  0  0  0  0  0  0  0  0
    3.9192    1.8137   19.2160 H   0  0  0  0  0  0  0  0  0  0  0  0
    4.9838    0.5960   21.1612 H   0  0  0  0  0  0  0  0  0  0  0  0
    9.6312    1.1226   22.5499 H   0  0  0  0  0  0  0  0  0  0  0  0
    8.2305    2.0553   20.3093 H   0  0  0  0  0  0  0  0  0  0  0  0
  1  2  1  0
  2  3  1  0
  3  4  1  0
  4  5  2  0
  5  6  1  0
  6  7  2  0
  7  8  1  0
  8  9  2  0
  9 10  1  0
  8 11  1  0
  7 12  1  0
  6 13  1  0
  5 14  1  0
  3 15  1  0
  3 16  1  0
  2 17  1  0
 17 18  2  0
 18 19  1  0
 19 20  1  0
 20 21  1  0
 21 22  1  0
 22 23  1  0
 23 24  1  0
 23 25  1  0
 22 26  1  0
 22 27  1  0
 21 28  1  0
 21 29  1  0
 20 30  1  0
 19 31  2  0
 31 32  1  0
 32 33  1  0
 33 34  2  0
 34 35  1  0
 35 36  2  0
 36 37  1  0
 37 38  2  0
 38 39  1  0
 36 40  1  0
 35 41  1  0
 34 42  1  0
  2 43  1  0
  1 44  1  0
  9  4  1  0
 32 17  1  0
 38 33  1  0
 23 20  1  0
M  END
>  <cnnaffinity>  (1) 
-6.24906

>  <filename>  (1) 
OC(Cc1ccccc1Cl)c1nc(C2CCC2)nn1-c1cccnc1

$$$$
