
     RDKit          3D

 52 55  0  0  0  0  0  0  0  0999 V2000
    9.1120    1.5374   20.6464 O   0  0  0  0  0  0  0  0  0  0  0  0
    8.8305    1.1108   21.9645 C   0  0  0  0  0  0  0  0  0  0  0  0
    7.9243    2.1761   22.6250 C   0  0  0  0  0  0  0  0  0  0  0  0
    8.6261    3.5167   22.6588 C   0  0  0  0  0  0  0  0  0  0  0  0
    8.1568    4.6434   21.9679 C   0  0  0  0  0  0  0  0  0  0  0  0
    8.8306    5.8629   22.1092 C   0  0  0  0  0  0  0  0  0  0  0  0
    9.9423    5.8979   22.9507 C   0  0  0  0  0  0  0  0  0  0  0  0
   10.3423    4.7261   23.5949 C   0  0  0  0  0  0  0  0  0  0  0  0
    9.7130    3.5566   23.4467 N   0  0  0  0  0  0  0  0  0  0  0  0
   11.1975    4.7252   24.2758 H   0  0  0  0  0  0  0  0  0  0  0  0
   10.4921    6.8093   23.1425 H   0  0  0  0  0  0  0  0  0  0  0  0
    8.5141    6.7519   21.5567 H   0  0  0  0  0  0  0  0  0  0  0  0
    7.2805    4.5591   21.3322 H   0  0  0  0  0  0  0  0  0  0  0  0
    6.9750    2.2464   22.0732 H   0  0  0  0  0  0  0  0  0  0  0  0
    7.7150    1.8999   23.6626 H   0  0  0  0  0  0  0  0  0  0  0  0
    8.2933   -0.2967   21.9678 C   0  0  0  0  0  0  0  0  0  0  0  0
    8.6225   -1.2858   22.7823 N   0  0  0  0  0  0  0  0  0  0  0  0
    7.8333   -2.3060   22.3637 C   0  0  0  0  0  0  0  0  0  0  0  0
    7.7904   -3.6104   23.0970 C   0  0  0  0  0  0  0  0  0  0  0  0
    6.8540   -3.5910   24.3394 C   0  0  0  0  0  0  0  0  0  0  0  0
    5.3886   -3.4278   23.8929 C   0  0  0  0  0  0  0  0  0  0  0  0
    4.3926   -3.2511   25.0513 C   0  0  0  0  0  0  0  0  0  0  0  0
    4.8410   -2.1961   26.0767 C   0  0  0  0  0  0  0  0  0  0  0  0
    6.2788   -2.4478   26.5575 C   0  0  0  0  0  0  0  0  0  0  0  0
    7.2412   -2.4982   25.3613 C   0  0  0  0  0  0  0  0  0  0  0  0
    7.2246   -1.5145   24.8714 H   0  0  0  0  0  0  0  0  0  0  0  0
    8.2760   -2.6539   25.6913 H   0  0  0  0  0  0  0  0  0  0  0  0
    6.3249   -3.3949   27.1174 H   0  0  0  0  0  0  0  0  0  0  0  0
    6.5892   -1.6604   27.2566 H   0  0  0  0  0  0  0  0  0  0  0  0
    4.7896   -1.1956   25.6192 H   0  0  0  0  0  0  0  0  0  0  0  0
    4.1491   -2.1752   26.9283 H   0  0  0  0  0  0  0  0  0  0  0  0
    3.4062   -2.9827   24.6511 H   0  0  0  0  0  0  0  0  0  0  0  0
    4.2672   -4.2179   25.5602 H   0  0  0  0  0  0  0  0  0  0  0  0
    5.0922   -4.2887   23.2789 H   0  0  0  0  0  0  0  0  0  0  0  0
    5.3570   -2.5673   23.2203 H   0  0  0  0  0  0  0  0  0  0  0  0
    6.9573   -4.5647   24.8469 H   0  0  0  0  0  0  0  0  0  0  0  0
    7.4651   -4.3826   22.3936 H   0  0  0  0  0  0  0  0  0  0  0  0
    8.8166   -3.8433   23.3965 H   0  0  0  0  0  0  0  0  0  0  0  0
    7.0700   -2.0205   21.3229 N   0  0  0  0  0  0  0  0  0  0  0  0
    7.3627   -0.7215   21.0710 N   0  0  0  0  0  0  0  0  0  0  0  0
    6.7024   -0.0329   20.0083 C   0  0  0  0  0  0  0  0  0  0  0  0
    5.4728    0.5984   20.2219 C   0  0  0  0  0  0  0  0  0  0  0  0
    4.8779    1.2623   19.1435 C   0  0  0  0  0  0  0  0  0  0  0  0
    5.5206    1.2535   17.9014 C   0  0  0  0  0  0  0  0  0  0  0  0
    6.6911    0.6297   17.6893 N   0  0  0  0  0  0  0  0  0  0  0  0
    7.2658   -0.0016   18.7238 C   0  0  0  0  0  0  0  0  0  0  0  0
    8.2325   -0.4653   18.5321 H   0  0  0  0  0  0  0  0  0  0  0  0
    5.0780    1.7585   17.0462 H   0  0  0  0  0  0  0  0  0  0  0  0
    3.9356    1.7855   19.2585 H   0  0  0  0  0  0  0  0  0  0  0  0
    4.9948    0.5727   21.2033 H   0  0  0  0  0  0  0  0  0  0  0  0
    9.7766    1.0457   22.5162 H   0  0  0  0  0  0  0  0  0  0  0  0
    8.3242    2.0106   20.3378 H   0  0  0  0  0  0  0  0  0  0  0  0
  1  2  1  0
  2  3  1  0
  3  4  1  0
  4  5  2  0
  5  6  1  0
  6  7  2  0
  7  8  1  0
  8  9  2  0
  8 10  1  0
  7 11  1  0
  6 12  1  0
  5 13  1  0
  3 14  1  0
  3 15  1  0
  2 16  1  0
 16 17  2  0
 17 18  1  0
 18 19  1  0
 19 20  1  0
 20 21  1  0
 21 22  1  0
 22 23  1  0
 23 24  1  0
 24 25  1  0
 25 26  1  0
 25 27  1  0
 24 28  1  0
 24 29  1  0
 23 30  1  0
 23 31  1  0
 22 32  1  0
 22 33  1  0
 21 34  1  0
 21 35  1  0
 20 36  1  0
 19 37  1  0
 19 38  1  0
 18 39  2  0
 39 40  1  0
 40 41  1  0
 41 42  2  0
 42 43  1  0
 43 44  2  0
 44 45  1  0
 45 46  2  0
 46 47  1  0
 44 48  1  0
 43 49  1  0
 42 50  1  0
  2 51  1  0
  1 52  1  0
  9  4  1  0
 40 16  1  0
 46 41  1  0
 25 20  1  0
M  END
>  <cnnaffinity>  (1) 
-6.21446

>  <filename>  (1) 
OC(Cc1ccccn1)c1nc(CC2CCCCC2)nn1-c1cccnc1

$$$$
