
     RDKit          3D

 38 42  0  0  0  0  0  0  0  0999 V2000
    6.2051    0.2992   24.8817 O   0  0  0  0  0  0  0  0  0  0  0  0
    6.5132    1.4275   24.2380 C   0  0  0  0  0  0  0  0  0  0  0  0
    6.2612    2.6820   24.8091 C   0  0  0  0  0  0  0  0  0  0  0  0
    5.7381    2.7330   26.0588 F   0  0  0  0  0  0  0  0  0  0  0  0
    6.5513    3.8314   24.1015 C   0  0  0  0  0  0  0  0  0  0  0  0
    7.0769    3.7889   22.8694 N   0  0  0  0  0  0  0  0  0  0  0  0
    7.3377    2.5992   22.3250 C   0  0  0  0  0  0  0  0  0  0  0  0
    7.0662    1.3762   22.9493 C   0  0  0  0  0  0  0  0  0  0  0  0
    7.3495    0.0883   22.3264 C   0  0  0  0  0  0  0  0  0  0  0  0
    7.7703   -0.9719   22.9885 N   0  0  0  0  0  0  0  0  0  0  0  0
    7.9339   -1.9097   22.0303 C   0  0  0  0  0  0  0  0  0  0  0  0
    8.3346   -3.3113   22.2750 C   0  0  0  0  0  0  0  0  0  0  0  0
    9.0635   -3.7350   23.5544 C   0  0  0  0  0  0  0  0  0  0  0  0
    7.6737   -4.2245   23.2764 C   0  0  0  0  0  0  0  0  0  0  0  0
    6.3962   -4.3941   24.0303 C   0  0  0  0  0  0  0  0  0  0  0  0
    6.9262   -5.4984   23.1111 C   0  0  0  0  0  0  0  0  0  0  0  0
    7.3361   -6.4085   23.5415 H   0  0  0  0  0  0  0  0  0  0  0  0
    6.4232   -5.6185   22.1525 H   0  0  0  0  0  0  0  0  0  0  0  0
    5.5457   -3.7919   23.7181 H   0  0  0  0  0  0  0  0  0  0  0  0
    6.4773   -4.5707   25.1033 H   0  0  0  0  0  0  0  0  0  0  0  0
    9.8945   -4.4336   23.4945 H   0  0  0  0  0  0  0  0  0  0  0  0
    9.1460   -2.9884   24.3448 H   0  0  0  0  0  0  0  0  0  0  0  0
    8.5942   -3.7984   21.3386 H   0  0  0  0  0  0  0  0  0  0  0  0
    7.6798   -1.4957   20.8038 N   0  0  0  0  0  0  0  0  0  0  0  0
    7.2679   -0.2090   20.9800 N   0  0  0  0  0  0  0  0  0  0  0  0
    6.6398    0.4445   19.8756 C   0  0  0  0  0  0  0  0  0  0  0  0
    5.4613    1.1902   19.9980 C   0  0  0  0  0  0  0  0  0  0  0  0
    4.8392    1.6400   18.8279 C   0  0  0  0  0  0  0  0  0  0  0  0
    5.4209    1.3520   17.5897 C   0  0  0  0  0  0  0  0  0  0  0  0
    6.5695    0.6640   17.4663 N   0  0  0  0  0  0  0  0  0  0  0  0
    7.1580    0.2255   18.5814 C   0  0  0  0  0  0  0  0  0  0  0  0
    8.0851   -0.3267   18.4536 H   0  0  0  0  0  0  0  0  0  0  0  0
    4.9459    1.6677   16.6636 H   0  0  0  0  0  0  0  0  0  0  0  0
    3.9101    2.1983   18.8702 H   0  0  0  0  0  0  0  0  0  0  0  0
    5.0300    1.3913   20.9792 H   0  0  0  0  0  0  0  0  0  0  0  0
    7.7924    2.6287   21.3354 H   0  0  0  0  0  0  0  0  0  0  0  0
    6.3625    4.8112   24.5444 H   0  0  0  0  0  0  0  0  0  0  0  0
    5.8683    0.5482   25.7512 H   0  0  0  0  0  0  0  0  0  0  0  0
  1  2  1  0
  2  3  2  0
  3  4  1  0
  3  5  1  0
  5  6  2  0
  6  7  1  0
  7  8  2  0
  8  9  1  0
  9 10  2  0
 10 11  1  0
 11 12  1  0
 12 13  1  0
 13 14  1  0
 14 15  1  0
 15 16  1  0
 16 17  1  0
 16 18  1  0
 15 19  1  0
 15 20  1  0
 13 21  1  0
 13 22  1  0
 12 23  1  0
 11 24  2  0
 24 25  1  0
 25 26  1  0
 26 27  2  0
 27 28  1  0
 28 29  2  0
 29 30  1  0
 30 31  2  0
 31 32  1  0
 29 33  1  0
 28 34  1  0
 27 35  1  0
  7 36  1  0
  5 37  1  0
  1 38  1  0
  8  2  1  0
 25  9  1  0
 31 26  1  0
 14 12  1  0
 16 14  1  0
M  END
>  <cnnaffinity>  (1) 
-6.05053

>  <filename>  (1) 
Oc1c(F)cncc1-c1nc(C2CC23CC3)nn1-c1cccnc1

$$$$
