
     RDKit          3D

 38 42  0  0  0  0  0  0  0  0999 V2000
    8.3031    2.3208   21.2632 O   0  0  0  0  0  0  0  0  0  0  0  0
    7.4731    2.2673   22.3030 C   0  0  0  0  0  0  0  0  0  0  0  0
    6.9890    3.4368   22.8976 C   0  0  0  0  0  0  0  0  0  0  0  0
    7.4075    5.0041   22.2884 Cl  0  0  0  0  0  0  0  0  0  0  0  0
    6.1738    3.3084   24.0182 C   0  0  0  0  0  0  0  0  0  0  0  0
    5.8455    2.1313   24.5662 N   0  0  0  0  0  0  0  0  0  0  0  0
    6.3048    1.0216   23.9917 C   0  0  0  0  0  0  0  0  0  0  0  0
    7.0621    1.0310   22.8293 C   0  0  0  0  0  0  0  0  0  0  0  0
    7.4293   -0.2473   22.2587 C   0  0  0  0  0  0  0  0  0  0  0  0
    7.9655   -1.2207   22.9604 N   0  0  0  0  0  0  0  0  0  0  0  0
    8.2483   -2.1453   22.0151 C   0  0  0  0  0  0  0  0  0  0  0  0
    8.9969   -3.4146   22.2221 C   0  0  0  0  0  0  0  0  0  0  0  0
    8.2731   -4.7028   21.9267 C   0  0  0  0  0  0  0  0  0  0  0  0
    8.9254   -4.5200   23.3081 C   0  0  0  0  0  0  0  0  0  0  0  0
    9.9523   -4.5426   24.4302 C   0  0  0  0  0  0  0  0  0  0  0  0
    8.9218   -5.6345   24.3687 C   0  0  0  0  0  0  0  0  0  0  0  0
    9.2920   -6.6055   24.0267 H   0  0  0  0  0  0  0  0  0  0  0  0
    8.0866   -5.6938   25.0637 H   0  0  0  0  0  0  0  0  0  0  0  0
   10.9901   -4.8053   24.2087 H   0  0  0  0  0  0  0  0  0  0  0  0
    9.8491   -3.7509   25.1729 H   0  0  0  0  0  0  0  0  0  0  0  0
    8.6152   -5.4893   21.2515 H   0  0  0  0  0  0  0  0  0  0  0  0
    7.1829   -4.6174   21.9087 H   0  0  0  0  0  0  0  0  0  0  0  0
   10.0252   -3.2258   21.9011 H   0  0  0  0  0  0  0  0  0  0  0  0
    7.9165   -1.8129   20.7745 N   0  0  0  0  0  0  0  0  0  0  0  0
    7.3555   -0.5856   20.9347 N   0  0  0  0  0  0  0  0  0  0  0  0
    6.6428    0.0488   19.8759 C   0  0  0  0  0  0  0  0  0  0  0  0
    5.4308    0.7081   20.1186 C   0  0  0  0  0  0  0  0  0  0  0  0
    4.8034    1.3377   19.0408 C   0  0  0  0  0  0  0  0  0  0  0  0
    5.4073    1.3001   17.7804 C   0  0  0  0  0  0  0  0  0  0  0  0
    6.5576    0.6448   17.5388 N   0  0  0  0  0  0  0  0  0  0  0  0
    7.1503    0.0248   18.5634 C   0  0  0  0  0  0  0  0  0  0  0  0
    8.0748   -0.5057   18.3399 H   0  0  0  0  0  0  0  0  0  0  0  0
    4.9488    1.8044   16.9321 H   0  0  0  0  0  0  0  0  0  0  0  0
    3.8631    1.8643   19.1692 H   0  0  0  0  0  0  0  0  0  0  0  0
    4.9949    0.7215   21.1197 H   0  0  0  0  0  0  0  0  0  0  0  0
    6.0467    0.0732   24.4624 H   0  0  0  0  0  0  0  0  0  0  0  0
    5.7783    4.1991   24.5042 H   0  0  0  0  0  0  0  0  0  0  0  0
    8.5977    1.4205   21.0795 H   0  0  0  0  0  0  0  0  0  0  0  0
  1  2  1  0
  2  3  2  0
  3  4  1  0
  3  5  1  0
  5  6  2  0
  6  7  1  0
  7  8  2  0
  8  9  1  0
  9 10  2  0
 10 11  1  0
 11 12  1  0
 12 13  1  0
 13 14  1  0
 14 15  1  0
 15 16  1  0
 16 17  1  0
 16 18  1  0
 15 19  1  0
 15 20  1  0
 13 21  1  0
 13 22  1  0
 12 23  1  0
 11 24  2  0
 24 25  1  0
 25 26  1  0
 26 27  2  0
 27 28  1  0
 28 29  2  0
 29 30  1  0
 30 31  2  0
 31 32  1  0
 29 33  1  0
 28 34  1  0
 27 35  1  0
  7 36  1  0
  5 37  1  0
  1 38  1  0
  8  2  1  0
 25  9  1  0
 31 26  1  0
 14 12  1  0
 16 14  1  0
M  END
>  <cnnaffinity>  (1) 
-6.38442

>  <filename>  (1) 
Oc1c(Cl)cncc1-c1nc(C2CC23CC3)nn1-c1cccnc1

$$$$
