
     RDKit          3D

 29 31  0  0  0  0  0  0  0  0999 V2000
   10.0640    1.0739   24.6171 H   0  0  0  0  0  0  0  0  0  0  0  0
    9.2881    0.9763   24.0534 O   0  0  0  0  0  0  0  0  0  0  0  0
    8.1965    1.0521   24.8470 C   0  0  0  0  0  0  0  0  0  0  0  0
    8.3243    1.3925   26.1967 C   0  0  0  0  0  0  0  0  0  0  0  0
    9.3105    1.5039   26.6343 H   0  0  0  0  0  0  0  0  0  0  0  0
    7.1838    1.5794   26.9782 C   0  0  0  0  0  0  0  0  0  0  0  0
    7.3533    1.9947   28.6562 Cl  0  0  0  0  0  0  0  0  0  0  0  0
    5.9096    1.4371   26.4279 C   0  0  0  0  0  0  0  0  0  0  0  0
    5.0345    1.6136   27.0401 H   0  0  0  0  0  0  0  0  0  0  0  0
    5.7814    1.0646   25.0839 C   0  0  0  0  0  0  0  0  0  0  0  0
    4.8177    0.9637   24.5906 H   0  0  0  0  0  0  0  0  0  0  0  0
    6.9081    0.8225   24.3085 C   0  0  0  0  0  0  0  0  0  0  0  0
    6.6357    0.4708   22.9857 O   0  0  0  0  0  0  0  0  0  0  0  0
    7.3300   -0.4460   22.3071 C   0  0  0  0  0  0  0  0  0  0  0  0
    8.1045   -1.3673   22.9255 O   0  0  0  0  0  0  0  0  0  0  0  0
    8.6419   -2.0756   21.8974 C   0  0  0  0  0  0  0  0  0  0  0  0
    9.3271   -2.8692   22.1708 H   0  0  0  0  0  0  0  0  0  0  0  0
    8.2721   -1.7048   20.7240 N   0  0  0  0  0  0  0  0  0  0  0  0
    7.3825   -0.6543   20.9665 C   0  0  0  0  0  0  0  0  0  0  0  0
    6.6504    0.0233   19.9056 C   0  0  0  0  0  0  0  0  0  0  0  0
    7.1665    0.0405   18.5955 C   0  0  0  0  0  0  0  0  0  0  0  0
    8.1117   -0.4502   18.3740 H   0  0  0  0  0  0  0  0  0  0  0  0
    6.5618    0.6577   17.5767 N   0  0  0  0  0  0  0  0  0  0  0  0
    5.4024    1.2865   17.8295 C   0  0  0  0  0  0  0  0  0  0  0  0
    4.9421    1.7929   16.9833 H   0  0  0  0  0  0  0  0  0  0  0  0
    4.7970    1.3131   19.0910 C   0  0  0  0  0  0  0  0  0  0  0  0
    3.8640    1.8485   19.2258 H   0  0  0  0  0  0  0  0  0  0  0  0
    5.4282    0.6724   20.1522 C   0  0  0  0  0  0  0  0  0  0  0  0
    5.0012    0.6689   21.1546 H   0  0  0  0  0  0  0  0  0  0  0  0
  1  2  1  0
  2  3  1  0
  3  4  2  0
  4  5  1  0
  4  6  1  0
  6  7  1  0
  6  8  2  0
  8  9  1  0
  8 10  1  0
 10 11  1  0
 10 12  2  0
 12 13  1  0
 13 14  1  0
 14 15  1  0
 15 16  1  0
 16 17  1  0
 16 18  2  0
 18 19  1  0
 19 20  1  0
 20 21  2  0
 21 22  1  0
 21 23  1  0
 23 24  2  0
 24 25  1  0
 24 26  1  0
 26 27  1  0
 26 28  2  0
 28 29  1  0
 12  3  1  0
 19 14  2  0
 28 20  1  0
M  END
>  <cnnaffinity>  (1) 
-5.1715

>  <filename>  (1) 
Oc1cc(Cl)ccc1Oc1ocnc1-c1cccnc1

$$$$
