
     RDKit          3D

 32 34  0  0  0  0  0  0  0  0999 V2000
   12.2166    1.1713   23.0268 H   0  0  0  0  0  0  0  0  0  0  0  0
   12.1843    1.9927   23.5447 O   0  0  0  0  0  0  0  0  0  0  0  0
   10.9115    2.4458   23.4429 C   0  0  0  0  0  0  0  0  0  0  0  0
   10.5359    3.5142   24.2461 C   0  0  0  0  0  0  0  0  0  0  0  0
   11.3081    4.0192   24.8163 H   0  0  0  0  0  0  0  0  0  0  0  0
    9.1929    3.9001   24.2690 C   0  0  0  0  0  0  0  0  0  0  0  0
    8.7003    5.1096   25.4083 Cl  0  0  0  0  0  0  0  0  0  0  0  0
    8.2569    3.3177   23.4165 C   0  0  0  0  0  0  0  0  0  0  0  0
    7.2170    3.6229   23.4797 H   0  0  0  0  0  0  0  0  0  0  0  0
    8.6556    2.2979   22.5376 C   0  0  0  0  0  0  0  0  0  0  0  0
    7.9302    1.8409   21.8668 H   0  0  0  0  0  0  0  0  0  0  0  0
    9.9745    1.8421   22.5608 C   0  0  0  0  0  0  0  0  0  0  0  0
   10.4899    0.8114   21.7976 O   0  0  0  0  0  0  0  0  0  0  0  0
    9.6662    0.1767   20.8314 C   0  0  0  0  0  0  0  0  0  0  0  0
    9.2459    0.9278   20.1528 H   0  0  0  0  0  0  0  0  0  0  0  0
   10.3356   -0.4846   20.2751 H   0  0  0  0  0  0  0  0  0  0  0  0
    8.5768   -0.6826   21.4172 C   0  0  0  0  0  0  0  0  0  0  0  0
    8.7482   -1.5269   22.3964 N   0  0  0  0  0  0  0  0  0  0  0  0
    7.5492   -2.1447   22.6398 N   0  0  0  0  0  0  0  0  0  0  0  0
    6.6883   -1.6607   21.7927 C   0  0  0  0  0  0  0  0  0  0  0  0
    5.6482   -1.9477   21.7297 H   0  0  0  0  0  0  0  0  0  0  0  0
    7.2714   -0.7369   20.9565 N   0  0  0  0  0  0  0  0  0  0  0  0
    6.6304   -0.0249   19.8922 C   0  0  0  0  0  0  0  0  0  0  0  0
    7.1465    0.0126   18.5772 C   0  0  0  0  0  0  0  0  0  0  0  0
    8.0725   -0.5102   18.3397 H   0  0  0  0  0  0  0  0  0  0  0  0
    6.5552    0.6588   17.5642 N   0  0  0  0  0  0  0  0  0  0  0  0
    5.4093    1.3079   17.8217 C   0  0  0  0  0  0  0  0  0  0  0  0
    4.9505    1.8254   16.9818 H   0  0  0  0  0  0  0  0  0  0  0  0
    4.8114    1.3245   19.0862 C   0  0  0  0  0  0  0  0  0  0  0  0
    3.8846    1.8669   19.2328 H   0  0  0  0  0  0  0  0  0  0  0  0
    5.4275    0.6441   20.1405 C   0  0  0  0  0  0  0  0  0  0  0  0
    5.0022    0.6401   21.1463 H   0  0  0  0  0  0  0  0  0  0  0  0
  1  2  1  0
  2  3  1  0
  3  4  2  0
  4  5  1  0
  4  6  1  0
  6  7  1  0
  6  8  2  0
  8  9  1  0
  8 10  1  0
 10 11  1  0
 10 12  2  0
 12 13  1  0
 13 14  1  0
 14 15  1  0
 14 16  1  0
 14 17  1  0
 17 18  2  0
 18 19  1  0
 19 20  2  0
 20 21  1  0
 20 22  1  0
 22 23  1  0
 23 24  2  0
 24 25  1  0
 24 26  1  0
 26 27  2  0
 27 28  1  0
 27 29  1  0
 29 30  1  0
 29 31  2  0
 31 32  1  0
 12  3  1  0
 22 17  1  0
 31 23  1  0
M  END
>  <cnnaffinity>  (1) 
-5.01478

>  <filename>  (1) 
Oc1cc(Cl)ccc1OCc1nncn1-c1cccnc1

$$$$
