
     RDKit          3D

 33 36  0  0  0  0  0  0  0  0999 V2000
   10.6327    0.4233   26.7877 H   0  0  0  0  0  0  0  0  0  0  0  0
   10.3457   -0.1948   26.0985 O   0  0  0  0  0  0  0  0  0  0  0  0
    9.0219   -0.4536   26.3247 C   0  0  0  0  0  0  0  0  0  0  0  0
    8.4535   -0.0533   27.5343 C   0  0  0  0  0  0  0  0  0  0  0  0
    9.1511    0.2486   28.3037 H   0  0  0  0  0  0  0  0  0  0  0  0
    7.0734   -0.1042   27.7515 C   0  0  0  0  0  0  0  0  0  0  0  0
    6.6418    0.3279   28.6559 H   0  0  0  0  0  0  0  0  0  0  0  0
    6.2578   -0.6934   26.7785 C   0  0  0  0  0  0  0  0  0  0  0  0
    5.1848   -0.7709   26.9376 H   0  0  0  0  0  0  0  0  0  0  0  0
    6.8260   -1.2018   25.6068 C   0  0  0  0  0  0  0  0  0  0  0  0
    6.2068   -1.6771   24.8460 H   0  0  0  0  0  0  0  0  0  0  0  0
    8.2086   -1.0819   25.3570 C   0  0  0  0  0  0  0  0  0  0  0  0
    8.7255   -1.5037   24.1114 N   0  0  0  0  0  0  0  0  0  0  0  0
    9.9362   -2.1399   23.8272 C   0  0  0  0  0  0  0  0  0  0  0  0
   10.6079   -2.3972   24.6277 H   0  0  0  0  0  0  0  0  0  0  0  0
   10.0429   -2.2913   22.4810 C   0  0  0  0  0  0  0  0  0  0  0  0
   10.7848   -2.6978   21.8243 H   0  0  0  0  0  0  0  0  0  0  0  0
    8.9032   -1.7107   21.9384 N   0  0  0  0  0  0  0  0  0  0  0  0
    8.4951   -1.3930   20.6925 N   0  0  0  0  0  0  0  0  0  0  0  0
    7.3746   -0.6856   20.9193 C   0  0  0  0  0  0  0  0  0  0  0  0
    6.6225   -0.0408   19.8277 C   0  0  0  0  0  0  0  0  0  0  0  0
    7.1498    0.0152   18.5243 C   0  0  0  0  0  0  0  0  0  0  0  0
    8.1013   -0.4627   18.2957 H   0  0  0  0  0  0  0  0  0  0  0  0
    6.5612    0.6666   17.5170 N   0  0  0  0  0  0  0  0  0  0  0  0
    5.4093    1.3030   17.7756 C   0  0  0  0  0  0  0  0  0  0  0  0
    4.9623    1.8365   16.9425 H   0  0  0  0  0  0  0  0  0  0  0  0
    4.7930    1.3057   19.0302 C   0  0  0  0  0  0  0  0  0  0  0  0
    3.8711    1.8557   19.1824 H   0  0  0  0  0  0  0  0  0  0  0  0
    5.4071    0.6250   20.0743 C   0  0  0  0  0  0  0  0  0  0  0  0
    4.9620    0.6456   21.0711 H   0  0  0  0  0  0  0  0  0  0  0  0
    7.0656   -0.5627   22.2947 C   0  0  0  0  0  0  0  0  0  0  0  0
    6.2448   -0.0428   22.7558 H   0  0  0  0  0  0  0  0  0  0  0  0
    8.1050   -1.2338   22.9081 C   0  0  0  0  0  0  0  0  0  0  0  0
  1  2  1  0
  2  3  1  0
  3  4  2  0
  4  5  1  0
  4  6  1  0
  6  7  1  0
  6  8  2  0
  8  9  1  0
  8 10  1  0
 10 11  1  0
 10 12  2  0
 12 13  1  0
 13 14  1  0
 14 15  1  0
 14 16  2  0
 16 17  1  0
 16 18  1  0
 18 19  1  0
 19 20  2  0
 20 21  1  0
 21 22  2  0
 22 23  1  0
 22 24  1  0
 24 25  2  0
 25 26  1  0
 25 27  1  0
 27 28  1  0
 27 29  2  0
 29 30  1  0
 20 31  1  0
 31 32  1  0
 31 33  2  0
 12  3  1  0
 33 13  1  0
 33 18  1  0
 29 21  1  0
M  END
>  <cnnaffinity>  (1) 
-5.41616

>  <filename>  (1) 
Oc1ccccc1-n1ccn2nc(-c3cccnc3)cc12

$$$$
