
     RDKit          3D

 40 43  0  0  0  0  0  0  0  0999 V2000
   11.7478    2.4913   23.2362 O   0  0  0  0  0  0  0  0  0  0  0  0
   10.5669    2.1626   23.8017 C   0  0  0  0  0  0  0  0  0  0  0  0
   10.6131    2.0202   25.1253 N   0  0  0  0  0  0  0  0  0  0  0  0
    9.4621    1.6948   25.7372 C   0  0  0  0  0  0  0  0  0  0  0  0
    8.2520    1.5648   25.0615 C   0  0  0  0  0  0  0  0  0  0  0  0
    8.2173    1.7043   23.6866 C   0  0  0  0  0  0  0  0  0  0  0  0
    6.9668    1.3617   22.9313 C   0  0  0  0  0  0  0  0  0  0  0  0
    7.2183   -0.0098   22.3913 C   0  0  0  0  0  0  0  0  0  0  0  0
    7.6975   -0.9544   23.1494 N   0  0  0  0  0  0  0  0  0  0  0  0
    8.0876   -1.9171   22.2432 C   0  0  0  0  0  0  0  0  0  0  0  0
    8.9236   -3.1095   22.6437 C   0  0  0  0  0  0  0  0  0  0  0  0
   10.2608   -2.8068   23.3452 C   0  0  0  0  0  0  0  0  0  0  0  0
    9.8978   -3.7579   24.4753 C   0  0  0  0  0  0  0  0  0  0  0  0
    8.5271   -3.9762   23.8454 C   0  0  0  0  0  0  0  0  0  0  0  0
    7.7026   -3.5790   24.4357 H   0  0  0  0  0  0  0  0  0  0  0  0
    8.3137   -5.0245   23.6137 H   0  0  0  0  0  0  0  0  0  0  0  0
   10.5224   -4.6547   24.4920 H   0  0  0  0  0  0  0  0  0  0  0  0
    9.8789   -3.3067   25.4747 H   0  0  0  0  0  0  0  0  0  0  0  0
   10.3770   -1.7752   23.6974 H   0  0  0  0  0  0  0  0  0  0  0  0
   11.1470   -3.0995   22.7664 H   0  0  0  0  0  0  0  0  0  0  0  0
    9.0490   -3.7233   21.7584 H   0  0  0  0  0  0  0  0  0  0  0  0
    7.8196   -1.6273   20.9885 N   0  0  0  0  0  0  0  0  0  0  0  0
    7.1935   -0.4285   21.0654 N   0  0  0  0  0  0  0  0  0  0  0  0
    6.6032    0.2105   19.9613 C   0  0  0  0  0  0  0  0  0  0  0  0
    5.5243    1.0947   20.0980 C   0  0  0  0  0  0  0  0  0  0  0  0
    4.9557    1.6196   18.9319 C   0  0  0  0  0  0  0  0  0  0  0  0
    5.4814    1.2722   17.6798 C   0  0  0  0  0  0  0  0  0  0  0  0
    6.5265    0.4365   17.5440 N   0  0  0  0  0  0  0  0  0  0  0  0
    7.0666   -0.0851   18.6655 C   0  0  0  0  0  0  0  0  0  0  0  0
    7.9084   -0.7622   18.5617 H   0  0  0  0  0  0  0  0  0  0  0  0
    5.0213    1.6824   16.7845 H   0  0  0  0  0  0  0  0  0  0  0  0
    4.1051    2.2931   18.9823 H   0  0  0  0  0  0  0  0  0  0  0  0
    5.1188    1.3464   21.0787 H   0  0  0  0  0  0  0  0  0  0  0  0
    6.8038    2.0824   22.1264 H   0  0  0  0  0  0  0  0  0  0  0  0
    6.0995    1.3558   23.5930 H   0  0  0  0  0  0  0  0  0  0  0  0
    9.4166    1.9712   23.0365 C   0  0  0  0  0  0  0  0  0  0  0  0
    9.5083    1.9824   21.1312 Br  0  0  0  0  0  0  0  0  0  0  0  0
    7.3504    1.3004   25.5976 H   0  0  0  0  0  0  0  0  0  0  0  0
    9.4343    1.4899   26.7982 H   0  0  0  0  0  0  0  0  0  0  0  0
   12.3617    2.5936   23.9734 H   0  0  0  0  0  0  0  0  0  0  0  0
  1  2  1  0
  2  3  2  0
  3  4  1  0
  4  5  2  0
  5  6  1  0
  6  7  1  0
  7  8  1  0
  8  9  2  0
  9 10  1  0
 10 11  1  0
 11 12  1  0
 12 13  1  0
 13 14  1  0
 14 15  1  0
 14 16  1  0
 13 17  1  0
 13 18  1  0
 12 19  1  0
 12 20  1  0
 11 21  1  0
 10 22  2  0
 22 23  1  0
 23 24  1  0
 24 25  2  0
 25 26  1  0
 26 27  2  0
 27 28  1  0
 28 29  2  0
 29 30  1  0
 27 31  1  0
 26 32  1  0
 25 33  1  0
  7 34  1  0
  7 35  1  0
  6 36  2  0
 36 37  1  0
  5 38  1  0
  4 39  1  0
  1 40  1  0
 36  2  1  0
 23  8  1  0
 29 24  1  0
 14 11  1  0
M  END
>  <cnnaffinity>  (1) 
-6.23371

>  <filename>  (1) 
Oc1nccc(Cc2nc(C3CCC3)nn2-c2cccnc2)c1Br

$$$$
