
     RDKit          3D

 40 43  0  0  0  0  0  0  0  0999 V2000
   10.3015    3.6325   24.2798 O   0  0  0  0  0  0  0  0  0  0  0  0
   10.6950    2.6086   23.5138 C   0  0  0  0  0  0  0  0  0  0  0  0
   11.9128    2.1919   23.8578 N   0  0  0  0  0  0  0  0  0  0  0  0
   12.4215    1.1571   23.1811 C   0  0  0  0  0  0  0  0  0  0  0  0
   11.7087    0.5262   22.1590 C   0  0  0  0  0  0  0  0  0  0  0  0
   10.4338    0.9692   21.8130 C   0  0  0  0  0  0  0  0  0  0  0  0
    9.6407    0.2685   20.7569 C   0  0  0  0  0  0  0  0  0  0  0  0
    8.6021   -0.5945   21.3660 C   0  0  0  0  0  0  0  0  0  0  0  0
    8.8485   -1.4300   22.3286 N   0  0  0  0  0  0  0  0  0  0  0  0
    7.6172   -2.0246   22.5147 C   0  0  0  0  0  0  0  0  0  0  0  0
    7.4414   -3.0719   23.5555 C   0  0  0  0  0  0  0  0  0  0  0  0
    7.6754   -4.4536   22.9493 C   0  0  0  0  0  0  0  0  0  0  0  0
    6.5106   -5.1270   22.2382 C   0  0  0  0  0  0  0  0  0  0  0  0
    6.9931   -5.6408   23.5928 C   0  0  0  0  0  0  0  0  0  0  0  0
    7.5838   -6.5573   23.6081 H   0  0  0  0  0  0  0  0  0  0  0  0
    6.3739   -5.4502   24.4771 H   0  0  0  0  0  0  0  0  0  0  0  0
    6.7333   -5.7365   21.3575 H   0  0  0  0  0  0  0  0  0  0  0  0
    5.5627   -4.5774   22.1977 H   0  0  0  0  0  0  0  0  0  0  0  0
    8.6889   -4.6229   22.5620 H   0  0  0  0  0  0  0  0  0  0  0  0
    8.1570   -2.8921   24.3627 H   0  0  0  0  0  0  0  0  0  0  0  0
    6.4257   -2.9961   23.9545 H   0  0  0  0  0  0  0  0  0  0  0  0
    6.6558   -1.6083   21.7301 N   0  0  0  0  0  0  0  0  0  0  0  0
    7.2758   -0.6802   20.9716 N   0  0  0  0  0  0  0  0  0  0  0  0
    6.6487    0.0009   19.9209 C   0  0  0  0  0  0  0  0  0  0  0  0
    5.4281    0.6354   20.1509 C   0  0  0  0  0  0  0  0  0  0  0  0
    4.8124    1.2991   19.0894 C   0  0  0  0  0  0  0  0  0  0  0  0
    5.4189    1.2993   17.8304 C   0  0  0  0  0  0  0  0  0  0  0  0
    6.5914    0.6790   17.5932 N   0  0  0  0  0  0  0  0  0  0  0  0
    7.1905    0.0506   18.6246 C   0  0  0  0  0  0  0  0  0  0  0  0
    8.1379   -0.4445   18.4343 H   0  0  0  0  0  0  0  0  0  0  0  0
    4.9198    1.8190   17.0187 H   0  0  0  0  0  0  0  0  0  0  0  0
    3.8751    1.8284   19.2321 H   0  0  0  0  0  0  0  0  0  0  0  0
    4.9885    0.6269   21.1471 H   0  0  0  0  0  0  0  0  0  0  0  0
   10.2850   -0.3904   20.1785 H   0  0  0  0  0  0  0  0  0  0  0  0
    9.1643    0.9963   20.0986 H   0  0  0  0  0  0  0  0  0  0  0  0
    9.9078    2.0513   22.5077 C   0  0  0  0  0  0  0  0  0  0  0  0
    8.1581    2.7393   22.1101 Br  0  0  0  0  0  0  0  0  0  0  0  0
   12.1522   -0.3148   21.6484 H   0  0  0  0  0  0  0  0  0  0  0  0
   13.4116    0.7906   23.4472 H   0  0  0  0  0  0  0  0  0  0  0  0
   11.0704    3.7575   24.8558 H   0  0  0  0  0  0  0  0  0  0  0  0
  1  2  1  0
  2  3  2  0
  3  4  1  0
  4  5  2  0
  5  6  1  0
  6  7  1  0
  7  8  1  0
  8  9  2  0
  9 10  1  0
 10 11  1  0
 11 12  1  0
 12 13  1  0
 13 14  1  0
 14 15  1  0
 14 16  1  0
 13 17  1  0
 13 18  1  0
 12 19  1  0
 11 20  1  0
 11 21  1  0
 10 22  2  0
 22 23  1  0
 23 24  1  0
 24 25  2  0
 25 26  1  0
 26 27  2  0
 27 28  1  0
 28 29  2  0
 29 30  1  0
 27 31  1  0
 26 32  1  0
 25 33  1  0
  7 34  1  0
  7 35  1  0
  6 36  2  0
 36 37  1  0
  5 38  1  0
  4 39  1  0
  1 40  1  0
 36  2  1  0
 23  8  1  0
 29 24  1  0
 14 12  1  0
M  END
>  <cnnaffinity>  (1) 
-6.18591

>  <filename>  (1) 
Oc1nccc(Cc2nc(CC3CC3)nn2-c2cccnc2)c1Br

$$$$
