
     RDKit          3D

 38 42  0  0  0  0  0  0  0  0999 V2000
    8.3197    2.3259   21.3631 O   0  0  0  0  0  0  0  0  0  0  0  0
    7.4640    2.2391   22.3787 C   0  0  0  0  0  0  0  0  0  0  0  0
    7.0553    3.3826   22.8836 N   0  0  0  0  0  0  0  0  0  0  0  0
    6.2375    3.3634   23.9436 C   0  0  0  0  0  0  0  0  0  0  0  0
    5.8121    2.1757   24.5462 C   0  0  0  0  0  0  0  0  0  0  0  0
    5.0127    2.2060   25.6224 F   0  0  0  0  0  0  0  0  0  0  0  0
    6.2299    0.9583   24.0259 C   0  0  0  0  0  0  0  0  0  0  0  0
    7.0282    0.9879   22.8808 C   0  0  0  0  0  0  0  0  0  0  0  0
    7.4553   -0.2457   22.2591 C   0  0  0  0  0  0  0  0  0  0  0  0
    8.0552   -1.2029   22.9362 N   0  0  0  0  0  0  0  0  0  0  0  0
    8.2837   -2.1407   21.9934 C   0  0  0  0  0  0  0  0  0  0  0  0
    9.0198   -3.4172   22.2047 C   0  0  0  0  0  0  0  0  0  0  0  0
    8.2782   -4.6976   21.9157 C   0  0  0  0  0  0  0  0  0  0  0  0
    8.9286   -4.5223   23.2972 C   0  0  0  0  0  0  0  0  0  0  0  0
    9.9387   -4.5352   24.4319 C   0  0  0  0  0  0  0  0  0  0  0  0
    8.9195   -5.6381   24.3577 C   0  0  0  0  0  0  0  0  0  0  0  0
    9.2925   -6.6119   24.0259 H   0  0  0  0  0  0  0  0  0  0  0  0
    8.0791   -5.7044   25.0439 H   0  0  0  0  0  0  0  0  0  0  0  0
    9.8171   -3.7366   25.1669 H   0  0  0  0  0  0  0  0  0  0  0  0
   10.9823   -4.7890   24.2254 H   0  0  0  0  0  0  0  0  0  0  0  0
    8.6111   -5.4869   21.2375 H   0  0  0  0  0  0  0  0  0  0  0  0
    7.1884   -4.6025   21.9101 H   0  0  0  0  0  0  0  0  0  0  0  0
   10.0537   -3.2376   21.8958 H   0  0  0  0  0  0  0  0  0  0  0  0
    7.8912   -1.8235   20.7674 N   0  0  0  0  0  0  0  0  0  0  0  0
    7.3286   -0.5984   20.9404 N   0  0  0  0  0  0  0  0  0  0  0  0
    6.6273    0.0471   19.8795 C   0  0  0  0  0  0  0  0  0  0  0  0
    5.4217    0.7174   20.1189 C   0  0  0  0  0  0  0  0  0  0  0  0
    4.7968    1.3481   19.0395 C   0  0  0  0  0  0  0  0  0  0  0  0
    5.4015    1.3064   17.7795 C   0  0  0  0  0  0  0  0  0  0  0  0
    6.5505    0.6492   17.5417 N   0  0  0  0  0  0  0  0  0  0  0  0
    7.1402    0.0248   18.5663 C   0  0  0  0  0  0  0  0  0  0  0  0
    8.0619   -0.5078   18.3388 H   0  0  0  0  0  0  0  0  0  0  0  0
    4.9439    1.8094   16.9290 H   0  0  0  0  0  0  0  0  0  0  0  0
    3.8572    1.8753   19.1648 H   0  0  0  0  0  0  0  0  0  0  0  0
    4.9893    0.7384   21.1213 H   0  0  0  0  0  0  0  0  0  0  0  0
    5.9418    0.0169   24.5019 H   0  0  0  0  0  0  0  0  0  0  0  0
    5.9100    4.3143   24.3601 H   0  0  0  0  0  0  0  0  0  0  0  0
    8.5938    1.4317   21.1584 H   0  0  0  0  0  0  0  0  0  0  0  0
  1  2  1  0
  2  3  2  0
  3  4  1  0
  4  5  2  0
  5  6  1  0
  5  7  1  0
  7  8  2  0
  8  9  1  0
  9 10  2  0
 10 11  1  0
 11 12  1  0
 12 13  1  0
 13 14  1  0
 14 15  1  0
 15 16  1  0
 16 17  1  0
 16 18  1  0
 15 19  1  0
 15 20  1  0
 13 21  1  0
 13 22  1  0
 12 23  1  0
 11 24  2  0
 24 25  1  0
 25 26  1  0
 26 27  2  0
 27 28  1  0
 28 29  2  0
 29 30  1  0
 30 31  2  0
 31 32  1  0
 29 33  1  0
 28 34  1  0
 27 35  1  0
  7 36  1  0
  4 37  1  0
  1 38  1  0
  8  2  1  0
 25  9  1  0
 31 26  1  0
 14 12  1  0
 16 14  1  0
M  END
>  <cnnaffinity>  (1) 
-6.13388

>  <filename>  (1) 
Oc1ncc(F)cc1-c1nc(C2CC23CC3)nn1-c1cccnc1

$$$$
