
     RDKit          3D

 41 44  0  0  0  0  0  0  0  0999 V2000
    2.9078   -8.6365   23.2564 H   0  0  0  0  0  0  0  0  0  0  0  0
    2.1590   -8.3261   23.7809 O   0  0  0  0  0  0  0  0  0  0  0  0
    2.6882   -7.4740   24.7816 C   0  0  0  0  0  0  0  0  0  0  0  0
    2.9954   -8.0503   25.6690 H   0  0  0  0  0  0  0  0  0  0  0  0
    1.8707   -6.8097   25.0937 H   0  0  0  0  0  0  0  0  0  0  0  0
    3.8446   -6.6273   24.2490 C   0  0  0  0  0  0  0  0  0  0  0  0
    4.6137   -7.3212   23.8802 H   0  0  0  0  0  0  0  0  0  0  0  0
    4.4862   -5.7520   25.3371 C   0  0  0  0  0  0  0  0  0  0  0  0
    4.8213   -6.3542   26.1880 H   0  0  0  0  0  0  0  0  0  0  0  0
    3.7219   -5.0693   25.7334 H   0  0  0  0  0  0  0  0  0  0  0  0
    5.6600   -4.9088   24.7935 C   0  0  0  0  0  0  0  0  0  0  0  0
    6.5643   -5.5219   24.6826 H   0  0  0  0  0  0  0  0  0  0  0  0
    5.9045   -4.1173   25.5174 H   0  0  0  0  0  0  0  0  0  0  0  0
    5.3258   -4.3062   23.4963 N   0  0  0  0  0  0  0  0  0  0  0  0
    6.1799   -3.4204   22.8931 C   0  0  0  0  0  0  0  0  0  0  0  0
    7.4804   -3.3354   23.2113 N   0  0  0  0  0  0  0  0  0  0  0  0
    7.9122   -2.3560   22.3652 N   0  0  0  0  0  0  0  0  0  0  0  0
    9.1154   -1.7224   22.1061 C   0  0  0  0  0  0  0  0  0  0  0  0
    9.9897   -1.9478   22.6881 H   0  0  0  0  0  0  0  0  0  0  0  0
    8.8684   -0.8304   21.1061 C   0  0  0  0  0  0  0  0  0  0  0  0
    9.5137   -0.1237   20.6071 H   0  0  0  0  0  0  0  0  0  0  0  0
    7.5226   -0.8900   20.7531 N   0  0  0  0  0  0  0  0  0  0  0  0
    6.8517   -0.0914   19.7892 C   0  0  0  0  0  0  0  0  0  0  0  0
    7.3294    0.0322   18.4671 C   0  0  0  0  0  0  0  0  0  0  0  0
    8.2652   -0.4386   18.1588 H   0  0  0  0  0  0  0  0  0  0  0  0
    6.6699    0.6963   17.5081 N   0  0  0  0  0  0  0  0  0  0  0  0
    5.5181    1.3036   17.8326 C   0  0  0  0  0  0  0  0  0  0  0  0
    5.0228    1.8465   17.0303 H   0  0  0  0  0  0  0  0  0  0  0  0
    4.9744    1.2658   19.1221 C   0  0  0  0  0  0  0  0  0  0  0  0
    4.0521    1.7958   19.3307 H   0  0  0  0  0  0  0  0  0  0  0  0
    5.6489    0.5557   20.1190 C   0  0  0  0  0  0  0  0  0  0  0  0
    5.2700    0.5069   21.1405 H   0  0  0  0  0  0  0  0  0  0  0  0
    6.9500   -1.8613   21.5561 C   0  0  0  0  0  0  0  0  0  0  0  0
    5.7824   -2.5157   21.8719 C   0  0  0  0  0  0  0  0  0  0  0  0
    4.7824   -2.3072   21.5815 H   0  0  0  0  0  0  0  0  0  0  0  0
    3.9251   -4.3241   23.1001 C   0  0  0  0  0  0  0  0  0  0  0  0
    3.8060   -3.8876   22.1094 H   0  0  0  0  0  0  0  0  0  0  0  0
    3.3357   -3.7206   23.8067 H   0  0  0  0  0  0  0  0  0  0  0  0
    3.3858   -5.7524   23.0516 C   0  0  0  0  0  0  0  0  0  0  0  0
    3.7087   -6.2101   22.1133 H   0  0  0  0  0  0  0  0  0  0  0  0
    2.2913   -5.7051   23.0056 H   0  0  0  0  0  0  0  0  0  0  0  0
  1  2  1  0
  2  3  1  0
  3  4  1  0
  3  5  1  0
  3  6  1  0
  6  7  1  0
  6  8  1  0
  8  9  1  0
  8 10  1  0
  8 11  1  0
 11 12  1  0
 11 13  1  0
 11 14  1  0
 14 15  1  0
 15 16  2  0
 16 17  1  0
 17 18  1  0
 18 19  1  0
 18 20  2  0
 20 21  1  0
 20 22  1  0
 22 23  1  0
 23 24  2  0
 24 25  1  0
 24 26  1  0
 26 27  2  0
 27 28  1  0
 27 29  1  0
 29 30  1  0
 29 31  2  0
 31 32  1  0
 22 33  1  0
 33 34  2  0
 34 35  1  0
 14 36  1  0
 36 37  1  0
 36 38  1  0
 36 39  1  0
 39 40  1  0
 39 41  1  0
 39  6  1  0
 34 15  1  0
 33 17  1  0
 31 23  1  0
M  END
>  <cnnaffinity>  (1) 
-5.37828

>  <filename>  (1) 
OCC1CCN(c2cc3n(-c4cccnc4)ccn3n2)CC1

$$$$
