
     RDKit          3D

 38 40  0  0  0  0  0  0  0  0999 V2000
    5.0383   -6.1676   27.8822 H   0  0  0  0  0  0  0  0  0  0  0  0
    4.7277   -6.4689   27.0155 O   0  0  0  0  0  0  0  0  0  0  0  0
    4.2409   -5.3542   26.2867 C   0  0  0  0  0  0  0  0  0  0  0  0
    3.7885   -5.7828   25.3822 H   0  0  0  0  0  0  0  0  0  0  0  0
    3.4330   -4.8480   26.8413 H   0  0  0  0  0  0  0  0  0  0  0  0
    5.3291   -4.3346   25.8957 C   0  0  0  0  0  0  0  0  0  0  0  0
    5.8096   -4.0146   26.8401 H   0  0  0  0  0  0  0  0  0  0  0  0
    4.7479   -3.0847   25.1951 C   0  0  0  0  0  0  0  0  0  0  0  0
    4.2147   -3.4019   24.2843 H   0  0  0  0  0  0  0  0  0  0  0  0
    4.0134   -2.5976   25.8471 H   0  0  0  0  0  0  0  0  0  0  0  0
    5.8756   -2.0933   24.8477 C   0  0  0  0  0  0  0  0  0  0  0  0
    6.3615   -1.7953   25.7985 H   0  0  0  0  0  0  0  0  0  0  0  0
    5.5251   -1.1560   24.4051 H   0  0  0  0  0  0  0  0  0  0  0  0
    6.8475   -2.7397   23.9603 N   0  0  0  0  0  0  0  0  0  0  0  0
    7.4726   -2.0464   22.9515 C   0  0  0  0  0  0  0  0  0  0  0  0
    8.8055   -2.0860   22.9038 N   0  0  0  0  0  0  0  0  0  0  0  0
    9.3582   -1.3906   21.9167 C   0  0  0  0  0  0  0  0  0  0  0  0
   10.4469   -1.3691   21.8858 H   0  0  0  0  0  0  0  0  0  0  0  0
    8.7383   -0.7370   20.9425 N   0  0  0  0  0  0  0  0  0  0  0  0
    7.4009   -0.7263   20.9997 C   0  0  0  0  0  0  0  0  0  0  0  0
    6.6735    0.0008   19.9337 C   0  0  0  0  0  0  0  0  0  0  0  0
    7.1917    0.0475   18.6275 C   0  0  0  0  0  0  0  0  0  0  0  0
    8.1397   -0.4234   18.3785 H   0  0  0  0  0  0  0  0  0  0  0  0
    6.5782    0.6499   17.6033 N   0  0  0  0  0  0  0  0  0  0  0  0
    5.4184    1.2731   17.8545 C   0  0  0  0  0  0  0  0  0  0  0  0
    4.9538    1.7752   17.0084 H   0  0  0  0  0  0  0  0  0  0  0  0
    4.8181    1.3006   19.1177 C   0  0  0  0  0  0  0  0  0  0  0  0
    3.8828    1.8321   19.2570 H   0  0  0  0  0  0  0  0  0  0  0  0
    5.4494    0.6462   20.1749 C   0  0  0  0  0  0  0  0  0  0  0  0
    5.0014    0.6523   21.1724 H   0  0  0  0  0  0  0  0  0  0  0  0
    6.7100   -1.3769   21.9993 C   0  0  0  0  0  0  0  0  0  0  0  0
    5.6445   -1.4787   21.9803 H   0  0  0  0  0  0  0  0  0  0  0  0
    7.4769   -3.9149   24.5650 C   0  0  0  0  0  0  0  0  0  0  0  0
    8.1792   -4.3621   23.8543 H   0  0  0  0  0  0  0  0  0  0  0  0
    8.0715   -3.6128   25.4467 H   0  0  0  0  0  0  0  0  0  0  0  0
    6.4108   -4.9439   24.9791 C   0  0  0  0  0  0  0  0  0  0  0  0
    6.8886   -5.7943   25.4811 H   0  0  0  0  0  0  0  0  0  0  0  0
    5.9259   -5.3302   24.0678 H   0  0  0  0  0  0  0  0  0  0  0  0
  1  2  1  0
  2  3  1  0
  3  4  1  0
  3  5  1  0
  3  6  1  0
  6  7  1  0
  6  8  1  0
  8  9  1  0
  8 10  1  0
  8 11  1  0
 11 12  1  0
 11 13  1  0
 11 14  1  0
 14 15  1  0
 15 16  2  0
 16 17  1  0
 17 18  1  0
 17 19  2  0
 19 20  1  0
 20 21  1  0
 21 22  2  0
 22 23  1  0
 22 24  1  0
 24 25  2  0
 25 26  1  0
 25 27  1  0
 27 28  1  0
 27 29  2  0
 29 30  1  0
 20 31  2  0
 31 32  1  0
 14 33  1  0
 33 34  1  0
 33 35  1  0
 33 36  1  0
 36 37  1  0
 36 38  1  0
 36  6  1  0
 31 15  1  0
 29 21  1  0
M  END
>  <cnnaffinity>  (1) 
-4.93368

>  <filename>  (1) 
OCC1CCN(c2cc(-c3cccnc3)ncn2)CC1

$$$$
