
     RDKit          3D

 22 23  0  0  0  0  0  0  0  0999 V2000
    6.3576   -2.3534   24.6535 H   0  0  0  0  0  0  0  0  0  0  0  0
    7.2558   -2.6525   24.8297 O   0  0  0  0  0  0  0  0  0  0  0  0
    8.0982   -1.5940   24.4035 C   0  0  0  0  0  0  0  0  0  0  0  0
    9.1101   -1.8899   24.6839 H   0  0  0  0  0  0  0  0  0  0  0  0
    7.8707   -0.6516   24.9330 H   0  0  0  0  0  0  0  0  0  0  0  0
    8.0596   -1.3958   22.9230 C   0  0  0  0  0  0  0  0  0  0  0  0
    8.7692   -1.9972   21.9221 C   0  0  0  0  0  0  0  0  0  0  0  0
    9.5525   -2.7362   22.0190 H   0  0  0  0  0  0  0  0  0  0  0  0
    8.3754   -1.5618   20.6908 N   0  0  0  0  0  0  0  0  0  0  0  0
    7.4056   -0.7051   20.9141 C   0  0  0  0  0  0  0  0  0  0  0  0
    6.6475    0.0225   19.9020 C   0  0  0  0  0  0  0  0  0  0  0  0
    7.1643    0.0583   18.5967 C   0  0  0  0  0  0  0  0  0  0  0  0
    8.1097   -0.4300   18.3770 H   0  0  0  0  0  0  0  0  0  0  0  0
    6.5624    0.6734   17.5786 N   0  0  0  0  0  0  0  0  0  0  0  0
    5.4016    1.2936   17.8329 C   0  0  0  0  0  0  0  0  0  0  0  0
    4.9312    1.7858   16.9883 H   0  0  0  0  0  0  0  0  0  0  0  0
    4.7991    1.3158   19.0962 C   0  0  0  0  0  0  0  0  0  0  0  0
    3.8679    1.8464   19.2477 H   0  0  0  0  0  0  0  0  0  0  0  0
    5.4232    0.6676   20.1580 C   0  0  0  0  0  0  0  0  0  0  0  0
    4.9658    0.6521   21.1543 H   0  0  0  0  0  0  0  0  0  0  0  0
    7.1726   -0.5743   22.2483 N   0  0  0  0  0  0  0  0  0  0  0  0
    6.4932    0.0577   22.6296 H   0  0  0  0  0  0  0  0  0  0  0  0
  1  2  1  0
  2  3  1  0
  3  4  1  0
  3  5  1  0
  3  6  1  0
  6  7  2  0
  7  8  1  0
  7  9  1  0
  9 10  2  0
 10 11  1  0
 11 12  2  0
 12 13  1  0
 12 14  1  0
 14 15  2  0
 15 16  1  0
 15 17  1  0
 17 18  1  0
 17 19  2  0
 19 20  1  0
 10 21  1  0
 21 22  1  0
 21  6  1  0
 19 11  1  0
M  END
>  <cnnaffinity>  (1) 
-4.17532

>  <filename>  (1) 
OCc1cnc(-c2cccnc2)[nH]1

$$$$
