
     RDKit          3D

 35 36  0  0  0  0  0  0  0  0999 V2000
    8.0310    5.8959   25.0964 H   0  0  0  0  0  0  0  0  0  0  0  0
    7.2955    5.5154   25.5920 O   0  0  0  0  0  0  0  0  0  0  0  0
    7.5482    4.1315   25.7783 C   0  0  0  0  0  0  0  0  0  0  0  0
    6.8995    3.8308   26.6089 H   0  0  0  0  0  0  0  0  0  0  0  0
    8.5949    3.9582   26.0844 H   0  0  0  0  0  0  0  0  0  0  0  0
    7.2414    3.2558   24.5507 C   0  0  0  0  0  0  0  0  0  0  0  0
    6.1985    3.4693   24.2573 H   0  0  0  0  0  0  0  0  0  0  0  0
    7.3776    1.7577   24.8859 C   0  0  0  0  0  0  0  0  0  0  0  0
    6.6986    1.4833   25.7028 H   0  0  0  0  0  0  0  0  0  0  0  0
    8.4017    1.5539   25.2367 H   0  0  0  0  0  0  0  0  0  0  0  0
    7.0723    0.8633   23.6724 C   0  0  0  0  0  0  0  0  0  0  0  0
    7.2761   -0.1834   23.9219 H   0  0  0  0  0  0  0  0  0  0  0  0
    5.9968    0.9414   23.4271 H   0  0  0  0  0  0  0  0  0  0  0  0
    7.9108    1.2457   22.5321 N   0  0  0  0  0  0  0  0  0  0  0  0
    8.4076    0.3467   21.6215 C   0  0  0  0  0  0  0  0  0  0  0  0
    9.9442    0.4547   21.0596 S   0  0  0  0  0  0  0  0  0  0  0  0
    7.4204   -0.6783   21.0488 C   0  0  0  0  0  0  0  0  0  0  0  0
    6.7412   -1.0373   21.8301 H   0  0  0  0  0  0  0  0  0  0  0  0
    8.0096   -1.5301   20.7021 H   0  0  0  0  0  0  0  0  0  0  0  0
    6.6310   -0.0314   19.9021 C   0  0  0  0  0  0  0  0  0  0  0  0
    7.1439    0.0401   18.5929 C   0  0  0  0  0  0  0  0  0  0  0  0
    8.1062   -0.4162   18.3589 H   0  0  0  0  0  0  0  0  0  0  0  0
    6.5466    0.6724   17.5737 N   0  0  0  0  0  0  0  0  0  0  0  0
    5.3899    1.3025   17.8267 C   0  0  0  0  0  0  0  0  0  0  0  0
    4.9293    1.8116   16.9798 H   0  0  0  0  0  0  0  0  0  0  0  0
    4.7916    1.3177   19.0879 C   0  0  0  0  0  0  0  0  0  0  0  0
    3.8612    1.8577   19.2315 H   0  0  0  0  0  0  0  0  0  0  0  0
    5.4258    0.6436   20.1403 C   0  0  0  0  0  0  0  0  0  0  0  0
    4.9935    0.6501   21.1434 H   0  0  0  0  0  0  0  0  0  0  0  0
    7.8766    2.6689   22.1621 C   0  0  0  0  0  0  0  0  0  0  0  0
    6.8814    2.9109   21.7438 H   0  0  0  0  0  0  0  0  0  0  0  0
    8.6231    2.8350   21.3771 H   0  0  0  0  0  0  0  0  0  0  0  0
    8.1630    3.5729   23.3602 C   0  0  0  0  0  0  0  0  0  0  0  0
    8.0341    4.6180   23.0452 H   0  0  0  0  0  0  0  0  0  0  0  0
    9.2154    3.4447   23.6608 H   0  0  0  0  0  0  0  0  0  0  0  0
  1  2  1  0
  2  3  1  0
  3  4  1  0
  3  5  1  0
  3  6  1  0
  6  7  1  0
  6  8  1  0
  8  9  1  0
  8 10  1  0
  8 11  1  0
 11 12  1  0
 11 13  1  0
 11 14  1  0
 14 15  1  0
 15 16  2  0
 15 17  1  0
 17 18  1  0
 17 19  1  0
 17 20  1  0
 20 21  2  0
 21 22  1  0
 21 23  1  0
 23 24  2  0
 24 25  1  0
 24 26  1  0
 26 27  1  0
 26 28  2  0
 28 29  1  0
 14 30  1  0
 30 31  1  0
 30 32  1  0
 30 33  1  0
 33 34  1  0
 33 35  1  0
 33  6  1  0
 28 20  1  0
M  END
>  <cnnaffinity>  (1) 
-4.62462

>  <filename>  (1) 
OCC1CCN(C(=S)Cc2cccnc2)CC1

$$$$
