
     RDKit          3D

 39 41  0  0  0  0  0  0  0  0999 V2000
    9.3256   -6.1308   26.6740 H   0  0  0  0  0  0  0  0  0  0  0  0
    8.8394   -6.2107   25.8406 O   0  0  0  0  0  0  0  0  0  0  0  0
    8.1839   -4.9744   25.6163 C   0  0  0  0  0  0  0  0  0  0  0  0
    7.3828   -4.8140   26.3603 H   0  0  0  0  0  0  0  0  0  0  0  0
    7.6925   -5.0798   24.6412 H   0  0  0  0  0  0  0  0  0  0  0  0
    9.1675   -3.7875   25.6276 C   0  0  0  0  0  0  0  0  0  0  0  0
    9.6478   -3.7950   26.6199 H   0  0  0  0  0  0  0  0  0  0  0  0
   10.2786   -3.9243   24.5683 C   0  0  0  0  0  0  0  0  0  0  0  0
   10.6837   -4.9428   24.5622 H   0  0  0  0  0  0  0  0  0  0  0  0
   11.0996   -3.2496   24.8371 H   0  0  0  0  0  0  0  0  0  0  0  0
    9.8083   -3.5842   23.1511 C   0  0  0  0  0  0  0  0  0  0  0  0
    9.2343   -4.4260   22.7297 H   0  0  0  0  0  0  0  0  0  0  0  0
   10.6998   -3.4485   22.5325 H   0  0  0  0  0  0  0  0  0  0  0  0
    9.0296   -2.3557   23.0838 N   0  0  0  0  0  0  0  0  0  0  0  0
    9.3513   -1.3646   22.1714 C   0  0  0  0  0  0  0  0  0  0  0  0
    8.6429   -0.5700   21.2638 C   0  0  0  0  0  0  0  0  0  0  0  0
    7.2759   -0.6196   20.9222 N   0  0  0  0  0  0  0  0  0  0  0  0
    6.6876   -1.1200   21.5755 H   0  0  0  0  0  0  0  0  0  0  0  0
    6.6253    0.0234   19.8515 C   0  0  0  0  0  0  0  0  0  0  0  0
    7.1278    0.0656   18.5235 C   0  0  0  0  0  0  0  0  0  0  0  0
    8.0489   -0.4669   18.2871 H   0  0  0  0  0  0  0  0  0  0  0  0
    6.5286    0.7012   17.5029 N   0  0  0  0  0  0  0  0  0  0  0  0
    5.3740    1.3355   17.7655 C   0  0  0  0  0  0  0  0  0  0  0  0
    4.9148    1.8678   16.9356 H   0  0  0  0  0  0  0  0  0  0  0  0
    4.7676    1.3202   19.0271 C   0  0  0  0  0  0  0  0  0  0  0  0
    3.8302    1.8433   19.1758 H   0  0  0  0  0  0  0  0  0  0  0  0
    5.3877    0.6446   20.0824 C   0  0  0  0  0  0  0  0  0  0  0  0
    4.9461    0.6218   21.0802 H   0  0  0  0  0  0  0  0  0  0  0  0
    9.6337    0.2841   20.7220 C   0  0  0  0  0  0  0  0  0  0  0  0
    9.4813    1.0639   19.9914 H   0  0  0  0  0  0  0  0  0  0  0  0
   10.8478    0.0452   21.1969 N   0  0  0  0  0  0  0  0  0  0  0  0
   10.6548   -0.9732   22.0536 N   0  0  0  0  0  0  0  0  0  0  0  0
   11.4165   -1.3456   22.5991 H   0  0  0  0  0  0  0  0  0  0  0  0
    7.9402   -2.2066   24.0361 C   0  0  0  0  0  0  0  0  0  0  0  0
    7.1316   -2.9291   23.8291 H   0  0  0  0  0  0  0  0  0  0  0  0
    7.5141   -1.2013   23.9446 H   0  0  0  0  0  0  0  0  0  0  0  0
    8.4829   -2.4166   25.4570 C   0  0  0  0  0  0  0  0  0  0  0  0
    7.6758   -2.2900   26.1862 H   0  0  0  0  0  0  0  0  0  0  0  0
    9.2231   -1.6283   25.6534 H   0  0  0  0  0  0  0  0  0  0  0  0
  1  2  1  0
  2  3  1  0
  3  4  1  0
  3  5  1  0
  3  6  1  0
  6  7  1  0
  6  8  1  0
  8  9  1  0
  8 10  1  0
  8 11  1  0
 11 12  1  0
 11 13  1  0
 11 14  1  0
 14 15  1  0
 15 16  2  0
 16 17  1  0
 17 18  1  0
 17 19  1  0
 19 20  2  0
 20 21  1  0
 20 22  1  0
 22 23  2  0
 23 24  1  0
 23 25  1  0
 25 26  1  0
 25 27  2  0
 27 28  1  0
 16 29  1  0
 29 30  1  0
 29 31  2  0
 31 32  1  0
 32 33  1  0
 14 34  1  0
 34 35  1  0
 34 36  1  0
 34 37  1  0
 37 38  1  0
 37 39  1  0
 37  6  1  0
 32 15  1  0
 27 19  1  0
M  END
>  <cnnaffinity>  (1) 
-5.43113

>  <filename>  (1) 
OCC1CCN(c2[nH]ncc2Nc2cccnc2)CC1

$$$$
