
     RDKit          3D

 36 38  0  0  0  0  0  0  0  0999 V2000
    5.7492    3.2019   26.7615 H   0  0  0  0  0  0  0  0  0  0  0  0
    6.4084    3.8711   26.5462 O   0  0  0  0  0  0  0  0  0  0  0  0
    6.7088    3.7318   25.1672 C   0  0  0  0  0  0  0  0  0  0  0  0
    5.8060    3.4813   24.5929 H   0  0  0  0  0  0  0  0  0  0  0  0
    7.0254    4.7231   24.8309 H   0  0  0  0  0  0  0  0  0  0  0  0
    7.8380    2.7253   24.8859 C   0  0  0  0  0  0  0  0  0  0  0  0
    8.6781    3.0589   25.5080 H   0  0  0  0  0  0  0  0  0  0  0  0
    7.4813    1.2811   25.2940 C   0  0  0  0  0  0  0  0  0  0  0  0
    8.3854    0.6643   25.2878 H   0  0  0  0  0  0  0  0  0  0  0  0
    7.0934    1.2696   26.3174 H   0  0  0  0  0  0  0  0  0  0  0  0
    6.4848    0.6349   24.3320 C   0  0  0  0  0  0  0  0  0  0  0  0
    6.3027   -0.4137   24.5716 H   0  0  0  0  0  0  0  0  0  0  0  0
    5.5136    1.1482   24.3954 H   0  0  0  0  0  0  0  0  0  0  0  0
    6.9899    0.7229   22.9740 N   0  0  0  0  0  0  0  0  0  0  0  0
    7.4052   -0.3695   22.2728 C   0  0  0  0  0  0  0  0  0  0  0  0
    8.0967   -1.3529   22.9157 O   0  0  0  0  0  0  0  0  0  0  0  0
    8.4558   -2.2044   21.9247 C   0  0  0  0  0  0  0  0  0  0  0  0
    9.0189   -3.0811   22.2125 H   0  0  0  0  0  0  0  0  0  0  0  0
    8.0737   -1.8719   20.7424 N   0  0  0  0  0  0  0  0  0  0  0  0
    7.3622   -0.6956   20.9390 C   0  0  0  0  0  0  0  0  0  0  0  0
    6.6442   -0.0018   19.8810 C   0  0  0  0  0  0  0  0  0  0  0  0
    7.1662    0.0414   18.5770 C   0  0  0  0  0  0  0  0  0  0  0  0
    8.1180   -0.4348   18.3603 H   0  0  0  0  0  0  0  0  0  0  0  0
    6.5661    0.6754   17.5661 N   0  0  0  0  0  0  0  0  0  0  0  0
    5.4060    1.2942   17.8332 C   0  0  0  0  0  0  0  0  0  0  0  0
    4.9279    1.7878   16.9916 H   0  0  0  0  0  0  0  0  0  0  0  0
    4.8029    1.3129   19.0980 C   0  0  0  0  0  0  0  0  0  0  0  0
    3.8720    1.8433   19.2481 H   0  0  0  0  0  0  0  0  0  0  0  0
    5.4323    0.6554   20.1502 C   0  0  0  0  0  0  0  0  0  0  0  0
    5.0100    0.6348   21.1594 H   0  0  0  0  0  0  0  0  0  0  0  0
    7.2602    2.0688   22.4859 C   0  0  0  0  0  0  0  0  0  0  0  0
    6.3385    2.6716   22.4342 H   0  0  0  0  0  0  0  0  0  0  0  0
    7.6371    2.0005   21.4619 H   0  0  0  0  0  0  0  0  0  0  0  0
    8.2781    2.7549   23.4056 C   0  0  0  0  0  0  0  0  0  0  0  0
    8.4474    3.7854   23.0749 H   0  0  0  0  0  0  0  0  0  0  0  0
    9.2358    2.2349   23.2934 H   0  0  0  0  0  0  0  0  0  0  0  0
  1  2  1  0
  2  3  1  0
  3  4  1  0
  3  5  1  0
  3  6  1  0
  6  7  1  0
  6  8  1  0
  8  9  1  0
  8 10  1  0
  8 11  1  0
 11 12  1  0
 11 13  1  0
 11 14  1  0
 14 15  1  0
 15 16  1  0
 16 17  1  0
 17 18  1  0
 17 19  2  0
 19 20  1  0
 20 21  1  0
 21 22  2  0
 22 23  1  0
 22 24  1  0
 24 25  2  0
 25 26  1  0
 25 27  1  0
 27 28  1  0
 27 29  2  0
 29 30  1  0
 14 31  1  0
 31 32  1  0
 31 33  1  0
 31 34  1  0
 34 35  1  0
 34 36  1  0
 34  6  1  0
 20 15  2  0
 29 21  1  0
M  END
>  <cnnaffinity>  (1) 
-4.83272

>  <filename>  (1) 
OCC1CCN(c2ocnc2-c2cccnc2)CC1

$$$$
