
     RDKit          3D

 34 36  0  0  0  0  0  0  0  0999 V2000
    9.0911    1.7179   20.7279 O   0  0  0  0  0  0  0  0  0  0  0  0
    9.6064    0.4036   20.8213 C   0  0  0  0  0  0  0  0  0  0  0  0
    8.6498   -0.5801   21.3997 C   0  0  0  0  0  0  0  0  0  0  0  0
    8.8653   -1.4102   22.3908 N   0  0  0  0  0  0  0  0  0  0  0  0
    7.6444   -1.9749   22.5841 C   0  0  0  0  0  0  0  0  0  0  0  0
    7.4124   -2.9512   23.6631 C   0  0  0  0  0  0  0  0  0  0  0  0
    8.4560   -3.3140   24.5416 C   0  0  0  0  0  0  0  0  0  0  0  0
    8.2277   -4.2455   25.5476 C   0  0  0  0  0  0  0  0  0  0  0  0
    6.9578   -4.8332   25.6893 C   0  0  0  0  0  0  0  0  0  0  0  0
    6.6945   -5.8100   26.8179 C   0  0  0  0  0  0  0  0  0  0  0  0
    5.7370   -6.7075   26.5066 F   0  0  0  0  0  0  0  0  0  0  0  0
    7.7983   -6.5001   27.1582 F   0  0  0  0  0  0  0  0  0  0  0  0
    6.2800   -5.1803   27.9360 F   0  0  0  0  0  0  0  0  0  0  0  0
    5.9138   -4.4576   24.8278 C   0  0  0  0  0  0  0  0  0  0  0  0
    6.1381   -3.5268   23.8226 C   0  0  0  0  0  0  0  0  0  0  0  0
    5.3304   -3.2341   23.1563 H   0  0  0  0  0  0  0  0  0  0  0  0
    4.9224   -4.8879   24.9409 H   0  0  0  0  0  0  0  0  0  0  0  0
    9.0366   -4.5167   26.2240 H   0  0  0  0  0  0  0  0  0  0  0  0
    9.4439   -2.8696   24.4396 H   0  0  0  0  0  0  0  0  0  0  0  0
    6.7102   -1.5610   21.7428 N   0  0  0  0  0  0  0  0  0  0  0  0
    7.3641   -0.6793   20.9531 N   0  0  0  0  0  0  0  0  0  0  0  0
    6.6713    0.0141   19.9132 C   0  0  0  0  0  0  0  0  0  0  0  0
    5.4449    0.6418   20.1700 C   0  0  0  0  0  0  0  0  0  0  0  0
    4.8138    1.3069   19.1128 C   0  0  0  0  0  0  0  0  0  0  0  0
    5.4033    1.2931   17.8410 C   0  0  0  0  0  0  0  0  0  0  0  0
    6.5626    0.6712   17.5815 N   0  0  0  0  0  0  0  0  0  0  0  0
    7.1753    0.0576   18.6008 C   0  0  0  0  0  0  0  0  0  0  0  0
    8.1141   -0.4354   18.3648 H   0  0  0  0  0  0  0  0  0  0  0  0
    4.9236    1.7831   16.9953 H   0  0  0  0  0  0  0  0  0  0  0  0
    3.8813    1.8381   19.2613 H   0  0  0  0  0  0  0  0  0  0  0  0
    5.0166    0.6076   21.1750 H   0  0  0  0  0  0  0  0  0  0  0  0
   10.5464    0.3432   21.3833 H   0  0  0  0  0  0  0  0  0  0  0  0
    9.7768    0.0713   19.7979 H   0  0  0  0  0  0  0  0  0  0  0  0
    9.0281    2.1064   21.6118 H   0  0  0  0  0  0  0  0  0  0  0  0
  1  2  1  0
  2  3  1  0
  3  4  2  0
  4  5  1  0
  5  6  1  0
  6  7  2  0
  7  8  1  0
  8  9  2  0
  9 10  1  0
 10 11  1  0
 10 12  1  0
 10 13  1  0
  9 14  1  0
 14 15  2  0
 15 16  1  0
 14 17  1  0
  8 18  1  0
  7 19  1  0
  5 20  2  0
 20 21  1  0
 21 22  1  0
 22 23  2  0
 23 24  1  0
 24 25  2  0
 25 26  1  0
 26 27  2  0
 27 28  1  0
 25 29  1  0
 24 30  1  0
 23 31  1  0
  2 32  1  0
  2 33  1  0
  1 34  1  0
 21  3  1  0
 27 22  1  0
 15  6  1  0
M  END
>  <cnnaffinity>  (1) 
-5.11489

>  <filename>  (1) 
OCc1nc(-c2ccc(C(F)(F)F)cc2)nn1-c1cccnc1

$$$$
