
     RDKit          3D

 33 35  0  0  0  0  0  0  0  0999 V2000
    9.7268   -4.4389   27.6895 H   0  0  0  0  0  0  0  0  0  0  0  0
   10.3538   -4.5896   26.9691 O   0  0  0  0  0  0  0  0  0  0  0  0
    9.6940   -5.3373   25.9598 C   0  0  0  0  0  0  0  0  0  0  0  0
    9.3981   -6.3290   26.3415 H   0  0  0  0  0  0  0  0  0  0  0  0
   10.4606   -5.4974   25.1916 H   0  0  0  0  0  0  0  0  0  0  0  0
    8.4848   -4.6251   25.3664 C   0  0  0  0  0  0  0  0  0  0  0  0
    7.1927   -4.8498   25.8784 C   0  0  0  0  0  0  0  0  0  0  0  0
    7.0492   -5.5629   26.6917 H   0  0  0  0  0  0  0  0  0  0  0  0
    6.0907   -4.1629   25.3547 C   0  0  0  0  0  0  0  0  0  0  0  0
    5.0949   -4.3362   25.7564 H   0  0  0  0  0  0  0  0  0  0  0  0
    6.2706   -3.2536   24.3129 C   0  0  0  0  0  0  0  0  0  0  0  0
    5.4229   -2.7093   23.9081 H   0  0  0  0  0  0  0  0  0  0  0  0
    7.5466   -3.0143   23.7730 C   0  0  0  0  0  0  0  0  0  0  0  0
    7.6704   -2.0687   22.6567 C   0  0  0  0  0  0  0  0  0  0  0  0
    6.7324   -1.6037   21.7935 C   0  0  0  0  0  0  0  0  0  0  0  0
    5.6838   -1.8380   21.6869 H   0  0  0  0  0  0  0  0  0  0  0  0
    7.3326   -0.6827   20.9459 N   0  0  0  0  0  0  0  0  0  0  0  0
    6.6526    0.0001   19.8889 C   0  0  0  0  0  0  0  0  0  0  0  0
    7.1720    0.0420   18.5788 C   0  0  0  0  0  0  0  0  0  0  0  0
    8.1253   -0.4340   18.3546 H   0  0  0  0  0  0  0  0  0  0  0  0
    6.5514    0.6579   17.5656 N   0  0  0  0  0  0  0  0  0  0  0  0
    5.3975    1.2892   17.8337 C   0  0  0  0  0  0  0  0  0  0  0  0
    4.9348    1.7997   16.9958 H   0  0  0  0  0  0  0  0  0  0  0  0
    4.8049    1.3114   19.1023 C   0  0  0  0  0  0  0  0  0  0  0  0
    3.8738    1.8465   19.2565 H   0  0  0  0  0  0  0  0  0  0  0  0
    5.4417    0.6471   20.1536 C   0  0  0  0  0  0  0  0  0  0  0  0
    5.0408    0.6340   21.1706 H   0  0  0  0  0  0  0  0  0  0  0  0
    8.6522   -0.5155   21.3082 C   0  0  0  0  0  0  0  0  0  0  0  0
    9.8108    0.5492   20.7925 S   0  0  0  0  0  0  0  0  0  0  0  0
    8.8439   -1.4149   22.3025 N   0  0  0  0  0  0  0  0  0  0  0  0
    9.7465   -1.3997   22.7455 H   0  0  0  0  0  0  0  0  0  0  0  0
    8.6434   -3.7036   24.3194 C   0  0  0  0  0  0  0  0  0  0  0  0
    9.6415   -3.5280   23.9227 H   0  0  0  0  0  0  0  0  0  0  0  0
  1  2  1  0
  2  3  1  0
  3  4  1  0
  3  5  1  0
  3  6  1  0
  6  7  2  0
  7  8  1  0
  7  9  1  0
  9 10  1  0
  9 11  2  0
 11 12  1  0
 11 13  1  0
 13 14  1  0
 14 15  2  0
 15 16  1  0
 15 17  1  0
 17 18  1  0
 18 19  2  0
 19 20  1  0
 19 21  1  0
 21 22  2  0
 22 23  1  0
 22 24  1  0
 24 25  1  0
 24 26  2  0
 26 27  1  0
 17 28  1  0
 28 29  2  0
 28 30  1  0
 30 31  1  0
 13 32  2  0
 32 33  1  0
 32  6  1  0
 30 14  1  0
 26 18  1  0
M  END
>  <cnnaffinity>  (1) 
-5.32027

>  <filename>  (1) 
OCc1cccc(-c2cn(-c3cccnc3)c(=S)[nH]2)c1

$$$$
