
     RDKit          3D

 44 46  0  0  0  0  0  0  0  0999 V2000
   10.2559   -6.6788   26.9393 H   0  0  0  0  0  0  0  0  0  0  0  0
   10.3571   -6.5250   25.9877 O   0  0  0  0  0  0  0  0  0  0  0  0
    9.1349   -6.0164   25.4928 C   0  0  0  0  0  0  0  0  0  0  0  0
    9.3252   -5.6925   24.4593 H   0  0  0  0  0  0  0  0  0  0  0  0
    8.3645   -6.7999   25.4566 H   0  0  0  0  0  0  0  0  0  0  0  0
    8.6278   -4.8497   26.3498 C   0  0  0  0  0  0  0  0  0  0  0  0
    8.6186   -5.2442   27.3782 H   0  0  0  0  0  0  0  0  0  0  0  0
    9.6196   -3.6761   26.3074 C   0  0  0  0  0  0  0  0  0  0  0  0
    9.4530   -3.0373   27.1814 H   0  0  0  0  0  0  0  0  0  0  0  0
   10.6213   -4.1039   26.4046 H   0  0  0  0  0  0  0  0  0  0  0  0
    9.5559   -2.8337   25.0125 C   0  0  0  0  0  0  0  0  0  0  0  0
    9.7282   -1.7736   25.2605 H   0  0  0  0  0  0  0  0  0  0  0  0
   10.3540   -3.1211   24.3162 H   0  0  0  0  0  0  0  0  0  0  0  0
    8.2957   -2.9717   24.2804 N   0  0  0  0  0  0  0  0  0  0  0  0
    8.2435   -2.0817   23.1875 N   0  0  0  0  0  0  0  0  0  0  0  0
    7.7005   -2.7708   22.0160 C   0  0  0  0  0  0  0  0  0  0  0  0
    6.6807   -3.1468   22.2055 H   0  0  0  0  0  0  0  0  0  0  0  0
    8.3425   -3.6349   21.8445 H   0  0  0  0  0  0  0  0  0  0  0  0
    7.6872   -1.8931   20.7594 C   0  0  0  0  0  0  0  0  0  0  0  0
    8.7230   -1.7838   20.3801 H   0  0  0  0  0  0  0  0  0  0  0  0
    7.0895   -2.3989   19.9929 H   0  0  0  0  0  0  0  0  0  0  0  0
    7.0491   -0.6046   21.0179 N   0  0  0  0  0  0  0  0  0  0  0  0
    6.5444    0.1305   19.9075 C   0  0  0  0  0  0  0  0  0  0  0  0
    7.0996    0.1021   18.6024 C   0  0  0  0  0  0  0  0  0  0  0  0
    8.0198   -0.4560   18.4220 H   0  0  0  0  0  0  0  0  0  0  0  0
    6.5655    0.7119   17.5327 N   0  0  0  0  0  0  0  0  0  0  0  0
    5.4200    1.3900   17.7127 C   0  0  0  0  0  0  0  0  0  0  0  0
    5.0054    1.8723   16.8296 H   0  0  0  0  0  0  0  0  0  0  0  0
    4.7845    1.4987   18.9543 C   0  0  0  0  0  0  0  0  0  0  0  0
    3.8584    2.0575   19.0409 H   0  0  0  0  0  0  0  0  0  0  0  0
    5.3665    0.8844   20.0725 C   0  0  0  0  0  0  0  0  0  0  0  0
    4.9294    0.9320   21.0667 H   0  0  0  0  0  0  0  0  0  0  0  0
    7.7147    0.0870   22.1338 C   0  0  0  0  0  0  0  0  0  0  0  0
    8.7872    0.2617   21.9307 H   0  0  0  0  0  0  0  0  0  0  0  0
    7.2485    1.0675   22.2846 H   0  0  0  0  0  0  0  0  0  0  0  0
    7.5994   -0.7684   23.4056 C   0  0  0  0  0  0  0  0  0  0  0  0
    8.0974   -0.2607   24.2390 H   0  0  0  0  0  0  0  0  0  0  0  0
    6.5359   -0.8770   23.6734 H   0  0  0  0  0  0  0  0  0  0  0  0
    7.1073   -3.1150   25.1321 C   0  0  0  0  0  0  0  0  0  0  0  0
    6.9815   -2.2449   25.8038 H   0  0  0  0  0  0  0  0  0  0  0  0
    6.2143   -3.1531   24.4952 H   0  0  0  0  0  0  0  0  0  0  0  0
    7.1918   -4.4192   25.9585 C   0  0  0  0  0  0  0  0  0  0  0  0
    6.5820   -4.2982   26.8609 H   0  0  0  0  0  0  0  0  0  0  0  0
    6.7199   -5.2275   25.3870 H   0  0  0  0  0  0  0  0  0  0  0  0
  1  2  1  0
  2  3  1  0
  3  4  1  0
  3  5  1  0
  3  6  1  0
  6  7  1  0
  6  8  1  0
  8  9  1  0
  8 10  1  0
  8 11  1  0
 11 12  1  0
 11 13  1  0
 11 14  1  0
 14 15  1  0
 15 16  1  0
 16 17  1  0
 16 18  1  0
 16 19  1  0
 19 20  1  0
 19 21  1  0
 19 22  1  0
 22 23  1  0
 23 24  2  0
 24 25  1  0
 24 26  1  0
 26 27  2  0
 27 28  1  0
 27 29  1  0
 29 30  1  0
 29 31  2  0
 31 32  1  0
 22 33  1  0
 33 34  1  0
 33 35  1  0
 33 36  1  0
 36 37  1  0
 36 38  1  0
 14 39  1  0
 39 40  1  0
 39 41  1  0
 39 42  1  0
 42 43  1  0
 42 44  1  0
 42  6  1  0
 36 15  1  0
 31 23  1  0
M  END
>  <cnnaffinity>  (1) 
-4.78493

>  <filename>  (1) 
OCC1CCN(N2CCN(c3cccnc3)CC2)CC1

$$$$
