
     RDKit          3D

 39 41  0  0  0  0  0  0  0  0999 V2000
    8.5497   -6.0710   22.0523 O   0  0  0  0  0  0  0  0  0  0  0  0
    8.4666   -4.7492   22.5299 C   0  0  0  0  0  0  0  0  0  0  0  0
    7.0953   -4.4165   23.1089 C   0  0  0  0  0  0  0  0  0  0  0  0
    7.0869   -2.9815   23.6768 C   0  0  0  0  0  0  0  0  0  0  0  0
    7.3819   -1.9322   22.6382 C   0  0  0  0  0  0  0  0  0  0  0  0
    6.5309   -1.5943   21.6941 N   0  0  0  0  0  0  0  0  0  0  0  0
    7.2472   -0.7342   20.9169 N   0  0  0  0  0  0  0  0  0  0  0  0
    6.5833   -0.0516   19.8553 C   0  0  0  0  0  0  0  0  0  0  0  0
    5.3812    0.6184   20.1073 C   0  0  0  0  0  0  0  0  0  0  0  0
    4.7867    1.3296   19.0614 C   0  0  0  0  0  0  0  0  0  0  0  0
    5.3954    1.3190   17.7997 C   0  0  0  0  0  0  0  0  0  0  0  0
    6.5197    0.6387   17.5354 N   0  0  0  0  0  0  0  0  0  0  0  0
    7.0918   -0.0325   18.5450 C   0  0  0  0  0  0  0  0  0  0  0  0
    7.9925   -0.5934   18.3100 H   0  0  0  0  0  0  0  0  0  0  0  0
    4.9534    1.8703   16.9706 H   0  0  0  0  0  0  0  0  0  0  0  0
    3.8712    1.8888   19.2161 H   0  0  0  0  0  0  0  0  0  0  0  0
    4.9352    0.5689   21.1024 H   0  0  0  0  0  0  0  0  0  0  0  0
    8.5015   -0.5892   21.4529 C   0  0  0  0  0  0  0  0  0  0  0  0
    9.6604    0.1856   20.8893 C   0  0  0  0  0  0  0  0  0  0  0  0
   10.3741    1.0337   21.9296 C   0  0  0  0  0  0  0  0  0  0  0  0
    9.7828    2.1671   22.5165 C   0  0  0  0  0  0  0  0  0  0  0  0
    8.2448    2.7508   21.9606 Cl  0  0  0  0  0  0  0  0  0  0  0  0
   10.4300    2.8622   23.5488 C   0  0  0  0  0  0  0  0  0  0  0  0
   11.6290    2.4928   24.0207 N   0  0  0  0  0  0  0  0  0  0  0  0
   12.2379    1.4412   23.4534 C   0  0  0  0  0  0  0  0  0  0  0  0
   11.6508    0.7171   22.4112 C   0  0  0  0  0  0  0  0  0  0  0  0
   12.3409   -0.2986   21.8611 F   0  0  0  0  0  0  0  0  0  0  0  0
   13.2117    1.1385   23.8357 H   0  0  0  0  0  0  0  0  0  0  0  0
    9.9522    3.7299   24.0029 H   0  0  0  0  0  0  0  0  0  0  0  0
   10.3729   -0.5422   20.4838 H   0  0  0  0  0  0  0  0  0  0  0  0
    9.3143    0.8263   20.0744 H   0  0  0  0  0  0  0  0  0  0  0  0
    8.6004   -1.3374   22.5396 N   0  0  0  0  0  0  0  0  0  0  0  0
    6.1348   -2.7662   24.1747 H   0  0  0  0  0  0  0  0  0  0  0  0
    7.8828   -2.9037   24.4247 H   0  0  0  0  0  0  0  0  0  0  0  0
    6.8782   -5.1363   23.9105 H   0  0  0  0  0  0  0  0  0  0  0  0
    6.3197   -4.5360   22.3396 H   0  0  0  0  0  0  0  0  0  0  0  0
    9.2070   -4.6770   23.3346 H   0  0  0  0  0  0  0  0  0  0  0  0
    8.7649   -4.0163   21.7592 H   0  0  0  0  0  0  0  0  0  0  0  0
    7.9966   -6.1411   21.2664 H   0  0  0  0  0  0  0  0  0  0  0  0
  1  2  1  0
  2  3  1  0
  3  4  1  0
  4  5  1  0
  5  6  2  0
  6  7  1  0
  7  8  1  0
  8  9  2  0
  9 10  1  0
 10 11  2  0
 11 12  1  0
 12 13  2  0
 13 14  1  0
 11 15  1  0
 10 16  1  0
  9 17  1  0
  7 18  1  0
 18 19  1  0
 19 20  1  0
 20 21  2  0
 21 22  1  0
 21 23  1  0
 23 24  2  0
 24 25  1  0
 25 26  2  0
 26 27  1  0
 25 28  1  0
 23 29  1  0
 19 30  1  0
 19 31  1  0
 18 32  2  0
  4 33  1  0
  4 34  1  0
  3 35  1  0
  3 36  1  0
  2 37  1  0
  2 38  1  0
  1 39  1  0
 32  5  1  0
 13  8  1  0
 26 20  1  0
M  END
>  <cnnaffinity>  (1) 
-6.52221

>  <filename>  (1) 
OCCCc1nc(Cc2c(F)cncc2Cl)n(-c2cccnc2)n1

$$$$
