
     RDKit          3D

 27 28  0  0  0  0  0  0  0  0999 V2000
   11.1585    0.4557   21.4183 H   0  0  0  0  0  0  0  0  0  0  0  0
   10.8782    0.4491   22.3408 O   0  0  0  0  0  0  0  0  0  0  0  0
   11.4496   -0.6803   22.9612 C   0  0  0  0  0  0  0  0  0  0  0  0
   12.5522   -0.6191   22.9903 H   0  0  0  0  0  0  0  0  0  0  0  0
   11.0963   -0.6395   24.0005 H   0  0  0  0  0  0  0  0  0  0  0  0
   11.0583   -1.9840   22.2631 C   0  0  0  0  0  0  0  0  0  0  0  0
   11.2384   -1.8348   21.1847 H   0  0  0  0  0  0  0  0  0  0  0  0
   11.7294   -2.7861   22.5985 H   0  0  0  0  0  0  0  0  0  0  0  0
    9.6167   -2.5027   22.4907 C   0  0  0  0  0  0  0  0  0  0  0  0
    9.4893   -2.8853   23.5083 H   0  0  0  0  0  0  0  0  0  0  0  0
    9.4437   -3.3382   21.8131 H   0  0  0  0  0  0  0  0  0  0  0  0
    8.4931   -1.5610   22.1959 C   0  0  0  0  0  0  0  0  0  0  0  0
    8.2241   -1.1593   20.9266 N   0  0  0  0  0  0  0  0  0  0  0  0
    7.1198   -0.4395   21.0507 C   0  0  0  0  0  0  0  0  0  0  0  0
    6.4067    0.1870   19.9347 C   0  0  0  0  0  0  0  0  0  0  0  0
    7.0326    0.1163   18.6785 C   0  0  0  0  0  0  0  0  0  0  0  0
    7.9568   -0.4474   18.5793 H   0  0  0  0  0  0  0  0  0  0  0  0
    6.5554    0.6930   17.5723 N   0  0  0  0  0  0  0  0  0  0  0  0
    5.3995    1.3619   17.6805 C   0  0  0  0  0  0  0  0  0  0  0  0
    5.0384    1.8395   16.7722 H   0  0  0  0  0  0  0  0  0  0  0  0
    4.6642    1.4472   18.8683 C   0  0  0  0  0  0  0  0  0  0  0  0
    3.7297    1.9947   18.8755 H   0  0  0  0  0  0  0  0  0  0  0  0
    5.1673    0.8439   20.0218 C   0  0  0  0  0  0  0  0  0  0  0  0
    4.5957    0.8809   20.9525 H   0  0  0  0  0  0  0  0  0  0  0  0
    6.7641   -0.4066   22.3470 N   0  0  0  0  0  0  0  0  0  0  0  0
    6.0075    0.0989   22.7894 H   0  0  0  0  0  0  0  0  0  0  0  0
    7.6308   -1.1328   23.0979 N   0  0  0  0  0  0  0  0  0  0  0  0
  1  2  1  0
  2  3  1  0
  3  4  1  0
  3  5  1  0
  3  6  1  0
  6  7  1  0
  6  8  1  0
  6  9  1  0
  9 10  1  0
  9 11  1  0
  9 12  1  0
 12 13  1  0
 13 14  2  0
 14 15  1  0
 15 16  2  0
 16 17  1  0
 16 18  1  0
 18 19  2  0
 19 20  1  0
 19 21  1  0
 21 22  1  0
 21 23  2  0
 23 24  1  0
 14 25  1  0
 25 26  1  0
 25 27  1  0
 27 12  2  0
 23 15  1  0
M  END
>  <cnnaffinity>  (1) 
-4.86661

>  <filename>  (1) 
OCCCc1n[nH]c(-c2cccnc2)n1

$$$$
