
     RDKit          3D

 40 42  0  0  0  0  0  0  0  0999 V2000
   13.7946   -1.8335   20.6494 O   0  0  0  0  0  0  0  0  0  0  0  0
   12.9777   -1.5956   21.7931 C   0  0  0  0  0  0  0  0  0  0  0  0
   11.5956   -1.2565   21.2722 C   0  0  0  0  0  0  0  0  0  0  0  0
   10.6552   -0.6857   22.3233 C   0  0  0  0  0  0  0  0  0  0  0  0
    9.2491   -0.8744   21.8412 C   0  0  0  0  0  0  0  0  0  0  0  0
    8.8319   -0.3504   20.7195 N   0  0  0  0  0  0  0  0  0  0  0  0
    7.5617   -0.7964   20.6302 N   0  0  0  0  0  0  0  0  0  0  0  0
    6.7130   -0.2581   19.6630 C   0  0  0  0  0  0  0  0  0  0  0  0
    5.3873    0.1143   19.9231 C   0  0  0  0  0  0  0  0  0  0  0  0
    4.7377    0.8776   18.9479 C   0  0  0  0  0  0  0  0  0  0  0  0
    5.3992    1.2172   17.7600 C   0  0  0  0  0  0  0  0  0  0  0  0
    6.6363    0.7752   17.4707 N   0  0  0  0  0  0  0  0  0  0  0  0
    7.2742    0.0655   18.4155 C   0  0  0  0  0  0  0  0  0  0  0  0
    8.2989   -0.2493   18.2357 H   0  0  0  0  0  0  0  0  0  0  0  0
    4.9053    1.8690   17.0475 H   0  0  0  0  0  0  0  0  0  0  0  0
    3.7354    1.2653   19.0986 H   0  0  0  0  0  0  0  0  0  0  0  0
    4.8987   -0.0926   20.8758 H   0  0  0  0  0  0  0  0  0  0  0  0
    7.2845   -1.5981   21.7329 C   0  0  0  0  0  0  0  0  0  0  0  0
    6.0012   -2.2457   22.1250 C   0  0  0  0  0  0  0  0  0  0  0  0
    5.9604   -3.7507   22.0625 C   0  0  0  0  0  0  0  0  0  0  0  0
    5.7847   -4.4307   20.8489 C   0  0  0  0  0  0  0  0  0  0  0  0
    5.6152   -3.4784   19.1956 Br  0  0  0  0  0  0  0  0  0  0  0  0
    5.6895   -5.8257   20.8554 C   0  0  0  0  0  0  0  0  0  0  0  0
    5.7603   -6.5408   22.0577 C   0  0  0  0  0  0  0  0  0  0  0  0
    5.9397   -5.8670   23.2622 C   0  0  0  0  0  0  0  0  0  0  0  0
    6.0440   -4.4784   23.2664 C   0  0  0  0  0  0  0  0  0  0  0  0
    6.1991   -3.8485   24.4520 F   0  0  0  0  0  0  0  0  0  0  0  0
    5.9735   -6.4099   24.2035 H   0  0  0  0  0  0  0  0  0  0  0  0
    5.6759   -7.6207   22.0679 H   0  0  0  0  0  0  0  0  0  0  0  0
    5.5340   -6.3461   19.9177 H   0  0  0  0  0  0  0  0  0  0  0  0
    5.1961   -1.8340   21.5199 H   0  0  0  0  0  0  0  0  0  0  0  0
    5.8601   -1.9729   23.1707 H   0  0  0  0  0  0  0  0  0  0  0  0
    8.3250   -1.6521   22.5109 N   0  0  0  0  0  0  0  0  0  0  0  0
   10.7917   -1.2156   23.2654 H   0  0  0  0  0  0  0  0  0  0  0  0
   10.8586    0.3767   22.4830 H   0  0  0  0  0  0  0  0  0  0  0  0
   11.6763   -0.5497   20.4485 H   0  0  0  0  0  0  0  0  0  0  0  0
   11.1459   -2.1724   20.8917 H   0  0  0  0  0  0  0  0  0  0  0  0
   12.9113   -2.4915   22.4169 H   0  0  0  0  0  0  0  0  0  0  0  0
   13.3968   -0.7761   22.3842 H   0  0  0  0  0  0  0  0  0  0  0  0
   13.2526   -2.2342   19.9469 H   0  0  0  0  0  0  0  0  0  0  0  0
  1  2  1  0
  2  3  1  0
  3  4  1  0
  4  5  1  0
  5  6  2  0
  6  7  1  0
  7  8  1  0
  8  9  2  0
  9 10  1  0
 10 11  2  0
 11 12  1  0
 12 13  2  0
 13 14  1  0
 11 15  1  0
 10 16  1  0
  9 17  1  0
  7 18  1  0
 18 19  1  0
 19 20  1  0
 20 21  2  0
 21 22  1  0
 21 23  1  0
 23 24  2  0
 24 25  1  0
 25 26  2  0
 26 27  1  0
 25 28  1  0
 24 29  1  0
 23 30  1  0
 19 31  1  0
 19 32  1  0
 18 33  2  0
  4 34  1  0
  4 35  1  0
  3 36  1  0
  3 37  1  0
  2 38  1  0
  2 39  1  0
  1 40  1  0
 33  5  1  0
 13  8  1  0
 26 20  1  0
M  END
>  <cnnaffinity>  (1) 
-6.34123

>  <filename>  (1) 
OCCCc1nc(Cc2c(F)cccc2Br)n(-c2cccnc2)n1

$$$$
