
     RDKit          3D

 24 25  0  0  0  0  0  0  0  0999 V2000
    4.8955    0.1237   24.3794 H   0  0  0  0  0  0  0  0  0  0  0  0
    5.2498    0.8913   23.9177 O   0  0  0  0  0  0  0  0  0  0  0  0
    6.6259    1.0106   24.2461 C   0  0  0  0  0  0  0  0  0  0  0  0
    6.7866    1.9700   24.7655 H   0  0  0  0  0  0  0  0  0  0  0  0
    6.9573    0.2052   24.9189 H   0  0  0  0  0  0  0  0  0  0  0  0
    7.4361    1.0488   22.9531 C   0  0  0  0  0  0  0  0  0  0  0  0
    8.4411    1.4377   23.1637 H   0  0  0  0  0  0  0  0  0  0  0  0
    6.9633    1.7584   22.2682 H   0  0  0  0  0  0  0  0  0  0  0  0
    7.5899   -0.2482   22.2415 C   0  0  0  0  0  0  0  0  0  0  0  0
    8.2851   -1.2419   22.8831 O   0  0  0  0  0  0  0  0  0  0  0  0
    8.4632   -2.1910   21.9438 C   0  0  0  0  0  0  0  0  0  0  0  0
    9.0016   -3.0883   22.2295 H   0  0  0  0  0  0  0  0  0  0  0  0
    7.9763   -1.9142   20.7862 N   0  0  0  0  0  0  0  0  0  0  0  0
    7.3703   -0.6747   20.9598 C   0  0  0  0  0  0  0  0  0  0  0  0
    6.6332    0.0007   19.8951 C   0  0  0  0  0  0  0  0  0  0  0  0
    7.1427    0.0110   18.5814 C   0  0  0  0  0  0  0  0  0  0  0  0
    8.0784   -0.4915   18.3492 H   0  0  0  0  0  0  0  0  0  0  0  0
    6.5526    0.6483   17.5639 N   0  0  0  0  0  0  0  0  0  0  0  0
    5.4038    1.2929   17.8192 C   0  0  0  0  0  0  0  0  0  0  0  0
    4.9484    1.8209   16.9839 H   0  0  0  0  0  0  0  0  0  0  0  0
    4.7882    1.3131   19.0761 C   0  0  0  0  0  0  0  0  0  0  0  0
    3.8596    1.8530   19.2207 H   0  0  0  0  0  0  0  0  0  0  0  0
    5.4185    0.6655   20.1388 C   0  0  0  0  0  0  0  0  0  0  0  0
    4.9791    0.6625   21.1393 H   0  0  0  0  0  0  0  0  0  0  0  0
  1  2  1  0
  2  3  1  0
  3  4  1  0
  3  5  1  0
  3  6  1  0
  6  7  1  0
  6  8  1  0
  6  9  1  0
  9 10  1  0
 10 11  1  0
 11 12  1  0
 11 13  2  0
 13 14  1  0
 14 15  1  0
 15 16  2  0
 16 17  1  0
 16 18  1  0
 18 19  2  0
 19 20  1  0
 19 21  1  0
 21 22  1  0
 21 23  2  0
 23 24  1  0
 14  9  2  0
 23 15  1  0
M  END
>  <cnnaffinity>  (1) 
-4.10483

>  <filename>  (1) 
OCCc1ocnc1-c1cccnc1

$$$$
