
     RDKit          3D

 42 44  0  0  0  0  0  0  0  0999 V2000
    9.1394   -5.7110   24.5308 O   0  0  0  0  0  0  0  0  0  0  0  0
    7.9823   -5.6789   23.7185 C   0  0  0  0  0  0  0  0  0  0  0  0
    7.5928   -4.2691   23.2930 C   0  0  0  0  0  0  0  0  0  0  0  0
    8.6605   -3.5817   22.4286 C   0  0  0  0  0  0  0  0  0  0  0  0
    8.2807   -2.2181   21.9929 C   0  0  0  0  0  0  0  0  0  0  0  0
    7.6301   -1.9957   20.8695 N   0  0  0  0  0  0  0  0  0  0  0  0
    7.3696   -0.6669   20.9314 N   0  0  0  0  0  0  0  0  0  0  0  0
    6.6498    0.0016   19.9010 C   0  0  0  0  0  0  0  0  0  0  0  0
    5.4405    0.6544   20.1637 C   0  0  0  0  0  0  0  0  0  0  0  0
    4.8065    1.3141   19.1064 C   0  0  0  0  0  0  0  0  0  0  0  0
    5.4016    1.2942   17.8408 C   0  0  0  0  0  0  0  0  0  0  0  0
    6.5650    0.6685   17.5867 N   0  0  0  0  0  0  0  0  0  0  0  0
    7.1688    0.0349   18.5964 C   0  0  0  0  0  0  0  0  0  0  0  0
    8.1194   -0.4425   18.3738 H   0  0  0  0  0  0  0  0  0  0  0  0
    4.9262    1.7846   16.9946 H   0  0  0  0  0  0  0  0  0  0  0  0
    3.8728    1.8441   19.2559 H   0  0  0  0  0  0  0  0  0  0  0  0
    5.0144    0.6272   21.1680 H   0  0  0  0  0  0  0  0  0  0  0  0
    7.9170   -0.1618   22.0697 C   0  0  0  0  0  0  0  0  0  0  0  0
    7.8805    1.2747   22.4591 C   0  0  0  0  0  0  0  0  0  0  0  0
    6.7080    1.6247   23.3504 C   0  0  0  0  0  0  0  0  0  0  0  0
    5.7766    2.5897   22.9750 C   0  0  0  0  0  0  0  0  0  0  0  0
    4.7055    2.8585   23.8292 C   0  0  0  0  0  0  0  0  0  0  0  0
    4.5203    2.2343   24.9919 N   0  0  0  0  0  0  0  0  0  0  0  0
    5.4166    1.3055   25.3625 C   0  0  0  0  0  0  0  0  0  0  0  0
    5.2365    0.5776   26.7134 C   0  0  0  0  0  0  0  0  0  0  0  0
    6.2995    0.7960   27.5165 F   0  0  0  0  0  0  0  0  0  0  0  0
    4.1429    0.9375   27.3886 F   0  0  0  0  0  0  0  0  0  0  0  0
    5.1799   -0.7600   26.5338 F   0  0  0  0  0  0  0  0  0  0  0  0
    6.5269    0.9711   24.5705 C   0  0  0  0  0  0  0  0  0  0  0  0
    7.2343    0.2037   24.8674 H   0  0  0  0  0  0  0  0  0  0  0  0
    3.9601    3.6072   23.5793 H   0  0  0  0  0  0  0  0  0  0  0  0
    5.8647    3.1073   22.0276 H   0  0  0  0  0  0  0  0  0  0  0  0
    8.8154    1.4794   22.9871 H   0  0  0  0  0  0  0  0  0  0  0  0
    7.8634    1.8973   21.5623 H   0  0  0  0  0  0  0  0  0  0  0  0
    8.4948   -1.1216   22.7625 N   0  0  0  0  0  0  0  0  0  0  0  0
    8.7932   -4.1635   21.5203 H   0  0  0  0  0  0  0  0  0  0  0  0
    9.6106   -3.5263   22.9667 H   0  0  0  0  0  0  0  0  0  0  0  0
    6.6500   -4.3205   22.7323 H   0  0  0  0  0  0  0  0  0  0  0  0
    7.3996   -3.6690   24.1912 H   0  0  0  0  0  0  0  0  0  0  0  0
    7.1273   -6.1501   24.2217 H   0  0  0  0  0  0  0  0  0  0  0  0
    8.2246   -6.2904   22.8429 H   0  0  0  0  0  0  0  0  0  0  0  0
    8.8922   -5.3474   25.3906 H   0  0  0  0  0  0  0  0  0  0  0  0
  1  2  1  0
  2  3  1  0
  3  4  1  0
  4  5  1  0
  5  6  2  0
  6  7  1  0
  7  8  1  0
  8  9  2  0
  9 10  1  0
 10 11  2  0
 11 12  1  0
 12 13  2  0
 13 14  1  0
 11 15  1  0
 10 16  1  0
  9 17  1  0
  7 18  1  0
 18 19  1  0
 19 20  1  0
 20 21  2  0
 21 22  1  0
 22 23  2  0
 23 24  1  0
 24 25  1  0
 25 26  1  0
 25 27  1  0
 25 28  1  0
 24 29  2  0
 29 30  1  0
 22 31  1  0
 21 32  1  0
 19 33  1  0
 19 34  1  0
 18 35  2  0
  4 36  1  0
  4 37  1  0
  3 38  1  0
  3 39  1  0
  2 40  1  0
  2 41  1  0
  1 42  1  0
 35  5  1  0
 13  8  1  0
 29 20  1  0
M  END
>  <cnnaffinity>  (1) 
-5.79684

>  <filename>  (1) 
OCCCc1nc(Cc2ccnc(C(F)(F)F)c2)n(-c2cccnc2)n1

$$$$
