
     RDKit          3D

 40 42  0  0  0  0  0  0  0  0999 V2000
    5.6978   -5.6901   23.1854 O   0  0  0  0  0  0  0  0  0  0  0  0
    6.4613   -4.8359   22.3569 C   0  0  0  0  0  0  0  0  0  0  0  0
    7.7530   -4.4276   23.0603 C   0  0  0  0  0  0  0  0  0  0  0  0
    8.6554   -3.5131   22.2082 C   0  0  0  0  0  0  0  0  0  0  0  0
    8.0675   -2.1545   21.9840 C   0  0  0  0  0  0  0  0  0  0  0  0
    7.5813   -1.8043   20.8157 N   0  0  0  0  0  0  0  0  0  0  0  0
    7.1332   -0.5399   21.0186 N   0  0  0  0  0  0  0  0  0  0  0  0
    6.5140    0.1374   19.9310 C   0  0  0  0  0  0  0  0  0  0  0  0
    5.3114    0.8477   20.0642 C   0  0  0  0  0  0  0  0  0  0  0  0
    4.7675    1.4335   18.9134 C   0  0  0  0  0  0  0  0  0  0  0  0
    5.4504    1.3154   17.6984 C   0  0  0  0  0  0  0  0  0  0  0  0
    6.5985    0.6260   17.5656 N   0  0  0  0  0  0  0  0  0  0  0  0
    7.0965    0.0317   18.6510 C   0  0  0  0  0  0  0  0  0  0  0  0
    7.9884   -0.5800   18.5175 H   0  0  0  0  0  0  0  0  0  0  0  0
    5.0767    1.7864   16.7922 H   0  0  0  0  0  0  0  0  0  0  0  0
    3.8411    2.0002   18.9506 H   0  0  0  0  0  0  0  0  0  0  0  0
    4.8040    0.9155   21.0280 H   0  0  0  0  0  0  0  0  0  0  0  0
    7.4200   -0.1793   22.3108 C   0  0  0  0  0  0  0  0  0  0  0  0
    7.2246    1.1607   22.9571 C   0  0  0  0  0  0  0  0  0  0  0  0
    8.5259    1.6835   23.5535 C   0  0  0  0  0  0  0  0  0  0  0  0
    8.7837    1.5549   24.9244 C   0  0  0  0  0  0  0  0  0  0  0  0
   10.0571    1.7913   25.4478 C   0  0  0  0  0  0  0  0  0  0  0  0
   11.0807    2.2507   24.6197 C   0  0  0  0  0  0  0  0  0  0  0  0
   10.8259    2.4795   23.2654 C   0  0  0  0  0  0  0  0  0  0  0  0
    9.5618    2.1765   22.7449 C   0  0  0  0  0  0  0  0  0  0  0  0
    9.2853    2.3806   21.0430 Cl  0  0  0  0  0  0  0  0  0  0  0  0
   11.5929    2.8825   22.6145 H   0  0  0  0  0  0  0  0  0  0  0  0
   12.0677    2.4461   25.0317 H   0  0  0  0  0  0  0  0  0  0  0  0
   10.2503    1.5956   26.4925 H   0  0  0  0  0  0  0  0  0  0  0  0
    7.9706    1.2616   25.5838 H   0  0  0  0  0  0  0  0  0  0  0  0
    6.8348    1.8675   22.2228 H   0  0  0  0  0  0  0  0  0  0  0  0
    6.4840    1.0481   23.7563 H   0  0  0  0  0  0  0  0  0  0  0  0
    7.9754   -1.1998   22.9435 N   0  0  0  0  0  0  0  0  0  0  0  0
    8.8159   -3.9429   21.2144 H   0  0  0  0  0  0  0  0  0  0  0  0
    9.6355   -3.3875   22.6864 H   0  0  0  0  0  0  0  0  0  0  0  0
    8.2970   -5.3427   23.3341 H   0  0  0  0  0  0  0  0  0  0  0  0
    7.4823   -3.9151   23.9973 H   0  0  0  0  0  0  0  0  0  0  0  0
    6.6985   -5.4010   21.4480 H   0  0  0  0  0  0  0  0  0  0  0  0
    5.8760   -3.9555   22.0403 H   0  0  0  0  0  0  0  0  0  0  0  0
    5.6274   -5.2517   24.0430 H   0  0  0  0  0  0  0  0  0  0  0  0
  1  2  1  0
  2  3  1  0
  3  4  1  0
  4  5  1  0
  5  6  2  0
  6  7  1  0
  7  8  1  0
  8  9  2  0
  9 10  1  0
 10 11  2  0
 11 12  1  0
 12 13  2  0
 13 14  1  0
 11 15  1  0
 10 16  1  0
  9 17  1  0
  7 18  1  0
 18 19  1  0
 19 20  1  0
 20 21  2  0
 21 22  1  0
 22 23  2  0
 23 24  1  0
 24 25  2  0
 25 26  1  0
 24 27  1  0
 23 28  1  0
 22 29  1  0
 21 30  1  0
 19 31  1  0
 19 32  1  0
 18 33  2  0
  4 34  1  0
  4 35  1  0
  3 36  1  0
  3 37  1  0
  2 38  1  0
  2 39  1  0
  1 40  1  0
 33  5  1  0
 13  8  1  0
 25 20  1  0
M  END
>  <cnnaffinity>  (1) 
-5.57942

>  <filename>  (1) 
OCCCc1nc(Cc2ccccc2Cl)n(-c2cccnc2)n1

$$$$
