
     RDKit          3D

 30 31  0  0  0  0  0  0  0  0999 V2000
    7.2364   -1.7009   26.3288 H   0  0  0  0  0  0  0  0  0  0  0  0
    7.6443   -0.9479   25.8881 O   0  0  0  0  0  0  0  0  0  0  0  0
    7.7364   -1.2747   24.5158 C   0  0  0  0  0  0  0  0  0  0  0  0
    6.7668   -1.6408   24.1398 H   0  0  0  0  0  0  0  0  0  0  0  0
    7.9564   -0.3401   23.9878 H   0  0  0  0  0  0  0  0  0  0  0  0
    8.8270   -2.3094   24.2643 C   0  0  0  0  0  0  0  0  0  0  0  0
    9.7783   -1.9057   24.6285 H   0  0  0  0  0  0  0  0  0  0  0  0
    8.6189   -3.2033   24.8635 H   0  0  0  0  0  0  0  0  0  0  0  0
    8.9581   -2.7098   22.7884 C   0  0  0  0  0  0  0  0  0  0  0  0
    7.9843   -3.0470   22.4093 H   0  0  0  0  0  0  0  0  0  0  0  0
    9.6415   -3.5612   22.6861 H   0  0  0  0  0  0  0  0  0  0  0  0
    9.4156   -1.5815   21.9301 C   0  0  0  0  0  0  0  0  0  0  0  0
    8.7096   -0.6956   21.1423 C   0  0  0  0  0  0  0  0  0  0  0  0
    7.3264   -0.7084   20.9281 N   0  0  0  0  0  0  0  0  0  0  0  0
    6.7597   -1.1190   21.6588 H   0  0  0  0  0  0  0  0  0  0  0  0
    6.6626   -0.0117   19.9105 C   0  0  0  0  0  0  0  0  0  0  0  0
    7.1725    0.0600   18.5903 C   0  0  0  0  0  0  0  0  0  0  0  0
    8.1213   -0.4295   18.3764 H   0  0  0  0  0  0  0  0  0  0  0  0
    6.5605    0.6813   17.5714 N   0  0  0  0  0  0  0  0  0  0  0  0
    5.3967    1.2967   17.8374 C   0  0  0  0  0  0  0  0  0  0  0  0
    4.9134    1.7858   16.9949 H   0  0  0  0  0  0  0  0  0  0  0  0
    4.8119    1.3051   19.1089 C   0  0  0  0  0  0  0  0  0  0  0  0
    3.8817    1.8376   19.2645 H   0  0  0  0  0  0  0  0  0  0  0  0
    5.4409    0.6310   20.1632 C   0  0  0  0  0  0  0  0  0  0  0  0
    5.0169    0.6237   21.1677 H   0  0  0  0  0  0  0  0  0  0  0  0
    9.6825    0.2113   20.6657 C   0  0  0  0  0  0  0  0  0  0  0  0
    9.5054    1.0412   20.0042 H   0  0  0  0  0  0  0  0  0  0  0  0
   10.8992   -0.0639   21.1244 N   0  0  0  0  0  0  0  0  0  0  0  0
   10.7065   -1.1514   21.8832 N   0  0  0  0  0  0  0  0  0  0  0  0
   11.4967   -1.5432   22.3669 H   0  0  0  0  0  0  0  0  0  0  0  0
  1  2  1  0
  2  3  1  0
  3  4  1  0
  3  5  1  0
  3  6  1  0
  6  7  1  0
  6  8  1  0
  6  9  1  0
  9 10  1  0
  9 11  1  0
  9 12  1  0
 12 13  2  0
 13 14  1  0
 14 15  1  0
 14 16  1  0
 16 17  2  0
 17 18  1  0
 17 19  1  0
 19 20  2  0
 20 21  1  0
 20 22  1  0
 22 23  1  0
 22 24  2  0
 24 25  1  0
 13 26  1  0
 26 27  1  0
 26 28  2  0
 28 29  1  0
 29 30  1  0
 29 12  1  0
 24 16  1  0
M  END
>  <cnnaffinity>  (1) 
-4.96907

>  <filename>  (1) 
OCCCc1[nH]ncc1Nc1cccnc1

$$$$
