
     RDKit          3D

 39 41  0  0  0  0  0  0  0  0999 V2000
    8.6341   -6.5541   22.6656 O   0  0  0  0  0  0  0  0  0  0  0  0
    8.3675   -5.6533   23.7282 C   0  0  0  0  0  0  0  0  0  0  0  0
    7.8284   -4.3085   23.2558 C   0  0  0  0  0  0  0  0  0  0  0  0
    8.8534   -3.4878   22.4673 C   0  0  0  0  0  0  0  0  0  0  0  0
    8.3740   -2.1534   22.0518 C   0  0  0  0  0  0  0  0  0  0  0  0
    8.4655   -1.0816   22.8069 N   0  0  0  0  0  0  0  0  0  0  0  0
    7.8357   -0.1446   22.0644 N   0  0  0  0  0  0  0  0  0  0  0  0
    7.7273    1.2199   22.5441 C   0  0  0  0  0  0  0  0  0  0  0  0
    6.5151    1.4645   23.4137 C   0  0  0  0  0  0  0  0  0  0  0  0
    6.2950    0.6977   24.5589 C   0  0  0  0  0  0  0  0  0  0  0  0
    5.1662    0.9510   25.3361 C   0  0  0  0  0  0  0  0  0  0  0  0
    4.2658    1.9043   25.0629 N   0  0  0  0  0  0  0  0  0  0  0  0
    4.4960    2.6491   23.9765 C   0  0  0  0  0  0  0  0  0  0  0  0
    5.5934    2.4731   23.1288 C   0  0  0  0  0  0  0  0  0  0  0  0
    5.7068    3.1007   22.2519 H   0  0  0  0  0  0  0  0  0  0  0  0
    3.7657    3.4247   23.7642 H   0  0  0  0  0  0  0  0  0  0  0  0
    4.9829    0.3590   26.2276 H   0  0  0  0  0  0  0  0  0  0  0  0
    6.9840   -0.0911   24.8293 H   0  0  0  0  0  0  0  0  0  0  0  0
    8.6369    1.4356   23.1082 H   0  0  0  0  0  0  0  0  0  0  0  0
    7.6949    1.8791   21.6783 H   0  0  0  0  0  0  0  0  0  0  0  0
    7.3940   -0.7056   20.9147 C   0  0  0  0  0  0  0  0  0  0  0  0
    6.6458    0.0234   19.8977 C   0  0  0  0  0  0  0  0  0  0  0  0
    5.4318    0.6721   20.1600 C   0  0  0  0  0  0  0  0  0  0  0  0
    4.7995    1.3222   19.1043 C   0  0  0  0  0  0  0  0  0  0  0  0
    5.4017    1.2950   17.8411 C   0  0  0  0  0  0  0  0  0  0  0  0
    6.5644    0.6749   17.5826 N   0  0  0  0  0  0  0  0  0  0  0  0
    7.1635    0.0490   18.5978 C   0  0  0  0  0  0  0  0  0  0  0  0
    8.1119   -0.4403   18.3821 H   0  0  0  0  0  0  0  0  0  0  0  0
    4.9230    1.7813   16.9956 H   0  0  0  0  0  0  0  0  0  0  0  0
    3.8650    1.8496   19.2528 H   0  0  0  0  0  0  0  0  0  0  0  0
    4.9970    0.6393   21.1619 H   0  0  0  0  0  0  0  0  0  0  0  0
    7.7498   -1.9689   20.8600 N   0  0  0  0  0  0  0  0  0  0  0  0
    9.0013   -3.9913   21.5217 H   0  0  0  0  0  0  0  0  0  0  0  0
    9.7905   -3.3706   23.0233 H   0  0  0  0  0  0  0  0  0  0  0  0
    6.9606   -4.4925   22.6107 H   0  0  0  0  0  0  0  0  0  0  0  0
    7.4875   -3.7317   24.1260 H   0  0  0  0  0  0  0  0  0  0  0  0
    7.6163   -6.1293   24.3620 H   0  0  0  0  0  0  0  0  0  0  0  0
    9.2637   -5.4973   24.3497 H   0  0  0  0  0  0  0  0  0  0  0  0
    9.5317   -6.3811   22.3608 H   0  0  0  0  0  0  0  0  0  0  0  0
  1  2  1  0
  2  3  1  0
  3  4  1  0
  4  5  1  0
  5  6  2  0
  6  7  1  0
  7  8  1  0
  8  9  1  0
  9 10  2  0
 10 11  1  0
 11 12  2  0
 12 13  1  0
 13 14  2  0
 14 15  1  0
 13 16  1  0
 11 17  1  0
 10 18  1  0
  8 19  1  0
  8 20  1  0
  7 21  1  0
 21 22  1  0
 22 23  2  0
 23 24  1  0
 24 25  2  0
 25 26  1  0
 26 27  2  0
 27 28  1  0
 25 29  1  0
 24 30  1  0
 23 31  1  0
 21 32  2  0
  4 33  1  0
  4 34  1  0
  3 35  1  0
  3 36  1  0
  2 37  1  0
  2 38  1  0
  1 39  1  0
 32  5  1  0
 14  9  1  0
 27 22  1  0
M  END
>  <cnnaffinity>  (1) 
-5.50092

>  <filename>  (1) 
OCCCc1nc(-c2cccnc2)n(Cc2ccncc2)n1

$$$$
