
     RDKit          3D

 35 37  0  0  0  0  0  0  0  0999 V2000
    9.6149    4.8186   22.0992 H   0  0  0  0  0  0  0  0  0  0  0  0
    9.4910    4.5676   23.0295 O   0  0  0  0  0  0  0  0  0  0  0  0
    8.2959    3.8072   23.1107 C   0  0  0  0  0  0  0  0  0  0  0  0
    8.1376    3.6485   24.1833 H   0  0  0  0  0  0  0  0  0  0  0  0
    7.4412    4.3908   22.7264 H   0  0  0  0  0  0  0  0  0  0  0  0
    8.4189    2.4488   22.4028 C   0  0  0  0  0  0  0  0  0  0  0  0
    9.4189    2.0654   22.6399 H   0  0  0  0  0  0  0  0  0  0  0  0
    8.3953    2.5924   21.3142 H   0  0  0  0  0  0  0  0  0  0  0  0
    7.3640    1.3902   22.7982 C   0  0  0  0  0  0  0  0  0  0  0  0
    7.2871    1.3198   23.8948 H   0  0  0  0  0  0  0  0  0  0  0  0
    6.3774    1.7125   22.4482 H   0  0  0  0  0  0  0  0  0  0  0  0
    7.6535    0.0109   22.2635 C   0  0  0  0  0  0  0  0  0  0  0  0
    7.2947   -0.5650   20.9994 C   0  0  0  0  0  0  0  0  0  0  0  0
    6.5436    0.0366   19.8926 C   0  0  0  0  0  0  0  0  0  0  0  0
    7.0800   -0.0244   18.5944 C   0  0  0  0  0  0  0  0  0  0  0  0
    7.9816   -0.6077   18.4058 H   0  0  0  0  0  0  0  0  0  0  0  0
    6.5554    0.6081   17.5423 N   0  0  0  0  0  0  0  0  0  0  0  0
    5.4229    1.3005   17.7378 C   0  0  0  0  0  0  0  0  0  0  0  0
    5.0300    1.8213   16.8658 H   0  0  0  0  0  0  0  0  0  0  0  0
    4.7581    1.3562   18.9670 C   0  0  0  0  0  0  0  0  0  0  0  0
    3.8371    1.9183   19.0588 H   0  0  0  0  0  0  0  0  0  0  0  0
    5.3304    0.7169   20.0664 C   0  0  0  0  0  0  0  0  0  0  0  0
    4.8550    0.7456   21.0477 H   0  0  0  0  0  0  0  0  0  0  0  0
    7.8478   -1.7663   20.8307 N   0  0  0  0  0  0  0  0  0  0  0  0
    8.4803   -1.9848   21.9798 N   0  0  0  0  0  0  0  0  0  0  0  0
    8.4485   -0.9635   22.8481 C   0  0  0  0  0  0  0  0  0  0  0  0
    9.4188   -1.2295   23.9687 C   0  0  0  0  0  0  0  0  0  0  0  0
    8.8915   -1.3145   24.9213 H   0  0  0  0  0  0  0  0  0  0  0  0
   10.1289   -0.4018   24.0726 H   0  0  0  0  0  0  0  0  0  0  0  0
   10.1079   -2.5701   23.5524 C   0  0  0  0  0  0  0  0  0  0  0  0
   11.1750   -2.4530   23.3723 H   0  0  0  0  0  0  0  0  0  0  0  0
    9.9874   -3.3430   24.3122 H   0  0  0  0  0  0  0  0  0  0  0  0
    9.4516   -3.0103   22.2220 C   0  0  0  0  0  0  0  0  0  0  0  0
   10.1544   -2.9764   21.3893 H   0  0  0  0  0  0  0  0  0  0  0  0
    8.9764   -3.9935   22.2553 H   0  0  0  0  0  0  0  0  0  0  0  0
  1  2  1  0
  2  3  1  0
  3  4  1  0
  3  5  1  0
  3  6  1  0
  6  7  1  0
  6  8  1  0
  6  9  1  0
  9 10  1  0
  9 11  1  0
  9 12  1  0
 12 13  1  0
 13 14  1  0
 14 15  2  0
 15 16  1  0
 15 17  1  0
 17 18  2  0
 18 19  1  0
 18 20  1  0
 20 21  1  0
 20 22  2  0
 22 23  1  0
 13 24  2  0
 24 25  1  0
 25 26  1  0
 26 27  1  0
 27 28  1  0
 27 29  1  0
 27 30  1  0
 30 31  1  0
 30 32  1  0
 30 33  1  0
 33 34  1  0
 33 35  1  0
 26 12  2  0
 22 14  1  0
 33 25  1  0
M  END
>  <cnnaffinity>  (1) 
-5.07928

>  <filename>  (1) 
OCCCc1c(-c2cccnc2)nn2c1CCC2

$$$$
