
     RDKit          3D

 43 45  0  0  0  0  0  0  0  0999 V2000
    8.4877   -6.5166   22.7490 O   0  0  0  0  0  0  0  0  0  0  0  0
    8.2183   -5.6244   23.8174 C   0  0  0  0  0  0  0  0  0  0  0  0
    7.7394   -4.2567   23.3462 C   0  0  0  0  0  0  0  0  0  0  0  0
    8.7847   -3.5051   22.5109 C   0  0  0  0  0  0  0  0  0  0  0  0
    8.3501   -2.1654   22.0606 C   0  0  0  0  0  0  0  0  0  0  0  0
    8.4948   -1.0806   22.7918 N   0  0  0  0  0  0  0  0  0  0  0  0
    7.8814   -0.1358   22.0434 N   0  0  0  0  0  0  0  0  0  0  0  0
    7.8096    1.2449   22.4947 C   0  0  0  0  0  0  0  0  0  0  0  0
    6.5802    1.5699   23.3184 C   0  0  0  0  0  0  0  0  0  0  0  0
    6.2989    0.8187   24.4655 C   0  0  0  0  0  0  0  0  0  0  0  0
    5.1732    1.0952   25.2367 C   0  0  0  0  0  0  0  0  0  0  0  0
    4.3164    2.1491   24.8763 C   0  0  0  0  0  0  0  0  0  0  0  0
    3.0669    2.4235   25.6881 C   0  0  0  0  0  0  0  0  0  0  0  0
    2.6995    3.7196   25.6391 F   0  0  0  0  0  0  0  0  0  0  0  0
    2.0198    1.7078   25.2285 F   0  0  0  0  0  0  0  0  0  0  0  0
    3.2150    2.1028   26.9889 F   0  0  0  0  0  0  0  0  0  0  0  0
    4.5893    2.9059   23.7234 C   0  0  0  0  0  0  0  0  0  0  0  0
    5.7235    2.6199   22.9614 C   0  0  0  0  0  0  0  0  0  0  0  0
    5.9209    3.2015   22.0617 H   0  0  0  0  0  0  0  0  0  0  0  0
    3.9307    3.7185   23.4222 H   0  0  0  0  0  0  0  0  0  0  0  0
    4.9704    0.4895   26.1176 H   0  0  0  0  0  0  0  0  0  0  0  0
    6.9629    0.0048   24.7409 H   0  0  0  0  0  0  0  0  0  0  0  0
    7.8414    1.8796   21.6091 H   0  0  0  0  0  0  0  0  0  0  0  0
    8.7181    1.4300   23.0718 H   0  0  0  0  0  0  0  0  0  0  0  0
    7.3934   -0.7059   20.9174 C   0  0  0  0  0  0  0  0  0  0  0  0
    6.6450    0.0243   19.8984 C   0  0  0  0  0  0  0  0  0  0  0  0
    5.4298    0.6719   20.1588 C   0  0  0  0  0  0  0  0  0  0  0  0
    4.7991    1.3226   19.1017 C   0  0  0  0  0  0  0  0  0  0  0  0
    5.4030    1.2952   17.8387 C   0  0  0  0  0  0  0  0  0  0  0  0
    6.5646    0.6733   17.5793 N   0  0  0  0  0  0  0  0  0  0  0  0
    7.1616    0.0483   18.5980 C   0  0  0  0  0  0  0  0  0  0  0  0
    8.1097   -0.4403   18.3813 H   0  0  0  0  0  0  0  0  0  0  0  0
    4.9250    1.7830   16.9933 H   0  0  0  0  0  0  0  0  0  0  0  0
    3.8640    1.8499   19.2493 H   0  0  0  0  0  0  0  0  0  0  0  0
    4.9953    0.6401   21.1603 H   0  0  0  0  0  0  0  0  0  0  0  0
    7.7030   -1.9827   20.8813 N   0  0  0  0  0  0  0  0  0  0  0  0
    8.9305   -4.0712   21.6009 H   0  0  0  0  0  0  0  0  0  0  0  0
    9.7310   -3.3981   23.0504 H   0  0  0  0  0  0  0  0  0  0  0  0
    7.4615   -3.6522   24.2174 H   0  0  0  0  0  0  0  0  0  0  0  0
    6.8350   -4.3870   22.7362 H   0  0  0  0  0  0  0  0  0  0  0  0
    9.1594   -5.5221   24.3678 H   0  0  0  0  0  0  0  0  0  0  0  0
    7.4825   -6.0466   24.5168 H   0  0  0  0  0  0  0  0  0  0  0  0
    7.6343   -6.7729   22.3801 H   0  0  0  0  0  0  0  0  0  0  0  0
  1  2  1  0
  2  3  1  0
  3  4  1  0
  4  5  1  0
  5  6  2  0
  6  7  1  0
  7  8  1  0
  8  9  1  0
  9 10  2  0
 10 11  1  0
 11 12  2  0
 12 13  1  0
 13 14  1  0
 13 15  1  0
 13 16  1  0
 12 17  1  0
 17 18  2  0
 18 19  1  0
 17 20  1  0
 11 21  1  0
 10 22  1  0
  8 23  1  0
  8 24  1  0
  7 25  1  0
 25 26  1  0
 26 27  2  0
 27 28  1  0
 28 29  2  0
 29 30  1  0
 30 31  2  0
 31 32  1  0
 29 33  1  0
 28 34  1  0
 27 35  1  0
 25 36  2  0
  4 37  1  0
  4 38  1  0
  3 39  1  0
  3 40  1  0
  2 41  1  0
  2 42  1  0
  1 43  1  0
 36  5  1  0
 18  9  1  0
 31 26  1  0
M  END
>  <cnnaffinity>  (1) 
-5.52584

>  <filename>  (1) 
OCCCc1nc(-c2cccnc2)n(Cc2ccc(C(F)(F)F)cc2)n1

$$$$
