
     RDKit          3D

 40 42  0  0  0  0  0  0  0  0999 V2000
    7.4047   -6.5876   23.0619 O   0  0  0  0  0  0  0  0  0  0  0  0
    8.4823   -5.6715   22.9760 C   0  0  0  0  0  0  0  0  0  0  0  0
    7.8865   -4.2764   22.8475 C   0  0  0  0  0  0  0  0  0  0  0  0
    8.8447   -3.2498   22.2209 C   0  0  0  0  0  0  0  0  0  0  0  0
    8.2193   -1.9276   21.9502 C   0  0  0  0  0  0  0  0  0  0  0  0
    7.8646   -1.0781   22.8873 N   0  0  0  0  0  0  0  0  0  0  0  0
    7.2946   -0.0652   22.1824 N   0  0  0  0  0  0  0  0  0  0  0  0
    7.1149    1.2310   22.8496 C   0  0  0  0  0  0  0  0  0  0  0  0
    8.4014    1.7024   23.5078 C   0  0  0  0  0  0  0  0  0  0  0  0
    8.5700    1.6209   24.8950 C   0  0  0  0  0  0  0  0  0  0  0  0
    9.8242    1.7984   25.4862 C   0  0  0  0  0  0  0  0  0  0  0  0
   10.9335    2.1187   24.6999 C   0  0  0  0  0  0  0  0  0  0  0  0
   10.7876    2.2416   23.3173 C   0  0  0  0  0  0  0  0  0  0  0  0
    9.5265    2.0426   22.7451 C   0  0  0  0  0  0  0  0  0  0  0  0
    9.3813    2.2146   21.0309 Cl  0  0  0  0  0  0  0  0  0  0  0  0
   11.6290    2.4570   22.6683 H   0  0  0  0  0  0  0  0  0  0  0  0
   11.9129    2.2867   25.1404 H   0  0  0  0  0  0  0  0  0  0  0  0
    9.9288    1.6327   26.5478 H   0  0  0  0  0  0  0  0  0  0  0  0
    7.7117    1.4033   25.5282 H   0  0  0  0  0  0  0  0  0  0  0  0
    6.3337    1.1050   23.6024 H   0  0  0  0  0  0  0  0  0  0  0  0
    6.7873    1.9517   22.0996 H   0  0  0  0  0  0  0  0  0  0  0  0
    7.2884   -0.3989   20.8620 C   0  0  0  0  0  0  0  0  0  0  0  0
    6.5579    0.2860   19.7994 C   0  0  0  0  0  0  0  0  0  0  0  0
    5.3115    0.9137   19.9702 C   0  0  0  0  0  0  0  0  0  0  0  0
    4.7020    1.4834   18.8531 C   0  0  0  0  0  0  0  0  0  0  0  0
    5.3548    1.4080   17.6163 C   0  0  0  0  0  0  0  0  0  0  0  0
    6.5269    0.7790   17.4361 N   0  0  0  0  0  0  0  0  0  0  0  0
    7.0961    0.2182   18.5043 C   0  0  0  0  0  0  0  0  0  0  0  0
    8.0277   -0.3211   18.3333 H   0  0  0  0  0  0  0  0  0  0  0  0
    4.9222    1.8618   16.7271 H   0  0  0  0  0  0  0  0  0  0  0  0
    3.7514    1.9989   18.9244 H   0  0  0  0  0  0  0  0  0  0  0  0
    4.8150    0.9277   20.9438 H   0  0  0  0  0  0  0  0  0  0  0  0
    7.9256   -1.5414   20.6847 N   0  0  0  0  0  0  0  0  0  0  0  0
    9.1700   -3.5791   21.2357 H   0  0  0  0  0  0  0  0  0  0  0  0
    9.7361   -3.1168   22.8418 H   0  0  0  0  0  0  0  0  0  0  0  0
    7.5731   -3.9405   23.8424 H   0  0  0  0  0  0  0  0  0  0  0  0
    6.9759   -4.3590   22.2409 H   0  0  0  0  0  0  0  0  0  0  0  0
    9.0779   -5.9055   22.0832 H   0  0  0  0  0  0  0  0  0  0  0  0
    9.1546   -5.7156   23.8526 H   0  0  0  0  0  0  0  0  0  0  0  0
    7.6132   -7.2741   23.7021 H   0  0  0  0  0  0  0  0  0  0  0  0
  1  2  1  0
  2  3  1  0
  3  4  1  0
  4  5  1  0
  5  6  2  0
  6  7  1  0
  7  8  1  0
  8  9  1  0
  9 10  2  0
 10 11  1  0
 11 12  2  0
 12 13  1  0
 13 14  2  0
 14 15  1  0
 13 16  1  0
 12 17  1  0
 11 18  1  0
 10 19  1  0
  8 20  1  0
  8 21  1  0
  7 22  1  0
 22 23  1  0
 23 24  2  0
 24 25  1  0
 25 26  2  0
 26 27  1  0
 27 28  2  0
 28 29  1  0
 26 30  1  0
 25 31  1  0
 24 32  1  0
 22 33  2  0
  4 34  1  0
  4 35  1  0
  3 36  1  0
  3 37  1  0
  2 38  1  0
  2 39  1  0
  1 40  1  0
 33  5  1  0
 14  9  1  0
 28 23  1  0
M  END
>  <cnnaffinity>  (1) 
-5.92033

>  <filename>  (1) 
OCCCc1nc(-c2cccnc2)n(Cc2ccccc2Cl)n1

$$$$
