
     RDKit          3D

 40 42  0  0  0  0  0  0  0  0999 V2000
    6.0738   -5.3442   24.3098 O   0  0  0  0  0  0  0  0  0  0  0  0
    7.0038   -4.3223   24.0071 C   0  0  0  0  0  0  0  0  0  0  0  0
    7.6473   -4.5809   22.6409 C   0  0  0  0  0  0  0  0  0  0  0  0
    8.5302   -3.4523   22.0617 C   0  0  0  0  0  0  0  0  0  0  0  0
    7.8868   -2.1149   21.8907 C   0  0  0  0  0  0  0  0  0  0  0  0
    7.4580   -1.6931   20.7228 N   0  0  0  0  0  0  0  0  0  0  0  0
    7.0028   -0.4350   20.9797 N   0  0  0  0  0  0  0  0  0  0  0  0
    6.4225    0.2923   19.9026 C   0  0  0  0  0  0  0  0  0  0  0  0
    5.2349    1.0320   19.9894 C   0  0  0  0  0  0  0  0  0  0  0  0
    4.7157    1.5807   18.8060 C   0  0  0  0  0  0  0  0  0  0  0  0
    5.4087    1.4053   17.6048 C   0  0  0  0  0  0  0  0  0  0  0  0
    6.5526    0.7051   17.5178 N   0  0  0  0  0  0  0  0  0  0  0  0
    7.0352    0.1688   18.6395 C   0  0  0  0  0  0  0  0  0  0  0  0
    7.9640   -0.3932   18.5603 H   0  0  0  0  0  0  0  0  0  0  0  0
    5.0330    1.8285   16.6744 H   0  0  0  0  0  0  0  0  0  0  0  0
    3.7897    2.1433   18.8058 H   0  0  0  0  0  0  0  0  0  0  0  0
    4.7174    1.1708   20.9409 H   0  0  0  0  0  0  0  0  0  0  0  0
    7.2650   -0.1414   22.2924 C   0  0  0  0  0  0  0  0  0  0  0  0
    7.1329    1.1919   22.9677 C   0  0  0  0  0  0  0  0  0  0  0  0
    8.4710    1.6521   23.5505 C   0  0  0  0  0  0  0  0  0  0  0  0
    9.5175    2.0848   22.7127 C   0  0  0  0  0  0  0  0  0  0  0  0
    9.1801    2.3154   21.0369 Cl  0  0  0  0  0  0  0  0  0  0  0  0
   10.8081    2.3224   23.2219 C   0  0  0  0  0  0  0  0  0  0  0  0
   12.1181    2.8581   22.2159 Cl  0  0  0  0  0  0  0  0  0  0  0  0
   11.0531    2.1261   24.5833 C   0  0  0  0  0  0  0  0  0  0  0  0
   10.0233    1.7193   25.4280 C   0  0  0  0  0  0  0  0  0  0  0  0
    8.7389    1.5253   24.9172 C   0  0  0  0  0  0  0  0  0  0  0  0
    7.9274    1.2782   25.5948 H   0  0  0  0  0  0  0  0  0  0  0  0
   10.2268    1.5328   26.4749 H   0  0  0  0  0  0  0  0  0  0  0  0
   12.0526    2.2831   24.9685 H   0  0  0  0  0  0  0  0  0  0  0  0
    6.3984    1.0838   23.7728 H   0  0  0  0  0  0  0  0  0  0  0  0
    6.7535    1.9310   22.2580 H   0  0  0  0  0  0  0  0  0  0  0  0
    7.7752   -1.2054   22.8927 N   0  0  0  0  0  0  0  0  0  0  0  0
    9.4200   -3.3026   22.6854 H   0  0  0  0  0  0  0  0  0  0  0  0
    8.8729   -3.7286   21.0606 H   0  0  0  0  0  0  0  0  0  0  0  0
    6.8414   -4.8297   21.9404 H   0  0  0  0  0  0  0  0  0  0  0  0
    8.2677   -5.4838   22.7303 H   0  0  0  0  0  0  0  0  0  0  0  0
    7.7740   -4.2209   24.7935 H   0  0  0  0  0  0  0  0  0  0  0  0
    6.4381   -3.3894   23.9966 H   0  0  0  0  0  0  0  0  0  0  0  0
    6.5661   -6.1736   24.3585 H   0  0  0  0  0  0  0  0  0  0  0  0
  1  2  1  0
  2  3  1  0
  3  4  1  0
  4  5  1  0
  5  6  2  0
  6  7  1  0
  7  8  1  0
  8  9  2  0
  9 10  1  0
 10 11  2  0
 11 12  1  0
 12 13  2  0
 13 14  1  0
 11 15  1  0
 10 16  1  0
  9 17  1  0
  7 18  1  0
 18 19  1  0
 19 20  1  0
 20 21  2  0
 21 22  1  0
 21 23  1  0
 23 24  1  0
 23 25  2  0
 25 26  1  0
 26 27  2  0
 27 28  1  0
 26 29  1  0
 25 30  1  0
 19 31  1  0
 19 32  1  0
 18 33  2  0
  4 34  1  0
  4 35  1  0
  3 36  1  0
  3 37  1  0
  2 38  1  0
  2 39  1  0
  1 40  1  0
 33  5  1  0
 13  8  1  0
 27 20  1  0
M  END
>  <cnnaffinity>  (1) 
-5.77581

>  <filename>  (1) 
OCCCc1nc(Cc2cccc(Cl)c2Cl)n(-c2cccnc2)n1

$$$$
