
     RDKit          3D

 29 31  0  0  0  0  0  0  0  0999 V2000
    6.5728   -6.2710   22.9781 H   0  0  0  0  0  0  0  0  0  0  0  0
    6.0258   -6.2328   22.1805 O   0  0  0  0  0  0  0  0  0  0  0  0
    4.8964   -5.4581   22.5104 C   0  0  0  0  0  0  0  0  0  0  0  0
    4.5047   -5.0403   21.5726 H   0  0  0  0  0  0  0  0  0  0  0  0
    4.0858   -6.0695   22.9326 H   0  0  0  0  0  0  0  0  0  0  0  0
    5.2892   -4.3419   23.4752 C   0  0  0  0  0  0  0  0  0  0  0  0
    4.4019   -3.7761   23.7943 H   0  0  0  0  0  0  0  0  0  0  0  0
    5.7409   -4.7815   24.3739 H   0  0  0  0  0  0  0  0  0  0  0  0
    6.2416   -3.3956   22.8143 C   0  0  0  0  0  0  0  0  0  0  0  0
    7.5369   -3.3187   23.1114 N   0  0  0  0  0  0  0  0  0  0  0  0
    7.9771   -2.3422   22.2659 N   0  0  0  0  0  0  0  0  0  0  0  0
    9.1719   -1.6759   22.0530 C   0  0  0  0  0  0  0  0  0  0  0  0
   10.0331   -1.9060   22.6506 H   0  0  0  0  0  0  0  0  0  0  0  0
    8.9238   -0.7738   21.0668 C   0  0  0  0  0  0  0  0  0  0  0  0
    9.5486   -0.0278   20.6029 H   0  0  0  0  0  0  0  0  0  0  0  0
    7.5868   -0.8619   20.6819 N   0  0  0  0  0  0  0  0  0  0  0  0
    6.9152   -0.0518   19.7304 C   0  0  0  0  0  0  0  0  0  0  0  0
    7.3736    0.0696   18.4032 C   0  0  0  0  0  0  0  0  0  0  0  0
    8.3120   -0.3877   18.0846 H   0  0  0  0  0  0  0  0  0  0  0  0
    6.6903    0.7237   17.4537 N   0  0  0  0  0  0  0  0  0  0  0  0
    5.5392    1.3233   17.8004 C   0  0  0  0  0  0  0  0  0  0  0  0
    5.0241    1.8564   17.0042 H   0  0  0  0  0  0  0  0  0  0  0  0
    5.0232    1.2971   19.1011 C   0  0  0  0  0  0  0  0  0  0  0  0
    4.1016    1.8227   19.3299 H   0  0  0  0  0  0  0  0  0  0  0  0
    5.7260    0.6040   20.0881 C   0  0  0  0  0  0  0  0  0  0  0  0
    5.3861    0.5778   21.1252 H   0  0  0  0  0  0  0  0  0  0  0  0
    7.0120   -1.8515   21.4601 C   0  0  0  0  0  0  0  0  0  0  0  0
    5.8458   -2.5139   21.7943 C   0  0  0  0  0  0  0  0  0  0  0  0
    4.8337   -2.4109   21.4761 H   0  0  0  0  0  0  0  0  0  0  0  0
  1  2  1  0
  2  3  1  0
  3  4  1  0
  3  5  1  0
  3  6  1  0
  6  7  1  0
  6  8  1  0
  6  9  1  0
  9 10  2  0
 10 11  1  0
 11 12  1  0
 12 13  1  0
 12 14  2  0
 14 15  1  0
 14 16  1  0
 16 17  1  0
 17 18  2  0
 18 19  1  0
 18 20  1  0
 20 21  2  0
 21 22  1  0
 21 23  1  0
 23 24  1  0
 23 25  2  0
 25 26  1  0
 16 27  1  0
 27 28  2  0
 28 29  1  0
 28  9  1  0
 27 11  1  0
 25 17  1  0
M  END
>  <cnnaffinity>  (1) 
-4.84258

>  <filename>  (1) 
OCCc1cc2n(-c3cccnc3)ccn2n1

$$$$
