
     RDKit          3D

 40 42  0  0  0  0  0  0  0  0999 V2000
    5.7107   -5.7252   23.1681 O   0  0  0  0  0  0  0  0  0  0  0  0
    6.4671   -4.8701   22.3402 C   0  0  0  0  0  0  0  0  0  0  0  0
    7.7672   -4.4634   23.0298 C   0  0  0  0  0  0  0  0  0  0  0  0
    8.6530   -3.5237   22.1890 C   0  0  0  0  0  0  0  0  0  0  0  0
    8.0649   -2.1693   21.9749 C   0  0  0  0  0  0  0  0  0  0  0  0
    7.5844   -1.8069   20.8070 N   0  0  0  0  0  0  0  0  0  0  0  0
    7.1349   -0.5437   21.0246 N   0  0  0  0  0  0  0  0  0  0  0  0
    6.5201    0.1462   19.9406 C   0  0  0  0  0  0  0  0  0  0  0  0
    5.3192    0.8542   20.0714 C   0  0  0  0  0  0  0  0  0  0  0  0
    4.7737    1.4380   18.9182 C   0  0  0  0  0  0  0  0  0  0  0  0
    5.4555    1.3174   17.7023 C   0  0  0  0  0  0  0  0  0  0  0  0
    6.6059    0.6342   17.5720 N   0  0  0  0  0  0  0  0  0  0  0  0
    7.1049    0.0458   18.6618 C   0  0  0  0  0  0  0  0  0  0  0  0
    8.0008   -0.5574   18.5305 H   0  0  0  0  0  0  0  0  0  0  0  0
    5.0804    1.7864   16.7944 H   0  0  0  0  0  0  0  0  0  0  0  0
    3.8497    2.0041   18.9549 H   0  0  0  0  0  0  0  0  0  0  0  0
    4.8050    0.9213   21.0334 H   0  0  0  0  0  0  0  0  0  0  0  0
    7.4095   -0.2006   22.3242 C   0  0  0  0  0  0  0  0  0  0  0  0
    7.1833    1.1138   23.0114 C   0  0  0  0  0  0  0  0  0  0  0  0
    8.4809    1.6945   23.5764 C   0  0  0  0  0  0  0  0  0  0  0  0
    9.4857    2.2328   22.7508 C   0  0  0  0  0  0  0  0  0  0  0  0
    9.1332    2.4721   21.0658 Cl  0  0  0  0  0  0  0  0  0  0  0  0
   10.7669    2.5554   23.2223 C   0  0  0  0  0  0  0  0  0  0  0  0
   11.0771    2.2916   24.5573 C   0  0  0  0  0  0  0  0  0  0  0  0
   10.0909    1.8138   25.4234 C   0  0  0  0  0  0  0  0  0  0  0  0
    8.8110    1.5833   24.9340 C   0  0  0  0  0  0  0  0  0  0  0  0
    7.8582    1.2334   25.8196 F   0  0  0  0  0  0  0  0  0  0  0  0
   10.2757    1.5952   26.4611 H   0  0  0  0  0  0  0  0  0  0  0  0
   12.0804    2.4704   24.9359 H   0  0  0  0  0  0  0  0  0  0  0  0
   11.4998    2.9950   22.5496 H   0  0  0  0  0  0  0  0  0  0  0  0
    6.7271    1.8232   22.3194 H   0  0  0  0  0  0  0  0  0  0  0  0
    6.4947    0.9362   23.8427 H   0  0  0  0  0  0  0  0  0  0  0  0
    7.9783   -1.2234   22.9418 N   0  0  0  0  0  0  0  0  0  0  0  0
    9.6320   -3.3987   22.6634 H   0  0  0  0  0  0  0  0  0  0  0  0
    8.8100   -3.9378   21.1895 H   0  0  0  0  0  0  0  0  0  0  0  0
    8.3358   -5.3797   23.2506 H   0  0  0  0  0  0  0  0  0  0  0  0
    7.5154   -3.9969   23.9948 H   0  0  0  0  0  0  0  0  0  0  0  0
    6.6856   -5.3487   21.3678 H   0  0  0  0  0  0  0  0  0  0  0  0
    5.8372   -3.9955   22.1359 H   0  0  0  0  0  0  0  0  0  0  0  0
    6.3091   -6.4264   23.4606 H   0  0  0  0  0  0  0  0  0  0  0  0
  1  2  1  0
  2  3  1  0
  3  4  1  0
  4  5  1  0
  5  6  2  0
  6  7  1  0
  7  8  1  0
  8  9  2  0
  9 10  1  0
 10 11  2  0
 11 12  1  0
 12 13  2  0
 13 14  1  0
 11 15  1  0
 10 16  1  0
  9 17  1  0
  7 18  1  0
 18 19  1  0
 19 20  1  0
 20 21  2  0
 21 22  1  0
 21 23  1  0
 23 24  2  0
 24 25  1  0
 25 26  2  0
 26 27  1  0
 25 28  1  0
 24 29  1  0
 23 30  1  0
 19 31  1  0
 19 32  1  0
 18 33  2  0
  4 34  1  0
  4 35  1  0
  3 36  1  0
  3 37  1  0
  2 38  1  0
  2 39  1  0
  1 40  1  0
 33  5  1  0
 13  8  1  0
 26 20  1  0
M  END
>  <cnnaffinity>  (1) 
-5.73708

>  <filename>  (1) 
OCCCc1nc(Cc2c(F)cccc2Cl)n(-c2cccnc2)n1

$$$$
