
     RDKit          3D

 40 42  0  0  0  0  0  0  0  0999 V2000
    7.0142   -5.7401   21.3816 O   0  0  0  0  0  0  0  0  0  0  0  0
    6.6647   -4.9112   22.4780 C   0  0  0  0  0  0  0  0  0  0  0  0
    7.9094   -4.4167   23.2096 C   0  0  0  0  0  0  0  0  0  0  0  0
    8.7467   -3.4746   22.3253 C   0  0  0  0  0  0  0  0  0  0  0  0
    8.1398   -2.1372   22.0304 C   0  0  0  0  0  0  0  0  0  0  0  0
    7.7943   -1.2508   22.9509 N   0  0  0  0  0  0  0  0  0  0  0  0
    7.3028   -0.2156   22.2126 N   0  0  0  0  0  0  0  0  0  0  0  0
    7.1403    1.1150   22.8231 C   0  0  0  0  0  0  0  0  0  0  0  0
    8.4219    1.6125   23.4781 C   0  0  0  0  0  0  0  0  0  0  0  0
    9.5513    1.9974   22.7283 C   0  0  0  0  0  0  0  0  0  0  0  0
    9.4305    2.0935   21.0109 Cl  0  0  0  0  0  0  0  0  0  0  0  0
   10.7857    2.2428   23.3642 C   0  0  0  0  0  0  0  0  0  0  0  0
   12.2203    2.7009   22.4957 Cl  0  0  0  0  0  0  0  0  0  0  0  0
   10.8907    2.0673   24.7462 C   0  0  0  0  0  0  0  0  0  0  0  0
    9.7645    1.7338   25.4946 C   0  0  0  0  0  0  0  0  0  0  0  0
    8.5301    1.5672   24.8713 C   0  0  0  0  0  0  0  0  0  0  0  0
    7.6366    1.3765   25.4652 H   0  0  0  0  0  0  0  0  0  0  0  0
    9.8358    1.5589   26.5575 H   0  0  0  0  0  0  0  0  0  0  0  0
   11.8608    2.1932   25.2158 H   0  0  0  0  0  0  0  0  0  0  0  0
    6.3577    1.0241   23.5821 H   0  0  0  0  0  0  0  0  0  0  0  0
    6.8135    1.8162   22.0481 H   0  0  0  0  0  0  0  0  0  0  0  0
    7.3103   -0.5753   20.9010 C   0  0  0  0  0  0  0  0  0  0  0  0
    6.6068    0.1292   19.8360 C   0  0  0  0  0  0  0  0  0  0  0  0
    5.3726    0.7719   20.0246 C   0  0  0  0  0  0  0  0  0  0  0  0
    4.7783    1.3945   18.9320 C   0  0  0  0  0  0  0  0  0  0  0  0
    5.4346    1.3537   17.6975 C   0  0  0  0  0  0  0  0  0  0  0  0
    6.5924    0.7030   17.4958 N   0  0  0  0  0  0  0  0  0  0  0  0
    7.1479    0.0881   18.5442 C   0  0  0  0  0  0  0  0  0  0  0  0
    8.0698   -0.4613   18.3493 H   0  0  0  0  0  0  0  0  0  0  0  0
    4.9952    1.8419   16.8302 H   0  0  0  0  0  0  0  0  0  0  0  0
    3.8288    1.9062   19.0312 H   0  0  0  0  0  0  0  0  0  0  0  0
    4.8923    0.7578   21.0049 H   0  0  0  0  0  0  0  0  0  0  0  0
    7.9055   -1.7433   20.7532 N   0  0  0  0  0  0  0  0  0  0  0  0
    9.7422   -3.3255   22.7571 H   0  0  0  0  0  0  0  0  0  0  0  0
    8.8680   -3.9463   21.3475 H   0  0  0  0  0  0  0  0  0  0  0  0
    8.5205   -5.2930   23.4686 H   0  0  0  0  0  0  0  0  0  0  0  0
    7.6421   -3.9392   24.1610 H   0  0  0  0  0  0  0  0  0  0  0  0
    6.1206   -4.0608   22.0483 H   0  0  0  0  0  0  0  0  0  0  0  0
    5.9811   -5.4321   23.1675 H   0  0  0  0  0  0  0  0  0  0  0  0
    7.5308   -6.4737   21.7424 H   0  0  0  0  0  0  0  0  0  0  0  0
  1  2  1  0
  2  3  1  0
  3  4  1  0
  4  5  1  0
  5  6  2  0
  6  7  1  0
  7  8  1  0
  8  9  1  0
  9 10  2  0
 10 11  1  0
 10 12  1  0
 12 13  1  0
 12 14  2  0
 14 15  1  0
 15 16  2  0
 16 17  1  0
 15 18  1  0
 14 19  1  0
  8 20  1  0
  8 21  1  0
  7 22  1  0
 22 23  1  0
 23 24  2  0
 24 25  1  0
 25 26  2  0
 26 27  1  0
 27 28  2  0
 28 29  1  0
 26 30  1  0
 25 31  1  0
 24 32  1  0
 22 33  2  0
  4 34  1  0
  4 35  1  0
  3 36  1  0
  3 37  1  0
  2 38  1  0
  2 39  1  0
  1 40  1  0
 33  5  1  0
 16  9  1  0
 28 23  1  0
M  END
>  <cnnaffinity>  (1) 
-5.90206

>  <filename>  (1) 
OCCCc1nc(-c2cccnc2)n(Cc2cccc(Cl)c2Cl)n1

$$$$
