
     RDKit          3D

 44 47  0  0  0  0  0  0  0  0999 V2000
   -0.9048   -8.1908   22.5591 H   0  0  0  0  0  0  0  0  0  0  0  0
    0.0286   -8.2835   22.3310 O   0  0  0  0  0  0  0  0  0  0  0  0
    0.7692   -7.3337   23.0870 C   0  0  0  0  0  0  0  0  0  0  0  0
    0.4207   -6.3050   22.8907 H   0  0  0  0  0  0  0  0  0  0  0  0
    0.6916   -7.5127   24.1710 H   0  0  0  0  0  0  0  0  0  0  0  0
    2.2379   -7.4629   22.6904 C   0  0  0  0  0  0  0  0  0  0  0  0
    2.5205   -8.5143   22.8323 H   0  0  0  0  0  0  0  0  0  0  0  0
    2.3433   -7.2416   21.6087 H   0  0  0  0  0  0  0  0  0  0  0  0
    3.0979   -6.6182   23.5324 N   0  0  0  0  0  0  0  0  0  0  0  0
    2.8554   -5.1611   23.3277 C   0  0  0  0  0  0  0  0  0  0  0  0
    2.0990   -4.8243   24.0537 H   0  0  0  0  0  0  0  0  0  0  0  0
    2.4594   -4.9701   22.3100 H   0  0  0  0  0  0  0  0  0  0  0  0
    4.1326   -4.3024   23.4672 C   0  0  0  0  0  0  0  0  0  0  0  0
    4.5357   -4.4004   24.4915 H   0  0  0  0  0  0  0  0  0  0  0  0
    3.8891   -3.2499   23.3187 H   0  0  0  0  0  0  0  0  0  0  0  0
    5.1195   -4.7623   22.4669 N   0  0  0  0  0  0  0  0  0  0  0  0
    6.0988   -3.9746   21.9471 C   0  0  0  0  0  0  0  0  0  0  0  0
    7.2730   -4.3352   21.5313 N   0  0  0  0  0  0  0  0  0  0  0  0
    7.9112   -3.1601   21.1602 N   0  0  0  0  0  0  0  0  0  0  0  0
    7.0678   -2.2004   21.3205 C   0  0  0  0  0  0  0  0  0  0  0  0
    7.3178   -0.7380   21.0973 C   0  0  0  0  0  0  0  0  0  0  0  0
    6.5896   -0.0383   19.9707 C   0  0  0  0  0  0  0  0  0  0  0  0
    7.1368   -0.0020   18.6736 C   0  0  0  0  0  0  0  0  0  0  0  0
    8.0799   -0.5113   18.4761 H   0  0  0  0  0  0  0  0  0  0  0  0
    6.5833    0.6247   17.6272 N   0  0  0  0  0  0  0  0  0  0  0  0
    5.4289    1.2715   17.8414 C   0  0  0  0  0  0  0  0  0  0  0  0
    5.0013    1.7959   16.9842 H   0  0  0  0  0  0  0  0  0  0  0  0
    4.7901    1.2999   19.0848 C   0  0  0  0  0  0  0  0  0  0  0  0
    3.8574    1.8413   19.1925 H   0  0  0  0  0  0  0  0  0  0  0  0
    5.3822    0.6421   20.1670 C   0  0  0  0  0  0  0  0  0  0  0  0
    4.9268    0.6600   21.1586 H   0  0  0  0  0  0  0  0  0  0  0  0
    7.7287    0.0971   22.3080 C   0  0  0  0  0  0  0  0  0  0  0  0
    7.4479    1.1501   22.3201 H   0  0  0  0  0  0  0  0  0  0  0  0
    7.7262   -0.3801   23.2837 H   0  0  0  0  0  0  0  0  0  0  0  0
    8.7566   -0.3297   21.3142 C   0  0  0  0  0  0  0  0  0  0  0  0
    9.1797    0.4207   20.6476 H   0  0  0  0  0  0  0  0  0  0  0  0
    9.4233   -1.1402   21.6015 H   0  0  0  0  0  0  0  0  0  0  0  0
    5.8743   -2.6423   21.8297 O   0  0  0  0  0  0  0  0  0  0  0  0
    5.2841   -6.2296   22.3310 C   0  0  0  0  0  0  0  0  0  0  0  0
    4.9133   -6.5563   21.3438 H   0  0  0  0  0  0  0  0  0  0  0  0
    6.3501   -6.4834   22.3800 H   0  0  0  0  0  0  0  0  0  0  0  0
    4.5294   -6.9665   23.4577 C   0  0  0  0  0  0  0  0  0  0  0  0
    5.0100   -6.7051   24.4165 H   0  0  0  0  0  0  0  0  0  0  0  0
    4.6412   -8.0487   23.3379 H   0  0  0  0  0  0  0  0  0  0  0  0
  1  2  1  0
  2  3  1  0
  3  4  1  0
  3  5  1  0
  3  6  1  0
  6  7  1  0
  6  8  1  0
  6  9  1  0
  9 10  1  0
 10 11  1  0
 10 12  1  0
 10 13  1  0
 13 14  1  0
 13 15  1  0
 13 16  1  0
 16 17  1  0
 17 18  2  0
 18 19  1  0
 19 20  2  0
 20 21  1  0
 21 22  1  0
 22 23  2  0
 23 24  1  0
 23 25  1  0
 25 26  2  0
 26 27  1  0
 26 28  1  0
 28 29  1  0
 28 30  2  0
 30 31  1  0
 21 32  1  0
 32 33  1  0
 32 34  1  0
 32 35  1  0
 35 36  1  0
 35 37  1  0
 20 38  1  0
 16 39  1  0
 39 40  1  0
 39 41  1  0
 39 42  1  0
 42 43  1  0
 42 44  1  0
 42  9  1  0
 38 17  1  0
 35 21  1  0
 30 22  1  0
M  END
>  <cnnaffinity>  (1) 
-4.50456

>  <filename>  (1) 
OCCN1CCN(c2nnc(C3(c4cccnc4)CC3)o2)CC1

$$$$
