
     RDKit          3D

 35 36  0  0  0  0  0  0  0  0999 V2000
    6.4495    1.0172   27.9188 H   0  0  0  0  0  0  0  0  0  0  0  0
    5.9349    0.5112   27.2760 O   0  0  0  0  0  0  0  0  0  0  0  0
    6.7856    0.2459   26.1689 C   0  0  0  0  0  0  0  0  0  0  0  0
    7.7646   -0.1414   26.4823 H   0  0  0  0  0  0  0  0  0  0  0  0
    6.3039   -0.5477   25.5870 H   0  0  0  0  0  0  0  0  0  0  0  0
    6.9993    1.4858   25.2894 C   0  0  0  0  0  0  0  0  0  0  0  0
    7.4480    2.2671   25.9126 H   0  0  0  0  0  0  0  0  0  0  0  0
    6.0057    1.8588   24.9823 H   0  0  0  0  0  0  0  0  0  0  0  0
    7.8973    1.2165   24.1646 N   0  0  0  0  0  0  0  0  0  0  0  0
    8.4185    2.0545   23.9208 H   0  0  0  0  0  0  0  0  0  0  0  0
    7.2015    0.7084   22.9691 C   0  0  0  0  0  0  0  0  0  0  0  0
    6.4247    0.0000   23.2872 H   0  0  0  0  0  0  0  0  0  0  0  0
    6.6752    1.5159   22.4298 H   0  0  0  0  0  0  0  0  0  0  0  0
    8.1020   -0.0444   21.9630 C   0  0  0  0  0  0  0  0  0  0  0  0
    7.2691   -0.7340   20.9680 N   0  0  0  0  0  0  0  0  0  0  0  0
    7.5210   -1.6975   20.7930 H   0  0  0  0  0  0  0  0  0  0  0  0
    6.6564   -0.0111   19.9132 C   0  0  0  0  0  0  0  0  0  0  0  0
    7.1650    0.0594   18.5866 C   0  0  0  0  0  0  0  0  0  0  0  0
    8.1131   -0.4259   18.3521 H   0  0  0  0  0  0  0  0  0  0  0  0
    6.5582    0.6859   17.5628 N   0  0  0  0  0  0  0  0  0  0  0  0
    5.3941    1.3021   17.8237 C   0  0  0  0  0  0  0  0  0  0  0  0
    4.9106    1.7948   16.9837 H   0  0  0  0  0  0  0  0  0  0  0  0
    4.8075    1.3141   19.0925 C   0  0  0  0  0  0  0  0  0  0  0  0
    3.8773    1.8395   19.2561 H   0  0  0  0  0  0  0  0  0  0  0  0
    5.4434    0.6523   20.1508 C   0  0  0  0  0  0  0  0  0  0  0  0
    5.0254    0.6108   21.1577 H   0  0  0  0  0  0  0  0  0  0  0  0
    9.2662    0.8396   21.4133 C   0  0  0  0  0  0  0  0  0  0  0  0
    9.2584    1.8858   21.7434 H   0  0  0  0  0  0  0  0  0  0  0  0
    9.3138    0.8511   20.3244 H   0  0  0  0  0  0  0  0  0  0  0  0
   10.2995   -0.0862   22.1063 C   0  0  0  0  0  0  0  0  0  0  0  0
   10.8855    0.3977   22.8963 H   0  0  0  0  0  0  0  0  0  0  0  0
   11.0010   -0.5780   21.4268 H   0  0  0  0  0  0  0  0  0  0  0  0
    9.1420   -0.9911   22.6091 C   0  0  0  0  0  0  0  0  0  0  0  0
    9.1206   -2.0134   22.2144 H   0  0  0  0  0  0  0  0  0  0  0  0
    9.0568   -1.0443   23.6985 H   0  0  0  0  0  0  0  0  0  0  0  0
  1  2  1  0
  2  3  1  0
  3  4  1  0
  3  5  1  0
  3  6  1  0
  6  7  1  0
  6  8  1  0
  6  9  1  0
  9 10  1  0
  9 11  1  0
 11 12  1  0
 11 13  1  0
 11 14  1  0
 14 15  1  0
 15 16  1  0
 15 17  1  0
 17 18  2  0
 18 19  1  0
 18 20  1  0
 20 21  2  0
 21 22  1  0
 21 23  1  0
 23 24  1  0
 23 25  2  0
 25 26  1  0
 14 27  1  0
 27 28  1  0
 27 29  1  0
 27 30  1  0
 30 31  1  0
 30 32  1  0
 30 33  1  0
 33 34  1  0
 33 35  1  0
 33 14  1  0
 25 17  1  0
M  END
>  <cnnaffinity>  (1) 
-4.44446

>  <filename>  (1) 
OCCNCC1(Nc2cccnc2)CCC1

$$$$
