
     RDKit          3D

 28 29  0  0  0  0  0  0  0  0999 V2000
    4.9810    0.3138   26.6660 H   0  0  0  0  0  0  0  0  0  0  0  0
    5.6961    0.8023   26.2377 O   0  0  0  0  0  0  0  0  0  0  0  0
    5.7347    0.3921   24.8773 C   0  0  0  0  0  0  0  0  0  0  0  0
    4.7932    0.6423   24.3688 H   0  0  0  0  0  0  0  0  0  0  0  0
    5.9179   -0.6867   24.7701 H   0  0  0  0  0  0  0  0  0  0  0  0
    6.8710    1.1240   24.1746 C   0  0  0  0  0  0  0  0  0  0  0  0
    7.8318    0.9057   24.6451 H   0  0  0  0  0  0  0  0  0  0  0  0
    6.7052    2.1992   24.2318 H   0  0  0  0  0  0  0  0  0  0  0  0
    6.9013    0.8171   22.7529 O   0  0  0  0  0  0  0  0  0  0  0  0
    7.4022   -0.3592   22.3552 C   0  0  0  0  0  0  0  0  0  0  0  0
    7.9539   -1.2331   23.1082 N   0  0  0  0  0  0  0  0  0  0  0  0
    8.3825   -2.3205   22.2338 C   0  0  0  0  0  0  0  0  0  0  0  0
    7.8856   -3.2530   22.5159 H   0  0  0  0  0  0  0  0  0  0  0  0
    9.4563   -2.5024   22.3249 H   0  0  0  0  0  0  0  0  0  0  0  0
    8.0191   -1.9219   20.7903 C   0  0  0  0  0  0  0  0  0  0  0  0
    7.3447   -2.6478   20.3219 H   0  0  0  0  0  0  0  0  0  0  0  0
    8.9027   -1.8307   20.1423 H   0  0  0  0  0  0  0  0  0  0  0  0
    7.3505   -0.6400   20.9886 N   0  0  0  0  0  0  0  0  0  0  0  0
    6.6716    0.0224   19.9330 C   0  0  0  0  0  0  0  0  0  0  0  0
    7.1718    0.0588   18.6041 C   0  0  0  0  0  0  0  0  0  0  0  0
    8.1170   -0.4263   18.3729 H   0  0  0  0  0  0  0  0  0  0  0  0
    6.5641    0.6736   17.5790 N   0  0  0  0  0  0  0  0  0  0  0  0
    5.3998    1.2939   17.8330 C   0  0  0  0  0  0  0  0  0  0  0  0
    4.9160    1.7851   16.9906 H   0  0  0  0  0  0  0  0  0  0  0  0
    4.8073    1.3051   19.1007 C   0  0  0  0  0  0  0  0  0  0  0  0
    3.8777    1.8380   19.2587 H   0  0  0  0  0  0  0  0  0  0  0  0
    5.4398    0.6556   20.1653 C   0  0  0  0  0  0  0  0  0  0  0  0
    5.0214    0.6309   21.1685 H   0  0  0  0  0  0  0  0  0  0  0  0
  1  2  1  0
  2  3  1  0
  3  4  1  0
  3  5  1  0
  3  6  1  0
  6  7  1  0
  6  8  1  0
  6  9  1  0
  9 10  1  0
 10 11  2  0
 11 12  1  0
 12 13  1  0
 12 14  1  0
 12 15  1  0
 15 16  1  0
 15 17  1  0
 15 18  1  0
 18 19  1  0
 19 20  2  0
 20 21  1  0
 20 22  1  0
 22 23  2  0
 23 24  1  0
 23 25  1  0
 25 26  1  0
 25 27  2  0
 27 28  1  0
 18 10  1  0
 27 19  1  0
M  END
>  <cnnaffinity>  (1) 
-3.87779

>  <filename>  (1) 
OCCOC1=NCCN1c1cccnc1

$$$$
