
     RDKit          3D

 43 44  0  0  0  0  0  0  0  0999 V2000
    7.2243    2.0977   28.4198 O   0  0  0  0  0  0  0  0  0  0  0  0
    5.9233    1.5445   28.3775 C   0  0  0  0  0  0  0  0  0  0  0  0
    5.5032    0.9230   27.0326 C   0  0  0  0  0  0  0  0  0  0  0  0
    6.0386   -0.3729   26.7561 O   0  0  0  0  0  0  0  0  0  0  0  0
    5.6335   -1.4071   27.6732 C   0  0  0  0  0  0  0  0  0  0  0  0
    4.5828   -2.3055   27.0339 C   0  0  0  0  0  0  0  0  0  0  0  0
    5.1549   -3.1638   25.9142 C   0  0  0  0  0  0  0  0  0  0  0  0
    5.8537   -2.2862   24.9480 N   0  0  0  0  0  4  0  0  0  0  0  0
    6.6454   -3.0125   23.9377 C   0  0  0  0  0  0  0  0  0  0  0  0
    7.3124   -2.0427   23.0023 C   0  0  0  0  0  0  0  0  0  0  0  0
    8.6652   -1.7241   23.1751 C   0  0  0  0  0  0  0  0  0  0  0  0
    9.3754   -0.9549   22.3427 N   0  0  0  0  0  0  0  0  0  0  0  0
    8.7424   -0.4587   21.2732 C   0  0  0  0  0  0  0  0  0  0  0  0
    7.3776   -0.6717   20.9931 C   0  0  0  0  0  0  0  0  0  0  0  0
    6.6838   -0.0064   19.8474 C   0  0  0  0  0  0  0  0  0  0  0  0
    5.4851    0.6933   20.0654 C   0  0  0  0  0  0  0  0  0  0  0  0
    4.8904    1.3642   18.9955 C   0  0  0  0  0  0  0  0  0  0  0  0
    5.4969    1.2982   17.7375 C   0  0  0  0  0  0  0  0  0  0  0  0
    6.6249    0.6125   17.4913 N   0  0  0  0  0  0  0  0  0  0  0  0
    7.1946   -0.0126   18.5304 C   0  0  0  0  0  0  0  0  0  0  0  0
    8.1109   -0.5580   18.3098 H   0  0  0  0  0  0  0  0  0  0  0  0
    5.0620    1.8315   16.8943 H   0  0  0  0  0  0  0  0  0  0  0  0
    3.9887    1.9492   19.1347 H   0  0  0  0  0  0  0  0  0  0  0  0
    5.0556    0.7263   21.0683 H   0  0  0  0  0  0  0  0  0  0  0  0
    6.6668   -1.4813   21.8904 C   0  0  0  0  0  0  0  0  0  0  0  0
    5.6127   -1.6758   21.7000 H   0  0  0  0  0  0  0  0  0  0  0  0
    9.3390    0.1548   20.5969 H   0  0  0  0  0  0  0  0  0  0  0  0
    9.2076   -2.1398   24.0215 H   0  0  0  0  0  0  0  0  0  0  0  0
    7.4068   -3.6416   24.4262 H   0  0  0  0  0  0  0  0  0  0  0  0
    5.9966   -3.6982   23.3673 H   0  0  0  0  0  0  0  0  0  0  0  0
    6.4424   -1.5876   25.4686 H   0  0  0  0  0  0  0  0  0  0  0  0
    5.1654   -1.6887   24.4267 H   0  0  0  0  0  0  0  0  0  0  0  0
    5.8643   -3.8955   26.3378 H   0  0  0  0  0  0  0  0  0  0  0  0
    4.3665   -3.7518   25.4224 H   0  0  0  0  0  0  0  0  0  0  0  0
    3.7853   -1.6571   26.6474 H   0  0  0  0  0  0  0  0  0  0  0  0
    4.1421   -2.9563   27.7965 H   0  0  0  0  0  0  0  0  0  0  0  0
    6.5465   -1.9525   27.9358 H   0  0  0  0  0  0  0  0  0  0  0  0
    5.2417   -0.9929   28.6121 H   0  0  0  0  0  0  0  0  0  0  0  0
    5.8579    1.5674   26.2211 H   0  0  0  0  0  0  0  0  0  0  0  0
    4.4001    0.9040   26.9842 H   0  0  0  0  0  0  0  0  0  0  0  0
    5.9131    0.7727   29.1526 H   0  0  0  0  0  0  0  0  0  0  0  0
    5.1563    2.2846   28.6559 H   0  0  0  0  0  0  0  0  0  0  0  0
    7.2961    2.7758   27.7360 H   0  0  0  0  0  0  0  0  0  0  0  0
  1  2  1  0
  2  3  1  0
  3  4  1  0
  4  5  1  0
  5  6  1  0
  6  7  1  0
  7  8  1  0
  8  9  1  0
  9 10  1  0
 10 11  2  0
 11 12  1  0
 12 13  2  0
 13 14  1  0
 14 15  1  0
 15 16  2  0
 16 17  1  0
 17 18  2  0
 18 19  1  0
 19 20  2  0
 20 21  1  0
 18 22  1  0
 17 23  1  0
 16 24  1  0
 14 25  2  0
 25 26  1  0
 13 27  1  0
 11 28  1  0
  9 29  1  0
  9 30  1  0
  8 31  1  0
  8 32  1  0
  7 33  1  0
  7 34  1  0
  6 35  1  0
  6 36  1  0
  5 37  1  0
  5 38  1  0
  3 39  1  0
  3 40  1  0
  2 41  1  0
  2 42  1  0
  1 43  1  0
 25 10  1  0
 20 15  1  0
M  CHG  1   8   1
M  END
>  <cnnaffinity>  (1) 
-4.44499

>  <filename>  (1) 
OCCOCCC[NH2+]Cc1cncc(-c2cccnc2)c1

$$$$
