
     RDKit          3D

 24 25  0  0  0  0  0  0  0  0999 V2000
    6.3361   -1.9189   21.9353 H   0  0  0  0  0  0  0  0  0  0  0  0
    6.5656   -0.9768   21.9984 O   0  0  0  0  0  0  0  0  0  0  0  0
    7.3429   -0.7063   20.8725 N   0  0  0  0  0  0  0  0  0  0  0  0
    6.6829    0.0276   19.8599 C   0  0  0  0  0  0  0  0  0  0  0  0
    7.1823    0.0801   18.5413 C   0  0  0  0  0  0  0  0  0  0  0  0
    8.1061   -0.4388   18.2902 H   0  0  0  0  0  0  0  0  0  0  0  0
    6.5689    0.7136   17.5278 N   0  0  0  0  0  0  0  0  0  0  0  0
    5.4069    1.3340   17.7891 C   0  0  0  0  0  0  0  0  0  0  0  0
    4.9194    1.8471   16.9611 H   0  0  0  0  0  0  0  0  0  0  0  0
    4.8158    1.3317   19.0595 C   0  0  0  0  0  0  0  0  0  0  0  0
    3.8736    1.8452   19.2220 H   0  0  0  0  0  0  0  0  0  0  0  0
    5.4516    0.6689   20.1055 C   0  0  0  0  0  0  0  0  0  0  0  0
    5.0243    0.6293   21.1070 H   0  0  0  0  0  0  0  0  0  0  0  0
    8.7334   -0.7428   21.1317 C   0  0  0  0  0  0  0  0  0  0  0  0
    9.5570    0.4034   21.0518 C   0  0  0  0  0  0  0  0  0  0  0  0
    9.1227    1.3587   20.7789 H   0  0  0  0  0  0  0  0  0  0  0  0
   10.9316    0.3169   21.3002 C   0  0  0  0  0  0  0  0  0  0  0  0
   11.5763    1.1849   21.2264 H   0  0  0  0  0  0  0  0  0  0  0  0
   11.4950   -0.9056   21.6522 C   0  0  0  0  0  0  0  0  0  0  0  0
   13.2159   -1.0211   21.8645 Cl  0  0  0  0  0  0  0  0  0  0  0  0
   10.7068   -2.0444   21.8133 C   0  0  0  0  0  0  0  0  0  0  0  0
   11.1370   -2.9641   22.1996 H   0  0  0  0  0  0  0  0  0  0  0  0
    9.3434   -1.9647   21.5213 C   0  0  0  0  0  0  0  0  0  0  0  0
    8.4100   -3.4335   21.6328 Cl  0  0  0  0  0  0  0  0  0  0  0  0
  1  2  1  0
  2  3  1  0
  3  4  1  0
  4  5  2  0
  5  6  1  0
  5  7  1  0
  7  8  2  0
  8  9  1  0
  8 10  1  0
 10 11  1  0
 10 12  2  0
 12 13  1  0
  3 14  1  0
 14 15  2  0
 15 16  1  0
 15 17  1  0
 17 18  1  0
 17 19  2  0
 19 20  1  0
 19 21  1  0
 21 22  1  0
 21 23  2  0
 23 24  1  0
 12  4  1  0
 23 14  1  0
M  END
>  <cnnaffinity>  (1) 
-5.30131

>  <filename>  (1) 
ON(c1cccnc1)c1ccc(Cl)cc1Cl

$$$$
