
     RDKit          3D

 34 35  0  0  0  0  0  0  0  0999 V2000
    4.9809    2.2607   17.1163 H   0  0  0  0  0  0  0  0  0  0  0  0
    5.4744    1.6781   17.8908 C   0  0  0  0  0  0  0  0  0  0  0  0
    6.6498    1.1213   17.5577 N   0  0  0  0  0  0  0  0  0  0  0  0
    7.2897    0.4231   18.4981 C   0  0  0  0  0  0  0  0  0  0  0  0
    8.2360   -0.0251   18.1973 H   0  0  0  0  0  0  0  0  0  0  0  0
    6.8310    0.2606   19.8216 C   0  0  0  0  0  0  0  0  0  0  0  0
    7.6823   -0.4396   20.8180 C   0  0  0  0  0  0  0  0  0  0  0  0
    9.2961   -0.5701   20.6092 S   0  0  0  0  0  0  0  0  0  0  0  0
    7.0387   -1.0127   22.1034 C   0  0  0  0  0  0  0  0  0  0  0  0
    6.6249   -0.1605   22.6529 H   0  0  0  0  0  0  0  0  0  0  0  0
    7.8731   -1.3665   22.7202 H   0  0  0  0  0  0  0  0  0  0  0  0
    6.0100   -2.0347   22.0124 N   0  0  0  0  0  0  0  0  0  0  0  0
    5.0566   -1.6862   22.0405 H   0  0  0  0  0  0  0  0  0  0  0  0
    6.1758   -3.1763   21.1737 C   0  0  0  0  0  0  0  0  0  0  0  0
    7.2511   -3.3841   21.0617 H   0  0  0  0  0  0  0  0  0  0  0  0
    5.4071   -4.3596   21.7420 C   0  0  0  0  0  0  0  0  0  0  0  0
    5.5123   -4.3606   22.8355 H   0  0  0  0  0  0  0  0  0  0  0  0
    4.3725   -4.0898   21.5144 H   0  0  0  0  0  0  0  0  0  0  0  0
    5.7077   -5.7528   21.1655 C   0  0  0  0  0  0  0  0  0  0  0  0
    6.6355   -6.1563   21.5911 H   0  0  0  0  0  0  0  0  0  0  0  0
    4.9038   -6.4420   21.4611 H   0  0  0  0  0  0  0  0  0  0  0  0
    5.8213   -5.7115   19.6220 C   0  0  0  0  0  0  0  0  0  0  0  0
    5.8477   -6.7391   19.2060 H   0  0  0  0  0  0  0  0  0  0  0  0
    4.9039   -5.2464   19.2268 H   0  0  0  0  0  0  0  0  0  0  0  0
    5.2654   -2.8436   19.4612 C   0  0  0  0  0  0  0  0  0  0  0  0
    5.0462   -2.9531   18.2374 H   0  0  0  0  0  0  0  0  0  0  0  0
    6.7200   -5.1183   19.2762 H   0  0  0  0  0  0  0  0  0  0  0  0
    5.5325   -2.6724   19.3048 C   0  0  0  0  0  0  0  0  0  0  0  0
    5.0260   -1.6577   19.5780 H   0  0  0  0  0  0  0  0  0  0  0  0
    6.6215   -2.3052   19.0677 H   0  0  0  0  0  0  0  0  0  0  0  0
    5.5495    0.7545   20.1152 C   0  0  0  0  0  0  0  0  0  0  0  0
    5.0668    0.5278   21.0694 H   0  0  0  0  0  0  0  0  0  0  0  0
    4.8750    1.4989   19.1428 C   0  0  0  0  0  0  0  0  0  0  0  0
    3.9145    1.9596   19.3449 H   0  0  0  0  0  0  0  0  0  0  0  0
  1  2  1  0
  2  3  2  0
  3  4  1  0
  4  5  1  0
  4  6  2  0
  6  7  1  0
  7  8  2  0
  7  9  1  0
  9 10  1  0
  9 11  1  0
  9 12  1  0
 12 13  1  0
 12 14  1  0
 14 15  1  0
 14 16  1  0
 16 17  1  0
 16 18  1  0
 16 19  1  0
 19 20  1  0
 19 21  1  0
 19 22  1  0
 22 23  1  0
 22 24  1  0
 22 25  1  0
 25 26  1  0
 25 27  1  0
 25 28  1  0
 28 29  1  0
 28 30  1  0
  6 31  1  0
 31 32  1  0
 31 33  2  0
 33 34  1  0
 33  2  1  0
 28 14  1  0
M  END
>  <cnnaffinity>  (1) 
-4.79883

>  <filename>  (1) 
S=C(CNC1CCCCC1)c1cccnc1

$$$$
