
     RDKit          3D

 30 32  0  0  0  0  0  0  0  0999 V2000
    5.0521    1.5216   16.8039 H   0  0  0  0  0  0  0  0  0  0  0  0
    5.4644    1.1674   17.7488 C   0  0  0  0  0  0  0  0  0  0  0  0
    6.6443    0.5273   17.6869 N   0  0  0  0  0  0  0  0  0  0  0  0
    7.1777    0.1161   18.8389 C   0  0  0  0  0  0  0  0  0  0  0  0
    8.1546   -0.3640   18.7655 H   0  0  0  0  0  0  0  0  0  0  0  0
    6.5745    0.2834   20.0977 C   0  0  0  0  0  0  0  0  0  0  0  0
    7.2745   -0.1707   21.3362 C   0  0  0  0  0  0  0  0  0  0  0  0
    7.3345    0.7299   22.6922 S   0  0  0  0  0  0  0  0  0  0  0  0
    8.1613   -1.7307   21.1893 S   0  0  0  0  0  0  0  0  0  0  0  0
    6.9638   -3.0934   21.2111 C   0  0  0  0  0  0  0  0  0  0  0  0
    6.2764   -3.4263   20.0613 C   0  0  0  0  0  0  0  0  0  0  0  0
    6.3116   -2.7505   19.2104 H   0  0  0  0  0  0  0  0  0  0  0  0
    5.5603   -4.6523   19.9609 C   0  0  0  0  0  0  0  0  0  0  0  0
    5.0889   -4.9196   19.0197 H   0  0  0  0  0  0  0  0  0  0  0  0
    5.4132   -5.4646   21.0597 C   0  0  0  0  0  0  0  0  0  0  0  0
    4.8232   -6.3787   21.0108 H   0  0  0  0  0  0  0  0  0  0  0  0
    6.0086   -5.1078   22.3058 C   0  0  0  0  0  0  0  0  0  0  0  0
    5.7527   -5.8610   23.4932 C   0  0  0  0  0  0  0  0  0  0  0  0
    5.1149   -6.7433   23.4318 H   0  0  0  0  0  0  0  0  0  0  0  0
    6.2912   -5.4724   24.6969 C   0  0  0  0  0  0  0  0  0  0  0  0
    6.0325   -5.9985   25.6116 H   0  0  0  0  0  0  0  0  0  0  0  0
    7.1710   -4.3569   24.7616 C   0  0  0  0  0  0  0  0  0  0  0  0
    7.5894   -4.0428   25.7127 H   0  0  0  0  0  0  0  0  0  0  0  0
    7.4519   -3.6247   23.6309 C   0  0  0  0  0  0  0  0  0  0  0  0
    8.1526   -2.7972   23.6754 H   0  0  0  0  0  0  0  0  0  0  0  0
    6.8440   -3.9345   22.3782 C   0  0  0  0  0  0  0  0  0  0  0  0
    5.3360    0.9487   20.1424 C   0  0  0  0  0  0  0  0  0  0  0  0
    4.8244    1.1015   21.0932 H   0  0  0  0  0  0  0  0  0  0  0  0
    4.7772    1.3922   18.9444 C   0  0  0  0  0  0  0  0  0  0  0  0
    3.8218    1.9066   18.9285 H   0  0  0  0  0  0  0  0  0  0  0  0
  1  2  1  0
  2  3  2  0
  3  4  1  0
  4  5  1  0
  4  6  2  0
  6  7  1  0
  7  8  2  0
  7  9  1  0
  9 10  1  0
 10 11  2  0
 11 12  1  0
 11 13  1  0
 13 14  1  0
 13 15  2  0
 15 16  1  0
 15 17  1  0
 17 18  2  0
 18 19  1  0
 18 20  1  0
 20 21  1  0
 20 22  2  0
 22 23  1  0
 22 24  1  0
 24 25  1  0
 24 26  2  0
  6 27  1  0
 27 28  1  0
 27 29  2  0
 29 30  1  0
 29  2  1  0
 26 10  1  0
 26 17  1  0
M  END
>  <cnnaffinity>  (1) 
-4.52069

>  <filename>  (1) 
S=C(Sc1cccc2ccccc12)c1cccnc1

$$$$
