
     RDKit          3D

 28 29  0  0  0  0  0  0  0  0999 V2000
    4.9161    1.7864   16.9910 H   0  0  0  0  0  0  0  0  0  0  0  0
    5.3951    1.2942   17.8351 C   0  0  0  0  0  0  0  0  0  0  0  0
    6.5578    0.6737   17.5801 N   0  0  0  0  0  0  0  0  0  0  0  0
    7.1687    0.0427   18.5938 C   0  0  0  0  0  0  0  0  0  0  0  0
    8.1274   -0.4247   18.3698 H   0  0  0  0  0  0  0  0  0  0  0  0
    6.6394   -0.0149   19.8968 C   0  0  0  0  0  0  0  0  0  0  0  0
    7.5157   -0.7949   21.2606 S   0  0  0  0  0  0  0  0  0  0  0  0
    8.5622    0.6003   21.7081 C   0  0  0  0  0  0  0  0  0  0  0  0
    9.9277    0.9332   20.8643 S   0  0  0  0  0  0  0  0  0  0  0  0
    8.1112    1.4399   22.6594 N   0  0  0  0  0  0  0  0  0  0  0  0
    8.7313    2.2298   22.7702 H   0  0  0  0  0  0  0  0  0  0  0  0
    7.1219    1.1215   23.6905 C   0  0  0  0  0  0  0  0  0  0  0  0
    6.1794    0.8455   23.2079 H   0  0  0  0  0  0  0  0  0  0  0  0
    6.9374    2.0282   24.2707 H   0  0  0  0  0  0  0  0  0  0  0  0
    7.5825    0.0090   24.6048 C   0  0  0  0  0  0  0  0  0  0  0  0
    8.7118    0.1719   25.4107 C   0  0  0  0  0  0  0  0  0  0  0  0
    9.2692    1.1019   25.4072 H   0  0  0  0  0  0  0  0  0  0  0  0
    9.1227   -0.8826   26.2234 C   0  0  0  0  0  0  0  0  0  0  0  0
    9.9945   -0.7665   26.8628 H   0  0  0  0  0  0  0  0  0  0  0  0
    8.5003   -2.0652   26.2772 N   0  0  0  0  0  0  0  0  0  0  0  0
    7.4279   -2.2191   25.4948 C   0  0  0  0  0  0  0  0  0  0  0  0
    6.9268   -3.1834   25.5433 H   0  0  0  0  0  0  0  0  0  0  0  0
    6.9315   -1.2254   24.6518 C   0  0  0  0  0  0  0  0  0  0  0  0
    6.0703   -1.4166   24.0241 H   0  0  0  0  0  0  0  0  0  0  0  0
    5.4306    0.6404   20.1470 C   0  0  0  0  0  0  0  0  0  0  0  0
    5.0118    0.6274   21.1561 H   0  0  0  0  0  0  0  0  0  0  0  0
    4.7988    1.3121   19.0994 C   0  0  0  0  0  0  0  0  0  0  0  0
    3.8710    1.8473   19.2571 H   0  0  0  0  0  0  0  0  0  0  0  0
  1  2  1  0
  2  3  2  0
  3  4  1  0
  4  5  1  0
  4  6  2  0
  6  7  1  0
  7  8  1  0
  8  9  2  0
  8 10  1  0
 10 11  1  0
 10 12  1  0
 12 13  1  0
 12 14  1  0
 12 15  1  0
 15 16  2  0
 16 17  1  0
 16 18  1  0
 18 19  1  0
 18 20  2  0
 20 21  1  0
 21 22  1  0
 21 23  2  0
 23 24  1  0
  6 25  1  0
 25 26  1  0
 25 27  2  0
 27 28  1  0
 27  2  1  0
 23 15  1  0
M  END
>  <cnnaffinity>  (1) 
-4.72105

>  <filename>  (1) 
S=C(NCc1ccncc1)Sc1cccnc1

$$$$
