
     RDKit          3D

 40 42  0  0  0  0  0  0  0  0999 V2000
    4.9251    1.8162   16.9696 H   0  0  0  0  0  0  0  0  0  0  0  0
    5.3814    1.3052   17.8167 C   0  0  0  0  0  0  0  0  0  0  0  0
    6.5393    0.6772   17.5687 N   0  0  0  0  0  0  0  0  0  0  0  0
    7.1455    0.0636   18.5930 C   0  0  0  0  0  0  0  0  0  0  0  0
    8.0957   -0.4172   18.3663 H   0  0  0  0  0  0  0  0  0  0  0  0
    6.6391    0.0226   19.9096 C   0  0  0  0  0  0  0  0  0  0  0  0
    7.3909   -0.6771   21.0348 C   0  0  0  0  0  0  0  0  0  0  0  0
    6.7300   -0.8344   21.8961 H   0  0  0  0  0  0  0  0  0  0  0  0
    7.7240   -1.6700   20.7182 H   0  0  0  0  0  0  0  0  0  0  0  0
    8.6688    0.0161   21.5092 C   0  0  0  0  0  0  0  0  0  0  0  0
   10.1287   -0.3997   20.8509 S   0  0  0  0  0  0  0  0  0  0  0  0
    8.5597    0.9159   22.5133 N   0  0  0  0  0  0  0  0  0  0  0  0
    9.7067    1.1499   23.4113 C   0  0  0  0  0  0  0  0  0  0  0  0
   10.3317    0.2525   23.4125 H   0  0  0  0  0  0  0  0  0  0  0  0
   10.3124    1.9782   23.0140 H   0  0  0  0  0  0  0  0  0  0  0  0
    9.2199    1.4344   24.8399 C   0  0  0  0  0  0  0  0  0  0  0  0
    8.7570    0.5115   25.2361 H   0  0  0  0  0  0  0  0  0  0  0  0
   10.0954    1.6599   25.4689 H   0  0  0  0  0  0  0  0  0  0  0  0
    8.2814    2.5535   24.8828 N   0  0  0  0  0  0  0  0  0  0  0  0
    8.0020    3.2002   26.0867 C   0  0  0  0  0  0  0  0  0  0  0  0
    7.8843    2.4708   27.2859 C   0  0  0  0  0  0  0  0  0  0  0  0
    8.0775    1.4042   27.2533 H   0  0  0  0  0  0  0  0  0  0  0  0
    7.5706    3.1117   28.4858 C   0  0  0  0  0  0  0  0  0  0  0  0
    7.5221    2.5264   29.4048 H   0  0  0  0  0  0  0  0  0  0  0  0
    7.4252    4.5061   28.5258 C   0  0  0  0  0  0  0  0  0  0  0  0
    7.2592    5.0145   29.4734 H   0  0  0  0  0  0  0  0  0  0  0  0
    7.5646    5.2450   27.3436 C   0  0  0  0  0  0  0  0  0  0  0  0
    7.4672    6.3304   27.3618 H   0  0  0  0  0  0  0  0  0  0  0  0
    7.8350    4.5984   26.1356 C   0  0  0  0  0  0  0  0  0  0  0  0
    7.9277    5.1496   25.2057 H   0  0  0  0  0  0  0  0  0  0  0  0
    7.7226    3.0119   23.6153 C   0  0  0  0  0  0  0  0  0  0  0  0
    6.7848    3.5441   23.8133 H   0  0  0  0  0  0  0  0  0  0  0  0
    8.4063    3.7125   23.0993 H   0  0  0  0  0  0  0  0  0  0  0  0
    7.4078    1.8346   22.6617 C   0  0  0  0  0  0  0  0  0  0  0  0
    6.5385    1.2817   23.0430 H   0  0  0  0  0  0  0  0  0  0  0  0
    7.1486    2.2635   21.6874 H   0  0  0  0  0  0  0  0  0  0  0  0
    5.4218    0.6705   20.1380 C   0  0  0  0  0  0  0  0  0  0  0  0
    5.0012    0.6688   21.1459 H   0  0  0  0  0  0  0  0  0  0  0  0
    4.7778    1.3253   19.0782 C   0  0  0  0  0  0  0  0  0  0  0  0
    3.8462    1.8630   19.2166 H   0  0  0  0  0  0  0  0  0  0  0  0
  1  2  1  0
  2  3  2  0
  3  4  1  0
  4  5  1  0
  4  6  2  0
  6  7  1  0
  7  8  1  0
  7  9  1  0
  7 10  1  0
 10 11  2  0
 10 12  1  0
 12 13  1  0
 13 14  1  0
 13 15  1  0
 13 16  1  0
 16 17  1  0
 16 18  1  0
 16 19  1  0
 19 20  1  0
 20 21  2  0
 21 22  1  0
 21 23  1  0
 23 24  1  0
 23 25  2  0
 25 26  1  0
 25 27  1  0
 27 28  1  0
 27 29  2  0
 29 30  1  0
 19 31  1  0
 31 32  1  0
 31 33  1  0
 31 34  1  0
 34 35  1  0
 34 36  1  0
  6 37  1  0
 37 38  1  0
 37 39  2  0
 39 40  1  0
 39  2  1  0
 34 12  1  0
 29 20  1  0
M  END
>  <cnnaffinity>  (1) 
-4.8222

>  <filename>  (1) 
S=C(Cc1cccnc1)N1CCN(c2ccccc2)CC1

$$$$
