
     RDKit          3D

 35 37  0  0  0  0  0  0  0  0999 V2000
    4.9476    1.7874   16.9679 H   0  0  0  0  0  0  0  0  0  0  0  0
    5.4173    1.2905   17.8129 C   0  0  0  0  0  0  0  0  0  0  0  0
    6.5735    0.6549   17.5572 N   0  0  0  0  0  0  0  0  0  0  0  0
    7.1973    0.0593   18.5809 C   0  0  0  0  0  0  0  0  0  0  0  0
    8.1259   -0.4673   18.3648 H   0  0  0  0  0  0  0  0  0  0  0  0
    6.6903    0.0666   19.8926 C   0  0  0  0  0  0  0  0  0  0  0  0
    7.3495   -0.5992   20.9576 N   0  0  0  0  0  0  0  0  0  0  0  0
    6.6921   -1.5824   21.6874 C   0  0  0  0  0  0  0  0  0  0  0  0
    5.6564   -1.8324   21.5595 H   0  0  0  0  0  0  0  0  0  0  0  0
    7.5637   -2.0385   22.5897 C   0  0  0  0  0  0  0  0  0  0  0  0
    7.4558   -2.9832   23.5918 N   0  0  0  0  0  0  0  0  0  0  0  0
    7.8100   -2.6957   24.4933 H   0  0  0  0  0  0  0  0  0  0  0  0
    6.4197   -3.8657   23.6955 C   0  0  0  0  0  0  0  0  0  0  0  0
    5.4588   -4.4390   22.4808 S   0  0  0  0  0  0  0  0  0  0  0  0
    6.2316   -4.2711   24.9844 N   0  0  0  0  0  0  0  0  0  0  0  0
    5.3844   -4.8142   25.0443 H   0  0  0  0  0  0  0  0  0  0  0  0
    7.2242   -4.5581   25.9578 C   0  0  0  0  0  0  0  0  0  0  0  0
    8.5535   -4.8358   25.6010 C   0  0  0  0  0  0  0  0  0  0  0  0
    8.8550   -4.7781   24.5627 H   0  0  0  0  0  0  0  0  0  0  0  0
    9.4530   -5.2528   26.5819 C   0  0  0  0  0  0  0  0  0  0  0  0
   10.4757   -5.4952   26.3041 H   0  0  0  0  0  0  0  0  0  0  0  0
    9.0328   -5.3780   27.9052 C   0  0  0  0  0  0  0  0  0  0  0  0
    9.7230   -5.7425   28.6471 H   0  0  0  0  0  0  0  0  0  0  0  0
    7.7186   -5.0638   28.2641 C   0  0  0  0  0  0  0  0  0  0  0  0
    7.3685   -5.1884   29.2829 H   0  0  0  0  0  0  0  0  0  0  0  0
    6.8208   -4.6267   27.2942 C   0  0  0  0  0  0  0  0  0  0  0  0
    5.8094   -4.3298   27.5496 H   0  0  0  0  0  0  0  0  0  0  0  0
    8.7221   -1.3268   22.4459 N   0  0  0  0  0  0  0  0  0  0  0  0
    9.6075   -1.5047   22.8736 H   0  0  0  0  0  0  0  0  0  0  0  0
    8.6361   -0.4236   21.4268 C   0  0  0  0  0  0  0  0  0  0  0  0
    9.8280    0.6063   20.9082 S   0  0  0  0  0  0  0  0  0  0  0  0
    5.4607    0.6840   20.1417 C   0  0  0  0  0  0  0  0  0  0  0  0
    5.0365    0.6381   21.1492 H   0  0  0  0  0  0  0  0  0  0  0  0
    4.8191    1.3284   19.0808 C   0  0  0  0  0  0  0  0  0  0  0  0
    3.8757    1.8486   19.2249 H   0  0  0  0  0  0  0  0  0  0  0  0
  1  2  1  0
  2  3  2  0
  3  4  1  0
  4  5  1  0
  4  6  2  0
  6  7  1  0
  7  8  1  0
  8  9  1  0
  8 10  2  0
 10 11  1  0
 11 12  1  0
 11 13  1  0
 13 14  2  0
 13 15  1  0
 15 16  1  0
 15 17  1  0
 17 18  2  0
 18 19  1  0
 18 20  1  0
 20 21  1  0
 20 22  2  0
 22 23  1  0
 22 24  1  0
 24 25  1  0
 24 26  2  0
 26 27  1  0
 10 28  1  0
 28 29  1  0
 28 30  1  0
 30 31  2  0
  6 32  1  0
 32 33  1  0
 32 34  2  0
 34 35  1  0
 34  2  1  0
 30  7  1  0
 26 17  1  0
M  END
>  <cnnaffinity>  (1) 
-5.72845

>  <filename>  (1) 
S=C(Nc1ccccc1)Nc1cn(-c2cccnc2)c(=S)[nH]1

$$$$
