
     RDKit          3D

 30 31  0  0  0  0  0  0  0  0999 V2000
    5.0749    1.7873   16.9888 H   0  0  0  0  0  0  0  0  0  0  0  0
    5.4793    1.2432   17.8394 C   0  0  0  0  0  0  0  0  0  0  0  0
    6.6179    0.5621   17.6163 N   0  0  0  0  0  0  0  0  0  0  0  0
    7.1664   -0.0768   18.6516 C   0  0  0  0  0  0  0  0  0  0  0  0
    8.0777   -0.6338   18.4410 H   0  0  0  0  0  0  0  0  0  0  0  0
    6.6438   -0.0613   19.9590 C   0  0  0  0  0  0  0  0  0  0  0  0
    7.3488   -0.7399   21.0686 C   0  0  0  0  0  0  0  0  0  0  0  0
    8.2748   -2.0632   20.8596 S   0  0  0  0  0  0  0  0  0  0  0  0
    7.1988   -0.1585   22.4739 C   0  0  0  0  0  0  0  0  0  0  0  0
    6.1727   -0.3154   22.8258 H   0  0  0  0  0  0  0  0  0  0  0  0
    7.8664   -0.7013   23.1531 H   0  0  0  0  0  0  0  0  0  0  0  0
    7.4200    1.2370   22.5144 O   0  0  0  0  0  0  0  0  0  0  0  0
    8.7866    1.6424   22.5378 C   0  0  0  0  0  0  0  0  0  0  0  0
    9.4238    0.9666   21.9419 H   0  0  0  0  0  0  0  0  0  0  0  0
    9.3605    1.7259   23.9570 C   0  0  0  0  0  0  0  0  0  0  0  0
    9.7844    0.7678   24.2831 H   0  0  0  0  0  0  0  0  0  0  0  0
    8.5470    1.9970   24.6385 H   0  0  0  0  0  0  0  0  0  0  0  0
   10.4103    2.8569   23.9163 C   0  0  0  0  0  0  0  0  0  0  0  0
   10.2258    3.5505   24.7429 H   0  0  0  0  0  0  0  0  0  0  0  0
   11.4309    2.4684   24.0124 H   0  0  0  0  0  0  0  0  0  0  0  0
   10.2317    3.5773   22.5566 C   0  0  0  0  0  0  0  0  0  0  0  0
   10.2170    4.6659   22.6697 H   0  0  0  0  0  0  0  0  0  0  0  0
   11.0735    3.3400   21.8930 H   0  0  0  0  0  0  0  0  0  0  0  0
    8.9019    3.0558   21.9866 C   0  0  0  0  0  0  0  0  0  0  0  0
    8.8571    3.0711   20.8911 H   0  0  0  0  0  0  0  0  0  0  0  0
    8.0556    3.6513   22.3580 H   0  0  0  0  0  0  0  0  0  0  0  0
    5.4439    0.6440   20.1712 C   0  0  0  0  0  0  0  0  0  0  0  0
    4.9989    0.6999   21.1648 H   0  0  0  0  0  0  0  0  0  0  0  0
    4.8519    1.2866   19.0871 C   0  0  0  0  0  0  0  0  0  0  0  0
    3.9310    1.8466   19.2006 H   0  0  0  0  0  0  0  0  0  0  0  0
  1  2  1  0
  2  3  2  0
  3  4  1  0
  4  5  1  0
  4  6  2  0
  6  7  1  0
  7  8  2  0
  7  9  1  0
  9 10  1  0
  9 11  1  0
  9 12  1  0
 12 13  1  0
 13 14  1  0
 13 15  1  0
 15 16  1  0
 15 17  1  0
 15 18  1  0
 18 19  1  0
 18 20  1  0
 18 21  1  0
 21 22  1  0
 21 23  1  0
 21 24  1  0
 24 25  1  0
 24 26  1  0
  6 27  1  0
 27 28  1  0
 27 29  2  0
 29 30  1  0
 29  2  1  0
 24 13  1  0
M  END
>  <cnnaffinity>  (1) 
-4.59458

>  <filename>  (1) 
S=C(COC1CCCC1)c1cccnc1

$$$$
