
     RDKit          3D

 26 28  0  0  0  0  0  0  0  0999 V2000
    4.9301    1.7957   16.9941 H   0  0  0  0  0  0  0  0  0  0  0  0
    5.3959    1.2915   17.8349 C   0  0  0  0  0  0  0  0  0  0  0  0
    6.5506    0.6633   17.5682 N   0  0  0  0  0  0  0  0  0  0  0  0
    7.1714    0.0478   18.5783 C   0  0  0  0  0  0  0  0  0  0  0  0
    8.1246   -0.4290   18.3564 H   0  0  0  0  0  0  0  0  0  0  0  0
    6.6540    0.0079   19.8868 C   0  0  0  0  0  0  0  0  0  0  0  0
    7.3392   -0.6689   20.9341 N   0  0  0  0  0  0  0  0  0  0  0  0
    6.7456   -1.5882   21.7853 C   0  0  0  0  0  0  0  0  0  0  0  0
    5.6961   -1.8227   21.7144 H   0  0  0  0  0  0  0  0  0  0  0  0
    7.6864   -2.0464   22.6443 C   0  0  0  0  0  0  0  0  0  0  0  0
    7.5675   -2.9815   23.7406 C   0  0  0  0  0  0  0  0  0  0  0  0
    8.5187   -3.4247   24.6152 C   0  0  0  0  0  0  0  0  0  0  0  0
    9.5722   -3.2434   24.7640 H   0  0  0  0  0  0  0  0  0  0  0  0
    7.9861   -4.3001   25.4935 O   0  0  0  0  0  0  0  0  0  0  0  0
    6.6687   -4.4273   25.1936 C   0  0  0  0  0  0  0  0  0  0  0  0
    6.1244   -5.1083   25.8306 H   0  0  0  0  0  0  0  0  0  0  0  0
    6.3473   -3.6491   24.1373 C   0  0  0  0  0  0  0  0  0  0  0  0
    5.3700   -3.5355   23.6857 H   0  0  0  0  0  0  0  0  0  0  0  0
    8.8546   -1.3915   22.2971 N   0  0  0  0  0  0  0  0  0  0  0  0
    9.7673   -1.4236   22.7175 H   0  0  0  0  0  0  0  0  0  0  0  0
    8.6634   -0.5060   21.2928 C   0  0  0  0  0  0  0  0  0  0  0  0
    9.8238    0.5427   20.7535 S   0  0  0  0  0  0  0  0  0  0  0  0
    5.4411    0.6470   20.1562 C   0  0  0  0  0  0  0  0  0  0  0  0
    5.0380    0.6287   21.1717 H   0  0  0  0  0  0  0  0  0  0  0  0
    4.8072    1.3111   19.1040 C   0  0  0  0  0  0  0  0  0  0  0  0
    3.8777    1.8428   19.2568 H   0  0  0  0  0  0  0  0  0  0  0  0
  1  2  1  0
  2  3  2  0
  3  4  1  0
  4  5  1  0
  4  6  2  0
  6  7  1  0
  7  8  1  0
  8  9  1  0
  8 10  2  0
 10 11  1  0
 11 12  2  0
 12 13  1  0
 12 14  1  0
 14 15  1  0
 15 16  1  0
 15 17  2  0
 17 18  1  0
 10 19  1  0
 19 20  1  0
 19 21  1  0
 21 22  2  0
  6 23  1  0
 23 24  1  0
 23 25  2  0
 25 26  1  0
 25  2  1  0
 21  7  1  0
 17 11  1  0
M  END
>  <cnnaffinity>  (1) 
-5.03905

>  <filename>  (1) 
S=c1[nH]c(-c2ccoc2)cn1-c1cccnc1

$$$$
