
     RDKit          3D

 34 36  0  0  0  0  0  0  0  0999 V2000
    4.9248    1.7864   16.9917 H   0  0  0  0  0  0  0  0  0  0  0  0
    5.3984    1.2978   17.8375 C   0  0  0  0  0  0  0  0  0  0  0  0
    6.5652    0.6848   17.5781 N   0  0  0  0  0  0  0  0  0  0  0  0
    7.1636    0.0565   18.5933 C   0  0  0  0  0  0  0  0  0  0  0  0
    8.1120   -0.4321   18.3728 H   0  0  0  0  0  0  0  0  0  0  0  0
    6.6416    0.0177   19.8937 C   0  0  0  0  0  0  0  0  0  0  0  0
    7.3637   -0.7351   20.9084 C   0  0  0  0  0  0  0  0  0  0  0  0
    7.7206   -1.9746   20.7532 N   0  0  0  0  0  0  0  0  0  0  0  0
    8.2856   -2.2917   21.9455 N   0  0  0  0  0  0  0  0  0  0  0  0
    8.6606   -3.2008   22.1475 H   0  0  0  0  0  0  0  0  0  0  0  0
    8.3184   -1.2851   22.8372 C   0  0  0  0  0  0  0  0  0  0  0  0
    8.9713   -1.4092   24.3657 S   0  0  0  0  0  0  0  0  0  0  0  0
    7.7198   -0.2518   22.1532 N   0  0  0  0  0  0  0  0  0  0  0  0
    7.5841    1.1313   22.6355 C   0  0  0  0  0  0  0  0  0  0  0  0
    7.1193    1.6950   21.8219 H   0  0  0  0  0  0  0  0  0  0  0  0
    6.6625    1.2297   23.8613 C   0  0  0  0  0  0  0  0  0  0  0  0
    5.6823    0.8050   23.6154 H   0  0  0  0  0  0  0  0  0  0  0  0
    7.0805    0.6201   24.6721 H   0  0  0  0  0  0  0  0  0  0  0  0
    6.5088    2.6889   24.3364 C   0  0  0  0  0  0  0  0  0  0  0  0
    5.8891    2.7324   25.2405 H   0  0  0  0  0  0  0  0  0  0  0  0
    5.9694    3.2755   23.5764 H   0  0  0  0  0  0  0  0  0  0  0  0
    7.8737    3.3457   24.6030 C   0  0  0  0  0  0  0  0  0  0  0  0
    8.3560    2.8361   25.4505 H   0  0  0  0  0  0  0  0  0  0  0  0
    7.7476    4.3939   24.9080 H   0  0  0  0  0  0  0  0  0  0  0  0
    8.7909    3.2453   23.3732 C   0  0  0  0  0  0  0  0  0  0  0  0
    8.3738    3.8599   22.5599 H   0  0  0  0  0  0  0  0  0  0  0  0
    9.7736    3.6771   23.5972 H   0  0  0  0  0  0  0  0  0  0  0  0
    8.9495    1.7876   22.8985 C   0  0  0  0  0  0  0  0  0  0  0  0
    9.5498    1.7495   21.9844 H   0  0  0  0  0  0  0  0  0  0  0  0
    9.4799    1.2053   23.6623 H   0  0  0  0  0  0  0  0  0  0  0  0
    5.4259    0.6639   20.1534 C   0  0  0  0  0  0  0  0  0  0  0  0
    4.9944    0.6365   21.1583 H   0  0  0  0  0  0  0  0  0  0  0  0
    4.7944    1.3159   19.0992 C   0  0  0  0  0  0  0  0  0  0  0  0
    3.8665    1.8484   19.2511 H   0  0  0  0  0  0  0  0  0  0  0  0
  1  2  1  0
  2  3  2  0
  3  4  1  0
  4  5  1  0
  4  6  2  0
  6  7  1  0
  7  8  2  0
  8  9  1  0
  9 10  1  0
  9 11  1  0
 11 12  2  0
 11 13  1  0
 13 14  1  0
 14 15  1  0
 14 16  1  0
 16 17  1  0
 16 18  1  0
 16 19  1  0
 19 20  1  0
 19 21  1  0
 19 22  1  0
 22 23  1  0
 22 24  1  0
 22 25  1  0
 25 26  1  0
 25 27  1  0
 25 28  1  0
 28 29  1  0
 28 30  1  0
  6 31  1  0
 31 32  1  0
 31 33  2  0
 33 34  1  0
 33  2  1  0
 13  7  1  0
 28 14  1  0
M  END
>  <cnnaffinity>  (1) 
-5.10043

>  <filename>  (1) 
S=c1[nH]nc(-c2cccnc2)n1C1CCCCC1

$$$$
