
     RDKit          3D

 37 40  0  0  0  0  0  0  0  0999 V2000
    5.6404   -1.6833   21.6511 H   0  0  0  0  0  0  0  0  0  0  0  0
    6.7098   -1.5699   21.6991 C   0  0  0  0  0  0  0  0  0  0  0  0
    7.3781   -0.7620   20.8578 C   0  0  0  0  0  0  0  0  0  0  0  0
    6.7073    0.0470   19.8381 C   0  0  0  0  0  0  0  0  0  0  0  0
    7.2258    0.1228   18.5363 C   0  0  0  0  0  0  0  0  0  0  0  0
    8.1649   -0.3734   18.3008 H   0  0  0  0  0  0  0  0  0  0  0  0
    6.6164    0.7345   17.5169 N   0  0  0  0  0  0  0  0  0  0  0  0
    5.4430    1.3340   17.7772 C   0  0  0  0  0  0  0  0  0  0  0  0
    4.9626    1.8285   16.9361 H   0  0  0  0  0  0  0  0  0  0  0  0
    4.8427    1.3444   19.0425 C   0  0  0  0  0  0  0  0  0  0  0  0
    3.8990    1.8611   19.1846 H   0  0  0  0  0  0  0  0  0  0  0  0
    5.4804    0.6894   20.0940 C   0  0  0  0  0  0  0  0  0  0  0  0
    5.0460    0.6966   21.0984 H   0  0  0  0  0  0  0  0  0  0  0  0
    8.7639   -0.6916   20.9524 N   0  0  0  0  0  0  0  0  0  0  0  0
    9.2798    0.0551   20.5214 H   0  0  0  0  0  0  0  0  0  0  0  0
    9.5017   -1.3478   21.8840 C   0  0  0  0  0  0  0  0  0  0  0  0
   11.1223   -1.0629   22.0649 S   0  0  0  0  0  0  0  0  0  0  0  0
    8.8408   -2.2462   22.6439 N   0  0  0  0  0  0  0  0  0  0  0  0
    9.3923   -2.4747   23.4542 H   0  0  0  0  0  0  0  0  0  0  0  0
    7.3856   -2.2053   22.8425 C   0  0  1  0  0  0  0  0  0  0  0  0
    7.0189   -3.2441   22.8933 H   0  0  0  0  0  0  0  0  0  0  0  0
    7.0919   -1.5318   24.1762 C   0  0  0  0  0  0  0  0  0  0  0  0
    6.9441   -0.1699   24.2843 C   0  0  0  0  0  0  0  0  0  0  0  0
    7.0891    0.4605   23.4114 H   0  0  0  0  0  0  0  0  0  0  0  0
    6.6028    0.4799   25.4322 N   0  0  0  0  0  0  0  0  0  0  0  0
    6.3520   -0.2460   26.5002 C   0  0  0  0  0  0  0  0  0  0  0  0
    6.0743    0.2923   27.4099 H   0  0  0  0  0  0  0  0  0  0  0  0
    6.4540   -1.6817   26.5306 C   0  0  0  0  0  0  0  0  0  0  0  0
    6.0592   -2.5069   27.6304 C   0  0  0  0  0  0  0  0  0  0  0  0
    5.5543   -2.0570   28.4855 H   0  0  0  0  0  0  0  0  0  0  0  0
    6.3436   -3.8545   27.6223 C   0  0  0  0  0  0  0  0  0  0  0  0
    6.0847   -4.4652   28.4866 H   0  0  0  0  0  0  0  0  0  0  0  0
    7.0282   -4.4500   26.5279 C   0  0  0  0  0  0  0  0  0  0  0  0
    7.2866   -5.5073   26.5505 H   0  0  0  0  0  0  0  0  0  0  0  0
    7.3310   -3.6896   25.4196 C   0  0  0  0  0  0  0  0  0  0  0  0
    7.8183   -4.1460   24.5641 H   0  0  0  0  0  0  0  0  0  0  0  0
    6.9760   -2.3101   25.3659 C   0  0  0  0  0  0  0  0  0  0  0  0
  1  2  1  0
  2  3  2  0
  3  4  1  0
  4  5  2  0
  5  6  1  0
  5  7  1  0
  7  8  2  0
  8  9  1  0
  8 10  1  0
 10 11  1  0
 10 12  2  0
 12 13  1  0
  3 14  1  0
 14 15  1  0
 14 16  1  0
 16 17  2  0
 16 18  1  0
 18 19  1  0
 18 20  1  0
 20 21  1  1
 20 22  1  0
 22 23  2  0
 23 24  1  0
 23 25  1  0
 25 26  2  0
 26 27  1  0
 26 28  1  0
 28 29  2  0
 29 30  1  0
 29 31  1  0
 31 32  1  0
 31 33  2  0
 33 34  1  0
 33 35  1  0
 35 36  1  0
 35 37  2  0
 20  2  1  0
 37 22  1  0
 12  4  1  0
 37 28  1  0
M  END
>  <cnnaffinity>  (1) 
-5.4023

>  <filename>  (1) 
S=C1NC(c2cccnc2)=C[C@H](c2cncc3ccccc23)N1

$$$$
