
     RDKit          3D

 29 31  0  0  0  0  0  0  0  0999 V2000
    4.9961    1.9883   16.7407 H   0  0  0  0  0  0  0  0  0  0  0  0
    5.4663    1.4449   17.5618 C   0  0  0  0  0  0  0  0  0  0  0  0
    6.6036    0.7877   17.2787 N   0  0  0  0  0  0  0  0  0  0  0  0
    7.1980    0.1125   18.2707 C   0  0  0  0  0  0  0  0  0  0  0  0
    8.1298   -0.3824   17.9956 H   0  0  0  0  0  0  0  0  0  0  0  0
    6.6837    0.0190   19.5787 C   0  0  0  0  0  0  0  0  0  0  0  0
    7.2912   -0.8105   20.6237 C   0  0  0  0  0  0  0  0  0  0  0  0
    6.7538   -1.4508   21.6919 C   0  0  0  0  0  0  0  0  0  0  0  0
    5.7349   -1.5939   22.0126 H   0  0  0  0  0  0  0  0  0  0  0  0
    7.7943   -2.0350   22.4141 N   0  0  0  0  0  0  0  0  0  0  0  0
    7.6631   -2.5544   23.7426 C   0  0  0  0  0  0  0  0  0  0  0  0
    6.7090   -3.5360   24.0344 C   0  0  0  0  0  0  0  0  0  0  0  0
    6.0955   -3.9439   23.2330 H   0  0  0  0  0  0  0  0  0  0  0  0
    6.5765   -3.9809   25.3557 C   0  0  0  0  0  0  0  0  0  0  0  0
    5.8546   -4.7550   25.5944 H   0  0  0  0  0  0  0  0  0  0  0  0
    7.3576   -3.4375   26.3810 C   0  0  0  0  0  0  0  0  0  0  0  0
    7.2527   -3.7654   27.4095 H   0  0  0  0  0  0  0  0  0  0  0  0
    8.2929   -2.4539   26.0635 C   0  0  0  0  0  0  0  0  0  0  0  0
    9.2301   -1.7073   27.3160 Cl  0  0  0  0  0  0  0  0  0  0  0  0
    8.4800   -2.0349   24.7529 C   0  0  0  0  0  0  0  0  0  0  0  0
    9.2669   -1.3284   24.5162 H   0  0  0  0  0  0  0  0  0  0  0  0
    8.9886   -1.7951   21.7773 C   0  0  0  0  0  0  0  0  0  0  0  0
   10.5496   -2.2500   22.1274 S   0  0  0  0  0  0  0  0  0  0  0  0
    8.6506   -1.0574   20.6900 N   0  0  0  0  0  0  0  0  0  0  0  0
    9.4022   -0.6491   20.1620 H   0  0  0  0  0  0  0  0  0  0  0  0
    5.5168    0.7398   19.8607 C   0  0  0  0  0  0  0  0  0  0  0  0
    5.1279    0.7405   20.8794 H   0  0  0  0  0  0  0  0  0  0  0  0
    4.9008    1.4580   18.8390 C   0  0  0  0  0  0  0  0  0  0  0  0
    4.0050    2.0333   19.0192 H   0  0  0  0  0  0  0  0  0  0  0  0
  1  2  1  0
  2  3  2  0
  3  4  1  0
  4  5  1  0
  4  6  2  0
  6  7  1  0
  7  8  2  0
  8  9  1  0
  8 10  1  0
 10 11  1  0
 11 12  2  0
 12 13  1  0
 12 14  1  0
 14 15  1  0
 14 16  2  0
 16 17  1  0
 16 18  1  0
 18 19  1  0
 18 20  2  0
 20 21  1  0
 10 22  1  0
 22 23  2  0
 22 24  1  0
 24 25  1  0
  6 26  1  0
 26 27  1  0
 26 28  2  0
 28 29  1  0
 28  2  1  0
 24  7  1  0
 20 11  1  0
M  END
>  <cnnaffinity>  (1) 
-5.6906

>  <filename>  (1) 
S=c1[nH]c(-c2cccnc2)cn1-c1cccc(Cl)c1

$$$$
