
     RDKit          3D

 29 31  0  0  0  0  0  0  0  0999 V2000
    4.9313    1.8011   16.9946 H   0  0  0  0  0  0  0  0  0  0  0  0
    5.3953    1.2913   17.8330 C   0  0  0  0  0  0  0  0  0  0  0  0
    6.5506    0.6613   17.5643 N   0  0  0  0  0  0  0  0  0  0  0  0
    7.1694    0.0453   18.5785 C   0  0  0  0  0  0  0  0  0  0  0  0
    8.1246   -0.4318   18.3615 H   0  0  0  0  0  0  0  0  0  0  0  0
    6.6496    0.0011   19.8879 C   0  0  0  0  0  0  0  0  0  0  0  0
    7.3323   -0.6840   20.9397 N   0  0  0  0  0  0  0  0  0  0  0  0
    6.7400   -1.6151   21.7784 C   0  0  0  0  0  0  0  0  0  0  0  0
    5.6864   -1.8405   21.7110 H   0  0  0  0  0  0  0  0  0  0  0  0
    7.6814   -2.0727   22.6388 C   0  0  0  0  0  0  0  0  0  0  0  0
    7.5648   -3.0552   23.7196 C   0  0  0  0  0  0  0  0  0  0  0  0
    6.7983   -4.2070   23.4614 C   0  0  0  0  0  0  0  0  0  0  0  0
    6.3530   -4.2965   22.4744 H   0  0  0  0  0  0  0  0  0  0  0  0
    6.6109   -5.2029   24.4183 C   0  0  0  0  0  0  0  0  0  0  0  0
    6.0156   -6.0850   24.2097 H   0  0  0  0  0  0  0  0  0  0  0  0
    7.1963   -5.0440   25.6770 C   0  0  0  0  0  0  0  0  0  0  0  0
    6.9741   -6.2711   26.8872 Cl  0  0  0  0  0  0  0  0  0  0  0  0
    7.9505   -3.9106   25.9839 C   0  0  0  0  0  0  0  0  0  0  0  0
    8.3995   -3.7936   26.9647 H   0  0  0  0  0  0  0  0  0  0  0  0
    8.1249   -2.9216   25.0101 C   0  0  0  0  0  0  0  0  0  0  0  0
    9.0294   -1.5119   25.4869 Cl  0  0  0  0  0  0  0  0  0  0  0  0
    8.8483   -1.4125   22.2934 N   0  0  0  0  0  0  0  0  0  0  0  0
    9.7627   -1.4578   22.7079 H   0  0  0  0  0  0  0  0  0  0  0  0
    8.6535   -0.5138   21.2992 C   0  0  0  0  0  0  0  0  0  0  0  0
    9.8134    0.5439   20.7742 S   0  0  0  0  0  0  0  0  0  0  0  0
    5.4397    0.6466   20.1537 C   0  0  0  0  0  0  0  0  0  0  0  0
    5.0357    0.6341   21.1680 H   0  0  0  0  0  0  0  0  0  0  0  0
    4.8042    1.3112   19.1021 C   0  0  0  0  0  0  0  0  0  0  0  0
    3.8734    1.8449   19.2592 H   0  0  0  0  0  0  0  0  0  0  0  0
  1  2  1  0
  2  3  2  0
  3  4  1  0
  4  5  1  0
  4  6  2  0
  6  7  1  0
  7  8  1  0
  8  9  1  0
  8 10  2  0
 10 11  1  0
 11 12  2  0
 12 13  1  0
 12 14  1  0
 14 15  1  0
 14 16  2  0
 16 17  1  0
 16 18  1  0
 18 19  1  0
 18 20  2  0
 20 21  1  0
 10 22  1  0
 22 23  1  0
 22 24  1  0
 24 25  2  0
  6 26  1  0
 26 27  1  0
 26 28  2  0
 28 29  1  0
 28  2  1  0
 24  7  1  0
 20 11  1  0
M  END
>  <cnnaffinity>  (1) 
-5.85048

>  <filename>  (1) 
S=c1[nH]c(-c2ccc(Cl)cc2Cl)cn1-c1cccnc1

$$$$
