
     RDKit          3D

 36 38  0  0  0  0  0  0  0  0999 V2000
    6.9648    0.8717   22.4911 H   0  0  0  0  0  0  0  0  0  0  0  0
    7.3583   -0.0957   22.2434 C   0  0  0  0  0  0  0  0  0  0  0  0
    7.2151   -0.6371   21.0179 C   0  0  0  0  0  0  0  0  0  0  0  0
    6.5538    0.0167   19.8781 C   0  0  0  0  0  0  0  0  0  0  0  0
    7.1346   -0.0189   18.5982 C   0  0  0  0  0  0  0  0  0  0  0  0
    8.0748   -0.5471   18.4377 H   0  0  0  0  0  0  0  0  0  0  0  0
    6.6223    0.5930   17.5257 N   0  0  0  0  0  0  0  0  0  0  0  0
    5.4755    1.2724   17.6845 C   0  0  0  0  0  0  0  0  0  0  0  0
    5.0872    1.7659   16.7938 H   0  0  0  0  0  0  0  0  0  0  0  0
    4.8010    1.3605   18.9068 C   0  0  0  0  0  0  0  0  0  0  0  0
    3.8904    1.9466   18.9680 H   0  0  0  0  0  0  0  0  0  0  0  0
    5.3472    0.7270   20.0238 C   0  0  0  0  0  0  0  0  0  0  0  0
    4.8444    0.7764   20.9921 H   0  0  0  0  0  0  0  0  0  0  0  0
    7.6847   -1.9283   20.8034 N   0  0  0  0  0  0  0  0  0  0  0  0
    7.3987   -2.4503   19.9911 H   0  0  0  0  0  0  0  0  0  0  0  0
    8.0562   -2.7694   21.8110 C   0  0  0  0  0  0  0  0  0  0  0  0
    8.0738   -4.4055   21.5858 S   0  0  0  0  0  0  0  0  0  0  0  0
    8.3980   -2.1683   22.9530 N   0  0  0  0  0  0  0  0  0  0  0  0
    8.8542   -2.7104   23.6571 H   0  0  0  0  0  0  0  0  0  0  0  0
    8.0106   -0.8380   23.3578 C   0  0  1  0  0  0  0  0  0  0  0  0
    7.3016   -0.9047   24.2073 H   0  0  0  0  0  0  0  0  0  0  0  0
    9.2929   -0.3260   23.8300 N   0  0  0  0  0  0  0  0  0  0  0  0
    9.9422   -0.7137   23.1519 H   0  0  0  0  0  0  0  0  0  0  0  0
    9.4550    1.1429   23.8978 C   0  0  0  0  0  0  0  0  0  0  0  0
    8.6980    1.6582   23.2910 H   0  0  0  0  0  0  0  0  0  0  0  0
    9.2877    1.4761   24.9319 H   0  0  0  0  0  0  0  0  0  0  0  0
   10.8243    1.6180   23.4247 C   0  0  0  0  0  0  0  0  0  0  0  0
   10.9900    2.5120   22.3471 C   0  0  0  0  0  0  0  0  0  0  0  0
   10.1377    2.9041   21.8008 H   0  0  0  0  0  0  0  0  0  0  0  0
   12.2774    2.9307   21.9912 C   0  0  0  0  0  0  0  0  0  0  0  0
   12.4280    3.6324   21.1688 H   0  0  0  0  0  0  0  0  0  0  0  0
   13.3822    2.5138   22.6207 N   0  0  0  0  0  0  0  0  0  0  0  0
   13.2301    1.6361   23.6151 C   0  0  0  0  0  0  0  0  0  0  0  0
   14.1473    1.2769   24.0731 H   0  0  0  0  0  0  0  0  0  0  0  0
   11.9929    1.1855   24.0728 C   0  0  0  0  0  0  0  0  0  0  0  0
   11.9570    0.5035   24.9174 H   0  0  0  0  0  0  0  0  0  0  0  0
  1  2  1  0
  2  3  2  0
  3  4  1  0
  4  5  2  0
  5  6  1  0
  5  7  1  0
  7  8  2  0
  8  9  1  0
  8 10  1  0
 10 11  1  0
 10 12  2  0
 12 13  1  0
  3 14  1  0
 14 15  1  0
 14 16  1  0
 16 17  2  0
 16 18  1  0
 18 19  1  0
 18 20  1  0
 20 21  1  1
 20 22  1  0
 22 23  1  0
 22 24  1  0
 24 25  1  0
 24 26  1  0
 24 27  1  0
 27 28  2  0
 28 29  1  0
 28 30  1  0
 30 31  1  0
 30 32  2  0
 32 33  1  0
 33 34  1  0
 33 35  2  0
 35 36  1  0
 20  2  1  0
 35 27  1  0
 12  4  1  0
M  END
>  <cnnaffinity>  (1) 
-4.97003

>  <filename>  (1) 
S=C1NC(c2cccnc2)=C[C@H](NCc2ccncc2)N1

$$$$
