
     RDKit          3D

 35 37  0  0  0  0  0  0  0  0999 V2000
    8.5944    1.0950   21.6978 H   0  0  0  0  0  0  0  0  0  0  0  0
    7.9290    0.2964   22.0007 C   0  0  0  0  0  0  0  0  0  0  0  0
    7.3485    0.2564   23.2135 C   0  0  0  0  0  0  0  0  0  0  0  0
    7.3677    1.3750   24.2211 C   0  0  0  0  0  0  0  0  0  0  0  0
    8.4015    1.7194   24.3083 H   0  0  0  0  0  0  0  0  0  0  0  0
    7.0925    0.9873   25.2103 H   0  0  0  0  0  0  0  0  0  0  0  0
    6.4872    2.5540   23.8292 C   0  0  0  0  0  0  0  0  0  0  0  0
    6.9405    3.5300   22.9267 C   0  0  0  0  0  0  0  0  0  0  0  0
    7.9530    3.4795   22.5269 H   0  0  0  0  0  0  0  0  0  0  0  0
    6.1137    4.5874   22.5455 C   0  0  0  0  0  0  0  0  0  0  0  0
    6.4560    5.3472   21.8479 H   0  0  0  0  0  0  0  0  0  0  0  0
    4.8185    4.6896   23.0665 C   0  0  0  0  0  0  0  0  0  0  0  0
    3.8342    6.0350   22.5954 Cl  0  0  0  0  0  0  0  0  0  0  0  0
    4.3616    3.7288   23.9829 C   0  0  0  0  0  0  0  0  0  0  0  0
    2.7843    3.8212   24.6902 Cl  0  0  0  0  0  0  0  0  0  0  0  0
    5.1979    2.6710   24.3571 C   0  0  0  0  0  0  0  0  0  0  0  0
    4.8333    1.9434   25.0792 H   0  0  0  0  0  0  0  0  0  0  0  0
    6.6123   -0.8812   23.5405 N   0  0  0  0  0  0  0  0  0  0  0  0
    6.1710   -1.0262   24.4315 H   0  0  0  0  0  0  0  0  0  0  0  0
    6.4470   -1.9638   22.7336 C   0  0  0  0  0  0  0  0  0  0  0  0
    5.6301   -3.3112   23.2531 S   0  0  0  0  0  0  0  0  0  0  0  0
    6.9452   -1.8673   21.4899 N   0  0  0  0  0  0  0  0  0  0  0  0
    6.5764   -2.5699   20.8726 H   0  0  0  0  0  0  0  0  0  0  0  0
    7.5636   -0.6709   20.9273 C   0  0  1  0  0  0  0  0  0  0  0  0
    8.4838   -1.0037   20.4197 H   0  0  0  0  0  0  0  0  0  0  0  0
    6.6830   -0.0337   19.8411 C   0  0  0  0  0  0  0  0  0  0  0  0
    7.1625    0.0139   18.5270 C   0  0  0  0  0  0  0  0  0  0  0  0
    8.1043   -0.4779   18.2867 H   0  0  0  0  0  0  0  0  0  0  0  0
    6.5631    0.6506   17.5144 N   0  0  0  0  0  0  0  0  0  0  0  0
    5.4127    1.2800   17.7971 C   0  0  0  0  0  0  0  0  0  0  0  0
    4.9469    1.8156   16.9722 H   0  0  0  0  0  0  0  0  0  0  0  0
    4.8172    1.2656   19.0662 C   0  0  0  0  0  0  0  0  0  0  0  0
    3.8865    1.8005   19.2231 H   0  0  0  0  0  0  0  0  0  0  0  0
    5.4575    0.5933   20.1105 C   0  0  0  0  0  0  0  0  0  0  0  0
    5.0313    0.5832   21.1190 H   0  0  0  0  0  0  0  0  0  0  0  0
  1  2  1  0
  2  3  2  0
  3  4  1  0
  4  5  1  0
  4  6  1  0
  4  7  1  0
  7  8  2  0
  8  9  1  0
  8 10  1  0
 10 11  1  0
 10 12  2  0
 12 13  1  0
 12 14  1  0
 14 15  1  0
 14 16  2  0
 16 17  1  0
  3 18  1  0
 18 19  1  0
 18 20  1  0
 20 21  2  0
 20 22  1  0
 22 23  1  0
 22 24  1  0
 24 25  1  6
 24 26  1  0
 26 27  2  0
 27 28  1  0
 27 29  1  0
 29 30  2  0
 30 31  1  0
 30 32  1  0
 32 33  1  0
 32 34  2  0
 34 35  1  0
 24  2  1  0
 34 26  1  0
 16  7  1  0
M  END
>  <cnnaffinity>  (1) 
-5.21929

>  <filename>  (1) 
S=C1NC(Cc2ccc(Cl)c(Cl)c2)=C[C@H](c2cccnc2)N1

$$$$
