
     RDKit          3D

 34 37  0  0  0  0  0  0  0  0999 V2000
    4.9311    1.7945   16.9975 H   0  0  0  0  0  0  0  0  0  0  0  0
    5.3971    1.2894   17.8391 C   0  0  0  0  0  0  0  0  0  0  0  0
    6.5521    0.6607   17.5745 N   0  0  0  0  0  0  0  0  0  0  0  0
    7.1720    0.0414   18.5841 C   0  0  0  0  0  0  0  0  0  0  0  0
    8.1255   -0.4305   18.3572 H   0  0  0  0  0  0  0  0  0  0  0  0
    6.6535   -0.0047   19.8934 C   0  0  0  0  0  0  0  0  0  0  0  0
    7.3364   -0.6785   20.9451 N   0  0  0  0  0  0  0  0  0  0  0  0
    6.7348   -1.5750   21.8137 C   0  0  0  0  0  0  0  0  0  0  0  0
    5.6862   -1.8140   21.7616 H   0  0  0  0  0  0  0  0  0  0  0  0
    7.6701   -2.0145   22.6902 C   0  0  0  0  0  0  0  0  0  0  0  0
    7.5649   -2.8945   23.8428 C   0  0  0  0  0  0  0  0  0  0  0  0
    8.0523   -2.5160   25.0804 C   0  0  0  0  0  0  0  0  0  0  0  0
    8.5941   -1.5785   25.2126 H   0  0  0  0  0  0  0  0  0  0  0  0
    7.8712   -3.2162   26.2286 N   0  0  0  0  0  0  0  0  0  0  0  0
    7.1864   -4.3428   26.1565 C   0  0  0  0  0  0  0  0  0  0  0  0
    7.0495   -4.8803   27.0970 H   0  0  0  0  0  0  0  0  0  0  0  0
    6.6403   -4.8735   24.9484 C   0  0  0  0  0  0  0  0  0  0  0  0
    5.9007   -6.0950   24.9045 C   0  0  0  0  0  0  0  0  0  0  0  0
    5.7512   -6.6503   25.8304 H   0  0  0  0  0  0  0  0  0  0  0  0
    5.4293   -6.5832   23.7060 C   0  0  0  0  0  0  0  0  0  0  0  0
    4.8966   -7.5288   23.6754 H   0  0  0  0  0  0  0  0  0  0  0  0
    5.6674   -5.8825   22.4928 C   0  0  0  0  0  0  0  0  0  0  0  0
    5.3002   -6.2947   21.5546 H   0  0  0  0  0  0  0  0  0  0  0  0
    6.3687   -4.6924   22.5085 C   0  0  0  0  0  0  0  0  0  0  0  0
    6.5675   -4.1511   21.5889 H   0  0  0  0  0  0  0  0  0  0  0  0
    6.8566   -4.1442   23.7406 C   0  0  0  0  0  0  0  0  0  0  0  0
    8.8294   -1.3421   22.3631 N   0  0  0  0  0  0  0  0  0  0  0  0
    9.7534   -1.4348   22.7475 H   0  0  0  0  0  0  0  0  0  0  0  0
    8.6549   -0.5002   21.3165 C   0  0  0  0  0  0  0  0  0  0  0  0
    9.8243    0.5260   20.7575 S   0  0  0  0  0  0  0  0  0  0  0  0
    5.4438    0.6406   20.1609 C   0  0  0  0  0  0  0  0  0  0  0  0
    5.0439    0.6279   21.1769 H   0  0  0  0  0  0  0  0  0  0  0  0
    4.8103    1.3071   19.1088 C   0  0  0  0  0  0  0  0  0  0  0  0
    3.8817    1.8401   19.2600 H   0  0  0  0  0  0  0  0  0  0  0  0
  1  2  1  0
  2  3  2  0
  3  4  1  0
  4  5  1  0
  4  6  2  0
  6  7  1  0
  7  8  1  0
  8  9  1  0
  8 10  2  0
 10 11  1  0
 11 12  2  0
 12 13  1  0
 12 14  1  0
 14 15  2  0
 15 16  1  0
 15 17  1  0
 17 18  2  0
 18 19  1  0
 18 20  1  0
 20 21  1  0
 20 22  2  0
 22 23  1  0
 22 24  1  0
 24 25  1  0
 24 26  2  0
 10 27  1  0
 27 28  1  0
 27 29  1  0
 29 30  2  0
  6 31  1  0
 31 32  1  0
 31 33  2  0
 33 34  1  0
 33  2  1  0
 29  7  1  0
 26 11  1  0
 26 17  1  0
M  END
>  <cnnaffinity>  (1) 
-5.86263

>  <filename>  (1) 
S=c1[nH]c(-c2cncc3ccccc23)cn1-c1cccnc1

$$$$
