
     RDKit          3D

 29 31  0  0  0  0  0  0  0  0999 V2000
    5.6424   -1.6752   21.6962 H   0  0  0  0  0  0  0  0  0  0  0  0
    6.7103   -1.5490   21.7909 C   0  0  0  0  0  0  0  0  0  0  0  0
    7.3796   -0.7293   20.9548 C   0  0  0  0  0  0  0  0  0  0  0  0
    6.7036    0.0433   19.9066 C   0  0  0  0  0  0  0  0  0  0  0  0
    7.2020    0.0850   18.5961 C   0  0  0  0  0  0  0  0  0  0  0  0
    8.1327   -0.4248   18.3394 H   0  0  0  0  0  0  0  0  0  0  0  0
    6.5722    0.6757   17.5767 N   0  0  0  0  0  0  0  0  0  0  0  0
    5.4073    1.2899   17.8403 C   0  0  0  0  0  0  0  0  0  0  0  0
    4.9267    1.7824   16.9972 H   0  0  0  0  0  0  0  0  0  0  0  0
    4.8214    1.3122   19.1091 C   0  0  0  0  0  0  0  0  0  0  0  0
    3.8817    1.8311   19.2560 H   0  0  0  0  0  0  0  0  0  0  0  0
    5.4661    0.6638   20.1582 C   0  0  0  0  0  0  0  0  0  0  0  0
    5.0303    0.6285   21.1603 H   0  0  0  0  0  0  0  0  0  0  0  0
    8.7636   -0.6225   21.0748 N   0  0  0  0  0  0  0  0  0  0  0  0
    9.3321    0.0376   20.5749 H   0  0  0  0  0  0  0  0  0  0  0  0
    9.5121   -1.3732   21.9176 C   0  0  0  0  0  0  0  0  0  0  0  0
   11.1595   -1.2208   21.9930 S   0  0  0  0  0  0  0  0  0  0  0  0
    8.8420   -2.2613   22.6816 N   0  0  0  0  0  0  0  0  0  0  0  0
    9.4795   -2.7106   23.3228 H   0  0  0  0  0  0  0  0  0  0  0  0
    7.3859   -2.1744   22.9727 C   0  0  1  0  0  0  0  0  0  0  0  0
    7.0236   -3.2057   23.1154 H   0  0  0  0  0  0  0  0  0  0  0  0
    7.0582   -1.4229   24.2822 C   0  0  0  0  0  0  0  0  0  0  0  0
    6.2801   -1.9354   25.2239 N   0  0  0  0  0  0  0  0  0  0  0  0
    6.2014   -0.9803   26.1624 N   0  0  0  0  0  0  0  0  0  0  0  0
    5.6464   -1.1627   26.9865 H   0  0  0  0  0  0  0  0  0  0  0  0
    6.9048    0.1351   25.8441 C   0  0  0  0  0  0  0  0  0  0  0  0
    6.9502    0.9993   26.4907 H   0  0  0  0  0  0  0  0  0  0  0  0
    7.4752   -0.1182   24.6230 C   0  0  0  0  0  0  0  0  0  0  0  0
    8.1155    0.5094   24.0230 H   0  0  0  0  0  0  0  0  0  0  0  0
  1  2  1  0
  2  3  2  0
  3  4  1  0
  4  5  2  0
  5  6  1  0
  5  7  1  0
  7  8  2  0
  8  9  1  0
  8 10  1  0
 10 11  1  0
 10 12  2  0
 12 13  1  0
  3 14  1  0
 14 15  1  0
 14 16  1  0
 16 17  2  0
 16 18  1  0
 18 19  1  0
 18 20  1  0
 20 21  1  1
 20 22  1  0
 22 23  2  0
 23 24  1  0
 24 25  1  0
 24 26  1  0
 26 27  1  0
 26 28  2  0
 28 29  1  0
 20  2  1  0
 28 22  1  0
 12  4  1  0
M  END
>  <cnnaffinity>  (1) 
-4.83668

>  <filename>  (1) 
S=C1NC(c2cccnc2)=C[C@H](c2cc[nH]n2)N1

$$$$
