
     RDKit          3D

 34 36  0  0  0  0  0  0  0  0999 V2000
    7.6004    1.0709   22.2729 H   0  0  0  0  0  0  0  0  0  0  0  0
    7.6965    0.0115   22.1361 C   0  0  0  0  0  0  0  0  0  0  0  0
    7.3286   -0.6087   21.0066 C   0  0  0  0  0  0  0  0  0  0  0  0
    6.6486    0.0591   19.8893 C   0  0  0  0  0  0  0  0  0  0  0  0
    7.1860    0.0218   18.5934 C   0  0  0  0  0  0  0  0  0  0  0  0
    8.1325   -0.4834   18.4047 H   0  0  0  0  0  0  0  0  0  0  0  0
    6.6148    0.6046   17.5336 N   0  0  0  0  0  0  0  0  0  0  0  0
    5.4578    1.2554   17.7348 C   0  0  0  0  0  0  0  0  0  0  0  0
    5.0070    1.7215   16.8608 H   0  0  0  0  0  0  0  0  0  0  0  0
    4.8348    1.3530   18.9847 C   0  0  0  0  0  0  0  0  0  0  0  0
    3.8948    1.8825   19.0866 H   0  0  0  0  0  0  0  0  0  0  0  0
    5.4528    0.7663   20.0874 C   0  0  0  0  0  0  0  0  0  0  0  0
    5.0250    0.8288   21.0899 H   0  0  0  0  0  0  0  0  0  0  0  0
    7.5582   -1.9741   20.8822 N   0  0  0  0  0  0  0  0  0  0  0  0
    7.1588   -2.5046   20.1273 H   0  0  0  0  0  0  0  0  0  0  0  0
    8.0903   -2.7527   21.8630 C   0  0  0  0  0  0  0  0  0  0  0  0
    8.1062   -4.3996   21.7381 S   0  0  0  0  0  0  0  0  0  0  0  0
    8.6003   -2.0887   22.9085 N   0  0  0  0  0  0  0  0  0  0  0  0
    8.9804   -2.6474   23.6471 H   0  0  0  0  0  0  0  0  0  0  0  0
    8.3296   -0.7151   23.2622 C   0  0  1  0  0  0  0  0  0  0  0  0
    7.6816   -0.6798   24.1586 H   0  0  0  0  0  0  0  0  0  0  0  0
    9.6452   -0.2342   23.6468 N   0  0  0  0  0  0  0  0  0  0  0  0
   10.3004   -0.5664   22.9531 H   0  0  0  0  0  0  0  0  0  0  0  0
    9.8557    1.1222   23.9377 C   0  0  0  0  0  0  0  0  0  0  0  0
    8.8600    1.9232   24.5116 C   0  0  0  0  0  0  0  0  0  0  0  0
    7.9136    1.4650   24.7837 H   0  0  0  0  0  0  0  0  0  0  0  0
    9.0903    3.2804   24.7404 C   0  0  0  0  0  0  0  0  0  0  0  0
    8.2911    3.8907   25.1505 H   0  0  0  0  0  0  0  0  0  0  0  0
   10.3277    3.8536   24.4226 C   0  0  0  0  0  0  0  0  0  0  0  0
   10.5010    4.9091   24.6104 H   0  0  0  0  0  0  0  0  0  0  0  0
   11.3485    3.0394   23.9178 C   0  0  0  0  0  0  0  0  0  0  0  0
   12.3265    3.4660   23.7038 H   0  0  0  0  0  0  0  0  0  0  0  0
   11.1138    1.6843   23.6681 C   0  0  0  0  0  0  0  0  0  0  0  0
   11.8922    1.0312   23.2864 H   0  0  0  0  0  0  0  0  0  0  0  0
  1  2  1  0
  2  3  2  0
  3  4  1  0
  4  5  2  0
  5  6  1  0
  5  7  1  0
  7  8  2  0
  8  9  1  0
  8 10  1  0
 10 11  1  0
 10 12  2  0
 12 13  1  0
  3 14  1  0
 14 15  1  0
 14 16  1  0
 16 17  2  0
 16 18  1  0
 18 19  1  0
 18 20  1  0
 20 21  1  1
 20 22  1  0
 22 23  1  0
 22 24  1  0
 24 25  2  0
 25 26  1  0
 25 27  1  0
 27 28  1  0
 27 29  2  0
 29 30  1  0
 29 31  1  0
 31 32  1  0
 31 33  2  0
 33 34  1  0
 20  2  1  0
 33 24  1  0
 12  4  1  0
M  END
>  <cnnaffinity>  (1) 
-5.10894

>  <filename>  (1) 
S=C1NC(c2cccnc2)=C[C@H](Nc2ccccc2)N1

$$$$
