
     RDKit          3D

 28 30  0  0  0  0  0  0  0  0999 V2000
   10.0561    0.9043   21.0486 C   0  0  0  0  0  0  0  0  0  0  0  0
    8.7494    1.3381   21.4341 O   0  0  0  0  0  0  0  0  0  0  0  0
    7.9400    0.3055   22.0332 C   0  0  0  0  0  0  0  0  0  0  0  0
    8.7121   -0.3764   23.0424 O   0  0  0  0  0  0  0  0  0  0  0  0
    8.9700    0.4243   24.2029 C   0  0  0  0  0  0  0  0  0  0  0  0
    7.3696   -0.7138   20.9894 C   0  0  1  0  0  0  0  0  0  0  0  0
    6.4276   -1.6445   21.6351 N   0  0  0  0  0  0  0  0  0  0  0  0
    5.9054   -2.7966   21.0747 C   0  0  0  0  0  0  0  0  0  0  0  0
    5.9621   -2.9807   19.8660 O   0  0  0  0  0  0  0  0  0  0  0  0
    5.1412   -3.7912   21.9566 C   0  0  0  0  0  0  0  0  0  0  0  0
    5.9527   -4.3597   23.0031 O   0  0  0  0  0  0  0  0  0  0  0  0
    5.3292   -5.2608   23.8308 C   0  0  0  0  0  0  0  0  0  0  0  0
    6.0992   -5.8614   24.8304 C   0  0  0  0  0  0  0  0  0  0  0  0
    5.5162   -6.7413   25.7463 C   0  0  0  0  0  0  0  0  0  0  0  0
    4.1479   -7.0226   25.6720 C   0  0  0  0  0  0  0  0  0  0  0  0
    3.5438   -7.8313   26.6361 C   0  0  0  0  0  0  0  0  0  0  0  0
    2.1880   -8.1530   26.5691 C   0  0  0  0  0  0  0  0  0  0  0  0
    1.3947   -9.2172   27.9516 Br  0  0  0  0  0  0  0  0  0  0  0  0
    1.4270   -7.6579   25.5050 C   0  0  0  0  0  0  0  0  0  0  0  0
    2.0117   -6.8146   24.5469 C   0  0  0  0  0  0  0  0  0  0  0  0
    3.3684   -6.4734   24.6334 C   0  0  0  0  0  0  0  0  0  0  0  0
    3.9646   -5.5883   23.7255 C   0  0  0  0  0  0  0  0  0  0  0  0
    6.6181   -0.0195   19.8730 C   0  0  0  0  0  0  0  0  0  0  0  0
    5.4208    0.6599   20.1202 C   0  0  0  0  0  0  0  0  0  0  0  0
    4.8154    1.3177   19.0503 C   0  0  0  0  0  0  0  0  0  0  0  0
    5.4098    1.2986   17.7832 C   0  0  0  0  0  0  0  0  0  0  0  0
    6.5497    0.6315   17.5350 N   0  0  0  0  0  0  0  0  0  0  0  0
    7.1292   -0.0147   18.5621 C   0  0  0  0  0  0  0  0  0  0  0  0
  1  2  1  0
  2  3  1  0
  3  4  1  0
  4  5  1  0
  3  6  1  0
  6  7  1  1
  7  8  1  0
  8  9  2  0
  8 10  1  0
 10 11  1  0
 11 12  1  0
 12 13  2  0
 13 14  1  0
 14 15  2  0
 15 16  1  0
 16 17  2  0
 17 18  1  0
 17 19  1  0
 19 20  2  0
 20 21  1  0
 21 22  2  0
  6 23  1  0
 23 24  2  0
 24 25  1  0
 25 26  2  0
 26 27  1  0
 27 28  2  0
 22 12  1  0
 28 23  1  0
 21 15  1  0
M  END
>  <plip>  (1) 
-0.2857142857142857

>  <filename>  (1) 
[H][c]1[n][c]([H])[c]([C]([H])([N]([H])[C](=[O])[C]([H])([H])[O][c]2[c]([H])[c]([H])[c]3[c]([H])[c]([Br])[c]([H])[c]([H])[c]3[c]2[H])[C]([H])([O][C]([H])([H])[H])[O][C]([H])([H])[H])[c]([H])[c]1[H]

>  <ID>  (1) 


$$$$

     RDKit          3D

 26 29  0  0  0  0  0  0  0  0999 V2000
    9.0378    1.5083   21.0352 O   0  0  0  0  0  0  0  0  0  0  0  0
    8.4195    1.2648   22.0563 C   0  0  0  0  0  0  0  0  0  0  0  0
    8.4579    2.1281   23.3063 C   0  0  0  0  0  0  0  0  0  0  0  0
    9.3653    1.5779   24.4366 C   0  0  0  0  0  0  0  0  0  0  0  0
   10.7980    1.3971   23.9925 C   0  0  0  0  0  0  0  0  0  0  0  0
   11.7470    2.3526   23.9699 C   0  0  0  0  0  0  0  0  0  0  0  0
   13.0125    1.8609   23.3328 C   0  0  0  0  0  0  0  0  0  0  0  0
   12.6670    0.4369   22.9773 C   0  0  0  0  0  0  0  0  0  0  0  0
   13.4282   -0.5482   22.3550 C   0  0  0  0  0  0  0  0  0  0  0  0
   12.8514   -1.7999   22.1126 C   0  0  0  0  0  0  0  0  0  0  0  0
   11.5278   -2.0703   22.5134 C   0  0  0  0  0  0  0  0  0  0  0  0
   10.7676   -1.0957   23.1550 C   0  0  0  0  0  0  0  0  0  0  0  0
   11.3364    0.1741   23.3808 C   0  0  0  0  0  0  0  0  0  0  0  0
    7.6416    0.1496   22.1836 N   0  0  0  0  0  0  0  0  0  0  0  0
    7.3511   -0.6924   21.0379 C   0  0  2  0  0  0  0  0  0  0  0  0
    6.6283    0.0734   19.9339 C   0  0  0  0  0  0  0  0  0  0  0  0
    5.4003    0.7168   20.1389 C   0  0  0  0  0  0  0  0  0  0  0  0
    4.7795    1.3450   19.0568 C   0  0  0  0  0  0  0  0  0  0  0  0
    5.4043    1.3093   17.8054 C   0  0  0  0  0  0  0  0  0  0  0  0
    6.5751    0.6963   17.5830 N   0  0  0  0  0  0  0  0  0  0  0  0
    7.1626    0.1099   18.6383 C   0  0  0  0  0  0  0  0  0  0  0  0
    6.5813   -1.9387   21.5056 C   0  0  2  0  0  0  0  0  0  0  0  0
    7.3637   -2.8893   22.4388 C   0  0  0  0  0  0  0  0  0  0  0  0
    6.8134   -4.2700   22.0672 C   0  0  0  0  0  0  0  0  0  0  0  0
    6.4200   -4.1830   20.7062 O   0  0  0  0  0  0  0  0  0  0  0  0
    6.1495   -2.8452   20.3433 C   0  0  0  0  0  0  0  0  0  0  0  0
  1  2  2  0
  2  3  1  0
  3  4  1  0
  4  5  1  0
  5  6  2  0
  6  7  1  0
  7  8  1  0
  8  9  2  0
  9 10  1  0
 10 11  2  0
 11 12  1  0
 12 13  2  0
  2 14  1  0
 15 14  1  1
 15 16  1  0
 16 17  2  0
 17 18  1  0
 18 19  2  0
 19 20  1  0
 20 21  2  0
 15 22  1  0
 22 23  1  1
 23 24  1  0
 24 25  1  0
 25 26  1  0
 13  5  1  0
 21 16  1  0
 26 22  1  0
 13  8  1  0
M  END
>  <plip>  (2) 
-0.2857142857142857

>  <filename>  (2) 
[H][C]1=[C]([C]([H])([H])[C]([H])([H])[C](=[O])[N]([H])[C]([H])([c]2[c]([H])[n][c]([H])[c]([H])[c]2[H])[C]2([H])[C]([H])([H])[O][C]([H])([H])[C]2([H])[H])[c]2[c]([H])[c]([H])[c]([H])[c]([H])[c]2[C]1([H])[H]

>  <ID>  (2) 


$$$$

     RDKit          3D

 26 28  0  0  0  0  0  0  0  0999 V2000
   10.1804    1.2957   22.5134 C   0  0  0  0  0  0  0  0  0  0  0  0
    9.3343    0.4853   21.6805 O   0  0  0  0  0  0  0  0  0  0  0  0
    8.0457    0.3252   22.0273 C   0  0  0  0  0  0  0  0  0  0  0  0
    7.5082    0.8771   22.9590 O   0  0  0  0  0  0  0  0  0  0  0  0
    7.3562   -0.7030   21.0712 C   0  0  1  0  0  0  0  0  0  0  0  0
    6.4727   -1.6211   21.7949 N   0  0  0  0  0  0  0  0  0  0  0  0
    5.9394   -2.7225   21.1887 C   0  0  0  0  0  0  0  0  0  0  0  0
    6.1101   -2.9633   20.0076 O   0  0  0  0  0  0  0  0  0  0  0  0
    5.0736   -3.6275   22.0754 C   0  0  0  0  0  0  0  0  0  0  0  0
    5.8243   -4.2145   23.1354 O   0  0  0  0  0  0  0  0  0  0  0  0
    5.1688   -4.9575   24.0770 C   0  0  0  0  0  0  0  0  0  0  0  0
    3.7962   -5.2332   24.0591 C   0  0  0  0  0  0  0  0  0  0  0  0
    3.2329   -5.9892   25.0897 C   0  0  0  0  0  0  0  0  0  0  0  0
    3.9988   -6.4609   26.1622 C   0  0  0  0  0  0  0  0  0  0  0  0
    3.3701   -7.3607   27.2181 C   0  0  0  0  0  0  0  0  0  0  0  0
    4.1639   -7.4471   28.5352 C   0  0  0  0  0  0  0  0  0  0  0  0
    5.6646   -7.6210   28.2721 C   0  0  0  0  0  0  0  0  0  0  0  0
    6.2199   -6.4675   27.4213 C   0  0  0  0  0  0  0  0  0  0  0  0
    5.3729   -6.1364   26.2000 C   0  0  0  0  0  0  0  0  0  0  0  0
    5.9514   -5.4372   25.1339 C   0  0  0  0  0  0  0  0  0  0  0  0
    6.6100   -0.0215   19.9288 C   0  0  0  0  0  0  0  0  0  0  0  0
    5.4066    0.6680   20.1285 C   0  0  0  0  0  0  0  0  0  0  0  0
    4.8217    1.3150   19.0387 C   0  0  0  0  0  0  0  0  0  0  0  0
    5.4599    1.2502   17.7949 C   0  0  0  0  0  0  0  0  0  0  0  0
    6.5922    0.5634   17.5759 N   0  0  0  0  0  0  0  0  0  0  0  0
    7.1301   -0.0641   18.6297 C   0  0  0  0  0  0  0  0  0  0  0  0
  1  2  1  0
  2  3  1  0
  3  4  2  0
  3  5  1  0
  5  6  1  1
  6  7  1  0
  7  8  2  0
  7  9  1  0
  9 10  1  0
 10 11  1  0
 11 12  2  0
 12 13  1  0
 13 14  2  0
 14 15  1  0
 15 16  1  0
 16 17  1  0
 17 18  1  0
 18 19  1  0
 19 20  2  0
  5 21  1  0
 21 22  2  0
 22 23  1  0
 23 24  2  0
 24 25  1  0
 25 26  2  0
 20 11  1  0
 26 21  1  0
 19 14  1  0
M  END
>  <plip>  (3) 
-0.25

>  <filename>  (3) 
[H][c]1[n][c]([H])[c]([C]([H])([C](=[O])[O][C]([H])([H])[H])[N]([H])[C](=[O])[C]([H])([H])[O][c]2[c]([H])[c]([H])[c]3[c]([c]2[H])[C]([H])([H])[C]([H])([H])[C]([H])([H])[C]3([H])[H])[c]([H])[c]1[H]

>  <ID>  (3) 


$$$$

     RDKit          3D

 27 29  0  0  0  0  0  0  0  0999 V2000
    8.1608    2.1496   23.2238 C   0  0  0  0  0  0  0  0  0  0  0  0
    7.4328    1.1326   22.5743 O   0  0  0  0  0  0  0  0  0  0  0  0
    8.2217    0.2073   21.8548 C   0  0  0  0  0  0  0  0  0  0  0  0
    7.3578   -0.7492   21.0074 C   0  0  1  0  0  0  0  0  0  0  0  0
    6.5260   -1.6170   21.8332 N   0  0  0  0  0  0  0  0  0  0  0  0
    5.8618   -2.6674   21.2528 C   0  0  0  0  0  0  0  0  0  0  0  0
    5.9371   -2.9011   20.0592 O   0  0  0  0  0  0  0  0  0  0  0  0
    5.0154   -3.5559   22.1844 C   0  0  0  0  0  0  0  0  0  0  0  0
    5.7792   -4.1334   23.2328 O   0  0  0  0  0  0  0  0  0  0  0  0
    5.1485   -4.8464   24.2184 C   0  0  0  0  0  0  0  0  0  0  0  0
    3.7588   -5.0201   24.3705 C   0  0  0  0  0  0  0  0  0  0  0  0
    3.2579   -5.7822   25.4345 C   0  0  0  0  0  0  0  0  0  0  0  0
    4.1256   -6.3603   26.3603 C   0  0  0  0  0  0  0  0  0  0  0  0
    3.5873   -7.0967   27.3786 O   0  0  0  0  0  0  0  0  0  0  0  0
    4.3847   -7.6602   28.3680 C   0  0  0  0  0  0  0  0  0  0  0  0
    3.8383   -8.2242   29.2769 O   0  0  0  0  0  0  0  0  0  0  0  0
    5.8382   -7.4907   28.2388 C   0  0  0  0  0  0  0  0  0  0  0  0
    6.3810   -6.7100   27.2867 C   0  0  0  0  0  0  0  0  0  0  0  0
    7.8384   -6.3365   27.2704 C   0  0  0  0  0  0  0  0  0  0  0  0
    5.5139   -6.1565   26.2398 C   0  0  0  0  0  0  0  0  0  0  0  0
    6.0052   -5.4194   25.1479 C   0  0  0  0  0  0  0  0  0  0  0  0
    6.5690   -0.0486   19.9100 C   0  0  0  0  0  0  0  0  0  0  0  0
    5.3703    0.6442   20.1269 C   0  0  0  0  0  0  0  0  0  0  0  0
    4.7888    1.3231   19.0510 C   0  0  0  0  0  0  0  0  0  0  0  0
    5.4267    1.2953   17.8040 C   0  0  0  0  0  0  0  0  0  0  0  0
    6.5553    0.6119   17.5690 N   0  0  0  0  0  0  0  0  0  0  0  0
    7.0878   -0.0460   18.6079 C   0  0  0  0  0  0  0  0  0  0  0  0
  1  2  1  0
  2  3  1  0
  4  3  1  1
  4  5  1  0
  5  6  1  0
  6  7  2  0
  6  8  1  0
  8  9  1  0
  9 10  1  0
 10 11  2  0
 11 12  1  0
 12 13  2  0
 13 14  1  0
 14 15  1  0
 15 16  2  0
 15 17  1  0
 17 18  2  0
 18 19  1  0
 18 20  1  0
 20 21  2  0
  4 22  1  0
 22 23  2  0
 23 24  1  0
 24 25  2  0
 25 26  1  0
 26 27  2  0
 21 10  1  0
 27 22  1  0
 20 13  1  0
M  END
>  <plip>  (4) 
-0.25

>  <filename>  (4) 
[H][c]1[n][c]([H])[c]([C@]([H])([N]([H])[C](=[O])[C]([H])([H])[O][c]2[c]([H])[c]([H])[c]3[o][c](=[O])[c]([H])[c]([C]([H])([H])[H])[c]3[c]2[H])[C]([H])([H])[O][C]([H])([H])[H])[c]([H])[c]1[H]

>  <ID>  (4) 


$$$$

     RDKit          3D

 25 28  0  0  0  0  0  0  0  0999 V2000
    6.6215   -6.9094   28.2662 Cl  0  0  0  0  0  0  0  0  0  0  0  0
    7.3711   -6.2991   26.8197 C   0  0  0  0  0  0  0  0  0  0  0  0
    6.6206   -5.4575   25.9958 C   0  0  0  0  0  0  0  0  0  0  0  0
    7.2400   -4.8909   24.8781 C   0  0  0  0  0  0  0  0  0  0  0  0
    6.5037   -3.8987   24.0174 C   0  0  2  0  0  0  0  0  0  0  0  0
    6.5306   -4.1300   22.4684 C   0  0  0  0  0  0  0  0  0  0  0  0
    7.3216   -2.8373   22.2652 C   0  0  1  0  0  0  0  0  0  0  0  0
    6.6525   -1.8678   21.3814 N   0  0  0  0  0  4  0  0  0  0  0  0
    7.4204   -0.6682   20.9613 C   0  0  2  0  0  0  0  0  0  0  0  0
    7.7817    0.2507   22.1423 C   0  0  0  0  0  0  0  0  0  0  0  0
    8.6236    1.4256   21.7614 N   0  0  0  0  0  4  0  0  0  0  0  0
    9.9767    1.1059   21.1568 C   0  0  0  0  0  0  0  0  0  0  0  0
   10.8425    2.3374   21.4222 C   0  0  0  0  0  0  0  0  0  0  0  0
   10.1277    3.1386   22.5333 C   0  0  0  0  0  0  0  0  0  0  0  0
    8.8818    2.3422   22.9202 C   0  0  0  0  0  0  0  0  0  0  0  0
    6.5742   -0.0023   19.9027 C   0  0  0  0  0  0  0  0  0  0  0  0
    5.3531    0.6575   20.1225 C   0  0  0  0  0  0  0  0  0  0  0  0
    4.7505    1.3201   19.0482 C   0  0  0  0  0  0  0  0  0  0  0  0
    5.3776    1.2955   17.7993 C   0  0  0  0  0  0  0  0  0  0  0  0
    6.5183    0.6338   17.5618 N   0  0  0  0  0  0  0  0  0  0  0  0
    7.0857    0.0111   18.5991 C   0  0  0  0  0  0  0  0  0  0  0  0
    7.2167   -2.5327   23.7756 C   0  0  0  0  0  0  0  0  0  0  0  0
    8.5747   -5.2488   24.6371 C   0  0  0  0  0  0  0  0  0  0  0  0
    9.2076   -6.1359   25.5064 C   0  0  0  0  0  0  0  0  0  0  0  0
    8.6247   -6.6511   26.5951 N   0  0  0  0  0  0  0  0  0  0  0  0
  1  2  1  0
  2  3  2  0
  3  4  1  0
  5  4  1  1
  5  6  1  0
  6  7  1  0
  7  8  1  6
  8  9  1  0
  9 10  1  1
 10 11  1  0
 11 12  1  0
 12 13  1  0
 13 14  1  0
 14 15  1  0
  9 16  1  0
 16 17  2  0
 17 18  1  0
 18 19  2  0
 19 20  1  0
 20 21  2  0
  7 22  1  0
  4 23  2  0
 23 24  1  0
 24 25  2  0
 25  2  1  0
 22  5  1  0
 15 11  1  0
 21 16  1  0
M  CHG  2   8   1  11   1
M  END
>  <plip>  (5) 
-0.25

>  <filename>  (5) 
[H][c]1[n][c]([H])[c]([C]([H])([C]([H])([H])[N+]2([H])[C]([H])([H])[C]([H])([H])[C]([H])([H])[C]2([H])[H])[N+]([H])([H])[C]2([H])[C]([H])([H])[C]([H])([c]3[c]([H])[c]([H])[n][c]([Cl])[c]3[H])[C]2([H])[H])[c]([H])[c]1[H]

>  <ID>  (5) 


$$$$

     RDKit          3D

 27 29  0  0  0  0  0  0  0  0999 V2000
    8.5150    2.3817   21.2542 C   0  0  0  0  0  0  0  0  0  0  0  0
    8.9113    1.0399   21.4304 O   0  0  0  0  0  0  0  0  0  0  0  0
    7.9482    0.2393   22.0710 C   0  0  0  0  0  0  0  0  0  0  0  0
    8.5717   -0.4984   23.0787 O   0  0  0  0  0  0  0  0  0  0  0  0
    9.1007    0.2868   24.1328 C   0  0  0  0  0  0  0  0  0  0  0  0
    7.3109   -0.7430   21.0486 C   0  0  1  0  0  0  0  0  0  0  0  0
    6.3744   -1.6604   21.7094 N   0  0  0  0  0  0  0  0  0  0  0  0
    5.8745   -2.7845   21.1033 C   0  0  0  0  0  0  0  0  0  0  0  0
    5.8444   -2.9297   19.8962 O   0  0  0  0  0  0  0  0  0  0  0  0
    5.2951   -3.8471   22.0742 C   0  0  0  0  0  0  0  0  0  0  0  0
    6.2164   -4.5703   22.8897 O   0  0  0  0  0  0  0  0  0  0  0  0
    6.7375   -3.9232   24.0618 C   0  0  2  0  0  0  0  0  0  0  0  0
    8.2104   -3.5488   23.8377 C   0  0  0  0  0  0  0  0  0  0  0  0
    9.1333   -4.7680   23.9693 C   0  0  0  0  0  0  0  0  0  0  0  0
    9.0103   -5.4559   25.3368 C   0  0  0  0  0  0  0  0  0  0  0  0
    7.5904   -5.5292   25.8720 C   0  0  0  0  0  0  0  0  0  0  0  0
    7.3424   -6.2767   27.0329 C   0  0  0  0  0  0  0  0  0  0  0  0
    6.0567   -6.3835   27.5565 C   0  0  0  0  0  0  0  0  0  0  0  0
    4.9778   -5.8025   26.8750 C   0  0  0  0  0  0  0  0  0  0  0  0
    5.2156   -5.0622   25.7183 C   0  0  0  0  0  0  0  0  0  0  0  0
    6.5234   -4.8518   25.2505 C   0  0  0  0  0  0  0  0  0  0  0  0
    6.6113   -0.0284   19.9048 C   0  0  0  0  0  0  0  0  0  0  0  0
    5.4157    0.6801   20.0974 C   0  0  0  0  0  0  0  0  0  0  0  0
    4.8602    1.3703   19.0195 C   0  0  0  0  0  0  0  0  0  0  0  0
    5.5080    1.3219   17.7775 C   0  0  0  0  0  0  0  0  0  0  0  0
    6.6414    0.6379   17.5628 N   0  0  0  0  0  0  0  0  0  0  0  0
    7.1597   -0.0187   18.6150 C   0  0  0  0  0  0  0  0  0  0  0  0
  1  2  1  0
  2  3  1  0
  3  4  1  0
  4  5  1  0
  3  6  1  0
  6  7  1  1
  7  8  1  0
  8  9  2  0
  8 10  1  0
 10 11  1  0
 12 11  1  6
 12 13  1  0
 13 14  1  0
 14 15  1  0
 15 16  1  0
 16 17  2  0
 17 18  1  0
 18 19  2  0
 19 20  1  0
 20 21  2  0
  6 22  1  0
 22 23  2  0
 23 24  1  0
 24 25  2  0
 25 26  1  0
 26 27  2  0
 21 12  1  0
 27 22  1  0
 21 16  1  0
M  END
>  <plip>  (6) 
-0.25

>  <filename>  (6) 
[H][c]1[n][c]([H])[c]([C]([H])([N]([H])[C](=[O])[C]([H])([H])[O][C]2([H])[c]3[c]([H])[c]([H])[c]([H])[c]([H])[c]3[C]([H])([H])[C]([H])([H])[C]2([H])[H])[C]([H])([O][C]([H])([H])[H])[O][C]([H])([H])[H])[c]([H])[c]1[H]

>  <ID>  (6) 


$$$$

     RDKit          3D

 23 25  0  0  0  0  0  0  0  0999 V2000
    9.0392    1.4484   21.1794 O   0  0  0  0  0  0  0  0  0  0  0  0
    8.3376    1.2247   22.1563 C   0  0  0  0  0  0  0  0  0  0  0  0
    7.5232    0.1199   22.1401 N   0  0  0  0  0  0  0  0  0  0  0  0
    7.3987   -0.7414   20.9734 C   0  0  1  0  0  0  0  0  0  0  0  0
    6.6566   -2.0374   21.3323 C   0  0  0  0  0  0  0  0  0  0  0  0
    6.5635   -2.9218   20.2032 O   0  0  0  0  0  0  0  0  0  0  0  0
    6.6647    0.0299   19.9067 C   0  0  0  0  0  0  0  0  0  0  0  0
    5.4419    0.6558   20.1652 C   0  0  0  0  0  0  0  0  0  0  0  0
    4.8193    1.3059   19.1004 C   0  0  0  0  0  0  0  0  0  0  0  0
    5.4046    1.2947   17.8260 C   0  0  0  0  0  0  0  0  0  0  0  0
    6.5711    0.6733   17.5751 N   0  0  0  0  0  0  0  0  0  0  0  0
    7.1867    0.0705   18.6066 C   0  0  0  0  0  0  0  0  0  0  0  0
    8.3711    2.1054   23.3271 C   0  0  0  0  0  0  0  0  0  0  0  0
    7.6006    2.0280   24.4705 C   0  0  0  0  0  0  0  0  0  0  0  0
    7.9912    3.1315   25.3303 C   0  0  0  0  0  0  0  0  0  0  0  0
    8.9862    3.8399   24.6784 C   0  0  0  0  0  0  0  0  0  0  0  0
    9.5723    4.9648   25.2436 C   0  0  0  0  0  0  0  0  0  0  0  0
    9.1345    5.3836   26.5072 C   0  0  0  0  0  0  0  0  0  0  0  0
    8.1183    4.6783   27.1811 C   0  0  0  0  0  0  0  0  0  0  0  0
    7.5360    5.2792   28.9034 Br  0  0  0  0  0  0  0  0  0  0  0  0
    7.5441    3.5373   26.5889 C   0  0  0  0  0  0  0  0  0  0  0  0
    6.5685    2.8408   27.2215 F   0  0  0  0  0  0  0  0  0  0  0  0
    9.2083    3.2160   23.4752 N   0  0  0  0  0  0  0  0  0  0  0  0
  1  2  2  0
  2  3  1  0
  3  4  1  0
  4  5  1  1
  5  6  1  0
  4  7  1  0
  7  8  2  0
  8  9  1  0
  9 10  2  0
 10 11  1  0
 11 12  2  0
  2 13  1  0
 13 14  2  0
 14 15  1  0
 15 16  2  0
 16 17  1  0
 17 18  2  0
 18 19  1  0
 19 20  1  0
 19 21  2  0
 21 22  1  0
 16 23  1  0
 12  7  1  0
 23 13  1  0
 21 15  1  0
M  END
>  <plip>  (7) 
-0.25

>  <filename>  (7) 
[H][O][C]([H])([H])[C]([H])([c]1[c]([H])[n][c]([H])[c]([H])[c]1[H])[N]([H])[C](=[O])[c]1[c]([H])[c]2[c]([F])[c]([Br])[c]([H])[c]([H])[c]2[n]1[H]

>  <ID>  (7) 


$$$$

     RDKit          3D

 23 25  0  0  0  0  0  0  0  0999 V2000
    6.4315    2.8696   27.2430 C   0  0  0  0  0  0  0  0  0  0  0  0
    7.5361    3.6177   26.5493 C   0  0  0  0  0  0  0  0  0  0  0  0
    8.1302    4.7591   27.1202 C   0  0  0  0  0  0  0  0  0  0  0  0
    9.1641    5.4488   26.4582 C   0  0  0  0  0  0  0  0  0  0  0  0
    9.6132    5.0044   25.2072 C   0  0  0  0  0  0  0  0  0  0  0  0
   11.0139    5.9306   24.2860 Br  0  0  0  0  0  0  0  0  0  0  0  0
    9.0137    3.8708   24.6476 C   0  0  0  0  0  0  0  0  0  0  0  0
    7.9957    3.1826   25.2991 C   0  0  0  0  0  0  0  0  0  0  0  0
    7.6148    2.0725   24.4254 C   0  0  0  0  0  0  0  0  0  0  0  0
    8.4003    2.1268   23.2814 C   0  0  0  0  0  0  0  0  0  0  0  0
    8.3679    1.2200   22.1084 C   0  0  0  0  0  0  0  0  0  0  0  0
    9.0672    1.4154   21.1143 O   0  0  0  0  0  0  0  0  0  0  0  0
    7.5418    0.1122   22.1255 N   0  0  0  0  0  0  0  0  0  0  0  0
    7.3910   -0.7717   20.9695 C   0  0  1  0  0  0  0  0  0  0  0  0
    6.6287   -2.0567   21.3615 C   0  0  0  0  0  0  0  0  0  0  0  0
    6.4653   -3.0204   20.3004 O   0  0  0  0  0  0  0  0  0  0  0  0
    6.6534   -0.0017   19.8997 C   0  0  0  0  0  0  0  0  0  0  0  0
    5.4429    0.6500   20.1538 C   0  0  0  0  0  0  0  0  0  0  0  0
    4.8182    1.3045   19.0961 C   0  0  0  0  0  0  0  0  0  0  0  0
    5.4030    1.2984   17.8284 C   0  0  0  0  0  0  0  0  0  0  0  0
    6.5719    0.6841   17.5810 N   0  0  0  0  0  0  0  0  0  0  0  0
    7.1840    0.0598   18.6034 C   0  0  0  0  0  0  0  0  0  0  0  0
    9.2486    3.2285   23.4384 N   0  0  0  0  0  0  0  0  0  0  0  0
  1  2  1  0
  2  3  2  0
  3  4  1  0
  4  5  2  0
  5  6  1  0
  5  7  1  0
  7  8  2  0
  8  9  1  0
  9 10  2  0
 10 11  1  0
 11 12  2  0
 11 13  1  0
 13 14  1  0
 14 15  1  1
 15 16  1  0
 14 17  1  0
 17 18  2  0
 18 19  1  0
 19 20  2  0
 20 21  1  0
 21 22  2  0
 10 23  1  0
  8  2  1  0
 22 17  1  0
 23  7  1  0
M  END
>  <plip>  (8) 
-0.25

>  <filename>  (8) 
[H][O][C]([H])([H])[C]([H])([c]1[c]([H])[n][c]([H])[c]([H])[c]1[H])[N]([H])[C](=[O])[c]1[c]([H])[c]2[c]([C]([H])([H])[H])[c]([H])[c]([H])[c]([Br])[c]2[n]1[H]

>  <ID>  (8) 


$$$$

     RDKit          3D

 26 29  0  0  0  0  0  0  0  0999 V2000
    9.7712   -4.6461   26.6032 N   0  0  0  0  0  0  0  0  0  0  0  0
    8.5753   -4.2009   26.0516 C   0  0  0  0  0  0  0  0  0  0  0  0
    7.8427   -3.2457   26.7476 C   0  0  0  0  0  0  0  0  0  0  0  0
    6.6777   -2.6776   26.1992 C   0  0  0  0  0  0  0  0  0  0  0  0
    6.2271   -3.0400   24.9346 C   0  0  0  0  0  0  0  0  0  0  0  0
    6.9672   -4.0059   24.2328 C   0  0  0  0  0  0  0  0  0  0  0  0
    8.1172   -4.6368   24.7800 C   0  0  0  0  0  0  0  0  0  0  0  0
    8.5376   -5.6099   23.8097 C   0  0  0  0  0  0  0  0  0  0  0  0
    7.7048   -5.4864   22.7316 C   0  0  0  0  0  0  0  0  0  0  0  0
    6.7472   -4.5224   22.9728 N   0  0  0  0  0  0  0  0  0  0  0  0
    5.7244   -4.0865   22.0282 C   0  0  0  0  0  0  0  0  0  0  0  0
    6.0931   -2.9416   21.0602 C   0  0  0  0  0  0  0  0  0  0  0  0
    5.9931   -3.0774   19.8547 O   0  0  0  0  0  0  0  0  0  0  0  0
    6.4870   -1.7947   21.6691 N   0  0  0  0  0  0  0  0  0  0  0  0
    7.3284   -0.7805   21.0420 C   0  0  1  0  0  0  0  0  0  0  0  0
    6.5762   -0.0689   19.9225 C   0  0  0  0  0  0  0  0  0  0  0  0
    5.3686    0.6169   20.1305 C   0  0  0  0  0  0  0  0  0  0  0  0
    4.7965    1.3077   19.0585 C   0  0  0  0  0  0  0  0  0  0  0  0
    5.4460    1.2782   17.8174 C   0  0  0  0  0  0  0  0  0  0  0  0
    6.5759    0.5970   17.5806 N   0  0  0  0  0  0  0  0  0  0  0  0
    7.1051   -0.0612   18.6237 C   0  0  0  0  0  0  0  0  0  0  0  0
    7.8412    0.1945   22.1441 C   0  0  0  0  0  0  0  0  0  0  0  0
    8.6685   -0.4665   23.2759 C   0  0  0  0  0  0  0  0  0  0  0  0
   10.1341   -0.4784   22.7950 C   0  0  0  0  0  0  0  0  0  0  0  0
   10.2286    0.6182   21.7089 C   0  0  0  0  0  0  0  0  0  0  0  0
    8.8298    1.2643   21.6275 C   0  0  0  0  0  0  0  0  0  0  0  0
  1  2  1  0
  2  3  2  0
  3  4  1  0
  4  5  2  0
  5  6  1  0
  6  7  2  0
  7  8  1  0
  8  9  2  0
  9 10  1  0
 10 11  1  0
 11 12  1  0
 12 13  2  0
 12 14  1  0
 15 14  1  1
 15 16  1  0
 16 17  2  0
 17 18  1  0
 18 19  2  0
 19 20  1  0
 20 21  2  0
 15 22  1  0
 22 23  1  0
 23 24  1  0
 24 25  1  0
 25 26  1  0
  7  2  1  0
 21 16  1  0
 26 22  1  0
 10  6  1  0
M  END
>  <plip>  (9) 
-0.25

>  <filename>  (9) 
[H][c]1[n][c]([H])[c]([C]([H])([N]([H])[C](=[O])[C]([H])([H])[n]2[c]([H])[c]([H])[c]3[c]([N]([H])[H])[c]([H])[c]([H])[c]([H])[c]32)[C]2([H])[C]([H])([H])[C]([H])([H])[C]([H])([H])[C]2([H])[H])[c]([H])[c]1[H]

>  <ID>  (9) 


$$$$

     RDKit          3D

 25 26  0  0  0  0  0  0  0  0999 V2000
    8.3050   -0.2478   24.3707 C   0  0  0  0  0  0  0  0  0  0  0  0
    8.7029   -0.3732   23.0204 O   0  0  0  0  0  0  0  0  0  0  0  0
    7.9308    0.3060   22.0516 C   0  0  0  0  0  0  0  0  0  0  0  0
    8.7490    1.1646   21.3168 O   0  0  0  0  0  0  0  0  0  0  0  0
    9.2227    2.2985   22.0220 C   0  0  0  0  0  0  0  0  0  0  0  0
    7.3032   -0.7120   21.0394 C   0  0  1  0  0  0  0  0  0  0  0  0
    6.4146   -1.6823   21.7022 N   0  0  0  0  0  0  0  0  0  0  0  0
    5.8905   -2.7558   21.0484 C   0  0  0  0  0  0  0  0  0  0  0  0
    6.0801   -2.9926   19.8711 O   0  0  0  0  0  0  0  0  0  0  0  0
    5.0777   -3.6446   21.9029 C   0  0  0  0  0  0  0  0  0  0  0  0
    4.3993   -4.4337   22.5200 C   0  0  0  0  0  0  0  0  0  0  0  0
    3.6097   -5.3800   23.3399 C   0  0  0  0  0  0  0  0  0  0  0  0
    4.2087   -5.6862   24.5933 O   0  0  0  0  0  0  0  0  0  0  0  0
    4.3834   -4.7072   25.5423 C   0  0  0  0  0  0  0  0  0  0  0  0
    5.0318   -5.1153   26.7228 C   0  0  0  0  0  0  0  0  0  0  0  0
    5.2675   -4.1962   27.7487 C   0  0  0  0  0  0  0  0  0  0  0  0
    4.8511   -2.8646   27.6122 C   0  0  0  0  0  0  0  0  0  0  0  0
    4.2083   -2.4597   26.4404 C   0  0  0  0  0  0  0  0  0  0  0  0
    3.9758   -3.3714   25.4029 C   0  0  0  0  0  0  0  0  0  0  0  0
    6.5716   -0.0368   19.8864 C   0  0  0  0  0  0  0  0  0  0  0  0
    5.3626    0.6421   20.0813 C   0  0  0  0  0  0  0  0  0  0  0  0
    4.7901    1.3300   19.0129 C   0  0  0  0  0  0  0  0  0  0  0  0
    5.4392    1.2998   17.7742 C   0  0  0  0  0  0  0  0  0  0  0  0
    6.5716    0.6189   17.5488 N   0  0  0  0  0  0  0  0  0  0  0  0
    7.1091   -0.0331   18.5933 C   0  0  0  0  0  0  0  0  0  0  0  0
  1  2  1  0
  2  3  1  0
  3  4  1  0
  4  5  1  0
  3  6  1  0
  6  7  1  1
  7  8  1  0
  8  9  2  0
  8 10  1  0
 10 11  3  0
 11 12  1  0
 12 13  1  0
 13 14  1  0
 14 15  2  0
 15 16  1  0
 16 17  2  0
 17 18  1  0
 18 19  2  0
  6 20  1  0
 20 21  2  0
 21 22  1  0
 22 23  2  0
 23 24  1  0
 24 25  2  0
 19 14  1  0
 25 20  1  0
M  END
>  <plip>  (10) 
-0.2413793103448276

>  <filename>  (10) 
[H][c]1[n][c]([H])[c]([C]([H])([N]([H])[C](=[O])[C]#[C][C]([H])([H])[O][c]2[c]([H])[c]([H])[c]([H])[c]([H])[c]2[H])[C]([H])([O][C]([H])([H])[H])[O][C]([H])([H])[H])[c]([H])[c]1[H]

>  <ID>  (10) 


$$$$

     RDKit          3D

 24 26  0  0  0  0  0  0  0  0999 V2000
   10.1309    0.7005   21.0589 C   0  0  0  0  0  0  0  0  0  0  0  0
    8.8619    1.3256   21.4869 N   0  0  0  0  0  4  0  0  0  0  0  0
    9.1428    2.3595   22.5030 C   0  0  0  0  0  0  0  0  0  0  0  0
    7.9285    0.2965   22.0286 C   0  0  0  0  0  0  0  0  0  0  0  0
    7.4266   -0.7087   20.9781 C   0  0  1  0  0  0  0  0  0  0  0  0
    6.5927   -1.6963   21.6473 N   0  0  0  0  0  0  0  0  0  0  0  0
    6.0806   -2.8135   21.0175 C   0  0  0  0  0  0  0  0  0  0  0  0
    6.2247   -2.9201   19.8118 O   0  0  0  0  0  0  0  0  0  0  0  0
    5.2805   -3.7963   21.7541 C   0  0  0  0  0  0  0  0  0  0  0  0
    4.9750   -5.0651   21.3280 C   0  0  0  0  0  0  0  0  0  0  0  0
    5.7194   -5.8813   19.7682 Br  0  0  0  0  0  0  0  0  0  0  0  0
    3.9817   -5.5864   22.2424 C   0  0  0  0  0  0  0  0  0  0  0  0
    3.1262   -6.6983   22.2786 C   0  0  0  0  0  0  0  0  0  0  0  0
    2.2558   -6.8612   23.3676 C   0  0  0  0  0  0  0  0  0  0  0  0
    2.2697   -5.9400   24.4243 C   0  0  0  0  0  0  0  0  0  0  0  0
    3.0821   -4.8007   24.3537 C   0  0  0  0  0  0  0  0  0  0  0  0
    3.9137   -4.6334   23.2491 C   0  0  0  0  0  0  0  0  0  0  0  0
    4.6949   -3.5481   22.9712 O   0  0  0  0  0  0  0  0  0  0  0  0
    6.6334   -0.0207   19.9005 C   0  0  0  0  0  0  0  0  0  0  0  0
    5.4285    0.6435   20.1541 C   0  0  0  0  0  0  0  0  0  0  0  0
    4.8098    1.3015   19.0920 C   0  0  0  0  0  0  0  0  0  0  0  0
    5.4059    1.2896   17.8272 C   0  0  0  0  0  0  0  0  0  0  0  0
    6.5612    0.6460   17.5799 N   0  0  0  0  0  0  0  0  0  0  0  0
    7.1534    0.0008   18.5993 C   0  0  0  0  0  0  0  0  0  0  0  0
  1  2  1  0
  2  3  1  0
  2  4  1  0
  5  4  1  1
  5  6  1  0
  6  7  1  0
  7  8  2  0
  7  9  1  0
  9 10  2  0
 10 11  1  0
 10 12  1  0
 12 13  2  0
 13 14  1  0
 14 15  2  0
 15 16  1  0
 16 17  2  0
 17 18  1  0
  5 19  1  0
 19 20  2  0
 20 21  1  0
 21 22  2  0
 22 23  1  0
 23 24  2  0
 18  9  1  0
 24 19  1  0
 17 12  1  0
M  CHG  1   2   1
M  END
>  <plip>  (11) 
-0.2413793103448276

>  <filename>  (11) 
[H][c]1[n][c]([H])[c]([C]([H])([N]([H])[C](=[O])[c]2[o][c]3[c]([H])[c]([H])[c]([H])[c]([H])[c]3[c]2[Br])[C]([H])([H])[N+]([H])([C]([H])([H])[H])[C]([H])([H])[H])[c]([H])[c]1[H]

>  <ID>  (11) 


$$$$

     RDKit          3D

 26 28  0  0  0  0  0  0  0  0999 V2000
    7.0276    2.9796   23.4071 C   0  0  0  0  0  0  0  0  0  0  0  0
    8.3984    2.2625   23.2932 C   0  0  1  0  0  0  0  0  0  0  0  0
    8.4591    1.2560   22.1196 C   0  0  0  0  0  0  0  0  0  0  0  0
    9.2316    1.3717   21.1824 O   0  0  0  0  0  0  0  0  0  0  0  0
    7.5649    0.2363   22.2049 N   0  0  0  0  0  0  0  0  0  0  0  0
    7.3305   -0.6782   21.1130 C   0  0  1  0  0  0  0  0  0  0  0  0
    6.5426   -1.9059   21.6196 C   0  0  0  0  0  0  0  0  0  0  0  0
    6.6288   -3.0758   20.6431 C   0  0  0  0  0  0  0  0  0  0  0  0
    5.8527   -4.3548   20.9333 C   0  0  0  0  0  0  0  0  0  0  0  0
    5.7800   -5.0557   19.6960 O   0  0  0  0  0  0  0  0  0  0  0  0
    6.6192    0.0523   19.9815 C   0  0  0  0  0  0  0  0  0  0  0  0
    5.3959    0.7148   20.1693 C   0  0  0  0  0  0  0  0  0  0  0  0
    4.7939    1.3334   19.0738 C   0  0  0  0  0  0  0  0  0  0  0  0
    5.4357    1.2867   17.8311 C   0  0  0  0  0  0  0  0  0  0  0  0
    6.6122    0.6778   17.6318 N   0  0  0  0  0  0  0  0  0  0  0  0
    7.1782    0.0917   18.6988 C   0  0  0  0  0  0  0  0  0  0  0  0
    9.5265    3.3256   23.1818 C   0  0  0  0  0  0  0  0  0  0  0  0
   10.9112    2.7292   23.3434 C   0  0  0  0  0  0  0  0  0  0  0  0
   12.0453    3.2179   22.6869 C   0  0  0  0  0  0  0  0  0  0  0  0
   13.3019    2.6403   22.8948 C   0  0  0  0  0  0  0  0  0  0  0  0
   13.4248    1.5393   23.7535 C   0  0  0  0  0  0  0  0  0  0  0  0
   12.3140    1.0537   24.4429 C   0  0  0  0  0  0  0  0  0  0  0  0
   11.0654    1.6477   24.2257 C   0  0  0  0  0  0  0  0  0  0  0  0
    9.9262    1.1653   24.8801 N   0  0  0  0  0  0  0  0  0  0  0  0
    8.6416    1.3040   24.4526 C   0  0  0  0  0  0  0  0  0  0  0  0
    7.7688    0.6051   24.9410 O   0  0  0  0  0  0  0  0  0  0  0  0
  2  1  1  1
  2  3  1  0
  3  4  2  0
  3  5  1  0
  5  6  1  0
  6  7  1  1
  7  8  1  0
  8  9  1  0
  9 10  1  0
  6 11  1  0
 11 12  2  0
 12 13  1  0
 13 14  2  0
 14 15  1  0
 15 16  2  0
  2 17  1  0
 17 18  1  0
 18 19  2  0
 19 20  1  0
 20 21  2  0
 21 22  1  0
 22 23  2  0
 23 24  1  0
 24 25  1  0
 25 26  2  0
 25  2  1  0
 16 11  1  0
 23 18  1  0
M  END
>  <plip>  (12) 
-0.2413793103448276

>  <filename>  (12) 
[H][O][C]([H])([H])[C]([H])([H])[C]([H])([H])[C]([H])([c]1[c]([H])[n][c]([H])[c]([H])[c]1[H])[N]([H])[C](=[O])[C]1([C]([H])([H])[H])[C](=[O])[N]([H])[c]2[c]([H])[c]([H])[c]([H])[c]([H])[c]2[C]1([H])[H]

>  <ID>  (12) 


$$$$

     RDKit          3D

 20 21  0  0  0  0  0  0  0  0999 V2000
    6.2641   -7.1436   22.2545 C   0  0  0  0  0  0  0  0  0  0  0  0
    6.6066   -6.1814   23.3989 C   0  0  0  0  0  0  0  0  0  0  0  0
    6.1322   -4.7488   23.1752 C   0  0  1  0  0  0  0  0  0  0  0  0
    6.4501   -3.8261   24.3646 C   0  0  0  0  0  0  0  0  0  0  0  0
    6.7261   -4.1771   21.8761 C   0  0  0  0  0  0  0  0  0  0  0  0
    5.7780   -2.8554   21.2332 S   0  0  0  0  0  0  0  0  0  0  0  0
    4.4568   -2.9621   21.8175 O   0  0  0  0  0  0  0  0  0  0  0  0
    5.9756   -2.7841   19.8014 O   0  0  0  0  0  0  0  0  0  0  0  0
    6.3808   -1.5368   22.0268 N   0  0  0  0  0  0  0  0  0  0  0  0
    7.2749   -0.6412   21.2882 C   0  0  0  0  0  0  0  0  0  0  0  0
    6.5764   -0.0330   20.0750 C   0  0  0  0  0  0  0  0  0  0  0  0
    5.3761    0.6880   20.1961 C   0  0  0  0  0  0  0  0  0  0  0  0
    4.8308    1.3136   19.0726 C   0  0  0  0  0  0  0  0  0  0  0  0
    5.5011    1.2069   17.8504 C   0  0  0  0  0  0  0  0  0  0  0  0
    6.6222    0.4931   17.6964 N   0  0  0  0  0  0  0  0  0  0  0  0
    7.1188   -0.1181   18.7839 C   0  0  0  0  0  0  0  0  0  0  0  0
    8.6073   -1.3539   21.0029 C   0  0  0  0  0  0  0  0  0  0  0  0
    9.6257   -0.2243   20.7865 C   0  0  0  0  0  0  0  0  0  0  0  0
    9.1160    0.9355   21.6760 C   0  0  0  0  0  0  0  0  0  0  0  0
    7.7956    0.4159   22.2779 C   0  0  0  0  0  0  0  0  0  0  0  0
  1  2  1  0
  2  3  1  0
  3  4  1  1
  3  5  1  0
  5  6  1  0
  6  7  2  0
  6  8  2  0
  6  9  1  0
  9 10  1  0
 10 11  1  0
 11 12  2  0
 12 13  1  0
 13 14  2  0
 14 15  1  0
 15 16  2  0
 10 17  1  0
 17 18  1  0
 18 19  1  0
 19 20  1  0
 20 10  1  0
 16 11  1  0
M  END
>  <plip>  (13) 
-0.2413793103448276

>  <filename>  (13) 
[H][c]1[n][c]([H])[c]([C]2([N]([H])[S](=[O])(=[O])[C]([H])([H])[C]([H])([C]([H])([H])[H])[C]([H])([H])[C]([H])([H])[H])[C]([H])([H])[C]([H])([H])[C]([H])([H])[C]2([H])[H])[c]([H])[c]1[H]

>  <ID>  (13) 


$$$$

     RDKit          3D

 23 25  0  0  0  0  0  0  0  0999 V2000
    5.3364    1.3956   17.6581 C   0  0  0  0  0  0  0  0  0  0  0  0
    6.5098    0.7526   17.5678 N   0  0  0  0  0  0  0  0  0  0  0  0
    7.0273    0.2687   18.7051 C   0  0  0  0  0  0  0  0  0  0  0  0
    6.4318    0.4027   19.9689 C   0  0  0  0  0  0  0  0  0  0  0  0
    7.1156   -0.1831   21.1941 C   0  0  1  0  0  0  0  0  0  0  0  0
    7.5553   -1.5594   21.0042 N   0  0  0  0  0  0  0  0  0  0  0  0
    6.6220   -2.4891   20.5449 N   0  0  0  0  0  0  0  0  0  0  0  0
    6.3642   -3.7948   20.9202 C   0  0  0  0  0  0  0  0  0  0  0  0
    5.5556   -4.4001   20.2386 O   0  0  0  0  0  0  0  0  0  0  0  0
    7.1409   -4.4497   22.0237 C   0  0  0  0  0  0  0  0  0  0  0  0
    7.7731   -5.6653   21.6926 C   0  0  0  0  0  0  0  0  0  0  0  0
    8.5730   -6.3129   22.6151 C   0  0  0  0  0  0  0  0  0  0  0  0
    8.7329   -5.7850   23.9064 C   0  0  0  0  0  0  0  0  0  0  0  0
    9.5773   -6.5116   24.6810 O   0  0  0  0  0  0  0  0  0  0  0  0
    9.9235   -6.0864   25.9786 C   0  0  0  0  0  0  0  0  0  0  0  0
    8.0576   -4.6104   24.2762 C   0  0  0  0  0  0  0  0  0  0  0  0
    7.2684   -3.9419   23.3270 C   0  0  0  0  0  0  0  0  0  0  0  0
    8.9557   -1.6732   20.9731 C   0  0  0  0  0  0  0  0  0  0  0  0
    9.6086   -2.6498   20.7510 O   0  0  0  0  0  0  0  0  0  0  0  0
    9.4782   -0.4588   21.2676 O   0  0  0  0  0  0  0  0  0  0  0  0
    8.4533    0.4844   21.5747 C   0  0  0  0  0  0  0  0  0  0  0  0
    5.1888    1.0467   20.0355 C   0  0  0  0  0  0  0  0  0  0  0  0
    4.6327    1.5510   18.8560 C   0  0  0  0  0  0  0  0  0  0  0  0
  1  2  2  0
  2  3  1  0
  3  4  2  0
  5  4  1  6
  5  6  1  0
  6  7  1  0
  7  8  1  0
  8  9  2  0
  8 10  1  0
 10 11  2  0
 11 12  1  0
 12 13  2  0
 13 14  1  0
 14 15  1  0
 13 16  1  0
 16 17  2  0
  6 18  1  0
 18 19  2  0
 18 20  1  0
 20 21  1  0
  4 22  1  0
 22 23  2  0
 23  1  1  0
 21  5  1  0
 17 10  1  0
M  END
>  <plip>  (14) 
-0.2413793103448276

>  <filename>  (14) 
[H][c]1[n][c]([H])[c]([C@@]2([H])[N]([N]([H])[C](=[O])[c]3[c]([H])[c]([H])[c]([O][C]([H])([H])[H])[c]([H])[c]3[H])[C](=[O])[O][C]2([H])[H])[c]([H])[c]1[H]

>  <ID>  (14) 


$$$$

     RDKit          3D

 27 29  0  0  0  0  0  0  0  0999 V2000
    8.2545   -0.3280   24.3469 C   0  0  0  0  0  0  0  0  0  0  0  0
    8.7045   -0.3876   23.0100 O   0  0  0  0  0  0  0  0  0  0  0  0
    7.9283    0.2913   22.0454 C   0  0  0  0  0  0  0  0  0  0  0  0
    8.7303    1.1895   21.3442 O   0  0  0  0  0  0  0  0  0  0  0  0
    9.1389    2.3193   22.0945 C   0  0  0  0  0  0  0  0  0  0  0  0
    7.3423   -0.7045   21.0038 C   0  0  1  0  0  0  0  0  0  0  0  0
    6.4709   -1.7041   21.6334 N   0  0  0  0  0  0  0  0  0  0  0  0
    6.0178   -2.8141   20.9845 C   0  0  0  0  0  0  0  0  0  0  0  0
    6.1936   -3.0036   19.7907 O   0  0  0  0  0  0  0  0  0  0  0  0
    5.3243   -3.8088   21.8581 C   0  0  0  0  0  0  0  0  0  0  0  0
    4.7694   -3.7558   23.1241 C   0  0  0  0  0  0  0  0  0  0  0  0
    4.1198   -4.9949   23.3911 C   0  0  0  0  0  0  0  0  0  0  0  0
    3.3457   -5.3443   24.6055 C   0  0  0  0  0  0  0  0  0  0  0  0
    2.3823   -6.3759   24.6137 C   0  0  0  0  0  0  0  0  0  0  0  0
    1.6509   -6.6754   25.7670 C   0  0  0  0  0  0  0  0  0  0  0  0
    1.8715   -5.9393   26.9335 C   0  0  0  0  0  0  0  0  0  0  0  0
    0.9650   -6.3000   28.3742 Cl  0  0  0  0  0  0  0  0  0  0  0  0
    2.8160   -4.9105   26.9566 C   0  0  0  0  0  0  0  0  0  0  0  0
    3.5425   -4.6256   25.8024 C   0  0  0  0  0  0  0  0  0  0  0  0
    4.3474   -5.7833   22.2754 C   0  0  0  0  0  0  0  0  0  0  0  0
    5.0745   -5.0753   21.3734 N   0  0  0  0  0  0  0  0  0  0  0  0
    6.5987   -0.0148   19.8783 C   0  0  0  0  0  0  0  0  0  0  0  0
    5.3891    0.6523   20.1008 C   0  0  0  0  0  0  0  0  0  0  0  0
    4.7934    1.3271   19.0346 C   0  0  0  0  0  0  0  0  0  0  0  0
    5.4224    1.3015   17.7822 C   0  0  0  0  0  0  0  0  0  0  0  0
    6.5614    0.6373   17.5399 N   0  0  0  0  0  0  0  0  0  0  0  0
    7.1205   -0.0005   18.5817 C   0  0  0  0  0  0  0  0  0  0  0  0
  1  2  1  0
  2  3  1  0
  3  4  1  0
  4  5  1  0
  3  6  1  0
  6  7  1  1
  7  8  1  0
  8  9  2  0
  8 10  1  0
 10 11  2  0
 11 12  1  0
 12 13  1  0
 13 14  2  0
 14 15  1  0
 15 16  2  0
 16 17  1  0
 16 18  1  0
 18 19  2  0
 12 20  2  0
 20 21  1  0
  6 22  1  0
 22 23  2  0
 23 24  1  0
 24 25  2  0
 25 26  1  0
 26 27  2  0
 21 10  1  0
 27 22  1  0
 19 13  1  0
M  END
>  <plip>  (15) 
-0.2413793103448276

>  <filename>  (15) 
[H][c]1[n][c]([H])[c]([C]([H])([N]([H])[C](=[O])[c]2[c]([H])[c](-[c]3[c]([H])[c]([H])[c]([Cl])[c]([H])[c]3[H])[c]([H])[n]2[H])[C]([H])([O][C]([H])([H])[H])[O][C]([H])([H])[H])[c]([H])[c]1[H]

>  <ID>  (15) 


$$$$

     RDKit          3D

 27 29  0  0  0  0  0  0  0  0999 V2000
   10.1653    1.6313   21.7077 C   0  0  0  0  0  0  0  0  0  0  0  0
    9.2308    0.7850   21.0634 O   0  0  0  0  0  0  0  0  0  0  0  0
    8.2468    0.2285   21.8850 C   0  0  0  0  0  0  0  0  0  0  0  0
    7.4444    1.2209   22.4942 O   0  0  0  0  0  0  0  0  0  0  0  0
    7.5142    1.3500   23.9014 C   0  0  0  0  0  0  0  0  0  0  0  0
    7.4059   -0.7209   20.9740 C   0  0  1  0  0  0  0  0  0  0  0  0
    6.5917   -1.6229   21.7950 N   0  0  0  0  0  0  0  0  0  0  0  0
    5.9253   -2.6903   21.2199 C   0  0  0  0  0  0  0  0  0  0  0  0
    6.0391   -2.9930   20.0491 O   0  0  0  0  0  0  0  0  0  0  0  0
    5.0616   -3.5001   22.1814 C   0  0  0  0  0  0  0  0  0  0  0  0
    5.7786   -4.6701   22.9094 C   0  0  1  0  0  0  0  0  0  0  0  0
    6.8901   -4.1313   23.8210 C   0  0  0  0  0  0  0  0  0  0  0  0
    7.5197   -5.2533   24.6399 C   0  0  0  0  0  0  0  0  0  0  0  0
    6.4871   -5.9837   25.4753 C   0  0  0  0  0  0  0  0  0  0  0  0
    6.8290   -6.5307   26.7168 C   0  0  0  0  0  0  0  0  0  0  0  0
    5.8970   -7.2528   27.4635 C   0  0  0  0  0  0  0  0  0  0  0  0
    4.6026   -7.4494   26.9689 C   0  0  0  0  0  0  0  0  0  0  0  0
    4.2451   -6.9252   25.7310 C   0  0  0  0  0  0  0  0  0  0  0  0
    5.1761   -6.1703   24.9888 C   0  0  0  0  0  0  0  0  0  0  0  0
    4.7617   -5.5631   23.6766 C   0  0  0  0  0  0  0  0  0  0  0  0
    3.6691   -5.7915   23.1895 O   0  0  0  0  0  0  0  0  0  0  0  0
    6.5956   -0.0201   19.8855 C   0  0  0  0  0  0  0  0  0  0  0  0
    5.3862    0.6528   20.1162 C   0  0  0  0  0  0  0  0  0  0  0  0
    4.7797    1.3151   19.0473 C   0  0  0  0  0  0  0  0  0  0  0  0
    5.3962    1.2916   17.7898 C   0  0  0  0  0  0  0  0  0  0  0  0
    6.5415    0.6428   17.5421 N   0  0  0  0  0  0  0  0  0  0  0  0
    7.1070    0.0061   18.5789 C   0  0  0  0  0  0  0  0  0  0  0  0
  1  2  1  0
  2  3  1  0
  3  4  1  0
  4  5  1  0
  3  6  1  0
  6  7  1  1
  7  8  1  0
  8  9  2  0
  8 10  1  0
 11 10  1  1
 11 12  1  0
 12 13  1  0
 13 14  1  0
 14 15  2  0
 15 16  1  0
 16 17  2  0
 17 18  1  0
 18 19  2  0
 19 20  1  0
 20 21  2  0
  6 22  1  0
 22 23  2  0
 23 24  1  0
 24 25  2  0
 25 26  1  0
 26 27  2  0
 20 11  1  0
 27 22  1  0
 19 14  1  0
M  END
>  <plip>  (16) 
-0.2413793103448276

>  <filename>  (16) 
[H][c]1[n][c]([H])[c]([C]([H])([N]([H])[C](=[O])[C]([H])([H])[C]2([H])[C](=[O])[c]3[c]([H])[c]([H])[c]([H])[c]([H])[c]3[C]([H])([H])[C]2([H])[H])[C]([H])([O][C]([H])([H])[H])[O][C]([H])([H])[H])[c]([H])[c]1[H]

>  <ID>  (16) 


$$$$

     RDKit          3D

 25 27  0  0  0  0  0  0  0  0999 V2000
    5.8813   -3.0764   19.9567 O   0  0  0  0  0  0  0  0  0  0  0  0
    5.8782   -2.8497   21.1525 C   0  0  0  0  0  0  0  0  0  0  0  0
    5.2520   -3.8193   22.1513 C   0  0  0  0  0  0  0  0  0  0  0  0
    6.2502   -4.7027   22.9543 C   0  0  0  0  0  0  0  0  0  0  0  0
    7.1980   -3.8636   23.7915 C   0  0  0  0  0  0  0  0  0  0  0  0
    8.5219   -3.6650   23.3666 C   0  0  0  0  0  0  0  0  0  0  0  0
    9.3314   -2.7109   23.9730 C   0  0  0  0  0  0  0  0  0  0  0  0
    8.8313   -1.9552   25.0435 C   0  0  0  0  0  0  0  0  0  0  0  0
    9.6960   -1.0461   25.5847 O   0  0  0  0  0  0  0  0  0  0  0  0
    9.1681   -0.0616   26.4732 C   0  0  0  0  0  0  0  0  0  0  0  0
    8.1560   -0.6557   27.4497 C   0  0  0  0  0  0  0  0  0  0  0  0
    7.0002   -1.2598   26.6399 C   0  0  0  0  0  0  0  0  0  0  0  0
    7.5261   -2.1602   25.5305 C   0  0  0  0  0  0  0  0  0  0  0  0
    6.7387   -3.1402   24.9066 C   0  0  0  0  0  0  0  0  0  0  0  0
    6.4004   -1.7059   21.7081 N   0  0  0  0  0  0  0  0  0  0  0  0
    7.2424   -0.7817   20.9588 C   0  0  2  0  0  0  0  0  0  0  0  0
    8.1345    0.6759   21.8304 C   0  0  0  0  0  0  0  0  0  0  0  0
    7.5169    1.2302   22.7259 O   0  0  0  0  0  0  0  0  0  0  0  0
    9.2185    0.7967   21.2630 O   0  0  0  0  0  1  0  0  0  0  0  0
    6.5057   -0.1381   19.8168 C   0  0  0  0  0  0  0  0  0  0  0  0
    5.3970    0.6872   20.0400 C   0  0  0  0  0  0  0  0  0  0  0  0
    4.8626    1.3812   18.9489 C   0  0  0  0  0  0  0  0  0  0  0  0
    5.4635    1.2391   17.6930 C   0  0  0  0  0  0  0  0  0  0  0  0
    6.5251    0.4527   17.4590 N   0  0  0  0  0  0  0  0  0  0  0  0
    7.0153   -0.2169   18.5145 C   0  0  0  0  0  0  0  0  0  0  0  0
  1  2  2  0
  2  3  1  0
  3  4  1  0
  4  5  1  0
  5  6  2  0
  6  7  1  0
  7  8  2  0
  8  9  1  0
  9 10  1  0
 10 11  1  0
 11 12  1  0
 12 13  1  0
 13 14  2  0
  2 15  1  0
 16 15  1  1
 16 17  1  0
 17 18  2  0
 17 19  1  0
 16 20  1  0
 20 21  2  0
 21 22  1  0
 22 23  2  0
 23 24  1  0
 24 25  2  0
 14  5  1  0
 25 20  1  0
 13  8  1  0
M  CHG  1  19  -1
M  END
>  <plip>  (17) 
-0.2413793103448276

>  <filename>  (17) 
[H][c]1[n][c]([H])[c]([C]([H])([C](=[O])[O-])[N]([H])[C](=[O])[C]([H])([H])[C]([H])([H])[c]2[c]([H])[c]([H])[c]3[c]([c]2[H])[C]([H])([H])[C]([H])([H])[C]([H])([H])[O]3)[c]([H])[c]1[H]

>  <ID>  (17) 


$$$$

     RDKit          3D

 24 26  0  0  0  0  0  0  0  0999 V2000
   10.1348    0.7049   21.0559 C   0  0  0  0  0  0  0  0  0  0  0  0
    8.8630    1.3244   21.4831 N   0  0  0  0  0  4  0  0  0  0  0  0
    9.1405    2.3620   22.4979 C   0  0  0  0  0  0  0  0  0  0  0  0
    7.9317    0.2932   22.0301 C   0  0  0  0  0  0  0  0  0  0  0  0
    7.4165   -0.7164   20.9878 C   0  0  1  0  0  0  0  0  0  0  0  0
    6.5722   -1.7051   21.6471 N   0  0  0  0  0  0  0  0  0  0  0  0
    6.0797   -2.8317   21.0101 C   0  0  0  0  0  0  0  0  0  0  0  0
    6.2505   -2.9268   19.8038 O   0  0  0  0  0  0  0  0  0  0  0  0
    5.2510   -3.8336   21.7193 C   0  0  0  0  0  0  0  0  0  0  0  0
    4.9660   -5.1145   21.2982 C   0  0  0  0  0  0  0  0  0  0  0  0
    5.7285   -5.8932   19.7303 Br  0  0  0  0  0  0  0  0  0  0  0  0
    4.0303   -5.6164   22.1887 N   0  0  0  0  0  0  0  0  0  0  0  0
    3.1924   -6.7427   22.1435 C   0  0  0  0  0  0  0  0  0  0  0  0
    2.3128   -6.9703   23.1858 C   0  0  0  0  0  0  0  0  0  0  0  0
    2.2719   -6.0537   24.3352 C   0  0  0  0  0  0  0  0  0  0  0  0
    3.0313   -4.9036   24.3150 C   0  0  0  0  0  0  0  0  0  0  0  0
    3.8976   -4.6557   23.1726 C   0  0  0  0  0  0  0  0  0  0  0  0
    4.6116   -3.5870   22.9298 N   0  0  0  0  0  0  0  0  0  0  0  0
    6.6347   -0.0209   19.9041 C   0  0  0  0  0  0  0  0  0  0  0  0
    5.4306    0.6423   20.1556 C   0  0  0  0  0  0  0  0  0  0  0  0
    4.8113    1.2996   19.0958 C   0  0  0  0  0  0  0  0  0  0  0  0
    5.4047    1.2900   17.8302 C   0  0  0  0  0  0  0  0  0  0  0  0
    6.5630    0.6517   17.5830 N   0  0  0  0  0  0  0  0  0  0  0  0
    7.1569    0.0075   18.6018 C   0  0  0  0  0  0  0  0  0  0  0  0
  1  2  1  0
  2  3  1  0
  2  4  1  0
  5  4  1  1
  5  6  1  0
  6  7  1  0
  7  8  2  0
  7  9  1  0
  9 10  2  0
 10 11  1  0
 10 12  1  0
 12 13  1  0
 13 14  2  0
 14 15  1  0
 15 16  2  0
 16 17  1  0
 17 18  2  0
  5 19  1  0
 19 20  2  0
 20 21  1  0
 21 22  2  0
 22 23  1  0
 23 24  2  0
 18  9  1  0
 24 19  1  0
 17 12  1  0
M  CHG  1   2   1
M  END
>  <plip>  (18) 
-0.2413793103448276

>  <filename>  (18) 
[H][c]1[n][c]([H])[c]([C]([H])([N]([H])[C](=[O])[c]2[n][c]3[c]([H])[c]([H])[c]([H])[c]([H])[n]3[c]2[Br])[C]([H])([H])[N+]([H])([C]([H])([H])[H])[C]([H])([H])[H])[c]([H])[c]1[H]

>  <ID>  (18) 


$$$$

     RDKit          3D

 28 30  0  0  0  0  0  0  0  0999 V2000
    8.5201    2.3787   21.2412 C   0  0  0  0  0  0  0  0  0  0  0  0
    8.9031    1.0298   21.3888 O   0  0  0  0  0  0  0  0  0  0  0  0
    7.9757    0.2340   22.0950 C   0  0  0  0  0  0  0  0  0  0  0  0
    8.6487   -0.4585   23.0983 O   0  0  0  0  0  0  0  0  0  0  0  0
    9.1700    0.3811   24.1161 C   0  0  0  0  0  0  0  0  0  0  0  0
    7.3064   -0.7642   21.1033 C   0  0  1  0  0  0  0  0  0  0  0  0
    6.3919   -1.7079   21.7559 N   0  0  0  0  0  0  0  0  0  0  0  0
    5.9609   -2.8329   21.1107 C   0  0  0  0  0  0  0  0  0  0  0  0
    6.2261   -3.0677   19.9420 O   0  0  0  0  0  0  0  0  0  0  0  0
    5.1490   -3.8258   21.8882 C   0  0  0  0  0  0  0  0  0  0  0  0
    4.8199   -5.1207   21.5959 C   0  0  0  0  0  0  0  0  0  0  0  0
    3.9799   -5.5777   22.6511 C   0  0  0  0  0  0  0  0  0  0  0  0
    3.8598   -4.5339   23.5216 C   0  0  0  0  0  0  0  0  0  0  0  0
    3.0703   -4.3824   25.0766 S   0  0  0  0  0  0  0  0  0  0  0  0
    4.4541   -4.9583   26.0572 C   0  0  0  0  0  0  0  0  0  0  0  0
    4.5524   -6.3234   26.3570 C   0  0  0  0  0  0  0  0  0  0  0  0
    5.6277   -6.8123   27.1100 C   0  0  0  0  0  0  0  0  0  0  0  0
    6.5818   -5.9105   27.5917 C   0  0  0  0  0  0  0  0  0  0  0  0
    7.8970   -6.4729   28.5826 Cl  0  0  0  0  0  0  0  0  0  0  0  0
    6.5120   -4.5479   27.2846 C   0  0  0  0  0  0  0  0  0  0  0  0
    5.4556   -4.0810   26.4944 C   0  0  0  0  0  0  0  0  0  0  0  0
    4.5816   -3.4787   23.0887 O   0  0  0  0  0  0  0  0  0  0  0  0
    6.5993   -0.0468   19.9576 C   0  0  0  0  0  0  0  0  0  0  0  0
    5.3956    0.6469   20.1413 C   0  0  0  0  0  0  0  0  0  0  0  0
    4.8394    1.3380   19.0634 C   0  0  0  0  0  0  0  0  0  0  0  0
    5.4995    1.2960   17.8282 C   0  0  0  0  0  0  0  0  0  0  0  0
    6.6369    0.6190   17.6188 N   0  0  0  0  0  0  0  0  0  0  0  0
    7.1556   -0.0370   18.6709 C   0  0  0  0  0  0  0  0  0  0  0  0
  1  2  1  0
  2  3  1  0
  3  4  1  0
  4  5  1  0
  3  6  1  0
  6  7  1  1
  7  8  1  0
  8  9  2  0
  8 10  1  0
 10 11  2  0
 11 12  1  0
 12 13  2  0
 13 14  1  0
 14 15  1  0
 15 16  2  0
 16 17  1  0
 17 18  2  0
 18 19  1  0
 18 20  1  0
 20 21  2  0
 13 22  1  0
  6 23  1  0
 23 24  2  0
 24 25  1  0
 25 26  2  0
 26 27  1  0
 27 28  2  0
 22 10  1  0
 28 23  1  0
 21 15  1  0
M  END
>  <plip>  (19) 
-0.2413793103448276

>  <filename>  (19) 
[H][c]1[n][c]([H])[c]([C]([H])([N]([H])[C](=[O])[c]2[o][c]([S][c]3[c]([H])[c]([H])[c]([Cl])[c]([H])[c]3[H])[c]([H])[c]2[H])[C]([H])([O][C]([H])([H])[H])[O][C]([H])([H])[H])[c]([H])[c]1[H]

>  <ID>  (19) 


$$$$

     RDKit          3D

 25 27  0  0  0  0  0  0  0  0999 V2000
    6.0408   -3.0290   19.9476 O   0  0  0  0  0  0  0  0  0  0  0  0
    5.9544   -2.7595   21.1322 C   0  0  0  0  0  0  0  0  0  0  0  0
    5.1961   -3.6410   22.1105 C   0  0  0  0  0  0  0  0  0  0  0  0
    6.1114   -4.6506   22.8354 C   0  0  1  0  0  0  0  0  0  0  0  0
    7.0100   -3.8524   23.6370 O   0  0  0  0  0  0  0  0  0  0  0  0
    7.5661   -4.4226   24.7575 C   0  0  0  0  0  0  0  0  0  0  0  0
    8.7509   -3.8898   25.2656 C   0  0  0  0  0  0  0  0  0  0  0  0
    9.2781   -4.4023   26.4582 C   0  0  0  0  0  0  0  0  0  0  0  0
    8.6278   -5.4383   27.1379 C   0  0  0  0  0  0  0  0  0  0  0  0
    7.4533   -5.9907   26.6187 C   0  0  0  0  0  0  0  0  0  0  0  0
    6.9278   -5.4962   25.4246 C   0  0  0  0  0  0  0  0  0  0  0  0
    5.7736   -6.0502   24.8556 N   0  0  0  0  0  0  0  0  0  0  0  0
    5.3079   -5.7453   23.6202 C   0  0  0  0  0  0  0  0  0  0  0  0
    4.3576   -6.3410   23.1466 O   0  0  0  0  0  0  0  0  0  0  0  0
    6.5408   -1.6837   21.7093 N   0  0  0  0  0  0  0  0  0  0  0  0
    7.3824   -0.7495   20.9965 C   0  0  2  0  0  0  0  0  0  0  0  0
    7.9810    0.2359   22.0106 C   0  0  0  0  0  0  0  0  0  0  0  0
    8.8624   -0.3950   23.0865 C   0  0  0  0  0  0  0  0  0  0  0  0
    9.9240   -1.1549   22.5447 O   0  0  0  0  0  0  0  0  0  0  0  0
    6.6012   -0.0458   19.8970 C   0  0  0  0  0  0  0  0  0  0  0  0
    5.3780    0.6145   20.0991 C   0  0  0  0  0  0  0  0  0  0  0  0
    4.8098    1.3088   19.0283 C   0  0  0  0  0  0  0  0  0  0  0  0
    5.4675    1.3030   17.7933 C   0  0  0  0  0  0  0  0  0  0  0  0
    6.6035    0.6298   17.5639 N   0  0  0  0  0  0  0  0  0  0  0  0
    7.1309   -0.0318   18.6039 C   0  0  0  0  0  0  0  0  0  0  0  0
  1  2  2  0
  2  3  1  0
  4  3  1  1
  4  5  1  0
  5  6  1  0
  6  7  2  0
  7  8  1  0
  8  9  2  0
  9 10  1  0
 10 11  2  0
 11 12  1  0
 12 13  1  0
 13 14  2  0
  2 15  1  0
 15 16  1  0
 16 17  1  1
 17 18  1  0
 18 19  1  0
 16 20  1  0
 20 21  2  0
 21 22  1  0
 22 23  2  0
 23 24  1  0
 24 25  2  0
 13  4  1  0
 25 20  1  0
 11  6  1  0
M  END
>  <plip>  (20) 
-0.23333333333333334

>  <filename>  (20) 
[H][O][C]([H])([H])[C]([H])([H])[C@]([H])([c]1[c]([H])[n][c]([H])[c]([H])[c]1[H])[N]([H])[C](=[O])[C]([H])([H])[C]1([H])[O][c]2[c]([H])[c]([H])[c]([H])[c]([H])[c]2[N]([H])[C]1=[O]

>  <ID>  (20) 


$$$$

     RDKit          3D

 27 29  0  0  0  0  0  0  0  0999 V2000
    8.5104    2.3254   21.2519 C   0  0  0  0  0  0  0  0  0  0  0  0
    8.9079    0.9765   21.3875 O   0  0  0  0  0  0  0  0  0  0  0  0
    7.9588    0.1747   22.0528 C   0  0  0  0  0  0  0  0  0  0  0  0
    8.5813   -0.5328   23.0832 O   0  0  0  0  0  0  0  0  0  0  0  0
    9.1056    0.3037   24.0998 C   0  0  0  0  0  0  0  0  0  0  0  0
    7.3188   -0.8308   21.0567 C   0  0  1  0  0  0  0  0  0  0  0  0
    6.3823   -1.7119   21.7564 N   0  0  0  0  0  0  0  0  0  0  0  0
    5.8649   -2.8456   21.2471 C   0  0  0  0  0  0  0  0  0  0  0  0
    6.0710   -3.2408   20.1031 O   0  0  0  0  0  0  0  0  0  0  0  0
    5.1079   -3.7069   22.2120 C   0  0  0  0  0  0  0  0  0  0  0  0
    6.0406   -4.7988   22.7608 C   0  0  1  0  0  0  0  0  0  0  0  0
    6.6327   -5.4531   21.6648 O   0  0  0  0  0  0  0  0  0  0  0  0
    7.1462   -4.2390   23.6604 C   0  0  0  0  0  0  0  0  0  0  0  0
    6.5696   -3.7421   24.9833 C   0  0  0  0  0  0  0  0  0  0  0  0
    5.8507   -4.7645   25.6763 O   0  0  0  0  0  0  0  0  0  0  0  0
    5.0817   -5.6308   24.9538 C   0  0  0  0  0  0  0  0  0  0  0  0
    4.1714   -6.4204   25.6747 C   0  0  0  0  0  0  0  0  0  0  0  0
    3.3978   -7.3728   25.0095 C   0  0  0  0  0  0  0  0  0  0  0  0
    3.5366   -7.5574   23.6267 C   0  0  0  0  0  0  0  0  0  0  0  0
    4.4406   -6.7671   22.9201 C   0  0  0  0  0  0  0  0  0  0  0  0
    5.2036   -5.7811   23.5616 C   0  0  0  0  0  0  0  0  0  0  0  0
    6.6096   -0.1228   19.9153 C   0  0  0  0  0  0  0  0  0  0  0  0
    5.4169    0.5826   20.1283 C   0  0  0  0  0  0  0  0  0  0  0  0
    4.8634    1.3017   19.0699 C   0  0  0  0  0  0  0  0  0  0  0  0
    5.5107    1.2846   17.8284 C   0  0  0  0  0  0  0  0  0  0  0  0
    6.6377    0.5980   17.5948 N   0  0  0  0  0  0  0  0  0  0  0  0
    7.1587   -0.0865   18.6265 C   0  0  0  0  0  0  0  0  0  0  0  0
  1  2  1  0
  2  3  1  0
  3  4  1  0
  4  5  1  0
  3  6  1  0
  6  7  1  1
  7  8  1  0
  8  9  2  0
  8 10  1  0
 10 11  1  0
 11 12  1  6
 11 13  1  0
 13 14  1  0
 14 15  1  0
 15 16  1  0
 16 17  2  0
 17 18  1  0
 18 19  2  0
 19 20  1  0
 20 21  2  0
  6 22  1  0
 22 23  2  0
 23 24  1  0
 24 25  2  0
 25 26  1  0
 26 27  2  0
 21 11  1  0
 27 22  1  0
 21 16  1  0
M  END
>  <plip>  (21) 
-0.23333333333333334

>  <filename>  (21) 
[H][O][C]1([C]([H])([H])[C](=[O])[N]([H])[C]([H])([c]2[c]([H])[n][c]([H])[c]([H])[c]2[H])[C]([H])([O][C]([H])([H])[H])[O][C]([H])([H])[H])[c]2[c]([H])[c]([H])[c]([H])[c]([H])[c]2[O][C]([H])([H])[C]1([H])[H]

>  <ID>  (21) 


$$$$

     RDKit          3D

 27 29  0  0  0  0  0  0  0  0999 V2000
    5.5327   -2.6032   19.4348 O   0  0  0  0  0  0  0  0  0  0  0  0
    5.8176   -2.7167   20.6121 C   0  0  0  0  0  0  0  0  0  0  0  0
    5.5265   -4.0244   21.3075 C   0  0  0  0  0  0  0  0  0  0  0  0
    5.6565   -4.3803   22.6016 C   0  0  0  0  0  0  0  0  0  0  0  0
    6.6841   -3.8812   23.5740 C   0  0  0  0  0  0  0  0  0  0  0  0
    7.8213   -3.6580   23.1861 O   0  0  0  0  0  0  0  0  0  0  0  0
    6.2798   -3.5968   24.9892 C   0  0  0  0  0  0  0  0  0  0  0  0
    4.9392   -3.4831   25.4034 C   0  0  0  0  0  0  0  0  0  0  0  0
    4.6600   -3.1845   26.7399 C   0  0  0  0  0  0  0  0  0  0  0  0
    3.0057   -3.0473   27.2555 Cl  0  0  0  0  0  0  0  0  0  0  0  0
    5.6874   -2.9675   27.6650 C   0  0  0  0  0  0  0  0  0  0  0  0
    7.0189   -3.0393   27.2269 C   0  0  0  0  0  0  0  0  0  0  0  0
    7.3144   -3.3617   25.9102 C   0  0  0  0  0  0  0  0  0  0  0  0
    6.3600   -1.7374   21.3910 N   0  0  0  0  0  0  0  0  0  0  0  0
    7.2550   -0.7272   20.8608 C   0  0  2  0  0  0  0  0  0  0  0  0
    7.7704    0.1406   22.0317 C   0  0  0  0  0  0  0  0  0  0  0  0
    8.9134    1.0441   21.6664 N   0  0  0  0  0  4  0  0  0  0  0  0
    9.3021    2.0535   22.7364 C   0  0  0  0  0  0  0  0  0  0  0  0
   10.8023    2.3405   22.5321 C   0  0  0  0  0  0  0  0  0  0  0  0
   11.2402    1.4470   21.3634 C   0  0  0  0  0  0  0  0  0  0  0  0
   10.2090    0.3327   21.3310 C   0  0  0  0  0  0  0  0  0  0  0  0
    6.5530    0.0686   19.7820 C   0  0  0  0  0  0  0  0  0  0  0  0
    5.3603    0.7752   19.9962 C   0  0  0  0  0  0  0  0  0  0  0  0
    4.8078    1.4808   18.9225 C   0  0  0  0  0  0  0  0  0  0  0  0
    5.4491    1.4361   17.6792 C   0  0  0  0  0  0  0  0  0  0  0  0
    6.5729    0.7392   17.4494 N   0  0  0  0  0  0  0  0  0  0  0  0
    7.0879    0.0748   18.4903 C   0  0  0  0  0  0  0  0  0  0  0  0
  1  2  2  0
  2  3  1  0
  3  4  2  3
  4  5  1  0
  5  6  2  0
  5  7  1  0
  7  8  2  0
  8  9  1  0
  9 10  1  0
  9 11  2  0
 11 12  1  0
 12 13  2  0
  2 14  1  0
 14 15  1  0
 15 16  1  1
 16 17  1  0
 17 18  1  0
 18 19  1  0
 19 20  1  0
 20 21  1  0
 15 22  1  0
 22 23  2  0
 23 24  1  0
 24 25  2  0
 25 26  1  0
 26 27  2  0
 13  7  1  0
 21 17  1  0
 27 22  1  0
M  CHG  1  17   1
M  END
>  <plip>  (22) 
-0.23333333333333334

>  <filename>  (22) 
[H][C]([C](=[O])[c]1[c]([H])[c]([H])[c]([H])[c]([Cl])[c]1[H])=[C]([H])[C](=[O])[N]([H])[C]([H])([c]1[c]([H])[n][c]([H])[c]([H])[c]1[H])[C]([H])([H])[N+]1([H])[C]([H])([H])[C]([H])([H])[C]([H])([H])[C]1([H])[H]

>  <ID>  (22) 


$$$$

     RDKit          3D

 25 27  0  0  0  0  0  0  0  0999 V2000
    6.1040   -3.1185   19.9820 O   0  0  0  0  0  0  0  0  0  0  0  0
    5.9238   -2.7942   21.1380 C   0  0  0  0  0  0  0  0  0  0  0  0
    5.0617   -3.6080   22.0846 C   0  0  0  0  0  0  0  0  0  0  0  0
    5.8347   -4.4758   23.1017 C   0  0  0  0  0  0  0  0  0  0  0  0
    4.8685   -5.2828   23.9435 C   0  0  0  0  0  0  0  0  0  0  0  0
    4.4201   -6.5428   23.5146 C   0  0  0  0  0  0  0  0  0  0  0  0
    3.4888   -7.2633   24.2625 C   0  0  0  0  0  0  0  0  0  0  0  0
    2.9748   -6.7452   25.4588 C   0  0  0  0  0  0  0  0  0  0  0  0
    1.9580   -7.5185   26.2789 C   0  0  0  0  0  0  0  0  0  0  0  0
    1.7990   -6.9423   27.6880 C   0  0  0  0  0  0  0  0  0  0  0  0
    1.6721   -5.5326   27.6384 O   0  0  0  0  0  0  0  0  0  0  0  0
    2.8588   -4.8997   27.1886 C   0  0  0  0  0  0  0  0  0  0  0  0
    3.3917   -5.4660   25.8806 C   0  0  0  0  0  0  0  0  0  0  0  0
    4.3269   -4.7507   25.1209 C   0  0  0  0  0  0  0  0  0  0  0  0
    6.4951   -1.6879   21.7311 N   0  0  0  0  0  0  0  0  0  0  0  0
    7.3494   -0.7345   21.0196 C   0  0  2  0  0  0  0  0  0  0  0  0
    8.2524    0.5413   22.0641 C   0  0  0  0  0  0  0  0  0  0  0  0
    9.4213    0.5609   21.7050 O   0  0  0  0  0  0  0  0  0  0  0  0
    7.5650    1.1572   22.8689 O   0  0  0  0  0  1  0  0  0  0  0  0
    6.6174   -0.0338   19.8869 C   0  0  0  0  0  0  0  0  0  0  0  0
    5.4198    0.6567   20.1186 C   0  0  0  0  0  0  0  0  0  0  0  0
    4.8001    1.3155   19.0551 C   0  0  0  0  0  0  0  0  0  0  0  0
    5.4078    1.2820   17.7966 C   0  0  0  0  0  0  0  0  0  0  0  0
    6.5549    0.6320   17.5452 N   0  0  0  0  0  0  0  0  0  0  0  0
    7.1304   -0.0089   18.5746 C   0  0  0  0  0  0  0  0  0  0  0  0
  1  2  2  0
  2  3  1  0
  3  4  1  0
  4  5  1  0
  5  6  2  0
  6  7  1  0
  7  8  2  0
  8  9  1  0
  9 10  1  0
 10 11  1  0
 11 12  1  0
 12 13  1  0
 13 14  2  0
  2 15  1  0
 16 15  1  1
 16 17  1  0
 17 18  2  0
 17 19  1  0
 16 20  1  0
 20 21  2  0
 21 22  1  0
 22 23  2  0
 23 24  1  0
 24 25  2  0
 14  5  1  0
 25 20  1  0
 13  8  1  0
M  CHG  1  19  -1
M  END
>  <plip>  (23) 
-0.23333333333333334

>  <filename>  (23) 
[H][c]1[n][c]([H])[c]([C]([H])([C](=[O])[O-])[N]([H])[C](=[O])[C]([H])([H])[C]([H])([H])[c]2[c]([H])[c]([H])[c]3[c]([c]2[H])[C]([H])([H])[O][C]([H])([H])[C]3([H])[H])[c]([H])[c]1[H]

>  <ID>  (23) 


$$$$

     RDKit          3D

 26 28  0  0  0  0  0  0  0  0999 V2000
    9.1127    0.3719   24.1055 C   0  0  0  0  0  0  0  0  0  0  0  0
    8.6110   -0.4727   23.0746 O   0  0  0  0  0  0  0  0  0  0  0  0
    7.9825    0.2364   22.0465 C   0  0  0  0  0  0  0  0  0  0  0  0
    8.9365    1.0284   21.3772 O   0  0  0  0  0  0  0  0  0  0  0  0
    8.5577    2.3800   21.2302 C   0  0  0  0  0  0  0  0  0  0  0  0
    7.3364   -0.7320   21.0073 C   0  0  1  0  0  0  0  0  0  0  0  0
    6.3729   -1.6329   21.6226 N   0  0  0  0  0  0  0  0  0  0  0  0
    5.8239   -2.7104   20.9978 C   0  0  0  0  0  0  0  0  0  0  0  0
    5.8586   -2.8975   19.7990 O   0  0  0  0  0  0  0  0  0  0  0  0
    5.1270   -3.6361   21.9839 C   0  0  0  0  0  0  0  0  0  0  0  0
    6.0707   -4.1031   23.0360 C   0  0  0  0  0  0  0  0  0  0  0  0
    6.1536   -3.7171   24.3493 C   0  0  0  0  0  0  0  0  0  0  0  0
    7.1836   -4.4471   24.8882 N   0  0  0  0  0  0  0  0  0  0  0  0
    7.6766   -4.5197   26.1779 C   0  0  0  0  0  0  0  0  0  0  0  0
    8.7145   -5.3656   26.4174 C   0  0  0  0  0  0  0  0  0  0  0  0
    9.2136   -5.4700   27.6603 F   0  0  0  0  0  0  0  0  0  0  0  0
    9.2920   -6.1634   25.3858 C   0  0  0  0  0  0  0  0  0  0  0  0
    8.7718   -6.1012   24.1179 C   0  0  0  0  0  0  0  0  0  0  0  0
    7.6902   -5.2223   23.8425 C   0  0  0  0  0  0  0  0  0  0  0  0
    7.0336   -5.0076   22.7139 N   0  0  0  0  0  0  0  0  0  0  0  0
    6.6324    0.0049   19.8815 C   0  0  0  0  0  0  0  0  0  0  0  0
    5.4226    0.6807   20.0972 C   0  0  0  0  0  0  0  0  0  0  0  0
    4.8281    1.3579   19.0345 C   0  0  0  0  0  0  0  0  0  0  0  0
    5.4626    1.3252   17.7859 C   0  0  0  0  0  0  0  0  0  0  0  0
    6.6059    0.6673   17.5470 N   0  0  0  0  0  0  0  0  0  0  0  0
    7.1594    0.0196   18.5872 C   0  0  0  0  0  0  0  0  0  0  0  0
  1  2  1  0
  2  3  1  0
  3  4  1  0
  4  5  1  0
  3  6  1  0
  6  7  1  1
  7  8  1  0
  8  9  2  0
  8 10  1  0
 10 11  1  0
 11 12  2  0
 12 13  1  0
 13 14  1  0
 14 15  2  0
 15 16  1  0
 15 17  1  0
 17 18  2  0
 18 19  1  0
 19 20  2  0
  6 21  1  0
 21 22  2  0
 22 23  1  0
 23 24  2  0
 24 25  1  0
 25 26  2  0
 20 11  1  0
 26 21  1  0
 19 13  1  0
M  END
>  <plip>  (24) 
-0.23333333333333334

>  <filename>  (24) 
[H][c]1[n][c]([H])[c]([C]([H])([N]([H])[C](=[O])[C]([H])([H])[c]2[n][c]3[c]([H])[c]([H])[c]([F])[c]([H])[n]3[c]2[H])[C]([H])([O][C]([H])([H])[H])[O][C]([H])([H])[H])[c]([H])[c]1[H]

>  <ID>  (24) 


$$$$

     RDKit          3D

 17 18  0  0  0  0  0  0  0  0999 V2000
    5.2739   -2.6406   19.1941 O   0  0  0  0  0  0  0  0  0  0  0  0
    5.7998   -3.2814   20.2360 C   0  0  0  0  0  0  0  0  0  0  0  0
    6.2190   -4.4017   20.0799 O   0  0  0  0  0  0  0  0  0  0  0  0
    5.7295   -2.5317   21.5382 C   0  0  2  0  0  0  0  0  0  0  0  0
    7.0633   -1.8812   21.6506 C   0  0  0  0  0  0  0  0  0  0  0  0
    8.0033   -2.2433   22.4551 N   0  0  0  0  0  0  0  0  0  0  0  0
    9.0120   -1.3496   22.2152 N   0  0  0  0  0  0  0  0  0  0  0  0
    8.7309   -0.4113   21.2712 C   0  0  0  0  0  0  0  0  0  0  0  0
    9.4391    0.5005   20.8951 O   0  0  0  0  0  0  0  0  0  0  0  0
    7.4327   -0.7939   20.8521 N   0  0  0  0  0  0  0  0  0  0  0  0
    6.6900   -0.0974   19.8234 C   0  0  0  0  0  0  0  0  0  0  0  0
    7.1613   -0.0089   18.4919 C   0  0  0  0  0  0  0  0  0  0  0  0
    6.5275    0.6444   17.5073 N   0  0  0  0  0  0  0  0  0  0  0  0
    5.3868    1.2833   17.8110 C   0  0  0  0  0  0  0  0  0  0  0  0
    4.8409    1.2676   19.0937 C   0  0  0  0  0  0  0  0  0  0  0  0
    5.4968    0.5692   20.1177 C   0  0  0  0  0  0  0  0  0  0  0  0
    5.2817   -3.4342   22.7044 C   0  0  0  0  0  0  0  0  0  0  0  0
  1  2  1  0
  2  3  2  0
  2  4  1  0
  4  5  1  0
  5  6  2  0
  6  7  1  0
  7  8  1  0
  8  9  2  0
  8 10  1  0
 10 11  1  0
 11 12  2  0
 12 13  1  0
 13 14  2  0
 14 15  1  0
 15 16  2  0
  4 17  1  1
 10  5  1  0
 16 11  1  0
M  END
>  <plip>  (25) 
-0.23333333333333334

>  <filename>  (25) 
[H][O][C](=[O])[C@]([H])([c]1[n][n]([H])[c](=[O])[n]1-[c]1[c]([H])[n][c]([H])[c]([H])[c]1[H])[C]([H])([H])[H]

>  <ID>  (25) 


$$$$

     RDKit          3D

 26 28  0  0  0  0  0  0  0  0999 V2000
    6.0656   -2.9492   19.8529 O   0  0  0  0  0  0  0  0  0  0  0  0
    6.0203   -2.7874   21.0606 C   0  0  0  0  0  0  0  0  0  0  0  0
    5.3230   -3.7956   21.9759 C   0  0  0  0  0  0  0  0  0  0  0  0
    6.1966   -4.9786   22.5201 C   0  0  1  0  0  0  0  0  0  0  0  0
    7.5296   -4.3038   23.5824 S   0  0  0  0  0  0  0  0  0  0  0  0
    6.4566   -3.6860   24.8585 C   0  0  0  0  0  0  0  0  0  0  0  0
    6.6598   -2.4328   25.4483 C   0  0  0  0  0  0  0  0  0  0  0  0
    5.8056   -1.9683   26.4535 C   0  0  0  0  0  0  0  0  0  0  0  0
    4.7335   -2.7626   26.8770 C   0  0  0  0  0  0  0  0  0  0  0  0
    4.5030   -4.0006   26.2746 C   0  0  0  0  0  0  0  0  0  0  0  0
    5.3387   -4.4580   25.2500 C   0  0  0  0  0  0  0  0  0  0  0  0
    5.0129   -5.6436   24.5863 N   0  0  0  0  0  0  0  0  0  0  0  0
    5.3505   -6.0003   23.3117 C   0  0  0  0  0  0  0  0  0  0  0  0
    4.9432   -7.0376   22.8363 O   0  0  0  0  0  0  0  0  0  0  0  0
    6.5517   -1.7066   21.6804 N   0  0  0  0  0  0  0  0  0  0  0  0
    7.3837   -0.7371   20.9889 C   0  0  2  0  0  0  0  0  0  0  0  0
    7.9869    0.2416   22.0189 C   0  0  0  0  0  0  0  0  0  0  0  0
    9.0403    1.1991   21.4325 C   0  0  0  0  0  0  0  0  0  0  0  0
    9.6603    2.1522   22.4566 C   0  0  0  0  0  0  0  0  0  0  0  0
   10.6792    2.9512   21.8836 O   0  0  0  0  0  0  0  0  0  0  0  0
    6.6025   -0.0377   19.8841 C   0  0  0  0  0  0  0  0  0  0  0  0
    5.3921    0.6361   20.1143 C   0  0  0  0  0  0  0  0  0  0  0  0
    4.7934    1.3191   19.0513 C   0  0  0  0  0  0  0  0  0  0  0  0
    5.4184    1.3073   17.7982 C   0  0  0  0  0  0  0  0  0  0  0  0
    6.5622    0.6538   17.5488 N   0  0  0  0  0  0  0  0  0  0  0  0
    7.1161   -0.0008   18.5807 C   0  0  0  0  0  0  0  0  0  0  0  0
  1  2  2  0
  2  3  1  0
  4  3  1  1
  4  5  1  0
  5  6  1  0
  6  7  2  0
  7  8  1  0
  8  9  2  0
  9 10  1  0
 10 11  2  0
 11 12  1  0
 12 13  1  0
 13 14  2  0
  2 15  1  0
 15 16  1  0
 16 17  1  1
 17 18  1  0
 18 19  1  0
 19 20  1  0
 16 21  1  0
 21 22  2  0
 22 23  1  0
 23 24  2  0
 24 25  1  0
 25 26  2  0
 13  4  1  0
 26 21  1  0
 11  6  1  0
M  END
>  <plip>  (26) 
-0.23333333333333334

>  <filename>  (26) 
[H][O][C]([H])([H])[C]([H])([H])[C]([H])([H])[C]([H])([c]1[c]([H])[n][c]([H])[c]([H])[c]1[H])[N]([H])[C](=[O])[C]([H])([H])[C]1([H])[S][c]2[c]([H])[c]([H])[c]([H])[c]([H])[c]2[N]([H])[C]1=[O]

>  <ID>  (26) 


$$$$

     RDKit          3D

 27 30  0  0  0  0  0  0  0  0999 V2000
    7.5576    1.3469   23.8643 C   0  0  0  0  0  0  0  0  0  0  0  0
    7.4072    1.1609   22.4727 O   0  0  0  0  0  0  0  0  0  0  0  0
    8.2342    0.1997   21.8526 C   0  0  0  0  0  0  0  0  0  0  0  0
    9.2080    0.7833   21.0416 O   0  0  0  0  0  0  0  0  0  0  0  0
   10.1296    1.6447   21.6868 C   0  0  0  0  0  0  0  0  0  0  0  0
    7.3796   -0.7396   20.9505 C   0  0  1  0  0  0  0  0  0  0  0  0
    6.5386   -1.5798   21.7952 N   0  0  0  0  0  0  0  0  0  0  0  0
    5.9364   -2.7276   21.3720 C   0  0  0  0  0  0  0  0  0  0  0  0
    6.0298   -3.1621   20.2369 O   0  0  0  0  0  0  0  0  0  0  0  0
    5.1139   -3.3958   22.4379 C   0  0  2  0  0  0  0  0  0  0  0  0
    5.4897   -3.4622   23.8892 C   0  0  0  0  0  0  0  0  0  0  0  0
    5.5258   -4.7254   23.0690 C   0  0  2  0  0  0  0  0  0  0  0  0
    6.8612   -5.3538   22.6113 C   0  0  0  0  0  0  0  0  0  0  0  0
    6.6685   -6.4928   21.5588 C   0  0  0  0  0  0  0  0  0  0  0  0
    5.2694   -6.4607   20.9057 C   0  0  0  0  0  0  0  0  0  0  0  0
    4.1804   -6.4712   21.9674 C   0  0  0  0  0  0  0  0  0  0  0  0
    2.9982   -7.2162   21.8451 C   0  0  0  0  0  0  0  0  0  0  0  0
    2.0694   -7.2704   22.8805 C   0  0  0  0  0  0  0  0  0  0  0  0
    2.3114   -6.5686   24.0656 C   0  0  0  0  0  0  0  0  0  0  0  0
    3.4663   -5.7937   24.1973 C   0  0  0  0  0  0  0  0  0  0  0  0
    4.3826   -5.7029   23.1324 C   0  0  0  0  0  0  0  0  0  0  0  0
    6.6025   -0.0321   19.8436 C   0  0  0  0  0  0  0  0  0  0  0  0
    5.4141    0.6712   20.0782 C   0  0  0  0  0  0  0  0  0  0  0  0
    4.8091    1.3382   19.0094 C   0  0  0  0  0  0  0  0  0  0  0  0
    5.4161    1.2895   17.7495 C   0  0  0  0  0  0  0  0  0  0  0  0
    6.5443    0.6106   17.4987 N   0  0  0  0  0  0  0  0  0  0  0  0
    7.1036   -0.0351   18.5339 C   0  0  0  0  0  0  0  0  0  0  0  0
  1  2  1  0
  2  3  1  0
  3  4  1  0
  4  5  1  0
  3  6  1  0
  6  7  1  1
  7  8  1  0
  8  9  2  0
 10  8  1  6
 10 11  1  0
 12 11  1  1
 12 13  1  0
 13 14  1  0
 14 15  1  0
 15 16  1  0
 16 17  2  0
 17 18  1  0
 18 19  2  0
 19 20  1  0
 20 21  2  0
  6 22  1  0
 22 23  2  0
 23 24  1  0
 24 25  2  0
 25 26  1  0
 26 27  2  0
 12 10  1  0
 21 16  1  0
 27 22  1  0
 21 12  1  0
M  END
>  <plip>  (27) 
-0.23333333333333334

>  <filename>  (27) 
[H][c]1[n][c]([H])[c]([C]([H])([N]([H])[C](=[O])[C@]2([H])[C]([H])([H])[C@@]23[c]2[c]([H])[c]([H])[c]([H])[c]([H])[c]2[C]([H])([H])[C]([H])([H])[C]3([H])[H])[C]([H])([O][C]([H])([H])[H])[O][C]([H])([H])[H])[c]([H])[c]1[H]

>  <ID>  (27) 


$$$$

     RDKit          3D

 27 29  0  0  0  0  0  0  0  0999 V2000
   10.7033   -4.8483   25.4942 C   0  0  0  0  0  0  0  0  0  0  0  0
    9.8006   -5.0103   24.7133 C   0  0  0  0  0  0  0  0  0  0  0  0
    8.7506   -5.2712   23.7665 C   0  0  0  0  0  0  0  0  0  0  0  0
    8.6413   -6.5328   23.1557 C   0  0  0  0  0  0  0  0  0  0  0  0
    7.5628   -6.7690   22.3116 C   0  0  0  0  0  0  0  0  0  0  0  0
    6.6541   -5.8343   21.9942 N   0  0  0  0  0  0  0  0  0  0  0  0
    6.7815   -4.6369   22.5605 C   0  0  0  0  0  0  0  0  0  0  0  0
    5.8075   -3.6742   22.2051 N   0  0  0  0  0  0  0  0  0  0  0  0
    4.4178   -4.1327   22.3408 C   0  0  0  0  0  0  0  0  0  0  0  0
    4.0437   -4.3507   23.7931 C   0  0  0  0  0  0  0  0  0  0  0  0
    6.1271   -3.0804   20.9884 C   0  0  0  0  0  0  0  0  0  0  0  0
    5.4073   -3.0740   20.0116 O   0  0  0  0  0  0  0  0  0  0  0  0
    7.4064   -2.5024   20.9011 N   0  0  0  0  0  0  0  0  0  0  0  0
    7.5530   -1.0254   20.9715 C   0  0  2  0  0  0  0  0  0  0  0  0
    7.4343   -0.4399   22.3991 C   0  0  0  0  0  0  0  0  0  0  0  0
    8.1968    0.8367   22.5773 N   0  0  0  0  0  4  0  0  0  0  0  0
    8.4446    1.2727   23.9937 C   0  0  0  0  0  0  0  0  0  0  0  0
    9.0318    2.6796   23.8429 C   0  0  0  0  0  0  0  0  0  0  0  0
    8.4934    3.1974   22.4883 C   0  0  0  0  0  0  0  0  0  0  0  0
    7.5907    2.0822   21.9643 C   0  0  0  0  0  0  0  0  0  0  0  0
    6.7113   -0.3267   19.9132 C   0  0  0  0  0  0  0  0  0  0  0  0
    5.4739    0.2844   20.1597 C   0  0  0  0  0  0  0  0  0  0  0  0
    4.8764    1.0324   19.1423 C   0  0  0  0  0  0  0  0  0  0  0  0
    5.5063    1.1021   17.8967 C   0  0  0  0  0  0  0  0  0  0  0  0
    6.6471    0.4548   17.6142 N   0  0  0  0  0  0  0  0  0  0  0  0
    7.2128   -0.2486   18.6015 C   0  0  0  0  0  0  0  0  0  0  0  0
    7.7917   -4.3074   23.4606 C   0  0  0  0  0  0  0  0  0  0  0  0
  1  2  3  0
  2  3  1  0
  3  4  2  0
  4  5  1  0
  5  6  2  0
  6  7  1  0
  7  8  1  0
  8  9  1  0
  9 10  1  0
  8 11  1  0
 11 12  2  0
 11 13  1  0
 13 14  1  0
 14 15  1  1
 15 16  1  0
 16 17  1  0
 17 18  1  0
 18 19  1  0
 19 20  1  0
 14 21  1  0
 21 22  2  0
 22 23  1  0
 23 24  2  0
 24 25  1  0
 25 26  2  0
  7 27  2  0
 27  3  1  0
 20 16  1  0
 26 21  1  0
M  CHG  1  16   1
M  END
>  <plip>  (28) 
-0.22580645161290322

>  <filename>  (28) 
[H][C]#[C][c]1[c]([H])[c]([H])[n][c]([N]([C](=[O])[N]([H])[C]([H])([c]2[c]([H])[n][c]([H])[c]([H])[c]2[H])[C]([H])([H])[N+]2([H])[C]([H])([H])[C]([H])([H])[C]([H])([H])[C]2([H])[H])[C]([H])([H])[C]([H])([H])[H])[c]1[H]

>  <ID>  (28) 


$$$$

     RDKit          3D

 26 28  0  0  0  0  0  0  0  0999 V2000
    5.8734   -2.9424   19.8238 O   0  0  0  0  0  0  0  0  0  0  0  0
    5.8774   -2.8211   21.0343 C   0  0  0  0  0  0  0  0  0  0  0  0
    5.3442   -3.8966   21.9674 C   0  0  0  0  0  0  0  0  0  0  0  0
    6.3526   -5.0021   22.3954 C   0  0  2  0  0  0  0  0  0  0  0  0
    5.5647   -6.1190   23.1239 C   0  0  0  0  0  0  0  0  0  0  0  0
    4.6968   -6.8338   22.6860 O   0  0  0  0  0  0  0  0  0  0  0  0
    5.9778   -6.1107   24.4211 N   0  0  0  0  0  0  0  0  0  0  0  0
    7.0422   -5.2405   24.6309 C   0  0  0  0  0  0  0  0  0  0  0  0
    7.3788   -4.5905   23.4372 C   0  0  0  0  0  0  0  0  0  0  0  0
    8.4727   -3.7170   23.4104 C   0  0  0  0  0  0  0  0  0  0  0  0
    9.1654   -3.4502   24.6000 C   0  0  0  0  0  0  0  0  0  0  0  0
    8.7875   -4.0754   25.8072 C   0  0  0  0  0  0  0  0  0  0  0  0
    7.7334   -4.9751   25.8147 C   0  0  0  0  0  0  0  0  0  0  0  0
    7.3777   -5.6089   26.9498 F   0  0  0  0  0  0  0  0  0  0  0  0
    6.3164   -1.7070   21.6802 N   0  0  0  0  0  0  0  0  0  0  0  0
    7.2116   -0.7539   21.0558 C   0  0  2  0  0  0  0  0  0  0  0  0
    7.7829    0.1775   22.1440 C   0  0  0  0  0  0  0  0  0  0  0  0
    8.8852    1.1390   21.6578 C   0  0  0  0  0  0  0  0  0  0  0  0
   10.2575    0.5262   21.3962 C   0  0  0  0  0  0  0  0  0  0  0  0
   10.1390   -0.5862   20.5174 O   0  0  0  0  0  0  0  0  0  0  0  0
    6.5127   -0.0183   19.9301 C   0  0  0  0  0  0  0  0  0  0  0  0
    5.3017    0.6697   20.0961 C   0  0  0  0  0  0  0  0  0  0  0  0
    4.7672    1.3510   19.0016 C   0  0  0  0  0  0  0  0  0  0  0  0
    5.4542    1.3164   17.7823 C   0  0  0  0  0  0  0  0  0  0  0  0
    6.6078    0.6582   17.5985 N   0  0  0  0  0  0  0  0  0  0  0  0
    7.1038    0.0079   18.6618 C   0  0  0  0  0  0  0  0  0  0  0  0
  1  2  2  0
  2  3  1  0
  4  3  1  1
  4  5  1  0
  5  6  2  0
  5  7  1  0
  7  8  1  0
  8  9  2  0
  9 10  1  0
 10 11  2  0
 11 12  1  0
 12 13  2  0
 13 14  1  0
  2 15  1  0
 15 16  1  0
 16 17  1  1
 17 18  1  0
 18 19  1  0
 19 20  1  0
 16 21  1  0
 21 22  2  0
 22 23  1  0
 23 24  2  0
 24 25  1  0
 25 26  2  0
  9  4  1  0
 26 21  1  0
 13  8  1  0
M  END
>  <plip>  (29) 
-0.22580645161290322

>  <filename>  (29) 
[H][O][C]([H])([H])[C]([H])([H])[C]([H])([H])[C]([H])([c]1[c]([H])[n][c]([H])[c]([H])[c]1[H])[N]([H])[C](=[O])[C]([H])([H])[C]1([H])[C](=[O])[N]([H])[c]2[c]([F])[c]([H])[c]([H])[c]([H])[c]21

>  <ID>  (29) 


$$$$

     RDKit          3D

 28 30  0  0  0  0  0  0  0  0999 V2000
    9.1397    0.2679   24.0933 C   0  0  0  0  0  0  0  0  0  0  0  0
    8.6082   -0.4943   23.0216 O   0  0  0  0  0  0  0  0  0  0  0  0
    7.9643    0.2492   22.0317 C   0  0  0  0  0  0  0  0  0  0  0  0
    8.8892    1.1051   21.4056 O   0  0  0  0  0  0  0  0  0  0  0  0
    8.4686    2.4435   21.2543 C   0  0  0  0  0  0  0  0  0  0  0  0
    7.3877   -0.7352   20.9736 C   0  0  1  0  0  0  0  0  0  0  0  0
    6.4940   -1.7033   21.5982 N   0  0  0  0  0  0  0  0  0  0  0  0
    5.7873   -2.6313   20.9101 C   0  0  0  0  0  0  0  0  0  0  0  0
    5.6731   -2.6766   19.6999 O   0  0  0  0  0  0  0  0  0  0  0  0
    5.0197   -3.6458   21.7690 C   0  0  0  0  0  0  0  0  0  0  0  0
    5.5226   -3.7268   23.0934 O   0  0  0  0  0  0  0  0  0  0  0  0
    5.0063   -4.6116   23.9875 C   0  0  0  0  0  0  0  0  0  0  0  0
    3.7065   -5.1365   23.9258 C   0  0  0  0  0  0  0  0  0  0  0  0
    3.2576   -5.9612   24.9524 C   0  0  0  0  0  0  0  0  0  0  0  0
    4.0982   -6.2793   26.0348 C   0  0  0  0  0  0  0  0  0  0  0  0
    3.5510   -7.0708   27.1854 C   0  0  0  0  0  0  0  0  0  0  0  0
    2.3831   -7.4010   27.2440 O   0  0  0  0  0  0  0  0  0  0  0  0
    4.5128   -7.4643   28.2999 C   0  0  0  0  0  0  0  0  0  0  0  0
    5.6982   -6.5096   28.4817 C   0  0  0  0  0  0  0  0  0  0  0  0
    6.3909   -6.1940   27.1528 C   0  0  0  0  0  0  0  0  0  0  0  0
    5.4241   -5.7899   26.0617 C   0  0  0  0  0  0  0  0  0  0  0  0
    5.8537   -4.9419   25.0470 C   0  0  0  0  0  0  0  0  0  0  0  0
    6.6730   -0.0053   19.8541 C   0  0  0  0  0  0  0  0  0  0  0  0
    5.4748    0.6896   20.0622 C   0  0  0  0  0  0  0  0  0  0  0  0
    4.9111    1.3805   18.9886 C   0  0  0  0  0  0  0  0  0  0  0  0
    5.5495    1.3294   17.7434 C   0  0  0  0  0  0  0  0  0  0  0  0
    6.6905    0.6636   17.5220 N   0  0  0  0  0  0  0  0  0  0  0  0
    7.2281    0.0229   18.5719 C   0  0  0  0  0  0  0  0  0  0  0  0
  1  2  1  0
  2  3  1  0
  3  4  1  0
  4  5  1  0
  3  6  1  0
  6  7  1  1
  7  8  1  0
  8  9  2  0
  8 10  1  0
 10 11  1  0
 11 12  1  0
 12 13  2  0
 13 14  1  0
 14 15  2  0
 15 16  1  0
 16 17  2  0
 16 18  1  0
 18 19  1  0
 19 20  1  0
 20 21  1  0
 21 22  2  0
  6 23  1  0
 23 24  2  0
 24 25  1  0
 25 26  2  0
 26 27  1  0
 27 28  2  0
 22 12  1  0
 28 23  1  0
 21 15  1  0
M  END
>  <plip>  (30) 
-0.21428571428571427

>  <filename>  (30) 
[H][c]1[n][c]([H])[c]([C]([H])([N]([H])[C](=[O])[C]([H])([H])[O][c]2[c]([H])[c]([H])[c]3[c]([c]2[H])[C]([H])([H])[C]([H])([H])[C]([H])([H])[C]3=[O])[C]([H])([O][C]([H])([H])[H])[O][C]([H])([H])[H])[c]([H])[c]1[H]

>  <ID>  (30) 


$$$$

     RDKit          3D

 26 28  0  0  0  0  0  0  0  0999 V2000
    9.3679    1.2433   21.0474 O   0  0  0  0  0  0  0  0  0  0  0  0
    8.6766    1.1041   22.0439 C   0  0  0  0  0  0  0  0  0  0  0  0
    8.8494    1.9998   23.2608 C   0  0  0  0  0  0  0  0  0  0  0  0
    8.3627    3.4670   23.0571 C   0  0  1  0  0  0  0  0  0  0  0  0
    6.8168    3.5900   22.9972 C   0  0  0  0  0  0  0  0  0  0  0  0
    6.0463    3.0526   22.2365 O   0  0  0  0  0  0  0  0  0  0  0  0
    6.4293    4.4084   24.0236 N   0  0  0  0  0  0  0  0  0  0  0  0
    7.5080    4.8914   24.7629 C   0  0  0  0  0  0  0  0  0  0  0  0
    7.5127    5.7347   25.8716 C   0  0  0  0  0  0  0  0  0  0  0  0
    8.7471    6.1065   26.4215 C   0  0  0  0  0  0  0  0  0  0  0  0
    9.9313    5.6244   25.8521 C   0  0  0  0  0  0  0  0  0  0  0  0
   11.1038    6.0055   26.3911 F   0  0  0  0  0  0  0  0  0  0  0  0
    9.9338    4.7641   24.7517 C   0  0  0  0  0  0  0  0  0  0  0  0
    8.6989    4.3921   24.2151 C   0  0  0  0  0  0  0  0  0  0  0  0
    7.7340    0.1277   22.1524 N   0  0  0  0  0  0  0  0  0  0  0  0
    7.4186   -0.7139   21.0061 C   0  0  1  0  0  0  0  0  0  0  0  0
    6.6348   -1.9593   21.4251 C   0  0  0  0  0  0  0  0  0  0  0  0
    7.3972   -2.8700   22.3965 C   0  0  0  0  0  0  0  0  0  0  0  0
    6.6114   -4.0888   22.8462 C   0  0  0  0  0  0  0  0  0  0  0  0
    6.3797   -4.9211   21.7216 O   0  0  0  0  0  0  0  0  0  0  0  0
    6.6756    0.0505   19.9217 C   0  0  0  0  0  0  0  0  0  0  0  0
    5.4470    0.6836   20.1559 C   0  0  0  0  0  0  0  0  0  0  0  0
    4.8016    1.3165   19.0901 C   0  0  0  0  0  0  0  0  0  0  0  0
    5.3984    1.2873   17.8243 C   0  0  0  0  0  0  0  0  0  0  0  0
    6.5605    0.6695   17.5724 N   0  0  0  0  0  0  0  0  0  0  0  0
    7.1725    0.0800   18.6115 C   0  0  0  0  0  0  0  0  0  0  0  0
  1  2  2  0
  2  3  1  0
  4  3  1  1
  4  5  1  0
  5  6  2  0
  5  7  1  0
  7  8  1  0
  8  9  2  0
  9 10  1  0
 10 11  2  0
 11 12  1  0
 11 13  1  0
 13 14  2  0
  2 15  1  0
 15 16  1  0
 16 17  1  1
 17 18  1  0
 18 19  1  0
 19 20  1  0
 16 21  1  0
 21 22  2  0
 22 23  1  0
 23 24  2  0
 24 25  1  0
 25 26  2  0
 14  4  1  0
 26 21  1  0
 14  8  1  0
M  END
>  <plip>  (31) 
-0.21428571428571427

>  <filename>  (31) 
[H][O][C]([H])([H])[C]([H])([H])[C]([H])([H])[C]([H])([c]1[c]([H])[n][c]([H])[c]([H])[c]1[H])[N]([H])[C](=[O])[C]([H])([H])[C]1([H])[C](=[O])[N]([H])[c]2[c]([H])[c]([H])[c]([F])[c]([H])[c]21

>  <ID>  (31) 


$$$$

     RDKit          3D

 27 29  0  0  0  0  0  0  0  0999 V2000
    6.7860   -2.8701   23.7071 C   0  0  0  0  0  0  0  0  0  0  0  0
    7.4415   -2.5924   22.4841 O   0  0  0  0  0  0  0  0  0  0  0  0
    6.6850   -1.9184   21.5033 C   0  0  0  0  0  0  0  0  0  0  0  0
    6.4889   -2.7226   20.3851 O   0  0  0  0  0  0  0  0  0  0  0  0
    5.7228   -3.8910   20.5737 C   0  0  0  0  0  0  0  0  0  0  0  0
    7.4343   -0.6567   20.9864 C   0  0  2  0  0  0  0  0  0  0  0  0
    7.7617    0.2369   22.0833 N   0  0  0  0  0  0  0  0  0  0  0  0
    8.7850    1.1328   22.0540 C   0  0  0  0  0  0  0  0  0  0  0  0
    9.5411    1.2393   21.1051 O   0  0  0  0  0  0  0  0  0  0  0  0
    8.8867    1.9633   23.3092 C   0  0  0  0  0  0  0  0  0  0  0  0
    8.3031    1.7433   24.5373 C   0  0  0  0  0  0  0  0  0  0  0  0
    8.7201    2.9522   25.6777 S   0  0  0  0  0  0  0  0  0  0  0  0
    9.7265    3.7859   24.5288 C   0  0  0  0  0  0  0  0  0  0  0  0
   10.5419    4.9552   24.9126 C   0  0  0  0  0  0  0  0  0  0  0  0
   11.6395    5.3363   24.1215 C   0  0  0  0  0  0  0  0  0  0  0  0
   12.5040    6.3596   24.5166 C   0  0  0  0  0  0  0  0  0  0  0  0
   12.2652    7.0151   25.7271 C   0  0  0  0  0  0  0  0  0  0  0  0
   13.3306    8.2897   26.2390 Cl  0  0  0  0  0  0  0  0  0  0  0  0
   11.1740    6.6705   26.5298 C   0  0  0  0  0  0  0  0  0  0  0  0
   10.3066    5.6612   26.1101 C   0  0  0  0  0  0  0  0  0  0  0  0
    9.7000    3.1405   23.3260 C   0  0  0  0  0  0  0  0  0  0  0  0
    6.6947    0.0990   19.8863 C   0  0  0  0  0  0  0  0  0  0  0  0
    5.4686    0.7442   20.0984 C   0  0  0  0  0  0  0  0  0  0  0  0
    4.8323    1.3562   19.0170 C   0  0  0  0  0  0  0  0  0  0  0  0
    5.4557    1.3210   17.7641 C   0  0  0  0  0  0  0  0  0  0  0  0
    6.6288    0.7157   17.5377 N   0  0  0  0  0  0  0  0  0  0  0  0
    7.2224    0.1308   18.5895 C   0  0  0  0  0  0  0  0  0  0  0  0
  1  2  1  0
  2  3  1  0
  3  4  1  0
  4  5  1  0
  3  6  1  0
  6  7  1  1
  7  8  1  0
  8  9  2  0
  8 10  1  0
 10 11  2  0
 11 12  1  0
 12 13  1  0
 13 14  1  0
 14 15  2  0
 15 16  1  0
 16 17  2  0
 17 18  1  0
 17 19  1  0
 19 20  2  0
 13 21  2  0
  6 22  1  0
 22 23  2  0
 23 24  1  0
 24 25  2  0
 25 26  1  0
 26 27  2  0
 21 10  1  0
 27 22  1  0
 20 14  1  0
M  END
>  <plip>  (32) 
-0.21428571428571427

>  <filename>  (32) 
[H][c]1[n][c]([H])[c]([C]([H])([N]([H])[C](=[O])[c]2[c]([H])[s][c](-[c]3[c]([H])[c]([H])[c]([Cl])[c]([H])[c]3[H])[c]2[H])[C]([H])([O][C]([H])([H])[H])[O][C]([H])([H])[H])[c]([H])[c]1[H]

>  <ID>  (32) 


$$$$

     RDKit          3D

 27 30  0  0  0  0  0  0  0  0999 V2000
    6.8250   -4.4886   21.0565 C   0  0  0  0  0  0  0  0  0  0  0  0
    7.4196   -3.1859   20.9087 O   0  0  0  0  0  0  0  0  0  0  0  0
    6.6535   -2.1397   21.2676 C   0  0  0  0  0  0  0  0  0  0  0  0
    5.5376   -2.2731   21.7158 O   0  0  0  0  0  0  0  0  0  0  0  0
    7.3767   -0.7642   21.0214 C   0  0  2  0  0  0  0  0  0  0  0  0
    7.5292    0.0545   22.2465 N   0  0  0  0  0  0  0  0  0  0  0  0
    8.3129    1.1813   22.2500 C   0  0  0  0  0  0  0  0  0  0  0  0
    8.9588    1.5110   21.2712 O   0  0  0  0  0  0  0  0  0  0  0  0
    8.3169    1.9443   23.5693 C   0  0  2  0  0  0  0  0  0  0  0  0
    9.6430    2.1983   24.2351 C   0  0  0  0  0  0  0  0  0  0  0  0
    8.6468    1.2632   24.8831 C   0  0  1  0  0  0  0  0  0  0  0  0
    7.9639    1.6315   26.1637 C   0  0  0  0  0  0  0  0  0  0  0  0
    7.7007    0.6307   27.1163 C   0  0  0  0  0  0  0  0  0  0  0  0
    7.1028    0.9258   28.3434 C   0  0  0  0  0  0  0  0  0  0  0  0
    6.7643    2.2452   28.6484 C   0  0  0  0  0  0  0  0  0  0  0  0
    6.1675    2.5041   29.8533 O   0  0  0  0  0  0  0  0  0  0  0  0
    6.1381    3.8797   30.2392 C   0  0  0  0  0  0  0  0  0  0  0  0
    5.7908    4.7802   29.0553 C   0  0  0  0  0  0  0  0  0  0  0  0
    6.6959    4.5749   27.9668 O   0  0  0  0  0  0  0  0  0  0  0  0
    7.0081    3.2648   27.7002 C   0  0  0  0  0  0  0  0  0  0  0  0
    7.6122    2.9544   26.4832 C   0  0  0  0  0  0  0  0  0  0  0  0
    6.6744    0.0312   19.9137 C   0  0  0  0  0  0  0  0  0  0  0  0
    5.4512    0.6699   20.1487 C   0  0  0  0  0  0  0  0  0  0  0  0
    4.8101    1.3163   19.0919 C   0  0  0  0  0  0  0  0  0  0  0  0
    5.4059    1.2935   17.8273 C   0  0  0  0  0  0  0  0  0  0  0  0
    6.5720    0.6822   17.5743 N   0  0  0  0  0  0  0  0  0  0  0  0
    7.1864    0.0849   18.6073 C   0  0  0  0  0  0  0  0  0  0  0  0
  1  2  1  0
  2  3  1  0
  3  4  2  0
  3  5  1  0
  5  6  1  1
  6  7  1  0
  7  8  2  0
  9  7  1  6
  9 10  1  0
 10 11  1  0
 11 12  1  1
 12 13  2  0
 13 14  1  0
 14 15  2  0
 15 16  1  0
 16 17  1  0
 17 18  1  0
 18 19  1  0
 19 20  1  0
 20 21  2  0
  5 22  1  0
 22 23  2  0
 23 24  1  0
 24 25  2  0
 25 26  1  0
 26 27  2  0
 11  9  1  0
 21 12  1  0
 27 22  1  0
 20 15  1  0
M  END
>  <plip>  (33) 
-0.21428571428571427

>  <filename>  (33) 
[H][c]1[n][c]([H])[c]([C]([H])([C](=[O])[O][C]([H])([H])[H])[N]([H])[C](=[O])[C@]2([H])[C]([H])([H])[C@@]2([H])[c]2[c]([H])[c]([H])[c]3[c]([c]2[H])[O][C]([H])([H])[C]([H])([H])[O]3)[c]([H])[c]1[H]

>  <ID>  (33) 


$$$$

     RDKit          3D

 28 31  0  0  0  0  0  0  0  0999 V2000
    8.6147    2.4027   21.2118 C   0  0  0  0  0  0  0  0  0  0  0  0
    8.9730    1.0454   21.3328 O   0  0  0  0  0  0  0  0  0  0  0  0
    8.0302    0.2547   22.0198 C   0  0  0  0  0  0  0  0  0  0  0  0
    8.6819   -0.4251   23.0492 O   0  0  0  0  0  0  0  0  0  0  0  0
    9.0498    0.4134   24.1336 C   0  0  0  0  0  0  0  0  0  0  0  0
    7.3787   -0.7389   21.0106 C   0  0  1  0  0  0  0  0  0  0  0  0
    6.5143   -1.7147   21.6746 N   0  0  0  0  0  0  0  0  0  0  0  0
    6.0858   -2.8701   21.0796 C   0  0  0  0  0  0  0  0  0  0  0  0
    6.2166   -3.0842   19.8941 O   0  0  0  0  0  0  0  0  0  0  0  0
    5.4606   -3.8648   22.0544 C   0  0  0  0  0  0  0  0  0  0  0  0
    4.7896   -4.8794   21.5686 N   0  0  0  0  0  0  0  0  0  0  0  0
    4.2897   -5.5748   22.6332 O   0  0  0  0  0  0  0  0  0  0  0  0
    4.7009   -4.9888   23.7708 C   0  0  0  0  0  0  0  0  0  0  0  0
    4.3919   -5.4698   25.1005 C   0  0  0  0  0  0  0  0  0  0  0  0
    5.1161   -4.8689   26.1553 C   0  0  0  0  0  0  0  0  0  0  0  0
    6.2520   -3.8849   25.8602 C   0  0  0  0  0  0  0  0  0  0  0  0
    6.0733   -3.0447   24.5749 C   0  0  0  0  0  0  0  0  0  0  0  0
    5.4629   -3.8861   23.4841 C   0  0  0  0  0  0  0  0  0  0  0  0
    4.8199   -5.2507   27.4703 C   0  0  0  0  0  0  0  0  0  0  0  0
    3.8475   -6.2114   27.7473 C   0  0  0  0  0  0  0  0  0  0  0  0
    3.1488   -6.8170   26.6927 C   0  0  0  0  0  0  0  0  0  0  0  0
    3.4143   -6.4558   25.3795 C   0  0  0  0  0  0  0  0  0  0  0  0
    6.6272   -0.0126   19.8956 C   0  0  0  0  0  0  0  0  0  0  0  0
    5.4165    0.6606   20.1229 C   0  0  0  0  0  0  0  0  0  0  0  0
    4.7932    1.3251   19.0655 C   0  0  0  0  0  0  0  0  0  0  0  0
    5.4133    1.3089   17.8104 C   0  0  0  0  0  0  0  0  0  0  0  0
    6.5669    0.6736   17.5611 N   0  0  0  0  0  0  0  0  0  0  0  0
    7.1457    0.0351   18.5928 C   0  0  0  0  0  0  0  0  0  0  0  0
  1  2  1  0
  2  3  1  0
  3  4  1  0
  4  5  1  0
  3  6  1  0
  6  7  1  1
  7  8  1  0
  8  9  2  0
  8 10  1  0
 10 11  2  0
 11 12  1  0
 12 13  1  0
 13 14  1  0
 14 15  2  0
 15 16  1  0
 16 17  1  0
 17 18  1  0
 15 19  1  0
 19 20  2  0
 20 21  1  0
 21 22  2  0
  6 23  1  0
 23 24  2  0
 24 25  1  0
 25 26  2  0
 26 27  1  0
 27 28  2  0
 18 10  1  0
 28 23  1  0
 18 13  2  0
 22 14  1  0
M  END
>  <plip>  (34) 
-0.21428571428571427

>  <filename>  (34) 
[H][c]1[n][c]([H])[c]([C]([H])([N]([H])[C](=[O])[c]2[n][o][c]3[c]2[C]([H])([H])[C]([H])([H])[c]2[c]([H])[c]([H])[c]([H])[c]([H])[c]2-3)[C]([H])([O][C]([H])([H])[H])[O][C]([H])([H])[H])[c]([H])[c]1[H]

>  <ID>  (34) 


$$$$

     RDKit          3D

 27 29  0  0  0  0  0  0  0  0999 V2000
    5.9925   -4.0554   20.5210 C   0  0  0  0  0  0  0  0  0  0  0  0
    6.6529   -2.8456   20.2665 O   0  0  0  0  0  0  0  0  0  0  0  0
    6.6885   -2.0003   21.3858 C   0  0  0  0  0  0  0  0  0  0  0  0
    7.4087   -0.7052   21.0120 C   0  0  2  0  0  0  0  0  0  0  0  0
    7.6176    0.1037   22.2085 N   0  0  0  0  0  0  0  0  0  0  0  0
    8.3930    1.2250   22.1885 C   0  0  0  0  0  0  0  0  0  0  0  0
    9.0373    1.5269   21.1889 O   0  0  0  0  0  0  0  0  0  0  0  0
    8.4171    2.0344   23.4715 C   0  0  0  0  0  0  0  0  0  0  0  0
    9.2198    3.1326   23.6701 C   0  0  0  0  0  0  0  0  0  0  0  0
   10.0902    3.8585   22.7263 C   0  0  0  0  0  0  0  0  0  0  0  0
    8.8970    3.5997   24.9036 N   0  0  0  0  0  0  0  0  0  0  0  0
    7.9220    2.8088   25.4290 C   0  0  0  0  0  0  0  0  0  0  0  0
    7.3634    3.0062   26.7822 C   0  0  0  0  0  0  0  0  0  0  0  0
    6.4596    2.0347   27.2472 C   0  0  0  0  0  0  0  0  0  0  0  0
    5.9047    2.1220   28.5176 C   0  0  0  0  0  0  0  0  0  0  0  0
    6.2435    3.1846   29.3644 C   0  0  0  0  0  0  0  0  0  0  0  0
    7.1471    4.1570   28.9131 C   0  0  0  0  0  0  0  0  0  0  0  0
    7.5787    5.2189   29.6439 O   0  0  0  0  0  0  0  0  0  0  0  0
    7.0770    5.4145   30.9468 C   0  0  0  0  0  0  0  0  0  0  0  0
    7.6995    4.0772   27.6273 C   0  0  0  0  0  0  0  0  0  0  0  0
    7.6103    1.8513   24.5819 N   0  0  0  0  0  0  0  0  0  0  0  0
    6.6725    0.0520   19.9125 C   0  0  0  0  0  0  0  0  0  0  0  0
    5.4430    0.6825   20.1430 C   0  0  0  0  0  0  0  0  0  0  0  0
    4.7970    1.3204   19.0810 C   0  0  0  0  0  0  0  0  0  0  0  0
    5.3991    1.2942   17.8164 C   0  0  0  0  0  0  0  0  0  0  0  0
    6.5605    0.6744   17.5638 N   0  0  0  0  0  0  0  0  0  0  0  0
    7.1690    0.0804   18.6039 C   0  0  0  0  0  0  0  0  0  0  0  0
  1  2  1  0
  2  3  1  0
  4  3  1  1
  4  5  1  0
  5  6  1  0
  6  7  2  0
  6  8  1  0
  8  9  2  0
  9 10  1  0
  9 11  1  0
 11 12  1  0
 12 13  1  0
 13 14  2  0
 14 15  1  0
 15 16  2  0
 16 17  1  0
 17 18  1  0
 18 19  1  0
 17 20  2  0
 12 21  2  0
  4 22  1  0
 22 23  2  0
 23 24  1  0
 24 25  2  0
 25 26  1  0
 26 27  2  0
 21  8  1  0
 27 22  1  0
 20 13  1  0
M  END
>  <plip>  (35) 
-0.21428571428571427

>  <filename>  (35) 
[H][c]1[n][c]([H])[c]([C@@]([H])([N]([H])[C](=[O])[c]2[n][c](-[c]3[c]([H])[c]([H])[c]([H])[c]([O][C]([H])([H])[H])[c]3[H])[n]([H])[c]2[C]([H])([H])[H])[C]([H])([H])[O][C]([H])([H])[H])[c]([H])[c]1[H]

>  <ID>  (35) 


$$$$

     RDKit          3D

 24 26  0  0  0  0  0  0  0  0999 V2000
    7.0235   -4.3582   20.8839 C   0  0  0  0  0  0  0  0  0  0  0  0
    6.4765   -3.0907   20.4935 O   0  0  0  0  0  0  0  0  0  0  0  0
    6.5912   -2.0599   21.4939 C   0  0  0  0  0  0  0  0  0  0  0  0
    7.3577   -0.8149   20.9902 C   0  0  2  0  0  0  0  0  0  0  0  0
    7.5380    0.1006   22.1151 N   0  0  0  0  0  0  0  0  0  0  0  0
    8.3432    1.2293   22.1060 C   0  0  0  0  0  0  0  0  0  0  0  0
    9.0444    1.4495   21.1236 O   0  0  0  0  0  0  0  0  0  0  0  0
    8.3626    2.1382   23.2874 C   0  0  0  0  0  0  0  0  0  0  0  0
    7.5911    2.0417   24.4374 C   0  0  0  0  0  0  0  0  0  0  0  0
    7.9408    3.1383   25.3238 C   0  0  0  0  0  0  0  0  0  0  0  0
    8.9332    3.8713   24.6873 C   0  0  0  0  0  0  0  0  0  0  0  0
    9.1778    3.2673   23.4588 N   0  0  0  0  0  0  0  0  0  0  0  0
    9.4942    5.0002   25.2922 C   0  0  0  0  0  0  0  0  0  0  0  0
   10.4707    5.6969   24.6628 F   0  0  0  0  0  0  0  0  0  0  0  0
    9.0294    5.3941   26.5578 C   0  0  0  0  0  0  0  0  0  0  0  0
    9.7667    6.9253   27.4325 Br  0  0  0  0  0  0  0  0  0  0  0  0
    8.0139    4.6620   27.1926 C   0  0  0  0  0  0  0  0  0  0  0  0
    7.4688    3.5243   26.5817 C   0  0  0  0  0  0  0  0  0  0  0  0
    6.6257   -0.0542   19.9001 C   0  0  0  0  0  0  0  0  0  0  0  0
    5.4148    0.6090   20.1394 C   0  0  0  0  0  0  0  0  0  0  0  0
    4.8181    1.2949   19.0816 C   0  0  0  0  0  0  0  0  0  0  0  0
    5.4280    1.3063   17.8237 C   0  0  0  0  0  0  0  0  0  0  0  0
    6.5936    0.6822   17.5890 N   0  0  0  0  0  0  0  0  0  0  0  0
    7.1774    0.0299   18.6099 C   0  0  0  0  0  0  0  0  0  0  0  0
  1  2  1  0
  2  3  1  0
  4  3  1  1
  4  5  1  0
  5  6  1  0
  6  7  2  0
  6  8  1  0
  8  9  2  0
  9 10  1  0
 10 11  2  0
 11 12  1  0
 11 13  1  0
 13 14  1  0
 13 15  2  0
 15 16  1  0
 15 17  1  0
 17 18  2  0
  4 19  1  0
 19 20  2  0
 20 21  1  0
 21 22  2  0
 22 23  1  0
 23 24  2  0
 12  8  1  0
 24 19  1  0
 18 10  1  0
M  END
>  <plip>  (36) 
-0.21428571428571427

>  <filename>  (36) 
[H][c]1[n][c]([H])[c]([C@@]([H])([N]([H])[C](=[O])[c]2[c]([H])[c]3[c]([H])[c]([H])[c]([Br])[c]([F])[c]3[n]2[H])[C]([H])([H])[O][C]([H])([H])[H])[c]([H])[c]1[H]

>  <ID>  (36) 


$$$$

     RDKit          3D

 25 27  0  0  0  0  0  0  0  0999 V2000
    6.8739   -4.5087   21.0258 C   0  0  0  0  0  0  0  0  0  0  0  0
    7.4512   -3.1957   20.9022 O   0  0  0  0  0  0  0  0  0  0  0  0
    6.6645   -2.1581   21.2362 C   0  0  0  0  0  0  0  0  0  0  0  0
    5.5432   -2.2996   21.6683 O   0  0  0  0  0  0  0  0  0  0  0  0
    7.3817   -0.7798   20.9930 C   0  0  2  0  0  0  0  0  0  0  0  0
    7.5219    0.0277   22.2225 N   0  0  0  0  0  0  0  0  0  0  0  0
    8.2785    1.1721   22.2521 C   0  0  0  0  0  0  0  0  0  0  0  0
    9.0062    1.4889   21.3244 O   0  0  0  0  0  0  0  0  0  0  0  0
    8.1520    1.9714   23.5226 C   0  0  0  0  0  0  0  0  0  0  0  0
    7.3526    1.8178   24.6418 C   0  0  0  0  0  0  0  0  0  0  0  0
    7.6580    2.8677   25.5553 C   0  0  0  0  0  0  0  0  0  0  0  0
    8.6652    3.6546   24.9448 C   0  0  0  0  0  0  0  0  0  0  0  0
    8.9427    3.0946   23.7252 N   0  0  0  0  0  0  0  0  0  0  0  0
    9.1812    4.7918   25.6119 C   0  0  0  0  0  0  0  0  0  0  0  0
   10.1407    5.5438   25.0420 F   0  0  0  0  0  0  0  0  0  0  0  0
    8.6971    5.1319   26.8578 C   0  0  0  0  0  0  0  0  0  0  0  0
    7.6875    4.3414   27.4657 C   0  0  0  0  0  0  0  0  0  0  0  0
    7.1574    3.2143   26.8449 C   0  0  0  0  0  0  0  0  0  0  0  0
    6.0894    2.3632   27.4734 C   0  0  0  0  0  0  0  0  0  0  0  0
    6.6672    0.0183   19.8996 C   0  0  0  0  0  0  0  0  0  0  0  0
    5.4495    0.6629   20.1454 C   0  0  0  0  0  0  0  0  0  0  0  0
    4.8102    1.3141   19.0925 C   0  0  0  0  0  0  0  0  0  0  0  0
    5.4022    1.2939   17.8267 C   0  0  0  0  0  0  0  0  0  0  0  0
    6.5694    0.6873   17.5708 N   0  0  0  0  0  0  0  0  0  0  0  0
    7.1840    0.0819   18.5973 C   0  0  0  0  0  0  0  0  0  0  0  0
  1  2  1  0
  2  3  1  0
  3  4  2  0
  3  5  1  0
  5  6  1  1
  6  7  1  0
  7  8  2  0
  7  9  1  0
  9 10  2  0
 10 11  1  0
 11 12  2  0
 12 13  1  0
 12 14  1  0
 14 15  1  0
 14 16  2  0
 16 17  1  0
 17 18  2  0
 18 19  1  0
  5 20  1  0
 20 21  2  0
 21 22  1  0
 22 23  2  0
 23 24  1  0
 24 25  2  0
 13  9  1  0
 25 20  1  0
 18 11  1  0
M  END
>  <plip>  (37) 
-0.21428571428571427

>  <filename>  (37) 
[H][c]1[n][c]([H])[c]([C]([H])([C](=[O])[O][C]([H])([H])[H])[N]([H])[C](=[O])[c]2[c]([H])[c]3[c]([C]([H])([H])[H])[c]([H])[c]([H])[c]([F])[c]3[n]2[H])[c]([H])[c]1[H]

>  <ID>  (37) 


$$$$

     RDKit          3D

 26 28  0  0  0  0  0  0  0  0999 V2000
    5.9946   -4.0300   20.6044 C   0  0  0  0  0  0  0  0  0  0  0  0
    6.6372   -2.8068   20.3628 O   0  0  0  0  0  0  0  0  0  0  0  0
    6.7021   -1.9416   21.4693 C   0  0  0  0  0  0  0  0  0  0  0  0
    7.4252   -0.6629   21.0363 C   0  0  2  0  0  0  0  0  0  0  0  0
    7.6212    0.1865   22.1956 N   0  0  0  0  0  0  0  0  0  0  0  0
    8.4307    1.2760   22.1273 C   0  0  0  0  0  0  0  0  0  0  0  0
    9.2426    1.4742   21.2392 O   0  0  0  0  0  0  0  0  0  0  0  0
    8.3279    2.1815   23.2864 C   0  0  0  0  0  0  0  0  0  0  0  0
    9.4443    2.8404   23.6976 C   0  0  0  0  0  0  0  0  0  0  0  0
    9.3769    3.7149   24.7290 N   0  0  0  0  0  0  0  0  0  0  0  0
    8.2108    4.0653   25.3873 C   0  0  0  0  0  0  0  0  0  0  0  0
    7.0049    3.4458   24.9898 C   0  0  0  0  0  0  0  0  0  0  0  0
    5.8035    3.8263   25.6336 C   0  0  0  0  0  0  0  0  0  0  0  0
    5.8320    4.7465   26.6663 C   0  0  0  0  0  0  0  0  0  0  0  0
    7.0615    5.3130   27.0428 C   0  0  0  0  0  0  0  0  0  0  0  0
    7.0358    6.1849   28.0712 F   0  0  0  0  0  0  0  0  0  0  0  0
    8.2683    5.0350   26.4257 C   0  0  0  0  0  0  0  0  0  0  0  0
    9.5343    5.7440   26.8490 C   0  0  0  0  0  0  0  0  0  0  0  0
    7.0521    2.4203   23.9193 C   0  0  0  0  0  0  0  0  0  0  0  0
    6.0330    1.8036   23.5826 O   0  0  0  0  0  0  0  0  0  0  0  0
    6.6759    0.0809   19.9464 C   0  0  0  0  0  0  0  0  0  0  0  0
    5.4515    0.7291   20.1739 C   0  0  0  0  0  0  0  0  0  0  0  0
    4.8116    1.3348   19.0891 C   0  0  0  0  0  0  0  0  0  0  0  0
    5.4193    1.2883   17.8270 C   0  0  0  0  0  0  0  0  0  0  0  0
    6.5853    0.6751   17.5912 N   0  0  0  0  0  0  0  0  0  0  0  0
    7.1815    0.0937   18.6442 C   0  0  0  0  0  0  0  0  0  0  0  0
  1  2  1  0
  2  3  1  0
  4  3  1  1
  4  5  1  0
  5  6  1  0
  6  7  2  0
  6  8  1  0
  8  9  2  0
  9 10  1  0
 10 11  1  0
 11 12  2  0
 12 13  1  0
 13 14  2  0
 14 15  1  0
 15 16  1  0
 15 17  2  0
 17 18  1  0
 12 19  1  0
 19 20  2  0
  4 21  1  0
 21 22  2  0
 22 23  1  0
 23 24  2  0
 24 25  1  0
 25 26  2  0
 19  8  1  0
 26 21  1  0
 17 11  1  0
M  END
>  <plip>  (38) 
-0.21428571428571427

>  <filename>  (38) 
[H][c]1[n][c]([H])[c]([C@@]([H])([N]([H])[C](=[O])[c]2[c]([H])[n]([H])[c]3[c]([C]([H])([H])[H])[c]([F])[c]([H])[c]([H])[c]3[c]2=[O])[C]([H])([H])[O][C]([H])([H])[H])[c]([H])[c]1[H]

>  <ID>  (38) 


$$$$

     RDKit          3D

 23 24  0  0  0  0  0  0  0  0999 V2000
    7.6418    1.8806   24.4271 O   0  0  0  0  0  0  0  0  0  0  0  0
    8.3978    2.1375   23.5011 C   0  0  0  0  0  0  0  0  0  0  0  0
    9.2616    3.2062   23.5224 N   0  0  0  0  0  0  0  0  0  0  0  0
    9.2246    4.2626   24.4655 C   0  0  0  0  0  0  0  0  0  0  0  0
    8.0063    4.7009   24.9994 C   0  0  0  0  0  0  0  0  0  0  0  0
    7.9847    5.7320   25.9433 C   0  0  0  0  0  0  0  0  0  0  0  0
    9.1823    6.3266   26.3588 C   0  0  0  0  0  0  0  0  0  0  0  0
    9.1426    7.5792   27.5534 Cl  0  0  0  0  0  0  0  0  0  0  0  0
   10.3937    5.8960   25.7948 C   0  0  0  0  0  0  0  0  0  0  0  0
   11.5531    6.4437   26.1747 F   0  0  0  0  0  0  0  0  0  0  0  0
   10.4198    4.8844   24.8349 C   0  0  0  0  0  0  0  0  0  0  0  0
    8.4198    1.2102   22.1492 C   0  0  0  0  0  0  0  0  0  0  0  0
    9.0864    1.4964   21.1678 O   0  0  0  0  0  0  0  0  0  0  0  0
    7.6365    0.0864   22.2030 N   0  0  0  0  0  0  0  0  0  0  0  0
    7.4101   -0.7287   20.9983 C   0  0  1  0  0  0  0  0  0  0  0  0
    6.6814   -2.0494   21.3608 C   0  0  0  0  0  0  0  0  0  0  0  0
    6.5437   -2.9734   20.2926 O   0  0  0  0  0  0  0  0  0  0  0  0
    6.6727    0.0502   19.9120 C   0  0  0  0  0  0  0  0  0  0  0  0
    5.4446    0.6827   20.1464 C   0  0  0  0  0  0  0  0  0  0  0  0
    4.7989    1.3208   19.0863 C   0  0  0  0  0  0  0  0  0  0  0  0
    5.3931    1.2958   17.8185 C   0  0  0  0  0  0  0  0  0  0  0  0
    6.5583    0.6848   17.5678 N   0  0  0  0  0  0  0  0  0  0  0  0
    7.1731    0.0921   18.6035 C   0  0  0  0  0  0  0  0  0  0  0  0
  1  2  2  0
  2  3  1  0
  3  4  1  0
  4  5  2  0
  5  6  1  0
  6  7  2  0
  7  8  1  0
  7  9  1  0
  9 10  1  0
  9 11  2  0
  2 12  1  0
 12 13  2  0
 12 14  1  0
 14 15  1  0
 15 16  1  1
 16 17  1  0
 15 18  1  0
 18 19  2  0
 19 20  1  0
 20 21  2  0
 21 22  1  0
 22 23  2  0
 11  4  1  0
 23 18  1  0
M  END
>  <plip>  (39) 
-0.21428571428571427

>  <filename>  (39) 
[H][O][C]([H])([H])[C]([H])([c]1[c]([H])[n][c]([H])[c]([H])[c]1[H])[N]([H])[C](=[O])[C](=[O])[N]([H])[c]1[c]([H])[c]([H])[c]([Cl])[c]([F])[c]1[H]

>  <ID>  (39) 


$$$$

     RDKit          3D

 19 20  0  0  0  0  0  0  0  0999 V2000
    5.3569    1.2876   17.7178 C   0  0  0  0  0  0  0  0  0  0  0  0
    6.4957    0.6114   17.4933 N   0  0  0  0  0  0  0  0  0  0  0  0
    7.0799    0.0120   18.5349 C   0  0  0  0  0  0  0  0  0  0  0  0
    6.5828    0.0934   19.8510 C   0  0  0  0  0  0  0  0  0  0  0  0
    7.4689   -0.6575   21.2016 S   0  0  0  0  0  0  0  0  0  0  0  0
    8.6723    0.6727   21.7039 C   0  0  0  0  0  0  0  0  0  0  0  0
    9.8189    0.6463   21.3428 O   0  0  0  0  0  0  0  0  0  0  0  0
    8.0730    1.5993   22.5090 N   0  0  0  0  0  0  0  0  0  0  0  0
    8.7167    2.6939   23.0805 C   0  0  0  0  0  0  0  0  0  0  0  0
   10.0297    2.5990   23.5616 C   0  0  0  0  0  0  0  0  0  0  0  0
   10.6665    3.7275   24.0798 C   0  0  0  0  0  0  0  0  0  0  0  0
    9.9908    4.9526   24.1239 C   0  0  0  0  0  0  0  0  0  0  0  0
    8.6732    5.0347   23.6852 C   0  0  0  0  0  0  0  0  0  0  0  0
    7.9871    3.9024   23.1982 C   0  0  0  0  0  0  0  0  0  0  0  0
    6.5564    3.9585   22.7964 C   0  0  0  0  0  0  0  0  0  0  0  0
    5.9500    3.0723   22.2020 O   0  0  0  0  0  0  0  0  0  0  0  0
    5.8343    5.0789   23.1199 N   0  0  0  0  0  0  0  0  0  0  0  0
    5.3779    0.7717   20.0657 C   0  0  0  0  0  0  0  0  0  0  0  0
    4.7535    1.3843   18.9748 C   0  0  0  0  0  0  0  0  0  0  0  0
  1  2  2  0
  2  3  1  0
  3  4  2  0
  4  5  1  0
  5  6  1  0
  6  7  2  0
  6  8  1  0
  8  9  1  0
  9 10  2  0
 10 11  1  0
 11 12  2  0
 12 13  1  0
 13 14  2  0
 14 15  1  0
 15 16  2  0
 15 17  1  0
  4 18  1  0
 18 19  2  0
 19  1  1  0
 14  9  1  0
M  END
>  <plip>  (40) 
-0.21428571428571427

>  <filename>  (40) 
[H][c]1[n][c]([H])[c]([S][C](=[O])[N]([H])[c]2[c]([H])[c]([H])[c]([H])[c]([H])[c]2[C](=[O])[N]([H])[H])[c]([H])[c]1[H]

>  <ID>  (40) 


$$$$

     RDKit          3D

 28 31  0  0  0  0  0  0  0  0999 V2000
    6.7423   -2.9806   23.6176 C   0  0  0  0  0  0  0  0  0  0  0  0
    7.4315   -2.6582   22.4235 O   0  0  0  0  0  0  0  0  0  0  0  0
    6.6924   -1.9565   21.4475 C   0  0  0  0  0  0  0  0  0  0  0  0
    6.5236   -2.7351   20.3055 O   0  0  0  0  0  0  0  0  0  0  0  0
    5.6847   -3.8563   20.4687 C   0  0  0  0  0  0  0  0  0  0  0  0
    7.4245   -0.6679   20.9844 C   0  0  2  0  0  0  0  0  0  0  0  0
    7.6662    0.2164   22.1091 N   0  0  0  0  0  0  0  0  0  0  0  0
    8.6362    1.1649   22.1352 C   0  0  0  0  0  0  0  0  0  0  0  0
    9.4394    1.3022   21.2217 O   0  0  0  0  0  0  0  0  0  0  0  0
    8.6460    2.0070   23.4036 C   0  0  0  0  0  0  0  0  0  0  0  0
    7.7450    1.9093   24.3960 N   0  0  0  0  0  0  0  0  0  0  0  0
    8.0839    2.8617   25.2759 N   0  0  0  0  0  0  0  0  0  0  0  0
    9.1644    3.5833   24.8892 C   0  0  0  0  0  0  0  0  0  0  0  0
    9.8481    4.7376   25.4549 C   0  0  0  0  0  0  0  0  0  0  0  0
   10.9351    5.2150   24.6776 C   0  0  0  0  0  0  0  0  0  0  0  0
   11.2680    4.7323   23.4420 O   0  0  0  0  0  0  0  0  0  0  0  0
   10.8242    3.4526   22.9850 C   0  0  0  0  0  0  0  0  0  0  0  0
    9.5759    3.0192   23.6950 C   0  0  0  0  0  0  0  0  0  0  0  0
   11.7467    6.2585   25.1349 C   0  0  0  0  0  0  0  0  0  0  0  0
   11.5199    6.8190   26.3870 C   0  0  0  0  0  0  0  0  0  0  0  0
   10.4504    6.3598   27.1769 C   0  0  0  0  0  0  0  0  0  0  0  0
    9.6114    5.3476   26.7124 C   0  0  0  0  0  0  0  0  0  0  0  0
    6.6842    0.0840   19.8858 C   0  0  0  0  0  0  0  0  0  0  0  0
    5.4548    0.7219   20.1076 C   0  0  0  0  0  0  0  0  0  0  0  0
    4.8153    1.3363   19.0317 C   0  0  0  0  0  0  0  0  0  0  0  0
    5.4282    1.3119   17.7740 C   0  0  0  0  0  0  0  0  0  0  0  0
    6.6036    0.7098   17.5400 N   0  0  0  0  0  0  0  0  0  0  0  0
    7.1993    0.1177   18.5854 C   0  0  0  0  0  0  0  0  0  0  0  0
  1  2  1  0
  2  3  1  0
  3  4  1  0
  4  5  1  0
  3  6  1  0
  6  7  1  1
  7  8  1  0
  8  9  2  0
  8 10  1  0
 10 11  2  0
 11 12  1  0
 12 13  1  0
 13 14  1  0
 14 15  2  0
 15 16  1  0
 16 17  1  0
 17 18  1  0
 15 19  1  0
 19 20  2  0
 20 21  1  0
 21 22  2  0
  6 23  1  0
 23 24  2  0
 24 25  1  0
 25 26  2  0
 26 27  1  0
 27 28  2  0
 18 10  1  0
 28 23  1  0
 18 13  2  0
 22 14  1  0
M  END
>  <plip>  (41) 
-0.21428571428571427

>  <filename>  (41) 
[H][c]1[n][c]([H])[c]([C]([H])([N]([H])[C](=[O])[c]2[n][n]([H])[c]3[c]2[C]([H])([H])[O][c]2[c]([H])[c]([H])[c]([H])[c]([H])[c]2-3)[C]([H])([O][C]([H])([H])[H])[O][C]([H])([H])[H])[c]([H])[c]1[H]

>  <ID>  (41) 


$$$$

     RDKit          3D

 25 28  0  0  0  0  0  0  0  0999 V2000
    5.1288    4.6257   26.1301 C   0  0  0  0  0  0  0  0  0  0  0  0
    5.6795    3.6913   25.1633 N   0  0  0  0  0  0  0  0  0  0  0  0
    5.0219    2.7553   24.4091 C   0  0  0  0  0  0  0  0  0  0  0  0
    5.8012    2.0349   23.6442 N   0  0  0  0  0  0  0  0  0  0  0  0
    7.0724    2.5390   23.8636 C   0  0  0  0  0  0  0  0  0  0  0  0
    8.3063    2.2205   23.2548 C   0  0  0  0  0  0  0  0  0  0  0  0
    8.4209    1.2235   22.1419 C   0  0  0  0  0  0  0  0  0  0  0  0
    9.2553    1.3614   21.2578 O   0  0  0  0  0  0  0  0  0  0  0  0
    7.6092    0.1220   22.2154 N   0  0  0  0  0  0  0  0  0  0  0  0
    7.4152   -0.6839   21.0189 C   0  0  1  0  0  0  0  0  0  0  0  0
    6.6973   -1.9985   21.3426 C   0  0  0  0  0  0  0  0  0  0  0  0
    7.4684   -2.9567   22.2516 C   0  0  0  0  0  0  0  0  0  0  0  0
    6.6956   -4.2108   22.6007 C   0  0  0  0  0  0  0  0  0  0  0  0
    5.7367   -4.2045   23.7545 C   0  0  0  0  0  0  0  0  0  0  0  0
    7.0328   -4.9586   23.8567 C   0  0  0  0  0  0  0  0  0  0  0  0
    6.6666    0.0792   19.9339 C   0  0  0  0  0  0  0  0  0  0  0  0
    5.4380    0.7223   20.1602 C   0  0  0  0  0  0  0  0  0  0  0  0
    4.7941    1.3349   19.0827 C   0  0  0  0  0  0  0  0  0  0  0  0
    5.4003    1.2917   17.8227 C   0  0  0  0  0  0  0  0  0  0  0  0
    6.5611    0.6687   17.5808 N   0  0  0  0  0  0  0  0  0  0  0  0
    7.1696    0.0912   18.6268 C   0  0  0  0  0  0  0  0  0  0  0  0
    9.4432    2.9361   23.6522 C   0  0  0  0  0  0  0  0  0  0  0  0
    9.3661    3.9230   24.6514 C   0  0  0  0  0  0  0  0  0  0  0  0
    8.1575    4.2537   25.2588 C   0  0  0  0  0  0  0  0  0  0  0  0
    7.0151    3.5681   24.8313 C   0  0  0  0  0  0  0  0  0  0  0  0
  1  2  1  0
  2  3  1  0
  3  4  2  0
  4  5  1  0
  5  6  2  0
  6  7  1  0
  7  8  2  0
  7  9  1  0
  9 10  1  0
 10 11  1  1
 11 12  1  0
 12 13  1  0
 13 14  1  0
 14 15  1  0
 10 16  1  0
 16 17  2  0
 17 18  1  0
 18 19  2  0
 19 20  1  0
 20 21  2  0
  6 22  1  0
 22 23  2  0
 23 24  1  0
 24 25  2  0
 25  2  1  0
 25  5  1  0
 15 13  1  0
 21 16  1  0
M  END
>  <plip>  (42) 
-0.21428571428571427

>  <filename>  (42) 
[H][c]1[n][c]([H])[c]([C]([H])([N]([H])[C](=[O])[c]2[c]([H])[c]([H])[c]([H])[c]3[c]2[n][c]([H])[n]3[C]([H])([H])[H])[C]([H])([H])[C]([H])([H])[C]2([H])[C]([H])([H])[C]2([H])[H])[c]([H])[c]1[H]

>  <ID>  (42) 


$$$$

     RDKit          3D

 22 23  0  0  0  0  0  0  0  0999 V2000
   10.2674   -5.0086   27.5777 C   0  0  0  0  0  0  0  0  0  0  0  0
    9.0223   -5.6196   27.2804 O   0  0  0  0  0  0  0  0  0  0  0  0
    8.1805   -4.9861   26.4518 C   0  0  0  0  0  0  0  0  0  0  0  0
    7.0825   -5.7515   26.0208 C   0  0  0  0  0  0  0  0  0  0  0  0
    6.2076   -5.1873   25.1220 C   0  0  0  0  0  0  0  0  0  0  0  0
    6.4827   -3.8786   24.6618 C   0  0  0  0  0  0  0  0  0  0  0  0
    5.6979   -3.2962   23.5459 C   0  0  0  0  0  0  0  0  0  0  0  0
    4.5231   -3.5576   23.3612 O   0  0  0  0  0  0  0  0  0  0  0  0
    6.4556   -2.5003   22.7157 N   0  0  0  0  0  0  0  0  0  0  0  0
    6.0285   -2.0692   21.3885 C   0  0  1  0  0  0  0  0  0  0  0  0
    7.0006   -0.9871   20.8898 C   0  0  0  0  0  0  0  0  0  0  0  0
    6.4703   -0.1930   19.7185 C   0  0  0  0  0  0  0  0  0  0  0  0
    5.3479    0.6417   19.8567 C   0  0  0  0  0  0  0  0  0  0  0  0
    4.9189    1.3924   18.7606 C   0  0  0  0  0  0  0  0  0  0  0  0
    5.6207    1.2769   17.5559 C   0  0  0  0  0  0  0  0  0  0  0  0
    6.6935    0.4907   17.3971 N   0  0  0  0  0  0  0  0  0  0  0  0
    7.0880   -0.2260   18.4618 C   0  0  0  0  0  0  0  0  0  0  0  0
    5.8985   -3.2516   20.1656 C   0  0  0  0  0  0  0  0  0  0  0  0
    5.1749   -2.8863   19.2253 O   0  0  0  0  0  0  0  0  0  0  0  0
    6.4927   -4.3170   20.3898 O   0  0  0  0  0  1  0  0  0  0  0  0
    7.5236   -3.1703   25.2502 C   0  0  0  0  0  0  0  0  0  0  0  0
    8.3799   -3.7152   26.1190 N   0  0  0  0  0  0  0  0  0  0  0  0
  1  2  1  0
  2  3  1  0
  3  4  2  0
  4  5  1  0
  5  6  2  0
  6  7  1  0
  7  8  2  0
  7  9  1  0
  9 10  1  0
 10 11  1  6
 11 12  1  0
 12 13  2  0
 13 14  1  0
 14 15  2  0
 15 16  1  0
 16 17  2  0
 10 18  1  0
 18 19  2  0
 18 20  1  0
  6 21  1  0
 21 22  2  0
 22  3  1  0
 17 12  1  0
M  CHG  1  20  -1
M  END
>  <plip>  (43) 
-0.21428571428571427

>  <filename>  (43) 
[H][c]1[n][c]([H])[c]([C]([H])([H])[C]([H])([C](=[O])[O-])[N]([H])[C](=[O])[c]2[c]([H])[n][c]([O][C]([H])([H])[H])[c]([H])[c]2[H])[c]([H])[c]1[H]

>  <ID>  (43) 


$$$$

     RDKit          3D

 28 31  0  0  0  0  0  0  0  0999 V2000
    8.6027   -3.1659   22.2873 C   0  0  0  0  0  0  0  0  0  0  0  0
    7.2461   -2.7680   22.4464 O   0  0  0  0  0  0  0  0  0  0  0  0
    6.6907   -2.0353   21.3758 C   0  0  0  0  0  0  0  0  0  0  0  0
    6.7292   -2.7679   20.1932 O   0  0  0  0  0  0  0  0  0  0  0  0
    5.7876   -3.8144   20.1331 C   0  0  0  0  0  0  0  0  0  0  0  0
    7.3862   -0.6845   21.0350 C   0  0  2  0  0  0  0  0  0  0  0  0
    7.5604    0.1362   22.2216 N   0  0  0  0  0  0  0  0  0  0  0  0
    8.3576    1.2368   22.2490 C   0  0  0  0  0  0  0  0  0  0  0  0
    9.0609    1.5565   21.2984 O   0  0  0  0  0  0  0  0  0  0  0  0
    8.3195    2.0220   23.5459 C   0  0  0  0  0  0  0  0  0  0  0  0
    9.0882    3.1318   23.7991 C   0  0  0  0  0  0  0  0  0  0  0  0
   10.0094    3.9323   22.9293 C   0  0  0  0  0  0  0  0  0  0  0  0
   10.7242    4.9573   23.6177 O   0  0  0  0  0  0  0  0  0  0  0  0
   10.2811    5.4101   24.8282 C   0  0  0  0  0  0  0  0  0  0  0  0
   10.9028    6.5562   25.3173 C   0  0  0  0  0  0  0  0  0  0  0  0
   10.5515    7.0643   26.5678 C   0  0  0  0  0  0  0  0  0  0  0  0
    9.5646    6.4202   27.3305 C   0  0  0  0  0  0  0  0  0  0  0  0
    8.9308    5.2725   26.8456 C   0  0  0  0  0  0  0  0  0  0  0  0
    9.2887    4.7545   25.5989 C   0  0  0  0  0  0  0  0  0  0  0  0
    8.7221    3.5805   25.0423 N   0  0  0  0  0  0  0  0  0  0  0  0
    7.7574    2.7151   25.4949 C   0  0  0  0  0  0  0  0  0  0  0  0
    7.4908    1.7763   24.6315 N   0  0  0  0  0  0  0  0  0  0  0  0
    6.6535    0.0663   19.9203 C   0  0  0  0  0  0  0  0  0  0  0  0
    5.4251    0.7033   20.1350 C   0  0  0  0  0  0  0  0  0  0  0  0
    4.7887    1.3319   19.0629 C   0  0  0  0  0  0  0  0  0  0  0  0
    5.4042    1.3014   17.8069 C   0  0  0  0  0  0  0  0  0  0  0  0
    6.5659    0.6773   17.5675 N   0  0  0  0  0  0  0  0  0  0  0  0
    7.1649    0.0841   18.6128 C   0  0  0  0  0  0  0  0  0  0  0  0
  1  2  1  0
  2  3  1  0
  3  4  1  0
  4  5  1  0
  3  6  1  0
  6  7  1  1
  7  8  1  0
  8  9  2  0
  8 10  1  0
 10 11  2  0
 11 12  1  0
 12 13  1  0
 13 14  1  0
 14 15  2  0
 15 16  1  0
 16 17  2  0
 17 18  1  0
 18 19  2  0
 19 20  1  0
 20 21  1  0
 21 22  2  0
  6 23  1  0
 23 24  2  0
 24 25  1  0
 25 26  2  0
 26 27  1  0
 27 28  2  0
 22 10  1  0
 28 23  1  0
 20 11  1  0
 19 14  1  0
M  END
>  <plip>  (44) 
-0.21428571428571427

>  <filename>  (44) 
[H][c]1[n][c]([H])[c]([C]([H])([N]([H])[C](=[O])[c]2[n][c]([H])[n]3[c]2[C]([H])([H])[O][c]2[c]([H])[c]([H])[c]([H])[c]([H])[c]2-3)[C]([H])([O][C]([H])([H])[H])[O][C]([H])([H])[H])[c]([H])[c]1[H]

>  <ID>  (44) 


$$$$

     RDKit          3D

 27 29  0  0  0  0  0  0  0  0999 V2000
    8.6240    2.4723   22.5874 C   0  0  0  0  0  0  0  0  0  0  0  0
    8.1921    1.4433   21.6834 O   0  0  0  0  0  0  0  0  0  0  0  0
    7.8867    0.2398   22.1982 C   0  0  0  0  0  0  0  0  0  0  0  0
    8.1383   -0.1001   23.3294 O   0  0  0  0  0  0  0  0  0  0  0  0
    7.2392   -0.6968   21.1108 C   0  0  1  0  0  0  0  0  0  0  0  0
    6.3456   -1.7112   21.6864 N   0  0  0  0  0  0  0  0  0  0  0  0
    5.8435   -2.7332   20.9409 C   0  0  0  0  0  0  0  0  0  0  0  0
    5.8831   -2.7694   19.7214 O   0  0  0  0  0  0  0  0  0  0  0  0
    5.1124   -3.8405   21.7084 C   0  0  0  0  0  0  0  0  0  0  0  0
    5.7945   -4.3192   22.8693 O   0  0  0  0  0  0  0  0  0  0  0  0
    5.2156   -5.3218   23.5905 C   0  0  0  0  0  0  0  0  0  0  0  0
    5.9370   -5.7770   24.7211 C   0  0  0  0  0  0  0  0  0  0  0  0
    5.3531   -6.7000   25.5747 C   0  0  0  0  0  0  0  0  0  0  0  0
    4.0576   -7.2018   25.3228 C   0  0  0  0  0  0  0  0  0  0  0  0
    3.3268   -8.0659   26.2291 C   0  0  0  0  0  0  0  0  0  0  0  0
    2.1424   -8.5859   25.8502 C   0  0  0  0  0  0  0  0  0  0  0  0
    1.5354   -8.2383   24.5552 C   0  0  0  0  0  0  0  0  0  0  0  0
    0.4880   -8.6621   24.1463 O   0  0  0  0  0  0  0  0  0  0  0  0
    2.2245   -7.3455   23.7557 O   0  0  0  0  0  0  0  0  0  0  0  0
    3.4259   -6.8243   24.1271 C   0  0  0  0  0  0  0  0  0  0  0  0
    3.9803   -5.8796   23.2695 C   0  0  0  0  0  0  0  0  0  0  0  0
    6.5355    0.0089   19.9627 C   0  0  0  0  0  0  0  0  0  0  0  0
    5.3261    0.6850   20.1413 C   0  0  0  0  0  0  0  0  0  0  0  0
    4.7732    1.3442   19.0399 C   0  0  0  0  0  0  0  0  0  0  0  0
    5.4455    1.2805   17.8116 C   0  0  0  0  0  0  0  0  0  0  0  0
    6.5907    0.6102   17.6107 N   0  0  0  0  0  0  0  0  0  0  0  0
    7.1036   -0.0091   18.6831 C   0  0  0  0  0  0  0  0  0  0  0  0
  1  2  1  0
  2  3  1  0
  3  4  2  0
  3  5  1  0
  5  6  1  1
  6  7  1  0
  7  8  2  0
  7  9  1  0
  9 10  1  0
 10 11  1  0
 11 12  2  0
 12 13  1  0
 13 14  2  0
 14 15  1  0
 15 16  2  0
 16 17  1  0
 17 18  2  0
 17 19  1  0
 19 20  1  0
 20 21  2  0
  5 22  1  0
 22 23  2  0
 23 24  1  0
 24 25  2  0
 25 26  1  0
 26 27  2  0
 21 11  1  0
 27 22  1  0
 20 14  1  0
M  END
>  <plip>  (45) 
-0.21428571428571427

>  <filename>  (45) 
[H][c]1[n][c]([H])[c]([C]([H])([C](=[O])[O][C]([H])([H])[H])[N]([H])[C](=[O])[C]([H])([H])[O][c]2[c]([H])[c]([H])[c]3[c]([H])[c]([H])[c](=[O])[o][c]3[c]2[H])[c]([H])[c]1[H]

>  <ID>  (45) 


$$$$

     RDKit          3D

 31 33  0  0  0  0  0  0  0  0999 V2000
    9.9270    7.7356   30.2695 C   0  0  0  0  0  0  0  0  0  0  0  0
   10.5863    7.3775   29.0710 O   0  0  0  0  0  0  0  0  0  0  0  0
   10.0045    6.5686   28.1492 C   0  0  0  0  0  0  0  0  0  0  0  0
    8.7319    6.0024   28.2756 C   0  0  0  0  0  0  0  0  0  0  0  0
    8.2313    5.1166   27.3137 C   0  0  0  0  0  0  0  0  0  0  0  0
    8.9960    4.7695   26.1867 C   0  0  0  0  0  0  0  0  0  0  0  0
    8.5203    3.7318   25.2346 C   0  0  0  0  0  0  0  0  0  0  0  0
    7.3561    3.1510   25.3418 N   0  0  0  0  0  0  0  0  0  0  0  0
    7.1204    2.2428   24.3519 C   0  0  0  0  0  0  0  0  0  0  0  0
    5.7864    1.5590   24.3887 C   0  0  0  0  0  0  0  0  0  0  0  0
    8.1420    2.0859   23.4560 C   0  0  0  0  0  0  0  0  0  0  0  0
    8.2159    1.2356   22.2522 C   0  0  0  0  0  0  0  0  0  0  0  0
    8.9261    1.5077   21.2970 O   0  0  0  0  0  0  0  0  0  0  0  0
    7.4871    0.0767   22.2886 N   0  0  0  0  0  0  0  0  0  0  0  0
    7.3184   -0.7600   21.0939 C   0  0  2  0  0  0  0  0  0  0  0  0
    6.5483   -0.0345   19.9885 C   0  0  0  0  0  0  0  0  0  0  0  0
    5.3128    0.6073   20.1546 C   0  0  0  0  0  0  0  0  0  0  0  0
    4.7618    1.2928   19.0628 C   0  0  0  0  0  0  0  0  0  0  0  0
    5.4494    1.2973   17.8426 C   0  0  0  0  0  0  0  0  0  0  0  0
    6.6208    0.6732   17.6543 N   0  0  0  0  0  0  0  0  0  0  0  0
    7.1424    0.0494   18.7190 C   0  0  0  0  0  0  0  0  0  0  0  0
    6.8546   -2.2213   21.4227 C   0  0  0  0  0  0  0  0  0  0  0  0
    6.7045   -2.8864   20.2036 O   0  0  0  0  0  0  0  0  0  0  0  0
    6.3943   -4.2669   20.2613 C   0  0  0  0  0  0  0  0  0  0  0  0
    5.6687   -2.2457   22.1475 O   0  0  0  0  0  0  0  0  0  0  0  0
    5.3949   -3.3066   23.0468 C   0  0  0  0  0  0  0  0  0  0  0  0
    9.4379    3.1732   23.8569 S   0  0  0  0  0  0  0  0  0  0  0  0
   10.2313    5.4322   26.0015 C   0  0  0  0  0  0  0  0  0  0  0  0
   10.7689    6.2747   26.9737 C   0  0  0  0  0  0  0  0  0  0  0  0
   11.9942    6.8528   26.8609 O   0  0  0  0  0  0  0  0  0  0  0  0
   12.8730    6.4389   25.8348 C   0  0  0  0  0  0  0  0  0  0  0  0
  1  2  1  0
  2  3  1  0
  3  4  2  0
  4  5  1  0
  5  6  2  0
  6  7  1  0
  7  8  2  0
  8  9  1  0
  9 10  1  0
  9 11  2  0
 11 12  1  0
 12 13  2  0
 12 14  1  0
 15 14  1  1
 15 16  1  0
 16 17  2  0
 17 18  1  0
 18 19  2  0
 19 20  1  0
 20 21  2  0
 15 22  1  0
 22 23  1  0
 23 24  1  0
 22 25  1  0
 25 26  1  0
 11 27  1  0
  6 28  1  0
 28 29  2  0
 29 30  1  0
 30 31  1  0
 29  3  1  0
 27  7  1  0
 21 16  1  0
M  END
>  <plip>  (46) 
-0.21428571428571427

>  <filename>  (46) 
[H][c]1[n][c]([H])[c]([C]([H])([N]([H])[C](=[O])[c]2[s][c](-[c]3[c]([H])[c]([H])[c]([O][C]([H])([H])[H])[c]([O][C]([H])([H])[H])[c]3[H])[n][c]2[C]([H])([H])[H])[C]([H])([O][C]([H])([H])[H])[O][C]([H])([H])[H])[c]([H])[c]1[H]

>  <ID>  (46) 


$$$$

     RDKit          3D

 24 26  0  0  0  0  0  0  0  0999 V2000
    6.0034   -4.0813   20.5313 C   0  0  0  0  0  0  0  0  0  0  0  0
    6.6376   -2.8554   20.2861 O   0  0  0  0  0  0  0  0  0  0  0  0
    6.6877   -2.0031   21.3992 C   0  0  0  0  0  0  0  0  0  0  0  0
    7.4125   -0.7231   20.9791 C   0  0  2  0  0  0  0  0  0  0  0  0
    7.6694    0.0832   22.1634 N   0  0  0  0  0  0  0  0  0  0  0  0
    8.4051    1.2262   22.1265 C   0  0  0  0  0  0  0  0  0  0  0  0
    9.0967    1.5253   21.1653 O   0  0  0  0  0  0  0  0  0  0  0  0
    8.3326    2.0627   23.3687 C   0  0  0  0  0  0  0  0  0  0  0  0
    7.5614    2.0031   24.5120 C   0  0  0  0  0  0  0  0  0  0  0  0
    7.9391    3.0893   25.3446 C   0  0  0  0  0  0  0  0  0  0  0  0
    8.9525    3.7984   24.6640 C   0  0  0  0  0  0  0  0  0  0  0  0
    9.1691    3.1628   23.4745 N   0  0  0  0  0  0  0  0  0  0  0  0
    9.5432    4.9414   25.2503 C   0  0  0  0  0  0  0  0  0  0  0  0
   10.5094    5.6071   24.6102 F   0  0  0  0  0  0  0  0  0  0  0  0
    9.1008    5.3498   26.5046 C   0  0  0  0  0  0  0  0  0  0  0  0
    9.8122    6.7346   27.2644 Cl  0  0  0  0  0  0  0  0  0  0  0  0
    8.0737    4.6454   27.1832 C   0  0  0  0  0  0  0  0  0  0  0  0
    7.4962    3.5198   26.6196 C   0  0  0  0  0  0  0  0  0  0  0  0
    6.6598    0.0397   19.8947 C   0  0  0  0  0  0  0  0  0  0  0  0
    5.4344    0.6780   20.1276 C   0  0  0  0  0  0  0  0  0  0  0  0
    4.7961    1.3241   19.0668 C   0  0  0  0  0  0  0  0  0  0  0  0
    5.4068    1.3042   17.8054 C   0  0  0  0  0  0  0  0  0  0  0  0
    6.5654    0.6815   17.5518 N   0  0  0  0  0  0  0  0  0  0  0  0
    7.1656    0.0773   18.5896 C   0  0  0  0  0  0  0  0  0  0  0  0
  1  2  1  0
  2  3  1  0
  4  3  1  1
  4  5  1  0
  5  6  1  0
  6  7  2  0
  6  8  1  0
  8  9  2  0
  9 10  1  0
 10 11  2  0
 11 12  1  0
 11 13  1  0
 13 14  1  0
 13 15  2  0
 15 16  1  0
 15 17  1  0
 17 18  2  0
  4 19  1  0
 19 20  2  0
 20 21  1  0
 21 22  2  0
 22 23  1  0
 23 24  2  0
 12  8  1  0
 24 19  1  0
 18 10  1  0
M  END
>  <plip>  (47) 
-0.21428571428571427

>  <filename>  (47) 
[H][c]1[n][c]([H])[c]([C@@]([H])([N]([H])[C](=[O])[c]2[c]([H])[c]3[c]([H])[c]([H])[c]([Cl])[c]([F])[c]3[n]2[H])[C]([H])([H])[O][C]([H])([H])[H])[c]([H])[c]1[H]

>  <ID>  (47) 


$$$$

     RDKit          3D

 29 32  0  0  0  0  0  0  0  0999 V2000
    9.3161    7.5467   28.1169 C   0  0  0  0  0  0  0  0  0  0  0  0
   10.6503    7.3116   27.7222 O   0  0  0  0  0  0  0  0  0  0  0  0
   10.9075    6.4394   26.7058 C   0  0  0  0  0  0  0  0  0  0  0  0
   12.2609    6.3662   26.3397 C   0  0  0  0  0  0  0  0  0  0  0  0
   12.6449    5.5616   25.2723 C   0  0  0  0  0  0  0  0  0  0  0  0
   11.7030    4.7802   24.6017 C   0  0  0  0  0  0  0  0  0  0  0  0
   10.3502    4.7884   24.9926 C   0  0  0  0  0  0  0  0  0  0  0  0
    9.4334    3.8072   24.3526 C   0  0  0  0  0  0  0  0  0  0  0  0
    9.7779    2.9908   23.3882 N   0  0  0  0  0  0  0  0  0  0  0  0
    8.6577    2.2658   23.0332 C   0  0  0  0  0  0  0  0  0  0  0  0
    8.5966    1.2280   21.8982 C   0  0  0  0  0  0  0  0  0  0  0  0
    9.2546    1.2708   20.8669 O   0  0  0  0  0  0  0  0  0  0  0  0
    7.7290    0.1703   22.1030 N   0  0  0  0  0  0  0  0  0  0  0  0
    7.3717   -0.7377   21.0071 C   0  0  2  0  0  0  0  0  0  0  0  0
    6.6091    0.0150   19.9160 C   0  0  0  0  0  0  0  0  0  0  0  0
    5.3881    0.6737   20.1205 C   0  0  0  0  0  0  0  0  0  0  0  0
    4.7860    1.3233   19.0370 C   0  0  0  0  0  0  0  0  0  0  0  0
    5.4273    1.3050   17.7914 C   0  0  0  0  0  0  0  0  0  0  0  0
    6.6004    0.6960   17.5766 N   0  0  0  0  0  0  0  0  0  0  0  0
    7.1647    0.0868   18.6308 C   0  0  0  0  0  0  0  0  0  0  0  0
    6.6435   -2.0202   21.4896 C   0  0  2  0  0  0  0  0  0  0  0  0
    7.3632   -2.8532   22.5646 C   0  0  0  0  0  0  0  0  0  0  0  0
    6.8375   -4.2688   22.3002 C   0  0  0  0  0  0  0  0  0  0  0  0
    6.5826   -4.2622   20.7875 C   0  0  0  0  0  0  0  0  0  0  0  0
    6.5182   -2.9026   20.3752 O   0  0  0  0  0  0  0  0  0  0  0  0
    7.5997    2.6585   23.8365 C   0  0  0  0  0  0  0  0  0  0  0  0
    6.1485    2.3086   23.9254 C   0  0  0  0  0  0  0  0  0  0  0  0
    8.1162    3.6203   24.6635 N   0  0  0  0  0  0  0  0  0  0  0  0
    9.9531    5.6659   26.0302 C   0  0  0  0  0  0  0  0  0  0  0  0
  1  2  1  0
  2  3  1  0
  3  4  2  0
  4  5  1  0
  5  6  2  0
  6  7  1  0
  7  8  1  0
  8  9  2  0
  9 10  1  0
 10 11  1  0
 11 12  2  0
 11 13  1  0
 14 13  1  1
 14 15  1  0
 15 16  2  0
 16 17  1  0
 17 18  2  0
 18 19  1  0
 19 20  2  0
 14 21  1  0
 21 22  1  1
 22 23  1  0
 23 24  1  0
 24 25  1  0
 10 26  2  0
 26 27  1  0
 26 28  1  0
  7 29  2  0
 29  3  1  0
 28  8  1  0
 20 15  1  0
 25 21  1  0
M  END
>  <plip>  (48) 
-0.21428571428571427

>  <filename>  (48) 
[H][c]1[n][c]([H])[c]([C]([H])([N]([H])[C](=[O])[c]2[n][c](-[c]3[c]([H])[c]([H])[c]([H])[c]([O][C]([H])([H])[H])[c]3[H])[n]([H])[c]2[C]([H])([H])[H])[C]2([H])[O][C]([H])([H])[C]([H])([H])[C]2([H])[H])[c]([H])[c]1[H]

>  <ID>  (48) 


$$$$

     RDKit          3D

 29 31  0  0  0  0  0  0  0  0999 V2000
   10.5375    8.0537   28.7702 C   0  0  0  0  0  0  0  0  0  0  0  0
    9.8125    7.1084   28.0081 O   0  0  0  0  0  0  0  0  0  0  0  0
   10.4482    6.4513   26.9994 C   0  0  0  0  0  0  0  0  0  0  0  0
    9.6384    5.6312   26.1979 C   0  0  0  0  0  0  0  0  0  0  0  0
   10.2057    4.9040   25.1364 C   0  0  0  0  0  0  0  0  0  0  0  0
    9.4839    3.8824   24.3662 C   0  0  0  0  0  0  0  0  0  0  0  0
    9.8981    3.0067   23.4136 C   0  0  0  0  0  0  0  0  0  0  0  0
    8.7413    2.2684   22.9913 C   0  0  0  0  0  0  0  0  0  0  0  0
    8.6895    1.2780   21.8864 C   0  0  0  0  0  0  0  0  0  0  0  0
    9.4444    1.2928   20.9262 O   0  0  0  0  0  0  0  0  0  0  0  0
    7.7528    0.3096   22.0615 N   0  0  0  0  0  0  0  0  0  0  0  0
    7.4118   -0.6429   21.0119 C   0  0  2  0  0  0  0  0  0  0  0  0
    6.6661    0.0830   19.8971 C   0  0  0  0  0  0  0  0  0  0  0  0
    5.4309    0.7130   20.0989 C   0  0  0  0  0  0  0  0  0  0  0  0
    4.8041    1.3368   19.0179 C   0  0  0  0  0  0  0  0  0  0  0  0
    5.4413    1.3187   17.7720 C   0  0  0  0  0  0  0  0  0  0  0  0
    6.6239    0.7289   17.5560 N   0  0  0  0  0  0  0  0  0  0  0  0
    7.2101    0.1340   18.6086 C   0  0  0  0  0  0  0  0  0  0  0  0
    6.6636   -1.8967   21.5437 C   0  0  0  0  0  0  0  0  0  0  0  0
    6.4784   -2.7067   20.4216 O   0  0  0  0  0  0  0  0  0  0  0  0
    5.6909   -3.8618   20.6029 C   0  0  0  0  0  0  0  0  0  0  0  0
    7.4131   -2.5642   22.5311 O   0  0  0  0  0  0  0  0  0  0  0  0
    6.7176   -2.9551   23.7004 C   0  0  0  0  0  0  0  0  0  0  0  0
    7.7029    2.7321   23.7516 C   0  0  0  0  0  0  0  0  0  0  0  0
    6.2417    2.4601   23.8628 C   0  0  0  0  0  0  0  0  0  0  0  0
    8.1499    3.7018   24.5847 O   0  0  0  0  0  0  0  0  0  0  0  0
   11.5705    5.0866   24.8347 C   0  0  0  0  0  0  0  0  0  0  0  0
   12.3727    5.8829   25.6388 C   0  0  0  0  0  0  0  0  0  0  0  0
   11.8228    6.5532   26.7351 C   0  0  0  0  0  0  0  0  0  0  0  0
  1  2  1  0
  2  3  1  0
  3  4  2  0
  4  5  1  0
  5  6  1  0
  6  7  2  0
  7  8  1  0
  8  9  1  0
  9 10  2  0
  9 11  1  0
 12 11  1  1
 12 13  1  0
 13 14  2  0
 14 15  1  0
 15 16  2  0
 16 17  1  0
 17 18  2  0
 12 19  1  0
 19 20  1  0
 20 21  1  0
 19 22  1  0
 22 23  1  0
  8 24  2  0
 24 25  1  0
 24 26  1  0
  5 27  2  0
 27 28  1  0
 28 29  2  0
 29  3  1  0
 26  6  1  0
 18 13  1  0
M  END
>  <plip>  (49) 
-0.21428571428571427

>  <filename>  (49) 
[H][c]1[n][c]([H])[c]([C]([H])([N]([H])[C](=[O])[c]2[c]([C]([H])([H])[H])[o][c](-[c]3[c]([H])[c]([H])[c]([H])[c]([O][C]([H])([H])[H])[c]3[H])[c]2[H])[C]([H])([O][C]([H])([H])[H])[O][C]([H])([H])[H])[c]([H])[c]1[H]

>  <ID>  (49) 


$$$$

     RDKit          3D

 23 25  0  0  0  0  0  0  0  0999 V2000
    7.0691    5.4740   23.4838 O   0  0  0  0  0  0  0  0  0  0  0  0
    6.8962    4.1333   22.9485 S   0  0  0  0  0  0  0  0  0  0  0  0
    7.0726    3.8684   21.5311 O   0  0  0  0  0  0  0  0  0  0  0  0
    8.0035    3.0534   23.8580 C   0  0  2  0  0  0  0  0  0  0  0  0
    9.4840    3.2929   23.4646 C   0  0  0  0  0  0  0  0  0  0  0  0
    9.6824    2.3732   22.2398 C   0  0  0  0  0  0  0  0  0  0  0  0
    8.3581    1.6764   22.0438 N   0  0  1  0  0  4  0  0  0  0  0  0
    8.5753    0.3960   21.3199 C   0  0  0  0  0  0  0  0  0  0  0  0
    7.3387   -0.4647   20.9819 C   0  0  2  0  0  0  0  0  0  0  0  0
    7.8205   -1.7390   20.5711 O   0  0  0  0  0  0  0  0  0  0  0  0
    6.5275    0.0834   19.8370 C   0  0  0  0  0  0  0  0  0  0  0  0
    5.3408    0.7985   20.0203 C   0  0  0  0  0  0  0  0  0  0  0  0
    4.7589    1.4276   18.9149 C   0  0  0  0  0  0  0  0  0  0  0  0
    5.3725    1.2912   17.6679 C   0  0  0  0  0  0  0  0  0  0  0  0
    6.4641    0.5408   17.4571 N   0  0  0  0  0  0  0  0  0  0  0  0
    7.0036   -0.0654   18.5221 C   0  0  0  0  0  0  0  0  0  0  0  0
    7.7625    1.6158   23.4113 C   0  0  0  0  0  0  0  0  0  0  0  0
    5.3194    3.5896   23.2628 N   0  0  0  0  0  0  0  0  0  0  0  0
    4.8757    3.5135   24.6722 C   0  0  0  0  0  0  0  0  0  0  0  0
    4.4308    4.8657   25.2618 C   0  0  0  0  0  0  0  0  0  0  0  0
    3.4357    5.4849   24.4457 O   0  0  0  0  0  0  0  0  0  0  0  0
    3.8921    5.6752   23.1050 C   0  0  0  0  0  0  0  0  0  0  0  0
    4.3108    4.3414   22.4473 C   0  0  0  0  0  0  0  0  0  0  0  0
  1  2  2  0
  2  3  2  0
  4  2  1  6
  4  5  1  0
  5  6  1  0
  6  7  1  0
  7  8  1  1
  8  9  1  0
  9 10  1  6
  9 11  1  0
 11 12  2  0
 12 13  1  0
 13 14  2  0
 14 15  1  0
 15 16  2  0
  7 17  1  0
  2 18  1  0
 18 19  1  0
 19 20  1  0
 20 21  1  0
 21 22  1  0
 22 23  1  0
 17  4  1  0
 23 18  1  0
 16 11  1  0
M  CHG  1   7   1
M  END
>  <plip>  (50) 
-0.21428571428571427

>  <filename>  (50) 
[H][O][C]([H])([c]1[c]([H])[n][c]([H])[c]([H])[c]1[H])[C]([H])([H])[N+]1([H])[C]([H])([H])[C]([H])([H])[C]([H])([S](=[O])(=[O])[N]2[C]([H])([H])[C]([H])([H])[O][C]([H])([H])[C]2([H])[H])[C]1([H])[H]

>  <ID>  (50) 


$$$$

     RDKit          3D

 27 29  0  0  0  0  0  0  0  0999 V2000
   10.2729    0.7470   21.3358 C   0  0  0  0  0  0  0  0  0  0  0  0
    8.9304    1.1677   21.3717 O   0  0  0  0  0  0  0  0  0  0  0  0
    8.0055    0.2922   21.9842 C   0  0  0  0  0  0  0  0  0  0  0  0
    7.3841   -0.7319   21.0032 C   0  0  1  0  0  0  0  0  0  0  0  0
    6.5705   -1.6810   21.7523 N   0  0  0  0  0  0  0  0  0  0  0  0
    6.0005   -2.7661   21.1483 C   0  0  0  0  0  0  0  0  0  0  0  0
    6.1239   -2.9966   19.9601 O   0  0  0  0  0  0  0  0  0  0  0  0
    5.1524   -3.6906   22.0320 C   0  0  0  0  0  0  0  0  0  0  0  0
    5.9168   -4.3563   23.0336 O   0  0  0  0  0  0  0  0  0  0  0  0
    5.2648   -5.2134   23.8696 C   0  0  0  0  0  0  0  0  0  0  0  0
    3.8927   -5.5391   23.7772 C   0  0  0  0  0  0  0  0  0  0  0  0
    3.3230   -6.3985   24.7082 C   0  0  0  0  0  0  0  0  0  0  0  0
    4.0699   -6.8825   25.8020 C   0  0  0  0  0  0  0  0  0  0  0  0
    3.5266   -7.6666   26.9186 C   0  0  0  0  0  0  0  0  0  0  0  0
    2.1353   -8.2510   26.8171 C   0  0  0  0  0  0  0  0  0  0  0  0
    4.3069   -7.8356   28.0038 C   0  0  0  0  0  0  0  0  0  0  0  0
    5.7019   -7.3921   28.0634 C   0  0  0  0  0  0  0  0  0  0  0  0
    6.4041   -7.4602   29.0367 O   0  0  0  0  0  0  0  0  0  0  0  0
    6.2356   -6.8757   26.9043 O   0  0  0  0  0  0  0  0  0  0  0  0
    5.4412   -6.5303   25.8583 C   0  0  0  0  0  0  0  0  0  0  0  0
    6.0510   -5.7728   24.8722 C   0  0  0  0  0  0  0  0  0  0  0  0
    6.5954   -0.0518   19.8914 C   0  0  0  0  0  0  0  0  0  0  0  0
    5.3871    0.6222   20.1204 C   0  0  0  0  0  0  0  0  0  0  0  0
    4.7875    1.3051   19.0600 C   0  0  0  0  0  0  0  0  0  0  0  0
    5.4169    1.2944   17.8084 C   0  0  0  0  0  0  0  0  0  0  0  0
    6.5624    0.6453   17.5612 N   0  0  0  0  0  0  0  0  0  0  0  0
    7.1198   -0.0051   18.5952 C   0  0  0  0  0  0  0  0  0  0  0  0
  1  2  1  0
  2  3  1  0
  4  3  1  1
  4  5  1  0
  5  6  1  0
  6  7  2  0
  6  8  1  0
  8  9  1  0
  9 10  1  0
 10 11  2  0
 11 12  1  0
 12 13  2  0
 13 14  1  0
 14 15  1  0
 14 16  2  0
 16 17  1  0
 17 18  2  0
 17 19  1  0
 19 20  1  0
 20 21  2  0
  4 22  1  0
 22 23  2  0
 23 24  1  0
 24 25  2  0
 25 26  1  0
 26 27  2  0
 21 10  1  0
 27 22  1  0
 20 13  1  0
M  END
>  <plip>  (51) 
-0.21428571428571427

>  <filename>  (51) 
[H][c]1[n][c]([H])[c]([C@]([H])([N]([H])[C](=[O])[C]([H])([H])[O][c]2[c]([H])[c]([H])[c]3[c]([C]([H])([H])[H])[c]([H])[c](=[O])[o][c]3[c]2[H])[C]([H])([H])[O][C]([H])([H])[H])[c]([H])[c]1[H]

>  <ID>  (51) 


$$$$

     RDKit          3D

 23 24  0  0  0  0  0  0  0  0999 V2000
    5.1327    3.2710   23.5197 C   0  0  0  0  0  0  0  0  0  0  0  0
    5.8619    3.7856   22.2934 C   0  0  0  0  0  0  0  0  0  0  0  0
    7.0455    2.9617   21.9723 N   0  0  0  0  0  0  0  0  0  0  0  0
    8.2825    3.1526   22.6922 C   0  0  0  0  0  0  0  0  0  0  0  0
    8.4652    4.1141   23.6925 C   0  0  0  0  0  0  0  0  0  0  0  0
    9.6700    4.1589   24.4152 C   0  0  0  0  0  0  0  0  0  0  0  0
   10.6850    3.2374   24.1540 C   0  0  0  0  0  0  0  0  0  0  0  0
   10.5028    2.2752   23.1545 C   0  0  0  0  0  0  0  0  0  0  0  0
    9.3265    2.2356   22.4004 C   0  0  0  0  0  0  0  0  0  0  0  0
    9.1006    1.1666   21.3658 C   0  0  0  0  0  0  0  0  0  0  0  0
    7.9161    0.4490   21.8339 N   0  0  0  0  0  4  0  0  0  0  0  0
    7.3912   -0.6423   21.0207 C   0  0  1  0  0  0  0  0  0  0  0  0
    6.6745   -1.5870   21.9857 C   0  0  0  0  0  0  0  0  0  0  0  0
    5.7800   -2.6272   21.3437 C   0  0  0  0  0  0  0  0  0  0  0  0
    6.5571   -3.6028   20.4952 N   0  0  0  0  0  4  0  0  0  0  0  0
    5.6642   -4.3871   19.5966 C   0  0  0  0  0  0  0  0  0  0  0  0
    7.3628   -4.5769   21.3057 C   0  0  0  0  0  0  0  0  0  0  0  0
    6.5662   -0.0326   19.9058 C   0  0  0  0  0  0  0  0  0  0  0  0
    5.3455    0.6357   20.0925 C   0  0  0  0  0  0  0  0  0  0  0  0
    4.7908    1.3306   19.0135 C   0  0  0  0  0  0  0  0  0  0  0  0
    5.4583    1.3093   17.7846 C   0  0  0  0  0  0  0  0  0  0  0  0
    6.5964    0.6351   17.5746 N   0  0  0  0  0  0  0  0  0  0  0  0
    7.1265   -0.0085   18.6211 C   0  0  0  0  0  0  0  0  0  0  0  0
  1  2  1  0
  2  3  1  0
  3  4  1  0
  4  5  2  0
  5  6  1  0
  6  7  2  0
  7  8  1  0
  8  9  2  0
  9 10  1  0
 10 11  1  0
 11 12  1  0
 12 13  1  1
 13 14  1  0
 14 15  1  0
 15 16  1  0
 15 17  1  0
 12 18  1  0
 18 19  2  0
 19 20  1  0
 20 21  2  0
 21 22  1  0
 22 23  2  0
  9  4  1  0
 23 18  1  0
M  CHG  2  11   1  15   1
M  END
>  <plip>  (52) 
-0.21428571428571427

>  <filename>  (52) 
[H][c]1[n][c]([H])[c]([C]([H])([C]([H])([H])[C]([H])([H])[N+]([H])([C]([H])([H])[H])[C]([H])([H])[H])[N+]([H])([H])[C]([H])([H])[c]2[c]([H])[c]([H])[c]([H])[c]([H])[c]2[N]([H])[C]([H])([H])[C]([H])([H])[H])[c]([H])[c]1[H]

>  <ID>  (52) 


$$$$

     RDKit          3D

 26 29  0  0  0  0  0  0  0  0999 V2000
    6.0149   -2.6549   19.0342 O   0  0  0  0  0  0  0  0  0  0  0  0
    6.0322   -2.8510   20.2427 C   0  0  0  0  0  0  0  0  0  0  0  0
    6.1608   -1.8537   21.1520 N   0  0  0  0  0  0  0  0  0  0  0  0
    6.8806   -0.6155   20.8934 C   0  0  1  0  0  0  0  0  0  0  0  0
    8.3891   -0.8431   20.6488 C   0  0  0  0  0  0  0  0  0  0  0  0
    9.1874   -1.3826   21.7753 N   0  0  0  0  0  4  0  0  0  0  0  0
    9.4667   -0.4720   22.9480 C   0  0  0  0  0  0  0  0  0  0  0  0
   10.6367   -1.1626   23.6668 C   0  0  0  0  0  0  0  0  0  0  0  0
   11.2980   -2.0796   22.6087 C   0  0  0  0  0  0  0  0  0  0  0  0
   10.5662   -1.7630   21.3184 C   0  0  0  0  0  0  0  0  0  0  0  0
    6.2580    0.1481   19.7423 C   0  0  0  0  0  0  0  0  0  0  0  0
    5.0718    0.8646   19.9251 C   0  0  0  0  0  0  0  0  0  0  0  0
    4.5598    1.6022   18.8535 C   0  0  0  0  0  0  0  0  0  0  0  0
    5.2517    1.5927   17.6367 C   0  0  0  0  0  0  0  0  0  0  0  0
    6.3646    0.8761   17.4270 N   0  0  0  0  0  0  0  0  0  0  0  0
    6.8282    0.1666   18.4597 C   0  0  0  0  0  0  0  0  0  0  0  0
    5.8941   -4.2132   20.7970 C   0  0  0  0  0  0  0  0  0  0  0  0
    5.4749   -5.2987   20.0834 C   0  0  0  0  0  0  0  0  0  0  0  0
    5.2441   -6.6955   21.0501 S   0  0  0  0  0  0  0  0  0  0  0  0
    5.7631   -5.8677   22.4740 C   0  0  0  0  0  0  0  0  0  0  0  0
    5.8118   -6.3371   23.7938 C   0  0  0  0  0  0  0  0  0  0  0  0
    6.3817   -5.4812   24.7274 C   0  0  0  0  0  0  0  0  0  0  0  0
    6.5412   -6.0149   26.3694 Cl  0  0  0  0  0  0  0  0  0  0  0  0
    6.8597   -4.2088   24.3329 C   0  0  0  0  0  0  0  0  0  0  0  0
    6.7313   -3.7380   23.0934 N   0  0  0  0  0  0  0  0  0  0  0  0
    6.1585   -4.5490   22.1674 C   0  0  0  0  0  0  0  0  0  0  0  0
  1  2  2  0
  2  3  1  0
  3  4  1  0
  4  5  1  6
  5  6  1  0
  6  7  1  0
  7  8  1  0
  8  9  1  0
  9 10  1  0
  4 11  1  0
 11 12  2  0
 12 13  1  0
 13 14  2  0
 14 15  1  0
 15 16  2  0
  2 17  1  0
 17 18  2  0
 18 19  1  0
 19 20  1  0
 20 21  2  0
 21 22  1  0
 22 23  1  0
 22 24  2  0
 24 25  1  0
 25 26  2  0
 10  6  1  0
 16 11  1  0
 26 17  1  0
 26 20  1  0
M  CHG  1   6   1
M  END
>  <plip>  (53) 
-0.21428571428571427

>  <filename>  (53) 
[H][c]1[n][c]([H])[c]([C]([H])([N]([H])[C](=[O])[c]2[c]([H])[s][c]3[c]([H])[c]([Cl])[c]([H])[n][c]23)[C]([H])([H])[N+]2([H])[C]([H])([H])[C]([H])([H])[C]([H])([H])[C]2([H])[H])[c]([H])[c]1[H]

>  <ID>  (53) 


$$$$

     RDKit          3D

 24 26  0  0  0  0  0  0  0  0999 V2000
    5.5316   -1.8522   21.4429 O   0  0  0  0  0  0  0  0  0  0  0  0
    6.7013   -1.5680   21.4244 C   0  0  0  0  0  0  0  0  0  0  0  0
    7.6274   -2.0124   22.3272 N   0  0  0  0  0  0  0  0  0  0  0  0
    8.9251   -1.4130   22.0647 C   0  0  2  0  0  0  0  0  0  0  0  0
    9.4765   -0.4725   23.1190 C   0  0  0  0  0  0  0  0  0  0  0  0
   10.8433   -0.5020   23.4169 C   0  0  0  0  0  0  0  0  0  0  0  0
   11.4073    0.4134   24.3041 C   0  0  0  0  0  0  0  0  0  0  0  0
   10.5900    1.3695   24.9032 C   0  0  0  0  0  0  0  0  0  0  0  0
    9.2224    1.4304   24.6187 C   0  0  0  0  0  0  0  0  0  0  0  0
    8.6768    0.5219   23.7070 C   0  0  0  0  0  0  0  0  0  0  0  0
    7.3348    0.5319   23.3298 O   0  0  0  0  0  0  0  0  0  0  0  0
    6.5292    1.6049   23.5277 C   0  0  0  0  0  0  0  0  0  0  0  0
    5.3178    1.3339   23.0311 F   0  0  0  0  0  0  0  0  0  0  0  0
    6.9734    2.7186   22.9307 F   0  0  0  0  0  0  0  0  0  0  0  0
    6.3659    1.8976   24.8296 F   0  0  0  0  0  0  0  0  0  0  0  0
    8.6823   -0.6820   20.7361 C   0  0  0  0  0  0  0  0  0  0  0  0
    9.4971   -0.1065   20.0624 O   0  0  0  0  0  0  0  0  0  0  0  0
    7.3355   -0.8113   20.4394 N   0  0  0  0  0  0  0  0  0  0  0  0
    6.6316   -0.0508   19.4476 C   0  0  0  0  0  0  0  0  0  0  0  0
    5.4630    0.6159   19.8216 C   0  0  0  0  0  0  0  0  0  0  0  0
    4.8248    1.4101   18.8640 C   0  0  0  0  0  0  0  0  0  0  0  0
    5.3551    1.4764   17.5704 C   0  0  0  0  0  0  0  0  0  0  0  0
    6.4502    0.7978   17.1886 N   0  0  0  0  0  0  0  0  0  0  0  0
    7.0756    0.0582   18.1117 C   0  0  0  0  0  0  0  0  0  0  0  0
  1  2  2  0
  2  3  1  0
  3  4  1  0
  4  5  1  1
  5  6  2  0
  6  7  1  0
  7  8  2  0
  8  9  1  0
  9 10  2  0
 10 11  1  0
 11 12  1  0
 12 13  1  0
 12 14  1  0
 12 15  1  0
  4 16  1  0
 16 17  2  0
 16 18  1  0
 18 19  1  0
 19 20  2  0
 20 21  1  0
 21 22  2  0
 22 23  1  0
 23 24  2  0
 18  2  1  0
 24 19  1  0
 10  5  1  0
M  END
>  <plip>  (54) 
-0.20689655172413793

>  <filename>  (54) 
[H][c]1[n][c]([H])[c]([N]2[C](=[O])[N]([H])[C]([H])([c]3[c]([H])[c]([H])[c]([H])[c]([H])[c]3[O][C]([F])([F])[F])[C]2=[O])[c]([H])[c]1[H]

>  <ID>  (54) 


$$$$

     RDKit          3D

 28 30  0  0  0  0  0  0  0  0999 V2000
    0.1055   -6.8198   26.4436 C   0  0  0  0  0  0  0  0  0  0  0  0
    0.0361   -7.7727   25.4043 O   0  0  0  0  0  0  0  0  0  0  0  0
    0.8519   -7.6393   24.3234 C   0  0  0  0  0  0  0  0  0  0  0  0
    1.7726   -6.6036   24.1256 C   0  0  0  0  0  0  0  0  0  0  0  0
    2.6347   -6.6021   23.0091 C   0  0  0  0  0  0  0  0  0  0  0  0
    3.6554   -5.5218   22.9105 C   0  0  0  0  0  0  0  0  0  0  0  0
    3.7346   -4.5238   23.7556 N   0  0  0  0  0  0  0  0  0  0  0  0
    4.6197   -3.5791   23.3392 C   0  0  0  0  0  0  0  0  0  0  0  0
    5.2307   -3.8148   22.1409 C   0  0  0  0  0  0  0  0  0  0  0  0
    5.9666   -2.9151   21.2225 C   0  0  0  0  0  0  0  0  0  0  0  0
    6.1550   -3.2164   20.0602 O   0  0  0  0  0  0  0  0  0  0  0  0
    6.3950   -1.7471   21.7709 N   0  0  0  0  0  0  0  0  0  0  0  0
    7.2956   -0.8175   21.0779 C   0  0  1  0  0  0  0  0  0  0  0  0
    6.5664   -0.0983   19.9398 C   0  0  0  0  0  0  0  0  0  0  0  0
    5.3714    0.6094   20.1362 C   0  0  0  0  0  0  0  0  0  0  0  0
    4.8098    1.3137   19.0676 C   0  0  0  0  0  0  0  0  0  0  0  0
    5.4643    1.2962   17.8304 C   0  0  0  0  0  0  0  0  0  0  0  0
    6.6032    0.6256   17.6140 N   0  0  0  0  0  0  0  0  0  0  0  0
    7.1264   -0.0464   18.6527 C   0  0  0  0  0  0  0  0  0  0  0  0
    7.9766    0.1948   22.0529 C   0  0  0  0  0  0  0  0  0  0  0  0
    8.6537   -0.4666   23.0805 O   0  0  0  0  0  0  0  0  0  0  0  0
    9.1573    0.4050   24.0828 C   0  0  0  0  0  0  0  0  0  0  0  0
    8.8894    0.9749   21.3144 O   0  0  0  0  0  0  0  0  0  0  0  0
    8.5467    2.3401   21.2172 C   0  0  0  0  0  0  0  0  0  0  0  0
    4.8056   -5.4079   21.6030 S   0  0  0  0  0  0  0  0  0  0  0  0
    2.4622   -7.5998   22.0307 C   0  0  0  0  0  0  0  0  0  0  0  0
    1.5135   -8.6128   22.2115 C   0  0  0  0  0  0  0  0  0  0  0  0
    0.7279   -8.6554   23.3601 C   0  0  0  0  0  0  0  0  0  0  0  0
  1  2  1  0
  2  3  1  0
  3  4  2  0
  4  5  1  0
  5  6  1  0
  6  7  2  0
  7  8  1  0
  8  9  2  0
  9 10  1  0
 10 11  2  0
 10 12  1  0
 13 12  1  1
 13 14  1  0
 14 15  2  0
 15 16  1  0
 16 17  2  0
 17 18  1  0
 18 19  2  0
 13 20  1  0
 20 21  1  0
 21 22  1  0
 20 23  1  0
 23 24  1  0
  9 25  1  0
  5 26  2  0
 26 27  1  0
 27 28  2  0
 28  3  1  0
 25  6  1  0
 19 14  1  0
M  END
>  <plip>  (55) 
-0.20689655172413793

>  <filename>  (55) 
[H][c]1[n][c](-[c]2[c]([H])[c]([H])[c]([H])[c]([O][C]([H])([H])[H])[c]2[H])[s][c]1[C](=[O])[N]([H])[C]([H])([c]1[c]([H])[n][c]([H])[c]([H])[c]1[H])[C]([H])([O][C]([H])([H])[H])[O][C]([H])([H])[H]

>  <ID>  (55) 


$$$$

     RDKit          3D

 27 29  0  0  0  0  0  0  0  0999 V2000
    8.5703    2.3811   21.2092 C   0  0  0  0  0  0  0  0  0  0  0  0
    8.9456    1.0254   21.3097 O   0  0  0  0  0  0  0  0  0  0  0  0
    8.0272    0.2272   22.0171 C   0  0  0  0  0  0  0  0  0  0  0  0
    8.6860   -0.4462   23.0477 O   0  0  0  0  0  0  0  0  0  0  0  0
    9.1445    0.4123   24.0800 C   0  0  0  0  0  0  0  0  0  0  0  0
    7.3636   -0.7717   21.0213 C   0  0  1  0  0  0  0  0  0  0  0  0
    6.4721   -1.6912   21.7149 N   0  0  0  0  0  0  0  0  0  0  0  0
    5.9925   -2.8439   21.1871 C   0  0  0  0  0  0  0  0  0  0  0  0
    6.1750   -3.1851   20.0315 O   0  0  0  0  0  0  0  0  0  0  0  0
    5.2147   -3.6728   22.1251 C   0  0  0  0  0  0  0  0  0  0  0  0
    4.6207   -3.4649   23.3503 C   0  0  0  0  0  0  0  0  0  0  0  0
    3.8236   -4.5427   23.5885 N   0  0  0  0  0  0  0  0  0  0  0  0
    2.9325   -4.6705   24.7048 C   0  0  0  0  0  0  0  0  0  0  0  0
    2.0473   -5.7525   24.8137 C   0  0  0  0  0  0  0  0  0  0  0  0
    1.2801   -5.8886   25.9668 C   0  0  0  0  0  0  0  0  0  0  0  0
    0.3941   -7.0845   26.1740 C   0  0  0  0  0  0  0  0  0  0  0  0
    1.3962   -4.8882   26.9448 C   0  0  0  0  0  0  0  0  0  0  0  0
    2.2493   -3.8150   26.7137 C   0  0  0  0  0  0  0  0  0  0  0  0
    3.0076   -3.6904   25.6183 N   0  0  0  0  0  0  0  0  0  0  0  0
    3.9426   -5.4760   22.5948 N   0  0  0  0  0  0  0  0  0  0  0  0
    4.7862   -4.9549   21.7351 C   0  0  0  0  0  0  0  0  0  0  0  0
    6.6160   -0.0483   19.9000 C   0  0  0  0  0  0  0  0  0  0  0  0
    5.4117    0.6365   20.1227 C   0  0  0  0  0  0  0  0  0  0  0  0
    4.8154    1.3229   19.0616 C   0  0  0  0  0  0  0  0  0  0  0  0
    5.4455    1.3122   17.8110 C   0  0  0  0  0  0  0  0  0  0  0  0
    6.5906    0.6594   17.5675 N   0  0  0  0  0  0  0  0  0  0  0  0
    7.1451    0.0037   18.6014 C   0  0  0  0  0  0  0  0  0  0  0  0
  1  2  1  0
  2  3  1  0
  3  4  1  0
  4  5  1  0
  3  6  1  0
  6  7  1  1
  7  8  1  0
  8  9  2  0
  8 10  1  0
 10 11  2  0
 11 12  1  0
 12 13  1  0
 13 14  2  0
 14 15  1  0
 15 16  1  0
 15 17  2  0
 17 18  1  0
 18 19  2  0
 12 20  1  0
 20 21  2  0
  6 22  1  0
 22 23  2  0
 23 24  1  0
 24 25  2  0
 25 26  1  0
 26 27  2  0
 21 10  1  0
 27 22  1  0
 19 13  1  0
M  END
>  <plip>  (56) 
-0.20689655172413793

>  <filename>  (56) 
[H][c]1[n][c]([H])[c]([C]([H])([N]([H])[C](=[O])[c]2[c]([H])[n][n](-[c]3[n][c]([H])[c]([H])[c]([C]([H])([H])[H])[c]3[H])[c]2[H])[C]([H])([O][C]([H])([H])[H])[O][C]([H])([H])[H])[c]([H])[c]1[H]

>  <ID>  (56) 


$$$$

     RDKit          3D

 19 21  0  0  0  0  0  0  0  0999 V2000
    5.7034   -4.6015   21.3949 O   0  0  0  0  0  0  0  0  0  0  0  0
    6.6721   -4.2748   22.0547 C   0  0  0  0  0  0  0  0  0  0  0  0
    7.1758   -5.1395   22.9938 N   0  0  0  0  0  0  0  0  0  0  0  0
    8.4013   -5.0244   23.6749 C   0  0  0  0  0  0  0  0  0  0  0  0
    8.7390   -5.9070   24.7103 C   0  0  0  0  0  0  0  0  0  0  0  0
   10.0070   -5.8487   25.2952 C   0  0  0  0  0  0  0  0  0  0  0  0
   10.9364   -4.8997   24.8578 C   0  0  0  0  0  0  0  0  0  0  0  0
   10.5682   -3.9875   23.8648 C   0  0  0  0  0  0  0  0  0  0  0  0
    9.2926   -4.0070   23.2812 C   0  0  0  0  0  0  0  0  0  0  0  0
    8.8931   -2.9739   22.2342 C   0  0  0  0  0  0  0  0  0  0  0  0
    7.3631   -2.8730   22.0396 C   0  0  1  0  0  0  0  0  0  0  0  0
    7.0093   -1.9580   20.8404 N   0  0  0  0  0  4  0  0  0  0  0  0
    7.3059   -0.4818   20.9994 C   0  0  0  0  0  0  0  0  0  0  0  0
    6.5808    0.1795   19.8718 C   0  0  0  0  0  0  0  0  0  0  0  0
    5.3839    0.8836   20.0505 C   0  0  0  0  0  0  0  0  0  0  0  0
    4.7648    1.4479   18.9333 C   0  0  0  0  0  0  0  0  0  0  0  0
    5.3656    1.3010   17.6810 C   0  0  0  0  0  0  0  0  0  0  0  0
    6.4942    0.6036   17.4886 N   0  0  0  0  0  0  0  0  0  0  0  0
    7.0660    0.0483   18.5623 C   0  0  0  0  0  0  0  0  0  0  0  0
  1  2  2  0
  2  3  1  0
  3  4  1  0
  4  5  2  0
  5  6  1  0
  6  7  2  0
  7  8  1  0
  8  9  2  0
  9 10  1  0
 10 11  1  0
 11 12  1  6
 12 13  1  0
 13 14  1  0
 14 15  2  0
 15 16  1  0
 16 17  2  0
 17 18  1  0
 18 19  2  0
 11  2  1  0
 19 14  1  0
  9  4  1  0
M  CHG  1  12   1
M  END
>  <plip>  (57) 
-0.20689655172413793

>  <filename>  (57) 
[H][c]1[n][c]([H])[c]([C]([H])([H])[N+]([H])([H])[C]2([H])[C](=[O])[N]([H])[c]3[c]([H])[c]([H])[c]([H])[c]([H])[c]3[C]2([H])[H])[c]([H])[c]1[H]

>  <ID>  (57) 


$$$$

     RDKit          3D

 26 28  0  0  0  0  0  0  0  0999 V2000
   10.2483    1.1416   22.6686 C   0  0  0  0  0  0  0  0  0  0  0  0
    9.4166    0.3120   21.8415 O   0  0  0  0  0  0  0  0  0  0  0  0
    8.0797    0.3935   21.9808 C   0  0  0  0  0  0  0  0  0  0  0  0
    7.5173    1.1718   22.7151 O   0  0  0  0  0  0  0  0  0  0  0  0
    7.3731   -0.6670   21.0559 C   0  0  1  0  0  0  0  0  0  0  0  0
    6.4803   -1.5724   21.7915 N   0  0  0  0  0  0  0  0  0  0  0  0
    5.9077   -2.6697   21.2205 C   0  0  0  0  0  0  0  0  0  0  0  0
    5.9682   -2.9157   20.0321 O   0  0  0  0  0  0  0  0  0  0  0  0
    5.2079   -3.6005   22.2041 C   0  0  0  0  0  0  0  0  0  0  0  0
    6.2392   -4.9690   22.8656 S   0  0  0  0  0  0  0  0  0  0  0  0
    7.4707   -3.9821   23.7091 C   0  0  0  0  0  0  0  0  0  0  0  0
    8.6581   -3.6490   23.0019 C   0  0  0  0  0  0  0  0  0  0  0  0
    9.5165   -2.6970   23.5022 C   0  0  0  0  0  0  0  0  0  0  0  0
    9.2606   -2.0734   24.7590 C   0  0  0  0  0  0  0  0  0  0  0  0
   10.0842   -1.0257   25.2649 C   0  0  0  0  0  0  0  0  0  0  0  0
    9.8650   -0.4991   26.5199 C   0  0  0  0  0  0  0  0  0  0  0  0
    8.7894   -0.9708   27.3179 C   0  0  0  0  0  0  0  0  0  0  0  0
    7.9371   -1.9359   26.8301 C   0  0  0  0  0  0  0  0  0  0  0  0
    8.1459   -2.5056   25.5344 C   0  0  0  0  0  0  0  0  0  0  0  0
    7.2390   -3.4583   24.9642 C   0  0  0  0  0  0  0  0  0  0  0  0
    6.6054   -0.0220   19.9107 C   0  0  0  0  0  0  0  0  0  0  0  0
    5.4039    0.6617   20.1251 C   0  0  0  0  0  0  0  0  0  0  0  0
    4.8141    1.3204   19.0456 C   0  0  0  0  0  0  0  0  0  0  0  0
    5.4456    1.2671   17.7969 C   0  0  0  0  0  0  0  0  0  0  0  0
    6.5772    0.5867   17.5635 N   0  0  0  0  0  0  0  0  0  0  0  0
    7.1215   -0.0512   18.6092 C   0  0  0  0  0  0  0  0  0  0  0  0
  1  2  1  0
  2  3  1  0
  3  4  2  0
  3  5  1  0
  5  6  1  1
  6  7  1  0
  7  8  2  0
  7  9  1  0
  9 10  1  0
 10 11  1  0
 11 12  2  0
 12 13  1  0
 13 14  2  0
 14 15  1  0
 15 16  2  0
 16 17  1  0
 17 18  2  0
 18 19  1  0
 19 20  2  0
  5 21  1  0
 21 22  2  0
 22 23  1  0
 23 24  2  0
 24 25  1  0
 25 26  2  0
 20 11  1  0
 26 21  1  0
 19 14  1  0
M  END
>  <plip>  (58) 
-0.20689655172413793

>  <filename>  (58) 
[H][c]1[n][c]([H])[c]([C]([H])([C](=[O])[O][C]([H])([H])[H])[N]([H])[C](=[O])[C]([H])([H])[S][c]2[c]([H])[c]([H])[c]3[c]([H])[c]([H])[c]([H])[c]([H])[c]3[c]2[H])[c]([H])[c]1[H]

>  <ID>  (58) 


$$$$

     RDKit          3D

 19 20  0  0  0  0  0  0  0  0999 V2000
    9.1333   -5.1126   24.4165 C   0  0  0  0  0  0  0  0  0  0  0  0
    8.3194   -4.2194   23.8542 N   0  0  0  0  0  0  0  0  0  0  0  0
    7.4659   -4.6120   22.8756 C   0  0  0  0  0  0  0  0  0  0  0  0
    6.6197   -3.4932   22.1965 C   0  0  0  0  0  0  0  0  0  0  0  0
    5.7181   -3.7204   21.4062 O   0  0  0  0  0  0  0  0  0  0  0  0
    7.0295   -2.2422   22.5425 N   0  0  0  0  0  0  0  0  0  0  0  0
    6.6298   -0.9914   21.9693 C   0  0  2  0  0  0  0  0  0  0  0  0
    7.4840   -0.4713   20.7212 C   0  0  0  0  0  0  0  0  0  0  0  0
    8.6841   -0.6494   20.6101 O   0  0  0  0  0  0  0  0  0  0  0  0
    6.7153    0.2503   19.6814 C   0  0  0  0  0  0  0  0  0  0  0  0
    7.2250    0.2273   18.3800 C   0  0  0  0  0  0  0  0  0  0  0  0
    6.5922    0.7695   17.3412 N   0  0  0  0  0  0  0  0  0  0  0  0
    5.4297    1.3970   17.5823 C   0  0  0  0  0  0  0  0  0  0  0  0
    4.8655    1.5226   18.8557 C   0  0  0  0  0  0  0  0  0  0  0  0
    5.5223    0.9424   19.9374 C   0  0  0  0  0  0  0  0  0  0  0  0
    6.6566   -0.1139   23.1292 N   0  0  0  0  0  0  0  0  0  0  0  0
    7.4112   -5.9424   22.4230 C   0  0  0  0  0  0  0  0  0  0  0  0
    8.2909   -6.8665   22.9965 C   0  0  0  0  0  0  0  0  0  0  0  0
    9.1420   -6.4489   24.0277 C   0  0  0  0  0  0  0  0  0  0  0  0
  1  2  2  0
  2  3  1  0
  3  4  1  0
  4  5  2  0
  4  6  1  0
  6  7  1  0
  7  8  1  0
  8  9  2  0
  8 10  1  0
 10 11  2  0
 11 12  1  0
 12 13  2  0
 13 14  1  0
 14 15  2  0
  7 16  1  1
  3 17  2  0
 17 18  1  0
 18 19  2  0
 19  1  1  0
 15 10  1  0
M  END
>  <plip>  (59) 
-0.20689655172413793

>  <filename>  (59) 
[H][c]1[n][c]([C](=[O])[N]([H])[C@]([H])([C](=[O])[c]2[c]([H])[n][c]([H])[c]([H])[c]2[H])[N]([H])[H])[c]([H])[c]([H])[c]1[H]

>  <ID>  (59) 


$$$$

     RDKit          3D

 24 26  0  0  0  0  0  0  0  0999 V2000
    9.5350    2.0413   22.1667 C   0  0  0  0  0  0  0  0  0  0  0  0
    8.9543    1.0740   21.3223 O   0  0  0  0  0  0  0  0  0  0  0  0
    8.0072    0.2675   21.9893 C   0  0  0  0  0  0  0  0  0  0  0  0
    7.3934   -0.7280   20.9975 C   0  0  1  0  0  0  0  0  0  0  0  0
    6.5466   -1.6777   21.7117 N   0  0  0  0  0  0  0  0  0  0  0  0
    6.0865   -2.8067   21.1173 C   0  0  0  0  0  0  0  0  0  0  0  0
    6.2705   -3.0678   19.9418 O   0  0  0  0  0  0  0  0  0  0  0  0
    5.3656   -3.7804   22.0289 C   0  0  0  0  0  0  0  0  0  0  0  0
    6.3378   -4.7568   22.7190 C   0  0  0  0  0  0  0  0  0  0  0  0
    7.3121   -4.0825   23.5501 N   0  0  0  0  0  0  0  0  0  0  0  0
    8.5975   -3.7454   23.1809 C   0  0  0  0  0  0  0  0  0  0  0  0
    9.1666   -2.9439   24.1215 C   0  0  0  0  0  0  0  0  0  0  0  0
    8.1826   -2.7188   25.1419 C   0  0  0  0  0  0  0  0  0  0  0  0
    8.0991   -1.9929   26.3451 C   0  0  0  0  0  0  0  0  0  0  0  0
    6.8886   -2.0371   27.0331 C   0  0  0  0  0  0  0  0  0  0  0  0
    5.8104   -2.7827   26.5176 C   0  0  0  0  0  0  0  0  0  0  0  0
    5.8487   -3.4821   25.3710 N   0  0  0  0  0  0  0  0  0  0  0  0
    7.0231   -3.4383   24.7374 C   0  0  0  0  0  0  0  0  0  0  0  0
    6.6209   -0.0315   19.8891 C   0  0  0  0  0  0  0  0  0  0  0  0
    5.4180    0.6401   20.1368 C   0  0  0  0  0  0  0  0  0  0  0  0
    4.7978    1.3153   19.0859 C   0  0  0  0  0  0  0  0  0  0  0  0
    5.4006    1.3014   17.8213 C   0  0  0  0  0  0  0  0  0  0  0  0
    6.5596    0.6810   17.5646 N   0  0  0  0  0  0  0  0  0  0  0  0
    7.1422    0.0402   18.5919 C   0  0  0  0  0  0  0  0  0  0  0  0
  1  2  1  0
  2  3  1  0
  4  3  1  1
  4  5  1  0
  5  6  1  0
  6  7  2  0
  6  8  1  0
  8  9  1  0
  9 10  1  0
 10 11  1  0
 11 12  2  0
 12 13  1  0
 13 14  2  0
 14 15  1  0
 15 16  2  0
 16 17  1  0
 17 18  2  0
  4 19  1  0
 19 20  2  0
 20 21  1  0
 21 22  2  0
 22 23  1  0
 23 24  2  0
 18 10  1  0
 24 19  1  0
 18 13  1  0
M  END
>  <plip>  (60) 
-0.20689655172413793

>  <filename>  (60) 
[H][c]1[n][c]([H])[c]([C@]([H])([N]([H])[C](=[O])[C]([H])([H])[C]([H])([H])[n]2[c]([H])[c]([H])[c]3[c]([H])[c]([H])[c]([H])[n][c]32)[C]([H])([H])[O][C]([H])([H])[H])[c]([H])[c]1[H]

>  <ID>  (60) 


$$$$

     RDKit          3D

 24 26  0  0  0  0  0  0  0  0999 V2000
   10.1597    0.7091   21.0620 C   0  0  0  0  0  0  0  0  0  0  0  0
    8.8586    1.3087   21.5090 N   0  0  0  0  0  4  0  0  0  0  0  0
    9.1373    2.3856   22.5026 C   0  0  0  0  0  0  0  0  0  0  0  0
    7.9142    0.2523   22.0880 C   0  0  0  0  0  0  0  0  0  0  0  0
    7.3690   -0.7243   21.0310 C   0  0  1  0  0  0  0  0  0  0  0  0
    6.5823   -1.7524   21.6874 N   0  0  0  0  0  0  0  0  0  0  0  0
    6.0634   -2.7845   20.9613 C   0  0  0  0  0  0  0  0  0  0  0  0
    6.2076   -2.8922   19.7571 O   0  0  0  0  0  0  0  0  0  0  0  0
    5.3039   -3.8330   21.7031 C   0  0  0  0  0  0  0  0  0  0  0  0
    4.9797   -5.0916   21.2955 C   0  0  0  0  0  0  0  0  0  0  0  0
    5.6226   -5.9522   19.9586 Cl  0  0  0  0  0  0  0  0  0  0  0  0
    3.9915   -5.5988   22.2078 C   0  0  0  0  0  0  0  0  0  0  0  0
    3.1265   -6.7132   22.2469 C   0  0  0  0  0  0  0  0  0  0  0  0
    2.2887   -6.8507   23.3488 C   0  0  0  0  0  0  0  0  0  0  0  0
    2.3114   -5.9060   24.4034 C   0  0  0  0  0  0  0  0  0  0  0  0
    3.1174   -4.7691   24.3536 C   0  0  0  0  0  0  0  0  0  0  0  0
    3.9263   -4.6294   23.2222 C   0  0  0  0  0  0  0  0  0  0  0  0
    4.7108   -3.5622   22.9212 O   0  0  0  0  0  0  0  0  0  0  0  0
    6.6013   -0.0129   19.9268 C   0  0  0  0  0  0  0  0  0  0  0  0
    5.3935    0.6599   20.1500 C   0  0  0  0  0  0  0  0  0  0  0  0
    4.7936    1.3272   19.0785 C   0  0  0  0  0  0  0  0  0  0  0  0
    5.4181    1.3030   17.8260 C   0  0  0  0  0  0  0  0  0  0  0  0
    6.5704    0.6589   17.5891 N   0  0  0  0  0  0  0  0  0  0  0  0
    7.1228    0.0125   18.6249 C   0  0  0  0  0  0  0  0  0  0  0  0
  1  2  1  0
  2  3  1  0
  2  4  1  0
  5  4  1  1
  5  6  1  0
  6  7  1  0
  7  8  2  0
  7  9  1  0
  9 10  2  0
 10 11  1  0
 10 12  1  0
 12 13  2  0
 13 14  1  0
 14 15  2  0
 15 16  1  0
 16 17  2  0
 17 18  1  0
  5 19  1  0
 19 20  2  0
 20 21  1  0
 21 22  2  0
 22 23  1  0
 23 24  2  0
 18  9  1  0
 24 19  1  0
 17 12  1  0
M  CHG  1   2   1
M  END
>  <plip>  (61) 
-0.20689655172413793

>  <filename>  (61) 
[H][c]1[n][c]([H])[c]([C]([H])([N]([H])[C](=[O])[c]2[o][c]3[c]([H])[c]([H])[c]([H])[c]([H])[c]3[c]2[Cl])[C]([H])([H])[N+]([H])([C]([H])([H])[H])[C]([H])([H])[H])[c]([H])[c]1[H]

>  <ID>  (61) 


$$$$

     RDKit          3D

 24 26  0  0  0  0  0  0  0  0999 V2000
    6.3005   -3.0936   19.9902 O   0  0  0  0  0  0  0  0  0  0  0  0
    6.0519   -2.7847   21.1395 C   0  0  0  0  0  0  0  0  0  0  0  0
    5.2349   -3.7004   22.0318 C   0  0  0  0  0  0  0  0  0  0  0  0
    6.0980   -4.6634   22.8700 C   0  0  1  0  0  0  0  0  0  0  0  0
    6.9773   -3.8483   23.6588 O   0  0  0  0  0  0  0  0  0  0  0  0
    7.4469   -4.3342   24.8528 C   0  0  0  0  0  0  0  0  0  0  0  0
    8.5143   -3.6624   25.4462 C   0  0  0  0  0  0  0  0  0  0  0  0
    8.9895   -4.0948   26.6907 C   0  0  0  0  0  0  0  0  0  0  0  0
    8.3921   -5.1841   27.3361 C   0  0  0  0  0  0  0  0  0  0  0  0
    7.3124   -5.8470   26.7452 C   0  0  0  0  0  0  0  0  0  0  0  0
    6.8362   -5.4281   25.5045 C   0  0  0  0  0  0  0  0  0  0  0  0
    5.7481   -6.0560   24.8863 N   0  0  0  0  0  0  0  0  0  0  0  0
    5.2508   -5.7127   23.6744 C   0  0  0  0  0  0  0  0  0  0  0  0
    4.2693   -6.2752   23.2308 O   0  0  0  0  0  0  0  0  0  0  0  0
    6.4802   -1.6347   21.7125 N   0  0  0  0  0  0  0  0  0  0  0  0
    7.3806   -0.7270   21.0128 C   0  0  2  0  0  0  0  0  0  0  0  0
    8.0539    0.2942   21.9574 C   0  0  0  0  0  0  0  0  0  0  0  0
    8.8449   -0.2799   22.9891 O   0  0  0  0  0  0  0  0  0  0  0  0
    6.6332   -0.0148   19.8950 C   0  0  0  0  0  0  0  0  0  0  0  0
    5.4249    0.6510   20.1377 C   0  0  0  0  0  0  0  0  0  0  0  0
    4.7987    1.3188   19.0866 C   0  0  0  0  0  0  0  0  0  0  0  0
    5.4012    1.3021   17.8234 C   0  0  0  0  0  0  0  0  0  0  0  0
    6.5614    0.6814   17.5692 N   0  0  0  0  0  0  0  0  0  0  0  0
    7.1504    0.0445   18.5941 C   0  0  0  0  0  0  0  0  0  0  0  0
  1  2  2  0
  2  3  1  0
  4  3  1  1
  4  5  1  0
  5  6  1  0
  6  7  2  0
  7  8  1  0
  8  9  2  0
  9 10  1  0
 10 11  2  0
 11 12  1  0
 12 13  1  0
 13 14  2  0
  2 15  1  0
 15 16  1  0
 16 17  1  1
 17 18  1  0
 16 19  1  0
 19 20  2  0
 20 21  1  0
 21 22  2  0
 22 23  1  0
 23 24  2  0
 13  4  1  0
 24 19  1  0
 11  6  1  0
M  END
>  <plip>  (62) 
-0.20689655172413793

>  <filename>  (62) 
[H][O][C]([H])([H])[C]([H])([c]1[c]([H])[n][c]([H])[c]([H])[c]1[H])[N]([H])[C](=[O])[C]([H])([H])[C]1([H])[O][c]2[c]([H])[c]([H])[c]([H])[c]([H])[c]2[N]([H])[C]1=[O]

>  <ID>  (62) 


$$$$

     RDKit          3D

 26 28  0  0  0  0  0  0  0  0999 V2000
   13.5230    4.3551   23.5193 C   0  0  0  0  0  0  0  0  0  0  0  0
   12.1721    4.1690   23.9170 O   0  0  0  0  0  0  0  0  0  0  0  0
   11.5616    5.0852   24.7224 C   0  0  0  0  0  0  0  0  0  0  0  0
   12.2213    6.1947   25.2711 C   0  0  0  0  0  0  0  0  0  0  0  0
   11.5185    7.1013   26.0687 C   0  0  0  0  0  0  0  0  0  0  0  0
   10.1665    6.9000   26.3496 C   0  0  0  0  0  0  0  0  0  0  0  0
    9.5176    5.7770   25.8362 C   0  0  0  0  0  0  0  0  0  0  0  0
   10.1931    4.8628   25.0076 C   0  0  0  0  0  0  0  0  0  0  0  0
    9.4788    3.6909   24.4608 C   0  0  0  0  0  0  0  0  0  0  0  0
    8.4172    3.1307   24.9953 N   0  0  0  0  0  0  0  0  0  0  0  0
    8.0131    2.1231   24.1807 N   0  0  0  0  0  0  0  0  0  0  0  0
    8.8164    2.0808   23.1417 C   0  0  0  0  0  0  0  0  0  0  0  0
    8.6825    1.1290   21.9451 C   0  0  0  0  0  0  0  0  0  0  0  0
    9.3998    1.2048   20.9574 O   0  0  0  0  0  0  0  0  0  0  0  0
    7.7179    0.1795   22.0926 N   0  0  0  0  0  0  0  0  0  0  0  0
    7.3481   -0.7414   21.0243 C   0  0  2  0  0  0  0  0  0  0  0  0
    6.6057    0.0199   19.9262 C   0  0  0  0  0  0  0  0  0  0  0  0
    5.3869    0.6891   20.1314 C   0  0  0  0  0  0  0  0  0  0  0  0
    4.7870    1.3340   19.0463 C   0  0  0  0  0  0  0  0  0  0  0  0
    5.4194    1.3044   17.8003 C   0  0  0  0  0  0  0  0  0  0  0  0
    6.5897    0.6889   17.5853 N   0  0  0  0  0  0  0  0  0  0  0  0
    7.1583    0.0845   18.6406 C   0  0  0  0  0  0  0  0  0  0  0  0
    6.5663   -1.9463   21.6102 C   0  0  0  0  0  0  0  0  0  0  0  0
    7.3621   -2.7372   22.6638 C   0  0  0  0  0  0  0  0  0  0  0  0
    6.0682   -2.9296   20.5427 C   0  0  0  0  0  0  0  0  0  0  0  0
    9.7754    3.0507   23.2946 N   0  0  0  0  0  0  0  0  0  0  0  0
  1  2  1  0
  2  3  1  0
  3  4  2  0
  4  5  1  0
  5  6  2  0
  6  7  1  0
  7  8  2  0
  8  9  1  0
  9 10  2  0
 10 11  1  0
 11 12  2  0
 12 13  1  0
 13 14  2  0
 13 15  1  0
 16 15  1  1
 16 17  1  0
 17 18  2  0
 18 19  1  0
 19 20  2  0
 20 21  1  0
 21 22  2  0
 16 23  1  0
 23 24  1  0
 23 25  1  0
 12 26  1  0
  8  3  1  0
 26  9  1  0
 22 17  1  0
M  END
>  <plip>  (63) 
-0.20689655172413793

>  <filename>  (63) 
[H][c]1[n][c]([H])[c]([C]([H])([N]([H])[C](=[O])[c]2[n][n][c](-[c]3[c]([H])[c]([H])[c]([H])[c]([H])[c]3[O][C]([H])([H])[H])[n]2[H])[C]([H])([C]([H])([H])[H])[C]([H])([H])[H])[c]([H])[c]1[H]

>  <ID>  (63) 


$$$$

     RDKit          3D

 25 27  0  0  0  0  0  0  0  0999 V2000
    5.9243   -3.3369   20.2512 O   0  0  0  0  0  0  0  0  0  0  0  0
    5.9355   -3.0387   21.4314 C   0  0  0  0  0  0  0  0  0  0  0  0
    5.4915   -4.0091   22.5412 C   0  0  0  0  0  0  0  0  0  0  0  0
    6.5222   -4.2312   23.6250 C   0  0  0  0  0  0  0  0  0  0  0  0
    7.5857   -5.0884   23.5952 C   0  0  0  0  0  0  0  0  0  0  0  0
    8.4251   -4.8429   24.6660 N   0  0  0  0  0  0  0  0  0  0  0  0
    7.9174   -3.8059   25.4078 C   0  0  0  0  0  0  0  0  0  0  0  0
    8.4191   -3.1565   26.5532 C   0  0  0  0  0  0  0  0  0  0  0  0
    7.6963   -2.0905   27.0777 C   0  0  0  0  0  0  0  0  0  0  0  0
    6.4660   -1.7116   26.4986 C   0  0  0  0  0  0  0  0  0  0  0  0
    5.5725   -0.4075   27.2344 Cl  0  0  0  0  0  0  0  0  0  0  0  0
    5.9575   -2.3472   25.3705 C   0  0  0  0  0  0  0  0  0  0  0  0
    6.7060   -3.4002   24.7920 C   0  0  0  0  0  0  0  0  0  0  0  0
    6.2925   -1.8023   21.8679 N   0  0  0  0  0  0  0  0  0  0  0  0
    7.1462   -0.9107   21.1100 C   0  0  2  0  0  0  0  0  0  0  0  0
    7.7835    0.0941   22.0761 C   0  0  0  0  0  0  0  0  0  0  0  0
    8.7318   -0.5458   23.0998 C   0  0  0  0  0  0  0  0  0  0  0  0
    9.2664    0.4565   24.1155 C   0  0  0  0  0  0  0  0  0  0  0  0
    8.2409    1.0235   24.9072 O   0  0  0  0  0  0  0  0  0  0  0  0
    6.4243   -0.2091   19.9737 C   0  0  0  0  0  0  0  0  0  0  0  0
    5.2561    0.5558   20.1240 C   0  0  0  0  0  0  0  0  0  0  0  0
    4.8057    1.2991   19.0258 C   0  0  0  0  0  0  0  0  0  0  0  0
    5.5288    1.2464   17.8264 C   0  0  0  0  0  0  0  0  0  0  0  0
    6.6269    0.4960   17.6500 N   0  0  0  0  0  0  0  0  0  0  0  0
    7.0452   -0.1972   18.7170 C   0  0  0  0  0  0  0  0  0  0  0  0
  1  2  2  0
  2  3  1  0
  3  4  1  0
  4  5  2  0
  5  6  1  0
  6  7  1  0
  7  8  2  0
  8  9  1  0
  9 10  2  0
 10 11  1  0
 10 12  1  0
 12 13  2  0
  2 14  1  0
 14 15  1  0
 15 16  1  1
 16 17  1  0
 17 18  1  0
 18 19  1  0
 15 20  1  0
 20 21  2  0
 21 22  1  0
 22 23  2  0
 23 24  1  0
 24 25  2  0
 13  4  1  0
 25 20  1  0
 13  7  1  0
M  END
>  <plip>  (64) 
-0.20689655172413793

>  <filename>  (64) 
[H][O][C]([H])([H])[C]([H])([H])[C]([H])([H])[C]([H])([c]1[c]([H])[n][c]([H])[c]([H])[c]1[H])[N]([H])[C](=[O])[C]([H])([H])[c]1[c]([H])[n]([H])[c]2[c]([H])[c]([H])[c]([Cl])[c]([H])[c]12

>  <ID>  (64) 


$$$$

     RDKit          3D

 24 26  0  0  0  0  0  0  0  0999 V2000
    9.4305    1.8861   22.0311 C   0  0  0  0  0  0  0  0  0  0  0  0
    8.8650    0.8261   21.2986 O   0  0  0  0  0  0  0  0  0  0  0  0
    7.8919    0.0800   21.9932 C   0  0  0  0  0  0  0  0  0  0  0  0
    7.2537   -0.9028   20.9990 C   0  0  1  0  0  0  0  0  0  0  0  0
    6.4023   -1.8457   21.7049 N   0  0  0  0  0  0  0  0  0  0  0  0
    5.9085   -2.9908   21.1492 C   0  0  0  0  0  0  0  0  0  0  0  0
    6.0903   -3.2894   19.9837 O   0  0  0  0  0  0  0  0  0  0  0  0
    5.1094   -3.8264   22.1127 C   0  0  0  0  0  0  0  0  0  0  0  0
    4.6736   -3.6022   23.3907 C   0  0  0  0  0  0  0  0  0  0  0  0
    3.7356   -4.6342   23.6941 C   0  0  0  0  0  0  0  0  0  0  0  0
    3.7570   -5.4933   22.5803 C   0  0  0  0  0  0  0  0  0  0  0  0
    4.5984   -5.0086   21.6353 O   0  0  0  0  0  0  0  0  0  0  0  0
    2.8898   -6.6032   22.5283 C   0  0  0  0  0  0  0  0  0  0  0  0
    2.8483   -7.4406   21.4898 F   0  0  0  0  0  0  0  0  0  0  0  0
    1.9924   -6.8091   23.5670 C   0  0  0  0  0  0  0  0  0  0  0  0
    1.9231   -5.9035   24.6454 C   0  0  0  0  0  0  0  0  0  0  0  0
    2.7885   -4.8191   24.7374 C   0  0  0  0  0  0  0  0  0  0  0  0
    2.6577   -3.8217   25.8481 C   0  0  0  0  0  0  0  0  0  0  0  0
    6.5158   -0.1732   19.8914 C   0  0  0  0  0  0  0  0  0  0  0  0
    5.3339    0.5473   20.1046 C   0  0  0  0  0  0  0  0  0  0  0  0
    4.8042    1.2843   19.0445 C   0  0  0  0  0  0  0  0  0  0  0  0
    5.4704    1.2722   17.8122 C   0  0  0  0  0  0  0  0  0  0  0  0
    6.5920    0.5752   17.5837 N   0  0  0  0  0  0  0  0  0  0  0  0
    7.0852   -0.1256   18.6149 C   0  0  0  0  0  0  0  0  0  0  0  0
  1  2  1  0
  2  3  1  0
  4  3  1  1
  4  5  1  0
  5  6  1  0
  6  7  2  0
  6  8  1  0
  8  9  2  0
  9 10  1  0
 10 11  2  0
 11 12  1  0
 11 13  1  0
 13 14  1  0
 13 15  2  0
 15 16  1  0
 16 17  2  0
 17 18  1  0
  4 19  1  0
 19 20  2  0
 20 21  1  0
 21 22  2  0
 22 23  1  0
 23 24  2  0
 12  8  1  0
 24 19  1  0
 17 10  1  0
M  END
>  <plip>  (65) 
-0.20689655172413793

>  <filename>  (65) 
[H][c]1[n][c]([H])[c]([C@]([H])([N]([H])[C](=[O])[c]2[o][c]3[c]([F])[c]([H])[c]([H])[c]([C]([H])([H])[H])[c]3[c]2[H])[C]([H])([H])[O][C]([H])([H])[H])[c]([H])[c]1[H]

>  <ID>  (65) 


$$$$

     RDKit          3D

 21 21  0  0  0  0  0  0  0  0999 V2000
    7.0929    2.7977   26.3996 C   0  0  0  0  0  0  0  0  0  0  0  0
    8.2098    1.7681   26.5885 C   0  0  0  0  0  0  0  0  0  0  0  0
    7.9128    0.3732   26.0291 C   0  0  2  0  0  0  0  0  0  0  0  0
    9.0008   -0.6258   26.4344 C   0  0  0  0  0  0  0  0  0  0  0  0
    7.7663    0.4318   24.5084 C   0  0  0  0  0  0  0  0  0  0  0  0
    7.4002   -1.1278   23.8058 S   0  0  0  0  0  0  0  0  0  0  0  0
    6.3251   -1.7566   24.5346 O   0  0  0  0  0  0  0  0  0  0  0  0
    8.6433   -1.8435   23.5648 O   0  0  0  0  0  0  0  0  0  0  0  0
    6.6654   -0.6419   22.4048 N   0  0  0  0  0  0  0  0  0  0  0  0
    7.4572   -0.5554   21.1886 C   0  0  1  0  0  0  0  0  0  0  0  0
    8.7401    0.2646   21.3710 C   0  0  0  0  0  0  0  0  0  0  0  0
    7.7920   -1.9829   20.7871 C   0  0  0  0  0  0  0  0  0  0  0  0
    6.4337   -2.6690   20.5542 C   0  0  0  0  0  0  0  0  0  0  0  0
    6.0282   -2.8128   19.3994 O   0  0  0  0  0  0  0  0  0  0  0  0
    5.8364   -2.9610   21.6216 O   0  0  0  0  0  1  0  0  0  0  0  0
    6.6407    0.1213   20.0831 C   0  0  0  0  0  0  0  0  0  0  0  0
    5.4112    0.7669   20.2634 C   0  0  0  0  0  0  0  0  0  0  0  0
    4.7952    1.3681   19.1596 C   0  0  0  0  0  0  0  0  0  0  0  0
    5.4305    1.3126   17.9152 C   0  0  0  0  0  0  0  0  0  0  0  0
    6.5885    0.6680   17.7112 N   0  0  0  0  0  0  0  0  0  0  0  0
    7.1503    0.0806   18.7768 C   0  0  0  0  0  0  0  0  0  0  0  0
  1  2  1  0
  2  3  1  0
  3  4  1  6
  3  5  1  0
  5  6  1  0
  6  7  2  0
  6  8  2  0
  6  9  1  0
  9 10  1  0
 10 11  1  1
 10 12  1  0
 12 13  1  0
 13 14  2  0
 13 15  1  0
 10 16  1  0
 16 17  2  0
 17 18  1  0
 18 19  2  0
 19 20  1  0
 20 21  2  0
 21 16  1  0
M  CHG  1  15  -1
M  END
>  <plip>  (66) 
-0.20689655172413793

>  <filename>  (66) 
[H][c]1[n][c]([H])[c]([C]([N]([H])[S](=[O])(=[O])[C]([H])([H])[C]([H])([C]([H])([H])[H])[C]([H])([H])[C]([H])([H])[H])([C]([H])([H])[H])[C]([H])([H])[C](=[O])[O-])[c]([H])[c]1[H]

>  <ID>  (66) 


$$$$

     RDKit          3D

 22 23  0  0  0  0  0  0  0  0999 V2000
   11.2513    2.5789   24.2278 C   0  0  0  0  0  0  0  0  0  0  0  0
   10.5554    1.4798   23.4055 C   0  0  1  0  0  0  0  0  0  0  0  0
    9.8432    2.1224   22.1900 C   0  0  0  0  0  0  0  0  0  0  0  0
    9.2058    1.1218   21.2390 N   0  0  0  0  0  4  0  0  0  0  0  0
    8.0758    0.3168   21.8822 C   0  0  0  0  0  0  0  0  0  0  0  0
    7.3529   -0.6845   20.9672 C   0  0  0  0  0  0  0  0  0  0  0  0
    6.5340   -1.3999   21.7920 F   0  0  0  0  0  0  0  0  0  0  0  0
    8.2793   -1.5736   20.4809 F   0  0  0  0  0  0  0  0  0  0  0  0
    6.5621   -0.0675   19.8480 C   0  0  0  0  0  0  0  0  0  0  0  0
    5.3650    0.6191   20.0920 C   0  0  0  0  0  0  0  0  0  0  0  0
    4.7943    1.3314   19.0377 C   0  0  0  0  0  0  0  0  0  0  0  0
    5.4313    1.3182   17.7903 C   0  0  0  0  0  0  0  0  0  0  0  0
    6.5543    0.6288   17.5415 N   0  0  0  0  0  0  0  0  0  0  0  0
    7.0892   -0.0628   18.5505 C   0  0  0  0  0  0  0  0  0  0  0  0
   11.5153    0.3950   22.9215 C   0  0  0  0  0  0  0  0  0  0  0  0
   11.1426   -0.9610   22.8356 C   0  0  0  0  0  0  0  0  0  0  0  0
   12.0190   -1.9524   22.3757 C   0  0  0  0  0  0  0  0  0  0  0  0
   13.2880   -1.5709   21.9626 C   0  0  0  0  0  0  0  0  0  0  0  0
   14.1566   -2.4868   21.5111 F   0  0  0  0  0  0  0  0  0  0  0  0
   13.6893   -0.2473   21.9785 C   0  0  0  0  0  0  0  0  0  0  0  0
   12.7795    0.7089   22.4057 C   0  0  0  0  0  0  0  0  0  0  0  0
   13.1520    1.9985   22.2761 F   0  0  0  0  0  0  0  0  0  0  0  0
  2  1  1  6
  2  3  1  0
  3  4  1  0
  4  5  1  0
  5  6  1  0
  6  7  1  0
  6  8  1  0
  6  9  1  0
  9 10  2  0
 10 11  1  0
 11 12  2  0
 12 13  1  0
 13 14  2  0
  2 15  1  0
 15 16  2  0
 16 17  1  0
 17 18  2  0
 18 19  1  0
 18 20  1  0
 20 21  2  0
 21 22  1  0
 14  9  1  0
 21 15  1  0
M  CHG  1   4   1
M  END
>  <plip>  (67) 
-0.2

>  <filename>  (67) 
[H][c]1[n][c]([H])[c]([C]([F])([F])[C]([H])([H])[N+]([H])([H])[C]([H])([H])[C]([H])([c]2[c]([H])[c]([H])[c]([F])[c]([H])[c]2[F])[C]([H])([H])[H])[c]([H])[c]1[H]

>  <ID>  (67) 


$$$$

     RDKit          3D

 26 28  0  0  0  0  0  0  0  0999 V2000
    6.9332    0.6970   24.0710 C   0  0  0  0  0  0  0  0  0  0  0  0
    7.1394    1.0652   22.7214 O   0  0  0  0  0  0  0  0  0  0  0  0
    8.0781    0.2719   22.0151 C   0  0  0  0  0  0  0  0  0  0  0  0
    8.9379    1.1009   21.2992 O   0  0  0  0  0  0  0  0  0  0  0  0
    9.7689    1.9054   22.1222 C   0  0  0  0  0  0  0  0  0  0  0  0
    7.4296   -0.7218   20.9855 C   0  0  1  0  0  0  0  0  0  0  0  0
    6.6312   -1.7714   21.6213 N   0  0  0  0  0  0  0  0  0  0  0  0
    7.1918   -2.7860   22.3501 C   0  0  0  0  0  0  0  0  0  0  0  0
    8.3944   -2.9666   22.3228 O   0  0  0  0  0  0  0  0  0  0  0  0
    6.1823   -3.6845   23.0994 C   0  0  1  0  0  0  0  0  0  0  0  0
    5.6788   -4.7572   22.0987 C   0  0  0  0  0  0  0  0  0  0  0  0
    6.8021   -5.7562   21.8242 C   0  0  0  0  0  0  0  0  0  0  0  0
    7.1116   -6.4838   23.1364 C   0  0  0  0  0  0  0  0  0  0  0  0
    7.3394   -5.5763   24.3548 C   0  0  0  0  0  0  0  0  0  0  0  0
    7.9958   -6.0415   25.5160 C   0  0  0  0  0  0  0  0  0  0  0  0
    8.1343   -5.2333   26.6421 C   0  0  0  0  0  0  0  0  0  0  0  0
    8.7674   -5.6603   27.7709 O   0  0  0  0  0  0  0  0  0  0  0  0
    7.6301   -3.9300   26.6363 C   0  0  0  0  0  0  0  0  0  0  0  0
    6.9783   -3.4556   25.4985 C   0  0  0  0  0  0  0  0  0  0  0  0
    6.8104   -4.2708   24.3592 C   0  0  0  0  0  0  0  0  0  0  0  0
    6.6248   -0.0402   19.8931 C   0  0  0  0  0  0  0  0  0  0  0  0
    5.4193    0.6332   20.1375 C   0  0  0  0  0  0  0  0  0  0  0  0
    4.7884    1.2919   19.0797 C   0  0  0  0  0  0  0  0  0  0  0  0
    5.3948    1.2744   17.8180 C   0  0  0  0  0  0  0  0  0  0  0  0
    6.5438    0.6352   17.5601 N   0  0  0  0  0  0  0  0  0  0  0  0
    7.1369    0.0124   18.5880 C   0  0  0  0  0  0  0  0  0  0  0  0
  1  2  1  0
  2  3  1  0
  3  4  1  0
  4  5  1  0
  3  6  1  0
  6  7  1  1
  7  8  1  0
  8  9  2  0
 10  8  1  6
 10 11  1  0
 11 12  1  0
 12 13  1  0
 13 14  1  0
 14 15  2  0
 15 16  1  0
 16 17  1  0
 16 18  2  0
 18 19  1  0
 19 20  2  0
  6 21  1  0
 21 22  2  0
 22 23  1  0
 23 24  2  0
 24 25  1  0
 25 26  2  0
 20 10  1  0
 26 21  1  0
 20 14  1  0
M  END
>  <plip>  (68) 
-0.2

>  <filename>  (68) 
[H][O][c]1[c]([H])[c]([H])[c]2[c]([c]1[H])[C]([H])([H])[C]([H])([H])[C]([H])([H])[C]2([H])[C](=[O])[N]([H])[C]([H])([c]1[c]([H])[n][c]([H])[c]([H])[c]1[H])[C]([H])([O][C]([H])([H])[H])[O][C]([H])([H])[H]

>  <ID>  (68) 


$$$$

     RDKit          3D

 19 21  0  0  0  0  0  0  0  0999 V2000
    9.8499   -6.6935   25.5115 O   0  0  0  0  0  0  0  0  0  0  0  0
    9.1001   -5.9480   24.6658 C   0  0  0  0  0  0  0  0  0  0  0  0
    8.7723   -6.5012   23.4170 C   0  0  0  0  0  0  0  0  0  0  0  0
    7.9805   -5.7690   22.5347 C   0  0  0  0  0  0  0  0  0  0  0  0
    7.6134   -4.4424   22.8066 C   0  0  0  0  0  0  0  0  0  0  0  0
    6.9316   -3.5482   21.7844 C   0  0  0  0  0  0  0  0  0  0  0  0
    7.3621   -2.0993   22.0175 C   0  0  1  0  0  0  0  0  0  0  0  0
    6.7288   -1.2278   20.9974 N   0  0  0  0  0  4  0  0  0  0  0  0
    7.2092    0.1708   20.8952 C   0  0  0  0  0  0  0  0  0  0  0  0
    6.5647    0.7261   19.6577 C   0  0  0  0  0  0  0  0  0  0  0  0
    5.4207    1.5334   19.7001 C   0  0  0  0  0  0  0  0  0  0  0  0
    4.7930    1.8761   18.4987 C   0  0  0  0  0  0  0  0  0  0  0  0
    5.3524    1.4220   17.3015 C   0  0  0  0  0  0  0  0  0  0  0  0
    6.4720    0.6880   17.2346 N   0  0  0  0  0  0  0  0  0  0  0  0
    7.0629    0.3702   18.3931 C   0  0  0  0  0  0  0  0  0  0  0  0
    7.0646   -1.7431   23.4926 C   0  0  0  0  0  0  0  0  0  0  0  0
    7.7847   -2.5942   24.3912 O   0  0  0  0  0  0  0  0  0  0  0  0
    7.9918   -3.9014   24.0564 C   0  0  0  0  0  0  0  0  0  0  0  0
    8.6718   -4.6669   25.0083 C   0  0  0  0  0  0  0  0  0  0  0  0
  1  2  1  0
  2  3  2  0
  3  4  1  0
  4  5  2  0
  5  6  1  0
  6  7  1  0
  7  8  1  6
  8  9  1  0
  9 10  1  0
 10 11  2  0
 11 12  1  0
 12 13  2  0
 13 14  1  0
 14 15  2  0
  7 16  1  0
 16 17  1  0
 17 18  1  0
 18 19  2  0
 19  2  1  0
 18  5  1  0
 15 10  1  0
M  CHG  1   8   1
M  END
>  <plip>  (69) 
-0.2

>  <filename>  (69) 
[H][O][c]1[c]([H])[c]([H])[c]2[c]([c]1[H])[O][C]([H])([H])[C]([H])([N+]([H])([H])[C]([H])([H])[c]1[c]([H])[n][c]([H])[c]([H])[c]1[H])[C]2([H])[H]

>  <ID>  (69) 


$$$$

     RDKit          3D

 23 26  0  0  0  0  0  0  0  0999 V2000
    5.4450    1.3068   17.6952 C   0  0  0  0  0  0  0  0  0  0  0  0
    6.5852    0.6536   17.4140 N   0  0  0  0  0  0  0  0  0  0  0  0
    7.2544    0.1080   18.4380 C   0  0  0  0  0  0  0  0  0  0  0  0
    6.8161    0.1574   19.7808 C   0  0  0  0  0  0  0  0  0  0  0  0
    7.5261   -0.5134   20.8426 N   0  0  0  0  0  0  0  0  0  0  0  0
    8.8735   -0.2871   21.0693 C   0  0  0  0  0  0  0  0  0  0  0  0
    9.5490    0.5173   20.4634 O   0  0  0  0  0  0  0  0  0  0  0  0
    9.4340   -1.1849   22.1506 C   0  0  0  0  0  0  0  0  0  0  0  0
    8.0917   -2.1635   22.8564 S   0  0  0  0  0  0  0  0  0  0  0  0
    6.8293   -1.4949   21.6864 C   0  0  2  0  0  0  0  0  0  0  0  0
    6.1654   -2.5929   20.8260 C   0  0  0  0  0  0  0  0  0  0  0  0
    5.5604   -3.6556   21.6143 N   0  0  0  0  0  0  0  0  0  0  0  0
    5.6572   -4.9831   21.1214 C   0  0  1  0  0  0  0  0  0  0  0  0
    7.0218   -5.5873   21.1612 C   0  0  0  0  0  0  0  0  0  0  0  0
    5.9057   -6.2238   22.0647 C   0  0  1  0  0  0  0  0  0  0  0  0
    5.8008   -6.4420   23.6103 C   0  0  0  0  0  0  0  0  0  0  0  0
    6.0377   -6.2289   23.7375 C   0  0  0  0  0  0  0  0  0  0  0  0
    6.3661   -5.5541   25.7000 C   0  0  0  0  0  0  0  0  0  0  0  0
    5.2444   -4.9783   26.1243 C   0  0  0  0  0  0  0  0  0  0  0  0
    4.1408   -5.0799   25.1315 C   0  0  0  0  0  0  0  0  0  0  0  0
    4.4995   -5.7427   23.9685 C   0  0  0  0  0  0  0  0  0  0  0  0
    5.6252    0.8389   20.0540 C   0  0  0  0  0  0  0  0  0  0  0  0
    4.9306    1.4279   18.9902 C   0  0  0  0  0  0  0  0  0  0  0  0
  1  2  2  0
  2  3  1  0
  3  4  2  0
  4  5  1  0
  5  6  1  0
  6  7  2  0
  6  8  1  0
  8  9  1  0
  9 10  1  0
 10 11  1  6
 11 12  1  0
 13 12  1  1
 13 14  1  0
 14 15  1  0
 15 16  1  1
 16 17  2  0
 17 18  1  0
 18 19  2  0
 19 20  1  0
 20 21  2  0
  4 22  1  0
 22 23  2  0
 23  1  1  0
 10  5  1  0
 15 13  1  0
 21 16  1  0
M  END
>  <plip>  (70) 
-0.2

>  <filename>  (70) 
[H][c]1[n][c]([H])[c]([N]2[C](=[O])[C]([H])([H])[S][C@]2([H])[C]([H])([H])[N]([H])[C@@]2([H])[C]([H])([H])[C@@]2([H])[c]2[c]([H])[c]([H])[c]([H])[c]([H])[c]2[H])[c]([H])[c]1[H]

>  <ID>  (70) 


$$$$

     RDKit          3D

 25 27  0  0  0  0  0  0  0  0999 V2000
    9.5870    1.9739   22.1419 C   0  0  0  0  0  0  0  0  0  0  0  0
    8.9752    0.9793   21.3577 O   0  0  0  0  0  0  0  0  0  0  0  0
    7.9749    0.2343   22.0197 C   0  0  0  0  0  0  0  0  0  0  0  0
    7.3595   -0.7361   20.9994 C   0  0  1  0  0  0  0  0  0  0  0  0
    6.4860   -1.6819   21.6788 N   0  0  0  0  0  0  0  0  0  0  0  0
    6.0018   -2.8132   21.0904 C   0  0  0  0  0  0  0  0  0  0  0  0
    6.0898   -3.0331   19.8950 O   0  0  0  0  0  0  0  0  0  0  0  0
    5.3924   -3.8215   22.0563 C   0  0  0  0  0  0  0  0  0  0  0  0
    6.4351   -4.7821   22.6969 C   0  0  0  0  0  0  0  0  0  0  0  0
    7.4534   -4.0177   23.5182 C   0  0  0  0  0  0  0  0  0  0  0  0
    8.7081   -3.6836   22.9465 C   0  0  0  0  0  0  0  0  0  0  0  0
    9.5548   -2.7582   23.5180 C   0  0  0  0  0  0  0  0  0  0  0  0
    9.1841   -2.1026   24.7348 C   0  0  0  0  0  0  0  0  0  0  0  0
    9.9166   -1.0534   25.3632 C   0  0  0  0  0  0  0  0  0  0  0  0
    9.4719   -0.5557   26.5718 C   0  0  0  0  0  0  0  0  0  0  0  0
    8.2811   -1.0714   27.1398 C   0  0  0  0  0  0  0  0  0  0  0  0
    7.5446   -2.0031   26.5805 N   0  0  0  0  0  0  0  0  0  0  0  0
    7.9675   -2.5149   25.3797 C   0  0  0  0  0  0  0  0  0  0  0  0
    7.1351   -3.4818   24.7540 C   0  0  0  0  0  0  0  0  0  0  0  0
    6.6012   -0.0325   19.8918 C   0  0  0  0  0  0  0  0  0  0  0  0
    5.3935    0.6378   20.1176 C   0  0  0  0  0  0  0  0  0  0  0  0
    4.8022    1.3226   19.0530 C   0  0  0  0  0  0  0  0  0  0  0  0
    5.4352    1.3098   17.8019 C   0  0  0  0  0  0  0  0  0  0  0  0
    6.5767    0.6535   17.5585 N   0  0  0  0  0  0  0  0  0  0  0  0
    7.1263    0.0010   18.5971 C   0  0  0  0  0  0  0  0  0  0  0  0
  1  2  1  0
  2  3  1  0
  4  3  1  1
  4  5  1  0
  5  6  1  0
  6  7  2  0
  6  8  1  0
  8  9  1  0
  9 10  1  0
 10 11  2  0
 11 12  1  0
 12 13  2  0
 13 14  1  0
 14 15  2  0
 15 16  1  0
 16 17  2  0
 17 18  1  0
 18 19  2  0
  4 20  1  0
 20 21  2  0
 21 22  1  0
 22 23  2  0
 23 24  1  0
 24 25  2  0
 19 10  1  0
 25 20  1  0
 18 13  1  0
M  END
>  <plip>  (71) 
-0.2

>  <filename>  (71) 
[H][c]1[n][c]([H])[c]([C@]([H])([N]([H])[C](=[O])[C]([H])([H])[C]([H])([H])[c]2[c]([H])[c]([H])[c]3[c]([H])[c]([H])[c]([H])[n][c]3[c]2[H])[C]([H])([H])[O][C]([H])([H])[H])[c]([H])[c]1[H]

>  <ID>  (71) 


$$$$

     RDKit          3D

 26 29  0  0  0  0  0  0  0  0999 V2000
   10.1896    1.2867   22.4785 C   0  0  0  0  0  0  0  0  0  0  0  0
    9.3497    0.4960   21.6149 O   0  0  0  0  0  0  0  0  0  0  0  0
    8.0709    0.3178   21.9915 C   0  0  0  0  0  0  0  0  0  0  0  0
    7.5574    0.8589   22.9459 O   0  0  0  0  0  0  0  0  0  0  0  0
    7.3454   -0.7122   21.0574 C   0  0  1  0  0  0  0  0  0  0  0  0
    6.4700   -1.5740   21.8430 N   0  0  0  0  0  0  0  0  0  0  0  0
    5.8825   -2.7188   21.4009 C   0  0  0  0  0  0  0  0  0  0  0  0
    6.0054   -3.1404   20.2654 O   0  0  0  0  0  0  0  0  0  0  0  0
    5.0503   -3.3983   22.4600 C   0  0  2  0  0  0  0  0  0  0  0  0
    5.4226   -3.4564   23.9130 C   0  0  0  0  0  0  0  0  0  0  0  0
    5.4604   -4.7240   23.1086 C   0  0  2  0  0  0  0  0  0  0  0  0
    6.7781   -5.3562   22.6330 C   0  0  0  0  0  0  0  0  0  0  0  0
    6.5436   -6.4430   21.5386 C   0  0  0  0  0  0  0  0  0  0  0  0
    5.1214   -6.3922   20.9436 C   0  0  0  0  0  0  0  0  0  0  0  0
    4.0672   -6.4521   22.0429 C   0  0  0  0  0  0  0  0  0  0  0  0
    2.8626   -7.1653   21.9542 C   0  0  0  0  0  0  0  0  0  0  0  0
    1.9925   -7.2428   23.0449 C   0  0  0  0  0  0  0  0  0  0  0  0
    2.3433   -6.6380   24.2546 C   0  0  0  0  0  0  0  0  0  0  0  0
    3.5123   -5.8811   24.3447 C   0  0  0  0  0  0  0  0  0  0  0  0
    4.3364   -5.7190   23.2167 C   0  0  0  0  0  0  0  0  0  0  0  0
    6.5919   -0.0470   19.9014 C   0  0  0  0  0  0  0  0  0  0  0  0
    5.4114    0.6818   20.1003 C   0  0  0  0  0  0  0  0  0  0  0  0
    4.8357    1.3291   19.0052 C   0  0  0  0  0  0  0  0  0  0  0  0
    5.4553    1.2327   17.7547 C   0  0  0  0  0  0  0  0  0  0  0  0
    6.5684    0.5164   17.5363 N   0  0  0  0  0  0  0  0  0  0  0  0
    7.1018   -0.1066   18.5950 C   0  0  0  0  0  0  0  0  0  0  0  0
  1  2  1  0
  2  3  1  0
  3  4  2  0
  3  5  1  0
  5  6  1  1
  6  7  1  0
  7  8  2  0
  9  7  1  6
  9 10  1  0
 11 10  1  1
 11 12  1  0
 12 13  1  0
 13 14  1  0
 14 15  1  0
 15 16  2  0
 16 17  1  0
 17 18  2  0
 18 19  1  0
 19 20  2  0
  5 21  1  0
 21 22  2  0
 22 23  1  0
 23 24  2  0
 24 25  1  0
 25 26  2  0
 11  9  1  0
 20 15  1  0
 26 21  1  0
 20 11  1  0
M  END
>  <plip>  (72) 
-0.2

>  <filename>  (72) 
[H][c]1[n][c]([H])[c]([C]([H])([C](=[O])[O][C]([H])([H])[H])[N]([H])[C](=[O])[C@]2([H])[C]([H])([H])[C@@]23[c]2[c]([H])[c]([H])[c]([H])[c]([H])[c]2[C]([H])([H])[C]([H])([H])[C]3([H])[H])[c]([H])[c]1[H]

>  <ID>  (72) 


$$$$

     RDKit          3D

 25 27  0  0  0  0  0  0  0  0999 V2000
    6.9121   -6.0759   21.9345 C   0  0  0  0  0  0  0  0  0  0  0  0
    7.4815   -5.6298   23.2561 C   0  0  0  0  0  0  0  0  0  0  0  0
    8.6181   -6.2310   23.7986 C   0  0  0  0  0  0  0  0  0  0  0  0
    9.0809   -5.9211   25.0977 C   0  0  0  0  0  0  0  0  0  0  0  0
    8.4294   -4.9930   25.8930 C   0  0  0  0  0  0  0  0  0  0  0  0
    7.3241   -4.3310   25.3363 C   0  0  0  0  0  0  0  0  0  0  0  0
    6.8591   -4.6109   24.0212 C   0  0  0  0  0  0  0  0  0  0  0  0
    5.7963   -3.6824   23.7483 C   0  0  0  0  0  0  0  0  0  0  0  0
    5.0846   -3.4514   22.4396 C   0  0  0  0  0  0  0  0  0  0  0  0
    5.8126   -2.6421   21.3577 C   0  0  0  0  0  0  0  0  0  0  0  0
    5.7135   -2.9445   20.1780 O   0  0  0  0  0  0  0  0  0  0  0  0
    6.5087   -1.5501   21.7816 N   0  0  0  0  0  0  0  0  0  0  0  0
    7.3811   -0.7942   20.8930 C   0  0  2  0  0  0  0  0  0  0  0  0
    8.3105    0.1172   21.7309 C   0  0  0  0  0  0  0  0  0  0  0  0
    7.7293    1.3992   22.3580 C   0  0  0  0  0  0  0  0  0  0  0  0
    8.8007    2.3186   22.9447 C   0  0  0  0  0  0  0  0  0  0  0  0
    9.4051    1.7932   24.1116 O   0  0  0  0  0  0  0  0  0  0  0  0
    6.5985   -0.0855   19.7914 C   0  0  0  0  0  0  0  0  0  0  0  0
    5.3969    0.6072   20.0048 C   0  0  0  0  0  0  0  0  0  0  0  0
    4.8392    1.3422   18.9524 C   0  0  0  0  0  0  0  0  0  0  0  0
    5.4814    1.3351   17.7101 C   0  0  0  0  0  0  0  0  0  0  0  0
    6.6018    0.6392   17.4652 N   0  0  0  0  0  0  0  0  0  0  0  0
    7.1247   -0.0510   18.4889 C   0  0  0  0  0  0  0  0  0  0  0  0
    5.6184   -2.9471   24.8850 C   0  0  0  0  0  0  0  0  0  0  0  0
    6.5220   -3.3415   25.8474 N   0  0  0  0  0  0  0  0  0  0  0  0
  1  2  1  0
  2  3  2  0
  3  4  1  0
  4  5  2  0
  5  6  1  0
  6  7  2  0
  7  8  1  0
  8  9  1  0
  9 10  1  0
 10 11  2  0
 10 12  1  0
 12 13  1  0
 13 14  1  1
 14 15  1  0
 15 16  1  0
 16 17  1  0
 13 18  1  0
 18 19  2  0
 19 20  1  0
 20 21  2  0
 21 22  1  0
 22 23  2  0
  8 24  2  0
 24 25  1  0
  7  2  1  0
 23 18  1  0
 25  6  1  0
M  END
>  <plip>  (73) 
-0.2

>  <filename>  (73) 
[H][O][C]([H])([H])[C]([H])([H])[C]([H])([H])[C]([H])([c]1[c]([H])[n][c]([H])[c]([H])[c]1[H])[N]([H])[C](=[O])[C]([H])([H])[c]1[c]([H])[n]([H])[c]2[c]([H])[c]([H])[c]([H])[c]([C]([H])([H])[H])[c]12

>  <ID>  (73) 


$$$$

     RDKit          3D

 23 24  0  0  0  0  0  0  0  0999 V2000
    7.4997   -1.9209   24.6130 C   0  0  0  0  0  0  0  0  0  0  0  0
    6.4058   -2.7222   23.9436 C   0  0  0  0  0  0  0  0  0  0  0  0
    6.5896   -3.2261   22.6442 C   0  0  0  0  0  0  0  0  0  0  0  0
    7.8602   -3.0747   21.8323 C   0  0  0  0  0  0  0  0  0  0  0  0
    7.5011   -2.1756   20.7098 N   0  0  0  0  0  4  0  0  0  0  0  0
    7.3189   -0.7247   21.0702 C   0  0  1  0  0  0  0  0  0  0  0  0
    8.6388    0.0004   21.3936 C   0  0  0  0  0  0  0  0  0  0  0  0
    8.4244    1.4365   21.8786 C   0  0  0  0  0  0  0  0  0  0  0  0
    9.6946    2.0458   22.4479 N   0  0  0  0  0  4  0  0  0  0  0  0
   10.7232    2.3504   21.3925 C   0  0  0  0  0  0  0  0  0  0  0  0
    9.3855    3.3040   23.1927 C   0  0  0  0  0  0  0  0  0  0  0  0
    6.5846   -0.0842   19.9258 C   0  0  0  0  0  0  0  0  0  0  0  0
    5.3879    0.6156   20.1317 C   0  0  0  0  0  0  0  0  0  0  0  0
    4.8102    1.2994   19.0609 C   0  0  0  0  0  0  0  0  0  0  0  0
    5.4514    1.2593   17.8193 C   0  0  0  0  0  0  0  0  0  0  0  0
    6.5875    0.5824   17.5983 N   0  0  0  0  0  0  0  0  0  0  0  0
    7.1296   -0.0733   18.6340 C   0  0  0  0  0  0  0  0  0  0  0  0
    5.4931   -3.8133   21.9982 C   0  0  0  0  0  0  0  0  0  0  0  0
    5.6348   -4.0735   20.6515 O   0  0  0  0  0  0  0  0  0  0  0  0
    4.2974   -4.0955   22.6350 C   0  0  0  0  0  0  0  0  0  0  0  0
    4.1367   -3.6158   23.9328 C   0  0  0  0  0  0  0  0  0  0  0  0
    2.9478   -3.8172   24.5499 O   0  0  0  0  0  0  0  0  0  0  0  0
    5.1692   -2.9228   24.5794 C   0  0  0  0  0  0  0  0  0  0  0  0
  1  2  1  0
  2  3  2  0
  3  4  1  0
  4  5  1  0
  5  6  1  0
  6  7  1  6
  7  8  1  0
  8  9  1  0
  9 10  1  0
  9 11  1  0
  6 12  1  0
 12 13  2  0
 13 14  1  0
 14 15  2  0
 15 16  1  0
 16 17  2  0
  3 18  1  0
 18 19  1  0
 18 20  2  0
 20 21  1  0
 21 22  1  0
 21 23  2  0
 23  2  1  0
 17 12  1  0
M  CHG  2   5   1   9   1
M  END
>  <plip>  (74) 
-0.2

>  <filename>  (74) 
[H][O][c]1[c]([H])[c]([O][H])[c]([C]([H])([H])[N+]([H])([H])[C]([H])([c]2[c]([H])[n][c]([H])[c]([H])[c]2[H])[C]([H])([H])[C]([H])([H])[N+]([H])([C]([H])([H])[H])[C]([H])([H])[H])[c]([C]([H])([H])[H])[c]1[H]

>  <ID>  (74) 


$$$$

     RDKit          3D

 24 27  0  0  0  0  0  0  0  0999 V2000
    6.0228   -2.9870   19.7639 O   0  0  0  0  0  0  0  0  0  0  0  0
    6.0074   -2.9440   20.9890 C   0  0  0  0  0  0  0  0  0  0  0  0
    6.4633   -1.8899   21.7092 N   0  0  0  0  0  0  0  0  0  0  0  0
    7.2492   -0.8261   21.1137 C   0  0  2  0  0  0  0  0  0  0  0  0
    7.7175    0.1323   22.2279 C   0  0  0  0  0  0  0  0  0  0  0  0
    8.6575    1.2713   21.7908 C   0  0  0  0  0  0  0  0  0  0  0  0
   10.0166    0.8252   21.2917 C   0  0  0  0  0  0  0  0  0  0  0  0
   11.1908    1.7565   21.3772 C   0  0  0  0  0  0  0  0  0  0  0  0
   11.1507    0.5116   22.2285 C   0  0  0  0  0  0  0  0  0  0  0  0
    6.5065   -0.1210   19.9804 C   0  0  0  0  0  0  0  0  0  0  0  0
    5.3030    0.5807   20.1491 C   0  0  0  0  0  0  0  0  0  0  0  0
    4.7790    1.2848   19.0592 C   0  0  0  0  0  0  0  0  0  0  0  0
    5.4626    1.2515   17.8384 C   0  0  0  0  0  0  0  0  0  0  0  0
    6.5866    0.5481   17.6380 N   0  0  0  0  0  0  0  0  0  0  0  0
    7.0678   -0.1220   18.6945 C   0  0  0  0  0  0  0  0  0  0  0  0
    5.4771   -4.0714   21.7539 C   0  0  0  0  0  0  0  0  0  0  0  0
    5.0740   -5.2948   21.2709 C   0  0  0  0  0  0  0  0  0  0  0  0
    4.5141   -6.0165   22.2856 N   0  0  0  0  0  0  0  0  0  0  0  0
    4.5513   -5.2807   23.4556 C   0  0  0  0  0  0  0  0  0  0  0  0
    4.0392   -5.4892   24.7447 C   0  0  0  0  0  0  0  0  0  0  0  0
    4.2733   -4.4667   25.6622 C   0  0  0  0  0  0  0  0  0  0  0  0
    5.0049   -3.3127   25.2850 C   0  0  0  0  0  0  0  0  0  0  0  0
    5.4701   -3.0907   24.0611 N   0  0  0  0  0  0  0  0  0  0  0  0
    5.2005   -4.0571   23.1495 C   0  0  0  0  0  0  0  0  0  0  0  0
  1  2  2  0
  2  3  1  0
  3  4  1  0
  4  5  1  1
  5  6  1  0
  6  7  1  0
  7  8  1  0
  8  9  1  0
  4 10  1  0
 10 11  2  0
 11 12  1  0
 12 13  2  0
 13 14  1  0
 14 15  2  0
  2 16  1  0
 16 17  2  0
 17 18  1  0
 18 19  1  0
 19 20  2  0
 20 21  1  0
 21 22  2  0
 22 23  1  0
 23 24  2  0
  9  7  1  0
 15 10  1  0
 24 16  1  0
 24 19  1  0
M  END
>  <plip>  (75) 
-0.2

>  <filename>  (75) 
[H][c]1[n][c]([H])[c]([C]([H])([N]([H])[C](=[O])[c]2[c]([H])[n]([H])[c]3[c]([H])[c]([H])[c]([H])[n][c]23)[C]([H])([H])[C]([H])([H])[C]2([H])[C]([H])([H])[C]2([H])[H])[c]([H])[c]1[H]

>  <ID>  (75) 


$$$$

     RDKit          3D

 25 27  0  0  0  0  0  0  0  0999 V2000
    6.8186   -0.7128   22.3459 C   0  0  0  0  0  0  0  0  0  0  0  0
    7.3988   -0.8173   20.9179 C   0  0  2  0  0  0  0  0  0  0  0  0
    7.5542   -2.2381   20.5845 N   0  0  0  0  0  0  0  0  0  0  0  0
    6.5115   -3.1329   20.5329 C   0  0  0  0  0  0  0  0  0  0  0  0
    5.3697   -2.8247   20.2593 O   0  0  0  0  0  0  0  0  0  0  0  0
    6.8825   -4.6401   20.7213 C   0  0  2  0  0  0  0  0  0  0  0  0
    5.7230   -5.5132   21.2162 C   0  0  0  0  0  0  0  0  0  0  0  0
    5.3366   -5.3504   22.6777 C   0  0  0  0  0  0  0  0  0  0  0  0
    6.3223   -5.8852   23.5604 O   0  0  0  0  0  0  0  0  0  0  0  0
    7.4178   -5.0832   23.7835 C   0  0  0  0  0  0  0  0  0  0  0  0
    7.7351   -4.8028   25.1205 C   0  0  0  0  0  0  0  0  0  0  0  0
    8.7744   -3.9280   25.4537 C   0  0  0  0  0  0  0  0  0  0  0  0
    9.5394   -3.3431   24.4401 C   0  0  0  0  0  0  0  0  0  0  0  0
    9.2692   -3.6565   23.1052 C   0  0  0  0  0  0  0  0  0  0  0  0
    8.2249   -4.5276   22.7594 C   0  0  0  0  0  0  0  0  0  0  0  0
    8.1138   -4.8668   21.4232 O   0  0  0  0  0  0  0  0  0  0  0  0
    9.0961    0.0478   21.0372 C   0  0  0  0  0  0  0  0  0  0  0  0
    9.9416   -0.7110   21.5070 O   0  0  0  0  0  0  0  0  0  0  0  0
    9.1062    1.2088   20.6490 O   0  0  0  0  0  1  0  0  0  0  0  0
    6.5804   -0.1466   19.8317 C   0  0  0  0  0  0  0  0  0  0  0  0
    5.4482    0.6395   20.0863 C   0  0  0  0  0  0  0  0  0  0  0  0
    4.8593    1.3483   19.0345 C   0  0  0  0  0  0  0  0  0  0  0  0
    5.4160    1.2296   17.7567 C   0  0  0  0  0  0  0  0  0  0  0  0
    6.4583    0.4382   17.4676 N   0  0  0  0  0  0  0  0  0  0  0  0
    7.0035   -0.2402   18.4895 C   0  0  0  0  0  0  0  0  0  0  0  0
  2  1  1  1
  2  3  1  0
  3  4  1  0
  4  5  2  0
  6  4  1  1
  6  7  1  0
  7  8  1  0
  8  9  1  0
  9 10  1  0
 10 11  2  0
 11 12  1  0
 12 13  2  0
 13 14  1  0
 14 15  2  0
 15 16  1  0
  2 17  1  0
 17 18  2  0
 17 19  1  0
  2 20  1  0
 20 21  2  0
 21 22  1  0
 22 23  2  0
 23 24  1  0
 24 25  2  0
 16  6  1  0
 25 20  1  0
 15 10  1  0
M  CHG  1  19  -1
M  END
>  <plip>  (76) 
-0.2

>  <filename>  (76) 
[H][c]1[n][c]([H])[c]([C]([C](=[O])[O-])([N]([H])[C](=[O])[C]2([H])[O][c]3[c]([H])[c]([H])[c]([H])[c]([H])[c]3[O][C]([H])([H])[C]2([H])[H])[C]([H])([H])[H])[c]([H])[c]1[H]

>  <ID>  (76) 


$$$$

     RDKit          3D

 25 27  0  0  0  0  0  0  0  0999 V2000
    8.7020   -1.1680   21.0370 C   0  0  0  0  0  0  0  0  0  0  0  0
    7.2970   -0.5716   21.2193 C   0  0  1  0  0  0  0  0  0  0  0  0
    6.4007   -1.5487   21.8288 N   0  0  0  0  0  0  0  0  0  0  0  0
    5.9522   -2.6995   21.2458 C   0  0  0  0  0  0  0  0  0  0  0  0
    6.1892   -3.0324   20.0967 O   0  0  0  0  0  0  0  0  0  0  0  0
    5.0784   -3.5493   22.1441 C   0  0  0  0  0  0  0  0  0  0  0  0
    5.8384   -4.4838   23.0694 C   0  0  2  0  0  0  0  0  0  0  0  0
    4.8334   -5.2540   23.9354 C   0  0  0  0  0  0  0  0  0  0  0  0
    5.5591   -6.1964   25.3122 S   0  0  0  0  0  0  0  0  0  0  0  0
    7.1024   -5.3501   25.5593 C   0  0  0  0  0  0  0  0  0  0  0  0
    7.9418   -5.7689   26.6039 C   0  0  0  0  0  0  0  0  0  0  0  0
    9.2251   -5.2317   26.7425 C   0  0  0  0  0  0  0  0  0  0  0  0
    9.6892   -4.2839   25.8259 C   0  0  0  0  0  0  0  0  0  0  0  0
    8.8392   -3.8083   24.8251 C   0  0  0  0  0  0  0  0  0  0  0  0
    7.5291   -4.2924   24.7290 C   0  0  0  0  0  0  0  0  0  0  0  0
    6.6961   -3.6573   23.8492 O   0  0  0  0  0  0  0  0  0  0  0  0
    7.6121    0.9037   22.3776 C   0  0  0  0  0  0  0  0  0  0  0  0
    6.8839    0.9115   23.3670 O   0  0  0  0  0  0  0  0  0  0  0  0
    8.5057    1.6313   21.9524 O   0  0  0  0  0  1  0  0  0  0  0  0
    6.6808   -0.0170   19.9379 C   0  0  0  0  0  0  0  0  0  0  0  0
    5.6507    0.9344   20.0210 C   0  0  0  0  0  0  0  0  0  0  0  0
    5.2050    1.5509   18.8477 C   0  0  0  0  0  0  0  0  0  0  0  0
    5.7778    1.1749   17.6275 C   0  0  0  0  0  0  0  0  0  0  0  0
    6.7056    0.2158   17.5086 N   0  0  0  0  0  0  0  0  0  0  0  0
    7.1152   -0.3744   18.6432 C   0  0  0  0  0  0  0  0  0  0  0  0
  2  1  1  6
  2  3  1  0
  3  4  1  0
  4  5  2  0
  4  6  1  0
  7  6  1  6
  7  8  1  0
  8  9  1  0
  9 10  1  0
 10 11  2  0
 11 12  1  0
 12 13  2  0
 13 14  1  0
 14 15  2  0
 15 16  1  0
  2 17  1  0
 17 18  2  0
 17 19  1  0
  2 20  1  0
 20 21  2  0
 21 22  1  0
 22 23  2  0
 23 24  1  0
 24 25  2  0
 16  7  1  0
 25 20  1  0
 15 10  1  0
M  CHG  1  19  -1
M  END
>  <plip>  (77) 
-0.2

>  <filename>  (77) 
[H][c]1[n][c]([H])[c]([C]([C](=[O])[O-])([N]([H])[C](=[O])[C]([H])([H])[C]2([H])[O][c]3[c]([H])[c]([H])[c]([H])[c]([H])[c]3[S][C]2([H])[H])[C]([H])([H])[H])[c]([H])[c]1[H]

>  <ID>  (77) 


$$$$

     RDKit          3D

 20 20  0  0  0  0  0  0  0  0999 V2000
    1.1427   -6.3065   21.7892 C   0  0  0  0  0  0  0  0  0  0  0  0
    1.6549   -5.0829   22.5530 C   0  0  0  0  0  0  0  0  0  0  0  0
    2.8163   -5.3188   23.3286 O   0  0  0  0  0  0  0  0  0  0  0  0
    4.1061   -5.1504   22.7518 C   0  0  0  0  0  0  0  0  0  0  0  0
    4.6891   -3.7758   23.1094 C   0  0  0  0  0  0  0  0  0  0  0  0
    6.1354   -3.4435   22.6900 C   0  0  0  0  0  0  0  0  0  0  0  0
    6.5269   -3.3502   20.9582 S   0  0  0  0  0  0  0  0  0  0  0  0
    7.2763   -4.5370   20.6005 O   0  0  0  0  0  0  0  0  0  0  0  0
    5.3741   -2.9332   20.1916 O   0  0  0  0  0  0  0  0  0  0  0  0
    7.7228   -2.1770   20.8887 N   0  0  0  0  0  0  0  0  0  0  0  0
    7.4733   -0.7378   21.0944 C   0  0  1  0  0  0  0  0  0  0  0  0
    8.8529   -0.0558   21.3086 C   0  0  0  0  0  0  0  0  0  0  0  0
    8.6904    1.3079   21.6519 O   0  0  0  0  0  0  0  0  0  0  0  0
    9.8979    2.0088   21.8534 C   0  0  0  0  0  0  0  0  0  0  0  0
    6.6883   -0.1240   19.9579 C   0  0  0  0  0  0  0  0  0  0  0  0
    5.5018    0.5944   20.1801 C   0  0  0  0  0  0  0  0  0  0  0  0
    4.8999    1.2608   19.1066 C   0  0  0  0  0  0  0  0  0  0  0  0
    5.5169    1.1909   17.8503 C   0  0  0  0  0  0  0  0  0  0  0  0
    6.6379    0.4933   17.6111 N   0  0  0  0  0  0  0  0  0  0  0  0
    7.1931   -0.1462   18.6506 C   0  0  0  0  0  0  0  0  0  0  0  0
  1  2  1  0
  2  3  1  0
  3  4  1  0
  4  5  1  0
  5  6  1  0
  6  7  1  0
  7  8  2  0
  7  9  2  0
  7 10  1  0
 10 11  1  0
 11 12  1  6
 12 13  1  0
 13 14  1  0
 11 15  1  0
 15 16  2  0
 16 17  1  0
 17 18  2  0
 18 19  1  0
 19 20  2  0
 20 15  1  0
M  END
>  <plip>  (78) 
-0.1935483870967742

>  <filename>  (78) 
[H][c]1[n][c]([H])[c]([C@@]([H])([N]([H])[S](=[O])(=[O])[C]([H])([H])[C]([H])([H])[C]([H])([H])[O][C]([H])([H])[C]([H])([H])[H])[C]([H])([H])[O][C]([H])([H])[H])[c]([H])[c]1[H]

>  <ID>  (78) 


$$$$

     RDKit          3D

 23 24  0  0  0  0  0  0  0  0999 V2000
    8.8088    1.2674   21.4252 C   0  0  0  0  0  0  0  0  0  0  0  0
    7.8733    0.2387   22.0811 C   0  0  0  0  0  0  0  0  0  0  0  0
    8.6666   -0.4915   23.1756 C   0  0  0  0  0  0  0  0  0  0  0  0
    7.2995   -0.7561   21.0470 C   0  0  1  0  0  0  0  0  0  0  0  0
    6.3521   -1.6347   21.7050 N   0  0  0  0  0  0  0  0  0  0  0  0
    5.9153   -2.8261   21.1838 C   0  0  0  0  0  0  0  0  0  0  0  0
    5.9570   -3.0441   19.9817 O   0  0  0  0  0  0  0  0  0  0  0  0
    5.3109   -3.8706   22.0948 C   0  0  0  0  0  0  0  0  0  0  0  0
    6.1630   -4.1664   23.3139 C   0  0  0  0  0  0  0  0  0  0  0  0
    5.7896   -3.6625   24.5639 C   0  0  0  0  0  0  0  0  0  0  0  0
    6.5197   -3.9750   25.7220 C   0  0  0  0  0  0  0  0  0  0  0  0
    7.6271   -4.8254   25.6481 C   0  0  0  0  0  0  0  0  0  0  0  0
    8.5882   -5.3318   27.2329 Br  0  0  0  0  0  0  0  0  0  0  0  0
    8.0226   -5.3154   24.3983 C   0  0  0  0  0  0  0  0  0  0  0  0
    7.3207   -4.9631   23.2274 C   0  0  0  0  0  0  0  0  0  0  0  0
    7.8200   -5.3730   21.9504 C   0  0  0  0  0  0  0  0  0  0  0  0
    8.2366   -5.6503   20.8981 N   0  0  0  0  0  0  0  0  0  0  0  0
    6.5844   -0.0397   19.9360 C   0  0  0  0  0  0  0  0  0  0  0  0
    5.3911    0.6538   20.1560 C   0  0  0  0  0  0  0  0  0  0  0  0
    4.8193    1.3175   19.0737 C   0  0  0  0  0  0  0  0  0  0  0  0
    5.4471    1.2767   17.8230 C   0  0  0  0  0  0  0  0  0  0  0  0
    6.5873    0.5964   17.6056 N   0  0  0  0  0  0  0  0  0  0  0  0
    7.1382   -0.0473   18.6500 C   0  0  0  0  0  0  0  0  0  0  0  0
  1  2  1  0
  2  3  1  0
  2  4  1  0
  4  5  1  1
  5  6  1  0
  6  7  2  0
  6  8  1  0
  8  9  1  0
  9 10  2  0
 10 11  1  0
 11 12  2  0
 12 13  1  0
 12 14  1  0
 14 15  2  0
 15 16  1  0
 16 17  3  0
  4 18  1  0
 18 19  2  0
 19 20  1  0
 20 21  2  0
 21 22  1  0
 22 23  2  0
 15  9  1  0
 23 18  1  0
M  END
>  <plip>  (79) 
-0.1935483870967742

>  <filename>  (79) 
[H][c]1[n][c]([H])[c]([C]([H])([N]([H])[C](=[O])[C]([H])([H])[c]2[c]([H])[c]([H])[c]([Br])[c]([H])[c]2[C]#[N])[C]([H])([C]([H])([H])[H])[C]([H])([H])[H])[c]([H])[c]1[H]

>  <ID>  (79) 


$$$$

     RDKit          3D

 25 27  0  0  0  0  0  0  0  0999 V2000
    9.5314    2.0601   22.1093 C   0  0  0  0  0  0  0  0  0  0  0  0
    8.9669    1.0473   21.3090 O   0  0  0  0  0  0  0  0  0  0  0  0
    8.0097    0.2609   21.9839 C   0  0  0  0  0  0  0  0  0  0  0  0
    7.3806   -0.7338   20.9931 C   0  0  1  0  0  0  0  0  0  0  0  0
    6.5783   -1.7096   21.7253 N   0  0  0  0  0  0  0  0  0  0  0  0
    5.9774   -2.7788   21.1149 C   0  0  0  0  0  0  0  0  0  0  0  0
    6.1047   -3.0226   19.9322 O   0  0  0  0  0  0  0  0  0  0  0  0
    5.1689   -3.6637   22.0440 C   0  0  0  0  0  0  0  0  0  0  0  0
    5.9915   -4.6174   22.9316 C   0  0  0  0  0  0  0  0  0  0  0  0
    5.1444   -5.4784   23.7321 N   0  0  0  0  0  0  0  0  0  0  0  0
    4.5043   -6.5862   23.1221 N   0  0  0  0  0  0  0  0  0  0  0  0
    3.6563   -7.1791   24.0830 C   0  0  0  0  0  0  0  0  0  0  0  0
    3.2731   -8.3230   23.9796 O   0  0  0  0  0  0  0  0  0  0  0  0
    3.4725   -6.1464   25.1157 C   0  0  0  0  0  0  0  0  0  0  0  0
    2.6239   -6.0705   26.2283 C   0  0  0  0  0  0  0  0  0  0  0  0
    2.6230   -4.8997   26.9765 C   0  0  0  0  0  0  0  0  0  0  0  0
    3.4600   -3.8193   26.6221 C   0  0  0  0  0  0  0  0  0  0  0  0
    4.3333   -3.8991   25.5397 C   0  0  0  0  0  0  0  0  0  0  0  0
    4.3583   -5.0974   24.7972 C   0  0  0  0  0  0  0  0  0  0  0  0
    6.6031   -0.0399   19.8855 C   0  0  0  0  0  0  0  0  0  0  0  0
    5.3945    0.6322   20.1083 C   0  0  0  0  0  0  0  0  0  0  0  0
    4.7961    1.3156   19.0470 C   0  0  0  0  0  0  0  0  0  0  0  0
    5.4284    1.3010   17.7960 C   0  0  0  0  0  0  0  0  0  0  0  0
    6.5780    0.6554   17.5550 N   0  0  0  0  0  0  0  0  0  0  0  0
    7.1315    0.0035   18.5899 C   0  0  0  0  0  0  0  0  0  0  0  0
  1  2  1  0
  2  3  1  0
  4  3  1  1
  4  5  1  0
  5  6  1  0
  6  7  2  0
  6  8  1  0
  8  9  1  0
  9 10  1  0
 10 11  1  0
 11 12  1  0
 12 13  2  0
 12 14  1  0
 14 15  2  0
 15 16  1  0
 16 17  2  0
 17 18  1  0
 18 19  2  0
  4 20  1  0
 20 21  2  0
 21 22  1  0
 22 23  2  0
 23 24  1  0
 24 25  2  0
 19 10  1  0
 25 20  1  0
 19 14  1  0
M  END
>  <plip>  (80) 
-0.1935483870967742

>  <filename>  (80) 
[H][c]1[n][c]([H])[c]([C@]([H])([N]([H])[C](=[O])[C]([H])([H])[C]([H])([H])[n]2[c]3[c]([H])[c]([H])[c]([H])[c]([H])[c]3[c](=[O])[n]2[H])[C]([H])([H])[O][C]([H])([H])[H])[c]([H])[c]1[H]

>  <ID>  (80) 


$$$$

     RDKit          3D

 21 21  0  0  0  0  0  0  0  0999 V2000
    7.7348   -6.8566   22.4039 C   0  0  0  0  0  0  0  0  0  0  0  0
    6.7858   -5.8752   23.0888 C   0  0  0  0  0  0  0  0  0  0  0  0
    7.4915   -4.5628   23.4853 C   0  0  0  0  0  0  0  0  0  0  0  0
    6.5977   -3.3091   23.5230 C   0  0  2  0  0  0  0  0  0  0  0  0
    5.6595   -3.2810   24.7296 C   0  0  0  0  0  0  0  0  0  0  0  0
    5.7642   -3.1135   22.2439 C   0  0  0  0  0  0  0  0  0  0  0  0
    6.5291   -3.2222   20.6682 S   0  0  0  0  0  0  0  0  0  0  0  0
    7.3672   -4.4023   20.6217 O   0  0  0  0  0  0  0  0  0  0  0  0
    5.4904   -2.9664   19.7000 O   0  0  0  0  0  0  0  0  0  0  0  0
    7.5978   -2.0027   20.6950 N   0  0  0  0  0  0  0  0  0  0  0  0
    7.2738   -0.6328   21.0072 C   0  0  1  0  0  0  0  0  0  0  0  0
    8.6207    0.0022   21.3282 C   0  0  0  0  0  0  0  0  0  0  0  0
    9.1235   -0.8840   22.4814 C   0  0  0  0  0  0  0  0  0  0  0  0
    9.8352   -1.8585   22.1574 O   0  0  0  0  0  0  0  0  0  0  0  0
    8.6200   -0.6093   23.5896 O   0  0  0  0  0  1  0  0  0  0  0  0
    6.5102    0.0052   19.8733 C   0  0  0  0  0  0  0  0  0  0  0  0
    5.3291    0.7504   20.0449 C   0  0  0  0  0  0  0  0  0  0  0  0
    4.7784    1.4016   18.9370 C   0  0  0  0  0  0  0  0  0  0  0  0
    5.4215    1.2855   17.6987 C   0  0  0  0  0  0  0  0  0  0  0  0
    6.5276    0.5545   17.5053 N   0  0  0  0  0  0  0  0  0  0  0  0
    7.0320   -0.0811   18.5743 C   0  0  0  0  0  0  0  0  0  0  0  0
  1  2  1  0
  2  3  1  0
  3  4  1  0
  4  5  1  1
  4  6  1  0
  6  7  1  0
  7  8  2  0
  7  9  2  0
  7 10  1  0
 10 11  1  0
 11 12  1  6
 12 13  1  0
 13 14  2  0
 13 15  1  0
 11 16  1  0
 16 17  2  0
 17 18  1  0
 18 19  2  0
 19 20  1  0
 20 21  2  0
 21 16  1  0
M  CHG  1  15  -1
M  END
>  <plip>  (81) 
-0.1935483870967742

>  <filename>  (81) 
[H][c]1[n][c]([H])[c]([C@@]([H])([N]([H])[S](=[O])(=[O])[C]([H])([H])[C]([H])([C]([H])([H])[H])[C]([H])([H])[C]([H])([H])[C]([H])([H])[H])[C]([H])([H])[C](=[O])[O-])[c]([H])[c]1[H]

>  <ID>  (81) 


$$$$

     RDKit          3D

 30 33  0  0  0  0  0  0  0  0999 V2000
    9.1221    0.3466   24.0642 C   0  0  0  0  0  0  0  0  0  0  0  0
    8.5834   -0.5291   23.0866 O   0  0  0  0  0  0  0  0  0  0  0  0
    7.9082    0.1224   22.0557 C   0  0  0  0  0  0  0  0  0  0  0  0
    8.8169    0.9075   21.3185 O   0  0  0  0  0  0  0  0  0  0  0  0
    8.4861    2.2773   21.2404 C   0  0  0  0  0  0  0  0  0  0  0  0
    7.2442   -0.9067   21.0921 C   0  0  1  0  0  0  0  0  0  0  0  0
    6.3361   -1.8318   21.7793 N   0  0  0  0  0  0  0  0  0  0  0  0
    5.9539   -3.0284   21.2469 C   0  0  0  0  0  0  0  0  0  0  0  0
    6.2462   -3.3613   20.1132 O   0  0  0  0  0  0  0  0  0  0  0  0
    5.1271   -3.8943   22.1506 C   0  0  0  0  0  0  0  0  0  0  0  0
    4.4881   -3.6539   23.3451 C   0  0  0  0  0  0  0  0  0  0  0  0
    3.5534   -4.6616   23.6749 C   0  0  0  0  0  0  0  0  0  0  0  0
    3.5352   -5.7293   22.8085 C   0  0  0  0  0  0  0  0  0  0  0  0
    2.6021   -6.8761   22.8630 C   0  0  0  0  0  0  0  0  0  0  0  0
    2.3664   -7.7534   21.7822 C   0  0  0  0  0  0  0  0  0  0  0  0
    1.4002   -8.7581   21.8558 C   0  0  0  0  0  0  0  0  0  0  0  0
    0.6884   -8.9666   23.0382 C   0  0  0  0  0  0  0  0  0  0  0  0
   -0.1547  -10.0422   23.1412 O   0  0  0  0  0  0  0  0  0  0  0  0
   -1.0041  -10.0337   24.3018 C   0  0  0  0  0  0  0  0  0  0  0  0
   -0.2269   -9.5723   25.5344 C   0  0  0  0  0  0  0  0  0  0  0  0
    0.2522   -8.2442   25.3227 O   0  0  0  0  0  0  0  0  0  0  0  0
    0.9275   -8.1056   24.1363 C   0  0  0  0  0  0  0  0  0  0  0  0
    1.8611   -7.0891   24.0408 C   0  0  0  0  0  0  0  0  0  0  0  0
    4.7501   -5.4926   21.5934 S   0  0  0  0  0  0  0  0  0  0  0  0
    6.5289   -0.1799   19.9554 C   0  0  0  0  0  0  0  0  0  0  0  0
    5.3479    0.5537   20.1510 C   0  0  0  0  0  0  0  0  0  0  0  0
    4.8260    1.2914   19.0848 C   0  0  0  0  0  0  0  0  0  0  0  0
    5.4998    1.2724   17.8566 C   0  0  0  0  0  0  0  0  0  0  0  0
    6.6247    0.5746   17.6420 N   0  0  0  0  0  0  0  0  0  0  0  0
    7.1111   -0.1240   18.6798 C   0  0  0  0  0  0  0  0  0  0  0  0
  1  2  1  0
  2  3  1  0
  3  4  1  0
  4  5  1  0
  3  6  1  0
  6  7  1  1
  7  8  1  0
  8  9  2  0
  8 10  1  0
 10 11  2  0
 11 12  1  0
 12 13  2  0
 13 14  1  0
 14 15  2  0
 15 16  1  0
 16 17  2  0
 17 18  1  0
 18 19  1  0
 19 20  1  0
 20 21  1  0
 21 22  1  0
 22 23  2  0
 13 24  1  0
  6 25  1  0
 25 26  2  0
 26 27  1  0
 27 28  2  0
 28 29  1  0
 29 30  2  0
 24 10  1  0
 30 25  1  0
 23 14  1  0
 22 17  1  0
M  END
>  <plip>  (82) 
-0.1875

>  <filename>  (82) 
[H][c]1[n][c]([H])[c]([C]([H])([N]([H])[C](=[O])[c]2[s][c](-[c]3[c]([H])[c]([H])[c]4[c]([c]3[H])[O][C]([H])([H])[C]([H])([H])[O]4)[c]([H])[c]2[H])[C]([H])([O][C]([H])([H])[H])[O][C]([H])([H])[H])[c]([H])[c]1[H]

>  <ID>  (82) 


$$$$

     RDKit          3D

 24 27  0  0  0  0  0  0  0  0999 V2000
    9.1036    1.4695   21.1472 O   0  0  0  0  0  0  0  0  0  0  0  0
    8.4663    1.1877   22.1575 C   0  0  0  0  0  0  0  0  0  0  0  0
    7.6414    0.1035   22.1849 N   0  0  0  0  0  0  0  0  0  0  0  0
    7.4124   -0.7096   20.9949 C   0  0  1  0  0  0  0  0  0  0  0  0
    6.6748   -2.0155   21.3236 C   0  0  0  0  0  0  0  0  0  0  0  0
    7.4469   -2.9413   22.2696 C   0  0  0  0  0  0  0  0  0  0  0  0
    6.6873   -4.2082   22.6107 C   0  0  0  0  0  0  0  0  0  0  0  0
    7.0166   -4.9212   23.8942 C   0  0  0  0  0  0  0  0  0  0  0  0
    5.7044   -4.1870   23.7539 C   0  0  0  0  0  0  0  0  0  0  0  0
    6.6679    0.0489   19.9097 C   0  0  0  0  0  0  0  0  0  0  0  0
    5.4368    0.6764   20.1439 C   0  0  0  0  0  0  0  0  0  0  0  0
    4.7953    1.3186   19.0836 C   0  0  0  0  0  0  0  0  0  0  0  0
    5.3950    1.2928   17.8180 C   0  0  0  0  0  0  0  0  0  0  0  0
    6.5576    0.6754   17.5640 N   0  0  0  0  0  0  0  0  0  0  0  0
    7.1675    0.0820   18.6017 C   0  0  0  0  0  0  0  0  0  0  0  0
    8.5283    1.9318   23.4654 C   0  0  0  0  0  0  0  0  0  0  0  0
    8.1977    1.5558   24.7715 C   0  0  0  0  0  0  0  0  0  0  0  0
    8.5463    2.5708   25.6657 C   0  0  0  0  0  0  0  0  0  0  0  0
    9.0970    3.6190   24.9356 C   0  0  0  0  0  0  0  0  0  0  0  0
    9.5810    4.8210   25.3462 N   0  0  0  0  0  0  0  0  0  0  0  0
   10.0305    5.6181   24.3974 C   0  0  0  0  0  0  0  0  0  0  0  0
   10.0411    5.2730   23.0073 C   0  0  0  0  0  0  0  0  0  0  0  0
    9.5547    4.0499   22.6282 C   0  0  0  0  0  0  0  0  0  0  0  0
    9.0753    3.2111   23.5903 N   0  0  0  0  0  0  0  0  0  0  0  0
  1  2  2  0
  2  3  1  0
  3  4  1  0
  4  5  1  1
  5  6  1  0
  6  7  1  0
  7  8  1  0
  8  9  1  0
  4 10  1  0
 10 11  2  0
 11 12  1  0
 12 13  2  0
 13 14  1  0
 14 15  2  0
  2 16  1  0
 16 17  2  0
 17 18  1  0
 18 19  2  0
 19 20  1  0
 20 21  2  0
 21 22  1  0
 22 23  2  0
 23 24  1  0
  9  7  1  0
 15 10  1  0
 24 16  1  0
 24 19  1  0
M  END
>  <plip>  (83) 
-0.17857142857142858

>  <filename>  (83) 
[H][c]1[n][c]([H])[c]([C]([H])([N]([H])[C](=[O])[c]2[c]([H])[c]([H])[c]3[n][c]([H])[c]([H])[c]([H])[n]23)[C]([H])([H])[C]([H])([H])[C]2([H])[C]([H])([H])[C]2([H])[H])[c]([H])[c]1[H]

>  <ID>  (83) 


$$$$

     RDKit          3D

 24 26  0  0  0  0  0  0  0  0999 V2000
    7.3634    1.1734   22.4472 C   0  0  0  0  0  0  0  0  0  0  0  0
    8.1819   -0.0442   21.9701 C   0  0  0  0  0  0  0  0  0  0  0  0
    9.3346    0.4621   21.0869 C   0  0  0  0  0  0  0  0  0  0  0  0
    7.3736   -1.0914   21.1676 C   0  0  1  0  0  0  0  0  0  0  0  0
    6.5146   -1.9091   22.0209 N   0  0  0  0  0  0  0  0  0  0  0  0
    6.1350   -3.2050   21.7030 C   0  0  0  0  0  0  0  0  0  0  0  0
    6.4014   -3.6457   20.5912 O   0  0  0  0  0  0  0  0  0  0  0  0
    5.4379   -4.1355   22.7208 C   0  0  2  0  0  0  0  0  0  0  0  0
    4.1315   -3.6070   23.0764 O   0  0  0  0  0  0  0  0  0  0  0  0
    3.7220   -3.7499   24.4457 C   0  0  0  0  0  0  0  0  0  0  0  0
    4.7916   -3.1198   25.3308 C   0  0  0  0  0  0  0  0  0  0  0  0
    6.0182   -3.9622   25.1964 C   0  0  0  0  0  0  0  0  0  0  0  0
    6.8255   -4.2599   26.3032 C   0  0  0  0  0  0  0  0  0  0  0  0
    8.0103   -4.9786   26.1381 C   0  0  0  0  0  0  0  0  0  0  0  0
    9.1392   -5.3204   27.6358 Br  0  0  0  0  0  0  0  0  0  0  0  0
    8.3931   -5.3952   24.8602 C   0  0  0  0  0  0  0  0  0  0  0  0
    7.5725   -5.1218   23.7535 C   0  0  0  0  0  0  0  0  0  0  0  0
    6.3654   -4.4142   23.9112 C   0  0  0  0  0  0  0  0  0  0  0  0
    6.5990   -0.3927   20.0829 C   0  0  0  0  0  0  0  0  0  0  0  0
    5.4676    0.3760   20.3592 C   0  0  0  0  0  0  0  0  0  0  0  0
    4.9227    1.1296   19.3199 C   0  0  0  0  0  0  0  0  0  0  0  0
    5.5197    1.1028   18.0531 C   0  0  0  0  0  0  0  0  0  0  0  0
    6.5982    0.3486   17.7804 N   0  0  0  0  0  0  0  0  0  0  0  0
    7.1184   -0.3849   18.7814 C   0  0  0  0  0  0  0  0  0  0  0  0
  1  2  1  0
  2  3  1  0
  2  4  1  0
  4  5  1  1
  5  6  1  0
  6  7  2  0
  8  6  1  6
  8  9  1  0
  9 10  1  0
 10 11  1  0
 11 12  1  0
 12 13  2  0
 13 14  1  0
 14 15  1  0
 14 16  2  0
 16 17  1  0
 17 18  2  0
  4 19  1  0
 19 20  2  0
 20 21  1  0
 21 22  2  0
 22 23  1  0
 23 24  2  0
 18  8  1  0
 24 19  1  0
 18 12  1  0
M  END
>  <plip>  (84) 
-0.17857142857142858

>  <filename>  (84) 
[H][c]1[n][c]([H])[c]([C]([H])([N]([H])[C](=[O])[C]2([H])[O][C]([H])([H])[C]([H])([H])[c]3[c]([H])[c]([Br])[c]([H])[c]([H])[c]32)[C]([H])([C]([H])([H])[H])[C]([H])([H])[H])[c]([H])[c]1[H]

>  <ID>  (84) 


$$$$

     RDKit          3D

 22 23  0  0  0  0  0  0  0  0999 V2000
    6.6850   -2.0311   21.2923 C   0  0  0  0  0  0  0  0  0  0  0  0
    7.4243   -0.7468   20.9575 C   0  0  2  0  0  0  0  0  0  0  0  0
    7.5198    0.0708   22.1583 N   0  0  0  0  0  0  0  0  0  0  0  0
    8.3145    1.2250   22.2341 C   0  0  0  0  0  0  0  0  0  0  0  0
    8.9921    1.4509   21.2230 O   0  0  0  0  0  0  0  0  0  0  0  0
    8.3660    2.1746   23.4383 C   0  0  0  0  0  0  0  0  0  0  0  0
    7.6381    1.9864   24.4225 O   0  0  0  0  0  0  0  0  0  0  0  0
    9.2109    3.2936   23.5155 N   0  0  0  0  0  0  0  0  0  0  0  0
    9.1640    4.2529   24.5251 C   0  0  0  0  0  0  0  0  0  0  0  0
    7.9285    4.6597   25.0401 C   0  0  0  0  0  0  0  0  0  0  0  0
    7.8609    5.6489   26.0334 C   0  0  0  0  0  0  0  0  0  0  0  0
    9.0546    6.1800   26.5479 C   0  0  0  0  0  0  0  0  0  0  0  0
   10.2966    5.7706   26.0344 C   0  0  0  0  0  0  0  0  0  0  0  0
   11.7679    6.4241   26.7216 Cl  0  0  0  0  0  0  0  0  0  0  0  0
   10.3499    4.8376   24.9845 C   0  0  0  0  0  0  0  0  0  0  0  0
   12.0265    4.3306   24.1856 Br  0  0  0  0  0  0  0  0  0  0  0  0
    6.6645    0.0043   19.8974 C   0  0  0  0  0  0  0  0  0  0  0  0
    5.4467    0.6451   20.1530 C   0  0  0  0  0  0  0  0  0  0  0  0
    4.8178    1.2982   19.0947 C   0  0  0  0  0  0  0  0  0  0  0  0
    5.4061    1.2955   17.8278 C   0  0  0  0  0  0  0  0  0  0  0  0
    6.5710    0.6757   17.5761 N   0  0  0  0  0  0  0  0  0  0  0  0
    7.1842    0.0537   18.5990 C   0  0  0  0  0  0  0  0  0  0  0  0
  2  1  1  1
  2  3  1  0
  3  4  1  0
  4  5  2  0
  4  6  1  0
  6  7  2  0
  6  8  1  0
  8  9  1  0
  9 10  2  0
 10 11  1  0
 11 12  2  0
 12 13  1  0
 13 14  1  0
 13 15  2  0
 15 16  1  0
  2 17  1  0
 17 18  2  0
 18 19  1  0
 19 20  2  0
 20 21  1  0
 21 22  2  0
 15  9  1  0
 22 17  1  0
M  END
>  <plip>  (85) 
-0.17857142857142858

>  <filename>  (85) 
[H][c]1[n][c]([H])[c]([C]([H])([N]([H])[C](=[O])[C](=[O])[N]([H])[c]2[c]([H])[c]([H])[c]([H])[c]([Cl])[c]2[Br])[C]([H])([H])[H])[c]([H])[c]1[H]

>  <ID>  (85) 


$$$$

     RDKit          3D

 18 18  0  0  0  0  0  0  0  0999 V2000
   13.4188    1.5525   23.5583 C   0  0  0  0  0  0  0  0  0  0  0  0
   12.4333    1.3814   24.4363 C   0  0  0  0  0  0  0  0  0  0  0  0
   11.3806    0.3338   24.2924 C   0  0  0  0  0  0  0  0  0  0  0  0
    9.7457    1.0764   23.9548 S   0  0  0  0  0  0  0  0  0  0  0  0
   10.0655    2.1216   22.4918 C   0  0  0  0  0  0  0  0  0  0  0  0
   10.4636    1.3651   21.2174 C   0  0  0  0  0  0  0  0  0  0  0  0
    9.3339    0.7363   20.5417 N   0  0  0  0  0  0  0  0  0  0  0  0
    8.8807   -0.5008   20.9730 C   0  0  0  0  0  0  0  0  0  0  0  0
    9.5973   -1.3351   21.4931 O   0  0  0  0  0  0  0  0  0  0  0  0
    7.5051   -0.6945   20.7565 N   0  0  0  0  0  0  0  0  0  0  0  0
    6.8325   -1.6346   21.6661 C   0  0  0  0  0  0  0  0  0  0  0  0
    6.8869   -1.1780   23.1243 C   0  0  0  0  0  0  0  0  0  0  0  0
    6.7420   -0.0405   19.7321 C   0  0  0  0  0  0  0  0  0  0  0  0
    5.5594    0.6363   20.0527 C   0  0  0  0  0  0  0  0  0  0  0  0
    4.8802    1.3377   19.0508 C   0  0  0  0  0  0  0  0  0  0  0  0
    5.3861    1.3112   17.7484 C   0  0  0  0  0  0  0  0  0  0  0  0
    6.4966    0.6363   17.4110 N   0  0  0  0  0  0  0  0  0  0  0  0
    7.1522   -0.0188   18.3767 C   0  0  0  0  0  0  0  0  0  0  0  0
  1  2  2  3
  2  3  1  0
  3  4  1  0
  4  5  1  0
  5  6  1  0
  6  7  1  0
  7  8  1  0
  8  9  2  0
  8 10  1  0
 10 11  1  0
 11 12  1  0
 10 13  1  0
 13 14  2  0
 14 15  1  0
 15 16  2  0
 16 17  1  0
 17 18  2  0
 18 13  1  0
M  END
>  <plip>  (86) 
-0.17857142857142858

>  <filename>  (86) 
[H][C]([H])=[C]([H])[C]([H])([H])[S][C]([H])([H])[C]([H])([H])[N]([H])[C](=[O])[N]([c]1[c]([H])[n][c]([H])[c]([H])[c]1[H])[C]([H])([H])[C]([H])([H])[H]

>  <ID>  (86) 


$$$$

     RDKit          3D

 23 25  0  0  0  0  0  0  0  0999 V2000
    5.4234    1.2850   17.8296 C   0  0  0  0  0  0  0  0  0  0  0  0
    6.5899    0.6624   17.5842 N   0  0  0  0  0  0  0  0  0  0  0  0
    7.2008    0.0590   18.6115 C   0  0  0  0  0  0  0  0  0  0  0  0
    6.6584   -0.0064   19.9045 C   0  0  0  0  0  0  0  0  0  0  0  0
    7.3658   -0.7226   20.9265 N   0  0  0  0  0  0  0  0  0  0  0  0
    8.7378   -0.6266   20.8874 N   0  0  0  0  0  0  0  0  0  0  0  0
    9.4125   -1.1183   21.8939 C   0  0  0  0  0  0  0  0  0  0  0  0
   10.8897   -0.8915   21.9410 C   0  0  0  0  0  0  0  0  0  0  0  0
   11.6975   -2.0401   21.9849 C   0  0  0  0  0  0  0  0  0  0  0  0
   13.0788   -1.9343   21.8869 C   0  0  0  0  0  0  0  0  0  0  0  0
   13.6747   -0.6804   21.9549 C   0  0  0  0  0  0  0  0  0  0  0  0
   12.8983    0.4656   22.0901 C   0  0  0  0  0  0  0  0  0  0  0  0
   11.5003    0.3826   22.0120 C   0  0  0  0  0  0  0  0  0  0  0  0
   10.6800    1.6619   22.0908 C   0  0  0  0  0  0  0  0  0  0  0  0
    9.6638    1.5435   22.9700 F   0  0  0  0  0  0  0  0  0  0  0  0
   10.1434    2.0004   20.9072 F   0  0  0  0  0  0  0  0  0  0  0  0
   11.4176    2.7187   22.4856 F   0  0  0  0  0  0  0  0  0  0  0  0
    8.8151   -1.9894   22.9600 C   0  0  0  0  0  0  0  0  0  0  0  0
    9.4557   -2.5792   23.8255 O   0  0  0  0  0  0  0  0  0  0  0  0
    7.3685   -2.1166   22.8628 C   0  0  0  0  0  0  0  0  0  0  0  0
    6.7096   -1.4758   21.8764 C   0  0  0  0  0  0  0  0  0  0  0  0
    5.4388    0.6493   20.1561 C   0  0  0  0  0  0  0  0  0  0  0  0
    4.8156    1.3072   19.0884 C   0  0  0  0  0  0  0  0  0  0  0  0
  1  2  2  0
  2  3  1  0
  3  4  2  0
  4  5  1  0
  5  6  1  0
  6  7  2  0
  7  8  1  0
  8  9  2  0
  9 10  1  0
 10 11  2  0
 11 12  1  0
 12 13  2  0
 13 14  1  0
 14 15  1  0
 14 16  1  0
 14 17  1  0
  7 18  1  0
 18 19  2  0
 18 20  1  0
 20 21  2  0
  4 22  1  0
 22 23  2  0
 23  1  1  0
 21  5  1  0
 13  8  1  0
M  END
>  <plip>  (87) 
-0.17857142857142858

>  <filename>  (87) 
[H][c]1[n][c]([H])[c](-[n]2[n][c](-[c]3[c]([H])[c]([H])[c]([H])[c]([H])[c]3[C]([F])([F])[F])[c](=[O])[c]([H])[c]2[H])[c]([H])[c]1[H]

>  <ID>  (87) 


$$$$

     RDKit          3D

 28 30  0  0  0  0  0  0  0  0999 V2000
    6.7468   -2.9892   23.6622 C   0  0  0  0  0  0  0  0  0  0  0  0
    7.4273   -2.6287   22.4735 O   0  0  0  0  0  0  0  0  0  0  0  0
    6.6730   -1.9458   21.4973 C   0  0  0  0  0  0  0  0  0  0  0  0
    6.5003   -2.7310   20.3603 O   0  0  0  0  0  0  0  0  0  0  0  0
    5.7046   -3.8845   20.5057 C   0  0  0  0  0  0  0  0  0  0  0  0
    7.3965   -0.6651   20.9966 C   0  0  2  0  0  0  0  0  0  0  0  0
    7.6767    0.2537   22.0894 N   0  0  0  0  0  0  0  0  0  0  0  0
    8.6641    1.1810   22.0283 C   0  0  0  0  0  0  0  0  0  0  0  0
    9.4429    1.2576   21.0890 O   0  0  0  0  0  0  0  0  0  0  0  0
    8.7321    2.1150   23.2364 C   0  0  0  0  0  0  0  0  0  0  0  0
    7.9100    1.9940   24.2579 N   0  0  0  0  0  0  0  0  0  0  0  0
    8.2313    3.0033   25.1310 O   0  0  0  0  0  0  0  0  0  0  0  0
    9.2328    3.7450   24.6170 C   0  0  0  0  0  0  0  0  0  0  0  0
    9.7681    4.8932   25.3541 C   0  0  0  0  0  0  0  0  0  0  0  0
   11.0814    5.2598   25.0092 C   0  0  0  0  0  0  0  0  0  0  0  0
   11.7985    6.2135   25.7220 C   0  0  0  0  0  0  0  0  0  0  0  0
   13.2279    6.4959   25.3495 C   0  0  0  0  0  0  0  0  0  0  0  0
   11.1492    6.8678   26.7769 C   0  0  0  0  0  0  0  0  0  0  0  0
    9.8212    6.5616   27.0912 C   0  0  0  0  0  0  0  0  0  0  0  0
    9.0951    5.5818   26.3998 C   0  0  0  0  0  0  0  0  0  0  0  0
    7.6658    5.3069   26.8161 C   0  0  0  0  0  0  0  0  0  0  0  0
    9.6135    3.2065   23.4216 C   0  0  0  0  0  0  0  0  0  0  0  0
    6.6599    0.0773   19.8859 C   0  0  0  0  0  0  0  0  0  0  0  0
    5.4408    0.7351   20.0893 C   0  0  0  0  0  0  0  0  0  0  0  0
    4.8129    1.3493   19.0040 C   0  0  0  0  0  0  0  0  0  0  0  0
    5.4457    1.3163   17.7547 C   0  0  0  0  0  0  0  0  0  0  0  0
    6.6191    0.7083   17.5398 N   0  0  0  0  0  0  0  0  0  0  0  0
    7.1982    0.1108   18.5936 C   0  0  0  0  0  0  0  0  0  0  0  0
  1  2  1  0
  2  3  1  0
  3  4  1  0
  4  5  1  0
  3  6  1  0
  6  7  1  1
  7  8  1  0
  8  9  2  0
  8 10  1  0
 10 11  2  0
 11 12  1  0
 12 13  1  0
 13 14  1  0
 14 15  2  0
 15 16  1  0
 16 17  1  0
 16 18  2  0
 18 19  1  0
 19 20  2  0
 20 21  1  0
 13 22  2  0
  6 23  1  0
 23 24  2  0
 24 25  1  0
 25 26  2  0
 26 27  1  0
 27 28  2  0
 22 10  1  0
 28 23  1  0
 20 14  1  0
M  END
>  <plip>  (88) 
-0.17857142857142858

>  <filename>  (88) 
[H][c]1[n][c]([H])[c]([C]([H])([N]([H])[C](=[O])[c]2[n][o][c](-[c]3[c]([H])[c]([C]([H])([H])[H])[c]([H])[c]([H])[c]3[C]([H])([H])[H])[c]2[H])[C]([H])([O][C]([H])([H])[H])[O][C]([H])([H])[H])[c]([H])[c]1[H]

>  <ID>  (88) 


$$$$

     RDKit          3D

 23 24  0  0  0  0  0  0  0  0999 V2000
    5.4911    1.2367   17.8611 C   0  0  0  0  0  0  0  0  0  0  0  0
    6.6819    0.6349   17.7327 N   0  0  0  0  0  0  0  0  0  0  0  0
    7.2605    0.1619   18.8326 C   0  0  0  0  0  0  0  0  0  0  0  0
    6.6542    0.2426   20.0776 C   0  0  0  0  0  0  0  0  0  0  0  0
    7.5281   -0.6069   21.2955 S   0  0  0  0  0  0  0  0  0  0  0  0
    6.8933   -1.8483   21.6840 O   0  0  0  0  0  0  0  0  0  0  0  0
    8.9275   -0.5874   20.9408 O   0  0  0  0  0  0  0  0  0  0  0  0
    7.1710    0.3350   22.5855 N   0  0  0  0  0  0  0  0  0  0  0  0
    7.9675    1.4377   22.7060 C   0  0  0  0  0  0  0  0  0  0  0  0
    8.5893    1.9658   21.8240 O   0  0  0  0  0  0  0  0  0  0  0  0
    7.8887    1.8430   23.9955 N   0  0  0  0  0  0  0  0  0  0  0  0
    8.2527    3.1106   24.4050 C   0  0  0  0  0  0  0  0  0  0  0  0
    7.5359    3.6455   25.2218 O   0  0  0  0  0  0  0  0  0  0  0  0
    9.4042    3.5552   23.8693 N   0  0  0  0  0  0  0  0  0  0  0  0
   10.1191    4.6803   24.2957 C   0  0  0  0  0  0  0  0  0  0  0  0
    9.8931    5.2767   25.5450 C   0  0  0  0  0  0  0  0  0  0  0  0
   10.6712    6.3677   25.9388 C   0  0  0  0  0  0  0  0  0  0  0  0
   11.6600    6.8579   25.0800 C   0  0  0  0  0  0  0  0  0  0  0  0
   12.6595    8.1955   25.5736 Cl  0  0  0  0  0  0  0  0  0  0  0  0
   11.8887    6.2655   23.8348 C   0  0  0  0  0  0  0  0  0  0  0  0
   11.1126    5.1704   23.4458 C   0  0  0  0  0  0  0  0  0  0  0  0
    5.3965    0.8372   20.2344 C   0  0  0  0  0  0  0  0  0  0  0  0
    4.8145    1.3498   19.0795 C   0  0  0  0  0  0  0  0  0  0  0  0
  1  2  2  0
  2  3  1  0
  3  4  2  0
  4  5  1  0
  5  6  2  0
  5  7  2  0
  5  8  1  0
  8  9  1  0
  9 10  2  0
  9 11  1  0
 11 12  1  0
 12 13  2  0
 12 14  1  0
 14 15  1  0
 15 16  2  0
 16 17  1  0
 17 18  2  0
 18 19  1  0
 18 20  1  0
 20 21  2  0
  4 22  1  0
 22 23  2  0
 23  1  1  0
 21 15  1  0
M  END
>  <plip>  (89) 
-0.17857142857142858

>  <filename>  (89) 
[H][c]1[n][c]([H])[c]([S](=[O])(=[O])[N]([H])[C](=[O])[N]([H])[C](=[O])[N]([H])[c]2[c]([H])[c]([H])[c]([Cl])[c]([H])[c]2[H])[c]([H])[c]1[H]

>  <ID>  (89) 


$$$$

     RDKit          3D

 19 20  0  0  0  0  0  0  0  0999 V2000
    5.6688   -2.0955   21.5567 O   0  0  0  0  0  0  0  0  0  0  0  0
    6.7536   -1.5800   21.7645 C   0  0  0  0  0  0  0  0  0  0  0  0
    7.6561   -1.9791   22.9174 C   0  0  0  0  0  0  0  0  0  0  0  0
    8.7921   -3.3146   22.4063 S   0  0  0  0  0  0  0  0  0  0  0  0
    7.5070   -4.6064   22.2318 C   0  0  0  0  0  0  0  0  0  0  0  0
    7.0115   -5.0928   23.5761 C   0  0  0  0  0  0  0  0  0  0  0  0
    7.9205   -5.7502   24.4144 C   0  0  0  0  0  0  0  0  0  0  0  0
    7.5219   -6.1945   25.6766 C   0  0  0  0  0  0  0  0  0  0  0  0
    8.4589   -6.7864   26.4591 O   0  0  0  0  0  0  0  0  0  0  0  0
    6.2000   -6.0332   26.1024 C   0  0  0  0  0  0  0  0  0  0  0  0
    5.2920   -5.3744   25.2710 C   0  0  0  0  0  0  0  0  0  0  0  0
    5.6943   -4.8849   24.0239 C   0  0  0  0  0  0  0  0  0  0  0  0
    7.3408   -0.6533   20.9368 N   0  0  0  0  0  0  0  0  0  0  0  0
    6.6836    0.0132   19.8752 C   0  0  0  0  0  0  0  0  0  0  0  0
    5.4557    0.6354   20.1207 C   0  0  0  0  0  0  0  0  0  0  0  0
    4.8283    1.3058   19.0657 C   0  0  0  0  0  0  0  0  0  0  0  0
    5.4358    1.3080   17.8052 C   0  0  0  0  0  0  0  0  0  0  0  0
    6.6098    0.7043   17.5506 N   0  0  0  0  0  0  0  0  0  0  0  0
    7.2148    0.0799   18.5690 C   0  0  0  0  0  0  0  0  0  0  0  0
  1  2  2  0
  2  3  1  0
  3  4  1  0
  4  5  1  0
  5  6  1  0
  6  7  2  0
  7  8  1  0
  8  9  1  0
  8 10  2  0
 10 11  1  0
 11 12  2  0
  2 13  1  0
 13 14  1  0
 14 15  2  0
 15 16  1  0
 16 17  2  0
 17 18  1  0
 18 19  2  0
 12  6  1  0
 19 14  1  0
M  END
>  <plip>  (90) 
-0.17857142857142858

>  <filename>  (90) 
[H][O][c]1[c]([H])[c]([H])[c]([H])[c]([C]([H])([H])[S][C]([H])([H])[C](=[O])[N]([H])[c]2[c]([H])[n][c]([H])[c]([H])[c]2[H])[c]1[H]

>  <ID>  (90) 


$$$$

     RDKit          3D

 20 21  0  0  0  0  0  0  0  0999 V2000
    6.1742    4.5584   23.6953 N   0  0  0  0  0  0  0  0  0  0  0  0
    6.9304    3.7350   22.9440 C   0  0  0  0  0  0  0  0  0  0  0  0
    6.3566    3.1582   22.0185 O   0  0  0  0  0  0  0  0  0  0  0  0
    8.3504    3.4669   23.3124 C   0  0  0  0  0  0  0  0  0  0  0  0
    9.2170    4.4217   23.8672 C   0  0  0  0  0  0  0  0  0  0  0  0
    8.7952    6.1183   23.9597 Cl  0  0  0  0  0  0  0  0  0  0  0  0
   10.4739    4.0749   24.3587 C   0  0  0  0  0  0  0  0  0  0  0  0
   10.9015    2.7482   24.2933 C   0  0  0  0  0  0  0  0  0  0  0  0
   10.1041    1.7855   23.6811 C   0  0  0  0  0  0  0  0  0  0  0  0
    8.8828    2.1623   23.1153 C   0  0  0  0  0  0  0  0  0  0  0  0
    8.1278    1.2678   22.3664 N   0  0  0  0  0  0  0  0  0  0  0  0
    8.5672    0.1965   21.6308 C   0  0  0  0  0  0  0  0  0  0  0  0
    9.7305   -0.1194   21.4802 O   0  0  0  0  0  0  0  0  0  0  0  0
    7.4070   -0.6045   20.9976 C   0  0  0  0  0  0  0  0  0  0  0  0
    6.6556    0.0746   19.8552 C   0  0  0  0  0  0  0  0  0  0  0  0
    5.4739    0.7933   20.0815 C   0  0  0  0  0  0  0  0  0  0  0  0
    4.8300    1.3953   18.9974 C   0  0  0  0  0  0  0  0  0  0  0  0
    5.4024    1.2912   17.7303 C   0  0  0  0  0  0  0  0  0  0  0  0
    6.5388    0.6223   17.4885 N   0  0  0  0  0  0  0  0  0  0  0  0
    7.1360    0.0349   18.5304 C   0  0  0  0  0  0  0  0  0  0  0  0
  1  2  1  0
  2  3  2  0
  2  4  1  0
  4  5  2  0
  5  6  1  0
  5  7  1  0
  7  8  2  0
  8  9  1  0
  9 10  2  0
 10 11  1  0
 11 12  1  0
 12 13  2  0
 12 14  1  0
 14 15  1  0
 15 16  2  0
 16 17  1  0
 17 18  2  0
 18 19  1  0
 19 20  2  0
 10  4  1  0
 20 15  1  0
M  END
>  <plip>  (91) 
-0.17857142857142858

>  <filename>  (91) 
[H][c]1[n][c]([H])[c]([C]([H])([H])[C](=[O])[N]([H])[c]2[c]([H])[c]([H])[c]([H])[c]([Cl])[c]2[C](=[O])[N]([H])[H])[c]([H])[c]1[H]

>  <ID>  (91) 


$$$$

     RDKit          3D

 27 29  0  0  0  0  0  0  0  0999 V2000
    9.0318    1.7990   21.9494 C   0  0  0  0  0  0  0  0  0  0  0  0
    8.3852    0.6985   21.3483 O   0  0  0  0  0  0  0  0  0  0  0  0
    7.5584   -0.0883   22.1611 C   0  0  0  0  0  0  0  0  0  0  0  0
    8.3144   -0.7923   23.1127 O   0  0  0  0  0  0  0  0  0  0  0  0
    8.2948   -0.3128   24.4431 C   0  0  0  0  0  0  0  0  0  0  0  0
    6.8743   -1.0941   21.1862 C   0  0  1  0  0  0  0  0  0  0  0  0
    5.9545   -2.0299   21.8304 N   0  0  0  0  0  0  0  0  0  0  0  0
    5.7239   -3.2611   21.2917 C   0  0  0  0  0  0  0  0  0  0  0  0
    6.1897   -3.6187   20.2255 O   0  0  0  0  0  0  0  0  0  0  0  0
    4.8310   -4.1964   22.0662 C   0  0  0  0  0  0  0  0  0  0  0  0
    4.3812   -5.4570   21.8003 C   0  0  0  0  0  0  0  0  0  0  0  0
    3.4035   -5.6991   22.8101 C   0  0  0  0  0  0  0  0  0  0  0  0
    2.4188   -6.8116   22.9369 C   0  0  0  0  0  0  0  0  0  0  0  0
    2.0456   -7.6042   21.8349 C   0  0  0  0  0  0  0  0  0  0  0  0
    0.9582   -8.4730   21.9168 C   0  0  0  0  0  0  0  0  0  0  0  0
    0.2552   -8.5995   23.1166 C   0  0  0  0  0  0  0  0  0  0  0  0
    0.6455   -7.8743   24.2516 C   0  0  0  0  0  0  0  0  0  0  0  0
   -0.1394   -7.9451   25.5401 C   0  0  0  0  0  0  0  0  0  0  0  0
    1.7319   -7.0037   24.1478 C   0  0  0  0  0  0  0  0  0  0  0  0
    3.3463   -4.6773   23.6359 N   0  0  0  0  0  0  0  0  0  0  0  0
    4.2404   -3.7457   23.1920 O   0  0  0  0  0  0  0  0  0  0  0  0
    6.2281   -0.4085   19.9864 C   0  0  0  0  0  0  0  0  0  0  0  0
    5.0871    0.3996   20.0669 C   0  0  0  0  0  0  0  0  0  0  0  0
    4.7300    1.1635   18.9514 C   0  0  0  0  0  0  0  0  0  0  0  0
    5.5098    1.0787   17.7932 C   0  0  0  0  0  0  0  0  0  0  0  0
    6.5768    0.2764   17.6755 N   0  0  0  0  0  0  0  0  0  0  0  0
    6.9015   -0.4463   18.7561 C   0  0  0  0  0  0  0  0  0  0  0  0
  1  2  1  0
  2  3  1  0
  3  4  1  0
  4  5  1  0
  3  6  1  0
  6  7  1  1
  7  8  1  0
  8  9  2  0
  8 10  1  0
 10 11  2  0
 11 12  1  0
 12 13  1  0
 13 14  2  0
 14 15  1  0
 15 16  2  0
 16 17  1  0
 17 18  1  0
 17 19  2  0
 12 20  2  0
 20 21  1  0
  6 22  1  0
 22 23  2  0
 23 24  1  0
 24 25  2  0
 25 26  1  0
 26 27  2  0
 21 10  1  0
 27 22  1  0
 19 13  1  0
M  END
>  <plip>  (92) 
-0.17857142857142858

>  <filename>  (92) 
[H][c]1[n][c]([H])[c]([C]([H])([N]([H])[C](=[O])[c]2[o][n][c](-[c]3[c]([H])[c]([H])[c]([H])[c]([C]([H])([H])[H])[c]3[H])[c]2[H])[C]([H])([O][C]([H])([H])[H])[O][C]([H])([H])[H])[c]([H])[c]1[H]

>  <ID>  (92) 


$$$$

     RDKit          3D

 27 29  0  0  0  0  0  0  0  0999 V2000
    6.6232   -4.4490   20.8425 C   0  0  0  0  0  0  0  0  0  0  0  0
    7.2664   -3.1675   20.7374 O   0  0  0  0  0  0  0  0  0  0  0  0
    6.6331   -2.1253   21.2968 C   0  0  0  0  0  0  0  0  0  0  0  0
    5.6063   -2.2511   21.9193 O   0  0  0  0  0  0  0  0  0  0  0  0
    7.3760   -0.7747   21.0174 C   0  0  2  0  0  0  0  0  0  0  0  0
    7.5404    0.0638   22.2169 N   0  0  0  0  0  0  0  0  0  0  0  0
    8.3815    1.1486   22.2211 C   0  0  0  0  0  0  0  0  0  0  0  0
    9.1237    1.3806   21.2844 O   0  0  0  0  0  0  0  0  0  0  0  0
    8.3488    2.0244   23.4980 C   0  0  2  0  0  0  0  0  0  0  0  0
    8.3853    3.5272   23.2125 C   0  0  0  0  0  0  0  0  0  0  0  0
    9.7905    1.6058   24.5885 S   0  0  0  0  0  0  0  0  0  0  0  0
    9.2521   -0.0078   25.1042 C   0  0  0  0  0  0  0  0  0  0  0  0
    8.4018   -0.1326   26.2142 C   0  0  0  0  0  0  0  0  0  0  0  0
    7.8838   -1.3797   26.5518 C   0  0  0  0  0  0  0  0  0  0  0  0
    8.2026   -2.5264   25.8041 C   0  0  0  0  0  0  0  0  0  0  0  0
    7.6466   -3.8800   26.2280 C   0  0  0  0  0  0  0  0  0  0  0  0
    7.7033   -4.9445   25.1184 C   0  0  0  0  0  0  0  0  0  0  0  0
    9.0931   -4.9619   24.4633 C   0  0  0  0  0  0  0  0  0  0  0  0
    9.3992   -3.6029   23.8065 C   0  0  0  0  0  0  0  0  0  0  0  0
    9.0709   -2.4065   24.6959 C   0  0  0  0  0  0  0  0  0  0  0  0
    9.5960   -1.1447   24.3655 C   0  0  0  0  0  0  0  0  0  0  0  0
    6.6682    0.0149   19.9064 C   0  0  0  0  0  0  0  0  0  0  0  0
    5.4487    0.6599   20.1451 C   0  0  0  0  0  0  0  0  0  0  0  0
    4.8097    1.3133   19.0906 C   0  0  0  0  0  0  0  0  0  0  0  0
    5.4047    1.2946   17.8248 C   0  0  0  0  0  0  0  0  0  0  0  0
    6.5708    0.6840   17.5724 N   0  0  0  0  0  0  0  0  0  0  0  0
    7.1831    0.0781   18.6021 C   0  0  0  0  0  0  0  0  0  0  0  0
  1  2  1  0
  2  3  1  0
  3  4  2  0
  3  5  1  0
  5  6  1  1
  6  7  1  0
  7  8  2  0
  7  9  1  0
  9 10  1  6
  9 11  1  0
 11 12  1  0
 12 13  2  0
 13 14  1  0
 14 15  2  0
 15 16  1  0
 16 17  1  0
 17 18  1  0
 18 19  1  0
 19 20  1  0
 20 21  2  0
  5 22  1  0
 22 23  2  0
 23 24  1  0
 24 25  2  0
 25 26  1  0
 26 27  2  0
 21 12  1  0
 27 22  1  0
 20 15  1  0
M  END
>  <plip>  (93) 
-0.17857142857142858

>  <filename>  (93) 
[H][c]1[n][c]([H])[c]([C]([H])([C](=[O])[O][C]([H])([H])[H])[N]([H])[C](=[O])[C]([H])([S][c]2[c]([H])[c]([H])[c]3[c]([c]2[H])[C]([H])([H])[C]([H])([H])[C]([H])([H])[C]3([H])[H])[C]([H])([H])[H])[c]([H])[c]1[H]

>  <ID>  (93) 


$$$$

     RDKit          3D

 18 20  0  0  0  0  0  0  0  0999 V2000
    5.2317   -4.6425   21.4925 C   0  0  0  0  0  0  0  0  0  0  0  0
    5.5839   -4.5030   20.1793 N   0  0  0  0  0  0  0  0  0  0  0  0
    6.0998   -3.2983   20.1669 C   0  0  0  0  0  0  0  0  0  0  0  0
    6.0602   -2.7561   21.4036 N   0  0  0  0  0  0  0  0  0  0  0  0
    6.5392   -1.5297   21.8398 N   0  0  0  0  0  0  0  0  0  0  0  0
    6.6724   -1.2376   23.2112 C   0  0  0  0  0  0  0  0  0  0  0  0
    6.3623   -1.8523   24.1938 O   0  0  0  0  0  0  0  0  0  0  0  0
    7.3286   -0.0252   23.2563 N   0  0  0  0  0  0  0  0  0  0  0  0
    7.9499    0.3025   22.0876 C   0  0  0  0  0  0  0  0  0  0  0  0
    8.7960    1.1448   21.9592 O   0  0  0  0  0  0  0  0  0  0  0  0
    7.3861   -0.6552   21.0162 C   0  0  2  0  0  0  0  0  0  0  0  0
    6.6367    0.0194   19.8649 C   0  0  0  0  0  0  0  0  0  0  0  0
    7.1463    0.0491   18.5496 C   0  0  0  0  0  0  0  0  0  0  0  0
    6.5466    0.6651   17.5230 N   0  0  0  0  0  0  0  0  0  0  0  0
    5.3933    1.3027   17.7722 C   0  0  0  0  0  0  0  0  0  0  0  0
    4.7902    1.3142   19.0318 C   0  0  0  0  0  0  0  0  0  0  0  0
    5.4153    0.6607   20.0932 C   0  0  0  0  0  0  0  0  0  0  0  0
    5.4673   -3.6025   22.2589 N   0  0  0  0  0  0  0  0  0  0  0  0
  1  2  1  0
  2  3  2  0
  3  4  1  0
  4  5  1  0
  5  6  1  0
  6  7  2  0
  6  8  1  0
  8  9  1  0
  9 10  2  0
  9 11  1  0
 11 12  1  6
 12 13  2  0
 13 14  1  0
 14 15  2  0
 15 16  1  0
 16 17  2  0
  4 18  1  0
 18  1  2  0
 11  5  1  0
 17 12  1  0
M  END
>  <plip>  (94) 
-0.17857142857142858

>  <filename>  (94) 
[H][c]1[n][c]([H])[n]([N]2[C](=[O])[N]([H])[C](=[O])[C@]2([H])[c]2[c]([H])[n][c]([H])[c]([H])[c]2[H])[n]1

>  <ID>  (94) 


$$$$

     RDKit          3D

 19 21  0  0  0  0  0  0  0  0999 V2000
    7.7550    4.3034   22.3914 C   0  0  0  0  0  0  0  0  0  0  0  0
    6.5476    4.0401   22.8808 N   0  0  0  0  0  0  0  0  0  0  0  0
    6.2756    2.7487   22.9770 C   0  0  0  0  0  0  0  0  0  0  0  0
    5.0230    2.4597   23.4067 N   0  0  0  0  0  0  0  0  0  0  0  0
    7.0487    1.7117   22.7561 N   0  0  0  0  0  0  0  0  0  0  0  0
    8.2325    1.9979   22.1885 C   0  0  0  0  0  0  0  0  0  0  0  0
    9.1188    0.9384   21.6782 C   0  0  0  0  0  0  0  0  0  0  0  0
   10.5009    0.9729   21.5679 C   0  0  0  0  0  0  0  0  0  0  0  0
   10.9263   -0.2939   21.1299 C   0  0  0  0  0  0  0  0  0  0  0  0
    9.8001   -1.0485   20.9285 C   0  0  0  0  0  0  0  0  0  0  0  0
    8.6960   -0.3096   21.2428 N   0  0  0  0  0  0  0  0  0  0  0  0
    7.3246   -0.7538   20.9809 C   0  0  0  0  0  0  0  0  0  0  0  0
    6.6084   -0.0261   19.8510 C   0  0  0  0  0  0  0  0  0  0  0  0
    7.1415    0.0409   18.5516 C   0  0  0  0  0  0  0  0  0  0  0  0
    6.5591    0.6768   17.5271 N   0  0  0  0  0  0  0  0  0  0  0  0
    5.3988    1.3018   17.7733 C   0  0  0  0  0  0  0  0  0  0  0  0
    4.7724    1.2953   19.0218 C   0  0  0  0  0  0  0  0  0  0  0  0
    5.3870    0.6216   20.0808 C   0  0  0  0  0  0  0  0  0  0  0  0
    8.6659    3.3148   22.0719 C   0  0  0  0  0  0  0  0  0  0  0  0
  1  2  2  0
  2  3  1  0
  3  4  1  0
  3  5  2  0
  5  6  1  0
  6  7  1  0
  7  8  2  0
  8  9  1  0
  9 10  2  0
 10 11  1  0
 11 12  1  0
 12 13  1  0
 13 14  2  0
 14 15  1  0
 15 16  2  0
 16 17  1  0
 17 18  2  0
  6 19  2  0
 19  1  1  0
 11  7  1  0
 18 13  1  0
M  END
>  <plip>  (95) 
-0.17857142857142858

>  <filename>  (95) 
[H][c]1[n][c]([N]([H])[H])[n][c](-[c]2[c]([H])[c]([H])[c]([H])[n]2[C]([H])([H])[c]2[c]([H])[n][c]([H])[c]([H])[c]2[H])[c]1[H]

>  <ID>  (95) 


$$$$

     RDKit          3D

 27 29  0  0  0  0  0  0  0  0999 V2000
    8.0515   -3.7892   21.8161 C   0  0  0  0  0  0  0  0  0  0  0  0
    7.2709   -2.7612   22.3806 O   0  0  0  0  0  0  0  0  0  0  0  0
    6.6121   -1.9558   21.4253 C   0  0  0  0  0  0  0  0  0  0  0  0
    7.4054   -0.6993   21.0147 C   0  0  2  0  0  0  0  0  0  0  0  0
    7.6573    0.1855   22.1526 N   0  0  0  0  0  0  0  0  0  0  0  0
    8.5143    1.2431   22.0293 C   0  0  0  0  0  0  0  0  0  0  0  0
    9.2078    1.3729   21.0341 O   0  0  0  0  0  0  0  0  0  0  0  0
    8.6391    2.1973   23.2427 C   0  0  0  0  0  0  0  0  0  0  0  0
    8.1464    3.4846   22.8883 O   0  0  0  0  0  0  0  0  0  0  0  0
    8.2281    4.5527   23.7443 C   0  0  0  0  0  0  0  0  0  0  0  0
    8.7615    4.5122   25.0459 C   0  0  0  0  0  0  0  0  0  0  0  0
    8.7734    5.6727   25.8280 C   0  0  0  0  0  0  0  0  0  0  0  0
    8.2645    6.8706   25.3241 C   0  0  0  0  0  0  0  0  0  0  0  0
    8.3142    7.9627   26.1448 O   0  0  0  0  0  0  0  0  0  0  0  0
    7.8454    9.2021   25.7473 C   0  0  0  0  0  0  0  0  0  0  0  0
    7.9301   10.1154   26.5233 O   0  0  0  0  0  0  0  0  0  0  0  0
    7.2820    9.2922   24.3983 C   0  0  0  0  0  0  0  0  0  0  0  0
    7.2067    8.2360   23.5656 C   0  0  0  0  0  0  0  0  0  0  0  0
    6.6044    8.3706   22.1895 C   0  0  0  0  0  0  0  0  0  0  0  0
    7.7266    6.9340   24.0216 C   0  0  0  0  0  0  0  0  0  0  0  0
    7.7207    5.7556   23.2450 C   0  0  0  0  0  0  0  0  0  0  0  0
    6.6707    0.0424   19.9094 C   0  0  0  0  0  0  0  0  0  0  0  0
    5.4399    0.6675   20.1492 C   0  0  0  0  0  0  0  0  0  0  0  0
    4.8022    1.3116   19.0908 C   0  0  0  0  0  0  0  0  0  0  0  0
    5.3974    1.2907   17.8240 C   0  0  0  0  0  0  0  0  0  0  0  0
    6.5578    0.6738   17.5649 N   0  0  0  0  0  0  0  0  0  0  0  0
    7.1718    0.0820   18.6026 C   0  0  0  0  0  0  0  0  0  0  0  0
  1  2  1  0
  2  3  1  0
  4  3  1  1
  4  5  1  0
  5  6  1  0
  6  7  2  0
  6  8  1  0
  8  9  1  0
  9 10  1  0
 10 11  2  0
 11 12  1  0
 12 13  2  0
 13 14  1  0
 14 15  1  0
 15 16  2  0
 15 17  1  0
 17 18  2  0
 18 19  1  0
 18 20  1  0
 20 21  2  0
  4 22  1  0
 22 23  2  0
 23 24  1  0
 24 25  2  0
 25 26  1  0
 26 27  2  0
 21 10  1  0
 27 22  1  0
 20 13  1  0
M  END
>  <plip>  (96) 
-0.17857142857142858

>  <filename>  (96) 
[H][c]1[n][c]([H])[c]([C@@]([H])([N]([H])[C](=[O])[C]([H])([H])[O][c]2[c]([H])[c]([H])[c]3[o][c](=[O])[c]([H])[c]([C]([H])([H])[H])[c]3[c]2[H])[C]([H])([H])[O][C]([H])([H])[H])[c]([H])[c]1[H]

>  <ID>  (96) 


$$$$

     RDKit          3D

 30 32  0  0  0  0  0  0  0  0999 V2000
   11.3691    8.3305   29.1510 C   0  0  0  0  0  0  0  0  0  0  0  0
   12.0078    7.5290   28.1788 O   0  0  0  0  0  0  0  0  0  0  0  0
   11.2646    6.8379   27.2841 C   0  0  0  0  0  0  0  0  0  0  0  0
    9.8823    6.6083   27.3755 C   0  0  0  0  0  0  0  0  0  0  0  0
    9.2581    5.7876   26.4372 C   0  0  0  0  0  0  0  0  0  0  0  0
    9.9924    5.1513   25.4191 C   0  0  0  0  0  0  0  0  0  0  0  0
    9.3925    4.1283   24.5513 C   0  0  0  0  0  0  0  0  0  0  0  0
    8.1059    3.9166   24.5159 N   0  0  0  0  0  0  0  0  0  0  0  0
    7.7602    2.9271   23.6457 C   0  0  0  0  0  0  0  0  0  0  0  0
    6.2910    2.6282   23.5160 C   0  0  0  0  0  0  0  0  0  0  0  0
    8.8213    2.3366   23.0095 C   0  0  0  0  0  0  0  0  0  0  0  0
    8.7952    1.3096   21.9518 C   0  0  0  0  0  0  0  0  0  0  0  0
    9.6051    1.2515   21.0361 O   0  0  0  0  0  0  0  0  0  0  0  0
    7.7938    0.4015   22.1079 N   0  0  0  0  0  0  0  0  0  0  0  0
    7.4580   -0.5604   21.0649 C   0  0  2  0  0  0  0  0  0  0  0  0
    6.7073    0.1406   19.9435 C   0  0  0  0  0  0  0  0  0  0  0  0
    5.4555    0.7420   20.1342 C   0  0  0  0  0  0  0  0  0  0  0  0
    4.8312    1.3495   19.0430 C   0  0  0  0  0  0  0  0  0  0  0  0
    5.4710    1.3184   17.7972 C   0  0  0  0  0  0  0  0  0  0  0  0
    6.6554    0.7280   17.5881 N   0  0  0  0  0  0  0  0  0  0  0  0
    7.2480    0.1665   18.6547 C   0  0  0  0  0  0  0  0  0  0  0  0
    6.6990   -1.7977   21.6010 C   0  0  0  0  0  0  0  0  0  0  0  0
    7.4559   -2.4608   22.5801 O   0  0  0  0  0  0  0  0  0  0  0  0
    6.7540   -2.8744   23.7354 C   0  0  0  0  0  0  0  0  0  0  0  0
    6.4886   -2.6093   20.4834 O   0  0  0  0  0  0  0  0  0  0  0  0
    5.7409   -3.7867   20.6783 C   0  0  0  0  0  0  0  0  0  0  0  0
   10.3056    3.0696   23.5080 S   0  0  0  0  0  0  0  0  0  0  0  0
   11.3560    5.5005   25.3040 C   0  0  0  0  0  0  0  0  0  0  0  0
   12.0805    5.0093   24.3010 F   0  0  0  0  0  0  0  0  0  0  0  0
   11.9937    6.3218   26.2107 C   0  0  0  0  0  0  0  0  0  0  0  0
  1  2  1  0
  2  3  1  0
  3  4  2  0
  4  5  1  0
  5  6  2  0
  6  7  1  0
  7  8  2  0
  8  9  1  0
  9 10  1  0
  9 11  2  0
 11 12  1  0
 12 13  2  0
 12 14  1  0
 15 14  1  1
 15 16  1  0
 16 17  2  0
 17 18  1  0
 18 19  2  0
 19 20  1  0
 20 21  2  0
 15 22  1  0
 22 23  1  0
 23 24  1  0
 22 25  1  0
 25 26  1  0
 11 27  1  0
  6 28  1  0
 28 29  1  0
 28 30  2  0
 30  3  1  0
 27  7  1  0
 21 16  1  0
M  END
>  <plip>  (97) 
-0.17857142857142858

>  <filename>  (97) 
[H][c]1[n][c]([H])[c]([C]([H])([N]([H])[C](=[O])[c]2[s][c](-[c]3[c]([H])[c]([H])[c]([O][C]([H])([H])[H])[c]([H])[c]3[F])[n][c]2[C]([H])([H])[H])[C]([H])([O][C]([H])([H])[H])[O][C]([H])([H])[H])[c]([H])[c]1[H]

>  <ID>  (97) 


$$$$

     RDKit          3D

 22 23  0  0  0  0  0  0  0  0999 V2000
    6.6839   -2.0321   21.2920 C   0  0  0  0  0  0  0  0  0  0  0  0
    7.4231   -0.7456   20.9595 C   0  0  2  0  0  0  0  0  0  0  0  0
    7.5198    0.0737   22.1599 N   0  0  0  0  0  0  0  0  0  0  0  0
    8.3157    1.2277   22.2367 C   0  0  0  0  0  0  0  0  0  0  0  0
    8.9925    1.4555   21.2259 O   0  0  0  0  0  0  0  0  0  0  0  0
    8.3697    2.1747   23.4435 C   0  0  0  0  0  0  0  0  0  0  0  0
    7.6416    1.9868   24.4270 O   0  0  0  0  0  0  0  0  0  0  0  0
    9.2182    3.2898   23.5239 N   0  0  0  0  0  0  0  0  0  0  0  0
    9.1675    4.2505   24.5300 C   0  0  0  0  0  0  0  0  0  0  0  0
   10.3511    4.8372   24.9850 C   0  0  0  0  0  0  0  0  0  0  0  0
   12.0290    4.3302   24.1934 Br  0  0  0  0  0  0  0  0  0  0  0  0
   10.2975    5.7731   26.0301 C   0  0  0  0  0  0  0  0  0  0  0  0
   11.4368    6.2841   26.5572 F   0  0  0  0  0  0  0  0  0  0  0  0
    9.0568    6.1850   26.5409 C   0  0  0  0  0  0  0  0  0  0  0  0
    7.8637    5.6477   26.0346 C   0  0  0  0  0  0  0  0  0  0  0  0
    7.9335    4.6553   25.0464 C   0  0  0  0  0  0  0  0  0  0  0  0
    6.6645    0.0051   19.8979 C   0  0  0  0  0  0  0  0  0  0  0  0
    5.4463    0.6450   20.1528 C   0  0  0  0  0  0  0  0  0  0  0  0
    4.8176    1.2986   19.0953 C   0  0  0  0  0  0  0  0  0  0  0  0
    5.4053    1.2959   17.8280 C   0  0  0  0  0  0  0  0  0  0  0  0
    6.5708    0.6764   17.5762 N   0  0  0  0  0  0  0  0  0  0  0  0
    7.1843    0.0547   18.5993 C   0  0  0  0  0  0  0  0  0  0  0  0
  2  1  1  1
  2  3  1  0
  3  4  1  0
  4  5  2  0
  4  6  1  0
  6  7  2  0
  6  8  1  0
  8  9  1  0
  9 10  2  0
 10 11  1  0
 10 12  1  0
 12 13  1  0
 12 14  2  0
 14 15  1  0
 15 16  2  0
  2 17  1  0
 17 18  2  0
 18 19  1  0
 19 20  2  0
 20 21  1  0
 21 22  2  0
 16  9  1  0
 22 17  1  0
M  END
>  <plip>  (98) 
-0.17857142857142858

>  <filename>  (98) 
[H][c]1[n][c]([H])[c]([C]([H])([N]([H])[C](=[O])[C](=[O])[N]([H])[c]2[c]([H])[c]([H])[c]([H])[c]([F])[c]2[Br])[C]([H])([H])[H])[c]([H])[c]1[H]

>  <ID>  (98) 


$$$$

     RDKit          3D

 23 25  0  0  0  0  0  0  0  0999 V2000
    9.1108    1.4746   21.1268 O   0  0  0  0  0  0  0  0  0  0  0  0
    8.4157    1.2146   22.0970 C   0  0  0  0  0  0  0  0  0  0  0  0
    7.6438    0.0893   22.1578 N   0  0  0  0  0  0  0  0  0  0  0  0
    7.3896   -0.7537   20.9870 C   0  0  1  0  0  0  0  0  0  0  0  0
    6.6276   -2.0406   21.3863 C   0  0  0  0  0  0  0  0  0  0  0  0
    6.4862   -2.9926   20.3466 O   0  0  0  0  0  0  0  0  0  0  0  0
    6.6529    0.0151   19.8949 C   0  0  0  0  0  0  0  0  0  0  0  0
    5.4310    0.6623   20.1334 C   0  0  0  0  0  0  0  0  0  0  0  0
    4.7935    1.3162   19.0760 C   0  0  0  0  0  0  0  0  0  0  0  0
    5.3997    1.2948   17.8121 C   0  0  0  0  0  0  0  0  0  0  0  0
    6.5628    0.6776   17.5577 N   0  0  0  0  0  0  0  0  0  0  0  0
    7.1660    0.0730   18.5942 C   0  0  0  0  0  0  0  0  0  0  0  0
    8.3685    2.0823   23.3258 C   0  0  0  0  0  0  0  0  0  0  0  0
    7.5967    2.0501   24.4720 C   0  0  0  0  0  0  0  0  0  0  0  0
    7.9979    3.1427   25.2858 C   0  0  0  0  0  0  0  0  0  0  0  0
    9.0255    3.8379   24.6019 C   0  0  0  0  0  0  0  0  0  0  0  0
    9.6304    4.9817   25.1629 C   0  0  0  0  0  0  0  0  0  0  0  0
    9.1922    5.4191   26.4092 C   0  0  0  0  0  0  0  0  0  0  0  0
    8.1605    4.7423   27.1041 C   0  0  0  0  0  0  0  0  0  0  0  0
    7.6410    5.3350   28.6480 Cl  0  0  0  0  0  0  0  0  0  0  0  0
    7.5760    3.6125   26.5461 C   0  0  0  0  0  0  0  0  0  0  0  0
    6.6061    2.9643   27.1948 F   0  0  0  0  0  0  0  0  0  0  0  0
    9.2253    3.1743   23.4173 N   0  0  0  0  0  0  0  0  0  0  0  0
  1  2  2  0
  2  3  1  0
  3  4  1  0
  4  5  1  1
  5  6  1  0
  4  7  1  0
  7  8  2  0
  8  9  1  0
  9 10  2  0
 10 11  1  0
 11 12  2  0
  2 13  1  0
 13 14  2  0
 14 15  1  0
 15 16  2  0
 16 17  1  0
 17 18  2  0
 18 19  1  0
 19 20  1  0
 19 21  2  0
 21 22  1  0
 16 23  1  0
 12  7  1  0
 23 13  1  0
 21 15  1  0
M  END
>  <plip>  (99) 
-0.17857142857142858

>  <filename>  (99) 
[H][O][C]([H])([H])[C]([H])([c]1[c]([H])[n][c]([H])[c]([H])[c]1[H])[N]([H])[C](=[O])[c]1[c]([H])[c]2[c]([F])[c]([Cl])[c]([H])[c]([H])[c]2[n]1[H]

>  <ID>  (99) 


$$$$

     RDKit          3D

 27 29  0  0  0  0  0  0  0  0999 V2000
    5.7838   -3.7951   20.0948 C   0  0  0  0  0  0  0  0  0  0  0  0
    6.7422   -2.7768   20.2336 O   0  0  0  0  0  0  0  0  0  0  0  0
    6.6775   -2.0341   21.4076 C   0  0  0  0  0  0  0  0  0  0  0  0
    7.2539   -2.7326   22.4942 O   0  0  0  0  0  0  0  0  0  0  0  0
    8.5868   -3.2006   22.3281 C   0  0  0  0  0  0  0  0  0  0  0  0
    7.3627   -0.6888   21.0214 C   0  0  2  0  0  0  0  0  0  0  0  0
    7.5726    0.1659   22.1656 N   0  0  0  0  0  0  0  0  0  0  0  0
    8.4306    1.2202   22.1599 C   0  0  0  0  0  0  0  0  0  0  0  0
    9.0932    1.5311   21.1839 O   0  0  0  0  0  0  0  0  0  0  0  0
    8.4049    1.9869   23.4805 C   0  0  0  0  0  0  0  0  0  0  0  0
    8.2524    3.3550   23.4720 C   0  0  0  0  0  0  0  0  0  0  0  0
    8.1388    4.0921   24.6930 C   0  0  0  0  0  0  0  0  0  0  0  0
    8.0251    5.5868   24.6273 C   0  0  0  0  0  0  0  0  0  0  0  0
    8.1168    3.5120   25.8752 N   0  0  0  0  0  0  0  0  0  0  0  0
    8.2850    2.1453   25.9262 C   0  0  0  0  0  0  0  0  0  0  0  0
    8.2691    1.5215   27.2302 C   0  0  0  0  0  0  0  0  0  0  0  0
    7.9921    2.2264   28.3582 O   0  0  0  0  0  0  0  0  0  0  0  0
    8.5770    0.1827   27.3644 C   0  0  0  0  0  0  0  0  0  0  0  0
    8.8904   -0.5911   26.2244 C   0  0  0  0  0  0  0  0  0  0  0  0
    8.8167   -0.0623   24.9547 C   0  0  0  0  0  0  0  0  0  0  0  0
    8.4968    1.3254   24.7673 C   0  0  0  0  0  0  0  0  0  0  0  0
    6.6247    0.0635   19.9156 C   0  0  0  0  0  0  0  0  0  0  0  0
    5.4072    0.7248   20.1259 C   0  0  0  0  0  0  0  0  0  0  0  0
    4.7880    1.3454   19.0382 C   0  0  0  0  0  0  0  0  0  0  0  0
    5.4144    1.3073   17.7861 C   0  0  0  0  0  0  0  0  0  0  0  0
    6.5827    0.6886   17.5636 N   0  0  0  0  0  0  0  0  0  0  0  0
    7.1556    0.0910   18.6198 C   0  0  0  0  0  0  0  0  0  0  0  0
  1  2  1  0
  2  3  1  0
  3  4  1  0
  4  5  1  0
  3  6  1  0
  6  7  1  1
  7  8  1  0
  8  9  2  0
  8 10  1  0
 10 11  2  0
 11 12  1  0
 12 13  1  0
 12 14  2  0
 14 15  1  0
 15 16  2  0
 16 17  1  0
 16 18  1  0
 18 19  2  0
 19 20  1  0
 20 21  2  0
  6 22  1  0
 22 23  2  0
 23 24  1  0
 24 25  2  0
 25 26  1  0
 26 27  2  0
 21 10  1  0
 27 22  1  0
 21 15  1  0
M  END
>  <plip>  (100) 
-0.17857142857142858

>  <filename>  (100) 
[H][O][c]1[c]([H])[c]([H])[c]([H])[c]2[c]([C](=[O])[N]([H])[C]([H])([c]3[c]([H])[n][c]([H])[c]([H])[c]3[H])[C]([H])([O][C]([H])([H])[H])[O][C]([H])([H])[H])[c]([H])[c]([C]([H])([H])[H])[n][c]12

>  <ID>  (100) 


$$$$
