
     RDKit          3D

 30 33  0  0  0  0  0  0  0  0999 V2000
    4.8032    1.2906   19.1004 C   0  0  0  0  0  0  0  0  0  0  0  0
    5.4070    1.2885   17.8409 C   0  0  0  0  0  0  0  0  0  0  0  0
    6.5747    0.6688   17.5939 N   0  0  0  0  0  0  0  0  0  0  0  0
    7.1746    0.0363   18.6049 C   0  0  0  0  0  0  0  0  0  0  0  0
    6.6467   -0.0110   19.9070 C   0  0  0  0  0  0  0  0  0  0  0  0
    7.3537   -0.7015   20.9280 N   0  0  0  0  0  0  0  0  0  0  0  0
    7.7350   -1.9756   20.7426 N   0  0  0  0  0  0  0  0  0  0  0  0
    8.2793   -2.3476   21.8930 C   0  0  0  0  0  0  0  0  0  0  0  0
    8.2809   -1.3167   22.8353 C   0  0  0  0  0  0  0  0  0  0  0  0
    7.6949   -0.2451   22.1866 C   0  0  0  0  0  0  0  0  0  0  0  0
    7.5272    1.0923   22.7159 C   0  0  0  0  0  0  0  0  0  0  0  0
    7.6681    1.5042   24.0040 C   0  0  0  0  0  0  0  0  0  0  0  0
    7.4485    2.9087   24.0174 C   0  0  0  0  0  0  0  0  0  0  0  0
    7.4671    3.7887   25.0378 N   0  0  0  0  0  0  0  0  0  0  0  0
    7.2066    5.0431   24.6840 C   0  0  0  0  0  0  0  0  0  0  0  0
    6.9248    5.4723   23.3637 C   0  0  0  0  0  0  0  0  0  0  0  0
    6.9051    4.5621   22.3031 C   0  0  0  0  0  0  0  0  0  0  0  0
    7.1856    3.2510   22.6741 C   0  0  0  0  0  0  0  0  0  0  0  0
    7.2384    2.1513   21.8818 O   0  0  0  0  0  0  0  0  0  0  0  0
    6.6865    4.8402   21.2708 H   0  0  0  0  0  0  0  0  0  0  0  0
    6.7241    6.5230   23.1890 H   0  0  0  0  0  0  0  0  0  0  0  0
    7.2211    5.7591   25.5026 H   0  0  0  0  0  0  0  0  0  0  0  0
    7.8960    0.8892   24.8576 H   0  0  0  0  0  0  0  0  0  0  0  0
    8.6829   -1.3203   23.8396 H   0  0  0  0  0  0  0  0  0  0  0  0
    8.6663   -3.3498   22.0091 H   0  0  0  0  0  0  0  0  0  0  0  0
    5.4221    0.6193   20.1581 C   0  0  0  0  0  0  0  0  0  0  0  0
    4.9921    0.6307   21.1618 H   0  0  0  0  0  0  0  0  0  0  0  0
    8.1229   -0.4410   18.3747 H   0  0  0  0  0  0  0  0  0  0  0  0
    4.9303    1.7822   16.9956 H   0  0  0  0  0  0  0  0  0  0  0  0
    3.8796    1.8354   19.2583 H   0  0  0  0  0  0  0  0  0  0  0  0
  1  2  2  0
  2  3  1  0
  3  4  2  0
  4  5  1  0
  5  6  1  0
  6  7  1  0
  7  8  2  0
  8  9  1  0
  9 10  2  0
 10 11  1  0
 11 12  2  0
 12 13  1  0
 13 14  2  0
 14 15  1  0
 15 16  2  0
 16 17  1  0
 17 18  2  0
 18 19  1  0
 17 20  1  0
 16 21  1  0
 15 22  1  0
 12 23  1  0
  9 24  1  0
  8 25  1  0
  5 26  2  0
 26 27  1  0
  4 28  1  0
  2 29  1  0
  1 30  1  0
 26  1  1  0
 10  6  1  0
 19 11  1  0
 18 13  1  0
M  END
>  <plip>  (1) 
-0.03571428571428571

>  <filename>  (1) 
[H][c]1[n][c]([H])[c](-[n]2[n][c]([H])[c]([H])[c]2-[c]2[o][c]3[c]([H])[c]([H])[c]([H])[n][c]3[c]2[H])[c]([H])[c]1[H]

$$$$
