
     RDKit          3D

 48 50  0  0  0  0  0  0  0  0999 V2000
    9.0318    1.7990   21.9494 C   0  0  0  0  0  0  0  0  0  0  0  0
    8.3852    0.6985   21.3483 O   0  0  0  0  0  0  0  0  0  0  0  0
    7.5584   -0.0883   22.1611 C   0  0  0  0  0  0  0  0  0  0  0  0
    8.3144   -0.7923   23.1127 O   0  0  0  0  0  0  0  0  0  0  0  0
    8.2948   -0.3128   24.4431 C   0  0  0  0  0  0  0  0  0  0  0  0
    7.3806   -0.6162   24.9739 H   0  0  0  0  0  0  0  0  0  0  0  0
    9.1510   -0.7660   24.9485 H   0  0  0  0  0  0  0  0  0  0  0  0
    8.3861    0.7810   24.5082 H   0  0  0  0  0  0  0  0  0  0  0  0
    6.8743   -1.0941   21.1862 C   0  0  0  0  0  0  0  0  0  0  0  0
    5.9545   -2.0299   21.8304 N   0  0  0  0  0  0  0  0  0  0  0  0
    5.7239   -3.2611   21.2917 C   0  0  0  0  0  0  0  0  0  0  0  0
    6.1897   -3.6187   20.2255 O   0  0  0  0  0  0  0  0  0  0  0  0
    4.8310   -4.1964   22.0662 C   0  0  0  0  0  0  0  0  0  0  0  0
    4.3812   -5.4570   21.8003 C   0  0  0  0  0  0  0  0  0  0  0  0
    3.4035   -5.6991   22.8101 C   0  0  0  0  0  0  0  0  0  0  0  0
    2.4188   -6.8116   22.9369 C   0  0  0  0  0  0  0  0  0  0  0  0
    2.0456   -7.6042   21.8349 C   0  0  0  0  0  0  0  0  0  0  0  0
    0.9582   -8.4730   21.9168 C   0  0  0  0  0  0  0  0  0  0  0  0
    0.2552   -8.5995   23.1166 C   0  0  0  0  0  0  0  0  0  0  0  0
    0.6455   -7.8743   24.2516 C   0  0  0  0  0  0  0  0  0  0  0  0
   -0.1394   -7.9451   25.5401 C   0  0  0  0  0  0  0  0  0  0  0  0
    0.2589   -7.2314   26.2667 H   0  0  0  0  0  0  0  0  0  0  0  0
   -0.1055   -8.9387   25.9982 H   0  0  0  0  0  0  0  0  0  0  0  0
   -1.1917   -7.6896   25.3734 H   0  0  0  0  0  0  0  0  0  0  0  0
    1.7319   -7.0037   24.1478 C   0  0  0  0  0  0  0  0  0  0  0  0
    2.0349   -6.4404   25.0284 H   0  0  0  0  0  0  0  0  0  0  0  0
   -0.6213   -9.2342   23.1837 H   0  0  0  0  0  0  0  0  0  0  0  0
    0.6506   -9.0449   21.0455 H   0  0  0  0  0  0  0  0  0  0  0  0
    2.5823   -7.5484   20.8981 H   0  0  0  0  0  0  0  0  0  0  0  0
    3.3463   -4.6773   23.6359 N   0  0  0  0  0  0  0  0  0  0  0  0
    4.2404   -3.7457   23.1920 O   0  0  0  0  0  0  0  0  0  0  0  0
    4.7170   -6.1133   21.0130 H   0  0  0  0  0  0  0  0  0  0  0  0
    5.4273   -1.7524   22.6465 H   0  0  0  0  0  0  0  0  0  0  0  0
    6.2281   -0.4085   19.9864 C   0  0  0  0  0  0  0  0  0  0  0  0
    5.0871    0.3996   20.0669 C   0  0  0  0  0  0  0  0  0  0  0  0
    4.7300    1.1635   18.9514 C   0  0  0  0  0  0  0  0  0  0  0  0
    5.5098    1.0787   17.7932 C   0  0  0  0  0  0  0  0  0  0  0  0
    6.5768    0.2764   17.6755 N   0  0  0  0  0  0  0  0  0  0  0  0
    6.9015   -0.4463   18.7561 C   0  0  0  0  0  0  0  0  0  0  0  0
    7.7746   -1.0894   18.6500 H   0  0  0  0  0  0  0  0  0  0  0  0
    5.2642    1.6763   16.9181 H   0  0  0  0  0  0  0  0  0  0  0  0
    3.8823    1.8392   18.9721 H   0  0  0  0  0  0  0  0  0  0  0  0
    4.4892    0.4535   20.9799 H   0  0  0  0  0  0  0  0  0  0  0  0
    7.7253   -1.6804   20.8252 H   0  0  0  0  0  0  0  0  0  0  0  0
    6.7855    0.5351   22.6547 H   0  0  0  0  0  0  0  0  0  0  0  0
    8.3169    2.5319   22.3541 H   0  0  0  0  0  0  0  0  0  0  0  0
    9.7235    1.4944   22.7438 H   0  0  0  0  0  0  0  0  0  0  0  0
    9.6022    2.2769   21.1506 H   0  0  0  0  0  0  0  0  0  0  0  0
  1  2  1  0
  2  3  1  0
  3  4  1  0
  4  5  1  0
  5  6  1  0
  5  7  1  0
  5  8  1  0
  3  9  1  0
  9 10  1  0
 10 11  1  0
 11 12  2  0
 11 13  1  0
 13 14  2  0
 14 15  1  0
 15 16  1  0
 16 17  2  0
 17 18  1  0
 18 19  2  0
 19 20  1  0
 20 21  1  0
 21 22  1  0
 21 23  1  0
 21 24  1  0
 20 25  2  0
 25 26  1  0
 19 27  1  0
 18 28  1  0
 17 29  1  0
 15 30  2  0
 30 31  1  0
 14 32  1  0
 10 33  1  0
  9 34  1  0
 34 35  2  0
 35 36  1  0
 36 37  2  0
 37 38  1  0
 38 39  2  0
 39 40  1  0
 37 41  1  0
 36 42  1  0
 35 43  1  0
  9 44  1  0
  3 45  1  0
  1 46  1  0
  1 47  1  0
  1 48  1  0
 31 13  1  0
 39 34  1  0
 25 16  1  0
M  END
>  <plip>  (1) 
-0.17857142857142858

>  <filename>  (1) 
[H][c]1[n][c]([H])[c]([C]([H])([N]([H])[C](=[O])[c]2[o][n][c](-[c]3[c]([H])[c]([H])[c]([H])[c]([C]([H])([H])[H])[c]3[H])[c]2[H])[C]([H])([O][C]([H])([H])[H])[O][C]([H])([H])[H])[c]([H])[c]1[H]

$$$$
