
     RDKit          3D

 32 34  0  0  0  0  0  0  0  0999 V2000
    6.2631    0.2046   23.9527 H   0  0  0  0  0  0  0  0  0  0  0  0
    6.2003    1.0504   23.4846 O   0  0  0  0  0  0  0  0  0  0  0  0
    7.3619    1.0898   22.7003 C   0  0  1  0  0  0  0  0  0  0  0  0
    7.1591    1.7323   21.8389 H   0  0  0  0  0  0  0  0  0  0  0  0
    8.5864    1.6526   23.4100 C   0  0  0  0  0  0  0  0  0  0  0  0
    9.5965    2.2204   22.6180 C   0  0  0  0  0  0  0  0  0  0  0  0
    9.4576    2.2942   21.5404 H   0  0  0  0  0  0  0  0  0  0  0  0
   10.7840    2.6754   23.1969 C   0  0  0  0  0  0  0  0  0  0  0  0
   11.5533    3.1391   22.5851 H   0  0  0  0  0  0  0  0  0  0  0  0
   10.9844    2.5423   24.5709 C   0  0  0  0  0  0  0  0  0  0  0  0
   11.9284    2.8699   24.9918 H   0  0  0  0  0  0  0  0  0  0  0  0
    9.9736    1.9948   25.3706 C   0  0  0  0  0  0  0  0  0  0  0  0
   10.0860    1.9094   26.4432 H   0  0  0  0  0  0  0  0  0  0  0  0
    8.7810    1.5537   24.7951 C   0  0  0  0  0  0  0  0  0  0  0  0
    8.0037    1.1407   25.4375 H   0  0  0  0  0  0  0  0  0  0  0  0
    7.6276   -0.2767   22.2190 N   0  0  0  0  0  0  0  0  0  0  0  0
    7.3798   -0.7255   20.9523 C   0  0  0  0  0  0  0  0  0  0  0  0
    6.6431    0.0299   19.9348 C   0  0  0  0  0  0  0  0  0  0  0  0
    7.1500    0.0371   18.6291 C   0  0  0  0  0  0  0  0  0  0  0  0
    8.0847   -0.4671   18.3865 H   0  0  0  0  0  0  0  0  0  0  0  0
    6.5581    0.6570   17.6051 N   0  0  0  0  0  0  0  0  0  0  0  0
    5.3994    1.2945   17.8394 C   0  0  0  0  0  0  0  0  0  0  0  0
    4.9544    1.8034   16.9826 H   0  0  0  0  0  0  0  0  0  0  0  0
    4.7876    1.3220   19.0975 C   0  0  0  0  0  0  0  0  0  0  0  0
    3.8502    1.8543   19.2171 H   0  0  0  0  0  0  0  0  0  0  0  0
    5.4238    0.6869   20.1653 C   0  0  0  0  0  0  0  0  0  0  0  0
    4.9900    0.6992   21.1642 H   0  0  0  0  0  0  0  0  0  0  0  0
    7.8685   -1.9247   20.7603 N   0  0  0  0  0  0  0  0  0  0  0  0
    8.4117   -2.3110   21.9592 C   0  0  0  0  0  0  0  0  0  0  0  0
    8.8294   -3.3054   22.0632 H   0  0  0  0  0  0  0  0  0  0  0  0
    8.2922   -1.3060   22.8770 C   0  0  0  0  0  0  0  0  0  0  0  0
    8.6553   -1.1852   23.8900 H   0  0  0  0  0  0  0  0  0  0  0  0
  1  2  1  0
  2  3  1  0
  3  4  1  6
  3  5  1  0
  5  6  2  0
  6  7  1  0
  6  8  1  0
  8  9  1  0
  8 10  2  0
 10 11  1  0
 10 12  1  0
 12 13  1  0
 12 14  2  0
 14 15  1  0
  3 16  1  0
 16 17  1  0
 17 18  1  0
 18 19  2  0
 19 20  1  0
 19 21  1  0
 21 22  2  0
 22 23  1  0
 22 24  1  0
 24 25  1  0
 24 26  2  0
 26 27  1  0
 17 28  2  0
 28 29  1  0
 29 30  1  0
 29 31  2  0
 31 32  1  0
 14  5  1  0
 31 16  1  0
 26 18  1  0
M  END
>  <plip>  (1) 
-0.10344827586206896

>  <filename>  (1) 
[H][O][C@@]([H])([c]1[c]([H])[c]([H])[c]([H])[c]([H])[c]1[H])[n]1[c](-[c]2[c]([H])[n][c]([H])[c]([H])[c]2[H])[n][c]([H])[c]1[H]

$$$$
