
     RDKit          3D

 46 48  0  0  0  0  0  0  0  0999 V2000
    4.4141   -3.7595   22.7671 C   0  0  0  0  0  0  0  0  0  0  0  0
    5.9120   -3.6953   22.9871 C   0  0  0  0  0  0  0  0  0  0  0  0
    6.4521   -2.4136   22.5963 O   0  0  0  0  0  0  0  0  0  0  0  0
    6.6172   -2.1631   21.2995 C   0  0  0  0  0  0  0  0  0  0  0  0
    6.3432   -2.9333   20.4063 O   0  0  0  0  0  0  0  0  0  0  0  0
    7.3193   -0.7927   21.0133 C   0  0  0  0  0  0  0  0  0  0  0  0
    7.4242   -0.0274   22.2178 O   0  0  0  0  0  0  0  0  0  0  0  0
    8.1663    1.0884   22.2357 C   0  0  0  0  0  0  0  0  0  0  0  0
    8.8298    1.4964   21.3166 O   0  0  0  0  0  0  0  0  0  0  0  0
    8.1444    1.7985   23.6025 C   0  0  0  0  0  0  0  0  0  0  0  0
    7.2197    1.3943   24.5953 O   0  0  0  0  0  0  0  0  0  0  0  0
    7.2653    0.1208   25.1109 C   0  0  0  0  0  0  0  0  0  0  0  0
    8.4097   -0.7134   25.0402 C   0  0  0  0  0  0  0  0  0  0  0  0
    8.3647   -1.9855   25.5737 C   0  0  0  0  0  0  0  0  0  0  0  0
    7.1864   -2.4880   26.2006 C   0  0  0  0  0  0  0  0  0  0  0  0
    7.1045   -3.8049   26.7441 C   0  0  0  0  0  0  0  0  0  0  0  0
    5.9314   -4.2593   27.3152 C   0  0  0  0  0  0  0  0  0  0  0  0
    4.7914   -3.4191   27.3774 C   0  0  0  0  0  0  0  0  0  0  0  0
    4.8348   -2.1404   26.8630 C   0  0  0  0  0  0  0  0  0  0  0  0
    6.0314   -1.6399   26.2622 C   0  0  0  0  0  0  0  0  0  0  0  0
    6.1033   -0.3289   25.7077 C   0  0  0  0  0  0  0  0  0  0  0  0
    5.2399    0.3263   25.7321 H   0  0  0  0  0  0  0  0  0  0  0  0
    3.9633   -1.4904   26.9021 H   0  0  0  0  0  0  0  0  0  0  0  0
    3.8805   -3.7881   27.8441 H   0  0  0  0  0  0  0  0  0  0  0  0
    5.8858   -5.2628   27.7279 H   0  0  0  0  0  0  0  0  0  0  0  0
    7.9820   -4.4438   26.6889 H   0  0  0  0  0  0  0  0  0  0  0  0
    9.2289   -2.6412   25.5111 H   0  0  0  0  0  0  0  0  0  0  0  0
    9.3144   -0.3726   24.5485 H   0  0  0  0  0  0  0  0  0  0  0  0
    9.1729    1.7827   23.9808 H   0  0  0  0  0  0  0  0  0  0  0  0
    7.9364    2.8488   23.4065 H   0  0  0  0  0  0  0  0  0  0  0  0
    6.6406    0.0181   19.9230 C   0  0  0  0  0  0  0  0  0  0  0  0
    5.4343    0.6874   20.1577 C   0  0  0  0  0  0  0  0  0  0  0  0
    4.8133    1.3312   19.0866 C   0  0  0  0  0  0  0  0  0  0  0  0
    5.4332    1.3073   17.8310 C   0  0  0  0  0  0  0  0  0  0  0  0
    6.6030    0.7002   17.5960 N   0  0  0  0  0  0  0  0  0  0  0  0
    7.1869    0.0843   18.6369 C   0  0  0  0  0  0  0  0  0  0  0  0
    8.1417   -0.3986   18.4254 H   0  0  0  0  0  0  0  0  0  0  0  0
    4.9591    1.7904   16.9770 H   0  0  0  0  0  0  0  0  0  0  0  0
    3.8732    1.8518   19.2092 H   0  0  0  0  0  0  0  0  0  0  0  0
    5.0076    0.7173   21.1627 H   0  0  0  0  0  0  0  0  0  0  0  0
    8.3198   -1.0988   20.6804 H   0  0  0  0  0  0  0  0  0  0  0  0
    6.1843   -3.7765   24.0404 H   0  0  0  0  0  0  0  0  0  0  0  0
    6.4393   -4.4741   22.4298 H   0  0  0  0  0  0  0  0  0  0  0  0
    4.0832   -4.8025   22.7844 H   0  0  0  0  0  0  0  0  0  0  0  0
    3.8833   -3.2225   23.5633 H   0  0  0  0  0  0  0  0  0  0  0  0
    4.1677   -3.3488   21.7817 H   0  0  0  0  0  0  0  0  0  0  0  0
  1  2  1  0
  2  3  1  0
  3  4  1  0
  4  5  2  0
  4  6  1  0
  6  7  1  0
  7  8  1  0
  8  9  2  0
  8 10  1  0
 10 11  1  0
 11 12  1  0
 12 13  2  0
 13 14  1  0
 14 15  2  0
 15 16  1  0
 16 17  2  0
 17 18  1  0
 18 19  2  0
 19 20  1  0
 20 21  2  0
 21 22  1  0
 19 23  1  0
 18 24  1  0
 17 25  1  0
 16 26  1  0
 14 27  1  0
 13 28  1  0
 10 29  1  0
 10 30  1  0
  6 31  1  0
 31 32  2  0
 32 33  1  0
 33 34  2  0
 34 35  1  0
 35 36  2  0
 36 37  1  0
 34 38  1  0
 33 39  1  0
 32 40  1  0
  6 41  1  0
  2 42  1  0
  2 43  1  0
  1 44  1  0
  1 45  1  0
  1 46  1  0
 21 12  1  0
 36 31  1  0
 20 15  1  0
M  END
>  <plip>  (1) 
-0.10344827586206896

>  <filename>  (1) 
[H][c]1[n][c]([H])[c]([C]([H])([O][C](=[O])[C]([H])([H])[O][c]2[c]([H])[c]([H])[c]3[c]([H])[c]([H])[c]([H])[c]([H])[c]3[c]2[H])[C](=[O])[O][C]([H])([H])[C]([H])([H])[H])[c]([H])[c]1[H]

$$$$
