
     RDKit          3D

 39 42  0  0  0  0  0  0  0  0999 V2000
    4.9513    1.7864   16.9789 H   0  0  0  0  0  0  0  0  0  0  0  0
    5.4087    1.2960   17.8341 C   0  0  0  0  0  0  0  0  0  0  0  0
    6.5716    0.6685   17.5976 N   0  0  0  0  0  0  0  0  0  0  0  0
    7.1578    0.0610   18.6386 C   0  0  0  0  0  0  0  0  0  0  0  0
    8.1073   -0.4328   18.4226 H   0  0  0  0  0  0  0  0  0  0  0  0
    6.6312    0.0464   19.9483 C   0  0  0  0  0  0  0  0  0  0  0  0
    7.3451   -0.6197   21.0998 C   0  0  0  0  0  0  0  0  0  0  0  0
    8.2677    0.2463   21.8945 C   0  0  0  0  0  0  0  0  0  0  0  0
    9.5469    0.2023   22.0034 N   0  0  0  0  0  0  0  0  0  0  0  0
    9.9212    1.2212   22.8790 N   0  0  0  0  0  0  0  0  0  0  0  0
    8.8186    1.7863   23.2252 C   0  0  0  0  0  0  0  0  0  0  0  0
    8.7123    2.7629   24.1715 N   0  0  0  0  0  0  0  0  0  0  0  0
    9.4552    2.7101   24.8476 H   0  0  0  0  0  0  0  0  0  0  0  0
    7.5639    3.2651   24.7543 C   0  0  0  0  0  0  0  0  0  0  0  0
    7.5959    3.5964   26.3670 S   0  0  0  0  0  0  0  0  0  0  0  0
    6.5693    3.4656   23.8831 N   0  0  0  0  0  0  0  0  0  0  0  0
    6.7046    3.1112   22.9539 H   0  0  0  0  0  0  0  0  0  0  0  0
    5.3341    4.1097   24.1259 C   0  0  0  0  0  0  0  0  0  0  0  0
    5.2705    5.3295   24.8024 C   0  0  0  0  0  0  0  0  0  0  0  0
    6.1957    5.7882   25.1332 H   0  0  0  0  0  0  0  0  0  0  0  0
    4.0215    5.9042   25.0476 C   0  0  0  0  0  0  0  0  0  0  0  0
    3.9736    6.8405   25.5962 H   0  0  0  0  0  0  0  0  0  0  0  0
    2.8516    5.2754   24.6062 C   0  0  0  0  0  0  0  0  0  0  0  0
    1.8863    5.7236   24.8239 H   0  0  0  0  0  0  0  0  0  0  0  0
    2.9312    4.0732   23.8902 C   0  0  0  0  0  0  0  0  0  0  0  0
    2.0223    3.5883   23.5459 H   0  0  0  0  0  0  0  0  0  0  0  0
    4.1806    3.5003   23.6324 C   0  0  0  0  0  0  0  0  0  0  0  0
    4.2906    2.5707   23.0788 H   0  0  0  0  0  0  0  0  0  0  0  0
    7.7212    1.2722   22.6366 O   0  0  0  0  0  0  0  0  0  0  0  0
    6.6160   -1.7143   21.8747 C   0  0  0  0  0  0  0  0  0  0  0  0
    6.7932   -1.7831   22.9444 H   0  0  0  0  0  0  0  0  0  0  0  0
    5.5838   -1.9172   21.5782 H   0  0  0  0  0  0  0  0  0  0  0  0
    7.6934   -2.0677   20.8937 C   0  0  0  0  0  0  0  0  0  0  0  0
    7.2552   -2.4693   19.9895 H   0  0  0  0  0  0  0  0  0  0  0  0
    8.6891   -2.4209   21.1725 H   0  0  0  0  0  0  0  0  0  0  0  0
    5.4190    0.7058   20.1633 C   0  0  0  0  0  0  0  0  0  0  0  0
    4.9796    0.7096   21.1642 H   0  0  0  0  0  0  0  0  0  0  0  0
    4.7938    1.3384   19.0886 C   0  0  0  0  0  0  0  0  0  0  0  0
    3.8530    1.8619   19.2088 H   0  0  0  0  0  0  0  0  0  0  0  0
  1  2  1  0
  2  3  2  0
  3  4  1  0
  4  5  1  0
  4  6  2  0
  6  7  1  0
  7  8  1  0
  8  9  2  0
  9 10  1  0
 10 11  2  0
 11 12  1  0
 12 13  1  0
 12 14  1  0
 14 15  2  0
 14 16  1  0
 16 17  1  0
 16 18  1  0
 18 19  2  0
 19 20  1  0
 19 21  1  0
 21 22  1  0
 21 23  2  0
 23 24  1  0
 23 25  1  0
 25 26  1  0
 25 27  2  0
 27 28  1  0
 11 29  1  0
  7 30  1  0
 30 31  1  0
 30 32  1  0
 30 33  1  0
 33 34  1  0
 33 35  1  0
  6 36  1  0
 36 37  1  0
 36 38  2  0
 38 39  1  0
 38  2  1  0
 33  7  1  0
 29  8  1  0
 27 18  1  0
M  END
>  <plip>  (1) 
-0.03571428571428571

>  <filename>  (1) 
[H][c]1[n][c]([H])[c]([C]2([c]3[n][n][c]([N]([H])[C](=[S])[N]([H])[c]4[c]([H])[c]([H])[c]([H])[c]([H])[c]4[H])[o]3)[C]([H])([H])[C]2([H])[H])[c]([H])[c]1[H]

$$$$
