
     RDKit          3D

 36 38  0  0  0  0  0  0  0  0999 V2000
    5.1017   -3.3829   22.3318 C   0  0  0  0  0  0  0  0  0  0  0  0
    5.8180   -2.1592   22.1387 O   0  0  0  0  0  0  0  0  0  0  0  0
    6.8521   -2.1628   21.3008 C   0  0  0  0  0  0  0  0  0  0  0  0
    7.3130   -3.1649   20.8090 O   0  0  0  0  0  0  0  0  0  0  0  0
    7.4174   -0.7372   21.0132 C   0  0  0  0  0  0  0  0  0  0  0  0
    7.4792    0.0207   22.2349 O   0  0  0  0  0  0  0  0  0  0  0  0
    8.1710    1.1897   22.2365 C   0  0  0  0  0  0  0  0  0  0  0  0
    8.8089    1.5894   21.2926 O   0  0  0  0  0  0  0  0  0  0  0  0
    8.0156    1.8450   23.5398 C   0  0  0  0  0  0  0  0  0  0  0  0
    7.2547    1.4985   24.6373 C   0  0  0  0  0  0  0  0  0  0  0  0
    7.3923    2.3834   25.6453 N   0  0  0  0  0  0  0  0  0  0  0  0
    8.2431    3.3007   25.2000 C   0  0  0  0  0  0  0  0  0  0  0  0
    8.7604    4.4712   25.8377 C   0  0  0  0  0  0  0  0  0  0  0  0
    9.6355    5.2718   25.1573 C   0  0  0  0  0  0  0  0  0  0  0  0
   10.0357    4.9471   23.8135 C   0  0  0  0  0  0  0  0  0  0  0  0
    9.5420    3.8299   23.1962 C   0  0  0  0  0  0  0  0  0  0  0  0
    8.6600    3.0220   23.8997 N   0  0  0  0  0  0  0  0  0  0  0  0
    9.7587    3.4953   22.1893 H   0  0  0  0  0  0  0  0  0  0  0  0
   10.7285    5.5938   23.2847 H   0  0  0  0  0  0  0  0  0  0  0  0
   10.0310    6.1676   25.6297 H   0  0  0  0  0  0  0  0  0  0  0  0
    8.4231    4.6714   26.8483 H   0  0  0  0  0  0  0  0  0  0  0  0
    6.6042    0.6283   24.7263 H   0  0  0  0  0  0  0  0  0  0  0  0
    6.6517    0.0274   19.9370 C   0  0  0  0  0  0  0  0  0  0  0  0
    5.4397    0.6988   20.1586 C   0  0  0  0  0  0  0  0  0  0  0  0
    4.8163    1.3246   19.0748 C   0  0  0  0  0  0  0  0  0  0  0  0
    5.4366    1.2978   17.8224 C   0  0  0  0  0  0  0  0  0  0  0  0
    6.6095    0.6893   17.6016 N   0  0  0  0  0  0  0  0  0  0  0  0
    7.1934    0.0894   18.6484 C   0  0  0  0  0  0  0  0  0  0  0  0
    8.1570   -0.3829   18.4460 H   0  0  0  0  0  0  0  0  0  0  0  0
    4.9744    1.7870   16.9634 H   0  0  0  0  0  0  0  0  0  0  0  0
    3.8726    1.8437   19.1820 H   0  0  0  0  0  0  0  0  0  0  0  0
    4.9983    0.7660   21.1540 H   0  0  0  0  0  0  0  0  0  0  0  0
    8.4337   -0.9520   20.6593 H   0  0  0  0  0  0  0  0  0  0  0  0
    5.7609   -4.1662   22.7134 H   0  0  0  0  0  0  0  0  0  0  0  0
    4.6571   -3.7010   21.3862 H   0  0  0  0  0  0  0  0  0  0  0  0
    4.3191   -3.1694   23.0601 H   0  0  0  0  0  0  0  0  0  0  0  0
  1  2  1  0
  2  3  1  0
  3  4  2  0
  3  5  1  0
  5  6  1  0
  6  7  1  0
  7  8  2  0
  7  9  1  0
  9 10  2  0
 10 11  1  0
 11 12  2  0
 12 13  1  0
 13 14  2  0
 14 15  1  0
 15 16  2  0
 16 17  1  0
 16 18  1  0
 15 19  1  0
 14 20  1  0
 13 21  1  0
 10 22  1  0
  5 23  1  0
 23 24  2  0
 24 25  1  0
 25 26  2  0
 26 27  1  0
 27 28  2  0
 28 29  1  0
 26 30  1  0
 25 31  1  0
 24 32  1  0
  5 33  1  0
  1 34  1  0
  1 35  1  0
  1 36  1  0
 17  9  1  0
 28 23  1  0
 17 12  1  0
M  END
>  <plip>  (1) 
-0.10714285714285714

>  <filename>  (1) 
[H][c]1[n][c]([H])[c]([C]([H])([O][C](=[O])[c]2[c]([H])[n][c]3[c]([H])[c]([H])[c]([H])[c]([H])[n]23)[C](=[O])[O][C]([H])([H])[H])[c]([H])[c]1[H]

$$$$
