
     RDKit          3D

 47 49  0  0  0  0  0  0  0  0999 V2000
    7.5087    1.1495   22.5695 C   0  0  0  0  0  0  0  0  0  0  0  0
    7.7154   -0.2962   22.1766 C   0  0  0  0  0  0  0  0  0  0  0  0
    7.4886   -0.7545   20.9343 C   0  0  0  0  0  0  0  0  0  0  0  0
    6.7120   -0.0834   19.8628 C   0  0  0  0  0  0  0  0  0  0  0  0
    5.5163    0.6122   20.1029 C   0  0  0  0  0  0  0  0  0  0  0  0
    4.8959    1.2842   19.0458 C   0  0  0  0  0  0  0  0  0  0  0  0
    5.4849    1.2318   17.7803 C   0  0  0  0  0  0  0  0  0  0  0  0
    6.5984    0.5290   17.5089 N   0  0  0  0  0  0  0  0  0  0  0  0
    7.1741   -0.1169   18.5282 C   0  0  0  0  0  0  0  0  0  0  0  0
    8.0752   -0.6792   18.2860 H   0  0  0  0  0  0  0  0  0  0  0  0
    5.0427    1.7714   16.9458 H   0  0  0  0  0  0  0  0  0  0  0  0
    3.9905    1.8597   19.1985 H   0  0  0  0  0  0  0  0  0  0  0  0
    5.0837    0.6245   21.1042 H   0  0  0  0  0  0  0  0  0  0  0  0
    7.9867   -1.6758   20.6080 H   0  0  0  0  0  0  0  0  0  0  0  0
    8.3338   -1.1819   23.2500 C   0  0  0  0  0  0  0  0  0  0  0  0
    9.1040   -0.7506   24.0960 O   0  0  0  0  0  0  0  0  0  0  0  0
    7.9444   -2.4921   23.2437 N   0  0  0  0  0  0  0  0  0  0  0  0
    8.3238   -3.4517   24.2774 C   0  0  0  0  0  0  0  0  0  0  0  0
    7.8079   -3.1896   25.7133 C   0  0  0  0  0  0  0  0  0  0  0  0
    6.3905   -3.3447   25.9055 N   0  0  0  0  0  0  0  0  0  0  0  0
    5.7677   -4.5698   26.0029 C   0  0  0  0  0  0  0  0  0  0  0  0
    6.3371   -5.8164   26.2883 C   0  0  0  0  0  0  0  0  0  0  0  0
    5.4987   -6.9334   26.3423 C   0  0  0  0  0  0  0  0  0  0  0  0
    4.1253   -6.8116   26.0969 C   0  0  0  0  0  0  0  0  0  0  0  0
    3.5600   -5.5487   25.8635 C   0  0  0  0  0  0  0  0  0  0  0  0
    4.3781   -4.4210   25.8423 C   0  0  0  0  0  0  0  0  0  0  0  0
    4.0696   -2.9461   25.7113 C   0  0  0  0  0  0  0  0  0  0  0  0
    5.4119   -2.2806   26.1198 C   0  0  0  0  0  0  0  0  0  0  0  0
    5.7421   -0.9577   25.4465 C   0  0  0  0  0  0  0  0  0  0  0  0
    6.6339   -0.5124   25.8978 H   0  0  0  0  0  0  0  0  0  0  0  0
    4.9131   -0.2622   25.6027 H   0  0  0  0  0  0  0  0  0  0  0  0
    5.9089   -1.0408   24.3688 H   0  0  0  0  0  0  0  0  0  0  0  0
    5.3566   -2.0919   27.2056 H   0  0  0  0  0  0  0  0  0  0  0  0
    3.7783   -2.6818   24.6853 H   0  0  0  0  0  0  0  0  0  0  0  0
    3.2632   -2.6201   26.3788 H   0  0  0  0  0  0  0  0  0  0  0  0
    2.4841   -5.4418   25.7507 H   0  0  0  0  0  0  0  0  0  0  0  0
    3.4973   -7.6995   26.0867 H   0  0  0  0  0  0  0  0  0  0  0  0
    5.9069   -7.8931   26.6406 H   0  0  0  0  0  0  0  0  0  0  0  0
    7.3974   -5.9168   26.4938 H   0  0  0  0  0  0  0  0  0  0  0  0
    8.3353   -3.8925   26.3755 H   0  0  0  0  0  0  0  0  0  0  0  0
    8.1129   -2.1867   26.0212 H   0  0  0  0  0  0  0  0  0  0  0  0
    9.4161   -3.4667   24.3446 H   0  0  0  0  0  0  0  0  0  0  0  0
    8.0009   -4.4504   23.9664 H   0  0  0  0  0  0  0  0  0  0  0  0
    7.2448   -2.7428   22.5616 H   0  0  0  0  0  0  0  0  0  0  0  0
    7.4745    1.7940   21.6860 H   0  0  0  0  0  0  0  0  0  0  0  0
    6.5765    1.3010   23.1303 H   0  0  0  0  0  0  0  0  0  0  0  0
    8.3231    1.4925   23.2149 H   0  0  0  0  0  0  0  0  0  0  0  0
  1  2  1  0
  2  3  2  3
  3  4  1  0
  4  5  2  0
  5  6  1  0
  6  7  2  0
  7  8  1  0
  8  9  2  0
  9 10  1  0
  7 11  1  0
  6 12  1  0
  5 13  1  0
  3 14  1  0
  2 15  1  0
 15 16  2  0
 15 17  1  0
 17 18  1  0
 18 19  1  0
 19 20  1  0
 20 21  1  0
 21 22  2  0
 22 23  1  0
 23 24  2  0
 24 25  1  0
 25 26  2  0
 26 27  1  0
 27 28  1  0
 28 29  1  0
 29 30  1  0
 29 31  1  0
 29 32  1  0
 28 33  1  0
 27 34  1  0
 27 35  1  0
 25 36  1  0
 24 37  1  0
 23 38  1  0
 22 39  1  0
 19 40  1  0
 19 41  1  0
 18 42  1  0
 18 43  1  0
 17 44  1  0
  1 45  1  0
  1 46  1  0
  1 47  1  0
  9  4  1  0
 28 20  1  0
 26 21  1  0
M  END
>  <plip>  (1) 
-0.14285714285714285

>  <filename>  (1) 
[H][C](=[C]([C](=[O])[N]([H])[C]([H])([H])[C]([H])([H])[N]1[c]2[c]([H])[c]([H])[c]([H])[c]([H])[c]2[C]([H])([H])[C]1([H])[C]([H])([H])[H])[C]([H])([H])[H])[c]1[c]([H])[n][c]([H])[c]([H])[c]1[H]

$$$$
