
     RDKit          3D

 45 46  0  0  0  0  0  0  0  0999 V2000
   11.1052   -1.2089   21.3558 C   0  0  0  0  0  0  0  0  0  0  0  0
    9.6443   -1.5360   21.0342 C   0  0  0  0  0  0  0  0  0  0  0  0
    8.6851   -0.3789   21.3224 C   0  0  0  0  0  0  0  0  0  0  0  0
    7.2892   -0.6833   20.9721 N   0  0  0  0  0  0  0  0  0  0  0  0
    6.5885   -1.7772   21.5028 C   0  0  0  0  0  0  0  0  0  0  0  0
    5.5767   -2.2396   21.0088 O   0  0  0  0  0  0  0  0  0  0  0  0
    7.1408   -2.3147   22.6371 N   0  0  0  0  0  0  0  0  0  0  0  0
    6.3918   -3.2816   23.4336 C   0  0  0  0  0  0  0  0  0  0  0  0
    7.1200   -3.4550   24.7450 C   0  0  0  0  0  0  0  0  0  0  0  0
    8.2358   -4.3083   24.8654 C   0  0  0  0  0  0  0  0  0  0  0  0
    8.8331   -5.0019   23.6650 C   0  0  0  0  0  0  0  0  0  0  0  0
    9.9160   -5.0184   23.7926 H   0  0  0  0  0  0  0  0  0  0  0  0
    8.6173   -4.4689   22.7343 H   0  0  0  0  0  0  0  0  0  0  0  0
    8.4824   -6.0373   23.5588 H   0  0  0  0  0  0  0  0  0  0  0  0
    8.8385   -4.4986   26.1309 C   0  0  0  0  0  0  0  0  0  0  0  0
   10.0088   -5.4390   26.3333 C   0  0  0  0  0  0  0  0  0  0  0  0
   10.8973   -5.0928   25.7894 H   0  0  0  0  0  0  0  0  0  0  0  0
   10.2853   -5.5102   27.3898 H   0  0  0  0  0  0  0  0  0  0  0  0
    9.7804   -6.4499   25.9803 H   0  0  0  0  0  0  0  0  0  0  0  0
    8.3722   -3.7571   27.2167 C   0  0  0  0  0  0  0  0  0  0  0  0
    7.3608   -2.8014   27.0704 C   0  0  0  0  0  0  0  0  0  0  0  0
    6.7383   -2.6623   25.8347 C   0  0  0  0  0  0  0  0  0  0  0  0
    5.9713   -1.9028   25.6949 H   0  0  0  0  0  0  0  0  0  0  0  0
    7.0366   -2.1495   27.8755 H   0  0  0  0  0  0  0  0  0  0  0  0
    8.8260   -3.9802   28.1730 H   0  0  0  0  0  0  0  0  0  0  0  0
    5.3586   -2.9472   23.6172 H   0  0  0  0  0  0  0  0  0  0  0  0
    6.3135   -4.2260   22.8764 H   0  0  0  0  0  0  0  0  0  0  0  0
    7.7328   -1.6800   23.1430 H   0  0  0  0  0  0  0  0  0  0  0  0
    6.6698    0.0341   19.8939 C   0  0  0  0  0  0  0  0  0  0  0  0
    5.4312    0.6578   20.0974 C   0  0  0  0  0  0  0  0  0  0  0  0
    4.8333    1.3323   19.0297 C   0  0  0  0  0  0  0  0  0  0  0  0
    5.4760    1.3362   17.7869 C   0  0  0  0  0  0  0  0  0  0  0  0
    6.6539    0.7305   17.5664 N   0  0  0  0  0  0  0  0  0  0  0  0
    7.2329    0.1042   18.6010 C   0  0  0  0  0  0  0  0  0  0  0  0
    8.1731   -0.4094   18.3934 H   0  0  0  0  0  0  0  0  0  0  0  0
    5.0176    1.8241   16.9294 H   0  0  0  0  0  0  0  0  0  0  0  0
    3.8787    1.8342   19.1450 H   0  0  0  0  0  0  0  0  0  0  0  0
    4.9558    0.5820   21.0740 H   0  0  0  0  0  0  0  0  0  0  0  0
    8.7688   -0.0705   22.3779 H   0  0  0  0  0  0  0  0  0  0  0  0
    8.9839    0.5019   20.7431 H   0  0  0  0  0  0  0  0  0  0  0  0
    9.5207   -1.8131   19.9815 H   0  0  0  0  0  0  0  0  0  0  0  0
    9.3337   -2.4103   21.6135 H   0  0  0  0  0  0  0  0  0  0  0  0
   11.7601   -2.0534   21.1133 H   0  0  0  0  0  0  0  0  0  0  0  0
   11.4702   -0.3431   20.7916 H   0  0  0  0  0  0  0  0  0  0  0  0
   11.2392   -0.9886   22.4225 H   0  0  0  0  0  0  0  0  0  0  0  0
  1  2  1  0
  2  3  1  0
  3  4  1  0
  4  5  1  0
  5  6  2  0
  5  7  1  0
  7  8  1  0
  8  9  1  0
  9 10  2  0
 10 11  1  0
 11 12  1  0
 11 13  1  0
 11 14  1  0
 10 15  1  0
 15 16  1  0
 16 17  1  0
 16 18  1  0
 16 19  1  0
 15 20  2  0
 20 21  1  0
 21 22  2  0
 22 23  1  0
 21 24  1  0
 20 25  1  0
  8 26  1  0
  8 27  1  0
  7 28  1  0
  4 29  1  0
 29 30  2  0
 30 31  1  0
 31 32  2  0
 32 33  1  0
 33 34  2  0
 34 35  1  0
 32 36  1  0
 31 37  1  0
 30 38  1  0
  3 39  1  0
  3 40  1  0
  2 41  1  0
  2 42  1  0
  1 43  1  0
  1 44  1  0
  1 45  1  0
 22  9  1  0
 34 29  1  0
M  END
>  <plip>  (1) 
-0.07142857142857142

>  <filename>  (1) 
[H][c]1[n][c]([H])[c]([N]([C](=[O])[N]([H])[C]([H])([H])[c]2[c]([H])[c]([H])[c]([H])[c]([C]([H])([H])[H])[c]2[C]([H])([H])[H])[C]([H])([H])[C]([H])([H])[C]([H])([H])[H])[c]([H])[c]1[H]

$$$$
