
     RDKit          3D

 33 35  0  0  0  0  0  0  0  0999 V2000
    9.5178    1.0383   20.6433 O   0  0  0  0  0  0  0  0  0  0  0  0
    8.8978    1.1656   21.6792 C   0  0  0  0  0  0  0  0  0  0  0  0
    7.8481    0.3951   22.0260 O   0  0  0  0  0  0  0  0  0  0  0  0
    7.4379   -0.5937   21.0666 C   0  0  0  0  0  0  0  0  0  0  0  0
    6.6769    0.0504   19.9442 C   0  0  0  0  0  0  0  0  0  0  0  0
    5.4493    0.6915   20.1689 C   0  0  0  0  0  0  0  0  0  0  0  0
    4.8202    1.3083   19.0879 C   0  0  0  0  0  0  0  0  0  0  0  0
    5.4421    1.2784   17.8343 C   0  0  0  0  0  0  0  0  0  0  0  0
    6.6153    0.6726   17.6043 N   0  0  0  0  0  0  0  0  0  0  0  0
    7.2101    0.0885   18.6547 C   0  0  0  0  0  0  0  0  0  0  0  0
    8.1720   -0.3904   18.4663 H   0  0  0  0  0  0  0  0  0  0  0  0
    4.9728    1.7547   16.9739 H   0  0  0  0  0  0  0  0  0  0  0  0
    3.8756    1.8271   19.2048 H   0  0  0  0  0  0  0  0  0  0  0  0
    5.0026    0.7171   21.1671 H   0  0  0  0  0  0  0  0  0  0  0  0
    8.3120   -1.1509   20.7076 H   0  0  0  0  0  0  0  0  0  0  0  0
    6.7969   -1.2705   21.6354 H   0  0  0  0  0  0  0  0  0  0  0  0
    9.2105    2.1772   22.7124 C   0  0  0  0  0  0  0  0  0  0  0  0
   10.1907    3.0773   22.4807 C   0  0  0  0  0  0  0  0  0  0  0  0
   10.5074    4.0863   23.4712 C   0  0  0  0  0  0  0  0  0  0  0  0
   11.4947    5.0811   23.2870 C   0  0  0  0  0  0  0  0  0  0  0  0
   11.7619    6.0031   24.2904 C   0  0  0  0  0  0  0  0  0  0  0  0
   10.9870    6.0018   25.4673 C   0  0  0  0  0  0  0  0  0  0  0  0
    9.9735    5.0651   25.6454 C   0  0  0  0  0  0  0  0  0  0  0  0
    9.7764    4.0715   24.6804 C   0  0  0  0  0  0  0  0  0  0  0  0
    8.8893    3.0902   24.9862 O   0  0  0  0  0  0  0  0  0  0  0  0
    8.3877    2.2116   23.9756 C   0  0  0  0  0  0  0  0  0  0  0  0
    8.3344    1.2131   24.4347 H   0  0  0  0  0  0  0  0  0  0  0  0
    7.3445    2.4986   23.7549 H   0  0  0  0  0  0  0  0  0  0  0  0
    9.3549    5.0188   26.5380 H   0  0  0  0  0  0  0  0  0  0  0  0
   11.1851    6.7373   26.2422 H   0  0  0  0  0  0  0  0  0  0  0  0
   12.5503    6.7404   24.1470 H   0  0  0  0  0  0  0  0  0  0  0  0
   12.0048    5.1334   22.3259 H   0  0  0  0  0  0  0  0  0  0  0  0
   10.7522    3.0458   21.5466 H   0  0  0  0  0  0  0  0  0  0  0  0
  1  2  2  0
  2  3  1  0
  3  4  1  0
  4  5  1  0
  5  6  2  0
  6  7  1  0
  7  8  2  0
  8  9  1  0
  9 10  2  0
 10 11  1  0
  8 12  1  0
  7 13  1  0
  6 14  1  0
  4 15  1  0
  4 16  1  0
  2 17  1  0
 17 18  2  0
 18 19  1  0
 19 20  2  0
 20 21  1  0
 21 22  2  0
 22 23  1  0
 23 24  2  0
 24 25  1  0
 25 26  1  0
 26 27  1  0
 26 28  1  0
 23 29  1  0
 22 30  1  0
 21 31  1  0
 20 32  1  0
 18 33  1  0
 10  5  1  0
 26 17  1  0
 24 19  1  0
M  END
>  <plip>  (1) 
-0.14285714285714285

>  <filename>  (1) 
[H][C]1=[C]([C](=[O])[O][C]([H])([H])[c]2[c]([H])[n][c]([H])[c]([H])[c]2[H])[C]([H])([H])[O][c]2[c]([H])[c]([H])[c]([H])[c]([H])[c]21

$$$$
