
     RDKit          3D

 46 47  0  0  0  0  0  0  0  0999 V2000
    5.9392   -1.5311   26.0757 C   0  0  0  0  0  0  0  0  0  0  0  0
    7.2302   -1.3298   25.3544 N   0  0  0  0  0  4  0  0  0  0  0  0
    8.2742   -0.8489   26.3294 C   0  0  0  0  0  0  0  0  0  0  0  0
    8.2697   -1.4766   27.2272 H   0  0  0  0  0  0  0  0  0  0  0  0
    8.0497    0.1819   26.6332 H   0  0  0  0  0  0  0  0  0  0  0  0
    9.2745   -0.8735   25.8916 H   0  0  0  0  0  0  0  0  0  0  0  0
    7.0443   -0.3996   24.1666 C   0  0  0  0  0  0  0  0  0  0  0  0
    8.2793   -0.3873   23.2667 C   0  0  0  0  0  0  0  0  0  0  0  0
    8.0312    0.2392   21.9145 N   0  0  0  0  0  4  0  0  0  0  0  0
    7.3789   -0.7157   20.9587 C   0  0  0  0  0  0  0  0  0  0  0  0
    6.6379    0.0282   19.8805 C   0  0  0  0  0  0  0  0  0  0  0  0
    5.4217    0.6866   20.1200 C   0  0  0  0  0  0  0  0  0  0  0  0
    4.7945    1.3438   19.0595 C   0  0  0  0  0  0  0  0  0  0  0  0
    5.4045    1.3313   17.8007 C   0  0  0  0  0  0  0  0  0  0  0  0
    6.5619    0.7043   17.5519 N   0  0  0  0  0  0  0  0  0  0  0  0
    7.1538    0.0780   18.5765 C   0  0  0  0  0  0  0  0  0  0  0  0
    8.0917   -0.4277   18.3435 H   0  0  0  0  0  0  0  0  0  0  0  0
    4.9451    1.8494   16.9583 H   0  0  0  0  0  0  0  0  0  0  0  0
    3.8627    1.8796   19.1919 H   0  0  0  0  0  0  0  0  0  0  0  0
    4.9746    0.6963   21.1201 H   0  0  0  0  0  0  0  0  0  0  0  0
    6.6873   -1.3506   21.5249 H   0  0  0  0  0  0  0  0  0  0  0  0
    8.1370   -1.3848   20.5218 H   0  0  0  0  0  0  0  0  0  0  0  0
    9.3233    0.8353   21.3811 C   0  0  0  0  0  0  0  0  0  0  0  0
    9.6573    2.0541   22.2105 C   0  0  0  0  0  0  0  0  0  0  0  0
   10.7950    2.1661   23.0200 C   0  0  0  0  0  0  0  0  0  0  0  0
   11.1202    3.3656   23.6540 C   0  0  0  0  0  0  0  0  0  0  0  0
   10.3164    4.4907   23.4261 C   0  0  0  0  0  0  0  0  0  0  0  0
   10.7895    6.0189   24.0751 Cl  0  0  0  0  0  0  0  0  0  0  0  0
    9.1535    4.3844   22.6608 C   0  0  0  0  0  0  0  0  0  0  0  0
    8.3919    5.4636   22.3964 F   0  0  0  0  0  0  0  0  0  0  0  0
    8.7712    3.1411   22.1388 C   0  0  0  0  0  0  0  0  0  0  0  0
    7.5302    2.9185   21.5809 O   0  0  0  0  0  0  0  0  0  0  0  0
    7.2618    3.7120   21.0929 H   0  0  0  0  0  0  0  0  0  0  0  0
   12.0208    3.4525   24.2550 H   0  0  0  0  0  0  0  0  0  0  0  0
   11.4534    1.3071   23.1449 H   0  0  0  0  0  0  0  0  0  0  0  0
   10.1302    0.0925   21.4009 H   0  0  0  0  0  0  0  0  0  0  0  0
    9.1730    1.1378   20.3410 H   0  0  0  0  0  0  0  0  0  0  0  0
    7.4183    1.0890   21.9825 H   0  0  0  0  0  0  0  0  0  0  0  0
    8.6337   -1.4229   23.1473 H   0  0  0  0  0  0  0  0  0  0  0  0
    9.0860    0.1595   23.7652 H   0  0  0  0  0  0  0  0  0  0  0  0
    6.8306    0.6104   24.5381 H   0  0  0  0  0  0  0  0  0  0  0  0
    6.1591   -0.7229   23.6047 H   0  0  0  0  0  0  0  0  0  0  0  0
    7.5345   -2.2506   24.9652 H   0  0  0  0  0  0  0  0  0  0  0  0
    5.5874   -0.5671   26.4669 H   0  0  0  0  0  0  0  0  0  0  0  0
    6.0695   -2.2200   26.9168 H   0  0  0  0  0  0  0  0  0  0  0  0
    5.1742   -1.9219   25.3966 H   0  0  0  0  0  0  0  0  0  0  0  0
  1  2  1  0
  2  3  1  0
  3  4  1  0
  3  5  1  0
  3  6  1  0
  2  7  1  0
  7  8  1  0
  8  9  1  0
  9 10  1  0
 10 11  1  0
 11 12  2  0
 12 13  1  0
 13 14  2  0
 14 15  1  0
 15 16  2  0
 16 17  1  0
 14 18  1  0
 13 19  1  0
 12 20  1  0
 10 21  1  0
 10 22  1  0
  9 23  1  0
 23 24  1  0
 24 25  2  0
 25 26  1  0
 26 27  2  0
 27 28  1  0
 27 29  1  0
 29 30  1  0
 29 31  2  0
 31 32  1  0
 32 33  1  0
 26 34  1  0
 25 35  1  0
 23 36  1  0
 23 37  1  0
  9 38  1  0
  8 39  1  0
  8 40  1  0
  7 41  1  0
  7 42  1  0
  2 43  1  0
  1 44  1  0
  1 45  1  0
  1 46  1  0
 16 11  1  0
 31 24  1  0
M  CHG  2   2   1   9   1
M  END
>  <plip>  (1) 
-0.17857142857142858

>  <filename>  (1) 
[H][O][c]1[c]([F])[c]([Cl])[c]([H])[c]([H])[c]1[C]([H])([H])[N+]([H])([C]([H])([H])[c]1[c]([H])[n][c]([H])[c]([H])[c]1[H])[C]([H])([H])[C]([H])([H])[N+]([H])([C]([H])([H])[H])[C]([H])([H])[H]

$$$$
