
     RDKit          3D

 27 29  0  0  0  0  0  0  0  0999 V2000
    5.0384    1.8632   16.9230 H   0  0  0  0  0  0  0  0  0  0  0  0
    5.4767    1.3411   17.7668 C   0  0  0  0  0  0  0  0  0  0  0  0
    6.6851    0.7889   17.5513 N   0  0  0  0  0  0  0  0  0  0  0  0
    7.2585    0.1482   18.5719 C   0  0  0  0  0  0  0  0  0  0  0  0
    8.2760   -0.2202   18.4427 H   0  0  0  0  0  0  0  0  0  0  0  0
    6.6253   -0.0342   19.8159 C   0  0  0  0  0  0  0  0  0  0  0  0
    7.3134   -0.7711   20.8293 N   0  0  0  0  0  0  0  0  0  0  0  0
    8.6335   -0.4122   20.9369 N   0  0  0  0  0  0  0  0  0  0  0  0
    9.3333   -0.9021   21.9229 C   0  0  0  0  0  0  0  0  0  0  0  0
   10.6566   -0.3915   22.0822 N   0  0  0  0  0  0  0  0  0  0  0  0
   11.5786   -1.0228   22.8489 N   0  0  0  0  0  0  0  0  0  0  0  0
   12.6181   -0.2134   22.8816 C   0  0  0  0  0  0  0  0  0  0  0  0
   13.4949   -0.5127   23.4371 H   0  0  0  0  0  0  0  0  0  0  0  0
   12.3842    0.9758   22.1527 C   0  0  0  0  0  0  0  0  0  0  0  0
   13.0408    1.8340   22.0638 H   0  0  0  0  0  0  0  0  0  0  0  0
   11.1244    0.8221   21.6401 C   0  0  0  0  0  0  0  0  0  0  0  0
   10.5312    1.4687   21.0002 H   0  0  0  0  0  0  0  0  0  0  0  0
    8.7846   -1.8637   22.8552 C   0  0  0  0  0  0  0  0  0  0  0  0
    9.4211   -2.2072   23.6668 H   0  0  0  0  0  0  0  0  0  0  0  0
    7.5062   -2.2904   22.6866 C   0  0  0  0  0  0  0  0  0  0  0  0
    7.0160   -3.0165   23.3267 H   0  0  0  0  0  0  0  0  0  0  0  0
    6.6655   -1.8136   21.5827 C   0  0  0  0  0  0  0  0  0  0  0  0
    5.5619   -2.2533   21.3108 O   0  0  0  0  0  0  0  0  0  0  0  0
    5.3942    0.5876   20.0518 C   0  0  0  0  0  0  0  0  0  0  0  0
    4.9260    0.5252   21.0327 H   0  0  0  0  0  0  0  0  0  0  0  0
    4.8101    1.2960   18.9952 C   0  0  0  0  0  0  0  0  0  0  0  0
    3.8709    1.8299   19.1191 H   0  0  0  0  0  0  0  0  0  0  0  0
  1  2  1  0
  2  3  2  0
  3  4  1  0
  4  5  1  0
  4  6  2  0
  6  7  1  0
  7  8  1  0
  8  9  2  0
  9 10  1  0
 10 11  1  0
 11 12  2  0
 12 13  1  0
 12 14  1  0
 14 15  1  0
 14 16  2  0
 16 17  1  0
  9 18  1  0
 18 19  1  0
 18 20  2  0
 20 21  1  0
 20 22  1  0
 22 23  2  0
  6 24  1  0
 24 25  1  0
 24 26  2  0
 26 27  1  0
 26  2  1  0
 22  7  1  0
 16 10  1  0
M  END
>  <plip>  (1) 
-0.14285714285714285

>  <filename>  (1) 
[H][c]1[n][c]([H])[c](-[n]2[n][c](-[n]3[n][c]([H])[c]([H])[c]3[H])[c]([H])[c]([H])[c]2=[O])[c]([H])[c]1[H]

$$$$
