
     RDKit          3D

 29 31  0  0  0  0  0  0  0  0999 V2000
    4.9122    1.8101   16.9697 H   0  0  0  0  0  0  0  0  0  0  0  0
    5.3830    1.3083   17.8141 C   0  0  0  0  0  0  0  0  0  0  0  0
    6.5464    0.6911   17.5509 N   0  0  0  0  0  0  0  0  0  0  0  0
    7.1552    0.0690   18.5663 C   0  0  0  0  0  0  0  0  0  0  0  0
    8.1123   -0.3941   18.3258 H   0  0  0  0  0  0  0  0  0  0  0  0
    6.6503    0.0175   19.8830 C   0  0  0  0  0  0  0  0  0  0  0  0
    7.3722   -0.6520   20.9743 C   0  0  0  0  0  0  0  0  0  0  0  0
    7.5411   -0.3163   22.3088 C   0  0  0  0  0  0  0  0  0  0  0  0
    7.0796    0.8718   22.9267 N   0  0  0  0  0  0  0  0  0  0  0  0
    6.9836    1.6762   22.3235 H   0  0  0  0  0  0  0  0  0  0  0  0
    6.8900    1.0118   24.2821 C   0  0  0  0  0  0  0  0  0  0  0  0
    6.9269    0.0458   25.0314 O   0  0  0  0  0  0  0  0  0  0  0  0
    6.6496    2.3766   24.8548 C   0  0  0  0  0  0  0  0  0  0  0  0
    6.6416    3.5259   24.1019 O   0  0  0  0  0  0  0  0  0  0  0  0
    6.4201    4.5599   24.9465 C   0  0  0  0  0  0  0  0  0  0  0  0
    6.3825    5.5403   24.4929 H   0  0  0  0  0  0  0  0  0  0  0  0
    6.2858    4.1158   26.2253 C   0  0  0  0  0  0  0  0  0  0  0  0
    6.0933    4.7170   27.1042 H   0  0  0  0  0  0  0  0  0  0  0  0
    6.4391    2.6997   26.1647 C   0  0  0  0  0  0  0  0  0  0  0  0
    6.4100    1.9725   26.9687 H   0  0  0  0  0  0  0  0  0  0  0  0
    8.2955   -1.3855   22.8687 C   0  0  0  0  0  0  0  0  0  0  0  0
    8.6213   -1.4926   23.8964 H   0  0  0  0  0  0  0  0  0  0  0  0
    8.5792   -2.3037   21.9539 N   0  0  0  0  0  0  0  0  0  0  0  0
    8.0237   -1.8386   20.8252 N   0  0  0  0  0  0  0  0  0  0  0  0
    8.0742   -2.3925   19.9796 H   0  0  0  0  0  0  0  0  0  0  0  0
    5.4273    0.6597   20.1313 C   0  0  0  0  0  0  0  0  0  0  0  0
    5.0091    0.6259   21.1379 H   0  0  0  0  0  0  0  0  0  0  0  0
    4.7877    1.3187   19.0808 C   0  0  0  0  0  0  0  0  0  0  0  0
    3.8579    1.8519   19.2341 H   0  0  0  0  0  0  0  0  0  0  0  0
  1  2  1  0
  2  3  2  0
  3  4  1  0
  4  5  1  0
  4  6  2  0
  6  7  1  0
  7  8  2  0
  8  9  1  0
  9 10  1  0
  9 11  1  0
 11 12  2  0
 11 13  1  0
 13 14  1  0
 14 15  1  0
 15 16  1  0
 15 17  2  0
 17 18  1  0
 17 19  1  0
 19 20  1  0
  8 21  1  0
 21 22  1  0
 21 23  2  0
 23 24  1  0
 24 25  1  0
  6 26  1  0
 26 27  1  0
 26 28  2  0
 28 29  1  0
 28  2  1  0
 24  7  1  0
 19 13  2  0
M  END
>  <plip>  (1) 
-0.0

>  <filename>  (1) 
[H][c]1[n][c]([H])[c](-[c]2[c]([N]([H])[C](=[O])[c]3[o][c]([H])[c]([H])[c]3[H])[c]([H])[n][n]2[H])[c]([H])[c]1[H]

$$$$
