
     RDKit          3D

 37 38  0  0  0  0  0  0  0  0999 V2000
    9.0347   -5.8303   25.1998 C   0  0  0  0  0  0  0  0  0  0  0  0
    7.9733   -4.8708   24.7426 C   0  0  0  0  0  0  0  0  0  0  0  0
    6.7168   -5.3404   24.7493 N   0  0  0  0  0  0  0  0  0  0  0  0
    5.7332   -4.4980   24.4229 C   0  0  0  0  0  0  0  0  0  0  0  0
    5.9353   -3.1826   24.0543 C   0  0  0  0  0  0  0  0  0  0  0  0
    7.2381   -2.6912   23.9424 C   0  0  0  0  0  0  0  0  0  0  0  0
    7.4705   -1.3924   23.5754 N   0  0  0  0  0  0  0  0  0  0  0  0
    6.7891   -0.6534   22.5122 C   0  0  0  0  0  0  0  0  0  0  0  0
    7.5954   -0.4706   21.1814 C   0  0  0  0  0  0  0  0  0  0  0  0
    7.9883   -1.8863   20.6938 C   0  0  0  0  0  0  0  0  0  0  0  0
    8.7677   -1.8350   19.9312 H   0  0  0  0  0  0  0  0  0  0  0  0
    7.1091   -2.4151   20.2997 H   0  0  0  0  0  0  0  0  0  0  0  0
    8.4111   -2.4768   21.5112 H   0  0  0  0  0  0  0  0  0  0  0  0
    8.8920    0.3373   21.4264 C   0  0  0  0  0  0  0  0  0  0  0  0
    9.5725   -0.1910   22.1080 H   0  0  0  0  0  0  0  0  0  0  0  0
    8.6830    1.3352   21.8338 H   0  0  0  0  0  0  0  0  0  0  0  0
    9.4321    0.4684   20.4814 H   0  0  0  0  0  0  0  0  0  0  0  0
    6.7413    0.2360   20.0948 C   0  0  0  0  0  0  0  0  0  0  0  0
    5.4849    0.8417   20.2884 C   0  0  0  0  0  0  0  0  0  0  0  0
    4.8093    1.3960   19.1922 C   0  0  0  0  0  0  0  0  0  0  0  0
    5.4092    1.3506   17.9321 C   0  0  0  0  0  0  0  0  0  0  0  0
    6.6078    0.7954   17.7162 N   0  0  0  0  0  0  0  0  0  0  0  0
    7.2398    0.2717   18.7752 C   0  0  0  0  0  0  0  0  0  0  0  0
    8.2117   -0.1652   18.5509 H   0  0  0  0  0  0  0  0  0  0  0  0
    4.9145    1.7686   17.0566 H   0  0  0  0  0  0  0  0  0  0  0  0
    3.8362    1.8635   19.3019 H   0  0  0  0  0  0  0  0  0  0  0  0
    5.0257    0.8908   21.2770 H   0  0  0  0  0  0  0  0  0  0  0  0
    6.5155    0.3401   22.8955 H   0  0  0  0  0  0  0  0  0  0  0  0
    5.8720   -1.1798   22.2334 H   0  0  0  0  0  0  0  0  0  0  0  0
    8.4276   -1.1245   23.7458 H   0  0  0  0  0  0  0  0  0  0  0  0
    8.2752   -3.5716   24.3058 C   0  0  0  0  0  0  0  0  0  0  0  0
    9.9435   -3.0694   24.1451 Cl  0  0  0  0  0  0  0  0  0  0  0  0
    5.1145   -2.5063   23.9218 H   0  0  0  0  0  0  0  0  0  0  0  0
    4.7212   -4.8942   24.4628 H   0  0  0  0  0  0  0  0  0  0  0  0
    9.4182   -6.3980   24.3465 H   0  0  0  0  0  0  0  0  0  0  0  0
    8.6181   -6.5352   25.9237 H   0  0  0  0  0  0  0  0  0  0  0  0
    9.8742   -5.3000   25.6544 H   0  0  0  0  0  0  0  0  0  0  0  0
  1  2  1  0
  2  3  2  0
  3  4  1  0
  4  5  2  0
  5  6  1  0
  6  7  1  0
  7  8  1  0
  8  9  1  0
  9 10  1  0
 10 11  1  0
 10 12  1  0
 10 13  1  0
  9 14  1  0
 14 15  1  0
 14 16  1  0
 14 17  1  0
  9 18  1  0
 18 19  2  0
 19 20  1  0
 20 21  2  0
 21 22  1  0
 22 23  2  0
 23 24  1  0
 21 25  1  0
 20 26  1  0
 19 27  1  0
  8 28  1  0
  8 29  1  0
  7 30  1  0
  6 31  2  0
 31 32  1  0
  5 33  1  0
  4 34  1  0
  1 35  1  0
  1 36  1  0
  1 37  1  0
 31  2  1  0
 23 18  1  0
M  END
>  <plip>  (1) 
-0.07142857142857142

>  <filename>  (1) 
[H][c]1[n][c]([H])[c]([C]([C]([H])([H])[H])([C]([H])([H])[H])[C]([H])([H])[N]([H])[c]2[c]([H])[c]([H])[n][c]([C]([H])([H])[H])[c]2[Cl])[c]([H])[c]1[H]

$$$$
