
     RDKit          3D

 34 35  0  0  0  0  0  0  0  0999 V2000
    4.9441    1.8113   16.9581 H   0  0  0  0  0  0  0  0  0  0  0  0
    5.4081    1.2928   17.7951 C   0  0  0  0  0  0  0  0  0  0  0  0
    6.5660    0.6571   17.5458 N   0  0  0  0  0  0  0  0  0  0  0  0
    7.1731    0.0354   18.5664 C   0  0  0  0  0  0  0  0  0  0  0  0
    8.1210   -0.4476   18.3191 H   0  0  0  0  0  0  0  0  0  0  0  0
    6.6712    0.0242   19.8902 C   0  0  0  0  0  0  0  0  0  0  0  0
    7.3447   -0.6029   20.9742 N   0  0  0  0  0  0  0  0  0  0  0  0
    7.9056   -1.4299   20.8268 H   0  0  0  0  0  0  0  0  0  0  0  0
    7.2983   -0.2324   22.2972 C   0  0  0  0  0  0  0  0  0  0  0  0
    6.8180    0.8125   22.6977 O   0  0  0  0  0  0  0  0  0  0  0  0
    7.8687   -1.2933   23.3229 C   0  0  1  0  0  0  0  0  0  0  0  0
    7.9738   -0.6711   24.2291 H   0  0  0  0  0  0  0  0  0  0  0  0
    6.7671   -2.3271   23.5878 C   0  0  0  0  0  0  0  0  0  0  0  0
    5.8670   -2.1147   24.6433 C   0  0  0  0  0  0  0  0  0  0  0  0
    5.9864   -1.2457   25.2821 H   0  0  0  0  0  0  0  0  0  0  0  0
    4.7865   -2.9790   24.8544 C   0  0  0  0  0  0  0  0  0  0  0  0
    4.0885   -2.7966   25.6664 H   0  0  0  0  0  0  0  0  0  0  0  0
    4.5849   -4.0706   24.0123 C   0  0  0  0  0  0  0  0  0  0  0  0
    3.7193   -4.7175   24.1704 H   0  0  0  0  0  0  0  0  0  0  0  0
    5.4711   -4.3086   22.9425 C   0  0  0  0  0  0  0  0  0  0  0  0
    5.2771   -5.4425   21.9658 C   0  0  0  0  0  0  0  0  0  0  0  0
    5.7577   -5.4568   20.8474 O   0  0  0  0  0  0  0  0  0  0  0  0
    4.4781   -6.4922   22.3596 N   0  0  0  0  0  0  0  0  0  0  0  0
    4.4788   -6.7312   23.3378 H   0  0  0  0  0  0  0  0  0  0  0  0
    4.6322   -7.2691   21.7354 H   0  0  0  0  0  0  0  0  0  0  0  0
    6.5512   -3.4256   22.7388 C   0  0  0  0  0  0  0  0  0  0  0  0
    7.2267   -3.6217   21.9058 H   0  0  0  0  0  0  0  0  0  0  0  0
    9.1114   -2.0236   22.9330 N   0  0  0  0  0  0  0  0  0  0  0  0
    9.9148   -1.3970   22.8898 H   0  0  0  0  0  0  0  0  0  0  0  0
    9.3098   -2.6809   23.6881 H   0  0  0  0  0  0  0  0  0  0  0  0
    5.4464    0.6641   20.1240 C   0  0  0  0  0  0  0  0  0  0  0  0
    5.0452    0.6700   21.1345 H   0  0  0  0  0  0  0  0  0  0  0  0
    4.8106    1.3024   19.0567 C   0  0  0  0  0  0  0  0  0  0  0  0
    3.8781    1.8316   19.2119 H   0  0  0  0  0  0  0  0  0  0  0  0
  1  2  1  0
  2  3  2  0
  3  4  1  0
  4  5  1  0
  4  6  2  0
  6  7  1  0
  7  8  1  0
  7  9  1  0
  9 10  2  0
  9 11  1  0
 11 12  1  1
 11 13  1  0
 13 14  2  0
 14 15  1  0
 14 16  1  0
 16 17  1  0
 16 18  2  0
 18 19  1  0
 18 20  1  0
 20 21  1  0
 21 22  2  0
 21 23  1  0
 23 24  1  0
 23 25  1  0
 20 26  2  0
 26 27  1  0
 11 28  1  0
 28 29  1  0
 28 30  1  0
  6 31  1  0
 31 32  1  0
 31 33  2  0
 33 34  1  0
 33  2  1  0
 26 13  1  0
M  END
>  <plip>  (1) 
-0.06666666666666667

>  <filename>  (1) 
[H][c]1[n][c]([H])[c]([N]([H])[C](=[O])[C@@]([H])([c]2[c]([H])[c]([H])[c]([H])[c]([C](=[O])[N]([H])[H])[c]2[H])[N]([H])[H])[c]([H])[c]1[H]

$$$$
