
     RDKit          3D

 38 40  0  0  0  0  0  0  0  0999 V2000
    7.4904    1.7928   22.3480 O   0  0  0  0  0  0  0  0  0  0  0  0
    8.5509    1.2377   22.0997 C   0  0  0  0  0  0  0  0  0  0  0  0
    8.6331    0.0856   21.3773 N   0  0  0  0  0  0  0  0  0  0  0  0
    7.4497   -0.6685   21.0050 C   0  0  0  0  0  0  0  0  0  0  0  0
    6.6573    0.0093   19.9060 C   0  0  0  0  0  0  0  0  0  0  0  0
    5.4333    0.6522   20.1449 C   0  0  0  0  0  0  0  0  0  0  0  0
    4.7908    1.3060   19.0892 C   0  0  0  0  0  0  0  0  0  0  0  0
    5.3945    1.2927   17.8291 C   0  0  0  0  0  0  0  0  0  0  0  0
    6.5595    0.6780   17.5759 N   0  0  0  0  0  0  0  0  0  0  0  0
    7.1674    0.0673   18.6007 C   0  0  0  0  0  0  0  0  0  0  0  0
    8.1140   -0.4154   18.3525 H   0  0  0  0  0  0  0  0  0  0  0  0
    4.9324    1.7971   16.9815 H   0  0  0  0  0  0  0  0  0  0  0  0
    3.8612    1.8486   19.2328 H   0  0  0  0  0  0  0  0  0  0  0  0
    5.0170    0.6680   21.1546 H   0  0  0  0  0  0  0  0  0  0  0  0
    6.8089   -0.7914   21.8882 H   0  0  0  0  0  0  0  0  0  0  0  0
    7.7667   -1.6707   20.6939 H   0  0  0  0  0  0  0  0  0  0  0  0
    9.5516   -0.1822   21.0720 H   0  0  0  0  0  0  0  0  0  0  0  0
    9.8332    1.7819   22.5797 C   0  0  0  0  0  0  0  0  0  0  0  0
   10.9692    1.1376   23.0597 C   0  0  0  0  0  0  0  0  0  0  0  0
   11.2520   -0.3214   23.2814 C   0  0  0  0  0  0  0  0  0  0  0  0
   10.1971   -0.9954   24.1535 C   0  0  0  0  0  0  0  0  0  0  0  0
    9.9633   -0.5453   25.4632 C   0  0  0  0  0  0  0  0  0  0  0  0
    8.9793   -1.1384   26.2617 C   0  0  0  0  0  0  0  0  0  0  0  0
    8.2060   -2.1902   25.7577 C   0  0  0  0  0  0  0  0  0  0  0  0
    8.4244   -2.6456   24.4534 C   0  0  0  0  0  0  0  0  0  0  0  0
    9.4163   -2.0528   23.6639 C   0  0  0  0  0  0  0  0  0  0  0  0
    9.5657   -2.4023   22.6457 H   0  0  0  0  0  0  0  0  0  0  0  0
    7.8224   -3.4588   24.0523 H   0  0  0  0  0  0  0  0  0  0  0  0
    7.4419   -2.6532   26.3783 H   0  0  0  0  0  0  0  0  0  0  0  0
    8.8187   -0.7761   27.2756 H   0  0  0  0  0  0  0  0  0  0  0  0
   10.5460    0.2841   25.8603 H   0  0  0  0  0  0  0  0  0  0  0  0
   12.2538   -0.4080   23.7216 H   0  0  0  0  0  0  0  0  0  0  0  0
   11.3066   -0.8263   22.3113 H   0  0  0  0  0  0  0  0  0  0  0  0
   11.7537    2.1307   23.5360 N   0  0  0  0  0  0  0  0  0  0  0  0
   11.2179    3.3558   23.4212 N   0  0  0  0  0  0  0  0  0  0  0  0
   10.0435    3.1523   22.8459 C   0  0  0  0  0  0  0  0  0  0  0  0
    9.3837    3.9924   22.6522 H   0  0  0  0  0  0  0  0  0  0  0  0
   12.6570    2.0357   23.9790 H   0  0  0  0  0  0  0  0  0  0  0  0
  1  2  2  0
  2  3  1  0
  3  4  1  0
  4  5  1  0
  5  6  2  0
  6  7  1  0
  7  8  2  0
  8  9  1  0
  9 10  2  0
 10 11  1  0
  8 12  1  0
  7 13  1  0
  6 14  1  0
  4 15  1  0
  4 16  1  0
  3 17  1  0
  2 18  1  0
 18 19  2  0
 19 20  1  0
 20 21  1  0
 21 22  2  0
 22 23  1  0
 23 24  2  0
 24 25  1  0
 25 26  2  0
 26 27  1  0
 25 28  1  0
 24 29  1  0
 23 30  1  0
 22 31  1  0
 20 32  1  0
 20 33  1  0
 19 34  1  0
 34 35  1  0
 35 36  2  0
 36 37  1  0
 34 38  1  0
 10  5  1  0
 36 18  1  0
 26 21  1  0
M  END
>  <plip>  (1) 
-0.06666666666666667

>  <filename>  (1) 
[H][c]1[n][c]([H])[c]([C]([H])([H])[N]([H])[C](=[O])[c]2[c]([H])[n][n]([H])[c]2[C]([H])([H])[c]2[c]([H])[c]([H])[c]([H])[c]([H])[c]2[H])[c]([H])[c]1[H]

$$$$
