
     RDKit          3D

 51 54  0  0  0  0  0  0  0  0999 V2000
   12.3106    5.3490   24.7648 C   0  0  0  0  0  0  0  0  0  0  0  0
   12.5249    4.8895   23.3383 C   0  0  0  0  0  0  0  0  0  0  0  0
   13.5036    5.5713   22.6082 C   0  0  0  0  0  0  0  0  0  0  0  0
   13.8316    5.1621   21.3271 C   0  0  0  0  0  0  0  0  0  0  0  0
   14.8992    5.7040   20.7290 F   0  0  0  0  0  0  0  0  0  0  0  0
   13.1008    4.1816   20.6649 C   0  0  0  0  0  0  0  0  0  0  0  0
   12.1109    3.5106   21.3585 C   0  0  0  0  0  0  0  0  0  0  0  0
   11.8351    3.8314   22.7056 C   0  0  0  0  0  0  0  0  0  0  0  0
   10.8641    3.0116   23.4117 C   0  0  0  0  0  0  0  0  0  0  0  0
   10.8639    2.3660   24.6061 C   0  0  0  0  0  0  0  0  0  0  0  0
    9.6427    1.6205   24.6714 C   0  0  0  0  0  0  0  0  0  0  0  0
    9.0057    1.8375   23.4847 C   0  0  0  0  0  0  0  0  0  0  0  0
    7.7504    1.3512   22.8379 C   0  0  0  0  0  0  0  0  0  0  0  0
    8.0246    0.1842   21.9035 N   0  0  0  0  0  4  0  0  0  0  0  0
    6.8304   -0.5636   21.3548 C   0  0  0  0  0  0  0  0  0  0  0  0
    6.3639    0.1559   20.1069 C   0  0  0  0  0  0  0  0  0  0  0  0
    5.1748    0.8947   20.0978 C   0  0  0  0  0  0  0  0  0  0  0  0
    4.7977    1.5510   18.9240 C   0  0  0  0  0  0  0  0  0  0  0  0
    5.6195    1.4326   17.7993 C   0  0  0  0  0  0  0  0  0  0  0  0
    6.7596    0.7260   17.7871 N   0  0  0  0  0  0  0  0  0  0  0  0
    7.1221    0.1234   18.9277 C   0  0  0  0  0  0  0  0  0  0  0  0
    8.0597   -0.4325   18.8755 H   0  0  0  0  0  0  0  0  0  0  0  0
    5.3444    1.9204   16.8652 H   0  0  0  0  0  0  0  0  0  0  0  0
    3.8997    2.1586   18.8757 H   0  0  0  0  0  0  0  0  0  0  0  0
    4.5746    0.9599   21.0066 H   0  0  0  0  0  0  0  0  0  0  0  0
    7.2477   -2.0329   21.1300 C   0  0  0  0  0  0  0  0  0  0  0  0
    7.4893   -2.7884   22.4601 C   0  0  0  0  0  0  0  0  0  0  0  0
    6.1929   -3.6071   22.6657 C   0  0  0  0  0  0  0  0  0  0  0  0
    5.3138   -3.2360   21.6162 O   0  0  0  0  0  0  0  0  0  0  0  0
    6.1252   -2.8790   20.5183 C   0  0  0  0  0  0  0  0  0  0  0  0
    5.5017   -2.3584   19.7831 H   0  0  0  0  0  0  0  0  0  0  0  0
    6.5428   -3.7808   20.0394 H   0  0  0  0  0  0  0  0  0  0  0  0
    6.3997   -4.6878   22.6334 H   0  0  0  0  0  0  0  0  0  0  0  0
    5.6862   -3.3874   23.6105 H   0  0  0  0  0  0  0  0  0  0  0  0
    7.6690   -2.1238   23.3139 H   0  0  0  0  0  0  0  0  0  0  0  0
    8.3701   -3.4310   22.3795 H   0  0  0  0  0  0  0  0  0  0  0  0
    8.1353   -2.0581   20.4907 H   0  0  0  0  0  0  0  0  0  0  0  0
    6.0175   -0.5341   22.0941 H   0  0  0  0  0  0  0  0  0  0  0  0
    8.6675   -0.4801   22.3833 H   0  0  0  0  0  0  0  0  0  0  0  0
    8.5229    0.5820   21.0599 H   0  0  0  0  0  0  0  0  0  0  0  0
    7.3247    2.1829   22.2680 H   0  0  0  0  0  0  0  0  0  0  0  0
    7.0292    1.0822   23.6173 H   0  0  0  0  0  0  0  0  0  0  0  0
    9.7472    2.6815   22.7211 O   0  0  0  0  0  0  0  0  0  0  0  0
    9.3168    0.9833   25.4814 H   0  0  0  0  0  0  0  0  0  0  0  0
   11.7033    2.3910   25.2812 H   0  0  0  0  0  0  0  0  0  0  0  0
   11.5530    2.7139   20.8641 H   0  0  0  0  0  0  0  0  0  0  0  0
   13.3480    3.9177   19.6468 H   0  0  0  0  0  0  0  0  0  0  0  0
   14.0082    6.4295   23.0358 H   0  0  0  0  0  0  0  0  0  0  0  0
   11.3348    5.0773   25.1667 H   0  0  0  0  0  0  0  0  0  0  0  0
   12.4147    6.4353   24.8307 H   0  0  0  0  0  0  0  0  0  0  0  0
   13.0784    4.9536   25.4338 H   0  0  0  0  0  0  0  0  0  0  0  0
  1  2  1  0
  2  3  2  0
  3  4  1  0
  4  5  1  0
  4  6  2  0
  6  7  1  0
  7  8  2  0
  8  9  1  0
  9 10  2  0
 10 11  1  0
 11 12  2  0
 12 13  1  0
 13 14  1  0
 14 15  1  0
 15 16  1  0
 16 17  2  0
 17 18  1  0
 18 19  2  0
 19 20  1  0
 20 21  2  0
 21 22  1  0
 19 23  1  0
 18 24  1  0
 17 25  1  0
 15 26  1  0
 26 27  1  0
 27 28  1  0
 28 29  1  0
 29 30  1  0
 30 31  1  0
 30 32  1  0
 28 33  1  0
 28 34  1  0
 27 35  1  0
 27 36  1  0
 26 37  1  0
 15 38  1  0
 14 39  1  0
 14 40  1  0
 13 41  1  0
 13 42  1  0
 12 43  1  0
 11 44  1  0
 10 45  1  0
  7 46  1  0
  6 47  1  0
  3 48  1  0
  1 49  1  0
  1 50  1  0
  1 51  1  0
  8  2  1  0
 43  9  1  0
 21 16  1  0
 30 26  1  0
M  CHG  1  14   1
M  END
>  <plip>  (1) 
-0.13793103448275862

>  <filename>  (1) 
[H][c]1[n][c]([H])[c]([C]([H])([C]2([H])[C]([H])([H])[O][C]([H])([H])[C]2([H])[H])[N+]([H])([H])[C]([H])([H])[c]2[o][c](-[c]3[c]([H])[c]([H])[c]([F])[c]([H])[c]3[C]([H])([H])[H])[c]([H])[c]2[H])[c]([H])[c]1[H]

$$$$
