
     RDKit          3D

 41 42  0  0  0  0  0  0  0  0999 V2000
    8.5354    1.3165   21.6642 C   0  0  0  0  0  0  0  0  0  0  0  0
    7.7630    0.0632   22.0658 C   0  0  0  0  0  0  0  0  0  0  0  0
    8.5166   -0.6611   23.1878 C   0  0  0  0  0  0  0  0  0  0  0  0
    7.9207   -1.5014   23.5646 H   0  0  0  0  0  0  0  0  0  0  0  0
    8.7130    0.0252   24.0200 H   0  0  0  0  0  0  0  0  0  0  0  0
    9.4705   -1.0449   22.8108 H   0  0  0  0  0  0  0  0  0  0  0  0
    7.5695   -0.8682   20.8391 C   0  0  0  0  0  0  0  0  0  0  0  0
    6.9574   -2.1936   21.3284 C   0  0  0  0  0  0  0  0  0  0  0  0
    7.5722   -3.2318   21.0863 O   0  0  0  0  0  0  0  0  0  0  0  0
    5.8306   -2.1260   22.0883 O   0  0  0  0  0  0  0  0  0  0  0  0
    5.3289   -3.3641   22.6579 C   0  0  0  0  0  0  0  0  0  0  0  0
    6.0568   -3.8589   23.9139 C   0  0  0  0  0  0  0  0  0  0  0  0
    6.7227   -5.0135   23.7685 N   0  0  0  0  0  0  0  0  0  0  0  0
    7.4263   -5.5167   24.7951 C   0  0  0  0  0  0  0  0  0  0  0  0
    7.4937   -4.8970   26.0374 C   0  0  0  0  0  0  0  0  0  0  0  0
    8.5569   -5.6125   27.4476 Br  0  0  0  0  0  0  0  0  0  0  0  0
    6.7942   -3.7261   26.2331 C   0  0  0  0  0  0  0  0  0  0  0  0
    6.0547   -3.1975   25.1660 C   0  0  0  0  0  0  0  0  0  0  0  0
    5.2894   -1.9314   25.3643 C   0  0  0  0  0  0  0  0  0  0  0  0
    5.9029   -0.9590   24.6412 F   0  0  0  0  0  0  0  0  0  0  0  0
    5.2753   -1.5566   26.6732 F   0  0  0  0  0  0  0  0  0  0  0  0
    3.9987   -2.1325   24.9914 F   0  0  0  0  0  0  0  0  0  0  0  0
    6.8282   -3.2490   27.2133 H   0  0  0  0  0  0  0  0  0  0  0  0
    7.9785   -6.4346   24.6534 H   0  0  0  0  0  0  0  0  0  0  0  0
    5.3947   -4.1357   21.8804 H   0  0  0  0  0  0  0  0  0  0  0  0
    4.2686   -3.2623   22.9131 H   0  0  0  0  0  0  0  0  0  0  0  0
    6.7568   -0.1371   19.7560 C   0  0  0  0  0  0  0  0  0  0  0  0
    5.5510    0.4911   20.0824 C   0  0  0  0  0  0  0  0  0  0  0  0
    4.8997    1.2296   19.0936 C   0  0  0  0  0  0  0  0  0  0  0  0
    5.4478    1.3140   17.8093 C   0  0  0  0  0  0  0  0  0  0  0  0
    6.6047    0.7135   17.4823 N   0  0  0  0  0  0  0  0  0  0  0  0
    7.2461    0.0133   18.4398 C   0  0  0  0  0  0  0  0  0  0  0  0
    8.1925   -0.4554   18.1838 H   0  0  0  0  0  0  0  0  0  0  0  0
    4.9232    1.8882   17.0504 H   0  0  0  0  0  0  0  0  0  0  0  0
    3.9732    1.7463   19.3110 H   0  0  0  0  0  0  0  0  0  0  0  0
    5.1521    0.4258   21.0935 H   0  0  0  0  0  0  0  0  0  0  0  0
    8.5556   -1.1189   20.4327 H   0  0  0  0  0  0  0  0  0  0  0  0
    6.7880    0.3743   22.4604 H   0  0  0  0  0  0  0  0  0  0  0  0
    7.9523    1.9037   20.9475 H   0  0  0  0  0  0  0  0  0  0  0  0
    9.4872    1.0389   21.2034 H   0  0  0  0  0  0  0  0  0  0  0  0
    8.7351    1.9389   22.5423 H   0  0  0  0  0  0  0  0  0  0  0  0
  1  2  1  0
  2  3  1  0
  3  4  1  0
  3  5  1  0
  3  6  1  0
  2  7  1  0
  7  8  1  0
  8  9  2  0
  8 10  1  0
 10 11  1  0
 11 12  1  0
 12 13  2  0
 13 14  1  0
 14 15  2  0
 15 16  1  0
 15 17  1  0
 17 18  2  0
 18 19  1  0
 19 20  1  0
 19 21  1  0
 19 22  1  0
 17 23  1  0
 14 24  1  0
 11 25  1  0
 11 26  1  0
  7 27  1  0
 27 28  2  0
 28 29  1  0
 29 30  2  0
 30 31  1  0
 31 32  2  0
 32 33  1  0
 30 34  1  0
 29 35  1  0
 28 36  1  0
  7 37  1  0
  2 38  1  0
  1 39  1  0
  1 40  1  0
  1 41  1  0
 18 12  1  0
 32 27  1  0
M  END
>  <plip>  (1) 
-0.034482758620689655

>  <filename>  (1) 
[H][c]1[n][c]([H])[c]([C]([H])([C](=[O])[O][C]([H])([H])[c]2[n][c]([H])[c]([Br])[c]([H])[c]2[C]([F])([F])[F])[C]([H])([C]([H])([H])[H])[C]([H])([H])[H])[c]([H])[c]1[H]

$$$$
