
     RDKit          3D

 26 27  0  0  0  0  0  0  0  0999 V2000
    8.4613   -0.4817   21.0167 H   0  0  0  0  0  0  0  0  0  0  0  0
    7.3917   -0.6897   20.9383 C   0  0  0  0  0  0  0  0  0  0  0  0
    6.9227   -1.6573   21.7317 C   0  0  0  0  0  0  0  0  0  0  0  0
    5.4061   -2.4716   21.4479 Cl  0  0  0  0  0  0  0  0  0  0  0  0
    7.7443   -2.2476   22.8657 C   0  0  1  0  0  0  0  0  0  0  0  0
    7.1712   -3.0761   23.2920 H   0  0  0  0  0  0  0  0  0  0  0  0
    8.9360   -2.7731   22.2947 O   0  0  0  0  0  0  0  0  0  0  0  0
   10.0581   -2.4453   23.0900 C   0  0  0  0  0  0  0  0  0  0  0  0
   10.2632   -3.2641   23.7954 H   0  0  0  0  0  0  0  0  0  0  0  0
   10.9142   -2.3734   22.4094 H   0  0  0  0  0  0  0  0  0  0  0  0
    9.7014   -1.1378   23.8114 C   0  0  0  0  0  0  0  0  0  0  0  0
    9.9751   -0.2746   23.1905 H   0  0  0  0  0  0  0  0  0  0  0  0
   10.2327   -1.0316   24.7649 H   0  0  0  0  0  0  0  0  0  0  0  0
    8.1661   -1.2307   23.9677 C   0  0  0  0  0  0  0  0  0  0  0  0
    7.8584   -1.5936   24.9589 H   0  0  0  0  0  0  0  0  0  0  0  0
    7.6611   -0.2636   23.8397 H   0  0  0  0  0  0  0  0  0  0  0  0
    6.6665    0.0548   19.8894 C   0  0  0  0  0  0  0  0  0  0  0  0
    7.1707    0.1024   18.5799 C   0  0  0  0  0  0  0  0  0  0  0  0
    8.1170   -0.3913   18.3465 H   0  0  0  0  0  0  0  0  0  0  0  0
    6.5545    0.6970   17.5534 N   0  0  0  0  0  0  0  0  0  0  0  0
    5.3847    1.3093   17.8088 C   0  0  0  0  0  0  0  0  0  0  0  0
    4.9150    1.8057   16.9588 H   0  0  0  0  0  0  0  0  0  0  0  0
    4.7963    1.3311   19.0760 C   0  0  0  0  0  0  0  0  0  0  0  0
    3.8584    1.8526   19.2200 H   0  0  0  0  0  0  0  0  0  0  0  0
    5.4400    0.6848   20.1338 C   0  0  0  0  0  0  0  0  0  0  0  0
    5.0098    0.6552   21.1328 H   0  0  0  0  0  0  0  0  0  0  0  0
  1  2  1  0
  2  3  2  3
  3  4  1  0
  3  5  1  0
  5  6  1  1
  5  7  1  0
  7  8  1  0
  8  9  1  0
  8 10  1  0
  8 11  1  0
 11 12  1  0
 11 13  1  0
 11 14  1  0
 14 15  1  0
 14 16  1  0
  2 17  1  0
 17 18  2  0
 18 19  1  0
 18 20  1  0
 20 21  2  0
 21 22  1  0
 21 23  1  0
 23 24  1  0
 23 25  2  0
 25 26  1  0
 14  5  1  0
 25 17  1  0
M  END
>  <plip>  (1) 
-0.03571428571428571

>  <filename>  (1) 
[H][C](=[C]([Cl])[C@@]1([H])[O][C]([H])([H])[C]([H])([H])[C]1([H])[H])[c]1[c]([H])[n][c]([H])[c]([H])[c]1[H]

$$$$
