
     RDKit          3D

 27 28  0  0  0  0  0  0  0  0999 V2000
    4.9325    1.7970   17.0107 H   0  0  0  0  0  0  0  0  0  0  0  0
    5.4110    1.2854   17.8432 C   0  0  0  0  0  0  0  0  0  0  0  0
    6.5757    0.6734   17.5680 N   0  0  0  0  0  0  0  0  0  0  0  0
    7.2045    0.0603   18.5746 C   0  0  0  0  0  0  0  0  0  0  0  0
    8.1573   -0.4181   18.3547 H   0  0  0  0  0  0  0  0  0  0  0  0
    6.6962   -0.0257   19.8864 C   0  0  0  0  0  0  0  0  0  0  0  0
    7.4083   -0.7217   20.8946 N   0  0  0  0  0  0  0  0  0  0  0  0
    6.8408   -1.6019   21.8182 C   0  0  0  0  0  0  0  0  0  0  0  0
    5.7940   -2.1856   21.7677 O   0  0  0  0  0  0  0  0  0  0  0  0
    7.7695   -1.7606   22.8175 N   0  0  0  0  0  0  0  0  0  0  0  0
    7.6154   -2.4566   23.5216 H   0  0  0  0  0  0  0  0  0  0  0  0
    9.0252   -1.4252   22.4060 C   0  0  0  0  0  0  0  0  0  0  0  0
   10.0309   -1.7510   22.9769 O   0  0  0  0  0  0  0  0  0  0  0  0
    8.8517   -0.6288   21.1047 C   0  0  2  0  0  0  0  0  0  0  0  0
    9.4243   -1.1265   20.3193 H   0  0  0  0  0  0  0  0  0  0  0  0
    9.5009    1.0660   21.1710 S   0  0  0  0  0  0  0  0  0  0  0  0
    8.5732    1.7133   22.5916 C   0  0  0  0  0  0  0  0  0  0  0  0
    8.2608    2.7252   22.3090 H   0  0  0  0  0  0  0  0  0  0  0  0
    7.6600    1.1211   22.6807 H   0  0  0  0  0  0  0  0  0  0  0  0
    9.3693    1.7073   23.8931 C   0  0  0  0  0  0  0  0  0  0  0  0
   10.2841    2.3004   23.7972 H   0  0  0  0  0  0  0  0  0  0  0  0
    9.6583    0.6912   24.1835 H   0  0  0  0  0  0  0  0  0  0  0  0
    8.7753    2.1345   24.7092 H   0  0  0  0  0  0  0  0  0  0  0  0
    5.4715    0.6097   20.1629 C   0  0  0  0  0  0  0  0  0  0  0  0
    5.0411    0.5606   21.1640 H   0  0  0  0  0  0  0  0  0  0  0  0
    4.8271    1.2863   19.1173 C   0  0  0  0  0  0  0  0  0  0  0  0
    3.8917    1.8195   19.2744 H   0  0  0  0  0  0  0  0  0  0  0  0
  1  2  1  0
  2  3  2  0
  3  4  1  0
  4  5  1  0
  4  6  2  0
  6  7  1  0
  7  8  1  0
  8  9  2  0
  8 10  1  0
 10 11  1  0
 10 12  1  0
 12 13  2  0
 12 14  1  0
 14 15  1  6
 14 16  1  0
 16 17  1  0
 17 18  1  0
 17 19  1  0
 17 20  1  0
 20 21  1  0
 20 22  1  0
 20 23  1  0
  6 24  1  0
 24 25  1  0
 24 26  2  0
 26 27  1  0
 26  2  1  0
 14  7  1  0
M  END
>  <plip>  (1) 
-0.07142857142857142

>  <filename>  (1) 
[H][c]1[n][c]([H])[c]([N]2[C](=[O])[N]([H])[C](=[O])[C@]2([H])[S][C]([H])([H])[C]([H])([H])[H])[c]([H])[c]1[H]

$$$$
