
     RDKit          3D

 33 36  0  0  0  0  0  0  0  0999 V2000
    4.9190    1.7823   16.9967 H   0  0  0  0  0  0  0  0  0  0  0  0
    5.4018    1.2960   17.8395 C   0  0  0  0  0  0  0  0  0  0  0  0
    6.5646    0.6806   17.5773 N   0  0  0  0  0  0  0  0  0  0  0  0
    7.1671    0.0609   18.5939 C   0  0  0  0  0  0  0  0  0  0  0  0
    8.1129   -0.4305   18.3744 H   0  0  0  0  0  0  0  0  0  0  0  0
    6.6512    0.0258   19.8964 C   0  0  0  0  0  0  0  0  0  0  0  0
    7.4036   -0.7053   20.9205 C   0  0  0  0  0  0  0  0  0  0  0  0
    7.7043   -1.9773   20.8849 N   0  0  0  0  0  0  0  0  0  0  0  0
    8.3801   -2.2806   22.0402 N   0  0  0  0  0  0  0  0  0  0  0  0
    8.4839   -1.1755   22.7249 C   0  0  0  0  0  0  0  0  0  0  0  0
    8.9752   -1.0649   23.6817 H   0  0  0  0  0  0  0  0  0  0  0  0
    7.9030   -0.1307   22.0612 N   0  0  0  0  0  0  0  0  0  0  0  0
    7.8124    1.2551   22.5044 C   0  0  0  0  0  0  0  0  0  0  0  0
    7.8788    1.9051   21.6278 H   0  0  0  0  0  0  0  0  0  0  0  0
    8.6988    1.4712   23.1132 H   0  0  0  0  0  0  0  0  0  0  0  0
    6.5638    1.5574   23.2969 C   0  0  0  0  0  0  0  0  0  0  0  0
    6.1958    0.8599   24.3963 C   0  0  0  0  0  0  0  0  0  0  0  0
    6.7208    0.0154   24.8179 H   0  0  0  0  0  0  0  0  0  0  0  0
    4.7315    1.4063   25.1353 S   0  0  0  0  0  0  0  0  0  0  0  0
    4.5704    2.6628   23.9370 C   0  0  0  0  0  0  0  0  0  0  0  0
    3.5453    3.6185   23.8317 C   0  0  0  0  0  0  0  0  0  0  0  0
    2.7329    3.6353   24.5507 H   0  0  0  0  0  0  0  0  0  0  0  0
    3.5995    4.5443   22.7976 C   0  0  0  0  0  0  0  0  0  0  0  0
    2.8217    5.2977   22.6907 H   0  0  0  0  0  0  0  0  0  0  0  0
    4.6632    4.5316   21.8732 C   0  0  0  0  0  0  0  0  0  0  0  0
    4.6858    5.2905   21.0987 H   0  0  0  0  0  0  0  0  0  0  0  0
    5.6745    3.5870   21.9651 C   0  0  0  0  0  0  0  0  0  0  0  0
    6.4867    3.5762   21.2377 H   0  0  0  0  0  0  0  0  0  0  0  0
    5.6381    2.6327   23.0093 C   0  0  0  0  0  0  0  0  0  0  0  0
    5.4317    0.6634   20.1583 C   0  0  0  0  0  0  0  0  0  0  0  0
    5.0045    0.6418   21.1648 H   0  0  0  0  0  0  0  0  0  0  0  0
    4.7994    1.3175   19.1040 C   0  0  0  0  0  0  0  0  0  0  0  0
    3.8662    1.8493   19.2555 H   0  0  0  0  0  0  0  0  0  0  0  0
  1  2  1  0
  2  3  2  0
  3  4  1  0
  4  5  1  0
  4  6  2  0
  6  7  1  0
  7  8  2  0
  8  9  1  0
  9 10  2  0
 10 11  1  0
 10 12  1  0
 12 13  1  0
 13 14  1  0
 13 15  1  0
 13 16  1  0
 16 17  2  0
 17 18  1  0
 17 19  1  0
 19 20  1  0
 20 21  2  0
 21 22  1  0
 21 23  1  0
 23 24  1  0
 23 25  2  0
 25 26  1  0
 25 27  1  0
 27 28  1  0
 27 29  2  0
  6 30  1  0
 30 31  1  0
 30 32  2  0
 32 33  1  0
 32  2  1  0
 12  7  1  0
 29 16  1  0
 29 20  1  0
M  END
>  <plip>  (1) 
-0.0

>  <filename>  (1) 
[H][c]1[n][c]([H])[c](-[c]2[n][n][c]([H])[n]2[C]([H])([H])[c]2[c]([H])[s][c]3[c]([H])[c]([H])[c]([H])[c]([H])[c]23)[c]([H])[c]1[H]

$$$$
