
     RDKit          3D

 47 50  0  0  0  0  0  0  0  0999 V2000
    6.8250   -4.4886   21.0565 C   0  0  0  0  0  0  0  0  0  0  0  0
    7.4196   -3.1859   20.9087 O   0  0  0  0  0  0  0  0  0  0  0  0
    6.6535   -2.1397   21.2676 C   0  0  0  0  0  0  0  0  0  0  0  0
    5.5376   -2.2731   21.7158 O   0  0  0  0  0  0  0  0  0  0  0  0
    7.3767   -0.7642   21.0214 C   0  0  0  0  0  0  0  0  0  0  0  0
    7.5292    0.0545   22.2465 N   0  0  0  0  0  0  0  0  0  0  0  0
    8.3129    1.1813   22.2500 C   0  0  0  0  0  0  0  0  0  0  0  0
    8.9588    1.5110   21.2712 O   0  0  0  0  0  0  0  0  0  0  0  0
    8.3169    1.9443   23.5693 C   0  0  2  0  0  0  0  0  0  0  0  0
    9.6430    2.1983   24.2351 C   0  0  0  0  0  0  0  0  0  0  0  0
    8.6468    1.2632   24.8831 C   0  0  1  0  0  0  0  0  0  0  0  0
    7.9639    1.6315   26.1637 C   0  0  0  0  0  0  0  0  0  0  0  0
    7.7007    0.6307   27.1163 C   0  0  0  0  0  0  0  0  0  0  0  0
    7.1028    0.9258   28.3434 C   0  0  0  0  0  0  0  0  0  0  0  0
    6.7643    2.2452   28.6484 C   0  0  0  0  0  0  0  0  0  0  0  0
    6.1675    2.5041   29.8533 O   0  0  0  0  0  0  0  0  0  0  0  0
    6.1381    3.8797   30.2392 C   0  0  0  0  0  0  0  0  0  0  0  0
    5.7908    4.7802   29.0553 C   0  0  0  0  0  0  0  0  0  0  0  0
    6.6959    4.5749   27.9668 O   0  0  0  0  0  0  0  0  0  0  0  0
    7.0081    3.2648   27.7002 C   0  0  0  0  0  0  0  0  0  0  0  0
    7.6122    2.9544   26.4832 C   0  0  0  0  0  0  0  0  0  0  0  0
    7.8101    3.7769   25.8038 H   0  0  0  0  0  0  0  0  0  0  0  0
    4.7612    4.5852   28.7221 H   0  0  0  0  0  0  0  0  0  0  0  0
    5.9017    5.8320   29.3294 H   0  0  0  0  0  0  0  0  0  0  0  0
    5.3668    3.9467   31.0089 H   0  0  0  0  0  0  0  0  0  0  0  0
    7.1135    4.1667   30.6563 H   0  0  0  0  0  0  0  0  0  0  0  0
    6.8769    0.1692   29.0912 H   0  0  0  0  0  0  0  0  0  0  0  0
    7.9680   -0.3983   26.8909 H   0  0  0  0  0  0  0  0  0  0  0  0
    8.8722    0.1954   24.8273 H   0  0  0  0  0  0  0  0  0  0  0  0
   10.5176    1.7757   23.7426 H   0  0  0  0  0  0  0  0  0  0  0  0
    9.8360    3.1580   24.7161 H   0  0  0  0  0  0  0  0  0  0  0  0
    7.5566    2.7255   23.6064 H   0  0  0  0  0  0  0  0  0  0  0  0
    6.8759   -0.0140   23.0079 H   0  0  0  0  0  0  0  0  0  0  0  0
    6.6744    0.0312   19.9137 C   0  0  0  0  0  0  0  0  0  0  0  0
    5.4512    0.6699   20.1487 C   0  0  0  0  0  0  0  0  0  0  0  0
    4.8101    1.3163   19.0919 C   0  0  0  0  0  0  0  0  0  0  0  0
    5.4059    1.2935   17.8273 C   0  0  0  0  0  0  0  0  0  0  0  0
    6.5720    0.6822   17.5743 N   0  0  0  0  0  0  0  0  0  0  0  0
    7.1864    0.0849   18.6073 C   0  0  0  0  0  0  0  0  0  0  0  0
    8.1303   -0.4074   18.3640 H   0  0  0  0  0  0  0  0  0  0  0  0
    4.9293    1.7882   16.9815 H   0  0  0  0  0  0  0  0  0  0  0  0
    3.8723    1.8382   19.2401 H   0  0  0  0  0  0  0  0  0  0  0  0
    4.9951    0.6450   21.1406 H   0  0  0  0  0  0  0  0  0  0  0  0
    8.3869   -1.0094   20.6774 H   0  0  0  0  0  0  0  0  0  0  0  0
    5.8899   -4.5612   20.4895 H   0  0  0  0  0  0  0  0  0  0  0  0
    7.5700   -5.1847   20.6754 H   0  0  0  0  0  0  0  0  0  0  0  0
    6.5962   -4.6780   22.1096 H   0  0  0  0  0  0  0  0  0  0  0  0
  1  2  1  0
  2  3  1  0
  3  4  2  0
  3  5  1  0
  5  6  1  0
  6  7  1  0
  7  8  2  0
  7  9  1  0
  9 10  1  0
 10 11  1  0
 11 12  1  0
 12 13  2  0
 13 14  1  0
 14 15  2  0
 15 16  1  0
 16 17  1  0
 17 18  1  0
 18 19  1  0
 19 20  1  0
 20 21  2  0
 21 22  1  0
 18 23  1  0
 18 24  1  0
 17 25  1  0
 17 26  1  0
 14 27  1  0
 13 28  1  0
 11 29  1  6
 10 30  1  0
 10 31  1  0
  9 32  1  1
  6 33  1  0
  5 34  1  0
 34 35  2  0
 35 36  1  0
 36 37  2  0
 37 38  1  0
 38 39  2  0
 39 40  1  0
 37 41  1  0
 36 42  1  0
 35 43  1  0
  5 44  1  0
  1 45  1  0
  1 46  1  0
  1 47  1  0
 11  9  1  0
 21 12  1  0
 39 34  1  0
 20 15  1  0
M  END
>  <plip>  (1) 
-0.21428571428571427

>  <filename>  (1) 
[H][c]1[n][c]([H])[c]([C]([H])([C](=[O])[O][C]([H])([H])[H])[N]([H])[C](=[O])[C@]2([H])[C]([H])([H])[C@@]2([H])[c]2[c]([H])[c]([H])[c]3[c]([c]2[H])[O][C]([H])([H])[C]([H])([H])[O]3)[c]([H])[c]1[H]

$$$$
