
     RDKit          3D

 32 35  0  0  0  0  0  0  0  0999 V2000
    4.8097    1.2998   19.1080 C   0  0  0  0  0  0  0  0  0  0  0  0
    5.4078    1.2902   17.8443 C   0  0  0  0  0  0  0  0  0  0  0  0
    6.5757    0.6714   17.5969 N   0  0  0  0  0  0  0  0  0  0  0  0
    7.1775    0.0390   18.6072 C   0  0  0  0  0  0  0  0  0  0  0  0
    6.6510   -0.0117   19.9085 C   0  0  0  0  0  0  0  0  0  0  0  0
    7.3597   -0.6933   20.9340 N   0  0  0  0  0  0  0  0  0  0  0  0
    7.8596   -1.9283   20.7155 N   0  0  0  0  0  0  0  0  0  0  0  0
    8.3421   -2.3178   21.8855 C   0  0  0  0  0  0  0  0  0  0  0  0
    8.1744   -1.3391   22.8807 C   0  0  0  0  0  0  0  0  0  0  0  0
    7.5569   -0.2896   22.2382 C   0  0  0  0  0  0  0  0  0  0  0  0
    7.2595    1.0555   22.7638 C   0  0  0  0  0  0  0  0  0  0  0  0
    6.7428    1.1725   24.0965 C   0  0  0  0  0  0  0  0  0  0  0  0
    6.4544    2.3129   24.6914 N   0  0  0  0  0  0  0  0  0  0  0  0
    6.6893    3.4608   23.9639 C   0  0  0  0  0  0  0  0  0  0  0  0
    6.4019    4.7336   24.5439 C   0  0  0  0  0  0  0  0  0  0  0  0
    6.6431    5.8749   23.8045 C   0  0  0  0  0  0  0  0  0  0  0  0
    7.1720    5.7651   22.4814 C   0  0  0  0  0  0  0  0  0  0  0  0
    7.4621    4.6194   21.9005 N   0  0  0  0  0  0  0  0  0  0  0  0
    7.2271    3.4765   22.6217 C   0  0  0  0  0  0  0  0  0  0  0  0
    7.5195    2.2145   22.0440 C   0  0  0  0  0  0  0  0  0  0  0  0
    7.9217    2.1904   21.0366 H   0  0  0  0  0  0  0  0  0  0  0  0
    7.3638    6.6667   21.8984 H   0  0  0  0  0  0  0  0  0  0  0  0
    6.4376    6.8614   24.2058 H   0  0  0  0  0  0  0  0  0  0  0  0
    6.0007    4.7456   25.5542 H   0  0  0  0  0  0  0  0  0  0  0  0
    6.5575    0.2585   24.6643 H   0  0  0  0  0  0  0  0  0  0  0  0
    8.5121   -1.3555   23.9072 H   0  0  0  0  0  0  0  0  0  0  0  0
    8.8007   -3.2946   21.9805 H   0  0  0  0  0  0  0  0  0  0  0  0
    5.4319    0.6340   20.1649 C   0  0  0  0  0  0  0  0  0  0  0  0
    5.0088    0.6372   21.1716 H   0  0  0  0  0  0  0  0  0  0  0  0
    8.1247   -0.4408   18.3801 H   0  0  0  0  0  0  0  0  0  0  0  0
    4.9264    1.7802   16.9990 H   0  0  0  0  0  0  0  0  0  0  0  0
    3.8812    1.8377   19.2595 H   0  0  0  0  0  0  0  0  0  0  0  0
  1  2  2  0
  2  3  1  0
  3  4  2  0
  4  5  1  0
  5  6  1  0
  6  7  1  0
  7  8  2  0
  8  9  1  0
  9 10  2  0
 10 11  1  0
 11 12  2  0
 12 13  1  0
 13 14  2  0
 14 15  1  0
 15 16  2  0
 16 17  1  0
 17 18  2  0
 18 19  1  0
 19 20  2  0
 20 21  1  0
 17 22  1  0
 16 23  1  0
 15 24  1  0
 12 25  1  0
  9 26  1  0
  8 27  1  0
  5 28  2  0
 28 29  1  0
  4 30  1  0
  2 31  1  0
  1 32  1  0
 28  1  1  0
 10  6  1  0
 20 11  1  0
 19 14  1  0
M  END
>  <plip>  (1) 
-0.06896551724137931

>  <filename>  (1) 
[H][c]1[n][c]([H])[c](-[n]2[n][c]([H])[c]([H])[c]2-[c]2[c]([H])[n][c]3[c]([H])[c]([H])[c]([H])[n][c]3[c]2[H])[c]([H])[c]1[H]

$$$$
