
     RDKit          3D

 21 21  0  0  0  0  0  0  0  0999 V2000
    6.6608   -4.1665   23.8580 H   0  0  0  0  0  0  0  0  0  0  0  0
    6.7776   -3.2772   24.2340 O   0  0  0  0  0  0  0  0  0  0  0  0
    6.8854   -2.5993   23.0906 C   0  0  0  0  0  0  0  0  0  0  0  0
    6.8165   -3.2592   22.0518 O   0  0  0  0  0  0  0  0  0  0  0  0
    7.0940   -1.1770   23.2819 C   0  0  0  0  0  0  0  0  0  0  0  0
    7.1650   -0.8641   24.3133 H   0  0  0  0  0  0  0  0  0  0  0  0
    7.2129   -0.2789   22.2845 C   0  0  0  0  0  0  0  0  0  0  0  0
    7.2458    0.8010   22.4693 H   0  0  0  0  0  0  0  0  0  0  0  0
    7.3154   -0.6268   20.9510 N   0  0  0  0  0  0  0  0  0  0  0  0
    8.1707   -1.6426   20.5910 O   0  0  0  0  0  0  0  0  0  0  0  0
    7.6660   -2.4679   20.8399 H   0  0  0  0  0  0  0  0  0  0  0  0
    6.6524    0.0305   19.9129 C   0  0  0  0  0  0  0  0  0  0  0  0
    7.1746    0.0305   18.5969 C   0  0  0  0  0  0  0  0  0  0  0  0
    8.1130   -0.4852   18.4069 H   0  0  0  0  0  0  0  0  0  0  0  0
    6.5883    0.6594   17.5717 N   0  0  0  0  0  0  0  0  0  0  0  0
    5.4311    1.3052   17.8106 C   0  0  0  0  0  0  0  0  0  0  0  0
    4.9735    1.8108   16.9614 H   0  0  0  0  0  0  0  0  0  0  0  0
    4.8126    1.3354   19.0672 C   0  0  0  0  0  0  0  0  0  0  0  0
    3.8720    1.8639   19.1993 H   0  0  0  0  0  0  0  0  0  0  0  0
    5.4342    0.6972   20.1426 C   0  0  0  0  0  0  0  0  0  0  0  0
    4.9952    0.6890   21.1408 H   0  0  0  0  0  0  0  0  0  0  0  0
  1  2  1  0
  2  3  1  0
  3  4  2  0
  3  5  1  0
  5  6  1  0
  5  7  2  3
  7  8  1  0
  7  9  1  0
  9 10  1  0
 10 11  1  0
  9 12  1  0
 12 13  2  0
 13 14  1  0
 13 15  1  0
 15 16  2  0
 16 17  1  0
 16 18  1  0
 18 19  1  0
 18 20  2  0
 20 21  1  0
 20 12  1  0
M  END
>  <plip>  (1) 
-0.03571428571428571

>  <filename>  (1) 
[H][O][C](=[O])[C]([H])=[C]([H])[N]([O][H])[c]1[c]([H])[n][c]([H])[c]([H])[c]1[H]

$$$$
