
     RDKit          3D

 32 34  0  0  0  0  0  0  0  0999 V2000
   12.5736    4.3607   22.0674 C   0  0  0  0  0  0  0  0  0  0  0  0
   11.7932    3.1655   21.8779 N   0  0  0  0  0  0  0  0  0  0  0  0
   12.3953    2.0420   21.4588 N   0  0  0  0  0  0  0  0  0  0  0  0
   11.4611    1.1235   21.3439 C   0  0  0  0  0  0  0  0  0  0  0  0
   10.2070    1.6492   21.7131 C   0  0  0  0  0  0  0  0  0  0  0  0
    8.8894    1.1514   21.7593 C   0  0  0  0  0  0  0  0  0  0  0  0
    8.7071   -0.0877   21.2339 N   0  0  0  0  0  0  0  0  0  0  0  0
    7.4209   -0.6865   21.0003 C   0  0  0  0  0  0  0  0  0  0  0  0
    6.6247   -0.0022   19.9039 C   0  0  0  0  0  0  0  0  0  0  0  0
    5.3979    0.6425   20.1224 C   0  0  0  0  0  0  0  0  0  0  0  0
    4.7844    1.3041   19.0573 C   0  0  0  0  0  0  0  0  0  0  0  0
    5.4127    1.2995   17.8111 C   0  0  0  0  0  0  0  0  0  0  0  0
    6.5766    0.6774   17.5736 N   0  0  0  0  0  0  0  0  0  0  0  0
    7.1637    0.0640   18.6091 C   0  0  0  0  0  0  0  0  0  0  0  0
    8.1135   -0.4196   18.3806 H   0  0  0  0  0  0  0  0  0  0  0  0
    4.9591    1.8213   16.9723 H   0  0  0  0  0  0  0  0  0  0  0  0
    3.8530    1.8404   19.1907 H   0  0  0  0  0  0  0  0  0  0  0  0
    4.9311    0.6568   21.1113 H   0  0  0  0  0  0  0  0  0  0  0  0
    6.8590   -0.6828   21.9434 H   0  0  0  0  0  0  0  0  0  0  0  0
    7.6220   -1.7376   20.7659 H   0  0  0  0  0  0  0  0  0  0  0  0
    9.5443   -0.5150   20.8809 H   0  0  0  0  0  0  0  0  0  0  0  0
    7.8971    1.9417   22.3258 C   0  0  0  0  0  0  0  0  0  0  0  0
    8.1902    3.2488   22.7898 C   0  0  0  0  0  0  0  0  0  0  0  0
    9.4616    3.7938   22.6873 C   0  0  0  0  0  0  0  0  0  0  0  0
   10.4648    2.9770   22.1167 C   0  0  0  0  0  0  0  0  0  0  0  0
    9.6965    4.7935   23.0390 H   0  0  0  0  0  0  0  0  0  0  0  0
    7.3990    3.8308   23.2539 H   0  0  0  0  0  0  0  0  0  0  0  0
    6.8859    1.5545   22.3851 H   0  0  0  0  0  0  0  0  0  0  0  0
   11.7271    0.1289   21.0077 H   0  0  0  0  0  0  0  0  0  0  0  0
   12.6200    4.6160   23.1254 H   0  0  0  0  0  0  0  0  0  0  0  0
   12.1502    5.2034   21.5197 H   0  0  0  0  0  0  0  0  0  0  0  0
   13.5844    4.1788   21.7007 H   0  0  0  0  0  0  0  0  0  0  0  0
  1  2  1  0
  2  3  1  0
  3  4  2  0
  4  5  1  0
  5  6  2  0
  6  7  1  0
  7  8  1  0
  8  9  1  0
  9 10  2  0
 10 11  1  0
 11 12  2  0
 12 13  1  0
 13 14  2  0
 14 15  1  0
 12 16  1  0
 11 17  1  0
 10 18  1  0
  8 19  1  0
  8 20  1  0
  7 21  1  0
  6 22  1  0
 22 23  2  0
 23 24  1  0
 24 25  2  0
 24 26  1  0
 23 27  1  0
 22 28  1  0
  4 29  1  0
  1 30  1  0
  1 31  1  0
  1 32  1  0
 25  2  1  0
 25  5  1  0
 14  9  1  0
M  END
>  <plip>  (1) 
-0.034482758620689655

>  <filename>  (1) 
[H][c]1[n][c]([H])[c]([C]([H])([H])[N]([H])[c]2[c]([H])[c]([H])[c]([H])[c]3[c]2[c]([H])[n][n]3[C]([H])([H])[H])[c]([H])[c]1[H]

$$$$
