
     RDKit          3D

 31 33  0  0  0  0  0  0  0  0999 V2000
    4.9212    1.7805   16.9959 H   0  0  0  0  0  0  0  0  0  0  0  0
    5.4051    1.2954   17.8373 C   0  0  0  0  0  0  0  0  0  0  0  0
    6.5686    0.6752   17.5788 N   0  0  0  0  0  0  0  0  0  0  0  0
    7.1658    0.0548   18.6006 C   0  0  0  0  0  0  0  0  0  0  0  0
    8.1116   -0.4334   18.3768 H   0  0  0  0  0  0  0  0  0  0  0  0
    6.6517    0.0282   19.9027 C   0  0  0  0  0  0  0  0  0  0  0  0
    7.3814   -0.7145   20.9322 C   0  0  0  0  0  0  0  0  0  0  0  0
    7.7104   -1.9793   20.8106 N   0  0  0  0  0  0  0  0  0  0  0  0
    8.2894   -2.3199   22.0045 C   0  0  0  0  0  0  0  0  0  0  0  0
    8.6408   -3.3235   22.2023 H   0  0  0  0  0  0  0  0  0  0  0  0
    8.3458   -1.2444   22.8422 C   0  0  0  0  0  0  0  0  0  0  0  0
    8.7358   -1.1258   23.8431 H   0  0  0  0  0  0  0  0  0  0  0  0
    7.7529   -0.1977   22.1503 N   0  0  0  0  0  0  0  0  0  0  0  0
    7.6223    1.2086   22.5787 C   0  0  0  0  0  0  0  0  0  0  0  0
    6.5606    1.4323   22.7100 H   0  0  0  0  0  0  0  0  0  0  0  0
    8.3354    1.5234   23.8948 C   0  0  0  0  0  0  0  0  0  0  0  0
    9.3176    1.0379   23.8985 H   0  0  0  0  0  0  0  0  0  0  0  0
    7.7808    1.1589   24.7662 H   0  0  0  0  0  0  0  0  0  0  0  0
    8.5162    3.0445   23.9023 C   0  0  0  0  0  0  0  0  0  0  0  0
    7.6433    3.5359   24.3464 H   0  0  0  0  0  0  0  0  0  0  0  0
    9.3808    3.3485   24.5023 H   0  0  0  0  0  0  0  0  0  0  0  0
    8.6686    3.4454   22.4189 C   0  0  0  0  0  0  0  0  0  0  0  0
    8.0844    4.3434   22.1948 H   0  0  0  0  0  0  0  0  0  0  0  0
    9.7104    3.6898   22.1873 H   0  0  0  0  0  0  0  0  0  0  0  0
    8.1995    2.2305   21.5812 C   0  0  0  0  0  0  0  0  0  0  0  0
    7.4599    2.5032   20.8238 H   0  0  0  0  0  0  0  0  0  0  0  0
    9.0414    1.7805   21.0519 H   0  0  0  0  0  0  0  0  0  0  0  0
    5.4300    0.6716   20.1603 C   0  0  0  0  0  0  0  0  0  0  0  0
    4.9875    0.6355   21.1642 H   0  0  0  0  0  0  0  0  0  0  0  0
    4.8016    1.3192   19.1020 C   0  0  0  0  0  0  0  0  0  0  0  0
    3.8672    1.8468   19.2566 H   0  0  0  0  0  0  0  0  0  0  0  0
  1  2  1  0
  2  3  2  0
  3  4  1  0
  4  5  1  0
  4  6  2  0
  6  7  1  0
  7  8  2  0
  8  9  1  0
  9 10  1  0
  9 11  2  0
 11 12  1  0
 11 13  1  0
 13 14  1  0
 14 15  1  0
 14 16  1  0
 16 17  1  0
 16 18  1  0
 16 19  1  0
 19 20  1  0
 19 21  1  0
 19 22  1  0
 22 23  1  0
 22 24  1  0
 22 25  1  0
 25 26  1  0
 25 27  1  0
  6 28  1  0
 28 29  1  0
 28 30  2  0
 30 31  1  0
 30  2  1  0
 13  7  1  0
 25 14  1  0
M  END
>  <plip>  (1) 
-0.03571428571428571

>  <filename>  (1) 
[H][c]1[n][c]([H])[c](-[c]2[n][c]([H])[c]([H])[n]2[C]2([H])[C]([H])([H])[C]([H])([H])[C]([H])([H])[C]2([H])[H])[c]([H])[c]1[H]

$$$$
