
     RDKit          3D

 42 45  0  0  0  0  0  0  0  0999 V2000
    4.9944    1.8311   16.9190 H   0  0  0  0  0  0  0  0  0  0  0  0
    5.4342    1.2998   17.7615 C   0  0  0  0  0  0  0  0  0  0  0  0
    6.5774    0.6359   17.5242 N   0  0  0  0  0  0  0  0  0  0  0  0
    7.1392   -0.0058   18.5551 C   0  0  0  0  0  0  0  0  0  0  0  0
    8.0587   -0.5421   18.3320 H   0  0  0  0  0  0  0  0  0  0  0  0
    6.6265    0.0119   19.8659 C   0  0  0  0  0  0  0  0  0  0  0  0
    7.3655   -0.6356   20.9514 C   0  0  0  0  0  0  0  0  0  0  0  0
    7.9589   -1.8730   20.7915 N   0  0  0  0  0  0  0  0  0  0  0  0
    8.4053   -2.1601   21.9860 C   0  0  0  0  0  0  0  0  0  0  0  0
    9.1923   -3.5377   22.7378 S   0  0  0  0  0  0  0  0  0  0  0  0
    9.2971   -2.6811   24.2699 C   0  0  0  0  0  0  0  0  0  0  0  0
    9.8283   -3.1145   25.1127 H   0  0  0  0  0  0  0  0  0  0  0  0
    8.7047   -1.4798   24.2067 C   0  0  0  0  0  0  0  0  0  0  0  0
    8.5967   -0.7819   25.0286 H   0  0  0  0  0  0  0  0  0  0  0  0
    8.2056   -1.1739   22.9306 N   0  0  0  0  0  0  0  0  0  0  0  0
    7.5275   -0.1630   22.2662 C   0  0  0  0  0  0  0  0  0  0  0  0
    7.1928    1.0202   22.8706 N   0  0  0  0  0  0  0  0  0  0  0  0
    6.8697    1.7349   22.2340 H   0  0  0  0  0  0  0  0  0  0  0  0
    6.8611    1.1650   24.2825 C   0  0  0  0  0  0  0  0  0  0  0  0
    6.6004    2.2138   24.4537 H   0  0  0  0  0  0  0  0  0  0  0  0
    7.7500    0.9823   24.8961 H   0  0  0  0  0  0  0  0  0  0  0  0
    5.7068    0.2556   24.7938 C   0  0  0  0  0  0  0  0  0  0  0  0
    5.9240   -0.7885   24.5297 H   0  0  0  0  0  0  0  0  0  0  0  0
    4.7901    0.5270   24.2484 H   0  0  0  0  0  0  0  0  0  0  0  0
    5.3911    0.3531   26.2217 N   0  0  0  0  0  0  0  0  0  0  0  0
    4.9230    1.6800   26.6315 C   0  0  0  0  0  0  0  0  0  0  0  0
    5.7177    2.4507   26.5961 H   0  0  0  0  0  0  0  0  0  0  0  0
    4.1184    1.9909   25.9503 H   0  0  0  0  0  0  0  0  0  0  0  0
    4.3701    1.6402   28.0586 C   0  0  0  0  0  0  0  0  0  0  0  0
    4.1422    2.6611   28.3889 H   0  0  0  0  0  0  0  0  0  0  0  0
    3.4476    1.0379   28.0803 H   0  0  0  0  0  0  0  0  0  0  0  0
    5.3158    1.1133   28.9810 O   0  0  0  0  0  0  0  0  0  0  0  0
    5.7716   -0.1786   28.5886 C   0  0  0  0  0  0  0  0  0  0  0  0
    6.5264   -0.4543   29.3244 H   0  0  0  0  0  0  0  0  0  0  0  0
    4.9529   -0.9192   28.6376 H   0  0  0  0  0  0  0  0  0  0  0  0
    6.3712   -0.1890   27.1711 C   0  0  0  0  0  0  0  0  0  0  0  0
    6.6004   -1.2324   26.9186 H   0  0  0  0  0  0  0  0  0  0  0  0
    7.3382    0.3539   27.1719 H   0  0  0  0  0  0  0  0  0  0  0  0
    5.4044    0.6760   20.0838 C   0  0  0  0  0  0  0  0  0  0  0  0
    4.9275    0.6645   21.0680 H   0  0  0  0  0  0  0  0  0  0  0  0
    4.8019    1.3244   19.0090 C   0  0  0  0  0  0  0  0  0  0  0  0
    3.8647    1.8537   19.1300 H   0  0  0  0  0  0  0  0  0  0  0  0
  1  2  1  0
  2  3  2  0
  3  4  1  0
  4  5  1  0
  4  6  2  0
  6  7  1  0
  7  8  1  0
  8  9  2  0
  9 10  1  0
 10 11  1  0
 11 12  1  0
 11 13  2  0
 13 14  1  0
 13 15  1  0
 15 16  1  0
 16 17  1  0
 17 18  1  0
 17 19  1  0
 19 20  1  0
 19 21  1  0
 19 22  1  0
 22 23  1  0
 22 24  1  0
 22 25  1  0
 25 26  1  0
 26 27  1  0
 26 28  1  0
 26 29  1  0
 29 30  1  0
 29 31  1  0
 29 32  1  0
 32 33  1  0
 33 34  1  0
 33 35  1  0
 33 36  1  0
 36 37  1  0
 36 38  1  0
  6 39  1  0
 39 40  1  0
 39 41  2  0
 41 42  1  0
 41  2  1  0
 16  7  2  0
 36 25  1  0
 15  9  1  0
M  END
>  <plip>  (1) 
-0.06896551724137931

>  <filename>  (1) 
[H][c]1[n][c]([H])[c](-[c]2[n][c]3[s][c]([H])[c]([H])[n]3[c]2[N]([H])[C]([H])([H])[C]([H])([H])[N]2[C]([H])([H])[C]([H])([H])[O][C]([H])([H])[C]2([H])[H])[c]([H])[c]1[H]

$$$$
