
     RDKit          3D

 32 33  0  0  0  0  0  0  0  0999 V2000
    4.9206    1.7977   16.9818 H   0  0  0  0  0  0  0  0  0  0  0  0
    5.3884    1.2987   17.8269 C   0  0  0  0  0  0  0  0  0  0  0  0
    6.5526    0.6813   17.5574 N   0  0  0  0  0  0  0  0  0  0  0  0
    7.1497    0.0441   18.5713 C   0  0  0  0  0  0  0  0  0  0  0  0
    8.1132   -0.4190   18.3749 H   0  0  0  0  0  0  0  0  0  0  0  0
    6.6238   -0.0277   19.8745 C   0  0  0  0  0  0  0  0  0  0  0  0
    7.6029   -0.8335   21.1147 S   0  0  0  0  0  0  0  0  0  0  0  0
    8.8123    0.7353   21.7277 S   0  0  0  0  0  0  0  0  0  0  0  0
    7.7411    1.4008   23.0414 C   0  0  0  0  0  0  0  0  0  0  0  0
    6.7134    1.5141   22.6764 H   0  0  0  0  0  0  0  0  0  0  0  0
    7.7217    0.6289   23.8140 H   0  0  0  0  0  0  0  0  0  0  0  0
    8.2541    2.7242   23.6021 C   0  0  0  0  0  0  0  0  0  0  0  0
    9.3291    2.6059   23.8047 H   0  0  0  0  0  0  0  0  0  0  0  0
    8.0789    3.8901   22.6093 C   0  0  0  0  0  0  0  0  0  0  0  0
    7.0140    3.9665   22.3391 H   0  0  0  0  0  0  0  0  0  0  0  0
    8.6075    3.6763   21.6725 H   0  0  0  0  0  0  0  0  0  0  0  0
    8.5492    5.2217   23.2121 C   0  0  0  0  0  0  0  0  0  0  0  0
    9.6361    5.1726   23.3686 H   0  0  0  0  0  0  0  0  0  0  0  0
    8.3807    6.0392   22.5018 H   0  0  0  0  0  0  0  0  0  0  0  0
    7.8582    5.5151   24.5548 C   0  0  0  0  0  0  0  0  0  0  0  0
    6.7855    5.6755   24.3743 H   0  0  0  0  0  0  0  0  0  0  0  0
    8.2373    6.4483   24.9869 H   0  0  0  0  0  0  0  0  0  0  0  0
    8.0255    4.3532   25.5482 C   0  0  0  0  0  0  0  0  0  0  0  0
    7.4908    4.5584   26.4826 H   0  0  0  0  0  0  0  0  0  0  0  0
    9.0874    4.2582   25.8162 H   0  0  0  0  0  0  0  0  0  0  0  0
    7.5532    3.0259   24.9406 C   0  0  0  0  0  0  0  0  0  0  0  0
    7.7251    2.1987   25.6422 H   0  0  0  0  0  0  0  0  0  0  0  0
    6.4656    3.0598   24.7729 H   0  0  0  0  0  0  0  0  0  0  0  0
    5.4159    0.6220   20.1458 C   0  0  0  0  0  0  0  0  0  0  0  0
    5.0077    0.6206   21.1617 H   0  0  0  0  0  0  0  0  0  0  0  0
    4.7938    1.3038   19.0944 C   0  0  0  0  0  0  0  0  0  0  0  0
    3.8706    1.8478   19.2520 H   0  0  0  0  0  0  0  0  0  0  0  0
  1  2  1  0
  2  3  2  0
  3  4  1  0
  4  5  1  0
  4  6  2  0
  6  7  1  0
  7  8  1  0
  8  9  1  0
  9 10  1  0
  9 11  1  0
  9 12  1  0
 12 13  1  0
 12 14  1  0
 14 15  1  0
 14 16  1  0
 14 17  1  0
 17 18  1  0
 17 19  1  0
 17 20  1  0
 20 21  1  0
 20 22  1  0
 20 23  1  0
 23 24  1  0
 23 25  1  0
 23 26  1  0
 26 27  1  0
 26 28  1  0
  6 29  1  0
 29 30  1  0
 29 31  2  0
 31 32  1  0
 31  2  1  0
 26 12  1  0
M  END
>  <plip>  (1) 
-0.03571428571428571

>  <filename>  (1) 
[H][c]1[n][c]([H])[c]([S][S][C]([H])([H])[C]2([H])[C]([H])([H])[C]([H])([H])[C]([H])([H])[C]([H])([H])[C]2([H])[H])[c]([H])[c]1[H]

$$$$
