
     RDKit          3D

 25 27  0  0  0  0  0  0  0  0999 V2000
    9.3044   -1.5838   20.0967 H   0  0  0  0  0  0  0  0  0  0  0  0
    8.6028   -1.3989   20.8973 C   0  0  0  0  0  0  0  0  0  0  0  0
    8.8370   -1.8885   22.1545 N   0  0  0  0  0  0  0  0  0  0  0  0
    7.8210   -1.4726   22.8501 C   0  0  0  0  0  0  0  0  0  0  0  0
    7.5531   -1.7041   24.2567 C   0  0  0  0  0  0  0  0  0  0  0  0
    6.5778   -1.3070   25.0076 N   0  0  0  0  0  0  0  0  0  0  0  0
    6.8129   -1.8591   26.2453 N   0  0  0  0  0  0  0  0  0  0  0  0
    7.9077   -2.5436   26.1487 C   0  0  0  0  0  0  0  0  0  0  0  0
    8.5672   -3.2294   27.2670 C   0  0  0  0  0  0  0  0  0  0  0  0
    9.6444   -3.2958   27.1355 H   0  0  0  0  0  0  0  0  0  0  0  0
    8.1506   -4.2221   27.4532 H   0  0  0  0  0  0  0  0  0  0  0  0
    8.3312   -2.5709   28.0902 H   0  0  0  0  0  0  0  0  0  0  0  0
    8.4397   -2.4923   24.9253 O   0  0  0  0  0  0  0  0  0  0  0  0
    6.9254   -0.7547   22.1486 O   0  0  0  0  0  0  0  0  0  0  0  0
    7.4243   -0.7029   20.8864 C   0  0  0  0  0  0  0  0  0  0  0  0
    6.6467    0.0147   19.8885 C   0  0  0  0  0  0  0  0  0  0  0  0
    7.1440    0.0715   18.5801 C   0  0  0  0  0  0  0  0  0  0  0  0
    8.0926   -0.4033   18.3402 H   0  0  0  0  0  0  0  0  0  0  0  0
    6.5370    0.6860   17.5668 N   0  0  0  0  0  0  0  0  0  0  0  0
    5.3786    1.3066   17.8281 C   0  0  0  0  0  0  0  0  0  0  0  0
    4.9237    1.8149   16.9793 H   0  0  0  0  0  0  0  0  0  0  0  0
    4.7843    1.3188   19.0975 C   0  0  0  0  0  0  0  0  0  0  0  0
    3.8505    1.8556   19.2296 H   0  0  0  0  0  0  0  0  0  0  0  0
    5.4214    0.6636   20.1514 C   0  0  0  0  0  0  0  0  0  0  0  0
    4.9842    0.6608   21.1516 H   0  0  0  0  0  0  0  0  0  0  0  0
  1  2  1  0
  2  3  1  0
  3  4  2  0
  4  5  1  0
  5  6  2  0
  6  7  1  0
  7  8  2  0
  8  9  1  0
  9 10  1  0
  9 11  1  0
  9 12  1  0
  8 13  1  0
  4 14  1  0
 14 15  1  0
 15 16  1  0
 16 17  2  0
 17 18  1  0
 17 19  1  0
 19 20  2  0
 20 21  1  0
 20 22  1  0
 22 23  1  0
 22 24  2  0
 24 25  1  0
 15  2  2  0
 24 16  1  0
 13  5  1  0
M  END
>  <plip>  (1) 
-0.0

>  <filename>  (1) 
[H][c]1[n][c](-[c]2[n][n][c]([C]([H])([H])[H])[o]2)[o][c]1-[c]1[c]([H])[n][c]([H])[c]([H])[c]1[H]

$$$$
