
     RDKit          3D

 35 38  0  0  0  0  0  0  0  0999 V2000
    8.7250    0.9922   21.6613 H   0  0  0  0  0  0  0  0  0  0  0  0
    7.9932    0.2689   21.9762 C   0  0  0  0  0  0  0  0  0  0  0  0
    7.4857    0.2766   23.2314 C   0  0  0  0  0  0  0  0  0  0  0  0
    7.7431    1.3428   24.2169 C   0  0  0  0  0  0  0  0  0  0  0  0
    7.8535    1.0576   25.6198 C   0  0  0  0  0  0  0  0  0  0  0  0
    7.6536    0.0507   25.9796 H   0  0  0  0  0  0  0  0  0  0  0  0
    8.2378    2.0189   26.5313 C   0  0  0  0  0  0  0  0  0  0  0  0
    8.3495    1.8111   27.5906 H   0  0  0  0  0  0  0  0  0  0  0  0
    8.5026    3.3099   26.0251 C   0  0  0  0  0  0  0  0  0  0  0  0
    8.3603    3.6429   24.6626 C   0  0  0  0  0  0  0  0  0  0  0  0
    8.7585    5.0153   24.6037 C   0  0  0  0  0  0  0  0  0  0  0  0
    8.8056    5.6586   23.7332 H   0  0  0  0  0  0  0  0  0  0  0  0
    9.0970    5.4729   25.7937 N   0  0  0  0  0  0  0  0  0  0  0  0
    8.9294    4.4349   26.6425 N   0  0  0  0  0  0  0  0  0  0  0  0
    9.1221    4.5216   27.6279 H   0  0  0  0  0  0  0  0  0  0  0  0
    7.9533    2.6437   23.7501 C   0  0  0  0  0  0  0  0  0  0  0  0
    7.7862    2.8742   22.6998 H   0  0  0  0  0  0  0  0  0  0  0  0
    6.6802   -0.7937   23.6057 N   0  0  0  0  0  0  0  0  0  0  0  0
    6.2121   -0.8287   24.4935 H   0  0  0  0  0  0  0  0  0  0  0  0
    6.4457   -1.8877   22.8359 C   0  0  0  0  0  0  0  0  0  0  0  0
    5.6927   -3.2296   23.4529 S   0  0  0  0  0  0  0  0  0  0  0  0
    6.8530   -1.8284   21.5586 N   0  0  0  0  0  0  0  0  0  0  0  0
    6.4661   -2.5593   20.9871 H   0  0  0  0  0  0  0  0  0  0  0  0
    7.5316   -0.6906   20.9411 C   0  0  1  0  0  0  0  0  0  0  0  0
    8.4121   -1.0938   20.4112 H   0  0  0  0  0  0  0  0  0  0  0  0
    6.6688   -0.0240   19.8572 C   0  0  0  0  0  0  0  0  0  0  0  0
    7.1580    0.0254   18.5461 C   0  0  0  0  0  0  0  0  0  0  0  0
    8.0999   -0.4686   18.3079 H   0  0  0  0  0  0  0  0  0  0  0  0
    6.5610    0.6580   17.5286 N   0  0  0  0  0  0  0  0  0  0  0  0
    5.4094    1.2871   17.8053 C   0  0  0  0  0  0  0  0  0  0  0  0
    4.9429    1.8158   16.9752 H   0  0  0  0  0  0  0  0  0  0  0  0
    4.8126    1.2822   19.0731 C   0  0  0  0  0  0  0  0  0  0  0  0
    3.8803    1.8171   19.2213 H   0  0  0  0  0  0  0  0  0  0  0  0
    5.4501    0.6149   20.1245 C   0  0  0  0  0  0  0  0  0  0  0  0
    5.0142    0.6089   21.1274 H   0  0  0  0  0  0  0  0  0  0  0  0
  1  2  1  0
  2  3  2  0
  3  4  1  0
  4  5  2  0
  5  6  1  0
  5  7  1  0
  7  8  1  0
  7  9  2  0
  9 10  1  0
 10 11  1  0
 11 12  1  0
 11 13  2  0
 13 14  1  0
 14 15  1  0
 10 16  2  0
 16 17  1  0
  3 18  1  0
 18 19  1  0
 18 20  1  0
 20 21  2  0
 20 22  1  0
 22 23  1  0
 22 24  1  0
 24 25  1  6
 24 26  1  0
 26 27  2  0
 27 28  1  0
 27 29  1  0
 29 30  2  0
 30 31  1  0
 30 32  1  0
 32 33  1  0
 32 34  2  0
 34 35  1  0
 24  2  1  0
 34 26  1  0
 16  4  1  0
 14  9  1  0
M  END
>  <plip>  (1) 
-0.10714285714285714

>  <filename>  (1) 
[H][C]1=[C]([c]2[c]([H])[c]([H])[c]3[c]([c]([H])[n][n]3[H])[c]2[H])[N]([H])[C](=[S])[N]([H])[C@@]1([H])[c]1[c]([H])[n][c]([H])[c]([H])[c]1[H]

$$$$
