
     RDKit          3D

 34 36  0  0  0  0  0  0  0  0999 V2000
    8.6457   -0.8208   20.8957 O   0  0  0  0  0  0  0  0  0  0  0  0
    7.4299   -0.7279   20.9763 C   0  0  0  0  0  0  0  0  0  0  0  0
    6.7274   -1.2371   22.0237 N   0  0  0  0  0  0  0  0  0  0  0  0
    7.3956   -1.7706   23.2097 C   0  0  0  0  0  0  0  0  0  0  0  0
    6.4168   -2.2095   24.2818 C   0  0  0  0  0  0  0  0  0  0  0  0
    6.2721   -3.5556   24.5644 C   0  0  0  0  0  0  0  0  0  0  0  0
    5.3667   -3.9858   25.5649 C   0  0  0  0  0  0  0  0  0  0  0  0
    5.2675   -5.3083   25.7834 F   0  0  0  0  0  0  0  0  0  0  0  0
    4.6087   -3.1138   26.2922 C   0  0  0  0  0  0  0  0  0  0  0  0
    4.7333   -1.7132   26.0407 C   0  0  0  0  0  0  0  0  0  0  0  0
    3.9491   -0.7655   26.7635 C   0  0  0  0  0  0  0  0  0  0  0  0
    4.0486    0.5832   26.5162 C   0  0  0  0  0  0  0  0  0  0  0  0
    4.9515    1.0568   25.5253 C   0  0  0  0  0  0  0  0  0  0  0  0
    5.7323    0.1727   24.8125 C   0  0  0  0  0  0  0  0  0  0  0  0
    5.6497   -1.2427   25.0359 C   0  0  0  0  0  0  0  0  0  0  0  0
    6.4100    0.5395   24.0452 H   0  0  0  0  0  0  0  0  0  0  0  0
    5.0226    2.1240   25.3349 H   0  0  0  0  0  0  0  0  0  0  0  0
    3.4452    1.2902   27.0798 H   0  0  0  0  0  0  0  0  0  0  0  0
    3.2677   -1.1507   27.5190 H   0  0  0  0  0  0  0  0  0  0  0  0
    3.9253   -3.4931   27.0475 H   0  0  0  0  0  0  0  0  0  0  0  0
    6.8401   -4.3210   24.0424 H   0  0  0  0  0  0  0  0  0  0  0  0
    8.0493   -2.6054   22.9163 H   0  0  0  0  0  0  0  0  0  0  0  0
    8.0713   -0.9988   23.6068 H   0  0  0  0  0  0  0  0  0  0  0  0
    5.7274   -1.3085   21.9348 H   0  0  0  0  0  0  0  0  0  0  0  0
    6.6063   -0.0391   19.9376 C   0  0  0  0  0  0  0  0  0  0  0  0
    5.3935    0.6319   20.1716 C   0  0  0  0  0  0  0  0  0  0  0  0
    4.7920    1.3066   19.1113 C   0  0  0  0  0  0  0  0  0  0  0  0
    5.4079    1.2789   17.8565 C   0  0  0  0  0  0  0  0  0  0  0  0
    6.5690    0.6526   17.6267 N   0  0  0  0  0  0  0  0  0  0  0  0
    7.1548    0.0281   18.6517 C   0  0  0  0  0  0  0  0  0  0  0  0
    8.1186   -0.4269   18.4338 H   0  0  0  0  0  0  0  0  0  0  0  0
    4.9581    1.7760   16.9971 H   0  0  0  0  0  0  0  0  0  0  0  0
    3.8668    1.8544   19.2398 H   0  0  0  0  0  0  0  0  0  0  0  0
    4.9415    0.6796   21.1670 H   0  0  0  0  0  0  0  0  0  0  0  0
  1  2  2  0
  2  3  1  0
  3  4  1  0
  4  5  1  0
  5  6  2  0
  6  7  1  0
  7  8  1  0
  7  9  2  0
  9 10  1  0
 10 11  2  0
 11 12  1  0
 12 13  2  0
 13 14  1  0
 14 15  2  0
 14 16  1  0
 13 17  1  0
 12 18  1  0
 11 19  1  0
  9 20  1  0
  6 21  1  0
  4 22  1  0
  4 23  1  0
  3 24  1  0
  2 25  1  0
 25 26  2  0
 26 27  1  0
 27 28  2  0
 28 29  1  0
 29 30  2  0
 30 31  1  0
 28 32  1  0
 27 33  1  0
 26 34  1  0
 15  5  1  0
 30 25  1  0
 15 10  1  0
M  END
>  <plip>  (1) 
-0.03571428571428571

>  <filename>  (1) 
[H][c]1[n][c]([H])[c]([C](=[O])[N]([H])[C]([H])([H])[c]2[c]([H])[c]([F])[c]([H])[c]3[c]([H])[c]([H])[c]([H])[c]([H])[c]23)[c]([H])[c]1[H]

$$$$
