
     RDKit          3D

 53 56  0  0  0  0  0  0  0  0999 V2000
    7.5576    1.3469   23.8643 C   0  0  0  0  0  0  0  0  0  0  0  0
    7.4072    1.1609   22.4727 O   0  0  0  0  0  0  0  0  0  0  0  0
    8.2342    0.1997   21.8526 C   0  0  0  0  0  0  0  0  0  0  0  0
    9.2080    0.7833   21.0416 O   0  0  0  0  0  0  0  0  0  0  0  0
   10.1296    1.6447   21.6868 C   0  0  0  0  0  0  0  0  0  0  0  0
   10.8254    1.9719   20.9133 H   0  0  0  0  0  0  0  0  0  0  0  0
    9.6474    2.5284   22.1247 H   0  0  0  0  0  0  0  0  0  0  0  0
   10.7049    1.1267   22.4701 H   0  0  0  0  0  0  0  0  0  0  0  0
    7.3796   -0.7396   20.9505 C   0  0  0  0  0  0  0  0  0  0  0  0
    6.5386   -1.5798   21.7952 N   0  0  0  0  0  0  0  0  0  0  0  0
    5.9364   -2.7276   21.3720 C   0  0  0  0  0  0  0  0  0  0  0  0
    6.0298   -3.1621   20.2369 O   0  0  0  0  0  0  0  0  0  0  0  0
    5.1139   -3.3958   22.4379 C   0  0  2  0  0  0  0  0  0  0  0  0
    5.4897   -3.4622   23.8892 C   0  0  0  0  0  0  0  0  0  0  0  0
    5.5258   -4.7254   23.0690 C   0  0  2  0  0  0  0  0  0  0  0  0
    6.8612   -5.3538   22.6113 C   0  0  0  0  0  0  0  0  0  0  0  0
    6.6685   -6.4928   21.5588 C   0  0  0  0  0  0  0  0  0  0  0  0
    5.2694   -6.4607   20.9057 C   0  0  0  0  0  0  0  0  0  0  0  0
    4.1804   -6.4712   21.9674 C   0  0  0  0  0  0  0  0  0  0  0  0
    2.9982   -7.2162   21.8451 C   0  0  0  0  0  0  0  0  0  0  0  0
    2.0694   -7.2704   22.8805 C   0  0  0  0  0  0  0  0  0  0  0  0
    2.3114   -6.5686   24.0656 C   0  0  0  0  0  0  0  0  0  0  0  0
    3.4663   -5.7937   24.1973 C   0  0  0  0  0  0  0  0  0  0  0  0
    4.3826   -5.7029   23.1324 C   0  0  0  0  0  0  0  0  0  0  0  0
    3.6558   -5.2431   25.1142 H   0  0  0  0  0  0  0  0  0  0  0  0
    1.5860   -6.6057   24.8720 H   0  0  0  0  0  0  0  0  0  0  0  0
    1.1659   -7.8607   22.7502 H   0  0  0  0  0  0  0  0  0  0  0  0
    2.8110   -7.7890   20.9374 H   0  0  0  0  0  0  0  0  0  0  0  0
    5.1789   -5.5538   20.2878 H   0  0  0  0  0  0  0  0  0  0  0  0
    5.1234   -7.3100   20.2332 H   0  0  0  0  0  0  0  0  0  0  0  0
    6.7971   -7.4638   22.0590 H   0  0  0  0  0  0  0  0  0  0  0  0
    7.4366   -6.4617   20.7721 H   0  0  0  0  0  0  0  0  0  0  0  0
    7.3967   -5.7623   23.4801 H   0  0  0  0  0  0  0  0  0  0  0  0
    7.4948   -4.5602   22.1967 H   0  0  0  0  0  0  0  0  0  0  0  0
    6.4483   -3.0244   24.1767 H   0  0  0  0  0  0  0  0  0  0  0  0
    4.7151   -3.3440   24.6475 H   0  0  0  0  0  0  0  0  0  0  0  0
    4.0651   -3.3410   22.1715 H   0  0  0  0  0  0  0  0  0  0  0  0
    6.0747   -1.1565   22.5876 H   0  0  0  0  0  0  0  0  0  0  0  0
    6.6025   -0.0321   19.8436 C   0  0  0  0  0  0  0  0  0  0  0  0
    5.4141    0.6712   20.0782 C   0  0  0  0  0  0  0  0  0  0  0  0
    4.8091    1.3382   19.0094 C   0  0  0  0  0  0  0  0  0  0  0  0
    5.4161    1.2895   17.7495 C   0  0  0  0  0  0  0  0  0  0  0  0
    6.5443    0.6106   17.4987 N   0  0  0  0  0  0  0  0  0  0  0  0
    7.1036   -0.0351   18.5339 C   0  0  0  0  0  0  0  0  0  0  0  0
    8.0208   -0.5811   18.3064 H   0  0  0  0  0  0  0  0  0  0  0  0
    4.9761    1.8104   16.8986 H   0  0  0  0  0  0  0  0  0  0  0  0
    3.8989    1.9111   19.1481 H   0  0  0  0  0  0  0  0  0  0  0  0
    4.9811    0.7242   21.0787 H   0  0  0  0  0  0  0  0  0  0  0  0
    8.0855   -1.4167   20.4664 H   0  0  0  0  0  0  0  0  0  0  0  0
    8.7130   -0.4425   22.6168 H   0  0  0  0  0  0  0  0  0  0  0  0
    6.8751    2.1572   24.1296 H   0  0  0  0  0  0  0  0  0  0  0  0
    7.2736    0.4482   24.4345 H   0  0  0  0  0  0  0  0  0  0  0  0
    8.5807    1.6303   24.1501 H   0  0  0  0  0  0  0  0  0  0  0  0
  1  2  1  0
  2  3  1  0
  3  4  1  0
  4  5  1  0
  5  6  1  0
  5  7  1  0
  5  8  1  0
  3  9  1  0
  9 10  1  0
 10 11  1  0
 11 12  2  0
 11 13  1  0
 13 14  1  0
 15 14  1  1
 15 16  1  0
 16 17  1  0
 17 18  1  0
 18 19  1  0
 19 20  2  0
 20 21  1  0
 21 22  2  0
 22 23  1  0
 23 24  2  0
 23 25  1  0
 22 26  1  0
 21 27  1  0
 20 28  1  0
 18 29  1  0
 18 30  1  0
 17 31  1  0
 17 32  1  0
 16 33  1  0
 16 34  1  0
 14 35  1  0
 14 36  1  0
 13 37  1  1
 10 38  1  0
  9 39  1  0
 39 40  2  0
 40 41  1  0
 41 42  2  0
 42 43  1  0
 43 44  2  0
 44 45  1  0
 42 46  1  0
 41 47  1  0
 40 48  1  0
  9 49  1  0
  3 50  1  0
  1 51  1  0
  1 52  1  0
  1 53  1  0
 15 13  1  0
 24 19  1  0
 44 39  1  0
 24 15  1  0
M  END
>  <plip>  (1) 
-0.23333333333333334

>  <filename>  (1) 
[H][c]1[n][c]([H])[c]([C]([H])([N]([H])[C](=[O])[C@]2([H])[C]([H])([H])[C@@]23[c]2[c]([H])[c]([H])[c]([H])[c]([H])[c]2[C]([H])([H])[C]([H])([H])[C]3([H])[H])[C]([H])([O][C]([H])([H])[H])[O][C]([H])([H])[H])[c]([H])[c]1[H]

$$$$
