
     RDKit          3D

 26 27  0  0  0  0  0  0  0  0999 V2000
   10.0325    4.7251   23.2743 N   0  0  0  0  0  0  0  0  0  0  0  0
    9.7594    3.5344   22.6889 C   0  0  0  0  0  0  0  0  0  0  0  0
    8.4555    3.2117   22.7872 N   0  0  0  0  0  0  0  0  0  0  0  0
    8.0888    2.0144   22.2841 C   0  0  0  0  0  0  0  0  0  0  0  0
    9.0226    1.1208   21.6780 C   0  0  0  0  0  0  0  0  0  0  0  0
    8.7646   -0.1099   21.1828 N   0  0  0  0  0  0  0  0  0  0  0  0
    7.4519   -0.6838   21.0009 C   0  0  0  0  0  0  0  0  0  0  0  0
    6.6574    0.0219   19.9220 C   0  0  0  0  0  0  0  0  0  0  0  0
    5.4314    0.6608   20.1554 C   0  0  0  0  0  0  0  0  0  0  0  0
    4.7950    1.3134   19.0946 C   0  0  0  0  0  0  0  0  0  0  0  0
    5.4017    1.2961   17.8357 C   0  0  0  0  0  0  0  0  0  0  0  0
    6.5667    0.6800   17.5896 N   0  0  0  0  0  0  0  0  0  0  0  0
    7.1736    0.0786   18.6191 C   0  0  0  0  0  0  0  0  0  0  0  0
    8.1174   -0.4098   18.3753 H   0  0  0  0  0  0  0  0  0  0  0  0
    4.9389    1.7939   16.9848 H   0  0  0  0  0  0  0  0  0  0  0  0
    3.8603    1.8479   19.2323 H   0  0  0  0  0  0  0  0  0  0  0  0
    4.9742    0.6494   21.1484 H   0  0  0  0  0  0  0  0  0  0  0  0
    7.5987   -1.7393   20.7578 H   0  0  0  0  0  0  0  0  0  0  0  0
    6.8883   -0.6611   21.9457 H   0  0  0  0  0  0  0  0  0  0  0  0
    9.6390   -0.5038   20.8708 H   0  0  0  0  0  0  0  0  0  0  0  0
   10.3419    1.4394   21.5651 N   0  0  0  0  0  0  0  0  0  0  0  0
   10.6888    2.6190   22.0554 C   0  0  0  0  0  0  0  0  0  0  0  0
   12.3671    3.0697   21.9478 Cl  0  0  0  0  0  0  0  0  0  0  0  0
    7.0411    1.7276   22.3584 H   0  0  0  0  0  0  0  0  0  0  0  0
    9.1772    5.1882   23.5363 H   0  0  0  0  0  0  0  0  0  0  0  0
   10.9230    5.1726   23.1656 H   0  0  0  0  0  0  0  0  0  0  0  0
  1  2  1  0
  2  3  2  0
  3  4  1  0
  4  5  2  0
  5  6  1  0
  6  7  1  0
  7  8  1  0
  8  9  2  0
  9 10  1  0
 10 11  2  0
 11 12  1  0
 12 13  2  0
 13 14  1  0
 11 15  1  0
 10 16  1  0
  9 17  1  0
  7 18  1  0
  7 19  1  0
  6 20  1  0
  5 21  1  0
 21 22  2  0
 22 23  1  0
  4 24  1  0
  1 25  1  0
  1 26  1  0
 22  2  1  0
 13  8  1  0
M  END
>  <plip>  (1) 
-0.034482758620689655

>  <filename>  (1) 
[H][c]1[n][c]([N]([H])[H])[c]([Cl])[n][c]1[N]([H])[C]([H])([H])[c]1[c]([H])[n][c]([H])[c]([H])[c]1[H]

$$$$
