
     RDKit          3D

 35 37  0  0  0  0  0  0  0  0999 V2000
   13.0891    1.2722   22.6637 C   0  0  0  0  0  0  0  0  0  0  0  0
   12.1345    0.8525   23.6795 N   0  0  0  0  0  0  0  0  0  0  0  0
   12.4143    0.7219   25.0307 C   0  0  0  0  0  0  0  0  0  0  0  0
   11.3230    0.2748   25.7131 C   0  0  0  0  0  0  0  0  0  0  0  0
   10.3009    0.0661   24.7238 C   0  0  0  0  0  0  0  0  0  0  0  0
    9.0210   -0.4805   24.6424 C   0  0  0  0  0  0  0  0  0  0  0  0
    8.3570   -0.5800   23.4953 N   0  0  0  0  0  0  0  0  0  0  0  0
    8.9822   -0.0985   22.4135 C   0  0  0  0  0  0  0  0  0  0  0  0
    8.3497   -0.1680   21.2317 N   0  0  0  0  0  0  0  0  0  0  0  0
    6.9308   -0.4710   21.0542 C   0  0  0  0  0  0  0  0  0  0  0  0
    6.7073   -2.0207   21.1045 C   0  0  0  0  0  0  0  0  0  0  0  0
    5.3735   -2.4757   20.9853 O   0  0  0  0  0  0  0  0  0  0  0  0
    4.8918   -2.2647   21.7987 H   0  0  0  0  0  0  0  0  0  0  0  0
    7.1606   -2.3979   22.0314 H   0  0  0  0  0  0  0  0  0  0  0  0
    7.2439   -2.4590   20.2643 H   0  0  0  0  0  0  0  0  0  0  0  0
    6.4506    0.2386   19.8057 C   0  0  0  0  0  0  0  0  0  0  0  0
    5.2317    0.9351   19.7887 C   0  0  0  0  0  0  0  0  0  0  0  0
    4.8182    1.5626   18.6127 C   0  0  0  0  0  0  0  0  0  0  0  0
    5.6442    1.4883   17.4901 C   0  0  0  0  0  0  0  0  0  0  0  0
    6.8131    0.8307   17.4815 N   0  0  0  0  0  0  0  0  0  0  0  0
    7.1991    0.2348   18.6187 C   0  0  0  0  0  0  0  0  0  0  0  0
    8.1589   -0.2843   18.5668 H   0  0  0  0  0  0  0  0  0  0  0  0
    5.3599    1.9829   16.5620 H   0  0  0  0  0  0  0  0  0  0  0  0
    3.8942    2.1268   18.5641 H   0  0  0  0  0  0  0  0  0  0  0  0
    4.6154    0.9907   20.6868 H   0  0  0  0  0  0  0  0  0  0  0  0
    6.3533   -0.0802   21.9057 H   0  0  0  0  0  0  0  0  0  0  0  0
    8.8609    0.4365   20.6145 H   0  0  0  0  0  0  0  0  0  0  0  0
   10.1939    0.4565   22.3107 N   0  0  0  0  0  0  0  0  0  0  0  0
   10.8342    0.4669   23.4718 C   0  0  0  0  0  0  0  0  0  0  0  0
    8.5278   -0.8889   25.5267 H   0  0  0  0  0  0  0  0  0  0  0  0
   11.2081    0.1706   26.7898 H   0  0  0  0  0  0  0  0  0  0  0  0
   13.4087    0.9396   25.3899 H   0  0  0  0  0  0  0  0  0  0  0  0
   12.6397    1.1227   21.6774 H   0  0  0  0  0  0  0  0  0  0  0  0
   14.0090    0.6817   22.7580 H   0  0  0  0  0  0  0  0  0  0  0  0
   13.3447    2.3332   22.7710 H   0  0  0  0  0  0  0  0  0  0  0  0
  1  2  1  0
  2  3  1  0
  3  4  2  0
  4  5  1  0
  5  6  2  0
  6  7  1  0
  7  8  2  0
  8  9  1  0
  9 10  1  0
 10 11  1  0
 11 12  1  0
 12 13  1  0
 11 14  1  0
 11 15  1  0
 10 16  1  0
 16 17  2  0
 17 18  1  0
 18 19  2  0
 19 20  1  0
 20 21  2  0
 21 22  1  0
 19 23  1  0
 18 24  1  0
 17 25  1  0
 10 26  1  0
  9 27  1  0
  8 28  1  0
 28 29  2  0
  6 30  1  0
  4 31  1  0
  3 32  1  0
  1 33  1  0
  1 34  1  0
  1 35  1  0
 29  2  1  0
 29  5  1  0
 21 16  1  0
M  END
>  <plip>  (1) 
-0.16666666666666666

>  <filename>  (1) 
[H][O][C]([H])([H])[C]([H])([c]1[c]([H])[n][c]([H])[c]([H])[c]1[H])[N]([H])[c]1[n][c]([H])[c]2[c]([H])[c]([H])[n]([C]([H])([H])[H])[c]2[n]1

$$$$
