
     RDKit          3D

 23 25  0  0  0  0  0  0  0  0999 V2000
    6.5395    2.7618   25.2163 H   0  0  0  0  0  0  0  0  0  0  0  0
    6.7791    2.3037   24.2670 C   0  0  0  0  0  0  0  0  0  0  0  0
    7.0346    3.0576   23.1608 N   0  0  0  0  0  0  0  0  0  0  0  0
    7.3179    2.1448   22.2621 C   0  0  0  0  0  0  0  0  0  0  0  0
    7.5589    2.2658   21.2166 H   0  0  0  0  0  0  0  0  0  0  0  0
    7.2167    0.9086   22.8095 N   0  0  0  0  0  0  0  0  0  0  0  0
    7.4914   -0.3247   22.2313 N   0  0  0  0  0  0  0  0  0  0  0  0
    8.1372   -1.3753   22.8522 C   0  0  0  0  0  0  0  0  0  0  0  0
    8.3889   -1.4055   23.9043 H   0  0  0  0  0  0  0  0  0  0  0  0
    8.3810   -2.3149   21.9903 N   0  0  0  0  0  0  0  0  0  0  0  0
    7.9014   -1.9035   20.7685 N   0  0  0  0  0  0  0  0  0  0  0  0
    7.3470   -0.7357   20.9222 C   0  0  0  0  0  0  0  0  0  0  0  0
    6.6347    0.0187   19.8939 C   0  0  0  0  0  0  0  0  0  0  0  0
    7.1619    0.0570   18.5939 C   0  0  0  0  0  0  0  0  0  0  0  0
    8.1066   -0.4363   18.3761 H   0  0  0  0  0  0  0  0  0  0  0  0
    6.5676    0.6819   17.5753 N   0  0  0  0  0  0  0  0  0  0  0  0
    5.4045    1.2979   17.8358 C   0  0  0  0  0  0  0  0  0  0  0  0
    4.9289    1.7878   16.9904 H   0  0  0  0  0  0  0  0  0  0  0  0
    4.7969    1.3159   19.0996 C   0  0  0  0  0  0  0  0  0  0  0  0
    3.8654    1.8472   19.2464 H   0  0  0  0  0  0  0  0  0  0  0  0
    5.4206    0.6657   20.1621 C   0  0  0  0  0  0  0  0  0  0  0  0
    5.0085    0.6571   21.1787 H   0  0  0  0  0  0  0  0  0  0  0  0
    6.8808    0.9984   24.1072 N   0  0  0  0  0  0  0  0  0  0  0  0
  1  2  1  0
  2  3  1  0
  3  4  2  0
  4  5  1  0
  4  6  1  0
  6  7  1  0
  7  8  1  0
  8  9  1  0
  8 10  2  0
 10 11  1  0
 11 12  2  0
 12 13  1  0
 13 14  2  0
 14 15  1  0
 14 16  1  0
 16 17  2  0
 17 18  1  0
 17 19  1  0
 19 20  1  0
 19 21  2  0
 21 22  1  0
  6 23  1  0
 23  2  2  0
 12  7  1  0
 21 13  1  0
M  END
>  <plip>  (1) 
-0.0

>  <filename>  (1) 
[H][c]1[n][c]([H])[n](-[n]2[c]([H])[n][n][c]2-[c]2[c]([H])[n][c]([H])[c]([H])[c]2[H])[n]1

$$$$
