
     RDKit          3D

 38 40  0  0  0  0  0  0  0  0999 V2000
    9.0317    1.1643   21.4205 C   0  0  0  0  0  0  0  0  0  0  0  0
    7.9764    0.2305   22.0287 C   0  0  0  0  0  0  0  0  0  0  0  0
    7.3690   -0.7594   21.0188 C   0  0  0  0  0  0  0  0  0  0  0  0
    6.5548   -1.7558   21.7141 N   0  0  0  0  0  0  0  0  0  0  0  0
    6.0247   -2.8220   21.0293 C   0  0  0  0  0  0  0  0  0  0  0  0
    6.1920   -2.9486   19.8276 O   0  0  0  0  0  0  0  0  0  0  0  0
    5.1823   -3.8286   21.8560 C   0  0  0  0  0  0  0  0  0  0  0  0
    4.8970   -5.0507   21.3889 N   0  0  0  0  0  0  0  0  0  0  0  0
    4.0543   -5.5122   22.3169 N   0  0  0  0  0  0  0  0  0  0  0  0
    3.3497   -6.6877   22.2629 C   0  0  0  0  0  0  0  0  0  0  0  0
    2.4246   -6.9346   23.2459 C   0  0  0  0  0  0  0  0  0  0  0  0
    1.5549   -8.1704   23.2137 C   0  0  0  0  0  0  0  0  0  0  0  0
    0.6296   -8.0423   23.7823 H   0  0  0  0  0  0  0  0  0  0  0  0
    2.0625   -9.0521   23.6220 H   0  0  0  0  0  0  0  0  0  0  0  0
    1.2643   -8.4119   22.1848 H   0  0  0  0  0  0  0  0  0  0  0  0
    2.3229   -5.9294   24.2930 C   0  0  0  0  0  0  0  0  0  0  0  0
    2.9963   -4.8074   24.3400 N   0  0  0  0  0  0  0  0  0  0  0  0
    3.8616   -4.5756   23.3217 C   0  0  0  0  0  0  0  0  0  0  0  0
    4.6021   -3.5083   23.0355 N   0  0  0  0  0  0  0  0  0  0  0  0
    1.6253   -6.0919   25.1177 H   0  0  0  0  0  0  0  0  0  0  0  0
    3.5971   -7.3157   21.4132 H   0  0  0  0  0  0  0  0  0  0  0  0
    6.1294   -1.5050   22.5977 H   0  0  0  0  0  0  0  0  0  0  0  0
    6.5934   -0.0561   19.9129 C   0  0  0  0  0  0  0  0  0  0  0  0
    5.3886    0.6264   20.1390 C   0  0  0  0  0  0  0  0  0  0  0  0
    4.7936    1.3063   19.0728 C   0  0  0  0  0  0  0  0  0  0  0  0
    5.4226    1.2919   17.8227 C   0  0  0  0  0  0  0  0  0  0  0  0
    6.5708    0.6446   17.5810 N   0  0  0  0  0  0  0  0  0  0  0  0
    7.1220   -0.0090   18.6151 C   0  0  0  0  0  0  0  0  0  0  0  0
    8.0637   -0.5165   18.3993 H   0  0  0  0  0  0  0  0  0  0  0  0
    4.9879    1.8274   16.9800 H   0  0  0  0  0  0  0  0  0  0  0  0
    3.8730    1.8632   19.1996 H   0  0  0  0  0  0  0  0  0  0  0  0
    4.9297    0.6437   21.1322 H   0  0  0  0  0  0  0  0  0  0  0  0
    8.2005   -1.2980   20.5387 H   0  0  0  0  0  0  0  0  0  0  0  0
    7.1700    0.8381   22.4652 H   0  0  0  0  0  0  0  0  0  0  0  0
    8.4200   -0.3506   22.8468 H   0  0  0  0  0  0  0  0  0  0  0  0
    9.4560    1.8302   22.1793 H   0  0  0  0  0  0  0  0  0  0  0  0
    9.8639    0.6007   20.9811 H   0  0  0  0  0  0  0  0  0  0  0  0
    8.6004    1.7940   20.6325 H   0  0  0  0  0  0  0  0  0  0  0  0
  1  2  1  0
  2  3  1  0
  3  4  1  0
  4  5  1  0
  5  6  2  0
  5  7  1  0
  7  8  2  0
  8  9  1  0
  9 10  1  0
 10 11  2  0
 11 12  1  0
 12 13  1  0
 12 14  1  0
 12 15  1  0
 11 16  1  0
 16 17  2  0
 17 18  1  0
 18 19  2  0
 16 20  1  0
 10 21  1  0
  4 22  1  0
  3 23  1  0
 23 24  2  0
 24 25  1  0
 25 26  2  0
 26 27  1  0
 27 28  2  0
 28 29  1  0
 26 30  1  0
 25 31  1  0
 24 32  1  0
  3 33  1  0
  2 34  1  0
  2 35  1  0
  1 36  1  0
  1 37  1  0
  1 38  1  0
 19  7  1  0
 28 23  1  0
 18  9  1  0
M  END
>  <plip>  (1) 
-0.13793103448275862

>  <filename>  (1) 
[H][c]1[n][c]([H])[c]([C]([H])([N]([H])[C](=[O])[c]2[n][c]3[n][c]([H])[c]([C]([H])([H])[H])[c]([H])[n]3[n]2)[C]([H])([H])[C]([H])([H])[H])[c]([H])[c]1[H]

$$$$
