
     RDKit          3D

 31 32  0  0  0  0  0  0  0  0999 V2000
    5.8036   -2.4793   17.9620 C   0  0  0  0  0  0  0  0  0  0  0  0
    5.7392   -3.3140   18.8286 C   0  0  0  0  0  0  0  0  0  0  0  0
    5.7089   -4.2940   19.8899 C   0  0  0  0  0  0  0  0  0  0  0  0
    5.4676   -5.6323   19.5486 C   0  0  0  0  0  0  0  0  0  0  0  0
    5.3024   -6.5994   20.5344 C   0  0  0  0  0  0  0  0  0  0  0  0
    5.4078   -6.2446   21.8793 C   0  0  0  0  0  0  0  0  0  0  0  0
    5.6593   -4.9178   22.2245 C   0  0  0  0  0  0  0  0  0  0  0  0
    5.8578   -3.9335   21.2478 C   0  0  0  0  0  0  0  0  0  0  0  0
    6.1835   -2.5079   21.6564 C   0  0  0  0  0  0  0  0  0  0  0  0
    7.4645   -2.0871   21.0923 N   0  0  0  0  0  0  0  0  0  0  0  0
    7.9077   -0.5187   21.1747 S   0  0  0  0  0  0  0  0  0  0  0  0
    9.2670   -0.5189   20.6890 O   0  0  0  0  0  0  0  0  0  0  0  0
    7.4899   -0.0240   22.4671 O   0  0  0  0  0  0  0  0  0  0  0  0
    6.9178    0.2049   19.9634 C   0  0  0  0  0  0  0  0  0  0  0  0
    5.6405    0.7038   20.2218 C   0  0  0  0  0  0  0  0  0  0  0  0
    4.9548    1.2403   19.1387 C   0  0  0  0  0  0  0  0  0  0  0  0
    5.5623    1.2337   17.8799 C   0  0  0  0  0  0  0  0  0  0  0  0
    6.7891    0.7360   17.6558 N   0  0  0  0  0  0  0  0  0  0  0  0
    7.4642    0.2413   18.6900 C   0  0  0  0  0  0  0  0  0  0  0  0
    8.4495   -0.1561   18.4666 H   0  0  0  0  0  0  0  0  0  0  0  0
    5.0498    1.6355   17.0105 H   0  0  0  0  0  0  0  0  0  0  0  0
    3.9643    1.6605   19.2540 H   0  0  0  0  0  0  0  0  0  0  0  0
    5.2046    0.7115   21.2238 H   0  0  0  0  0  0  0  0  0  0  0  0
    7.7444   -2.3584   20.1621 H   0  0  0  0  0  0  0  0  0  0  0  0
    5.3616   -1.8310   21.3696 H   0  0  0  0  0  0  0  0  0  0  0  0
    6.2632   -2.4517   22.7485 H   0  0  0  0  0  0  0  0  0  0  0  0
    5.7059   -4.6350   23.2747 H   0  0  0  0  0  0  0  0  0  0  0  0
    5.2939   -6.9983   22.6517 H   0  0  0  0  0  0  0  0  0  0  0  0
    5.0274   -7.6115   20.2510 H   0  0  0  0  0  0  0  0  0  0  0  0
    5.3822   -5.9045   18.5051 H   0  0  0  0  0  0  0  0  0  0  0  0
    5.8972   -1.7027   17.2338 H   0  0  0  0  0  0  0  0  0  0  0  0
  1  2  3  0
  2  3  1  0
  3  4  2  0
  4  5  1  0
  5  6  2  0
  6  7  1  0
  7  8  2  0
  8  9  1  0
  9 10  1  0
 10 11  1  0
 11 12  2  0
 11 13  2  0
 11 14  1  0
 14 15  2  0
 15 16  1  0
 16 17  2  0
 17 18  1  0
 18 19  2  0
 19 20  1  0
 17 21  1  0
 16 22  1  0
 15 23  1  0
 10 24  1  0
  9 25  1  0
  9 26  1  0
  7 27  1  0
  6 28  1  0
  5 29  1  0
  4 30  1  0
  1 31  1  0
  8  3  1  0
 19 14  1  0
M  END
>  <plip>  (1) 
-0.06896551724137931

>  <filename>  (1) 
[H][C]#[C][c]1[c]([H])[c]([H])[c]([H])[c]([H])[c]1[C]([H])([H])[N]([H])[S](=[O])(=[O])[c]1[c]([H])[n][c]([H])[c]([H])[c]1[H]

$$$$
