
     RDKit          3D

 30 32  0  0  0  0  0  0  0  0999 V2000
    4.9268    1.7822   17.0005 H   0  0  0  0  0  0  0  0  0  0  0  0
    5.4054    1.2880   17.8424 C   0  0  0  0  0  0  0  0  0  0  0  0
    6.5672    0.6640   17.5856 N   0  0  0  0  0  0  0  0  0  0  0  0
    7.1892    0.0521   18.5999 C   0  0  0  0  0  0  0  0  0  0  0  0
    8.1297   -0.4389   18.3619 H   0  0  0  0  0  0  0  0  0  0  0  0
    6.6872    0.0167   19.9122 C   0  0  0  0  0  0  0  0  0  0  0  0
    7.2815   -0.6753   20.9364 O   0  0  0  0  0  0  0  0  0  0  0  0
    8.6443   -0.7391   21.0625 C   0  0  0  0  0  0  0  0  0  0  0  0
    9.6736    0.1095   20.6164 C   0  0  0  0  0  0  0  0  0  0  0  0
    9.6046    0.9638   19.9621 H   0  0  0  0  0  0  0  0  0  0  0  0
   10.8519   -0.2814   21.0928 N   0  0  0  0  0  0  0  0  0  0  0  0
   10.5800   -1.3619   21.8234 N   0  0  0  0  0  0  0  0  0  0  0  0
   11.3378   -1.8345   22.2918 H   0  0  0  0  0  0  0  0  0  0  0  0
    9.2594   -1.6900   21.8429 C   0  0  0  0  0  0  0  0  0  0  0  0
    8.6499   -2.7151   22.7438 C   0  0  1  0  0  0  0  0  0  0  0  0
    7.6993   -3.0379   22.2871 H   0  0  0  0  0  0  0  0  0  0  0  0
    9.5158   -3.8278   22.8627 O   0  0  0  0  0  0  0  0  0  0  0  0
    9.5814   -4.3242   24.1920 C   0  0  0  0  0  0  0  0  0  0  0  0
    9.3303   -5.3933   24.1794 H   0  0  0  0  0  0  0  0  0  0  0  0
   10.6199   -4.2342   24.5421 H   0  0  0  0  0  0  0  0  0  0  0  0
    8.5937   -3.4879   25.0206 C   0  0  0  0  0  0  0  0  0  0  0  0
    7.6364   -4.0110   25.1228 H   0  0  0  0  0  0  0  0  0  0  0  0
    8.9801   -3.2962   26.0259 H   0  0  0  0  0  0  0  0  0  0  0  0
    8.4252   -2.2107   24.1874 C   0  0  0  0  0  0  0  0  0  0  0  0
    9.1809   -1.4650   24.4602 H   0  0  0  0  0  0  0  0  0  0  0  0
    7.4493   -1.7260   24.2773 H   0  0  0  0  0  0  0  0  0  0  0  0
    5.4632    0.6445   20.1734 C   0  0  0  0  0  0  0  0  0  0  0  0
    5.0405    0.6079   21.1787 H   0  0  0  0  0  0  0  0  0  0  0  0
    4.8265    1.2984   19.1173 C   0  0  0  0  0  0  0  0  0  0  0  0
    3.8920    1.8255   19.2667 H   0  0  0  0  0  0  0  0  0  0  0  0
  1  2  1  0
  2  3  2  0
  3  4  1  0
  4  5  1  0
  4  6  2  0
  6  7  1  0
  7  8  1  0
  8  9  1  0
  9 10  1  0
  9 11  2  0
 11 12  1  0
 12 13  1  0
 12 14  1  0
 14 15  1  0
 15 16  1  6
 15 17  1  0
 17 18  1  0
 18 19  1  0
 18 20  1  0
 18 21  1  0
 21 22  1  0
 21 23  1  0
 21 24  1  0
 24 25  1  0
 24 26  1  0
  6 27  1  0
 27 28  1  0
 27 29  2  0
 29 30  1  0
 29  2  1  0
 14  8  2  0
 24 15  1  0
M  END
>  <plip>  (1) 
-0.06896551724137931

>  <filename>  (1) 
[H][c]1[n][c]([H])[c]([O][c]2[c]([H])[n][n]([H])[c]2[C@@]2([H])[O][C]([H])([H])[C]([H])([H])[C]2([H])[H])[c]([H])[c]1[H]

$$$$
