
     RDKit          3D

 32 33  0  0  0  0  0  0  0  0999 V2000
    4.8768    1.8263   16.8809 H   0  0  0  0  0  0  0  0  0  0  0  0
    5.3734    1.4085   17.7550 C   0  0  0  0  0  0  0  0  0  0  0  0
    6.5102    0.7364   17.5195 N   0  0  0  0  0  0  0  0  0  0  0  0
    7.1205    0.1844   18.5775 C   0  0  0  0  0  0  0  0  0  0  0  0
    8.0143   -0.3934   18.3417 H   0  0  0  0  0  0  0  0  0  0  0  0
    6.6793    0.2842   19.9070 C   0  0  0  0  0  0  0  0  0  0  0  0
    7.4830   -0.4829   20.9619 C   0  0  0  0  0  0  0  0  0  0  0  0
    7.4270   -1.9068   20.6022 N   0  0  0  0  0  0  0  0  0  0  0  0
    8.0403   -2.4622   21.1768 H   0  0  0  0  0  0  0  0  0  0  0  0
    6.2142   -2.6707   20.6670 C   0  0  2  0  0  0  0  0  0  0  0  0
    5.4603   -2.2366   21.3416 H   0  0  0  0  0  0  0  0  0  0  0  0
    6.6550   -3.9626   21.1542 N   0  0  0  0  0  0  0  0  0  0  0  0
    6.3005   -4.7767   20.2619 C   0  0  0  0  0  0  0  0  0  0  0  0
    6.5660   -6.0910   20.2968 N   0  0  0  0  0  0  0  0  0  0  0  0
    6.7929   -6.2967   21.2546 H   0  0  0  0  0  0  0  0  0  0  0  0
    5.7559   -6.5695   19.9434 H   0  0  0  0  0  0  0  0  0  0  0  0
    5.5487   -4.4075   19.2118 O   0  0  0  0  0  0  0  0  0  0  0  0
    5.5630   -2.9657   19.2706 C   0  0  0  0  0  0  0  0  0  0  0  0
    6.1887   -2.5778   18.4628 H   0  0  0  0  0  0  0  0  0  0  0  0
    4.5399   -2.6187   19.1493 H   0  0  0  0  0  0  0  0  0  0  0  0
    6.9912   -0.2343   22.4032 C   0  0  0  0  0  0  0  0  0  0  0  0
    7.7017   -0.6403   23.1351 H   0  0  0  0  0  0  0  0  0  0  0  0
    6.0311   -0.7190   22.5685 H   0  0  0  0  0  0  0  0  0  0  0  0
    6.8767    0.8375   22.5991 H   0  0  0  0  0  0  0  0  0  0  0  0
    8.9818   -0.1374   20.9136 C   0  0  0  0  0  0  0  0  0  0  0  0
    9.4139   -0.3166   19.9261 H   0  0  0  0  0  0  0  0  0  0  0  0
    9.1715    0.9030   21.1964 H   0  0  0  0  0  0  0  0  0  0  0  0
    9.5167   -0.7871   21.6193 H   0  0  0  0  0  0  0  0  0  0  0  0
    5.4832    0.9860   20.1247 C   0  0  0  0  0  0  0  0  0  0  0  0
    5.0579    1.0797   21.1258 H   0  0  0  0  0  0  0  0  0  0  0  0
    4.8202    1.5540   19.0294 C   0  0  0  0  0  0  0  0  0  0  0  0
    3.8899    2.1017   19.1546 H   0  0  0  0  0  0  0  0  0  0  0  0
  1  2  1  0
  2  3  2  0
  3  4  1  0
  4  5  1  0
  4  6  2  0
  6  7  1  0
  7  8  1  0
  8  9  1  0
  8 10  1  0
 10 11  1  1
 10 12  1  0
 12 13  2  0
 13 14  1  0
 14 15  1  0
 14 16  1  0
 13 17  1  0
 17 18  1  0
 18 19  1  0
 18 20  1  0
  7 21  1  0
 21 22  1  0
 21 23  1  0
 21 24  1  0
  7 25  1  0
 25 26  1  0
 25 27  1  0
 25 28  1  0
  6 29  1  0
 29 30  1  0
 29 31  2  0
 31 32  1  0
 31  2  1  0
 18 10  1  0
M  END
>  <plip>  (1) 
-0.1

>  <filename>  (1) 
[H][c]1[n][c]([H])[c]([C]([N]([H])[C@]2([H])[N]=[C]([N]([H])[H])[O][C]2([H])[H])([C]([H])([H])[H])[C]([H])([H])[H])[c]([H])[c]1[H]

$$$$
