
     RDKit          3D

 32 34  0  0  0  0  0  0  0  0999 V2000
   11.0138    3.3241   23.4402 H   0  0  0  0  0  0  0  0  0  0  0  0
   10.4293    2.6388   23.0975 O   0  0  0  0  0  0  0  0  0  0  0  0
    9.1910    2.9564   23.5385 C   0  0  0  0  0  0  0  0  0  0  0  0
    9.0027    4.0586   24.3706 C   0  0  0  0  0  0  0  0  0  0  0  0
    9.8484    4.6662   24.6738 H   0  0  0  0  0  0  0  0  0  0  0  0
    7.7230    4.3807   24.8225 C   0  0  0  0  0  0  0  0  0  0  0  0
    7.5031    5.7326   25.8826 Cl  0  0  0  0  0  0  0  0  0  0  0  0
    6.6277    3.6214   24.4320 C   0  0  0  0  0  0  0  0  0  0  0  0
    5.6466    3.8868   24.7985 H   0  0  0  0  0  0  0  0  0  0  0  0
    6.8065    2.5145   23.5958 C   0  0  0  0  0  0  0  0  0  0  0  0
    5.9620    1.9054   23.2899 H   0  0  0  0  0  0  0  0  0  0  0  0
    8.0880    2.1431   23.1792 C   0  0  0  0  0  0  0  0  0  0  0  0
    8.4051    1.0088   22.4312 O   0  0  0  0  0  0  0  0  0  0  0  0
    7.3915    0.0739   22.2586 N   0  0  0  0  0  0  0  0  0  0  0  0
    7.0535   -0.7268   23.3477 C   0  0  0  0  0  0  0  0  0  0  0  0
    7.0966   -0.4399   24.5085 O   0  0  0  0  0  0  0  0  0  0  0  0
    6.6179   -1.9152   22.8674 O   0  0  0  0  0  0  0  0  0  0  0  0
    6.6933   -1.9665   21.4421 C   0  0  0  0  0  0  0  0  0  0  0  0
    7.2356   -2.8753   21.1718 H   0  0  0  0  0  0  0  0  0  0  0  0
    5.6725   -2.0261   21.0393 H   0  0  0  0  0  0  0  0  0  0  0  0
    7.4095   -0.6671   20.9966 C   0  0  1  0  0  0  0  0  0  0  0  0
    8.4489   -0.8583   20.6897 H   0  0  0  0  0  0  0  0  0  0  0  0
    6.6817    0.0571   19.8796 C   0  0  0  0  0  0  0  0  0  0  0  0
    7.1750    0.0866   18.5650 C   0  0  0  0  0  0  0  0  0  0  0  0
    8.1184   -0.4031   18.3155 H   0  0  0  0  0  0  0  0  0  0  0  0
    6.5504    0.6851   17.5401 N   0  0  0  0  0  0  0  0  0  0  0  0
    5.3875    1.3021   17.7998 C   0  0  0  0  0  0  0  0  0  0  0  0
    4.9134    1.8098   16.9605 H   0  0  0  0  0  0  0  0  0  0  0  0
    4.7941    1.3161   19.0668 C   0  0  0  0  0  0  0  0  0  0  0  0
    3.8606    1.8425   19.2248 H   0  0  0  0  0  0  0  0  0  0  0  0
    5.4437    0.6693   20.1147 C   0  0  0  0  0  0  0  0  0  0  0  0
    5.0165    0.6406   21.1189 H   0  0  0  0  0  0  0  0  0  0  0  0
  1  2  1  0
  2  3  1  0
  3  4  2  0
  4  5  1  0
  4  6  1  0
  6  7  1  0
  6  8  2  0
  8  9  1  0
  8 10  1  0
 10 11  1  0
 10 12  2  0
 12 13  1  0
 13 14  1  0
 14 15  1  0
 15 16  2  0
 15 17  1  0
 17 18  1  0
 18 19  1  0
 18 20  1  0
 18 21  1  0
 21 22  1  6
 21 23  1  0
 23 24  2  0
 24 25  1  0
 24 26  1  0
 26 27  2  0
 27 28  1  0
 27 29  1  0
 29 30  1  0
 29 31  2  0
 31 32  1  0
 12  3  1  0
 21 14  1  0
 31 23  1  0
M  END
>  <plip>  (1) 
-0.03571428571428571

>  <filename>  (1) 
[H][O][c]1[c]([H])[c]([Cl])[c]([H])[c]([H])[c]1[O][N]1[C](=[O])[O][C]([H])([H])[C@@]1([H])[c]1[c]([H])[n][c]([H])[c]([H])[c]1[H]

$$$$
