
     RDKit          3D

 38 41  0  0  0  0  0  0  0  0999 V2000
    4.8291    2.0168   16.5185 H   0  0  0  0  0  0  0  0  0  0  0  0
    5.2335    1.4391   17.3473 C   0  0  0  0  0  0  0  0  0  0  0  0
    6.3218    0.7055   17.0734 N   0  0  0  0  0  0  0  0  0  0  0  0
    6.9022    0.0591   18.0947 C   0  0  0  0  0  0  0  0  0  0  0  0
    7.7646   -0.5531   17.8257 H   0  0  0  0  0  0  0  0  0  0  0  0
    6.4628    0.1296   19.4312 C   0  0  0  0  0  0  0  0  0  0  0  0
    7.2456   -0.4343   20.6104 C   0  0  0  0  0  0  0  0  0  0  0  0
    7.9475   -1.2182   20.3065 H   0  0  0  0  0  0  0  0  0  0  0  0
    6.5350   -0.9072   21.3036 H   0  0  0  0  0  0  0  0  0  0  0  0
    8.0290    0.5613   21.4327 C   0  0  0  0  0  0  0  0  0  0  0  0
    8.0856    1.8677   21.3458 N   0  0  0  0  0  0  0  0  0  0  0  0
    8.8640    2.2885   22.3766 N   0  0  0  0  0  0  0  0  0  0  0  0
    9.2913    1.2970   23.0693 N   0  0  0  0  0  0  0  0  0  0  0  0
    8.7836    0.1853   22.5096 N   0  0  0  0  0  0  0  0  0  0  0  0
    9.1551   -1.0923   22.8943 N   0  0  0  0  0  0  0  0  0  0  0  0
    8.1830   -1.8054   23.7665 C   0  0  0  0  0  0  0  0  0  0  0  0
    7.7621   -1.1056   24.5070 H   0  0  0  0  0  0  0  0  0  0  0  0
    7.3334   -2.1394   23.1431 H   0  0  0  0  0  0  0  0  0  0  0  0
    8.7854   -3.0158   24.4920 C   0  0  0  0  0  0  0  0  0  0  0  0
    8.0650   -3.6572   25.5143 C   0  0  0  0  0  0  0  0  0  0  0  0
    7.0589   -3.3189   25.7625 H   0  0  0  0  0  0  0  0  0  0  0  0
    8.6476   -4.6821   26.2705 C   0  0  0  0  0  0  0  0  0  0  0  0
    8.0701   -5.1778   27.0513 H   0  0  0  0  0  0  0  0  0  0  0  0
    9.9717   -5.0566   26.0298 C   0  0  0  0  0  0  0  0  0  0  0  0
   10.4486   -5.8062   26.6590 H   0  0  0  0  0  0  0  0  0  0  0  0
   10.6915   -4.4379   25.0016 C   0  0  0  0  0  0  0  0  0  0  0  0
   11.7387   -4.6932   24.8467 H   0  0  0  0  0  0  0  0  0  0  0  0
   10.0971   -3.4546   24.2010 C   0  0  0  0  0  0  0  0  0  0  0  0
   10.8512   -2.7508   23.0879 C   0  0  0  0  0  0  0  0  0  0  0  0
   11.9083   -3.0187   23.0728 H   0  0  0  0  0  0  0  0  0  0  0  0
   10.4483   -3.0374   22.1102 H   0  0  0  0  0  0  0  0  0  0  0  0
   10.5887   -1.2523   23.2361 C   0  0  0  0  0  0  0  0  0  0  0  0
   11.2028   -0.6268   22.5793 H   0  0  0  0  0  0  0  0  0  0  0  0
   10.7825   -0.9212   24.2708 H   0  0  0  0  0  0  0  0  0  0  0  0
    5.2573    0.8081   19.6616 C   0  0  0  0  0  0  0  0  0  0  0  0
    4.8175    0.8176   20.6616 H   0  0  0  0  0  0  0  0  0  0  0  0
    4.6324    1.4854   18.6088 C   0  0  0  0  0  0  0  0  0  0  0  0
    3.7212    2.0578   18.7559 H   0  0  0  0  0  0  0  0  0  0  0  0
  1  2  1  0
  2  3  2  0
  3  4  1  0
  4  5  1  0
  4  6  2  0
  6  7  1  0
  7  8  1  0
  7  9  1  0
  7 10  1  0
 10 11  2  0
 11 12  1  0
 12 13  2  0
 13 14  1  0
 14 15  1  0
 15 16  1  0
 16 17  1  0
 16 18  1  0
 16 19  1  0
 19 20  2  0
 20 21  1  0
 20 22  1  0
 22 23  1  0
 22 24  2  0
 24 25  1  0
 24 26  1  0
 26 27  1  0
 26 28  2  0
 28 29  1  0
 29 30  1  0
 29 31  1  0
 29 32  1  0
 32 33  1  0
 32 34  1  0
  6 35  1  0
 35 36  1  0
 35 37  2  0
 37 38  1  0
 37  2  1  0
 14 10  1  0
 32 15  1  0
 28 19  1  0
M  END
>  <plip>  (1) 
-0.10714285714285714

>  <filename>  (1) 
[H][c]1[n][c]([H])[c]([C]([H])([H])[c]2[n][n][n][n]2[N]2[C]([H])([H])[c]3[c]([H])[c]([H])[c]([H])[c]([H])[c]3[C]([H])([H])[C]2([H])[H])[c]([H])[c]1[H]

$$$$
