
     RDKit          3D

 25 27  0  0  0  0  0  0  0  0999 V2000
    4.9243    1.7836   16.9972 H   0  0  0  0  0  0  0  0  0  0  0  0
    5.4053    1.2938   17.8399 C   0  0  0  0  0  0  0  0  0  0  0  0
    6.5697    0.6820   17.5783 N   0  0  0  0  0  0  0  0  0  0  0  0
    7.1702    0.0501   18.5896 C   0  0  0  0  0  0  0  0  0  0  0  0
    8.1172   -0.4336   18.3621 H   0  0  0  0  0  0  0  0  0  0  0  0
    6.6457   -0.0032   19.8882 C   0  0  0  0  0  0  0  0  0  0  0  0
    7.3661   -0.7214   20.9432 C   0  0  0  0  0  0  0  0  0  0  0  0
    7.9214   -1.8881   20.7270 N   0  0  0  0  0  0  0  0  0  0  0  0
    8.4040   -2.3229   21.9314 O   0  0  0  0  0  0  0  0  0  0  0  0
    8.1538   -1.4060   22.8717 C   0  0  0  0  0  0  0  0  0  0  0  0
    8.5081   -1.6397   23.8640 H   0  0  0  0  0  0  0  0  0  0  0  0
    7.5216   -0.3404   22.3209 C   0  0  0  0  0  0  0  0  0  0  0  0
    7.1579    0.8588   22.9470 N   0  0  0  0  0  0  0  0  0  0  0  0
    6.8317    0.9827   24.2807 C   0  0  0  0  0  0  0  0  0  0  0  0
    6.7734    0.0984   24.9062 H   0  0  0  0  0  0  0  0  0  0  0  0
    6.6298    2.3087   24.5552 C   0  0  0  0  0  0  0  0  0  0  0  0
    6.3700    2.7206   25.5239 H   0  0  0  0  0  0  0  0  0  0  0  0
    6.8523    3.0350   23.3447 C   0  0  0  0  0  0  0  0  0  0  0  0
    6.7915    4.1096   23.2099 H   0  0  0  0  0  0  0  0  0  0  0  0
    7.1839    2.1177   22.3825 C   0  0  0  0  0  0  0  0  0  0  0  0
    7.4435    2.2268   21.3374 H   0  0  0  0  0  0  0  0  0  0  0  0
    5.4299    0.6451   20.1535 C   0  0  0  0  0  0  0  0  0  0  0  0
    5.0124    0.6478   21.1650 H   0  0  0  0  0  0  0  0  0  0  0  0
    4.8017    1.3075   19.1027 C   0  0  0  0  0  0  0  0  0  0  0  0
    3.8739    1.8424   19.2552 H   0  0  0  0  0  0  0  0  0  0  0  0
  1  2  1  0
  2  3  2  0
  3  4  1  0
  4  5  1  0
  4  6  2  0
  6  7  1  0
  7  8  2  0
  8  9  1  0
  9 10  1  0
 10 11  1  0
 10 12  2  0
 12 13  1  0
 13 14  1  0
 14 15  1  0
 14 16  2  0
 16 17  1  0
 16 18  1  0
 18 19  1  0
 18 20  2  0
 20 21  1  0
  6 22  1  0
 22 23  1  0
 22 24  2  0
 24 25  1  0
 24  2  1  0
 12  7  1  0
 20 13  1  0
M  END
>  <plip>  (1) 
-0.0

>  <filename>  (1) 
[H][c]1[n][c]([H])[c](-[c]2[n][o][c]([H])[c]2-[n]2[c]([H])[c]([H])[c]([H])[c]2[H])[c]([H])[c]1[H]

$$$$
