
     RDKit          3D

 28 30  0  0  0  0  0  0  0  0999 V2000
    5.4392    1.8125   16.9460 H   0  0  0  0  0  0  0  0  0  0  0  0
    5.7024    1.2377   17.8291 C   0  0  0  0  0  0  0  0  0  0  0  0
    6.7906    0.4584   17.7252 N   0  0  0  0  0  0  0  0  0  0  0  0
    7.1405   -0.2643   18.8029 C   0  0  0  0  0  0  0  0  0  0  0  0
    8.0100   -0.9110   18.6870 H   0  0  0  0  0  0  0  0  0  0  0  0
    6.4396   -0.2464   20.0391 C   0  0  0  0  0  0  0  0  0  0  0  0
    6.7991   -0.9954   21.1839 N   0  0  0  0  0  0  0  0  0  0  0  0
    6.2828   -0.7414   22.0180 H   0  0  0  0  0  0  0  0  0  0  0  0
    8.3622   -1.5752   21.5576 S   0  0  0  0  0  0  0  0  0  0  0  0
    9.3148   -0.1117   21.9195 C   0  0  0  0  0  0  0  0  0  0  0  0
    9.8728    0.7314   20.9928 C   0  0  0  0  0  0  0  0  0  0  0  0
    9.7045    0.6580   19.9343 H   0  0  0  0  0  0  0  0  0  0  0  0
   10.6607    1.7043   21.6864 C   0  0  0  0  0  0  0  0  0  0  0  0
   11.4925    2.7662   21.2827 C   0  0  0  0  0  0  0  0  0  0  0  0
   11.6586    2.9341   20.2241 H   0  0  0  0  0  0  0  0  0  0  0  0
   12.1037    3.5608   22.2447 C   0  0  0  0  0  0  0  0  0  0  0  0
   12.7394    4.3881   21.9281 H   0  0  0  0  0  0  0  0  0  0  0  0
   11.9123    3.2931   23.6238 C   0  0  0  0  0  0  0  0  0  0  0  0
   12.4075    3.9299   24.3518 H   0  0  0  0  0  0  0  0  0  0  0  0
   11.1047    2.2398   24.0501 C   0  0  0  0  0  0  0  0  0  0  0  0
   10.9174    2.0685   25.1069 H   0  0  0  0  0  0  0  0  0  0  0  0
   10.5124    1.4293   23.0654 C   0  0  0  0  0  0  0  0  0  0  0  0
    9.7057    0.3154   23.1825 N   0  0  0  0  0  0  0  0  0  0  0  0
    9.5267   -0.1636   24.0476 H   0  0  0  0  0  0  0  0  0  0  0  0
    5.2866    0.5550   20.1030 C   0  0  0  0  0  0  0  0  0  0  0  0
    4.7091    0.5937   21.0282 H   0  0  0  0  0  0  0  0  0  0  0  0
    4.9190    1.3125   18.9873 C   0  0  0  0  0  0  0  0  0  0  0  0
    4.0485    1.9629   19.0068 H   0  0  0  0  0  0  0  0  0  0  0  0
  1  2  1  0
  2  3  2  0
  3  4  1  0
  4  5  1  0
  4  6  2  0
  6  7  1  0
  7  8  1  0
  7  9  1  0
  9 10  1  0
 10 11  2  0
 11 12  1  0
 11 13  1  0
 13 14  2  0
 14 15  1  0
 14 16  1  0
 16 17  1  0
 16 18  2  0
 18 19  1  0
 18 20  1  0
 20 21  1  0
 20 22  2  0
 22 23  1  0
 23 24  1  0
  6 25  1  0
 25 26  1  0
 25 27  2  0
 27 28  1  0
 27  2  1  0
 23 10  1  0
 22 13  1  0
M  END
>  <plip>  (1) 
-0.14285714285714285

>  <filename>  (1) 
[H][c]1[n][c]([H])[c]([N]([H])[S][c]2[c]([H])[c]3[c]([H])[c]([H])[c]([H])[c]([H])[c]3[n]2[H])[c]([H])[c]1[H]

$$$$
