
     RDKit          3D

 29 30  0  0  0  0  0  0  0  0999 V2000
    4.9358    1.8188   16.9811 H   0  0  0  0  0  0  0  0  0  0  0  0
    5.4026    1.3025   17.8173 C   0  0  0  0  0  0  0  0  0  0  0  0
    6.5632    0.6828   17.5603 N   0  0  0  0  0  0  0  0  0  0  0  0
    7.1756    0.0617   18.5842 C   0  0  0  0  0  0  0  0  0  0  0  0
    8.1143   -0.4211   18.3331 H   0  0  0  0  0  0  0  0  0  0  0  0
    6.6757    0.0129   19.9214 C   0  0  0  0  0  0  0  0  0  0  0  0
    7.2652   -0.6152   21.0206 N   0  0  0  0  0  0  0  0  0  0  0  0
    6.6122   -0.7767   21.7751 H   0  0  0  0  0  0  0  0  0  0  0  0
    8.6907   -0.6512   21.3672 C   0  0  1  0  0  0  0  0  0  0  0  0
    8.7612   -0.8722   22.4429 H   0  0  0  0  0  0  0  0  0  0  0  0
    9.3625   -1.7785   20.5974 C   0  0  0  0  0  0  0  0  0  0  0  0
   10.4313   -1.7955   20.8170 H   0  0  0  0  0  0  0  0  0  0  0  0
    9.2097   -1.6318   19.5252 H   0  0  0  0  0  0  0  0  0  0  0  0
    8.9439   -2.7465   20.8817 H   0  0  0  0  0  0  0  0  0  0  0  0
    9.4270    0.7087   21.1168 C   0  0  2  0  0  0  0  0  0  0  0  0
    9.3589    0.8900   20.0379 H   0  0  0  0  0  0  0  0  0  0  0  0
   10.8376    0.7480   21.5374 N   0  0  0  0  0  0  0  0  0  0  0  0
   10.9106    1.6766   22.3968 C   0  0  0  0  0  0  0  0  0  0  0  0
   11.9910    1.9525   23.1730 N   0  0  0  0  0  0  0  0  0  0  0  0
   12.8112    1.6437   22.6809 H   0  0  0  0  0  0  0  0  0  0  0  0
   11.9653    2.9135   23.4519 H   0  0  0  0  0  0  0  0  0  0  0  0
    9.8452    2.4635   22.6407 O   0  0  0  0  0  0  0  0  0  0  0  0
    8.7659    1.9044   21.8566 C   0  0  0  0  0  0  0  0  0  0  0  0
    7.9545    1.6221   22.5410 H   0  0  0  0  0  0  0  0  0  0  0  0
    8.3658    2.6688   21.1777 H   0  0  0  0  0  0  0  0  0  0  0  0
    5.4305    0.6320   20.1361 C   0  0  0  0  0  0  0  0  0  0  0  0
    4.9983    0.6024   21.1393 H   0  0  0  0  0  0  0  0  0  0  0  0
    4.8001    1.2963   19.0812 C   0  0  0  0  0  0  0  0  0  0  0  0
    3.8583    1.8115   19.2352 H   0  0  0  0  0  0  0  0  0  0  0  0
  1  2  1  0
  2  3  2  0
  3  4  1  0
  4  5  1  0
  4  6  2  0
  6  7  1  0
  7  8  1  0
  7  9  1  0
  9 10  1  1
  9 11  1  0
 11 12  1  0
 11 13  1  0
 11 14  1  0
  9 15  1  0
 15 16  1  6
 15 17  1  0
 17 18  2  0
 18 19  1  0
 19 20  1  0
 19 21  1  0
 18 22  1  0
 22 23  1  0
 23 24  1  0
 23 25  1  0
  6 26  1  0
 26 27  1  0
 26 28  2  0
 28 29  1  0
 28  2  1  0
 23 15  1  0
M  END
>  <plip>  (1) 
-0.07142857142857142

>  <filename>  (1) 
[H][c]1[n][c]([H])[c]([N]([H])[C@@]([H])([C]([H])([H])[H])[C@]2([H])[N]=[C]([N]([H])[H])[O][C]2([H])[H])[c]([H])[c]1[H]

$$$$
