
     RDKit          3D

 26 28  0  0  0  0  0  0  0  0999 V2000
    9.9538   -2.5148   21.6584 O   0  0  0  0  0  0  0  0  0  0  0  0
    8.9357   -1.8887   21.7091 C   0  0  0  0  0  0  0  0  0  0  0  0
    8.4108   -1.2653   20.5924 O   0  0  0  0  0  0  0  0  0  0  0  0
    7.2857   -0.6101   20.9708 C   0  0  0  0  0  0  0  0  0  0  0  0
    6.9934   -0.6946   22.2217 N   0  0  0  0  0  0  0  0  0  0  0  0
    7.9733   -1.5117   22.7847 C   0  0  0  0  0  0  0  0  0  0  0  0
    7.9726   -1.8376   24.1153 C   0  0  0  0  0  0  0  0  0  0  0  0
    8.6904   -2.8744   24.7928 C   0  0  0  0  0  0  0  0  0  0  0  0
    9.3915   -3.9876   24.4031 C   0  0  0  0  0  0  0  0  0  0  0  0
    9.8575   -4.6082   25.5997 C   0  0  0  0  0  0  0  0  0  0  0  0
    9.4056   -3.8465   26.6259 C   0  0  0  0  0  0  0  0  0  0  0  0
    8.6799   -2.8047   26.1622 O   0  0  0  0  0  0  0  0  0  0  0  0
    9.5113   -3.9146   27.7016 H   0  0  0  0  0  0  0  0  0  0  0  0
   10.4578   -5.5033   25.6697 H   0  0  0  0  0  0  0  0  0  0  0  0
    9.5553   -4.3041   23.3822 H   0  0  0  0  0  0  0  0  0  0  0  0
    7.3054   -1.2476   24.7370 H   0  0  0  0  0  0  0  0  0  0  0  0
    6.5751    0.0771   19.8940 C   0  0  0  0  0  0  0  0  0  0  0  0
    5.3490    0.7472   20.0678 C   0  0  0  0  0  0  0  0  0  0  0  0
    4.7880    1.3806   18.9590 C   0  0  0  0  0  0  0  0  0  0  0  0
    5.4513    1.3173   17.7318 C   0  0  0  0  0  0  0  0  0  0  0  0
    6.6012    0.6553   17.5511 N   0  0  0  0  0  0  0  0  0  0  0  0
    7.1437    0.0490   18.6080 C   0  0  0  0  0  0  0  0  0  0  0  0
    8.0729   -0.4867   18.4092 H   0  0  0  0  0  0  0  0  0  0  0  0
    5.0402    1.8040   16.8498 H   0  0  0  0  0  0  0  0  0  0  0  0
    3.8508    1.9206   19.0117 H   0  0  0  0  0  0  0  0  0  0  0  0
    4.8394    0.7761   21.0334 H   0  0  0  0  0  0  0  0  0  0  0  0
  1  2  2  0
  2  3  1  0
  3  4  1  0
  4  5  2  0
  5  6  1  0
  6  7  2  3
  7  8  1  0
  8  9  2  0
  9 10  1  0
 10 11  2  0
 11 12  1  0
 11 13  1  0
 10 14  1  0
  9 15  1  0
  7 16  1  0
  4 17  1  0
 17 18  2  0
 18 19  1  0
 19 20  2  0
 20 21  1  0
 21 22  2  0
 22 23  1  0
 20 24  1  0
 19 25  1  0
 18 26  1  0
  6  2  1  0
 12  8  1  0
 22 17  1  0
M  END
>  <plip>  (1) 
-0.03571428571428571

>  <filename>  (1) 
[H][C](=[C]1[N]=[C]([c]2[c]([H])[n][c]([H])[c]([H])[c]2[H])[O][C]1=[O])[c]1[o][c]([H])[c]([H])[c]1[H]

$$$$
