
     RDKit          3D

 31 32  0  0  0  0  0  0  0  0999 V2000
   10.3850   -2.2616   22.1006 C   0  0  0  0  0  0  0  0  0  0  0  0
    9.0169   -1.6498   22.0542 C   0  0  0  0  0  0  0  0  0  0  0  0
    8.1511   -1.5918   23.1267 C   0  0  0  0  0  0  0  0  0  0  0  0
    8.2861   -2.1574   24.4654 C   0  0  0  0  0  0  0  0  0  0  0  0
    8.9537   -3.2840   24.7581 C   0  0  0  0  0  0  0  0  0  0  0  0
    9.1243   -3.7956   26.1647 C   0  0  0  0  0  0  0  0  0  0  0  0
    7.7879   -4.2251   26.7887 C   0  0  0  0  0  0  0  0  0  0  0  0
    7.9593   -4.6977   28.1070 O   0  0  0  0  0  0  0  0  0  0  0  0
    8.4171   -4.0100   28.6061 H   0  0  0  0  0  0  0  0  0  0  0  0
    7.3547   -5.0556   26.2152 H   0  0  0  0  0  0  0  0  0  0  0  0
    7.0613   -3.3953   26.7515 H   0  0  0  0  0  0  0  0  0  0  0  0
    9.5688   -3.0098   26.8021 H   0  0  0  0  0  0  0  0  0  0  0  0
    9.8092   -4.6522   26.1702 H   0  0  0  0  0  0  0  0  0  0  0  0
    9.3208   -3.9058   23.9451 H   0  0  0  0  0  0  0  0  0  0  0  0
    7.8019   -1.6064   25.2729 H   0  0  0  0  0  0  0  0  0  0  0  0
    6.7442   -0.6885   22.6612 S   0  0  0  0  0  0  0  0  0  0  0  0
    7.3817   -0.5345   21.0504 C   0  0  0  0  0  0  0  0  0  0  0  0
    6.6139    0.0914   19.9572 C   0  0  0  0  0  0  0  0  0  0  0  0
    5.3639    0.7171   20.1246 C   0  0  0  0  0  0  0  0  0  0  0  0
    4.7790    1.3299   19.0161 C   0  0  0  0  0  0  0  0  0  0  0  0
    5.4352    1.2797   17.7802 C   0  0  0  0  0  0  0  0  0  0  0  0
    6.5913    0.6282   17.5915 N   0  0  0  0  0  0  0  0  0  0  0  0
    7.1555    0.0516   18.6576 C   0  0  0  0  0  0  0  0  0  0  0  0
    8.0818   -0.4835   18.4716 H   0  0  0  0  0  0  0  0  0  0  0  0
    5.0205    1.7928   16.9133 H   0  0  0  0  0  0  0  0  0  0  0  0
    3.8439    1.8699   19.0989 H   0  0  0  0  0  0  0  0  0  0  0  0
    4.8516    0.7275   21.0892 H   0  0  0  0  0  0  0  0  0  0  0  0
    8.5747   -1.0460   20.9042 N   0  0  0  0  0  0  0  0  0  0  0  0
   10.8571   -2.2333   21.1220 H   0  0  0  0  0  0  0  0  0  0  0  0
   10.3449   -3.2987   22.4332 H   0  0  0  0  0  0  0  0  0  0  0  0
   11.0304   -1.7456   22.8154 H   0  0  0  0  0  0  0  0  0  0  0  0
  1  2  1  0
  2  3  2  0
  3  4  1  0
  4  5  2  3
  5  6  1  0
  6  7  1  0
  7  8  1  0
  8  9  1  0
  7 10  1  0
  7 11  1  0
  6 12  1  0
  6 13  1  0
  5 14  1  0
  4 15  1  0
  3 16  1  0
 16 17  1  0
 17 18  1  0
 18 19  2  0
 19 20  1  0
 20 21  2  0
 21 22  1  0
 22 23  2  0
 23 24  1  0
 21 25  1  0
 20 26  1  0
 19 27  1  0
 17 28  2  0
  1 29  1  0
  1 30  1  0
  1 31  1  0
 28  2  1  0
 23 18  1  0
M  END
>  <plip>  (1) 
-0.034482758620689655

>  <filename>  (1) 
[H][O][C]([H])([H])[C]([H])([H])[C]([H])=[C]([H])[c]1[s][c](-[c]2[c]([H])[n][c]([H])[c]([H])[c]2[H])[n][c]1[C]([H])([H])[H]

$$$$
