
     RDKit          3D

 31 33  0  0  0  0  0  0  0  0999 V2000
    5.2173   -1.0539   26.8991 C   0  0  0  0  0  0  0  0  0  0  0  0
    6.4437   -1.5789   26.1937 C   0  0  0  0  0  0  0  0  0  0  0  0
    7.3846   -2.3242   26.9067 C   0  0  0  0  0  0  0  0  0  0  0  0
    8.5234   -2.8280   26.3121 C   0  0  0  0  0  0  0  0  0  0  0  0
    8.7282   -2.5774   24.9523 C   0  0  0  0  0  0  0  0  0  0  0  0
    9.9711   -3.1305   24.3110 C   0  0  0  0  0  0  0  0  0  0  0  0
   10.5681   -2.3247   23.8830 H   0  0  0  0  0  0  0  0  0  0  0  0
   10.5784   -3.6837   25.0364 H   0  0  0  0  0  0  0  0  0  0  0  0
    9.7115   -3.7913   23.4832 H   0  0  0  0  0  0  0  0  0  0  0  0
    7.7246   -1.8082   24.2883 C   0  0  0  0  0  0  0  0  0  0  0  0
    7.8672   -1.4987   22.8441 C   0  0  0  0  0  0  0  0  0  0  0  0
    8.8276   -1.8461   22.0415 N   0  0  0  0  0  0  0  0  0  0  0  0
    8.5286   -1.3322   20.8063 N   0  0  0  0  0  0  0  0  0  0  0  0
    7.4025   -0.7029   20.9272 C   0  0  0  0  0  0  0  0  0  0  0  0
    6.6498    0.0147   19.9038 C   0  0  0  0  0  0  0  0  0  0  0  0
    5.4279    0.6572   20.1670 C   0  0  0  0  0  0  0  0  0  0  0  0
    4.8025    1.3111   19.1090 C   0  0  0  0  0  0  0  0  0  0  0  0
    5.4042    1.2894   17.8441 C   0  0  0  0  0  0  0  0  0  0  0  0
    6.5678    0.6737   17.5843 N   0  0  0  0  0  0  0  0  0  0  0  0
    7.1742    0.0596   18.6030 C   0  0  0  0  0  0  0  0  0  0  0  0
    8.1212   -0.4298   18.3853 H   0  0  0  0  0  0  0  0  0  0  0  0
    4.9232    1.7768   17.0000 H   0  0  0  0  0  0  0  0  0  0  0  0
    3.8709    1.8455   19.2564 H   0  0  0  0  0  0  0  0  0  0  0  0
    4.9919    0.6408   21.1695 H   0  0  0  0  0  0  0  0  0  0  0  0
    6.9265   -0.7691   22.1888 O   0  0  0  0  0  0  0  0  0  0  0  0
    6.6174   -1.3276   24.9033 N   0  0  0  0  0  0  0  0  0  0  0  0
    9.2458   -3.4116   26.8978 H   0  0  0  0  0  0  0  0  0  0  0  0
    7.1723   -2.4794   27.9225 H   0  0  0  0  0  0  0  0  0  0  0  0
    4.6290   -1.8690   27.3370 H   0  0  0  0  0  0  0  0  0  0  0  0
    4.5879   -0.5033   26.2021 H   0  0  0  0  0  0  0  0  0  0  0  0
    5.4890   -0.3906   27.7288 H   0  0  0  0  0  0  0  0  0  0  0  0
  1  2  1  0
  2  3  2  0
  3  4  1  0
  4  5  2  0
  5  6  1  0
  6  7  1  0
  6  8  1  0
  6  9  1  0
  5 10  1  0
 10 11  1  0
 11 12  2  0
 12 13  1  0
 13 14  2  0
 14 15  1  0
 15 16  2  0
 16 17  1  0
 17 18  2  0
 18 19  1  0
 19 20  2  0
 20 21  1  0
 18 22  1  0
 17 23  1  0
 16 24  1  0
 14 25  1  0
 10 26  2  0
  4 27  1  0
  3 28  1  0
  1 29  1  0
  1 30  1  0
  1 31  1  0
 26  2  1  0
 25 11  1  0
 20 15  1  0
M  END
>  <plip>  (1) 
-0.03571428571428571

>  <filename>  (1) 
[H][c]1[n][c]([H])[c](-[c]2[n][n][c](-[c]3[n][c]([C]([H])([H])[H])[c]([H])[c]([H])[c]3[C]([H])([H])[H])[o]2)[c]([H])[c]1[H]

$$$$
