
     RDKit          3D

 32 34  0  0  0  0  0  0  0  0999 V2000
    4.9286    1.8197   16.9505 H   0  0  0  0  0  0  0  0  0  0  0  0
    5.3907    1.3213   17.7976 C   0  0  0  0  0  0  0  0  0  0  0  0
    6.5537    0.6940   17.5546 N   0  0  0  0  0  0  0  0  0  0  0  0
    7.1380    0.0682   18.5860 C   0  0  0  0  0  0  0  0  0  0  0  0
    8.0877   -0.4181   18.3586 H   0  0  0  0  0  0  0  0  0  0  0  0
    6.6147    0.0353   19.8982 C   0  0  0  0  0  0  0  0  0  0  0  0
    7.2869   -0.7437   20.9693 C   0  0  0  0  0  0  0  0  0  0  0  0
    7.5924   -2.0867   21.0004 C   0  0  0  0  0  0  0  0  0  0  0  0
    7.2673   -2.8066   20.2699 H   0  0  0  0  0  0  0  0  0  0  0  0
    8.3266   -2.2721   22.1873 C   0  0  0  0  0  0  0  0  0  0  0  0
    8.7913   -3.1708   22.5771 H   0  0  0  0  0  0  0  0  0  0  0  0
    8.4369   -1.1405   22.8648 N   0  0  0  0  0  0  0  0  0  0  0  0
    7.7829   -0.2108   22.1328 N   0  0  0  0  0  0  0  0  0  0  0  0
    7.5593    1.1363   22.6974 C   0  0  0  0  0  0  0  0  0  0  0  0
    7.1974    1.7256   21.8516 H   0  0  0  0  0  0  0  0  0  0  0  0
    6.4846    1.1684   23.8161 C   0  0  0  0  0  0  0  0  0  0  0  0
    5.6135    0.5598   23.5470 H   0  0  0  0  0  0  0  0  0  0  0  0
    6.1356    2.2049   23.9052 H   0  0  0  0  0  0  0  0  0  0  0  0
    7.0340    0.7387   25.1813 C   0  0  0  0  0  0  0  0  0  0  0  0
    6.3001    0.9185   25.9732 H   0  0  0  0  0  0  0  0  0  0  0  0
    7.2703   -0.3372   25.1800 H   0  0  0  0  0  0  0  0  0  0  0  0
    8.1763    1.5074   25.5343 O   0  0  0  0  0  0  0  0  0  0  0  0
    9.2532    1.3302   24.6237 C   0  0  0  0  0  0  0  0  0  0  0  0
   10.0779    1.9354   25.0129 H   0  0  0  0  0  0  0  0  0  0  0  0
    9.5783    0.2802   24.6092 H   0  0  0  0  0  0  0  0  0  0  0  0
    8.8702    1.7794   23.2061 C   0  0  0  0  0  0  0  0  0  0  0  0
    8.7279    2.8672   23.2154 H   0  0  0  0  0  0  0  0  0  0  0  0
    9.6797    1.5614   22.5033 H   0  0  0  0  0  0  0  0  0  0  0  0
    5.4014    0.7064   20.1196 C   0  0  0  0  0  0  0  0  0  0  0  0
    4.9498    0.7000   21.1138 H   0  0  0  0  0  0  0  0  0  0  0  0
    4.7754    1.3498   19.0525 C   0  0  0  0  0  0  0  0  0  0  0  0
    3.8322    1.8681   19.1830 H   0  0  0  0  0  0  0  0  0  0  0  0
  1  2  1  0
  2  3  2  0
  3  4  1  0
  4  5  1  0
  4  6  2  0
  6  7  1  0
  7  8  2  0
  8  9  1  0
  8 10  1  0
 10 11  1  0
 10 12  2  0
 12 13  1  0
 13 14  1  0
 14 15  1  0
 14 16  1  0
 16 17  1  0
 16 18  1  0
 16 19  1  0
 19 20  1  0
 19 21  1  0
 19 22  1  0
 22 23  1  0
 23 24  1  0
 23 25  1  0
 23 26  1  0
 26 27  1  0
 26 28  1  0
  6 29  1  0
 29 30  1  0
 29 31  2  0
 31 32  1  0
 31  2  1  0
 13  7  1  0
 26 14  1  0
M  END
>  <plip>  (1) 
-0.03571428571428571

>  <filename>  (1) 
[H][c]1[n][c]([H])[c](-[c]2[c]([H])[c]([H])[n][n]2[C]2([H])[C]([H])([H])[C]([H])([H])[O][C]([H])([H])[C]2([H])[H])[c]([H])[c]1[H]

$$$$
