
     RDKit          3D

 32 34  0  0  0  0  0  0  0  0999 V2000
    8.4421    0.4716   22.0363 C   0  0  0  0  0  0  0  0  0  0  0  0
    7.5967   -0.8277   21.1515 S   0  0  0  0  0  0  0  0  0  0  0  0
    8.5617   -1.7440   20.5386 O   0  0  0  0  0  0  0  0  0  0  0  0
    6.6608   -1.6362   22.3141 N   0  0  0  0  0  0  0  0  0  0  0  0
    5.8689   -2.6386   21.7805 C   0  0  0  0  0  0  0  0  0  0  0  0
    5.8846   -2.7695   20.5534 O   0  0  0  0  0  0  0  0  0  0  0  0
    4.9251   -3.4933   22.6407 C   0  0  0  0  0  0  0  0  0  0  0  0
    4.7538   -3.3211   23.9445 N   0  0  0  0  0  0  0  0  0  0  0  0
    3.7474   -4.1537   24.2526 N   0  0  0  0  0  0  0  0  0  0  0  0
    3.1093   -4.1995   25.4809 C   0  0  0  0  0  0  0  0  0  0  0  0
    2.0598   -5.0715   25.6669 C   0  0  0  0  0  0  0  0  0  0  0  0
    1.2062   -5.1356   27.3679 Br  0  0  0  0  0  0  0  0  0  0  0  0
    1.6058   -5.9115   24.5475 C   0  0  0  0  0  0  0  0  0  0  0  0
    2.2192   -5.8213   23.3062 C   0  0  0  0  0  0  0  0  0  0  0  0
    3.3404   -4.8786   23.1532 C   0  0  0  0  0  0  0  0  0  0  0  0
    4.0825   -4.5124   22.1416 N   0  0  0  0  0  0  0  0  0  0  0  0
    1.8573   -6.4156   22.4711 H   0  0  0  0  0  0  0  0  0  0  0  0
    0.7619   -6.5719   24.7128 H   0  0  0  0  0  0  0  0  0  0  0  0
    3.4495   -3.5296   26.2618 H   0  0  0  0  0  0  0  0  0  0  0  0
    6.6019   -0.0000   19.9319 C   0  0  0  0  0  0  0  0  0  0  0  0
    5.3959    0.6595   20.1728 C   0  0  0  0  0  0  0  0  0  0  0  0
    4.8228    1.3020   19.0819 C   0  0  0  0  0  0  0  0  0  0  0  0
    5.4553    1.2720   17.8374 C   0  0  0  0  0  0  0  0  0  0  0  0
    6.6079    0.6146   17.6430 N   0  0  0  0  0  0  0  0  0  0  0  0
    7.1657   -0.0214   18.6736 C   0  0  0  0  0  0  0  0  0  0  0  0
    8.1063   -0.5354   18.4966 H   0  0  0  0  0  0  0  0  0  0  0  0
    5.0065    1.7921   16.9930 H   0  0  0  0  0  0  0  0  0  0  0  0
    3.8940    1.8477   19.1731 H   0  0  0  0  0  0  0  0  0  0  0  0
    4.9126    0.7086   21.1514 H   0  0  0  0  0  0  0  0  0  0  0  0
    8.9983    0.0055   22.8523 H   0  0  0  0  0  0  0  0  0  0  0  0
    9.1187    1.0001   21.3666 H   0  0  0  0  0  0  0  0  0  0  0  0
    7.6989    1.1565   22.4504 H   0  0  0  0  0  0  0  0  0  0  0  0
  1  2  1  0
  2  3  2  0
  2  4  2  0
  4  5  1  0
  5  6  2  0
  5  7  1  0
  7  8  2  0
  8  9  1  0
  9 10  1  0
 10 11  2  0
 11 12  1  0
 11 13  1  0
 13 14  2  0
 14 15  1  0
 15 16  2  0
 14 17  1  0
 13 18  1  0
 10 19  1  0
  2 20  1  0
 20 21  2  0
 21 22  1  0
 22 23  2  0
 23 24  1  0
 24 25  2  0
 25 26  1  0
 23 27  1  0
 22 28  1  0
 21 29  1  0
  1 30  1  0
  1 31  1  0
  1 32  1  0
 16  7  1  0
 25 20  1  0
 15  9  1  0
M  END
>  <plip>  (1) 
-0.1

>  <filename>  (1) 
[H][c]1[n][c]([H])[c]([S](=[O])(=[N][C](=[O])[c]2[n][c]3[c]([H])[c]([H])[c]([Br])[c]([H])[n]3[n]2)[C]([H])([H])[H])[c]([H])[c]1[H]

$$$$
