
     RDKit          3D

 44 46  0  0  0  0  0  0  0  0999 V2000
    5.7362   -2.0960   21.6115 O   0  0  0  0  0  0  0  0  0  0  0  0
    6.8324   -1.6093   21.8062 C   0  0  0  0  0  0  0  0  0  0  0  0
    7.3747   -0.6382   20.9954 N   0  0  0  0  0  0  0  0  0  0  0  0
    6.7126    0.0220   19.9165 C   0  0  0  0  0  0  0  0  0  0  0  0
    5.4729    0.6368   20.1236 C   0  0  0  0  0  0  0  0  0  0  0  0
    4.8526    1.2935   19.0550 C   0  0  0  0  0  0  0  0  0  0  0  0
    5.4854    1.2994   17.8081 C   0  0  0  0  0  0  0  0  0  0  0  0
    6.6752    0.7135   17.5906 N   0  0  0  0  0  0  0  0  0  0  0  0
    7.2732    0.1035   18.6217 C   0  0  0  0  0  0  0  0  0  0  0  0
    8.2322   -0.3715   18.4135 H   0  0  0  0  0  0  0  0  0  0  0  0
    5.0253    1.7919   16.9531 H   0  0  0  0  0  0  0  0  0  0  0  0
    3.9015    1.7988   19.1773 H   0  0  0  0  0  0  0  0  0  0  0  0
    5.0295    0.5989   21.1185 H   0  0  0  0  0  0  0  0  0  0  0  0
    8.3326   -0.4125   21.1895 H   0  0  0  0  0  0  0  0  0  0  0  0
    7.7575   -2.0458   22.9546 C   0  0  0  0  0  0  0  0  0  0  0  0
    8.2616   -0.9521   23.9090 C   0  0  0  0  0  0  0  0  0  0  0  0
    7.4427   -0.7102   25.1900 C   0  0  0  0  0  0  0  0  0  0  0  0
    6.1043   -0.0830   24.9895 N   0  0  0  0  0  4  0  0  0  0  0  0
    5.2665   -0.1092   26.2527 C   0  0  0  0  0  0  0  0  0  0  0  0
    3.8300    0.2792   25.9182 C   0  0  0  0  0  0  0  0  0  0  0  0
    3.7641    1.6705   25.2709 C   0  0  0  0  0  0  0  0  0  0  0  0
    4.7393    1.7726   24.0884 C   0  0  0  0  0  0  0  0  0  0  0  0
    6.1489    1.3465   24.4728 C   0  0  0  0  0  0  0  0  0  0  0  0
    6.8214    1.4043   23.6149 H   0  0  0  0  0  0  0  0  0  0  0  0
    6.5534    2.0024   25.2554 H   0  0  0  0  0  0  0  0  0  0  0  0
    4.4313    1.1070   23.2729 H   0  0  0  0  0  0  0  0  0  0  0  0
    4.7529    2.7820   23.6713 H   0  0  0  0  0  0  0  0  0  0  0  0
    4.0265    2.4276   26.0238 H   0  0  0  0  0  0  0  0  0  0  0  0
    2.7414    1.9039   24.9525 H   0  0  0  0  0  0  0  0  0  0  0  0
    3.2177    0.2409   26.8245 H   0  0  0  0  0  0  0  0  0  0  0  0
    3.4302   -0.4746   25.2273 H   0  0  0  0  0  0  0  0  0  0  0  0
    5.3254   -1.1035   26.7097 H   0  0  0  0  0  0  0  0  0  0  0  0
    5.6991    0.6045   26.9697 H   0  0  0  0  0  0  0  0  0  0  0  0
    5.5913   -0.6531   24.2688 H   0  0  0  0  0  0  0  0  0  0  0  0
    8.0315   -0.0845   25.8740 H   0  0  0  0  0  0  0  0  0  0  0  0
    7.2949   -1.6668   25.7034 H   0  0  0  0  0  0  0  0  0  0  0  0
    8.3879    0.0055   23.3957 H   0  0  0  0  0  0  0  0  0  0  0  0
    9.2640   -1.2286   24.2547 H   0  0  0  0  0  0  0  0  0  0  0  0
    7.4961   -3.3950   23.5774 C   0  0  0  0  0  0  0  0  0  0  0  0
    8.6820   -3.2282   22.6806 C   0  0  0  0  0  0  0  0  0  0  0  0
    8.6640   -3.7053   21.7043 H   0  0  0  0  0  0  0  0  0  0  0  0
    9.6718   -3.2038   23.1367 H   0  0  0  0  0  0  0  0  0  0  0  0
    6.6513   -3.9687   23.2033 H   0  0  0  0  0  0  0  0  0  0  0  0
    7.6799   -3.5095   24.6443 H   0  0  0  0  0  0  0  0  0  0  0  0
  1  2  2  0
  2  3  1  0
  3  4  1  0
  4  5  2  0
  5  6  1  0
  6  7  2  0
  7  8  1  0
  8  9  2  0
  9 10  1  0
  7 11  1  0
  6 12  1  0
  5 13  1  0
  3 14  1  0
  2 15  1  0
 15 16  1  0
 16 17  1  0
 17 18  1  0
 18 19  1  0
 19 20  1  0
 20 21  1  0
 21 22  1  0
 22 23  1  0
 23 24  1  0
 23 25  1  0
 22 26  1  0
 22 27  1  0
 21 28  1  0
 21 29  1  0
 20 30  1  0
 20 31  1  0
 19 32  1  0
 19 33  1  0
 18 34  1  0
 17 35  1  0
 17 36  1  0
 16 37  1  0
 16 38  1  0
 15 39  1  0
 39 40  1  0
 40 41  1  0
 40 42  1  0
 39 43  1  0
 39 44  1  0
  9  4  1  0
 40 15  1  0
 23 18  1  0
M  CHG  1  18   1
M  END
>  <plip>  (1) 
-0.10714285714285714

>  <filename>  (1) 
[H][c]1[n][c]([H])[c]([N]([H])[C](=[O])[C]2([C]([H])([H])[C]([H])([H])[N+]3([H])[C]([H])([H])[C]([H])([H])[C]([H])([H])[C]([H])([H])[C]3([H])[H])[C]([H])([H])[C]2([H])[H])[c]([H])[c]1[H]

$$$$
