
     RDKit          3D

 31 33  0  0  0  0  0  0  0  0999 V2000
    4.9295    1.8154   16.9622 H   0  0  0  0  0  0  0  0  0  0  0  0
    5.3955    1.3072   17.8041 C   0  0  0  0  0  0  0  0  0  0  0  0
    6.5624    0.6887   17.5541 N   0  0  0  0  0  0  0  0  0  0  0  0
    7.1474    0.0482   18.5729 C   0  0  0  0  0  0  0  0  0  0  0  0
    8.1039   -0.4311   18.3558 H   0  0  0  0  0  0  0  0  0  0  0  0
    6.6114   -0.0210   19.8785 C   0  0  0  0  0  0  0  0  0  0  0  0
    7.2575   -0.7639   20.9723 C   0  0  0  0  0  0  0  0  0  0  0  0
    7.8592   -0.2335   22.0915 C   0  0  0  0  0  0  0  0  0  0  0  0
    7.7793    1.1845   22.5061 C   0  0  0  0  0  0  0  0  0  0  0  0
    7.4007    2.0597   21.7492 O   0  0  0  0  0  0  0  0  0  0  0  0
    8.1415    1.5476   23.9534 C   0  0  0  0  0  0  0  0  0  0  0  0
    7.1985    2.1452   24.8134 C   0  0  0  0  0  0  0  0  0  0  0  0
    6.1802    2.3519   24.5001 H   0  0  0  0  0  0  0  0  0  0  0  0
    7.5801    2.4854   26.1152 C   0  0  0  0  0  0  0  0  0  0  0  0
    6.8657    2.9385   26.7990 H   0  0  0  0  0  0  0  0  0  0  0  0
    8.8077    2.2888   26.6043 N   0  0  0  0  0  0  0  0  0  0  0  0
    9.7072    1.7232   25.7927 C   0  0  0  0  0  0  0  0  0  0  0  0
   10.7012    1.5633   26.2014 H   0  0  0  0  0  0  0  0  0  0  0  0
    9.4322    1.3399   24.4772 C   0  0  0  0  0  0  0  0  0  0  0  0
   10.2278    0.9024   23.8833 H   0  0  0  0  0  0  0  0  0  0  0  0
    8.4361   -1.3531   22.9315 C   0  0  0  0  0  0  0  0  0  0  0  0
    9.4947   -1.2279   23.1980 H   0  0  0  0  0  0  0  0  0  0  0  0
    7.8646   -1.4182   23.8729 H   0  0  0  0  0  0  0  0  0  0  0  0
    8.2387   -2.4957   22.0686 N   0  0  0  0  0  0  0  0  0  0  0  0
    8.2630   -3.4635   22.3481 H   0  0  0  0  0  0  0  0  0  0  0  0
    7.3018   -2.2615   21.0908 C   0  0  0  0  0  0  0  0  0  0  0  0
    6.6876   -3.1441   20.5313 O   0  0  0  0  0  0  0  0  0  0  0  0
    5.4086    0.6582   20.1134 C   0  0  0  0  0  0  0  0  0  0  0  0
    5.0041    0.6819   21.1260 H   0  0  0  0  0  0  0  0  0  0  0  0
    4.7814    1.3202   19.0594 C   0  0  0  0  0  0  0  0  0  0  0  0
    3.8453    1.8489   19.2108 H   0  0  0  0  0  0  0  0  0  0  0  0
  1  2  1  0
  2  3  2  0
  3  4  1  0
  4  5  1  0
  4  6  2  0
  6  7  1  0
  7  8  2  0
  8  9  1  0
  9 10  2  0
  9 11  1  0
 11 12  2  0
 12 13  1  0
 12 14  1  0
 14 15  1  0
 14 16  2  0
 16 17  1  0
 17 18  1  0
 17 19  2  0
 19 20  1  0
  8 21  1  0
 21 22  1  0
 21 23  1  0
 21 24  1  0
 24 25  1  0
 24 26  1  0
 26 27  2  0
  6 28  1  0
 28 29  1  0
 28 30  2  0
 30 31  1  0
 30  2  1  0
 26  7  1  0
 19 11  1  0
M  END
>  <plip>  (1) 
-0.06896551724137931

>  <filename>  (1) 
[H][c]1[n][c]([H])[c]([C]2=[C]([C](=[O])[c]3[c]([H])[c]([H])[n][c]([H])[c]3[H])[C]([H])([H])[N]([H])[C]2=[O])[c]([H])[c]1[H]

$$$$
