
     RDKit          3D

 31 33  0  0  0  0  0  0  0  0999 V2000
    8.8854   -3.1403   22.0958 H   0  0  0  0  0  0  0  0  0  0  0  0
    8.3667   -2.2067   21.9225 C   0  0  0  0  0  0  0  0  0  0  0  0
    8.1122   -1.3173   22.9173 N   0  0  0  0  0  0  0  0  0  0  0  0
    7.5023   -0.3471   22.2529 C   0  0  0  0  0  0  0  0  0  0  0  0
    7.0692    0.8391   22.7671 N   0  0  0  0  0  0  0  0  0  0  0  0
    6.5681    0.9185   24.1444 C   0  0  0  0  0  0  0  0  0  0  0  0
    6.4170   -0.0901   24.5383 H   0  0  0  0  0  0  0  0  0  0  0  0
    5.5895    1.4248   24.1379 H   0  0  0  0  0  0  0  0  0  0  0  0
    7.5080    1.7315   25.0583 C   0  0  0  0  0  0  0  0  0  0  0  0
    8.4388    1.1670   25.1857 H   0  0  0  0  0  0  0  0  0  0  0  0
    7.0641    1.8435   26.0537 H   0  0  0  0  0  0  0  0  0  0  0  0
    7.8456    3.0643   24.5245 N   0  0  0  0  0  0  0  0  0  0  0  0
    6.9730    3.5904   24.4408 H   0  0  0  0  0  0  0  0  0  0  0  0
    8.3999    2.9228   23.1651 C   0  0  0  0  0  0  0  0  0  0  0  0
    8.6148    3.9167   22.7566 H   0  0  0  0  0  0  0  0  0  0  0  0
    9.3607    2.4008   23.2443 H   0  0  0  0  0  0  0  0  0  0  0  0
    7.4897    2.1338   22.1930 C   0  0  0  0  0  0  0  0  0  0  0  0
    6.5949    2.7435   21.9983 H   0  0  0  0  0  0  0  0  0  0  0  0
    7.9903    1.9887   21.2310 H   0  0  0  0  0  0  0  0  0  0  0  0
    7.3643   -0.6827   20.9298 N   0  0  0  0  0  0  0  0  0  0  0  0
    6.6558   -0.0012   19.8971 C   0  0  0  0  0  0  0  0  0  0  0  0
    7.1795    0.0447   18.5960 C   0  0  0  0  0  0  0  0  0  0  0  0
    8.1261   -0.4397   18.3753 H   0  0  0  0  0  0  0  0  0  0  0  0
    6.5721    0.6774   17.5906 N   0  0  0  0  0  0  0  0  0  0  0  0
    5.4045    1.2934   17.8440 C   0  0  0  0  0  0  0  0  0  0  0  0
    4.9174    1.7794   17.0001 H   0  0  0  0  0  0  0  0  0  0  0  0
    4.8106    1.3068   19.1088 C   0  0  0  0  0  0  0  0  0  0  0  0
    3.8785    1.8397   19.2624 H   0  0  0  0  0  0  0  0  0  0  0  0
    5.4432    0.6471   20.1637 C   0  0  0  0  0  0  0  0  0  0  0  0
    5.0114    0.6294   21.1656 H   0  0  0  0  0  0  0  0  0  0  0  0
    7.9467   -1.8950   20.7172 N   0  0  0  0  0  0  0  0  0  0  0  0
  1  2  1  0
  2  3  1  0
  3  4  2  0
  4  5  1  0
  5  6  1  0
  6  7  1  0
  6  8  1  0
  6  9  1  0
  9 10  1  0
  9 11  1  0
  9 12  1  0
 12 13  1  0
 12 14  1  0
 14 15  1  0
 14 16  1  0
 14 17  1  0
 17 18  1  0
 17 19  1  0
  4 20  1  0
 20 21  1  0
 21 22  2  0
 22 23  1  0
 22 24  1  0
 24 25  2  0
 25 26  1  0
 25 27  1  0
 27 28  1  0
 27 29  2  0
 29 30  1  0
 20 31  1  0
 31  2  2  0
 17  5  1  0
 29 21  1  0
M  END
>  <plip>  (1) 
-0.03333333333333333

>  <filename>  (1) 
[H][c]1[n][c]([N]2[C]([H])([H])[C]([H])([H])[N]([H])[C]([H])([H])[C]2([H])[H])[n](-[c]2[c]([H])[n][c]([H])[c]([H])[c]2[H])[n]1

$$$$
