
     RDKit          3D

 42 44  0  0  0  0  0  0  0  0999 V2000
    5.0298    1.7249   17.0323 H   0  0  0  0  0  0  0  0  0  0  0  0
    5.4758    1.2422   17.9009 C   0  0  0  0  0  0  0  0  0  0  0  0
    6.6376    0.6088   17.6895 N   0  0  0  0  0  0  0  0  0  0  0  0
    7.2140   -0.0020   18.7337 C   0  0  0  0  0  0  0  0  0  0  0  0
    8.1556   -0.5083   18.5274 H   0  0  0  0  0  0  0  0  0  0  0  0
    6.6752   -0.0248   20.0381 C   0  0  0  0  0  0  0  0  0  0  0  0
    7.3247   -0.6843   21.0882 N   0  0  0  0  0  0  0  0  0  0  0  0
    6.7664   -0.6468   22.3259 N   0  0  0  0  0  0  0  0  0  0  0  0
    7.5604   -1.2656   23.1337 C   0  0  0  0  0  0  0  0  0  0  0  0
    7.3335   -1.4515   24.4625 N   0  0  0  0  0  0  0  0  0  0  0  0
    7.8154   -2.1976   24.9261 H   0  0  0  0  0  0  0  0  0  0  0  0
    6.3529   -0.7708   25.1585 C   0  0  0  0  0  0  0  0  0  0  0  0
    5.7482    0.1909   24.7537 O   0  0  0  0  0  0  0  0  0  0  0  0
    6.1707   -1.3185   26.3973 N   0  0  0  0  0  0  0  0  0  0  0  0
    6.6857   -2.1492   26.6329 H   0  0  0  0  0  0  0  0  0  0  0  0
    4.9793   -1.0335   27.1786 C   0  0  0  0  0  0  0  0  0  0  0  0
    4.6749   -0.0022   26.9602 H   0  0  0  0  0  0  0  0  0  0  0  0
    5.3440   -1.1354   28.6600 C   0  0  0  0  0  0  0  0  0  0  0  0
    6.0016   -0.2972   28.9115 H   0  0  0  0  0  0  0  0  0  0  0  0
    5.9315   -2.0442   28.7678 H   0  0  0  0  0  0  0  0  0  0  0  0
    4.1289   -1.2397   29.6111 C   0  0  0  0  0  0  0  0  0  0  0  0
    4.0007   -2.2917   29.9021 H   0  0  0  0  0  0  0  0  0  0  0  0
    4.3268   -0.6852   30.5366 H   0  0  0  0  0  0  0  0  0  0  0  0
    2.8350   -0.7449   28.9448 C   0  0  0  0  0  0  0  0  0  0  0  0
    2.9399    0.3271   28.7331 H   0  0  0  0  0  0  0  0  0  0  0  0
    1.9978   -0.8349   29.6414 H   0  0  0  0  0  0  0  0  0  0  0  0
    2.5130   -1.4910   27.6238 C   0  0  0  0  0  0  0  0  0  0  0  0
    1.8793   -2.3647   27.8248 H   0  0  0  0  0  0  0  0  0  0  0  0
    1.9221   -0.8290   26.9760 H   0  0  0  0  0  0  0  0  0  0  0  0
    3.7855   -1.9490   26.8619 C   0  0  0  0  0  0  0  0  0  0  0  0
    4.0453   -2.9804   27.1399 H   0  0  0  0  0  0  0  0  0  0  0  0
    3.6056   -1.9684   25.7836 H   0  0  0  0  0  0  0  0  0  0  0  0
    8.7867   -1.8182   22.4927 C   0  0  0  0  0  0  0  0  0  0  0  0
    8.7971   -2.9120   22.5309 H   0  0  0  0  0  0  0  0  0  0  0  0
    9.6915   -1.4545   22.9838 H   0  0  0  0  0  0  0  0  0  0  0  0
    8.6456   -1.2870   21.0552 C   0  0  0  0  0  0  0  0  0  0  0  0
    8.7065   -2.0739   20.2928 H   0  0  0  0  0  0  0  0  0  0  0  0
    9.4163   -0.5443   20.7904 H   0  0  0  0  0  0  0  0  0  0  0  0
    5.4446    0.6383   20.2423 C   0  0  0  0  0  0  0  0  0  0  0  0
    4.9947    0.6471   21.2397 H   0  0  0  0  0  0  0  0  0  0  0  0
    4.8449    1.2776   19.1531 C   0  0  0  0  0  0  0  0  0  0  0  0
    3.9048    1.8099   19.2570 H   0  0  0  0  0  0  0  0  0  0  0  0
  1  2  1  0
  2  3  2  0
  3  4  1  0
  4  5  1  0
  4  6  2  0
  6  7  1  0
  7  8  1  0
  8  9  2  0
  9 10  1  0
 10 11  1  0
 10 12  1  0
 12 13  2  0
 12 14  1  0
 14 15  1  0
 14 16  1  0
 16 17  1  0
 16 18  1  0
 18 19  1  0
 18 20  1  0
 18 21  1  0
 21 22  1  0
 21 23  1  0
 21 24  1  0
 24 25  1  0
 24 26  1  0
 24 27  1  0
 27 28  1  0
 27 29  1  0
 27 30  1  0
 30 31  1  0
 30 32  1  0
  9 33  1  0
 33 34  1  0
 33 35  1  0
 33 36  1  0
 36 37  1  0
 36 38  1  0
  6 39  1  0
 39 40  1  0
 39 41  2  0
 41 42  1  0
 41  2  1  0
 36  7  1  0
 30 16  1  0
M  END
>  <plip>  (1) 
-0.07142857142857142

>  <filename>  (1) 
[H][c]1[n][c]([H])[c]([N]2[N]=[C]([N]([H])[C](=[O])[N]([H])[C]3([H])[C]([H])([H])[C]([H])([H])[C]([H])([H])[C]([H])([H])[C]3([H])[H])[C]([H])([H])[C]2([H])[H])[c]([H])[c]1[H]

$$$$
