
     RDKit          3D

 33 35  0  0  0  0  0  0  0  0999 V2000
    8.7100   -2.9603   24.7129 C   0  0  0  0  0  0  0  0  0  0  0  0
    7.8025   -1.8034   24.2765 C   0  0  0  0  0  0  0  0  0  0  0  0
    8.0949   -0.2408   25.2402 S   0  0  0  0  0  0  0  0  0  0  0  0
    9.6856    0.2849   24.6290 C   0  0  0  0  0  0  0  0  0  0  0  0
    9.7935    1.0911   23.4820 C   0  0  0  0  0  0  0  0  0  0  0  0
   11.0544    1.4037   22.9604 C   0  0  0  0  0  0  0  0  0  0  0  0
   12.2057    0.9040   23.5859 C   0  0  0  0  0  0  0  0  0  0  0  0
   12.0981    0.1512   24.7629 C   0  0  0  0  0  0  0  0  0  0  0  0
   10.8394   -0.1255   25.3083 C   0  0  0  0  0  0  0  0  0  0  0  0
   10.7142   -0.6558   26.2515 H   0  0  0  0  0  0  0  0  0  0  0  0
   12.9914   -0.2272   25.2508 H   0  0  0  0  0  0  0  0  0  0  0  0
   13.1838    1.1297   23.1673 H   0  0  0  0  0  0  0  0  0  0  0  0
   11.1379    2.0357   22.0747 H   0  0  0  0  0  0  0  0  0  0  0  0
    8.8869    1.4644   23.0117 H   0  0  0  0  0  0  0  0  0  0  0  0
    7.8931   -1.5700   22.7877 C   0  0  0  0  0  0  0  0  0  0  0  0
    8.8483   -1.8895   21.9823 N   0  0  0  0  0  0  0  0  0  0  0  0
    8.5387   -1.3344   20.7499 N   0  0  0  0  0  0  0  0  0  0  0  0
    7.3988   -0.7369   20.9003 C   0  0  0  0  0  0  0  0  0  0  0  0
    6.6366    0.0116   19.9076 C   0  0  0  0  0  0  0  0  0  0  0  0
    5.4200    0.6659   20.1593 C   0  0  0  0  0  0  0  0  0  0  0  0
    4.7921    1.3173   19.0989 C   0  0  0  0  0  0  0  0  0  0  0  0
    5.3984    1.2942   17.8368 C   0  0  0  0  0  0  0  0  0  0  0  0
    6.5599    0.6698   17.5910 N   0  0  0  0  0  0  0  0  0  0  0  0
    7.1612    0.0563   18.6108 C   0  0  0  0  0  0  0  0  0  0  0  0
    8.1126   -0.4287   18.3923 H   0  0  0  0  0  0  0  0  0  0  0  0
    4.9454    1.8011   16.9863 H   0  0  0  0  0  0  0  0  0  0  0  0
    3.8574    1.8532   19.2234 H   0  0  0  0  0  0  0  0  0  0  0  0
    4.9690    0.6700   21.1513 H   0  0  0  0  0  0  0  0  0  0  0  0
    6.9131   -0.8675   22.1596 O   0  0  0  0  0  0  0  0  0  0  0  0
    6.7490   -1.9940   24.5168 H   0  0  0  0  0  0  0  0  0  0  0  0
    8.6667   -3.1243   25.7926 H   0  0  0  0  0  0  0  0  0  0  0  0
    9.7469   -2.7416   24.4332 H   0  0  0  0  0  0  0  0  0  0  0  0
    8.4240   -3.8891   24.2057 H   0  0  0  0  0  0  0  0  0  0  0  0
  1  2  1  0
  2  3  1  0
  3  4  1  0
  4  5  2  0
  5  6  1  0
  6  7  2  0
  7  8  1  0
  8  9  2  0
  9 10  1  0
  8 11  1  0
  7 12  1  0
  6 13  1  0
  5 14  1  0
  2 15  1  0
 15 16  2  0
 16 17  1  0
 17 18  2  0
 18 19  1  0
 19 20  2  0
 20 21  1  0
 21 22  2  0
 22 23  1  0
 23 24  2  0
 24 25  1  0
 22 26  1  0
 21 27  1  0
 20 28  1  0
 18 29  1  0
  2 30  1  0
  1 31  1  0
  1 32  1  0
  1 33  1  0
  9  4  1  0
 29 15  1  0
 24 19  1  0
M  END
>  <plip>  (1) 
-0.034482758620689655

>  <filename>  (1) 
[H][c]1[n][c]([H])[c](-[c]2[n][n][c]([C]([H])([S][c]3[c]([H])[c]([H])[c]([H])[c]([H])[c]3[H])[C]([H])([H])[H])[o]2)[c]([H])[c]1[H]

$$$$
