
     RDKit          3D

 32 34  0  0  0  0  0  0  0  0999 V2000
    5.0070    1.8006   16.9923 H   0  0  0  0  0  0  0  0  0  0  0  0
    5.4231    1.2559   17.8371 C   0  0  0  0  0  0  0  0  0  0  0  0
    6.5682    0.5920   17.6089 N   0  0  0  0  0  0  0  0  0  0  0  0
    7.1271   -0.0386   18.6505 C   0  0  0  0  0  0  0  0  0  0  0  0
    8.0519   -0.5717   18.4545 H   0  0  0  0  0  0  0  0  0  0  0  0
    6.6016   -0.0266   19.9634 C   0  0  0  0  0  0  0  0  0  0  0  0
    7.2854   -0.5051   21.1083 N   0  0  0  0  0  0  0  0  0  0  0  0
    6.8564   -1.3384   21.5078 H   0  0  0  0  0  0  0  0  0  0  0  0
    8.6870   -0.6213   21.0547 N   0  0  0  0  0  0  0  0  0  0  0  0
    9.3008   -1.4952   21.9683 C   0  0  0  0  0  0  0  0  0  0  0  0
   10.5322   -2.0383   21.7383 C   0  0  0  0  0  0  0  0  0  0  0  0
   11.1815   -1.8206   20.9002 H   0  0  0  0  0  0  0  0  0  0  0  0
   10.8762   -2.9149   22.7382 N   0  0  0  0  0  0  0  0  0  0  0  0
   11.6407   -3.5770   22.7090 H   0  0  0  0  0  0  0  0  0  0  0  0
    9.8590   -2.9600   23.6608 C   0  0  0  0  0  0  0  0  0  0  0  0
    9.7685   -3.7153   24.8497 C   0  0  0  0  0  0  0  0  0  0  0  0
   10.5538   -4.4153   25.1318 H   0  0  0  0  0  0  0  0  0  0  0  0
    8.6538   -3.5150   25.6576 C   0  0  0  0  0  0  0  0  0  0  0  0
    8.5592   -4.0655   26.5939 H   0  0  0  0  0  0  0  0  0  0  0  0
    7.6478   -2.5848   25.2930 C   0  0  0  0  0  0  0  0  0  0  0  0
    6.7945   -2.4329   25.9502 H   0  0  0  0  0  0  0  0  0  0  0  0
    7.7344   -1.8597   24.1041 C   0  0  0  0  0  0  0  0  0  0  0  0
    6.9603   -1.1406   23.8362 H   0  0  0  0  0  0  0  0  0  0  0  0
    8.8484   -2.0504   23.2515 C   0  0  0  0  0  0  0  0  0  0  0  0
    9.3799    0.6044   20.6490 C   0  0  0  0  0  0  0  0  0  0  0  0
    8.7274    1.4688   20.8329 H   0  0  0  0  0  0  0  0  0  0  0  0
   10.3093    0.7513   21.2092 H   0  0  0  0  0  0  0  0  0  0  0  0
    9.5978    0.5820   19.5748 H   0  0  0  0  0  0  0  0  0  0  0  0
    5.3656    0.5949   20.1622 C   0  0  0  0  0  0  0  0  0  0  0  0
    4.9238    0.5992   21.1607 H   0  0  0  0  0  0  0  0  0  0  0  0
    4.7786    1.2602   19.0820 C   0  0  0  0  0  0  0  0  0  0  0  0
    3.8502    1.8078   19.2043 H   0  0  0  0  0  0  0  0  0  0  0  0
  1  2  1  0
  2  3  2  0
  3  4  1  0
  4  5  1  0
  4  6  2  0
  6  7  1  0
  7  8  1  0
  7  9  1  0
  9 10  1  0
 10 11  2  0
 11 12  1  0
 11 13  1  0
 13 14  1  0
 13 15  1  0
 15 16  2  0
 16 17  1  0
 16 18  1  0
 18 19  1  0
 18 20  2  0
 20 21  1  0
 20 22  1  0
 22 23  1  0
 22 24  2  0
  9 25  1  0
 25 26  1  0
 25 27  1  0
 25 28  1  0
  6 29  1  0
 29 30  1  0
 29 31  2  0
 31 32  1  0
 31  2  1  0
 24 10  1  0
 24 15  1  0
M  END
>  <plip>  (1) 
-0.034482758620689655

>  <filename>  (1) 
[H][c]1[n][c]([H])[c]([N]([H])[N]([c]2[c]([H])[n]([H])[c]3[c]([H])[c]([H])[c]([H])[c]([H])[c]23)[C]([H])([H])[H])[c]([H])[c]1[H]

$$$$
