
     RDKit          3D

 30 32  0  0  0  0  0  0  0  0999 V2000
    4.9877    1.8551   16.9045 H   0  0  0  0  0  0  0  0  0  0  0  0
    5.3833    1.3430   17.7798 C   0  0  0  0  0  0  0  0  0  0  0  0
    6.5383    0.6846   17.6066 N   0  0  0  0  0  0  0  0  0  0  0  0
    7.0478    0.0397   18.6649 C   0  0  0  0  0  0  0  0  0  0  0  0
    8.0092   -0.4394   18.4890 H   0  0  0  0  0  0  0  0  0  0  0  0
    6.4246   -0.0293   19.9236 C   0  0  0  0  0  0  0  0  0  0  0  0
    7.0516   -0.8102   21.0685 C   0  0  2  0  0  0  0  0  0  0  0  0
    6.5256   -0.5500   22.0035 H   0  0  0  0  0  0  0  0  0  0  0  0
    8.4936   -0.6741   21.1989 N   0  0  0  0  0  0  0  0  0  0  0  0
    9.2513    0.4490   21.4048 C   0  0  0  0  0  0  0  0  0  0  0  0
    8.7966    1.7936   21.4744 C   0  0  0  0  0  0  0  0  0  0  0  0
    7.7688    2.1173   21.3881 H   0  0  0  0  0  0  0  0  0  0  0  0
    9.8009    2.6373   21.6634 N   0  0  0  0  0  0  0  0  0  0  0  0
   10.8895    1.8643   21.7525 N   0  0  0  0  0  0  0  0  0  0  0  0
   12.1851    2.4891   21.8943 C   0  0  0  0  0  0  0  0  0  0  0  0
   12.9303    1.7105   22.0813 H   0  0  0  0  0  0  0  0  0  0  0  0
   12.1785    3.2018   22.7233 H   0  0  0  0  0  0  0  0  0  0  0  0
   12.4282    3.0226   20.9713 H   0  0  0  0  0  0  0  0  0  0  0  0
   10.6211    0.5474   21.5799 C   0  0  0  0  0  0  0  0  0  0  0  0
   11.3894   -0.2107   21.6153 H   0  0  0  0  0  0  0  0  0  0  0  0
    8.8116   -2.0790   21.0472 C   0  0  0  0  0  0  0  0  0  0  0  0
    9.4200   -2.3163   20.1615 H   0  0  0  0  0  0  0  0  0  0  0  0
    9.3099   -2.5166   21.9254 H   0  0  0  0  0  0  0  0  0  0  0  0
    7.2826   -2.3462   20.9490 C   0  0  0  0  0  0  0  0  0  0  0  0
    6.8968   -2.9097   21.8035 H   0  0  0  0  0  0  0  0  0  0  0  0
    6.8848   -2.7985   20.0406 H   0  0  0  0  0  0  0  0  0  0  0  0
    5.2432    0.7117   20.0943 C   0  0  0  0  0  0  0  0  0  0  0  0
    4.7648    0.7757   21.0736 H   0  0  0  0  0  0  0  0  0  0  0  0
    4.7039    1.3929   19.0008 C   0  0  0  0  0  0  0  0  0  0  0  0
    3.7873    1.9681   19.0831 H   0  0  0  0  0  0  0  0  0  0  0  0
  1  2  1  0
  2  3  2  0
  3  4  1  0
  4  5  1  0
  4  6  2  0
  6  7  1  0
  7  8  1  1
  7  9  1  0
  9 10  1  0
 10 11  1  0
 11 12  1  0
 11 13  2  0
 13 14  1  0
 14 15  1  0
 15 16  1  0
 15 17  1  0
 15 18  1  0
 14 19  1  0
 19 20  1  0
  9 21  1  0
 21 22  1  0
 21 23  1  0
 21 24  1  0
 24 25  1  0
 24 26  1  0
  6 27  1  0
 27 28  1  0
 27 29  2  0
 29 30  1  0
 29  2  1  0
 24  7  1  0
 19 10  2  0
M  END
>  <plip>  (1) 
-0.03571428571428571

>  <filename>  (1) 
[H][c]1[n][c]([H])[c]([C@]2([H])[N]([c]3[c]([H])[n][n]([C]([H])([H])[H])[c]3[H])[C]([H])([H])[C]2([H])[H])[c]([H])[c]1[H]

$$$$
