
     RDKit          3D

 38 40  0  0  0  0  0  0  0  0999 V2000
    4.8904    1.7933   16.9870 H   0  0  0  0  0  0  0  0  0  0  0  0
    5.4020    1.2726   17.7935 C   0  0  0  0  0  0  0  0  0  0  0  0
    6.5700    0.6877   17.4840 N   0  0  0  0  0  0  0  0  0  0  0  0
    7.2426    0.0712   18.4658 C   0  0  0  0  0  0  0  0  0  0  0  0
    8.1909   -0.3865   18.1959 H   0  0  0  0  0  0  0  0  0  0  0  0
    6.7773   -0.0026   19.7991 C   0  0  0  0  0  0  0  0  0  0  0  0
    7.5219   -0.6031   20.8720 N   0  0  0  0  0  0  0  0  0  0  0  0
    8.8608   -0.3344   21.1561 C   0  0  0  0  0  0  0  0  0  0  0  0
    9.6254    0.2407   20.4285 O   0  0  0  0  0  0  0  0  0  0  0  0
    9.1128   -0.8660   22.4482 N   0  0  0  0  0  0  0  0  0  0  0  0
   10.0658   -0.5498   23.4660 N   0  0  0  0  0  0  0  0  0  0  0  0
   10.9726   -0.2408   23.1311 H   0  0  0  0  0  0  0  0  0  0  0  0
    9.9094    0.6716   24.6733 S   0  0  0  0  0  0  0  0  0  0  0  0
   11.2367    1.2551   24.5924 O   0  0  0  0  0  0  0  0  0  0  0  0
    9.3523    0.0941   25.8707 O   0  0  0  0  0  0  0  0  0  0  0  0
    8.7352    1.7587   23.9081 C   0  0  0  0  0  0  0  0  0  0  0  0
    9.1726    2.5403   22.8310 C   0  0  0  0  0  0  0  0  0  0  0  0
   10.2190    2.5963   22.5237 H   0  0  0  0  0  0  0  0  0  0  0  0
    8.2275    3.2545   22.1083 C   0  0  0  0  0  0  0  0  0  0  0  0
    8.5484    3.9059   21.3023 H   0  0  0  0  0  0  0  0  0  0  0  0
    6.8643    3.2102   22.4266 C   0  0  0  0  0  0  0  0  0  0  0  0
    5.9051    4.0074   21.5890 C   0  0  0  0  0  0  0  0  0  0  0  0
    5.0186    4.3087   22.1511 H   0  0  0  0  0  0  0  0  0  0  0  0
    6.3898    4.9041   21.1850 H   0  0  0  0  0  0  0  0  0  0  0  0
    5.5597    3.4257   20.7306 H   0  0  0  0  0  0  0  0  0  0  0  0
    6.4564    2.4528   23.5372 C   0  0  0  0  0  0  0  0  0  0  0  0
    5.4076    2.4396   23.8276 H   0  0  0  0  0  0  0  0  0  0  0  0
    7.3868    1.7344   24.2930 C   0  0  0  0  0  0  0  0  0  0  0  0
    7.0570    1.1728   25.1686 H   0  0  0  0  0  0  0  0  0  0  0  0
    7.9581   -1.5590   22.9652 C   0  0  0  0  0  0  0  0  0  0  0  0
    8.1693   -2.5991   23.2081 H   0  0  0  0  0  0  0  0  0  0  0  0
    7.5587   -1.0654   23.8586 H   0  0  0  0  0  0  0  0  0  0  0  0
    6.9947   -1.4676   21.8262 C   0  0  0  0  0  0  0  0  0  0  0  0
    5.9698   -2.0894   21.7233 O   0  0  0  0  0  0  0  0  0  0  0  0
    5.5378    0.5679   20.0911 C   0  0  0  0  0  0  0  0  0  0  0  0
    5.1434    0.4930   21.1034 H   0  0  0  0  0  0  0  0  0  0  0  0
    4.8495    1.2386   19.0773 C   0  0  0  0  0  0  0  0  0  0  0  0
    3.9161    1.7570   19.2761 H   0  0  0  0  0  0  0  0  0  0  0  0
  1  2  1  0
  2  3  2  0
  3  4  1  0
  4  5  1  0
  4  6  2  0
  6  7  1  0
  7  8  1  0
  8  9  2  0
  8 10  1  0
 10 11  1  0
 11 12  1  0
 11 13  1  0
 13 14  2  0
 13 15  2  0
 13 16  1  0
 16 17  2  0
 17 18  1  0
 17 19  1  0
 19 20  1  0
 19 21  2  0
 21 22  1  0
 22 23  1  0
 22 24  1  0
 22 25  1  0
 21 26  1  0
 26 27  1  0
 26 28  2  0
 28 29  1  0
 10 30  1  0
 30 31  1  0
 30 32  1  0
 30 33  1  0
 33 34  2  0
  6 35  1  0
 35 36  1  0
 35 37  2  0
 37 38  1  0
 37  2  1  0
 33  7  1  0
 28 16  1  0
M  END
>  <plip>  (1) 
-0.07142857142857142

>  <filename>  (1) 
[H][c]1[n][c]([H])[c]([N]2[C](=[O])[N]([N]([H])[S](=[O])(=[O])[c]3[c]([H])[c]([H])[c]([C]([H])([H])[H])[c]([H])[c]3[H])[C]([H])([H])[C]2=[O])[c]([H])[c]1[H]

$$$$
