
     RDKit          3D

 28 29  0  0  0  0  0  0  0  0999 V2000
   10.2534   -1.4737   22.2068 C   0  0  0  0  0  0  0  0  0  0  0  0
    9.1481   -1.9601   23.0264 N   0  0  0  0  0  0  0  0  0  0  0  0
    7.9977   -1.1912   23.3280 C   0  0  0  0  0  0  0  0  0  0  0  0
    7.5975   -1.0715   24.4604 O   0  0  0  0  0  0  0  0  0  0  0  0
    7.3212   -0.4827   22.2098 C   0  0  0  0  0  0  0  0  0  0  0  0
    7.4279   -0.7096   20.8928 C   0  0  0  0  0  0  0  0  0  0  0  0
    6.6561    0.0098   19.8529 C   0  0  0  0  0  0  0  0  0  0  0  0
    5.4406    0.6711   20.1027 C   0  0  0  0  0  0  0  0  0  0  0  0
    4.8017    1.3315   19.0510 C   0  0  0  0  0  0  0  0  0  0  0  0
    5.3942    1.3203   17.7852 C   0  0  0  0  0  0  0  0  0  0  0  0
    6.5502    0.6908   17.5159 N   0  0  0  0  0  0  0  0  0  0  0  0
    7.1468    0.0590   18.5320 C   0  0  0  0  0  0  0  0  0  0  0  0
    8.0864   -0.4346   18.2863 H   0  0  0  0  0  0  0  0  0  0  0  0
    4.9247    1.8341   16.9488 H   0  0  0  0  0  0  0  0  0  0  0  0
    3.8688    1.8634   19.2015 H   0  0  0  0  0  0  0  0  0  0  0  0
    4.9928    0.6590   21.0980 H   0  0  0  0  0  0  0  0  0  0  0  0
    8.1095   -1.4755   20.5084 H   0  0  0  0  0  0  0  0  0  0  0  0
    6.6560    0.2807   22.5990 H   0  0  0  0  0  0  0  0  0  0  0  0
    9.1987   -3.1950   23.6500 C   0  0  0  0  0  0  0  0  0  0  0  0
    8.1476   -3.9365   23.8093 N   0  0  0  0  0  0  0  0  0  0  0  0
    8.4977   -5.1391   24.3694 C   0  0  0  0  0  0  0  0  0  0  0  0
    9.8080   -5.3044   24.6718 C   0  0  0  0  0  0  0  0  0  0  0  0
   10.6958   -3.8896   24.2313 S   0  0  0  0  0  0  0  0  0  0  0  0
   10.3080   -6.1686   25.0832 H   0  0  0  0  0  0  0  0  0  0  0  0
    7.7286   -5.8859   24.5482 H   0  0  0  0  0  0  0  0  0  0  0  0
   11.1942   -1.4524   22.7685 H   0  0  0  0  0  0  0  0  0  0  0  0
   10.0513   -0.4514   21.8774 H   0  0  0  0  0  0  0  0  0  0  0  0
   10.4076   -2.1121   21.3275 H   0  0  0  0  0  0  0  0  0  0  0  0
  1  2  1  0
  2  3  1  0
  3  4  2  0
  3  5  1  0
  5  6  2  3
  6  7  1  0
  7  8  2  0
  8  9  1  0
  9 10  2  0
 10 11  1  0
 11 12  2  0
 12 13  1  0
 10 14  1  0
  9 15  1  0
  8 16  1  0
  6 17  1  0
  5 18  1  0
  2 19  1  0
 19 20  2  0
 20 21  1  0
 21 22  2  0
 22 23  1  0
 22 24  1  0
 21 25  1  0
  1 26  1  0
  1 27  1  0
  1 28  1  0
 12  7  1  0
 23 19  1  0
M  END
>  <plip>  (1) 
-0.034482758620689655

>  <filename>  (1) 
[H][C]([C](=[O])[N]([c]1[n][c]([H])[c]([H])[s]1)[C]([H])([H])[H])=[C]([H])[c]1[c]([H])[n][c]([H])[c]([H])[c]1[H]

$$$$
