
     RDKit          3D

 37 39  0  0  0  0  0  0  0  0999 V2000
    6.1286   -5.3300   23.4741 Br  0  0  0  0  0  0  0  0  0  0  0  0
    5.8454   -5.1205   21.5984 C   0  0  0  0  0  0  0  0  0  0  0  0
    5.8898   -3.9307   20.9197 C   0  0  0  0  0  0  0  0  0  0  0  0
    6.1343   -2.5970   21.5346 C   0  0  0  0  0  0  0  0  0  0  0  0
    7.3525   -2.1033   20.8835 N   0  0  0  0  0  4  0  0  0  0  0  0
    8.5954   -2.7683   21.4037 C   0  0  0  0  0  0  0  0  0  0  0  0
    9.0214   -2.0902   22.7167 C   0  0  0  0  0  0  0  0  0  0  0  0
    9.4877   -0.6931   22.4488 N   0  0  0  0  0  4  0  0  0  0  0  0
    8.8055   -0.1026   21.2444 C   0  0  0  0  0  0  0  0  0  0  0  0
    7.3694   -0.6458   21.0942 C   0  0  0  0  0  0  0  0  0  0  0  0
    6.6490   -0.0330   19.9391 C   0  0  0  0  0  0  0  0  0  0  0  0
    5.4410    0.6315   20.1639 C   0  0  0  0  0  0  0  0  0  0  0  0
    4.8590    1.2854   19.0822 C   0  0  0  0  0  0  0  0  0  0  0  0
    5.4780    1.2442   17.8279 C   0  0  0  0  0  0  0  0  0  0  0  0
    6.6125    0.5523   17.6064 N   0  0  0  0  0  0  0  0  0  0  0  0
    7.1812   -0.0778   18.6445 C   0  0  0  0  0  0  0  0  0  0  0  0
    8.1072   -0.6186   18.4747 H   0  0  0  0  0  0  0  0  0  0  0  0
    5.0251    1.7790   16.9984 H   0  0  0  0  0  0  0  0  0  0  0  0
    3.9390    1.8455   19.2044 H   0  0  0  0  0  0  0  0  0  0  0  0
    4.9801    0.6567   21.1541 H   0  0  0  0  0  0  0  0  0  0  0  0
    6.8389   -0.3948   22.0208 H   0  0  0  0  0  0  0  0  0  0  0  0
    8.7617    0.9927   21.3021 H   0  0  0  0  0  0  0  0  0  0  0  0
    9.3403   -0.3742   20.3246 H   0  0  0  0  0  0  0  0  0  0  0  0
   10.5034   -0.6951   22.2969 H   0  0  0  0  0  0  0  0  0  0  0  0
    9.2953   -0.1096   23.2725 H   0  0  0  0  0  0  0  0  0  0  0  0
    8.1389   -2.0897   23.3721 H   0  0  0  0  0  0  0  0  0  0  0  0
    9.8051   -2.6811   23.2100 H   0  0  0  0  0  0  0  0  0  0  0  0
    9.4238   -2.6653   20.6916 H   0  0  0  0  0  0  0  0  0  0  0  0
    8.4423   -3.8415   21.5717 H   0  0  0  0  0  0  0  0  0  0  0  0
    7.2566   -2.2819   19.8791 H   0  0  0  0  0  0  0  0  0  0  0  0
    6.2588   -2.6576   22.6233 H   0  0  0  0  0  0  0  0  0  0  0  0
    5.2907   -1.9218   21.3375 H   0  0  0  0  0  0  0  0  0  0  0  0
    5.6946   -4.1235   19.1910 S   0  0  0  0  0  0  0  0  0  0  0  0
    5.4615   -5.8574   19.4076 C   0  0  0  0  0  0  0  0  0  0  0  0
    5.5306   -6.2277   20.7294 C   0  0  0  0  0  0  0  0  0  0  0  0
    5.3784   -7.2305   21.1217 H   0  0  0  0  0  0  0  0  0  0  0  0
    5.2479   -6.5452   18.5961 H   0  0  0  0  0  0  0  0  0  0  0  0
  1  2  1  0
  2  3  2  0
  3  4  1  0
  4  5  1  0
  5  6  1  0
  6  7  1  0
  7  8  1  0
  8  9  1  0
  9 10  1  0
 10 11  1  0
 11 12  2  0
 12 13  1  0
 13 14  2  0
 14 15  1  0
 15 16  2  0
 16 17  1  0
 14 18  1  0
 13 19  1  0
 12 20  1  0
 10 21  1  0
  9 22  1  0
  9 23  1  0
  8 24  1  0
  8 25  1  0
  7 26  1  0
  7 27  1  0
  6 28  1  0
  6 29  1  0
  5 30  1  0
  4 31  1  0
  4 32  1  0
  3 33  1  0
 33 34  1  0
 34 35  2  0
 35 36  1  0
 34 37  1  0
 35  2  1  0
 10  5  1  0
 16 11  1  0
M  CHG  2   5   1   8   1
M  END
>  <plip>  (1) 
-0.06896551724137931

>  <filename>  (1) 
[H][c]1[n][c]([H])[c]([C]2([H])[C]([H])([H])[N+]([H])([H])[C]([H])([H])[C]([H])([H])[N+]2([H])[C]([H])([H])[c]2[s][c]([H])[c]([H])[c]2[Br])[c]([H])[c]1[H]

$$$$
