
     RDKit          3D

 32 34  0  0  0  0  0  0  0  0999 V2000
   10.0746   -1.5386   22.7860 H   0  0  0  0  0  0  0  0  0  0  0  0
    9.0900   -1.3297   22.3895 C   0  0  0  0  0  0  0  0  0  0  0  0
    7.9293   -1.7453   22.9135 C   0  0  0  0  0  0  0  0  0  0  0  0
    7.7169   -2.4839   24.1790 C   0  0  0  0  0  0  0  0  0  0  0  0
    8.6150   -3.2118   24.5740 O   0  0  0  0  0  0  0  0  0  0  0  0
    6.4576   -2.3434   25.0140 C   0  0  0  0  0  0  0  0  0  0  0  0
    6.0295   -3.4550   25.7732 C   0  0  0  0  0  0  0  0  0  0  0  0
    6.5994   -4.3823   25.7416 H   0  0  0  0  0  0  0  0  0  0  0  0
    4.8934   -3.3813   26.5792 C   0  0  0  0  0  0  0  0  0  0  0  0
    4.5510   -4.2357   27.1544 H   0  0  0  0  0  0  0  0  0  0  0  0
    4.1876   -2.1782   26.6586 C   0  0  0  0  0  0  0  0  0  0  0  0
    2.7643   -2.0820   27.6554 Cl  0  0  0  0  0  0  0  0  0  0  0  0
    4.6101   -1.0544   25.9502 C   0  0  0  0  0  0  0  0  0  0  0  0
    4.0509   -0.1311   26.0414 H   0  0  0  0  0  0  0  0  0  0  0  0
    5.7463   -1.1342   25.1374 C   0  0  0  0  0  0  0  0  0  0  0  0
    6.0743   -0.2402   24.6093 H   0  0  0  0  0  0  0  0  0  0  0  0
    6.8626   -1.5372   21.9192 C   0  0  0  0  0  0  0  0  0  0  0  0
    5.7841   -2.0856   21.8611 O   0  0  0  0  0  0  0  0  0  0  0  0
    7.4232   -0.6626   20.9656 N   0  0  0  0  0  0  0  0  0  0  0  0
    6.7107   -0.0031   19.9241 C   0  0  0  0  0  0  0  0  0  0  0  0
    7.2112    0.0595   18.6008 C   0  0  0  0  0  0  0  0  0  0  0  0
    8.1541   -0.4296   18.3631 H   0  0  0  0  0  0  0  0  0  0  0  0
    6.5853    0.6639   17.5853 N   0  0  0  0  0  0  0  0  0  0  0  0
    5.4197    1.2760   17.8527 C   0  0  0  0  0  0  0  0  0  0  0  0
    4.9405    1.7808   17.0173 H   0  0  0  0  0  0  0  0  0  0  0  0
    4.8319    1.2860   19.1229 C   0  0  0  0  0  0  0  0  0  0  0  0
    3.8923    1.8145   19.2760 H   0  0  0  0  0  0  0  0  0  0  0  0
    5.4774    0.6268   20.1765 C   0  0  0  0  0  0  0  0  0  0  0  0
    5.0305    0.5910   21.1701 H   0  0  0  0  0  0  0  0  0  0  0  0
    8.8775   -0.6554   21.0788 C   0  0  0  0  0  0  0  0  0  0  0  0
    9.3461   -1.2401   20.2744 H   0  0  0  0  0  0  0  0  0  0  0  0
    9.3286    0.3443   21.0430 H   0  0  0  0  0  0  0  0  0  0  0  0
  1  2  1  0
  2  3  2  0
  3  4  1  0
  4  5  2  0
  4  6  1  0
  6  7  2  0
  7  8  1  0
  7  9  1  0
  9 10  1  0
  9 11  2  0
 11 12  1  0
 11 13  1  0
 13 14  1  0
 13 15  2  0
 15 16  1  0
  3 17  1  0
 17 18  2  0
 17 19  1  0
 19 20  1  0
 20 21  2  0
 21 22  1  0
 21 23  1  0
 23 24  2  0
 24 25  1  0
 24 26  1  0
 26 27  1  0
 26 28  2  0
 28 29  1  0
 19 30  1  0
 30 31  1  0
 30 32  1  0
 30  2  1  0
 15  6  1  0
 28 20  1  0
M  END
>  <plip>  (1) 
-0.07142857142857142

>  <filename>  (1) 
[H][C]1=[C]([C](=[O])[c]2[c]([H])[c]([H])[c]([Cl])[c]([H])[c]2[H])[C](=[O])[N]([c]2[c]([H])[n][c]([H])[c]([H])[c]2[H])[C]1([H])[H]

$$$$
