
     RDKit          3D

 32 34  0  0  0  0  0  0  0  0999 V2000
    4.9402    1.7829   16.9993 H   0  0  0  0  0  0  0  0  0  0  0  0
    5.4083    1.2815   17.8442 C   0  0  0  0  0  0  0  0  0  0  0  0
    6.5743    0.6623   17.5948 N   0  0  0  0  0  0  0  0  0  0  0  0
    7.1848    0.0471   18.6165 C   0  0  0  0  0  0  0  0  0  0  0  0
    8.1293   -0.4444   18.3940 H   0  0  0  0  0  0  0  0  0  0  0  0
    6.6638    0.0272   19.9264 C   0  0  0  0  0  0  0  0  0  0  0  0
    7.3735   -0.6837   20.9048 O   0  0  0  0  0  0  0  0  0  0  0  0
    7.3378   -0.3035   22.2235 C   0  0  0  0  0  0  0  0  0  0  0  0
    7.0003    0.7904   22.5981 O   0  0  0  0  0  0  0  0  0  0  0  0
    7.8321   -1.4339   23.1812 C   0  0  0  0  0  0  0  0  0  0  0  0
    6.8614   -2.2955   23.8406 N   0  0  0  0  0  0  0  0  0  0  0  0
    6.4638   -1.9958   24.7161 H   0  0  0  0  0  0  0  0  0  0  0  0
    6.2162   -3.3181   23.1917 C   0  0  0  0  0  0  0  0  0  0  0  0
    6.4753   -3.6206   22.0394 O   0  0  0  0  0  0  0  0  0  0  0  0
    5.1814   -4.0415   23.9840 C   0  0  0  0  0  0  0  0  0  0  0  0
    4.3170   -5.2904   23.1501 S   0  0  0  0  0  0  0  0  0  0  0  0
    3.4296   -5.6919   24.5551 C   0  0  0  0  0  0  0  0  0  0  0  0
    2.6972   -6.4892   24.5198 H   0  0  0  0  0  0  0  0  0  0  0  0
    3.7727   -4.9141   25.6239 C   0  0  0  0  0  0  0  0  0  0  0  0
    3.3226   -5.0217   26.6072 H   0  0  0  0  0  0  0  0  0  0  0  0
    4.7814   -3.9626   25.2983 C   0  0  0  0  0  0  0  0  0  0  0  0
    5.1921   -3.2754   26.0347 H   0  0  0  0  0  0  0  0  0  0  0  0
    9.1719   -2.0829   22.9204 C   0  0  0  0  0  0  0  0  0  0  0  0
    9.2396   -3.1308   23.2004 H   0  0  0  0  0  0  0  0  0  0  0  0
    9.7095   -1.8276   22.0110 H   0  0  0  0  0  0  0  0  0  0  0  0
    9.0404   -1.0769   24.0251 C   0  0  0  0  0  0  0  0  0  0  0  0
    9.4785   -0.0880   23.8952 H   0  0  0  0  0  0  0  0  0  0  0  0
    9.0538   -1.4167   25.0607 H   0  0  0  0  0  0  0  0  0  0  0  0
    5.4415    0.6528   20.1762 C   0  0  0  0  0  0  0  0  0  0  0  0
    5.0075    0.6458   21.1729 H   0  0  0  0  0  0  0  0  0  0  0  0
    4.8103    1.2955   19.1065 C   0  0  0  0  0  0  0  0  0  0  0  0
    3.8785    1.8281   19.2530 H   0  0  0  0  0  0  0  0  0  0  0  0
  1  2  1  0
  2  3  2  0
  3  4  1  0
  4  5  1  0
  4  6  2  0
  6  7  1  0
  7  8  1  0
  8  9  2  0
  8 10  1  0
 10 11  1  0
 11 12  1  0
 11 13  1  0
 13 14  2  0
 13 15  1  0
 15 16  1  0
 16 17  1  0
 17 18  1  0
 17 19  2  0
 19 20  1  0
 19 21  1  0
 21 22  1  0
 10 23  1  0
 23 24  1  0
 23 25  1  0
 23 26  1  0
 26 27  1  0
 26 28  1  0
  6 29  1  0
 29 30  1  0
 29 31  2  0
 31 32  1  0
 31  2  1  0
 26 10  1  0
 21 15  2  0
M  END
>  <plip>  (1) 
-0.03571428571428571

>  <filename>  (1) 
[H][c]1[n][c]([H])[c]([O][C](=[O])[C]2([N]([H])[C](=[O])[c]3[s][c]([H])[c]([H])[c]3[H])[C]([H])([H])[C]2([H])[H])[c]([H])[c]1[H]

$$$$
