
     RDKit          3D

 43 45  0  0  0  0  0  0  0  0999 V2000
   11.7857    2.3506   23.6214 C   0  0  0  0  0  0  0  0  0  0  0  0
   10.2724    2.3890   23.5304 C   0  0  2  0  0  0  0  0  0  0  0  0
    9.6864    2.0491   22.1438 C   0  0  0  0  0  0  0  0  0  0  0  0
    8.1213    2.2261   22.0849 N   0  0  0  0  0  4  0  0  0  0  0  0
    7.3556    1.2156   22.9333 C   0  0  0  0  0  0  0  0  0  0  0  0
    7.6379   -0.1153   22.3501 C   0  0  0  0  0  0  0  0  0  0  0  0
    8.3200   -1.1462   22.9446 C   0  0  0  0  0  0  0  0  0  0  0  0
    8.4547   -2.1072   22.0089 N   0  0  0  0  0  0  0  0  0  0  0  0
    9.1905   -3.3268   22.1722 C   0  0  0  0  0  0  0  0  0  0  0  0
    9.0762   -3.6637   23.2021 H   0  0  0  0  0  0  0  0  0  0  0  0
    8.7647   -4.0780   21.5046 H   0  0  0  0  0  0  0  0  0  0  0  0
   10.2525   -3.1399   21.9729 H   0  0  0  0  0  0  0  0  0  0  0  0
    7.9481   -1.7586   20.8261 N   0  0  0  0  0  0  0  0  0  0  0  0
    7.4216   -0.5488   21.0095 C   0  0  0  0  0  0  0  0  0  0  0  0
    6.6852    0.1130   19.9275 C   0  0  0  0  0  0  0  0  0  0  0  0
    5.4351    0.7177   20.1360 C   0  0  0  0  0  0  0  0  0  0  0  0
    4.8004    1.3348   19.0591 C   0  0  0  0  0  0  0  0  0  0  0  0
    5.4262    1.3123   17.8086 C   0  0  0  0  0  0  0  0  0  0  0  0
    6.5867    0.6794   17.5792 N   0  0  0  0  0  0  0  0  0  0  0  0
    7.1843    0.0760   18.6122 C   0  0  0  0  0  0  0  0  0  0  0  0
    8.0994   -0.4677   18.3780 H   0  0  0  0  0  0  0  0  0  0  0  0
    4.9785    1.8289   16.9600 H   0  0  0  0  0  0  0  0  0  0  0  0
    3.8512    1.8392   19.1834 H   0  0  0  0  0  0  0  0  0  0  0  0
    4.9598    0.6759   21.1169 H   0  0  0  0  0  0  0  0  0  0  0  0
    8.7607   -1.2513   23.9347 H   0  0  0  0  0  0  0  0  0  0  0  0
    7.6698    1.2855   23.9844 H   0  0  0  0  0  0  0  0  0  0  0  0
    6.2846    1.4534   22.9148 H   0  0  0  0  0  0  0  0  0  0  0  0
    7.8190    3.6686   22.4339 C   0  0  0  0  0  0  0  0  0  0  0  0
    8.3849    4.0262   23.8355 C   0  0  0  0  0  0  0  0  0  0  0  0
    9.8652    3.8162   23.8952 N   0  0  0  0  0  4  0  0  0  0  0  0
   10.3265    4.4287   23.1722 H   0  0  0  0  0  0  0  0  0  0  0  0
   10.2796    4.0533   24.8192 H   0  0  0  0  0  0  0  0  0  0  0  0
    8.1013    5.0409   24.1111 H   0  0  0  0  0  0  0  0  0  0  0  0
    7.8915    3.3465   24.5416 H   0  0  0  0  0  0  0  0  0  0  0  0
    8.2729    4.3213   21.6769 H   0  0  0  0  0  0  0  0  0  0  0  0
    6.7401    3.8592   22.4074 H   0  0  0  0  0  0  0  0  0  0  0  0
    7.8255    1.9521   21.1160 H   0  0  0  0  0  0  0  0  0  0  0  0
    9.9448    1.0323   21.8482 H   0  0  0  0  0  0  0  0  0  0  0  0
   10.1242    2.7594   21.4287 H   0  0  0  0  0  0  0  0  0  0  0  0
    9.8230    1.7043   24.2575 H   0  0  0  0  0  0  0  0  0  0  0  0
   12.2256    3.0749   22.9242 H   0  0  0  0  0  0  0  0  0  0  0  0
   12.2164    1.3674   23.4043 H   0  0  0  0  0  0  0  0  0  0  0  0
   12.0907    2.6295   24.6380 H   0  0  0  0  0  0  0  0  0  0  0  0
  1  2  1  0
  2  3  1  0
  3  4  1  0
  4  5  1  0
  5  6  1  0
  6  7  2  0
  7  8  1  0
  8  9  1  0
  9 10  1  0
  9 11  1  0
  9 12  1  0
  8 13  1  0
 13 14  2  0
 14 15  1  0
 15 16  2  0
 16 17  1  0
 17 18  2  0
 18 19  1  0
 19 20  2  0
 20 21  1  0
 18 22  1  0
 17 23  1  0
 16 24  1  0
  7 25  1  0
  5 26  1  0
  5 27  1  0
  4 28  1  0
 28 29  1  0
 29 30  1  0
 30 31  1  0
 30 32  1  0
 29 33  1  0
 29 34  1  0
 28 35  1  0
 28 36  1  0
  4 37  1  0
  3 38  1  0
  3 39  1  0
  2 40  1  1
  1 41  1  0
  1 42  1  0
  1 43  1  0
 30  2  1  0
 14  6  1  0
 20 15  1  0
M  CHG  2   4   1  30   1
M  END
>  <plip>  (1) 
-0.14285714285714285

>  <filename>  (1) 
[H][c]1[n][c]([H])[c](-[c]2[n][n]([C]([H])([H])[H])[c]([H])[c]2[C]([H])([H])[N+]2([H])[C]([H])([H])[C]([H])([H])[N+]([H])([H])[C@]([H])([C]([H])([H])[H])[C]2([H])[H])[c]([H])[c]1[H]

$$$$
