
     RDKit          3D

 39 41  0  0  0  0  0  0  0  0999 V2000
    7.2376   -6.3734   31.2855 C   0  0  0  0  0  0  0  0  0  0  0  0
    7.1990   -5.8516   29.9441 O   0  0  0  0  0  0  0  0  0  0  0  0
    6.0715   -6.0604   29.2363 C   0  0  0  0  0  0  0  0  0  0  0  0
    5.1611   -6.7460   29.6526 O   0  0  0  0  0  0  0  0  0  0  0  0
    6.0359   -5.3275   27.9192 C   0  0  0  0  0  0  0  0  0  0  0  0
    4.8048   -5.3847   27.2347 C   0  0  0  0  0  0  0  0  0  0  0  0
    4.6216   -4.7243   26.0270 C   0  0  0  0  0  0  0  0  0  0  0  0
    5.6907   -4.0079   25.4937 C   0  0  0  0  0  0  0  0  0  0  0  0
    5.7060   -3.2230   24.2222 C   0  0  0  0  0  0  0  0  0  0  0  0
    7.0726   -2.6974   24.1572 N   0  0  0  0  0  0  0  0  0  0  0  0
    7.6260   -1.9725   23.1395 C   0  0  0  0  0  0  0  0  0  0  0  0
    8.7723   -1.5386   23.2238 O   0  0  0  0  0  0  0  0  0  0  0  0
    6.7512   -1.6782   21.8021 C   0  0  0  0  0  0  0  0  0  0  0  0
    5.6925   -2.2244   21.5424 O   0  0  0  0  0  0  0  0  0  0  0  0
    7.3421   -0.7641   20.9574 N   0  0  0  0  0  0  0  0  0  0  0  0
    6.6788   -0.0604   19.8961 C   0  0  0  0  0  0  0  0  0  0  0  0
    5.4658    0.5919   20.1383 C   0  0  0  0  0  0  0  0  0  0  0  0
    4.8490    1.2817   19.0863 C   0  0  0  0  0  0  0  0  0  0  0  0
    5.4613    1.2888   17.8292 C   0  0  0  0  0  0  0  0  0  0  0  0
    6.6291    0.6749   17.5780 N   0  0  0  0  0  0  0  0  0  0  0  0
    7.2244    0.0313   18.5938 C   0  0  0  0  0  0  0  0  0  0  0  0
    8.1760   -0.4459   18.3669 H   0  0  0  0  0  0  0  0  0  0  0  0
    4.9956    1.8003   16.9884 H   0  0  0  0  0  0  0  0  0  0  0  0
    3.9160    1.8163   19.2311 H   0  0  0  0  0  0  0  0  0  0  0  0
    5.0350    0.5651   21.1399 H   0  0  0  0  0  0  0  0  0  0  0  0
    8.2572   -0.4513   21.2473 H   0  0  0  0  0  0  0  0  0  0  0  0
    7.8670   -3.0586   25.3545 C   0  0  0  0  0  0  0  0  0  0  0  0
    6.9190   -3.9238   26.1550 C   0  0  0  0  0  0  0  0  0  0  0  0
    7.1081   -4.5821   27.3739 C   0  0  0  0  0  0  0  0  0  0  0  0
    8.0558   -4.5231   27.9074 H   0  0  0  0  0  0  0  0  0  0  0  0
    8.7810   -3.5844   25.0583 H   0  0  0  0  0  0  0  0  0  0  0  0
    8.1761   -2.1562   25.8948 H   0  0  0  0  0  0  0  0  0  0  0  0
    5.4690   -3.8276   23.3433 H   0  0  0  0  0  0  0  0  0  0  0  0
    4.9754   -2.4148   24.2866 H   0  0  0  0  0  0  0  0  0  0  0  0
    3.6618   -4.7652   25.5209 H   0  0  0  0  0  0  0  0  0  0  0  0
    3.9885   -5.9493   27.6756 H   0  0  0  0  0  0  0  0  0  0  0  0
    7.4784   -7.4426   31.2847 H   0  0  0  0  0  0  0  0  0  0  0  0
    6.2826   -6.2266   31.8041 H   0  0  0  0  0  0  0  0  0  0  0  0
    8.0304   -5.8230   31.7888 H   0  0  0  0  0  0  0  0  0  0  0  0
  1  2  1  0
  2  3  1  0
  3  4  2  0
  3  5  1  0
  5  6  2  0
  6  7  1  0
  7  8  2  0
  8  9  1  0
  9 10  1  0
 10 11  1  0
 11 12  2  0
 11 13  1  0
 13 14  2  0
 13 15  1  0
 15 16  1  0
 16 17  2  0
 17 18  1  0
 18 19  2  0
 19 20  1  0
 20 21  2  0
 21 22  1  0
 19 23  1  0
 18 24  1  0
 17 25  1  0
 15 26  1  0
 10 27  1  0
 27 28  1  0
 28 29  2  0
 29 30  1  0
 27 31  1  0
 27 32  1  0
  9 33  1  0
  9 34  1  0
  7 35  1  0
  6 36  1  0
  1 37  1  0
  1 38  1  0
  1 39  1  0
 29  5  1  0
 28  8  1  0
 21 16  1  0
M  END
>  <plip>  (1) 
-0.07142857142857142

>  <filename>  (1) 
[H][c]1[n][c]([H])[c]([N]([H])[C](=[O])[C](=[O])[N]2[C]([H])([H])[c]3[c]([H])[c]([H])[c]([C](=[O])[O][C]([H])([H])[H])[c]([H])[c]3[C]2([H])[H])[c]([H])[c]1[H]

$$$$
