
     RDKit          3D

 51 54  0  0  0  0  0  0  0  0999 V2000
    6.9166    1.6174   22.3169 O   0  0  0  0  0  0  0  0  0  0  0  0
    8.0647    1.2161   22.2466 C   0  0  0  0  0  0  0  0  0  0  0  0
    8.4458    0.1085   21.5505 N   0  0  0  0  0  0  0  0  0  0  0  0
    7.4538   -0.8435   21.0360 C   0  0  0  0  0  0  0  0  0  0  0  0
    6.7569   -1.5603   22.2223 C   0  0  0  0  0  0  0  0  0  0  0  0
    5.8921   -2.7735   21.8679 C   0  0  0  0  0  0  0  0  0  0  0  0
    5.3906   -3.6191   23.0432 C   0  0  0  0  0  0  0  0  0  0  0  0
    4.8551   -4.8834   22.3597 C   0  0  0  0  0  0  0  0  0  0  0  0
    5.8097   -5.1356   21.1679 C   0  0  0  0  0  0  0  0  0  0  0  0
    6.5984   -3.8180   20.9900 C   0  0  0  0  0  0  0  0  0  0  0  0
    6.6093   -3.4917   19.9482 H   0  0  0  0  0  0  0  0  0  0  0  0
    7.6428   -3.9532   21.3103 H   0  0  0  0  0  0  0  0  0  0  0  0
    5.2570   -5.3904   20.2570 H   0  0  0  0  0  0  0  0  0  0  0  0
    6.4863   -5.9749   21.3654 H   0  0  0  0  0  0  0  0  0  0  0  0
    3.8413   -4.6707   22.0014 H   0  0  0  0  0  0  0  0  0  0  0  0
    4.7727   -5.7383   23.0381 H   0  0  0  0  0  0  0  0  0  0  0  0
    4.6196   -3.1238   23.6404 H   0  0  0  0  0  0  0  0  0  0  0  0
    6.2292   -3.8470   23.7176 H   0  0  0  0  0  0  0  0  0  0  0  0
    5.0184   -2.4236   21.3094 H   0  0  0  0  0  0  0  0  0  0  0  0
    6.1997   -0.8154   22.7991 H   0  0  0  0  0  0  0  0  0  0  0  0
    7.5703   -1.8964   22.8856 H   0  0  0  0  0  0  0  0  0  0  0  0
    6.6120   -0.1467   19.9641 C   0  0  0  0  0  0  0  0  0  0  0  0
    5.3873    0.5117   20.1519 C   0  0  0  0  0  0  0  0  0  0  0  0
    4.8114    1.1926   19.0692 C   0  0  0  0  0  0  0  0  0  0  0  0
    5.4694    1.2003   17.8375 C   0  0  0  0  0  0  0  0  0  0  0  0
    6.6399    0.5774   17.6315 N   0  0  0  0  0  0  0  0  0  0  0  0
    7.1785   -0.0611   18.6767 C   0  0  0  0  0  0  0  0  0  0  0  0
    8.1334   -0.5456   18.4712 H   0  0  0  0  0  0  0  0  0  0  0  0
    5.0485    1.7288   16.9815 H   0  0  0  0  0  0  0  0  0  0  0  0
    3.8841    1.7424   19.1806 H   0  0  0  0  0  0  0  0  0  0  0  0
    4.9162    0.5563   21.1349 H   0  0  0  0  0  0  0  0  0  0  0  0
    8.0417   -1.6073   20.5061 H   0  0  0  0  0  0  0  0  0  0  0  0
    9.3231   -0.2631   21.8777 H   0  0  0  0  0  0  0  0  0  0  0  0
    9.2172    2.0152   22.9084 C   0  0  0  0  0  0  0  0  0  0  0  0
   10.0807    2.8108   21.9021 C   0  0  0  0  0  0  0  0  0  0  0  0
   11.4506    2.1045   21.8505 C   0  0  0  0  0  0  0  0  0  0  0  0
   11.5023    1.3686   23.1524 C   0  0  0  0  0  0  0  0  0  0  0  0
   12.5782    0.8606   23.8282 C   0  0  0  0  0  0  0  0  0  0  0  0
   12.3651    0.2573   25.0985 C   0  0  0  0  0  0  0  0  0  0  0  0
   11.1093    0.1911   25.6350 C   0  0  0  0  0  0  0  0  0  0  0  0
    9.9427    0.6646   24.9125 C   0  0  0  0  0  0  0  0  0  0  0  0
    8.7912    0.5718   25.3127 O   0  0  0  0  0  0  0  0  0  0  0  0
   10.2335    1.2514   23.6617 N   0  0  0  0  0  0  0  0  0  0  0  0
   10.8658   -0.1946   26.6141 H   0  0  0  0  0  0  0  0  0  0  0  0
   13.2270   -0.1452   25.6345 H   0  0  0  0  0  0  0  0  0  0  0  0
   13.5714    0.9484   23.4037 H   0  0  0  0  0  0  0  0  0  0  0  0
   11.5262    1.3923   21.0217 H   0  0  0  0  0  0  0  0  0  0  0  0
   12.2867    2.8013   21.7635 H   0  0  0  0  0  0  0  0  0  0  0  0
   10.1940    3.8302   22.2818 H   0  0  0  0  0  0  0  0  0  0  0  0
    9.6017    2.8720   20.9221 H   0  0  0  0  0  0  0  0  0  0  0  0
    8.6745    2.6691   23.5876 H   0  0  0  0  0  0  0  0  0  0  0  0
  1  2  2  0
  2  3  1  0
  3  4  1  0
  4  5  1  0
  5  6  1  0
  6  7  1  0
  7  8  1  0
  8  9  1  0
  9 10  1  0
 10 11  1  0
 10 12  1  0
  9 13  1  0
  9 14  1  0
  8 15  1  0
  8 16  1  0
  7 17  1  0
  7 18  1  0
  6 19  1  0
  5 20  1  0
  5 21  1  0
  4 22  1  0
 22 23  2  0
 23 24  1  0
 24 25  2  0
 25 26  1  0
 26 27  2  0
 27 28  1  0
 25 29  1  0
 24 30  1  0
 23 31  1  0
  4 32  1  0
  3 33  1  0
  2 34  1  0
 34 35  1  0
 35 36  1  0
 36 37  1  0
 37 38  2  0
 38 39  1  0
 39 40  2  0
 40 41  1  0
 41 42  2  0
 41 43  1  0
 40 44  1  0
 39 45  1  0
 38 46  1  0
 36 47  1  0
 36 48  1  0
 35 49  1  0
 35 50  1  0
 34 51  1  0
 10  6  1  0
 27 22  1  0
 43 34  1  0
 43 37  1  0
M  END
>  <plip>  (1) 
-0.1

>  <filename>  (1) 
[H][c]1[n][c]([H])[c]([C]([H])([N]([H])[C](=[O])[C]2([H])[n]3[c]([c]([H])[c]([H])[c]([H])[c]3=[O])[C]([H])([H])[C]2([H])[H])[C]([H])([H])[C]2([H])[C]([H])([H])[C]([H])([H])[C]([H])([H])[C]2([H])[H])[c]([H])[c]1[H]

$$$$
