
     RDKit          3D

 36 38  0  0  0  0  0  0  0  0999 V2000
    7.4407   -2.9479   22.2824 C   0  0  0  0  0  0  0  0  0  0  0  0
    6.6661   -2.0263   21.3379 C   0  0  0  0  0  0  0  0  0  0  0  0
    7.3941   -0.7179   21.0119 C   0  0  0  0  0  0  0  0  0  0  0  0
    7.5972    0.1067   22.1990 N   0  0  0  0  0  0  0  0  0  0  0  0
    8.4357    1.1783   22.1482 C   0  0  0  0  0  0  0  0  0  0  0  0
    9.1387    1.3979   21.1659 O   0  0  0  0  0  0  0  0  0  0  0  0
    8.4792    2.0590   23.3691 C   0  0  0  0  0  0  0  0  0  0  0  0
    9.3173    3.1483   23.5130 C   0  0  0  0  0  0  0  0  0  0  0  0
    9.0606    3.6594   24.7459 N   0  0  0  0  0  0  0  0  0  0  0  0
    9.5877    4.7513   25.4288 C   0  0  0  0  0  0  0  0  0  0  0  0
    9.0967    5.0214   26.6642 C   0  0  0  0  0  0  0  0  0  0  0  0
    8.0988    4.2682   27.2633 N   0  0  0  0  0  0  0  0  0  0  0  0
    7.6230    3.2329   26.6227 C   0  0  0  0  0  0  0  0  0  0  0  0
    8.0660    2.8563   25.3048 C   0  0  0  0  0  0  0  0  0  0  0  0
    7.7043    1.8839   24.4859 N   0  0  0  0  0  0  0  0  0  0  0  0
    6.8574    2.6399   27.1189 H   0  0  0  0  0  0  0  0  0  0  0  0
    9.4780    5.8428   27.2632 H   0  0  0  0  0  0  0  0  0  0  0  0
   10.3615    5.3136   24.9298 H   0  0  0  0  0  0  0  0  0  0  0  0
   10.0493    3.5784   22.8459 H   0  0  0  0  0  0  0  0  0  0  0  0
    6.9685    0.0802   22.9882 H   0  0  0  0  0  0  0  0  0  0  0  0
    6.6630    0.0407   19.9141 C   0  0  0  0  0  0  0  0  0  0  0  0
    5.4358    0.6741   20.1463 C   0  0  0  0  0  0  0  0  0  0  0  0
    4.7974    1.3171   19.0854 C   0  0  0  0  0  0  0  0  0  0  0  0
    5.3959    1.2911   17.8204 C   0  0  0  0  0  0  0  0  0  0  0  0
    6.5577    0.6717   17.5683 N   0  0  0  0  0  0  0  0  0  0  0  0
    7.1665    0.0774   18.6070 C   0  0  0  0  0  0  0  0  0  0  0  0
    8.1149   -0.4093   18.3714 H   0  0  0  0  0  0  0  0  0  0  0  0
    4.9286    1.7925   16.9740 H   0  0  0  0  0  0  0  0  0  0  0  0
    3.8631    1.8453   19.2323 H   0  0  0  0  0  0  0  0  0  0  0  0
    4.9901    0.6669   21.1443 H   0  0  0  0  0  0  0  0  0  0  0  0
    8.3959   -0.9586   20.6257 H   0  0  0  0  0  0  0  0  0  0  0  0
    5.6723   -1.7818   21.7387 H   0  0  0  0  0  0  0  0  0  0  0  0
    6.4773   -2.5346   20.3819 H   0  0  0  0  0  0  0  0  0  0  0  0
    8.4173   -3.2104   21.8563 H   0  0  0  0  0  0  0  0  0  0  0  0
    7.6221   -2.4659   23.2505 H   0  0  0  0  0  0  0  0  0  0  0  0
    6.8952   -3.8794   22.4651 H   0  0  0  0  0  0  0  0  0  0  0  0
  1  2  1  0
  2  3  1  0
  3  4  1  0
  4  5  1  0
  5  6  2  0
  5  7  1  0
  7  8  2  0
  8  9  1  0
  9 10  1  0
 10 11  2  0
 11 12  1  0
 12 13  2  0
 13 14  1  0
 14 15  2  0
 13 16  1  0
 11 17  1  0
 10 18  1  0
  8 19  1  0
  4 20  1  0
  3 21  1  0
 21 22  2  0
 22 23  1  0
 23 24  2  0
 24 25  1  0
 25 26  2  0
 26 27  1  0
 24 28  1  0
 23 29  1  0
 22 30  1  0
  3 31  1  0
  2 32  1  0
  2 33  1  0
  1 34  1  0
  1 35  1  0
  1 36  1  0
 15  7  1  0
 26 21  1  0
 14  9  1  0
M  END
>  <plip>  (1) 
-0.10714285714285714

>  <filename>  (1) 
[H][c]1[n][c]([H])[c]([C]([H])([N]([H])[C](=[O])[c]2[n][c]3[c]([H])[n][c]([H])[c]([H])[n]3[c]2[H])[C]([H])([H])[C]([H])([H])[H])[c]([H])[c]1[H]

$$$$
