
     RDKit          3D

 30 31  0  0  0  0  0  0  0  0999 V2000
    4.9206    1.8420   16.9704 H   0  0  0  0  0  0  0  0  0  0  0  0
    5.3989    1.3312   17.8044 C   0  0  0  0  0  0  0  0  0  0  0  0
    6.5652    0.7268   17.5367 N   0  0  0  0  0  0  0  0  0  0  0  0
    7.1744    0.0926   18.5494 C   0  0  0  0  0  0  0  0  0  0  0  0
    8.1114   -0.3974   18.2864 H   0  0  0  0  0  0  0  0  0  0  0  0
    6.6598   -0.0127   19.8648 C   0  0  0  0  0  0  0  0  0  0  0  0
    7.3742   -0.7454   20.9518 C   0  0  0  0  0  0  0  0  0  0  0  0
    8.6285   -0.5396   21.4229 C   0  0  0  0  0  0  0  0  0  0  0  0
    9.6316    0.5378   21.1289 C   0  0  0  0  0  0  0  0  0  0  0  0
   10.6087    0.0642   20.9672 H   0  0  0  0  0  0  0  0  0  0  0  0
    9.3633    1.0449   20.1950 H   0  0  0  0  0  0  0  0  0  0  0  0
    9.7682    1.5779   22.2690 C   0  0  0  0  0  0  0  0  0  0  0  0
   10.4860    2.3630   21.9680 H   0  0  0  0  0  0  0  0  0  0  0  0
   10.1972    1.0934   23.1546 H   0  0  0  0  0  0  0  0  0  0  0  0
    8.4377    2.2471   22.6369 C   0  0  0  0  0  0  0  0  0  0  0  0
    8.5438    2.8024   23.5799 H   0  0  0  0  0  0  0  0  0  0  0  0
    7.6607    1.4885   22.8330 H   0  0  0  0  0  0  0  0  0  0  0  0
    7.9427    3.1359   21.5927 N   0  0  0  0  0  0  0  0  0  0  0  0
    7.6375    2.5976   20.7816 H   0  0  0  0  0  0  0  0  0  0  0  0
    8.7071    3.7155   21.2457 H   0  0  0  0  0  0  0  0  0  0  0  0
    8.8685   -1.4761   22.5742 C   0  0  0  0  0  0  0  0  0  0  0  0
    9.0708   -0.9387   23.5130 H   0  0  0  0  0  0  0  0  0  0  0  0
    9.7120   -2.1583   22.4126 H   0  0  0  0  0  0  0  0  0  0  0  0
    7.6800   -2.2313   22.7066 O   0  0  0  0  0  0  0  0  0  0  0  0
    6.7582   -1.8328   21.7791 C   0  0  0  0  0  0  0  0  0  0  0  0
    5.6887   -2.3694   21.6847 O   0  0  0  0  0  0  0  0  0  0  0  0
    5.4229    0.6180   20.1042 C   0  0  0  0  0  0  0  0  0  0  0  0
    4.9769    0.5882   21.1010 H   0  0  0  0  0  0  0  0  0  0  0  0
    4.7946    1.3115   19.0651 C   0  0  0  0  0  0  0  0  0  0  0  0
    3.8594    1.8435   19.2140 H   0  0  0  0  0  0  0  0  0  0  0  0
  1  2  1  0
  2  3  2  0
  3  4  1  0
  4  5  1  0
  4  6  2  0
  6  7  1  0
  7  8  2  0
  8  9  1  0
  9 10  1  0
  9 11  1  0
  9 12  1  0
 12 13  1  0
 12 14  1  0
 12 15  1  0
 15 16  1  0
 15 17  1  0
 15 18  1  0
 18 19  1  0
 18 20  1  0
  8 21  1  0
 21 22  1  0
 21 23  1  0
 21 24  1  0
 24 25  1  0
 25 26  2  0
  6 27  1  0
 27 28  1  0
 27 29  2  0
 29 30  1  0
 29  2  1  0
 25  7  1  0
M  END
>  <plip>  (1) 
-0.10714285714285714

>  <filename>  (1) 
[H][c]1[n][c]([H])[c]([C]2=[C]([C]([H])([H])[C]([H])([H])[C]([H])([H])[N]([H])[H])[C]([H])([H])[O][C]2=[O])[c]([H])[c]1[H]

$$$$
