
     RDKit          3D

 42 44  0  0  0  0  0  0  0  0999 V2000
    5.5466   -3.4673   23.0718 C   0  0  0  0  0  0  0  0  0  0  0  0
    6.3010   -2.3346   22.6400 O   0  0  0  0  0  0  0  0  0  0  0  0
    6.6193   -2.2157   21.3453 C   0  0  0  0  0  0  0  0  0  0  0  0
    6.3441   -3.0169   20.4846 O   0  0  0  0  0  0  0  0  0  0  0  0
    7.3967   -0.8884   21.0402 C   0  0  0  0  0  0  0  0  0  0  0  0
    7.6950    0.0002   22.1528 N   0  0  0  0  0  0  0  0  0  0  0  0
    8.6627   -0.2677   23.0840 C   0  0  0  0  0  0  0  0  0  0  0  0
    9.5405   -1.0939   22.9199 O   0  0  0  0  0  0  0  0  0  0  0  0
    8.4992    0.5574   24.3584 C   0  0  0  0  0  0  0  0  0  0  0  0
    7.4776   -0.0650   25.2962 C   0  0  0  0  0  0  0  0  0  0  0  0
    7.8616   -1.0723   26.1557 C   0  0  0  0  0  0  0  0  0  0  0  0
    6.9295   -1.7562   26.9657 C   0  0  0  0  0  0  0  0  0  0  0  0
    5.5934   -1.4089   26.9225 C   0  0  0  0  0  0  0  0  0  0  0  0
    4.4670   -2.2636   27.9361 Cl  0  0  0  0  0  0  0  0  0  0  0  0
    5.1206   -0.3741   26.0593 C   0  0  0  0  0  0  0  0  0  0  0  0
    3.7571    0.0368   25.9523 C   0  0  0  0  0  0  0  0  0  0  0  0
    3.4418    1.0611   25.0884 C   0  0  0  0  0  0  0  0  0  0  0  0
    4.4686    1.6579   24.3160 C   0  0  0  0  0  0  0  0  0  0  0  0
    5.7299    1.2846   24.3515 N   0  0  0  0  0  0  0  0  0  0  0  0
    6.0862    0.2979   25.2356 C   0  0  0  0  0  0  0  0  0  0  0  0
    4.2179    2.4728   23.6384 H   0  0  0  0  0  0  0  0  0  0  0  0
    2.4227    1.4131   24.9794 H   0  0  0  0  0  0  0  0  0  0  0  0
    3.0079   -0.4628   26.5625 H   0  0  0  0  0  0  0  0  0  0  0  0
    7.2531   -2.5654   27.6110 H   0  0  0  0  0  0  0  0  0  0  0  0
    8.9155   -1.3424   26.2044 H   0  0  0  0  0  0  0  0  0  0  0  0
    9.4902    0.5946   24.8147 H   0  0  0  0  0  0  0  0  0  0  0  0
    8.1979    1.5745   24.0905 H   0  0  0  0  0  0  0  0  0  0  0  0
    6.9074    0.5139   22.5397 H   0  0  0  0  0  0  0  0  0  0  0  0
    6.6829   -0.0920   19.9603 C   0  0  0  0  0  0  0  0  0  0  0  0
    5.4494    0.5379   20.1802 C   0  0  0  0  0  0  0  0  0  0  0  0
    4.8552    1.2458   19.1341 C   0  0  0  0  0  0  0  0  0  0  0  0
    5.5061    1.2816   17.8945 C   0  0  0  0  0  0  0  0  0  0  0  0
    6.6779    0.6730   17.6590 N   0  0  0  0  0  0  0  0  0  0  0  0
    7.2417    0.0132   18.6798 C   0  0  0  0  0  0  0  0  0  0  0  0
    8.1933   -0.4774   18.4640 H   0  0  0  0  0  0  0  0  0  0  0  0
    5.0638    1.8151   17.0534 H   0  0  0  0  0  0  0  0  0  0  0  0
    3.9085    1.7617   19.2611 H   0  0  0  0  0  0  0  0  0  0  0  0
    4.9597    0.4762   21.1575 H   0  0  0  0  0  0  0  0  0  0  0  0
    8.3499   -1.2514   20.6345 H   0  0  0  0  0  0  0  0  0  0  0  0
    6.1919   -4.3476   23.1514 H   0  0  0  0  0  0  0  0  0  0  0  0
    4.7324   -3.6820   22.3736 H   0  0  0  0  0  0  0  0  0  0  0  0
    5.1683   -3.1835   24.0554 H   0  0  0  0  0  0  0  0  0  0  0  0
  1  2  1  0
  2  3  1  0
  3  4  2  0
  3  5  1  0
  5  6  1  0
  6  7  1  0
  7  8  2  0
  7  9  1  0
  9 10  1  0
 10 11  2  0
 11 12  1  0
 12 13  2  0
 13 14  1  0
 13 15  1  0
 15 16  2  0
 16 17  1  0
 17 18  2  0
 18 19  1  0
 19 20  2  0
 18 21  1  0
 17 22  1  0
 16 23  1  0
 12 24  1  0
 11 25  1  0
  9 26  1  0
  9 27  1  0
  6 28  1  0
  5 29  1  0
 29 30  2  0
 30 31  1  0
 31 32  2  0
 32 33  1  0
 33 34  2  0
 34 35  1  0
 32 36  1  0
 31 37  1  0
 30 38  1  0
  5 39  1  0
  1 40  1  0
  1 41  1  0
  1 42  1  0
 20 10  1  0
 34 29  1  0
 20 15  1  0
M  END
>  <plip>  (1) 
-0.10714285714285714

>  <filename>  (1) 
[H][c]1[n][c]([H])[c]([C]([H])([C](=[O])[O][C]([H])([H])[H])[N]([H])[C](=[O])[C]([H])([H])[c]2[c]([H])[c]([H])[c]([Cl])[c]3[c]([H])[c]([H])[c]([H])[n][c]23)[c]([H])[c]1[H]

$$$$
