
     RDKit          3D

 29 30  0  0  0  0  0  0  0  0999 V2000
    4.9273    1.7812   16.9988 H   0  0  0  0  0  0  0  0  0  0  0  0
    5.4083    1.2885   17.8412 C   0  0  0  0  0  0  0  0  0  0  0  0
    6.5712    0.6759   17.5819 N   0  0  0  0  0  0  0  0  0  0  0  0
    7.1728    0.0463   18.5949 C   0  0  0  0  0  0  0  0  0  0  0  0
    8.1203   -0.4322   18.3668 H   0  0  0  0  0  0  0  0  0  0  0  0
    6.6583   -0.0098   19.9018 C   0  0  0  0  0  0  0  0  0  0  0  0
    7.4005   -0.7168   20.9737 C   0  0  0  0  0  0  0  0  0  0  0  0
    8.1307   -1.7996   20.6294 N   0  0  0  0  0  0  0  0  0  0  0  0
    8.7931   -2.4976   21.5511 N   0  0  0  0  0  0  0  0  0  0  0  0
    8.7674   -2.1189   22.8403 C   0  0  0  0  0  0  0  0  0  0  0  0
    9.5331   -2.9488   23.8298 C   0  0  0  0  0  0  0  0  0  0  0  0
   10.0431   -2.2703   24.5324 H   0  0  0  0  0  0  0  0  0  0  0  0
   10.3037   -3.5282   23.3004 H   0  0  0  0  0  0  0  0  0  0  0  0
    8.6467   -3.7892   24.5511 O   0  0  0  0  0  0  0  0  0  0  0  0
    9.3120   -4.5729   25.5204 C   0  0  0  0  0  0  0  0  0  0  0  0
    9.8132   -3.9243   26.2584 H   0  0  0  0  0  0  0  0  0  0  0  0
   10.0978   -5.1825   25.0439 H   0  0  0  0  0  0  0  0  0  0  0  0
    8.3030   -5.4642   26.2102 C   0  0  0  0  0  0  0  0  0  0  0  0
    7.8183   -6.1360   25.4964 H   0  0  0  0  0  0  0  0  0  0  0  0
    7.5299   -4.8703   26.7059 H   0  0  0  0  0  0  0  0  0  0  0  0
    8.8076   -6.0724   26.9670 H   0  0  0  0  0  0  0  0  0  0  0  0
    8.0567   -0.9736   23.2689 C   0  0  0  0  0  0  0  0  0  0  0  0
    8.0534   -0.6907   24.3227 H   0  0  0  0  0  0  0  0  0  0  0  0
    7.3544   -0.2626   22.3137 C   0  0  0  0  0  0  0  0  0  0  0  0
    6.7953    0.6403   22.5573 H   0  0  0  0  0  0  0  0  0  0  0  0
    5.4424    0.6468   20.1612 C   0  0  0  0  0  0  0  0  0  0  0  0
    4.9899    0.6359   21.1558 H   0  0  0  0  0  0  0  0  0  0  0  0
    4.8101    1.3017   19.1061 C   0  0  0  0  0  0  0  0  0  0  0  0
    3.8788    1.8391   19.2568 H   0  0  0  0  0  0  0  0  0  0  0  0
  1  2  1  0
  2  3  2  0
  3  4  1  0
  4  5  1  0
  4  6  2  0
  6  7  1  0
  7  8  2  0
  8  9  1  0
  9 10  2  0
 10 11  1  0
 11 12  1  0
 11 13  1  0
 11 14  1  0
 14 15  1  0
 15 16  1  0
 15 17  1  0
 15 18  1  0
 18 19  1  0
 18 20  1  0
 18 21  1  0
 10 22  1  0
 22 23  1  0
 22 24  2  0
 24 25  1  0
  6 26  1  0
 26 27  1  0
 26 28  2  0
 28 29  1  0
 28  2  1  0
 24  7  1  0
M  END
>  <plip>  (1) 
-0.034482758620689655

>  <filename>  (1) 
[H][c]1[n][c]([H])[c](-[c]2[n][n][c]([C]([H])([H])[O][C]([H])([H])[C]([H])([H])[H])[c]([H])[c]2[H])[c]([H])[c]1[H]

$$$$
