
     RDKit          3D

 40 41  0  0  0  0  0  0  0  0999 V2000
    8.1462   -3.0017   21.6127 C   0  0  0  0  0  0  0  0  0  0  0  0
    6.9860   -2.2239   20.9658 C   0  0  0  0  0  0  0  0  0  0  0  0
    5.6741   -2.4640   21.7122 C   0  0  0  0  0  0  0  0  0  0  0  0
    4.9513   -1.6980   21.4236 H   0  0  0  0  0  0  0  0  0  0  0  0
    5.2485   -3.4378   21.4533 H   0  0  0  0  0  0  0  0  0  0  0  0
    5.7923   -2.4590   22.8058 H   0  0  0  0  0  0  0  0  0  0  0  0
    7.3402   -0.7185   20.7449 C   0  0  0  0  0  0  0  0  0  0  0  0
    7.3390    0.1656   22.0308 C   0  0  0  0  0  0  0  0  0  0  0  0
    8.4625   -0.0561   22.9185 N   0  0  0  0  0  0  0  0  0  0  0  0
    9.6965    0.4545   22.7170 C   0  0  0  0  0  0  0  0  0  0  0  0
    9.9300    1.0560   21.5554 N   0  0  0  0  0  0  0  0  0  0  0  0
   11.1751    1.4611   21.2969 C   0  0  0  0  0  0  0  0  0  0  0  0
   12.2367    1.3289   22.1928 C   0  0  0  0  0  0  0  0  0  0  0  0
   11.9893    0.7529   23.4372 C   0  0  0  0  0  0  0  0  0  0  0  0
   10.6959    0.3139   23.7039 C   0  0  0  0  0  0  0  0  0  0  0  0
   10.2960   -0.3666   24.9489 C   0  0  0  0  0  0  0  0  0  0  0  0
    9.1969    0.1825   25.5236 F   0  0  0  0  0  0  0  0  0  0  0  0
    9.9689   -1.6681   24.7188 F   0  0  0  0  0  0  0  0  0  0  0  0
   11.2604   -0.3360   25.8759 F   0  0  0  0  0  0  0  0  0  0  0  0
   12.7919    0.6582   24.1767 H   0  0  0  0  0  0  0  0  0  0  0  0
   13.2237    1.6677   21.9229 H   0  0  0  0  0  0  0  0  0  0  0  0
   11.3406    1.8948   20.3115 H   0  0  0  0  0  0  0  0  0  0  0  0
    8.3041   -0.5413   23.7763 H   0  0  0  0  0  0  0  0  0  0  0  0
    6.4108    0.0376   22.6103 H   0  0  0  0  0  0  0  0  0  0  0  0
    7.3714    1.2126   21.6954 H   0  0  0  0  0  0  0  0  0  0  0  0
    6.5595   -0.0470   19.6012 C   0  0  0  0  0  0  0  0  0  0  0  0
    5.3682    0.6726   19.7942 C   0  0  0  0  0  0  0  0  0  0  0  0
    4.8142    1.3842   18.7254 C   0  0  0  0  0  0  0  0  0  0  0  0
    5.4381    1.3273   17.4776 C   0  0  0  0  0  0  0  0  0  0  0  0
    6.5366    0.5953   17.2417 N   0  0  0  0  0  0  0  0  0  0  0  0
    7.0656   -0.0670   18.2795 C   0  0  0  0  0  0  0  0  0  0  0  0
    7.9686   -0.6336   18.0446 H   0  0  0  0  0  0  0  0  0  0  0  0
    5.0413    1.8862   16.6316 H   0  0  0  0  0  0  0  0  0  0  0  0
    3.9355    2.0052   18.8582 H   0  0  0  0  0  0  0  0  0  0  0  0
    4.9003    0.7147   20.7803 H   0  0  0  0  0  0  0  0  0  0  0  0
    8.3861   -0.7264   20.4109 H   0  0  0  0  0  0  0  0  0  0  0  0
    6.8340   -2.6329   19.9586 H   0  0  0  0  0  0  0  0  0  0  0  0
    7.9786   -4.0826   21.5503 H   0  0  0  0  0  0  0  0  0  0  0  0
    8.2743   -2.7574   22.6742 H   0  0  0  0  0  0  0  0  0  0  0  0
    9.1008   -2.7837   21.1184 H   0  0  0  0  0  0  0  0  0  0  0  0
  1  2  1  0
  2  3  1  0
  3  4  1  0
  3  5  1  0
  3  6  1  0
  2  7  1  0
  7  8  1  0
  8  9  1  0
  9 10  1  0
 10 11  2  0
 11 12  1  0
 12 13  2  0
 13 14  1  0
 14 15  2  0
 15 16  1  0
 16 17  1  0
 16 18  1  0
 16 19  1  0
 14 20  1  0
 13 21  1  0
 12 22  1  0
  9 23  1  0
  8 24  1  0
  8 25  1  0
  7 26  1  0
 26 27  2  0
 27 28  1  0
 28 29  2  0
 29 30  1  0
 30 31  2  0
 31 32  1  0
 29 33  1  0
 28 34  1  0
 27 35  1  0
  7 36  1  0
  2 37  1  0
  1 38  1  0
  1 39  1  0
  1 40  1  0
 15 10  1  0
 31 26  1  0
M  END
>  <plip>  (1) 
-0.13793103448275862

>  <filename>  (1) 
[H][c]1[n][c]([N]([H])[C]([H])([H])[C]([H])([c]2[c]([H])[n][c]([H])[c]([H])[c]2[H])[C]([H])([C]([H])([H])[H])[C]([H])([H])[H])[c]([C]([F])([F])[F])[c]([H])[c]1[H]

$$$$
