
     RDKit          3D

 19 20  0  0  0  0  0  0  0  0999 V2000
    9.1270   -1.2045   20.3954 H   0  0  0  0  0  0  0  0  0  0  0  0
    8.7463   -0.5348   20.9957 O   0  0  0  0  0  0  0  0  0  0  0  0
    7.3596   -0.6736   20.9526 N   0  0  0  0  0  0  0  0  0  0  0  0
    6.6849    0.0039   19.9047 C   0  0  0  0  0  0  0  0  0  0  0  0
    7.2021    0.0692   18.5930 C   0  0  0  0  0  0  0  0  0  0  0  0
    8.1503   -0.4035   18.3356 H   0  0  0  0  0  0  0  0  0  0  0  0
    6.5777    0.6794   17.5821 N   0  0  0  0  0  0  0  0  0  0  0  0
    5.4110    1.2961   17.8350 C   0  0  0  0  0  0  0  0  0  0  0  0
    4.9461    1.7982   16.9881 H   0  0  0  0  0  0  0  0  0  0  0  0
    4.8176    1.3072   19.0983 C   0  0  0  0  0  0  0  0  0  0  0  0
    3.8813    1.8398   19.2354 H   0  0  0  0  0  0  0  0  0  0  0  0
    5.4548    0.6384   20.1504 C   0  0  0  0  0  0  0  0  0  0  0  0
    5.0170    0.5870   21.1438 H   0  0  0  0  0  0  0  0  0  0  0  0
    6.7720   -1.6143   21.7898 C   0  0  0  0  0  0  0  0  0  0  0  0
    5.7010   -2.3508   21.5771 N   0  0  0  0  0  0  0  0  0  0  0  0
    5.5886   -3.1502   22.6655 N   0  0  0  0  0  0  0  0  0  0  0  0
    6.5181   -2.9316   23.5141 N   0  0  0  0  0  0  0  0  0  0  0  0
    7.2787   -1.9567   22.9913 N   0  0  0  0  0  0  0  0  0  0  0  0
    8.1965   -1.7365   23.3499 H   0  0  0  0  0  0  0  0  0  0  0  0
  1  2  1  0
  2  3  1  0
  3  4  1  0
  4  5  2  0
  5  6  1  0
  5  7  1  0
  7  8  2  0
  8  9  1  0
  8 10  1  0
 10 11  1  0
 10 12  2  0
 12 13  1  0
  3 14  1  0
 14 15  2  0
 15 16  1  0
 16 17  2  0
 17 18  1  0
 18 19  1  0
 12  4  1  0
 18 14  1  0
M  END
>  <plip>  (1) 
-0.10344827586206896

>  <filename>  (1) 
[H][O][N]([c]1[c]([H])[n][c]([H])[c]([H])[c]1[H])[c]1[n][n][n][n]1[H]

$$$$
