
     RDKit          3D

 34 34  0  0  0  0  0  0  0  0999 V2000
    5.0326    1.7905   16.9989 H   0  0  0  0  0  0  0  0  0  0  0  0
    5.4546    1.2547   17.8445 C   0  0  0  0  0  0  0  0  0  0  0  0
    6.5936    0.5864   17.6056 N   0  0  0  0  0  0  0  0  0  0  0  0
    7.1415   -0.0650   18.6324 C   0  0  0  0  0  0  0  0  0  0  0  0
    8.0663   -0.5976   18.4299 H   0  0  0  0  0  0  0  0  0  0  0  0
    6.6190   -0.0721   19.9390 C   0  0  0  0  0  0  0  0  0  0  0  0
    7.3998   -0.7415   21.0015 C   0  0  0  0  0  0  0  0  0  0  0  0
    8.2736   -1.6136   20.6331 N   0  0  0  0  0  0  0  0  0  0  0  0
    8.7195   -2.5660   21.6034 C   0  0  0  0  0  0  0  0  0  0  0  0
    9.2332   -3.3810   21.0674 H   0  0  0  0  0  0  0  0  0  0  0  0
    9.5081   -2.0853   22.2027 H   0  0  0  0  0  0  0  0  0  0  0  0
    7.6935   -3.1171   22.5157 N   0  0  0  0  0  0  0  0  0  0  0  0
    6.9227   -4.1870   21.8823 C   0  0  0  0  0  0  0  0  0  0  0  0
    6.5438   -3.7919   20.9338 H   0  0  0  0  0  0  0  0  0  0  0  0
    7.5591   -5.0566   21.6157 H   0  0  0  0  0  0  0  0  0  0  0  0
    5.7636   -4.6772   22.7455 C   0  0  0  0  0  0  0  0  0  0  0  0
    5.1755   -3.8303   23.1175 H   0  0  0  0  0  0  0  0  0  0  0  0
    5.1061   -5.3258   22.1581 H   0  0  0  0  0  0  0  0  0  0  0  0
    6.1211   -5.2558   23.6080 H   0  0  0  0  0  0  0  0  0  0  0  0
    8.2259   -3.4161   23.8448 C   0  0  0  0  0  0  0  0  0  0  0  0
    8.5856   -2.4808   24.3003 H   0  0  0  0  0  0  0  0  0  0  0  0
    7.4011   -3.7642   24.4827 H   0  0  0  0  0  0  0  0  0  0  0  0
    9.3556   -4.4525   23.8673 C   0  0  0  0  0  0  0  0  0  0  0  0
   10.2577   -4.0547   23.3910 H   0  0  0  0  0  0  0  0  0  0  0  0
    9.6176   -4.7448   24.8894 H   0  0  0  0  0  0  0  0  0  0  0  0
    9.0473   -5.3493   23.3165 H   0  0  0  0  0  0  0  0  0  0  0  0
    7.2468   -0.3011   22.4404 C   0  0  0  0  0  0  0  0  0  0  0  0
    6.4721   -0.8906   22.9312 H   0  0  0  0  0  0  0  0  0  0  0  0
    6.9886    0.7529   22.5281 H   0  0  0  0  0  0  0  0  0  0  0  0
    8.1812   -0.4650   22.9828 H   0  0  0  0  0  0  0  0  0  0  0  0
    5.4154    0.6180   20.1666 C   0  0  0  0  0  0  0  0  0  0  0  0
    4.9533    0.6440   21.1572 H   0  0  0  0  0  0  0  0  0  0  0  0
    4.8274    1.2853   19.0953 C   0  0  0  0  0  0  0  0  0  0  0  0
    3.9032    1.8395   19.2098 H   0  0  0  0  0  0  0  0  0  0  0  0
  1  2  1  0
  2  3  2  0
  3  4  1  0
  4  5  1  0
  4  6  2  0
  6  7  1  0
  7  8  2  3
  8  9  1  0
  9 10  1  0
  9 11  1  0
  9 12  1  0
 12 13  1  0
 13 14  1  0
 13 15  1  0
 13 16  1  0
 16 17  1  0
 16 18  1  0
 16 19  1  0
 12 20  1  0
 20 21  1  0
 20 22  1  0
 20 23  1  0
 23 24  1  0
 23 25  1  0
 23 26  1  0
  7 27  1  0
 27 28  1  0
 27 29  1  0
 27 30  1  0
  6 31  1  0
 31 32  1  0
 31 33  2  0
 33 34  1  0
 33  2  1  0
M  END
>  <plip>  (1) 
-0.03333333333333333

>  <filename>  (1) 
[H][c]1[n][c]([H])[c]([C](=[N][C]([H])([H])[N]([C]([H])([H])[C]([H])([H])[H])[C]([H])([H])[C]([H])([H])[H])[C]([H])([H])[H])[c]([H])[c]1[H]

$$$$
