
     RDKit          3D

 48 49  0  0  0  0  0  0  0  0999 V2000
    5.3408   -6.5594   22.9892 C   0  0  0  0  0  0  0  0  0  0  0  0
    4.3733   -5.4082   22.6810 C   0  0  0  0  0  0  0  0  0  0  0  0
    3.4641   -5.0308   23.8687 C   0  0  0  0  0  0  0  0  0  0  0  0
    2.5507   -6.1414   24.3534 C   0  0  0  0  0  0  0  0  0  0  0  0
    2.9596   -6.9914   25.3939 C   0  0  0  0  0  0  0  0  0  0  0  0
    2.1501   -8.0454   25.8268 C   0  0  0  0  0  0  0  0  0  0  0  0
    0.9141   -8.2784   25.2181 C   0  0  0  0  0  0  0  0  0  0  0  0
    0.4915   -7.4383   24.1818 C   0  0  0  0  0  0  0  0  0  0  0  0
    1.3027   -6.3817   23.7528 C   0  0  0  0  0  0  0  0  0  0  0  0
    0.9583   -5.7430   22.9403 H   0  0  0  0  0  0  0  0  0  0  0  0
   -0.4679   -7.6131   23.7038 H   0  0  0  0  0  0  0  0  0  0  0  0
    0.2838   -9.0973   25.5573 H   0  0  0  0  0  0  0  0  0  0  0  0
    2.4929   -8.6873   26.6319 H   0  0  0  0  0  0  0  0  0  0  0  0
    3.9363   -6.8321   25.8472 H   0  0  0  0  0  0  0  0  0  0  0  0
    2.8479   -4.1869   23.5513 H   0  0  0  0  0  0  0  0  0  0  0  0
    4.0752   -4.6619   24.7064 H   0  0  0  0  0  0  0  0  0  0  0  0
    5.0732   -4.1910   22.2277 N   0  0  0  0  0  0  0  0  0  0  0  0
    5.7324   -4.0420   21.0683 C   0  0  0  0  0  0  0  0  0  0  0  0
    5.7379   -5.1714   19.8300 S   0  0  0  0  0  0  0  0  0  0  0  0
    6.4118   -2.8867   20.8775 N   0  0  0  0  0  0  0  0  0  0  0  0
    6.7025   -1.7839   21.7808 C   0  0  0  0  0  0  0  0  0  0  0  0
    7.5254   -0.6130   21.1418 C   0  0  0  0  0  0  0  0  0  0  0  0
    8.9502   -1.0870   20.7852 C   0  0  0  0  0  0  0  0  0  0  0  0
    9.5947   -0.2340   20.5415 H   0  0  0  0  0  0  0  0  0  0  0  0
    9.4031   -1.6026   21.6377 H   0  0  0  0  0  0  0  0  0  0  0  0
    8.9831   -1.7810   19.9414 H   0  0  0  0  0  0  0  0  0  0  0  0
    7.6690    0.4530   22.2681 C   0  0  0  0  0  0  0  0  0  0  0  0
    8.2669    1.3149   21.9433 H   0  0  0  0  0  0  0  0  0  0  0  0
    8.1597    0.0083   23.1448 H   0  0  0  0  0  0  0  0  0  0  0  0
    6.6980    0.8388   22.6022 H   0  0  0  0  0  0  0  0  0  0  0  0
    6.7894    0.0037   19.9265 C   0  0  0  0  0  0  0  0  0  0  0  0
    5.5349    0.6196   20.1039 C   0  0  0  0  0  0  0  0  0  0  0  0
    4.9028    1.2413   19.0234 C   0  0  0  0  0  0  0  0  0  0  0  0
    5.5322    1.2191   17.7743 C   0  0  0  0  0  0  0  0  0  0  0  0
    6.6981    0.5987   17.5566 N   0  0  0  0  0  0  0  0  0  0  0  0
    7.2942    0.0135   18.6092 C   0  0  0  0  0  0  0  0  0  0  0  0
    8.2380   -0.4764   18.3751 H   0  0  0  0  0  0  0  0  0  0  0  0
    5.0708    1.7020   16.9126 H   0  0  0  0  0  0  0  0  0  0  0  0
    3.9546    1.7596   19.1384 H   0  0  0  0  0  0  0  0  0  0  0  0
    5.0550    0.6186   21.0847 H   0  0  0  0  0  0  0  0  0  0  0  0
    7.2590   -2.1377   22.6636 H   0  0  0  0  0  0  0  0  0  0  0  0
    5.7739   -1.3417   22.1412 H   0  0  0  0  0  0  0  0  0  0  0  0
    6.8403   -2.9038   19.9648 H   0  0  0  0  0  0  0  0  0  0  0  0
    5.0451   -3.3600   22.8005 H   0  0  0  0  0  0  0  0  0  0  0  0
    3.7187   -5.7408   21.8609 H   0  0  0  0  0  0  0  0  0  0  0  0
    4.7810   -7.4424   23.3160 H   0  0  0  0  0  0  0  0  0  0  0  0
    6.0598   -6.3070   23.7789 H   0  0  0  0  0  0  0  0  0  0  0  0
    5.9025   -6.8399   22.0942 H   0  0  0  0  0  0  0  0  0  0  0  0
  1  2  1  0
  2  3  1  0
  3  4  1  0
  4  5  2  0
  5  6  1  0
  6  7  2  0
  7  8  1  0
  8  9  2  0
  9 10  1  0
  8 11  1  0
  7 12  1  0
  6 13  1  0
  5 14  1  0
  3 15  1  0
  3 16  1  0
  2 17  1  0
 17 18  1  0
 18 19  2  0
 18 20  1  0
 20 21  1  0
 21 22  1  0
 22 23  1  0
 23 24  1  0
 23 25  1  0
 23 26  1  0
 22 27  1  0
 27 28  1  0
 27 29  1  0
 27 30  1  0
 22 31  1  0
 31 32  2  0
 32 33  1  0
 33 34  2  0
 34 35  1  0
 35 36  2  0
 36 37  1  0
 34 38  1  0
 33 39  1  0
 32 40  1  0
 21 41  1  0
 21 42  1  0
 20 43  1  0
 17 44  1  0
  2 45  1  0
  1 46  1  0
  1 47  1  0
  1 48  1  0
  9  4  1  0
 36 31  1  0
M  END
>  <plip>  (1) 
-0.13793103448275862

>  <filename>  (1) 
[H][c]1[n][c]([H])[c]([C]([C]([H])([H])[H])([C]([H])([H])[H])[C]([H])([H])[N]([H])[C](=[S])[N]([H])[C]([H])([C]([H])([H])[H])[C]([H])([H])[c]2[c]([H])[c]([H])[c]([H])[c]([H])[c]2[H])[c]([H])[c]1[H]

$$$$
