
     RDKit          3D

 34 36  0  0  0  0  0  0  0  0999 V2000
    4.9138    1.8083   16.9682 H   0  0  0  0  0  0  0  0  0  0  0  0
    5.3812    1.3104   17.8152 C   0  0  0  0  0  0  0  0  0  0  0  0
    6.5409    0.6871   17.5544 N   0  0  0  0  0  0  0  0  0  0  0  0
    7.1488    0.0736   18.5760 C   0  0  0  0  0  0  0  0  0  0  0  0
    8.0995   -0.4089   18.3534 H   0  0  0  0  0  0  0  0  0  0  0  0
    6.6548    0.0470   19.8891 C   0  0  0  0  0  0  0  0  0  0  0  0
    7.4041   -0.6767   20.9253 C   0  0  0  0  0  0  0  0  0  0  0  0
    7.7044   -1.9760   20.9470 C   0  0  0  0  0  0  0  0  0  0  0  0
    7.4035   -2.7680   20.2855 H   0  0  0  0  0  0  0  0  0  0  0  0
    8.3774   -2.2872   22.0941 O   0  0  0  0  0  0  0  0  0  0  0  0
    8.4854   -1.1521   22.8524 C   0  0  0  0  0  0  0  0  0  0  0  0
    8.9813   -1.1296   23.9500 O   0  0  0  0  0  0  0  0  0  0  0  0
    7.9068   -0.1364   22.1127 N   0  0  0  0  0  0  0  0  0  0  0  0
    7.7335    1.2509   22.5403 C   0  0  1  0  0  0  0  0  0  0  0  0
    7.6464    1.8120   21.6010 H   0  0  0  0  0  0  0  0  0  0  0  0
    6.4410    1.4994   23.3284 C   0  0  0  0  0  0  0  0  0  0  0  0
    6.0551    0.6469   24.3722 C   0  0  0  0  0  0  0  0  0  0  0  0
    6.6768   -0.2193   24.5974 H   0  0  0  0  0  0  0  0  0  0  0  0
    4.9017    0.9154   25.1179 C   0  0  0  0  0  0  0  0  0  0  0  0
    4.6169    0.2365   25.9165 H   0  0  0  0  0  0  0  0  0  0  0  0
    4.1254    2.0475   24.8414 C   0  0  0  0  0  0  0  0  0  0  0  0
    3.2293    2.2517   25.4235 H   0  0  0  0  0  0  0  0  0  0  0  0
    4.5155    2.9196   23.8182 C   0  0  0  0  0  0  0  0  0  0  0  0
    3.9279    3.8077   23.5956 H   0  0  0  0  0  0  0  0  0  0  0  0
    5.6697    2.6490   23.0739 C   0  0  0  0  0  0  0  0  0  0  0  0
    5.9679    3.3397   22.2854 H   0  0  0  0  0  0  0  0  0  0  0  0
    8.9634    1.7312   23.2951 C   0  0  0  0  0  0  0  0  0  0  0  0
    8.9241    2.8200   23.3816 H   0  0  0  0  0  0  0  0  0  0  0  0
    9.8704    1.4366   22.7578 H   0  0  0  0  0  0  0  0  0  0  0  0
    9.0008    1.2771   24.2905 H   0  0  0  0  0  0  0  0  0  0  0  0
    5.4248    0.6738   20.1356 C   0  0  0  0  0  0  0  0  0  0  0  0
    5.0156    0.6358   21.1494 H   0  0  0  0  0  0  0  0  0  0  0  0
    4.7857    1.3289   19.0830 C   0  0  0  0  0  0  0  0  0  0  0  0
    3.8526    1.8575   19.2301 H   0  0  0  0  0  0  0  0  0  0  0  0
  1  2  1  0
  2  3  2  0
  3  4  1  0
  4  5  1  0
  4  6  2  0
  6  7  1  0
  7  8  2  0
  8  9  1  0
  8 10  1  0
 10 11  1  0
 11 12  2  0
 11 13  1  0
 13 14  1  0
 14 15  1  6
 14 16  1  0
 16 17  2  0
 17 18  1  0
 17 19  1  0
 19 20  1  0
 19 21  2  0
 21 22  1  0
 21 23  1  0
 23 24  1  0
 23 25  2  0
 25 26  1  0
 14 27  1  0
 27 28  1  0
 27 29  1  0
 27 30  1  0
  6 31  1  0
 31 32  1  0
 31 33  2  0
 33 34  1  0
 33  2  1  0
 13  7  1  0
 25 16  1  0
M  END
>  <plip>  (1) 
-0.03571428571428571

>  <filename>  (1) 
[H][c]1[n][c]([H])[c](-[c]2[c]([H])[o][c](=[O])[n]2[C@@]([H])([c]2[c]([H])[c]([H])[c]([H])[c]([H])[c]2[H])[C]([H])([H])[H])[c]([H])[c]1[H]

$$$$
