
     RDKit          3D

 35 38  0  0  0  0  0  0  0  0999 V2000
    8.6383    1.0330   21.6802 H   0  0  0  0  0  0  0  0  0  0  0  0
    7.9366    0.2877   21.9903 C   0  0  0  0  0  0  0  0  0  0  0  0
    7.4321    0.3120   23.2435 C   0  0  0  0  0  0  0  0  0  0  0  0
    7.6940    1.3885   24.2073 C   0  0  0  0  0  0  0  0  0  0  0  0
    8.0285    1.1962   25.5145 C   0  0  0  0  0  0  0  0  0  0  0  0
    8.0516    0.2562   26.0496 H   0  0  0  0  0  0  0  0  0  0  0  0
    8.4887    2.6311   26.3494 S   0  0  0  0  0  0  0  0  0  0  0  0
    8.2267    3.5944   24.9257 C   0  0  0  0  0  0  0  0  0  0  0  0
    8.4312    4.9825   24.8029 C   0  0  0  0  0  0  0  0  0  0  0  0
    8.8240    5.5601   25.6370 H   0  0  0  0  0  0  0  0  0  0  0  0
    8.1363    5.5900   23.5882 C   0  0  0  0  0  0  0  0  0  0  0  0
    8.2830    6.6616   23.4717 H   0  0  0  0  0  0  0  0  0  0  0  0
    7.6524    4.8260   22.5022 C   0  0  0  0  0  0  0  0  0  0  0  0
    7.4357    5.3184   21.5570 H   0  0  0  0  0  0  0  0  0  0  0  0
    7.4726    3.4536   22.6212 C   0  0  0  0  0  0  0  0  0  0  0  0
    7.1006    2.8726   21.7789 H   0  0  0  0  0  0  0  0  0  0  0  0
    7.7761    2.8055   23.8446 C   0  0  0  0  0  0  0  0  0  0  0  0
    6.6618   -0.7805   23.6301 N   0  0  0  0  0  0  0  0  0  0  0  0
    6.1096   -0.7749   24.4649 H   0  0  0  0  0  0  0  0  0  0  0  0
    6.4287   -1.8833   22.8687 C   0  0  0  0  0  0  0  0  0  0  0  0
    5.6842   -3.2171   23.5169 S   0  0  0  0  0  0  0  0  0  0  0  0
    6.8262   -1.8159   21.5865 N   0  0  0  0  0  0  0  0  0  0  0  0
    6.4125   -2.5211   21.0082 H   0  0  0  0  0  0  0  0  0  0  0  0
    7.4938   -0.6751   20.9608 C   0  0  1  0  0  0  0  0  0  0  0  0
    8.3897   -1.0607   20.4516 H   0  0  0  0  0  0  0  0  0  0  0  0
    6.6486   -0.0214   19.8623 C   0  0  0  0  0  0  0  0  0  0  0  0
    7.1522    0.0332   18.5570 C   0  0  0  0  0  0  0  0  0  0  0  0
    8.1013   -0.4485   18.3176 H   0  0  0  0  0  0  0  0  0  0  0  0
    6.5588    0.6662   17.5389 N   0  0  0  0  0  0  0  0  0  0  0  0
    5.4040    1.2933   17.8053 C   0  0  0  0  0  0  0  0  0  0  0  0
    4.9409    1.8278   16.9778 H   0  0  0  0  0  0  0  0  0  0  0  0
    4.8032    1.2885   19.0682 C   0  0  0  0  0  0  0  0  0  0  0  0
    3.8756    1.8275   19.2140 H   0  0  0  0  0  0  0  0  0  0  0  0
    5.4306    0.6201   20.1202 C   0  0  0  0  0  0  0  0  0  0  0  0
    4.9931    0.6154   21.1216 H   0  0  0  0  0  0  0  0  0  0  0  0
  1  2  1  0
  2  3  2  0
  3  4  1  0
  4  5  2  0
  5  6  1  0
  5  7  1  0
  7  8  1  0
  8  9  2  0
  9 10  1  0
  9 11  1  0
 11 12  1  0
 11 13  2  0
 13 14  1  0
 13 15  1  0
 15 16  1  0
 15 17  2  0
  3 18  1  0
 18 19  1  0
 18 20  1  0
 20 21  2  0
 20 22  1  0
 22 23  1  0
 22 24  1  0
 24 25  1  6
 24 26  1  0
 26 27  2  0
 27 28  1  0
 27 29  1  0
 29 30  2  0
 30 31  1  0
 30 32  1  0
 32 33  1  0
 32 34  2  0
 34 35  1  0
 24  2  1  0
 34 26  1  0
 17  4  1  0
 17  8  1  0
M  END
>  <plip>  (1) 
-0.03571428571428571

>  <filename>  (1) 
[H][C]1=[C]([c]2[c]([H])[s][c]3[c]([H])[c]([H])[c]([H])[c]([H])[c]23)[N]([H])[C](=[S])[N]([H])[C@@]1([H])[c]1[c]([H])[n][c]([H])[c]([H])[c]1[H]

$$$$
