
     RDKit          3D

 36 38  0  0  0  0  0  0  0  0999 V2000
    8.2297   -1.5926   20.5854 O   0  0  0  0  0  0  0  0  0  0  0  0
    7.4170   -0.7544   20.9221 C   0  0  0  0  0  0  0  0  0  0  0  0
    7.1357   -0.4534   22.3994 C   0  0  0  0  0  0  0  0  0  0  0  0
    8.2595   -0.8727   23.3878 C   0  0  0  0  0  0  0  0  0  0  0  0
    7.9694   -0.5011   24.8501 C   0  0  0  0  0  0  0  0  0  0  0  0
    8.4087    0.5302   25.3313 O   0  0  0  0  0  0  0  0  0  0  0  0
    7.1672   -1.3667   25.5729 N   0  0  0  0  0  0  0  0  0  0  0  0
    6.9050   -2.7850   25.2387 C   0  0  0  0  0  0  0  0  0  0  0  0
    6.0889   -3.3286   26.4336 C   0  0  0  0  0  0  0  0  0  0  0  0
    5.9105   -2.1266   27.3206 C   0  0  0  0  0  0  0  0  0  0  0  0
    5.2420   -1.9619   28.5229 C   0  0  0  0  0  0  0  0  0  0  0  0
    5.1672   -0.7853   29.1604 N   0  0  0  0  0  0  0  0  0  0  0  0
    5.7739    0.2717   28.5989 C   0  0  0  0  0  0  0  0  0  0  0  0
    6.4773    0.2304   27.3986 C   0  0  0  0  0  0  0  0  0  0  0  0
    6.5457   -1.0165   26.7720 C   0  0  0  0  0  0  0  0  0  0  0  0
    6.9483    1.1104   26.9877 H   0  0  0  0  0  0  0  0  0  0  0  0
    5.6780    1.2008   29.1636 H   0  0  0  0  0  0  0  0  0  0  0  0
    4.7396   -2.8014   29.0098 H   0  0  0  0  0  0  0  0  0  0  0  0
    6.6169   -4.1335   26.9523 H   0  0  0  0  0  0  0  0  0  0  0  0
    5.1248   -3.7336   26.1142 H   0  0  0  0  0  0  0  0  0  0  0  0
    6.3460   -2.8634   24.2980 H   0  0  0  0  0  0  0  0  0  0  0  0
    7.8516   -3.3226   25.1119 H   0  0  0  0  0  0  0  0  0  0  0  0
    8.4614   -1.9449   23.2668 H   0  0  0  0  0  0  0  0  0  0  0  0
    9.1881   -0.3461   23.1469 H   0  0  0  0  0  0  0  0  0  0  0  0
    6.9259    0.6200   22.5012 H   0  0  0  0  0  0  0  0  0  0  0  0
    6.1953   -0.9648   22.6538 H   0  0  0  0  0  0  0  0  0  0  0  0
    6.6416    0.0058   19.9053 C   0  0  0  0  0  0  0  0  0  0  0  0
    5.4279    0.6613   20.1586 C   0  0  0  0  0  0  0  0  0  0  0  0
    4.7996    1.3147   19.1004 C   0  0  0  0  0  0  0  0  0  0  0  0
    5.4009    1.2932   17.8394 C   0  0  0  0  0  0  0  0  0  0  0  0
    6.5639    0.6733   17.5896 N   0  0  0  0  0  0  0  0  0  0  0  0
    7.1618    0.0483   18.6051 C   0  0  0  0  0  0  0  0  0  0  0  0
    8.1088   -0.4395   18.3797 H   0  0  0  0  0  0  0  0  0  0  0  0
    4.9372    1.7905   16.9886 H   0  0  0  0  0  0  0  0  0  0  0  0
    3.8683    1.8480   19.2387 H   0  0  0  0  0  0  0  0  0  0  0  0
    4.9781    0.6617   21.1542 H   0  0  0  0  0  0  0  0  0  0  0  0
  1  2  2  0
  2  3  1  0
  3  4  1  0
  4  5  1  0
  5  6  2  0
  5  7  1  0
  7  8  1  0
  8  9  1  0
  9 10  1  0
 10 11  2  0
 11 12  1  0
 12 13  2  0
 13 14  1  0
 14 15  2  0
 14 16  1  0
 13 17  1  0
 11 18  1  0
  9 19  1  0
  9 20  1  0
  8 21  1  0
  8 22  1  0
  4 23  1  0
  4 24  1  0
  3 25  1  0
  3 26  1  0
  2 27  1  0
 27 28  2  0
 28 29  1  0
 29 30  2  0
 30 31  1  0
 31 32  2  0
 32 33  1  0
 30 34  1  0
 29 35  1  0
 28 36  1  0
 15  7  1  0
 32 27  1  0
 15 10  1  0
M  END
>  <plip>  (1) 
-0.03571428571428571

>  <filename>  (1) 
[H][c]1[n][c]([H])[c]([C](=[O])[C]([H])([H])[C]([H])([H])[C](=[O])[N]2[c]3[c]([H])[c]([H])[n][c]([H])[c]3[C]([H])([H])[C]2([H])[H])[c]([H])[c]1[H]

$$$$
