
     RDKit          3D

 28 29  0  0  0  0  0  0  0  0999 V2000
    5.9862   -1.0420   22.3481 H   0  0  0  0  0  0  0  0  0  0  0  0
    7.0224   -1.0746   21.9995 C   0  0  0  0  0  0  0  0  0  0  0  0
    7.4505   -0.6496   20.8881 N   0  0  0  0  0  0  0  0  0  0  0  0
    6.6608   -0.0173   19.9064 C   0  0  0  0  0  0  0  0  0  0  0  0
    7.1676    0.0379   18.5805 C   0  0  0  0  0  0  0  0  0  0  0  0
    8.1205   -0.4491   18.3781 H   0  0  0  0  0  0  0  0  0  0  0  0
    6.5589    0.6545   17.5631 N   0  0  0  0  0  0  0  0  0  0  0  0
    5.3959    1.2826   17.8348 C   0  0  0  0  0  0  0  0  0  0  0  0
    4.9273    1.8067   17.0065 H   0  0  0  0  0  0  0  0  0  0  0  0
    4.8042    1.2924   19.1013 C   0  0  0  0  0  0  0  0  0  0  0  0
    3.8720    1.8282   19.2637 H   0  0  0  0  0  0  0  0  0  0  0  0
    5.4458    0.6318   20.1604 C   0  0  0  0  0  0  0  0  0  0  0  0
    5.0322    0.6425   21.1671 H   0  0  0  0  0  0  0  0  0  0  0  0
    7.7912   -1.6790   22.9262 O   0  0  0  0  0  0  0  0  0  0  0  0
    9.1794   -1.6899   22.8117 C   0  0  0  0  0  0  0  0  0  0  0  0
    9.8174   -2.8407   23.2658 C   0  0  0  0  0  0  0  0  0  0  0  0
    9.2226   -3.6250   23.7163 H   0  0  0  0  0  0  0  0  0  0  0  0
   11.1975   -2.9399   23.1035 C   0  0  0  0  0  0  0  0  0  0  0  0
   11.7350   -3.8152   23.4563 H   0  0  0  0  0  0  0  0  0  0  0  0
   11.9147   -1.8718   22.5403 C   0  0  0  0  0  0  0  0  0  0  0  0
   12.9771   -1.9845   22.3417 H   0  0  0  0  0  0  0  0  0  0  0  0
   11.2944   -0.6432   22.2902 C   0  0  0  0  0  0  0  0  0  0  0  0
   12.1167    0.5877   21.9814 C   0  0  0  0  0  0  0  0  0  0  0  0
   12.0774    1.2898   22.8260 H   0  0  0  0  0  0  0  0  0  0  0  0
   13.1652    0.3142   21.8259 H   0  0  0  0  0  0  0  0  0  0  0  0
   11.7701    1.1155   21.0842 H   0  0  0  0  0  0  0  0  0  0  0  0
    9.8981   -0.5709   22.3848 C   0  0  0  0  0  0  0  0  0  0  0  0
    9.3288    0.3100   22.1128 H   0  0  0  0  0  0  0  0  0  0  0  0
  1  2  1  0
  2  3  2  3
  3  4  1  0
  4  5  2  0
  5  6  1  0
  5  7  1  0
  7  8  2  0
  8  9  1  0
  8 10  1  0
 10 11  1  0
 10 12  2  0
 12 13  1  0
  2 14  1  0
 14 15  1  0
 15 16  2  0
 16 17  1  0
 16 18  1  0
 18 19  1  0
 18 20  2  0
 20 21  1  0
 20 22  1  0
 22 23  1  0
 23 24  1  0
 23 25  1  0
 23 26  1  0
 22 27  2  0
 27 28  1  0
 12  4  1  0
 27 15  1  0
M  END
>  <plip>  (1) 
-0.07142857142857142

>  <filename>  (1) 
[H][C](=[N][c]1[c]([H])[n][c]([H])[c]([H])[c]1[H])[O][c]1[c]([H])[c]([H])[c]([H])[c]([C]([H])([H])[H])[c]1[H]

$$$$
