
     RDKit          3D

 41 43  0  0  0  0  0  0  0  0999 V2000
    9.0423    1.2883   21.3798 C   0  0  0  0  0  0  0  0  0  0  0  0
    7.9959    0.4824   22.0200 N   0  0  0  0  0  0  0  0  0  0  0  0
    7.8554    0.6637   23.3891 C   0  0  0  0  0  0  0  0  0  0  0  0
    7.9826    1.7546   23.9093 O   0  0  0  0  0  0  0  0  0  0  0  0
    7.6593   -0.5991   24.2056 C   0  0  0  0  0  0  0  0  0  0  0  0
    8.9790   -0.9370   24.9326 C   0  0  0  0  0  0  0  0  0  0  0  0
    9.2790    0.1001   25.8533 O   0  0  0  0  0  0  0  0  0  0  0  0
   10.3734    0.8901   25.4134 C   0  0  0  0  0  0  0  0  0  0  0  0
   11.0282    0.0676   24.3352 C   0  0  0  0  0  0  0  0  0  0  0  0
   12.2117    0.2731   23.6252 C   0  0  0  0  0  0  0  0  0  0  0  0
   12.5316   -0.6037   22.5824 C   0  0  0  0  0  0  0  0  0  0  0  0
   11.6780   -1.6738   22.2690 C   0  0  0  0  0  0  0  0  0  0  0  0
   10.5051   -1.9023   23.0052 C   0  0  0  0  0  0  0  0  0  0  0  0
   10.2010   -1.0221   24.0446 C   0  0  0  0  0  0  0  0  0  0  0  0
    9.8111   -2.6911   22.7057 H   0  0  0  0  0  0  0  0  0  0  0  0
   11.9251   -2.3351   21.4467 H   0  0  0  0  0  0  0  0  0  0  0  0
   13.4602   -0.4672   22.0326 H   0  0  0  0  0  0  0  0  0  0  0  0
   12.8587    1.1176   23.8590 H   0  0  0  0  0  0  0  0  0  0  0  0
   11.0221    1.0803   26.2713 H   0  0  0  0  0  0  0  0  0  0  0  0
   10.0180    1.8499   25.0180 H   0  0  0  0  0  0  0  0  0  0  0  0
    8.8188   -1.8521   25.5218 H   0  0  0  0  0  0  0  0  0  0  0  0
    7.3586   -1.4581   23.6074 H   0  0  0  0  0  0  0  0  0  0  0  0
    6.8894   -0.3888   24.9440 H   0  0  0  0  0  0  0  0  0  0  0  0
    7.2887   -0.5924   21.2631 C   0  0  0  0  0  0  0  0  0  0  0  0
    8.2056   -1.9052   21.0165 C   0  0  0  0  0  0  0  0  0  0  0  0
    9.0978   -1.7849   20.1517 O   0  0  0  0  0  0  0  0  0  0  0  0
    7.9330   -2.8827   21.7519 O   0  0  0  0  0  1  0  0  0  0  0  0
    6.6190   -0.0110   20.0201 C   0  0  0  0  0  0  0  0  0  0  0  0
    5.3986    0.6665   20.1671 C   0  0  0  0  0  0  0  0  0  0  0  0
    4.8253    1.2806   19.0508 C   0  0  0  0  0  0  0  0  0  0  0  0
    5.5055    1.2031   17.8288 C   0  0  0  0  0  0  0  0  0  0  0  0
    6.6685    0.5590   17.6590 N   0  0  0  0  0  0  0  0  0  0  0  0
    7.2071   -0.0261   18.7438 C   0  0  0  0  0  0  0  0  0  0  0  0
    8.1531   -0.5479   18.6069 H   0  0  0  0  0  0  0  0  0  0  0  0
    5.0927    1.6750   16.9425 H   0  0  0  0  0  0  0  0  0  0  0  0
    3.8866    1.8242   19.1218 H   0  0  0  0  0  0  0  0  0  0  0  0
    4.9305    0.7370   21.1517 H   0  0  0  0  0  0  0  0  0  0  0  0
    6.4757   -0.9366   21.9063 H   0  0  0  0  0  0  0  0  0  0  0  0
    9.2048    0.9483   20.3557 H   0  0  0  0  0  0  0  0  0  0  0  0
    9.9916    1.1897   21.9225 H   0  0  0  0  0  0  0  0  0  0  0  0
    8.7561    2.3451   21.3900 H   0  0  0  0  0  0  0  0  0  0  0  0
  1  2  1  0
  2  3  1  0
  3  4  2  0
  3  5  1  0
  5  6  1  0
  6  7  1  0
  7  8  1  0
  8  9  1  0
  9 10  2  0
 10 11  1  0
 11 12  2  0
 12 13  1  0
 13 14  2  0
 13 15  1  0
 12 16  1  0
 11 17  1  0
 10 18  1  0
  8 19  1  0
  8 20  1  0
  6 21  1  0
  5 22  1  0
  5 23  1  0
  2 24  1  0
 24 25  1  0
 25 26  2  0
 25 27  1  0
 24 28  1  0
 28 29  2  0
 29 30  1  0
 30 31  2  0
 31 32  1  0
 32 33  2  0
 33 34  1  0
 31 35  1  0
 30 36  1  0
 29 37  1  0
 24 38  1  0
  1 39  1  0
  1 40  1  0
  1 41  1  0
 14  6  1  0
 33 28  1  0
 14  9  1  0
M  CHG  1  27  -1
M  END
>  <plip>  (1) 
-0.07142857142857142

>  <filename>  (1) 
[H][c]1[n][c]([H])[c]([C]([H])([C](=[O])[O-])[N]([C](=[O])[C]([H])([H])[C]2([H])[O][C]([H])([H])[c]3[c]([H])[c]([H])[c]([H])[c]([H])[c]32)[C]([H])([H])[H])[c]([H])[c]1[H]

$$$$
