
     RDKit          3D

 31 34  0  0  0  0  0  0  0  0999 V2000
    4.8434    1.3596   19.1193 C   0  0  0  0  0  0  0  0  0  0  0  0
    5.4590    1.2944   17.8658 C   0  0  0  0  0  0  0  0  0  0  0  0
    6.6181    0.6484   17.6492 N   0  0  0  0  0  0  0  0  0  0  0  0
    7.1999    0.0643   18.6948 C   0  0  0  0  0  0  0  0  0  0  0  0
    6.6973    0.1338   20.0083 C   0  0  0  0  0  0  0  0  0  0  0  0
    7.4465   -0.5157   21.0205 N   0  0  0  0  0  0  0  0  0  0  0  0
    8.0460   -1.6841   20.7090 N   0  0  0  0  0  0  0  0  0  0  0  0
    8.4838   -2.1723   21.8556 C   0  0  0  0  0  0  0  0  0  0  0  0
    8.1995   -1.3207   22.9323 C   0  0  0  0  0  0  0  0  0  0  0  0
    7.5428   -0.2434   22.3698 C   0  0  0  0  0  0  0  0  0  0  0  0
    6.9581    0.8897   23.0512 C   0  0  0  0  0  0  0  0  0  0  0  0
    6.1541    0.8356   24.1678 C   0  0  0  0  0  0  0  0  0  0  0  0
    5.7955    2.0554   24.6195 N   0  0  0  0  0  0  0  0  0  0  0  0
    6.3946    2.9096   23.8030 C   0  0  0  0  0  0  0  0  0  0  0  0
    6.3921    4.3376   23.8413 C   0  0  0  0  0  0  0  0  0  0  0  0
    7.0840    5.0340   22.8894 C   0  0  0  0  0  0  0  0  0  0  0  0
    7.8653    4.3340   21.9117 C   0  0  0  0  0  0  0  0  0  0  0  0
    7.8732    2.9644   21.8756 C   0  0  0  0  0  0  0  0  0  0  0  0
    7.1285    2.2560   22.8091 N   0  0  0  0  0  0  0  0  0  0  0  0
    8.4345    2.3727   21.1655 H   0  0  0  0  0  0  0  0  0  0  0  0
    8.4230    4.9199   21.1962 H   0  0  0  0  0  0  0  0  0  0  0  0
    7.0696    6.1224   22.8633 H   0  0  0  0  0  0  0  0  0  0  0  0
    5.8371    4.8059   24.6414 H   0  0  0  0  0  0  0  0  0  0  0  0
    5.8080   -0.0875   24.6239 H   0  0  0  0  0  0  0  0  0  0  0  0
    8.4353   -1.4578   23.9766 H   0  0  0  0  0  0  0  0  0  0  0  0
    8.9636   -3.1420   21.8690 H   0  0  0  0  0  0  0  0  0  0  0  0
    5.4659    0.7690   20.2279 C   0  0  0  0  0  0  0  0  0  0  0  0
    4.9957    0.7722   21.2137 H   0  0  0  0  0  0  0  0  0  0  0  0
    8.1028   -0.5141   18.5113 H   0  0  0  0  0  0  0  0  0  0  0  0
    5.0036    1.7557   16.9918 H   0  0  0  0  0  0  0  0  0  0  0  0
    3.8867    1.8647   19.2112 H   0  0  0  0  0  0  0  0  0  0  0  0
  1  2  2  0
  2  3  1  0
  3  4  2  0
  4  5  1  0
  5  6  1  0
  6  7  1  0
  7  8  2  0
  8  9  1  0
  9 10  2  0
 10 11  1  0
 11 12  2  0
 12 13  1  0
 13 14  2  0
 14 15  1  0
 15 16  2  0
 16 17  1  0
 17 18  2  0
 18 19  1  0
 18 20  1  0
 17 21  1  0
 16 22  1  0
 15 23  1  0
 12 24  1  0
  9 25  1  0
  8 26  1  0
  5 27  2  0
 27 28  1  0
  4 29  1  0
  2 30  1  0
  1 31  1  0
 27  1  1  0
 10  6  1  0
 19 11  1  0
 19 14  1  0
M  END
>  <plip>  (1) 
-0.0

>  <filename>  (1) 
[H][c]1[n][c]([H])[c](-[n]2[n][c]([H])[c]([H])[c]2-[c]2[c]([H])[n][c]3[c]([H])[c]([H])[c]([H])[c]([H])[n]23)[c]([H])[c]1[H]

$$$$
