
     RDKit          3D

 26 27  0  0  0  0  0  0  0  0999 V2000
    4.9481    1.8065   17.0024 H   0  0  0  0  0  0  0  0  0  0  0  0
    5.4207    1.2889   17.8338 C   0  0  0  0  0  0  0  0  0  0  0  0
    6.5803    0.6662   17.5630 N   0  0  0  0  0  0  0  0  0  0  0  0
    7.2003    0.0296   18.5601 C   0  0  0  0  0  0  0  0  0  0  0  0
    8.1502   -0.4544   18.3381 H   0  0  0  0  0  0  0  0  0  0  0  0
    6.6849   -0.0258   19.8676 C   0  0  0  0  0  0  0  0  0  0  0  0
    7.2954   -0.6440   20.9989 N   0  0  0  0  0  0  0  0  0  0  0  0
    8.3483   -1.2767   20.7804 N   0  0  0  0  0  0  0  0  0  0  0  0
    8.9786   -1.8277   21.9418 C   0  0  0  0  0  0  0  0  0  0  0  0
    8.4479   -1.9805   23.2576 C   0  0  0  0  0  0  0  0  0  0  0  0
    7.2626   -1.4193   23.5355 O   0  0  0  0  0  0  0  0  0  0  0  0
    6.7703   -1.4405   24.8714 C   0  0  0  0  0  0  0  0  0  0  0  0
    6.5916   -2.4668   25.1971 H   0  0  0  0  0  0  0  0  0  0  0  0
    5.8353   -0.8828   24.8782 H   0  0  0  0  0  0  0  0  0  0  0  0
    7.4703   -0.9678   25.5666 H   0  0  0  0  0  0  0  0  0  0  0  0
    9.0821   -2.6527   24.2187 N   0  0  0  0  0  0  0  0  0  0  0  0
   10.3309   -3.0749   23.9799 C   0  0  0  0  0  0  0  0  0  0  0  0
   10.7976   -3.5963   24.8135 H   0  0  0  0  0  0  0  0  0  0  0  0
   11.0006   -2.8379   22.7827 C   0  0  0  0  0  0  0  0  0  0  0  0
   12.0433   -3.1065   22.6472 H   0  0  0  0  0  0  0  0  0  0  0  0
   10.2885   -2.2449   21.7347 C   0  0  0  0  0  0  0  0  0  0  0  0
   10.7114   -2.1117   20.7407 H   0  0  0  0  0  0  0  0  0  0  0  0
    5.4753    0.6235   20.1401 C   0  0  0  0  0  0  0  0  0  0  0  0
    5.1050    0.5908   21.1652 H   0  0  0  0  0  0  0  0  0  0  0  0
    4.8287    1.2897   19.1035 C   0  0  0  0  0  0  0  0  0  0  0  0
    3.8962    1.8166   19.2654 H   0  0  0  0  0  0  0  0  0  0  0  0
  1  2  1  0
  2  3  2  0
  3  4  1  0
  4  5  1  0
  4  6  2  0
  6  7  1  0
  7  8  2  3
  8  9  1  0
  9 10  2  0
 10 11  1  0
 11 12  1  0
 12 13  1  0
 12 14  1  0
 12 15  1  0
 10 16  1  0
 16 17  2  0
 17 18  1  0
 17 19  1  0
 19 20  1  0
 19 21  2  0
 21 22  1  0
  6 23  1  0
 23 24  1  0
 23 25  2  0
 25 26  1  0
 25  2  1  0
 21  9  1  0
M  END
>  <plip>  (1) 
-0.07142857142857142

>  <filename>  (1) 
[H][c]1[n][c]([H])[c]([N]=[N][c]2[c]([O][C]([H])([H])[H])[n][c]([H])[c]([H])[c]2[H])[c]([H])[c]1[H]

$$$$
