
     RDKit          3D

 37 38  0  0  0  0  0  0  0  0999 V2000
    5.1962    1.8062   17.0793 H   0  0  0  0  0  0  0  0  0  0  0  0
    5.5510    1.2251   17.9312 C   0  0  0  0  0  0  0  0  0  0  0  0
    6.7199    0.5873   17.7697 N   0  0  0  0  0  0  0  0  0  0  0  0
    7.1885   -0.1087   18.8147 C   0  0  0  0  0  0  0  0  0  0  0  0
    8.1283   -0.6395   18.6443 H   0  0  0  0  0  0  0  0  0  0  0  0
    6.5347   -0.2101   20.0528 C   0  0  0  0  0  0  0  0  0  0  0  0
    7.2103   -0.9199   21.2133 C   0  0  2  0  0  0  0  0  0  0  0  0
    8.0355   -1.5210   20.8077 H   0  0  0  0  0  0  0  0  0  0  0  0
    6.3124   -2.0613   21.8588 C   0  0  0  0  0  0  0  0  0  0  0  0
    5.5522   -2.7432   21.1869 O   0  0  0  0  0  0  0  0  0  0  0  0
    6.5538   -2.3166   23.1676 N   0  0  0  0  0  0  0  0  0  0  0  0
    7.0838   -1.6210   23.6701 H   0  0  0  0  0  0  0  0  0  0  0  0
    5.8932   -3.3317   23.9262 C   0  0  0  0  0  0  0  0  0  0  0  0
    5.3463   -4.0145   23.2714 H   0  0  0  0  0  0  0  0  0  0  0  0
    6.6286   -3.9217   24.4885 H   0  0  0  0  0  0  0  0  0  0  0  0
    4.9795   -2.7171   24.8666 N   0  0  0  0  0  0  0  0  0  0  0  0
    4.3157   -2.1256   24.3748 H   0  0  0  0  0  0  0  0  0  0  0  0
    5.5491   -2.0321   25.9351 C   0  0  0  0  0  0  0  0  0  0  0  0
    6.7600   -1.9370   26.0536 O   0  0  0  0  0  0  0  0  0  0  0  0
    4.6005   -1.4692   26.9694 C   0  0  0  0  0  0  0  0  0  0  0  0
    5.1411   -0.6257   27.9628 C   0  0  0  0  0  0  0  0  0  0  0  0
    6.2025   -0.3878   27.9297 H   0  0  0  0  0  0  0  0  0  0  0  0
    4.3372   -0.1202   28.9843 C   0  0  0  0  0  0  0  0  0  0  0  0
    4.7786    0.5182   29.7445 H   0  0  0  0  0  0  0  0  0  0  0  0
    2.9785   -0.4471   29.0362 C   0  0  0  0  0  0  0  0  0  0  0  0
    2.3562   -0.0606   29.8395 H   0  0  0  0  0  0  0  0  0  0  0  0
    2.4322   -1.2970   28.0681 C   0  0  0  0  0  0  0  0  0  0  0  0
    1.3816   -1.5701   28.1197 H   0  0  0  0  0  0  0  0  0  0  0  0
    3.2334   -1.8088   27.0424 C   0  0  0  0  0  0  0  0  0  0  0  0
    2.7983   -2.4950   26.3171 H   0  0  0  0  0  0  0  0  0  0  0  0
    7.8443    0.0680   22.1369 N   0  0  0  0  0  0  0  0  0  0  0  0
    8.6446    0.4810   21.6657 H   0  0  0  0  0  0  0  0  0  0  0  0
    7.2063    0.8482   22.3049 H   0  0  0  0  0  0  0  0  0  0  0  0
    5.2931    0.4266   20.1892 C   0  0  0  0  0  0  0  0  0  0  0  0
    4.7225    0.3313   21.1164 H   0  0  0  0  0  0  0  0  0  0  0  0
    4.8057    1.1727   19.1135 C   0  0  0  0  0  0  0  0  0  0  0  0
    3.8725    1.7171   19.1845 H   0  0  0  0  0  0  0  0  0  0  0  0
  1  2  1  0
  2  3  2  0
  3  4  1  0
  4  5  1  0
  4  6  2  0
  6  7  1  0
  7  8  1  6
  7  9  1  0
  9 10  2  0
  9 11  1  0
 11 12  1  0
 11 13  1  0
 13 14  1  0
 13 15  1  0
 13 16  1  0
 16 17  1  0
 16 18  1  0
 18 19  2  0
 18 20  1  0
 20 21  2  0
 21 22  1  0
 21 23  1  0
 23 24  1  0
 23 25  2  0
 25 26  1  0
 25 27  1  0
 27 28  1  0
 27 29  2  0
 29 30  1  0
  7 31  1  0
 31 32  1  0
 31 33  1  0
  6 34  1  0
 34 35  1  0
 34 36  2  0
 36 37  1  0
 36  2  1  0
 29 20  1  0
M  END
>  <plip>  (1) 
-0.07142857142857142

>  <filename>  (1) 
[H][c]1[n][c]([H])[c]([C@]([H])([C](=[O])[N]([H])[C]([H])([H])[N]([H])[C](=[O])[c]2[c]([H])[c]([H])[c]([H])[c]([H])[c]2[H])[N]([H])[H])[c]([H])[c]1[H]

$$$$
