
     RDKit          3D

 25 27  0  0  0  0  0  0  0  0999 V2000
    4.9160    1.7779   16.9994 H   0  0  0  0  0  0  0  0  0  0  0  0
    5.4031    1.2909   17.8431 C   0  0  0  0  0  0  0  0  0  0  0  0
    6.5702    0.6761   17.5870 N   0  0  0  0  0  0  0  0  0  0  0  0
    7.1847    0.0563   18.5965 C   0  0  0  0  0  0  0  0  0  0  0  0
    8.1297   -0.4328   18.3755 H   0  0  0  0  0  0  0  0  0  0  0  0
    6.6639    0.0024   19.8992 C   0  0  0  0  0  0  0  0  0  0  0  0
    7.3664   -0.6825   20.9313 N   0  0  0  0  0  0  0  0  0  0  0  0
    8.3501   -1.5747   20.6732 N   0  0  0  0  0  0  0  0  0  0  0  0
    8.7923   -2.0262   21.7978 N   0  0  0  0  0  0  0  0  0  0  0  0
    8.1036   -1.4243   22.8195 C   0  0  0  0  0  0  0  0  0  0  0  0
    8.3021   -1.6507   24.2358 C   0  0  0  0  0  0  0  0  0  0  0  0
    7.6312   -1.0712   25.2914 C   0  0  0  0  0  0  0  0  0  0  0  0
    6.8332   -0.3439   25.2133 H   0  0  0  0  0  0  0  0  0  0  0  0
    8.1695   -1.5995   26.4810 C   0  0  0  0  0  0  0  0  0  0  0  0
    7.8658   -1.3484   27.4853 H   0  0  0  0  0  0  0  0  0  0  0  0
    9.1537   -2.4913   26.1334 C   0  0  0  0  0  0  0  0  0  0  0  0
    9.7941   -3.0965   26.7615 H   0  0  0  0  0  0  0  0  0  0  0  0
    9.2293   -2.5124   24.7707 N   0  0  0  0  0  0  0  0  0  0  0  0
    9.8588   -3.0663   24.2134 H   0  0  0  0  0  0  0  0  0  0  0  0
    7.1916   -0.5651   22.2645 C   0  0  0  0  0  0  0  0  0  0  0  0
    6.4798    0.0961   22.7342 H   0  0  0  0  0  0  0  0  0  0  0  0
    5.4475    0.6454   20.1653 C   0  0  0  0  0  0  0  0  0  0  0  0
    4.9965    0.6299   21.1602 H   0  0  0  0  0  0  0  0  0  0  0  0
    4.8119    1.3045   19.1111 C   0  0  0  0  0  0  0  0  0  0  0  0
    3.8788    1.8392   19.2666 H   0  0  0  0  0  0  0  0  0  0  0  0
  1  2  1  0
  2  3  2  0
  3  4  1  0
  4  5  1  0
  4  6  2  0
  6  7  1  0
  7  8  1  0
  8  9  2  0
  9 10  1  0
 10 11  1  0
 11 12  2  0
 12 13  1  0
 12 14  1  0
 14 15  1  0
 14 16  2  0
 16 17  1  0
 16 18  1  0
 18 19  1  0
 10 20  2  0
 20 21  1  0
  6 22  1  0
 22 23  1  0
 22 24  2  0
 24 25  1  0
 24  2  1  0
 20  7  1  0
 18 11  1  0
M  END
>  <plip>  (1) 
-0.034482758620689655

>  <filename>  (1) 
[H][c]1[n][c]([H])[c](-[n]2[n][n][c](-[c]3[c]([H])[c]([H])[c]([H])[n]3[H])[c]2[H])[c]([H])[c]1[H]

$$$$
