
     RDKit          3D

 40 42  0  0  0  0  0  0  0  0999 V2000
    4.8918    2.3467   16.5911 H   0  0  0  0  0  0  0  0  0  0  0  0
    5.2403    1.8514   17.4955 C   0  0  0  0  0  0  0  0  0  0  0  0
    6.3734    1.1401   17.3750 N   0  0  0  0  0  0  0  0  0  0  0  0
    6.8250    0.5264   18.4728 C   0  0  0  0  0  0  0  0  0  0  0  0
    7.7463   -0.0469   18.3597 H   0  0  0  0  0  0  0  0  0  0  0  0
    6.1994    0.5802   19.7310 C   0  0  0  0  0  0  0  0  0  0  0  0
    6.7964   -0.2049   20.8174 C   0  0  0  0  0  0  0  0  0  0  0  0
    7.0869   -1.5371   20.6932 C   0  0  0  0  0  0  0  0  0  0  0  0
    6.7894   -2.0470   19.7861 H   0  0  0  0  0  0  0  0  0  0  0  0
    7.7574   -2.2335   21.7373 C   0  0  0  0  0  0  0  0  0  0  0  0
    7.9473   -3.2992   21.6438 H   0  0  0  0  0  0  0  0  0  0  0  0
    8.1760   -1.5688   22.8690 C   0  0  0  0  0  0  0  0  0  0  0  0
    8.8231   -2.1201   23.9072 O   0  0  0  0  0  0  0  0  0  0  0  0
    9.1881   -3.5059   23.9624 C   0  0  0  0  0  0  0  0  0  0  0  0
    8.2860   -4.1262   24.0549 H   0  0  0  0  0  0  0  0  0  0  0  0
    9.7376   -3.7976   23.0593 H   0  0  0  0  0  0  0  0  0  0  0  0
   10.0870   -3.6040   25.1937 C   0  0  0  0  0  0  0  0  0  0  0  0
   10.8285   -2.8215   25.0042 H   0  0  0  0  0  0  0  0  0  0  0  0
   10.8663   -4.9264   25.3184 C   0  0  0  0  0  0  0  0  0  0  0  0
   11.5690   -4.8060   26.1512 H   0  0  0  0  0  0  0  0  0  0  0  0
   11.4780   -5.0951   24.4340 H   0  0  0  0  0  0  0  0  0  0  0  0
    9.9820   -6.1490   25.6013 C   0  0  0  0  0  0  0  0  0  0  0  0
    9.6195   -6.5680   24.6506 H   0  0  0  0  0  0  0  0  0  0  0  0
   10.5882   -6.9408   26.0801 H   0  0  0  0  0  0  0  0  0  0  0  0
    8.8229   -5.7562   26.4152 N   0  0  0  0  0  0  0  0  0  0  0  0
    8.5071   -6.5560   26.9561 H   0  0  0  0  0  0  0  0  0  0  0  0
    9.0667   -4.6311   27.3180 C   0  0  0  0  0  0  0  0  0  0  0  0
    8.2071   -4.5349   27.9893 H   0  0  0  0  0  0  0  0  0  0  0  0
    9.9633   -4.7853   27.9475 H   0  0  0  0  0  0  0  0  0  0  0  0
    9.2535   -3.3423   26.4917 C   0  0  0  0  0  0  0  0  0  0  0  0
    8.2686   -2.9434   26.2232 H   0  0  0  0  0  0  0  0  0  0  0  0
    9.7110   -2.5575   27.1045 H   0  0  0  0  0  0  0  0  0  0  0  0
    7.9078   -0.0968   23.0150 C   0  0  0  0  0  0  0  0  0  0  0  0
    8.2720    0.6620   23.8969 O   0  0  0  0  0  0  0  0  0  0  0  0
    7.1296    0.4330   21.9901 N   0  0  0  0  0  0  0  0  0  0  0  0
    6.9390    1.4095   22.1519 H   0  0  0  0  0  0  0  0  0  0  0  0
    5.0204    1.3335   19.8405 C   0  0  0  0  0  0  0  0  0  0  0  0
    4.4929    1.3958   20.7934 H   0  0  0  0  0  0  0  0  0  0  0  0
    4.5310    1.9674   18.6966 C   0  0  0  0  0  0  0  0  0  0  0  0
    3.6212    2.5565   18.7187 H   0  0  0  0  0  0  0  0  0  0  0  0
  1  2  1  0
  2  3  2  0
  3  4  1  0
  4  5  1  0
  4  6  2  0
  6  7  1  0
  7  8  2  0
  8  9  1  0
  8 10  1  0
 10 11  1  0
 10 12  2  0
 12 13  1  0
 13 14  1  0
 14 15  1  0
 14 16  1  0
 14 17  1  0
 17 18  1  0
 17 19  1  0
 19 20  1  0
 19 21  1  0
 19 22  1  0
 22 23  1  0
 22 24  1  0
 22 25  1  0
 25 26  1  0
 25 27  1  0
 27 28  1  0
 27 29  1  0
 27 30  1  0
 30 31  1  0
 30 32  1  0
 12 33  1  0
 33 34  2  0
 33 35  1  0
 35 36  1  0
  6 37  1  0
 37 38  1  0
 37 39  2  0
 39 40  1  0
 39  2  1  0
 35  7  1  0
 30 17  1  0
M  END
>  <plip>  (1) 
-0.14285714285714285

>  <filename>  (1) 
[H][c]1[n][c]([H])[c](-[c]2[c]([H])[c]([H])[c]([O][C]([H])([H])[C]3([H])[C]([H])([H])[C]([H])([H])[N]([H])[C]([H])([H])[C]3([H])[H])[c](=[O])[n]2[H])[c]([H])[c]1[H]

$$$$
