
     RDKit          3D

 32 34  0  0  0  0  0  0  0  0999 V2000
    8.8187    3.5868   24.9123 F   0  0  0  0  0  0  0  0  0  0  0  0
    8.9174    2.9116   23.7465 C   0  0  0  0  0  0  0  0  0  0  0  0
    8.1392    1.7860   23.5362 C   0  0  0  0  0  0  0  0  0  0  0  0
    8.2347    1.1068   22.3417 C   0  0  0  0  0  0  0  0  0  0  0  0
    7.5130   -0.0438   22.1167 N   0  0  0  0  0  0  0  0  0  0  0  0
    6.7746   -0.8017   23.1252 C   0  0  0  0  0  0  0  0  0  0  0  0
    6.4941   -2.1471   22.4258 C   0  0  0  0  0  0  0  0  0  0  0  0
    7.2639   -2.1362   21.0943 C   0  0  0  0  0  0  0  0  0  0  0  0
    7.6258   -0.6934   20.8231 C   0  0  0  0  0  0  0  0  0  0  0  0
    6.7561   -0.0170   19.8086 C   0  0  0  0  0  0  0  0  0  0  0  0
    5.5366    0.5939   20.1187 C   0  0  0  0  0  0  0  0  0  0  0  0
    4.8699    1.2551   19.0915 C   0  0  0  0  0  0  0  0  0  0  0  0
    5.4246    1.2816   17.8057 C   0  0  0  0  0  0  0  0  0  0  0  0
    6.5927    0.6840   17.5122 N   0  0  0  0  0  0  0  0  0  0  0  0
    7.2396    0.0564   18.5046 C   0  0  0  0  0  0  0  0  0  0  0  0
    8.1945   -0.4134   18.2866 H   0  0  0  0  0  0  0  0  0  0  0  0
    4.9083    1.8262   17.0226 H   0  0  0  0  0  0  0  0  0  0  0  0
    3.9306    1.7633   19.2739 H   0  0  0  0  0  0  0  0  0  0  0  0
    5.1368    0.5806   21.1324 H   0  0  0  0  0  0  0  0  0  0  0  0
    8.6639   -0.6486   20.4839 H   0  0  0  0  0  0  0  0  0  0  0  0
    8.1941   -2.7034   21.2062 H   0  0  0  0  0  0  0  0  0  0  0  0
    6.7010   -2.5761   20.2658 H   0  0  0  0  0  0  0  0  0  0  0  0
    5.4271   -2.2862   22.2288 H   0  0  0  0  0  0  0  0  0  0  0  0
    6.8257   -2.9729   23.0587 H   0  0  0  0  0  0  0  0  0  0  0  0
    5.8605   -0.2633   23.3717 H   0  0  0  0  0  0  0  0  0  0  0  0
    7.3580   -0.9379   24.0497 H   0  0  0  0  0  0  0  0  0  0  0  0
    9.0605    1.4940   21.3705 N   0  0  0  0  0  0  0  0  0  0  0  0
    9.8330    2.5611   21.5685 C   0  0  0  0  0  0  0  0  0  0  0  0
    9.7969    3.3111   22.7445 C   0  0  0  0  0  0  0  0  0  0  0  0
   11.1556    5.0947   22.9918 I   0  0  0  0  0  0  0  0  0  0  0  0
   10.5265    2.8205   20.7734 H   0  0  0  0  0  0  0  0  0  0  0  0
    7.4561    1.4152   24.2827 H   0  0  0  0  0  0  0  0  0  0  0  0
  1  2  1  0
  2  3  2  0
  3  4  1  0
  4  5  1  0
  5  6  1  0
  6  7  1  0
  7  8  1  0
  8  9  1  0
  9 10  1  0
 10 11  2  0
 11 12  1  0
 12 13  2  0
 13 14  1  0
 14 15  2  0
 15 16  1  0
 13 17  1  0
 12 18  1  0
 11 19  1  0
  9 20  1  0
  8 21  1  0
  8 22  1  0
  7 23  1  0
  7 24  1  0
  6 25  1  0
  6 26  1  0
  4 27  2  0
 27 28  1  0
 28 29  2  0
 29 30  1  0
 28 31  1  0
  3 32  1  0
 29  2  1  0
  9  5  1  0
 15 10  1  0
M  END
>  <plip>  (1) 
-0.07142857142857142

>  <filename>  (1) 
[H][c]1[n][c]([H])[c]([C]2([H])[N]([c]3[n][c]([H])[c]([I])[c]([F])[c]3[H])[C]([H])([H])[C]([H])([H])[C]2([H])[H])[c]([H])[c]1[H]

$$$$
