
     RDKit          3D

 47 49  0  0  0  0  0  0  0  0999 V2000
    5.1833   -3.3637   22.7415 C   0  0  0  0  0  0  0  0  0  0  0  0
    6.0576   -2.2410   22.5085 O   0  0  0  0  0  0  0  0  0  0  0  0
    6.6856   -2.1874   21.3230 C   0  0  0  0  0  0  0  0  0  0  0  0
    6.7303   -3.1076   20.5436 O   0  0  0  0  0  0  0  0  0  0  0  0
    7.3750   -0.8204   20.9986 C   0  0  0  0  0  0  0  0  0  0  0  0
    7.6765    0.0629   22.1205 N   0  0  0  0  0  0  0  0  0  0  0  0
    8.9290    0.5626   22.3722 C   0  0  0  0  0  0  0  0  0  0  0  0
    9.8587    0.4040   21.6005 O   0  0  0  0  0  0  0  0  0  0  0  0
    9.0959    1.3161   23.7299 C   0  0  2  0  0  0  0  0  0  0  0  0
   10.1685    2.3940   23.6929 C   0  0  0  0  0  0  0  0  0  0  0  0
   10.2136    2.8802   24.6748 H   0  0  0  0  0  0  0  0  0  0  0  0
    9.9546    3.1467   22.9255 H   0  0  0  0  0  0  0  0  0  0  0  0
   11.1457    1.9447   23.4823 H   0  0  0  0  0  0  0  0  0  0  0  0
    9.4913    0.4373   24.8186 O   0  0  0  0  0  0  0  0  0  0  0  0
    8.6171   -0.5661   25.1754 C   0  0  0  0  0  0  0  0  0  0  0  0
    8.7979   -1.8213   24.6375 C   0  0  0  0  0  0  0  0  0  0  0  0
    7.9383   -2.8876   24.9763 C   0  0  0  0  0  0  0  0  0  0  0  0
    6.8859   -2.6763   25.8384 C   0  0  0  0  0  0  0  0  0  0  0  0
    5.8227   -4.0131   26.1962 Cl  0  0  0  0  0  0  0  0  0  0  0  0
    6.6444   -1.3901   26.4281 C   0  0  0  0  0  0  0  0  0  0  0  0
    5.5688   -1.1373   27.3316 C   0  0  0  0  0  0  0  0  0  0  0  0
    5.4033    0.1071   27.8945 C   0  0  0  0  0  0  0  0  0  0  0  0
    6.2964    1.1644   27.5927 C   0  0  0  0  0  0  0  0  0  0  0  0
    7.3460    0.9649   26.7238 C   0  0  0  0  0  0  0  0  0  0  0  0
    7.5457   -0.3137   26.1067 C   0  0  0  0  0  0  0  0  0  0  0  0
    8.0479    1.7662   26.5083 H   0  0  0  0  0  0  0  0  0  0  0  0
    6.1525    2.1367   28.0540 H   0  0  0  0  0  0  0  0  0  0  0  0
    4.5879    0.2800   28.5905 H   0  0  0  0  0  0  0  0  0  0  0  0
    4.8922   -1.9504   27.5740 H   0  0  0  0  0  0  0  0  0  0  0  0
    8.0811   -3.8650   24.5234 H   0  0  0  0  0  0  0  0  0  0  0  0
    9.5969   -1.9604   23.9161 H   0  0  0  0  0  0  0  0  0  0  0  0
    8.1197    1.7578   23.9714 H   0  0  0  0  0  0  0  0  0  0  0  0
    6.9113    0.3179   22.7264 H   0  0  0  0  0  0  0  0  0  0  0  0
    6.6265   -0.0432   19.9127 C   0  0  0  0  0  0  0  0  0  0  0  0
    5.4093    0.6145   20.1419 C   0  0  0  0  0  0  0  0  0  0  0  0
    4.8024    1.2841   19.0776 C   0  0  0  0  0  0  0  0  0  0  0  0
    5.4305    1.2881   17.8280 C   0  0  0  0  0  0  0  0  0  0  0  0
    6.6013    0.6773   17.5911 N   0  0  0  0  0  0  0  0  0  0  0  0
    7.1759    0.0466   18.6226 C   0  0  0  0  0  0  0  0  0  0  0  0
    8.1305   -0.4392   18.4105 H   0  0  0  0  0  0  0  0  0  0  0  0
    4.9805    1.8152   16.9876 H   0  0  0  0  0  0  0  0  0  0  0  0
    3.8758    1.8319   19.2090 H   0  0  0  0  0  0  0  0  0  0  0  0
    4.9486    0.6225   21.1333 H   0  0  0  0  0  0  0  0  0  0  0  0
    8.3278   -1.1482   20.5615 H   0  0  0  0  0  0  0  0  0  0  0  0
    4.6523   -3.1382   23.6678 H   0  0  0  0  0  0  0  0  0  0  0  0
    4.4824   -3.4662   21.9047 H   0  0  0  0  0  0  0  0  0  0  0  0
    5.7583   -4.2891   22.8482 H   0  0  0  0  0  0  0  0  0  0  0  0
  1  2  1  0
  2  3  1  0
  3  4  2  0
  3  5  1  0
  5  6  1  0
  6  7  1  0
  7  8  2  0
  7  9  1  0
  9 10  1  0
 10 11  1  0
 10 12  1  0
 10 13  1  0
  9 14  1  0
 14 15  1  0
 15 16  2  0
 16 17  1  0
 17 18  2  0
 18 19  1  0
 18 20  1  0
 20 21  2  0
 21 22  1  0
 22 23  2  0
 23 24  1  0
 24 25  2  0
 24 26  1  0
 23 27  1  0
 22 28  1  0
 21 29  1  0
 17 30  1  0
 16 31  1  0
  9 32  1  1
  6 33  1  0
  5 34  1  0
 34 35  2  0
 35 36  1  0
 36 37  2  0
 37 38  1  0
 38 39  2  0
 39 40  1  0
 37 41  1  0
 36 42  1  0
 35 43  1  0
  5 44  1  0
  1 45  1  0
  1 46  1  0
  1 47  1  0
 25 15  1  0
 39 34  1  0
 25 20  1  0
M  END
>  <plip>  (1) 
-0.10714285714285714

>  <filename>  (1) 
[H][c]1[n][c]([H])[c]([C]([H])([C](=[O])[O][C]([H])([H])[H])[N]([H])[C](=[O])[C@@]([H])([O][c]2[c]([H])[c]([H])[c]([Cl])[c]3[c]([H])[c]([H])[c]([H])[c]([H])[c]23)[C]([H])([H])[H])[c]([H])[c]1[H]

$$$$
