
     RDKit          3D

 32 34  0  0  0  0  0  0  0  0999 V2000
   10.4611   -0.9896   24.9143 F   0  0  0  0  0  0  0  0  0  0  0  0
    9.1184   -0.9999   25.0908 C   0  0  0  0  0  0  0  0  0  0  0  0
    8.5727   -0.3263   26.1884 C   0  0  0  0  0  0  0  0  0  0  0  0
    7.1908   -0.3184   26.4046 C   0  0  0  0  0  0  0  0  0  0  0  0
    6.3264    0.7738   28.1718 I   0  0  0  0  0  0  0  0  0  0  0  0
    6.3511   -0.9983   25.5156 C   0  0  0  0  0  0  0  0  0  0  0  0
    6.8842   -1.6768   24.4152 C   0  0  0  0  0  0  0  0  0  0  0  0
    8.2707   -1.6746   24.1913 C   0  0  0  0  0  0  0  0  0  0  0  0
    8.8373   -2.3956   23.0037 C   0  0  0  0  0  0  0  0  0  0  0  0
    9.3699   -1.4245   22.0472 N   0  0  0  0  0  0  0  0  0  0  0  0
   10.6887   -1.0700   21.9055 C   0  0  0  0  0  0  0  0  0  0  0  0
   10.7978   -0.1569   20.9805 N   0  0  0  0  0  0  0  0  0  0  0  0
    9.5422    0.0830   20.4773 N   0  0  0  0  0  0  0  0  0  0  0  0
    8.6927   -0.6701   21.1252 C   0  0  0  0  0  0  0  0  0  0  0  0
    7.3160   -0.6941   20.9417 N   0  0  0  0  0  0  0  0  0  0  0  0
    6.6654    0.0009   19.9015 C   0  0  0  0  0  0  0  0  0  0  0  0
    5.4486    0.6299   20.1623 C   0  0  0  0  0  0  0  0  0  0  0  0
    4.8179    1.3022   19.1065 C   0  0  0  0  0  0  0  0  0  0  0  0
    5.3994    1.2977   17.8255 C   0  0  0  0  0  0  0  0  0  0  0  0
    6.5682    0.6881   17.5560 N   0  0  0  0  0  0  0  0  0  0  0  0
    7.1885    0.0725   18.5849 C   0  0  0  0  0  0  0  0  0  0  0  0
    8.1296   -0.4347   18.3967 H   0  0  0  0  0  0  0  0  0  0  0  0
    4.8839    1.7957   17.0107 H   0  0  0  0  0  0  0  0  0  0  0  0
    3.8830    1.8335   19.2632 H   0  0  0  0  0  0  0  0  0  0  0  0
    5.0213    0.6183   21.1653 H   0  0  0  0  0  0  0  0  0  0  0  0
    6.7685   -1.1112   21.6859 H   0  0  0  0  0  0  0  0  0  0  0  0
   11.5221   -1.4753   22.4711 H   0  0  0  0  0  0  0  0  0  0  0  0
    9.6315   -3.0707   23.3401 H   0  0  0  0  0  0  0  0  0  0  0  0
    8.0712   -3.0161   22.5291 H   0  0  0  0  0  0  0  0  0  0  0  0
    6.2077   -2.2007   23.7436 H   0  0  0  0  0  0  0  0  0  0  0  0
    5.2797   -0.9916   25.6919 H   0  0  0  0  0  0  0  0  0  0  0  0
    9.2207    0.1984   26.8842 H   0  0  0  0  0  0  0  0  0  0  0  0
  1  2  1  0
  2  3  2  0
  3  4  1  0
  4  5  1  0
  4  6  2  0
  6  7  1  0
  7  8  2  0
  8  9  1  0
  9 10  1  0
 10 11  1  0
 11 12  2  0
 12 13  1  0
 13 14  2  0
 14 15  1  0
 15 16  1  0
 16 17  2  0
 17 18  1  0
 18 19  2  0
 19 20  1  0
 20 21  2  0
 21 22  1  0
 19 23  1  0
 18 24  1  0
 17 25  1  0
 15 26  1  0
 11 27  1  0
  9 28  1  0
  9 29  1  0
  7 30  1  0
  6 31  1  0
  3 32  1  0
  8  2  1  0
 14 10  1  0
 21 16  1  0
M  END
>  <plip>  (1) 
-0.10714285714285714

>  <filename>  (1) 
[H][c]1[n][c]([H])[c]([N]([H])[c]2[n][n][c]([H])[n]2[C]([H])([H])[c]2[c]([H])[c]([H])[c]([I])[c]([H])[c]2[F])[c]([H])[c]1[H]

$$$$
