
     RDKit          3D

 32 34  0  0  0  0  0  0  0  0999 V2000
    8.7973   -3.1898   22.2564 H   0  0  0  0  0  0  0  0  0  0  0  0
    8.3200   -2.2672   21.9494 C   0  0  0  0  0  0  0  0  0  0  0  0
    7.9253   -1.9366   20.7713 N   0  0  0  0  0  0  0  0  0  0  0  0
    7.3480   -0.6904   20.9487 C   0  0  0  0  0  0  0  0  0  0  0  0
    6.6415    0.0010   19.8845 C   0  0  0  0  0  0  0  0  0  0  0  0
    7.1653    0.0381   18.5819 C   0  0  0  0  0  0  0  0  0  0  0  0
    8.1170   -0.4375   18.3595 H   0  0  0  0  0  0  0  0  0  0  0  0
    6.5655    0.6748   17.5724 N   0  0  0  0  0  0  0  0  0  0  0  0
    5.4060    1.2972   17.8341 C   0  0  0  0  0  0  0  0  0  0  0  0
    4.9318    1.7904   16.9906 H   0  0  0  0  0  0  0  0  0  0  0  0
    4.8010    1.3160   19.0959 C   0  0  0  0  0  0  0  0  0  0  0  0
    3.8708    1.8441   19.2480 H   0  0  0  0  0  0  0  0  0  0  0  0
    5.4272    0.6524   20.1446 C   0  0  0  0  0  0  0  0  0  0  0  0
    5.0003    0.6301   21.1524 H   0  0  0  0  0  0  0  0  0  0  0  0
    7.4784   -0.3150   22.2687 C   0  0  0  0  0  0  0  0  0  0  0  0
    7.2433    0.8618   22.9445 N   0  0  0  0  0  0  0  0  0  0  0  0
    6.6382    0.8650   24.2388 C   0  0  0  0  0  0  0  0  0  0  0  0
    7.3238    0.2880   25.3112 C   0  0  0  0  0  0  0  0  0  0  0  0
    8.2844   -0.1699   25.1069 H   0  0  0  0  0  0  0  0  0  0  0  0
    6.7697    0.3207   26.5926 C   0  0  0  0  0  0  0  0  0  0  0  0
    7.3151   -0.1404   27.4107 H   0  0  0  0  0  0  0  0  0  0  0  0
    5.5257    0.9238   26.8117 C   0  0  0  0  0  0  0  0  0  0  0  0
    5.1006    0.9339   27.8136 H   0  0  0  0  0  0  0  0  0  0  0  0
    4.8398    1.5098   25.7419 C   0  0  0  0  0  0  0  0  0  0  0  0
    3.8793    1.9908   25.9134 H   0  0  0  0  0  0  0  0  0  0  0  0
    5.3983    1.4890   24.4565 C   0  0  0  0  0  0  0  0  0  0  0  0
    4.8870    1.9512   23.6165 H   0  0  0  0  0  0  0  0  0  0  0  0
    7.4072    2.1365   22.2484 C   0  0  0  0  0  0  0  0  0  0  0  0
    7.8772    2.8630   22.9213 H   0  0  0  0  0  0  0  0  0  0  0  0
    8.0505    1.9889   21.3751 H   0  0  0  0  0  0  0  0  0  0  0  0
    6.4743    2.5944   21.8801 H   0  0  0  0  0  0  0  0  0  0  0  0
    8.0940   -1.3472   22.9149 O   0  0  0  0  0  0  0  0  0  0  0  0
  1  2  1  0
  2  3  2  0
  3  4  1  0
  4  5  1  0
  5  6  2  0
  6  7  1  0
  6  8  1  0
  8  9  2  0
  9 10  1  0
  9 11  1  0
 11 12  1  0
 11 13  2  0
 13 14  1  0
  4 15  2  0
 15 16  1  0
 16 17  1  0
 17 18  2  0
 18 19  1  0
 18 20  1  0
 20 21  1  0
 20 22  2  0
 22 23  1  0
 22 24  1  0
 24 25  1  0
 24 26  2  0
 26 27  1  0
 16 28  1  0
 28 29  1  0
 28 30  1  0
 28 31  1  0
 15 32  1  0
 32  2  1  0
 13  5  1  0
 26 17  1  0
M  END
>  <plip>  (1) 
-0.034482758620689655

>  <filename>  (1) 
[H][c]1[n][c](-[c]2[c]([H])[n][c]([H])[c]([H])[c]2[H])[c]([N]([c]2[c]([H])[c]([H])[c]([H])[c]([H])[c]2[H])[C]([H])([H])[H])[o]1

$$$$
