
     RDKit          3D

 39 40  0  0  0  0  0  0  0  0999 V2000
    9.2183    1.0560   21.2102 C   0  0  0  0  0  0  0  0  0  0  0  0
    8.1133    0.2835   21.9324 C   0  0  0  0  0  0  0  0  0  0  0  0
    7.3955   -0.7143   21.0076 C   0  0  0  0  0  0  0  0  0  0  0  0
    6.6392   -0.0280   19.8835 C   0  0  0  0  0  0  0  0  0  0  0  0
    5.4331    0.6412   20.1409 C   0  0  0  0  0  0  0  0  0  0  0  0
    4.8024    1.3133   19.0927 C   0  0  0  0  0  0  0  0  0  0  0  0
    5.3920    1.3016   17.8246 C   0  0  0  0  0  0  0  0  0  0  0  0
    6.5514    0.6861   17.5618 N   0  0  0  0  0  0  0  0  0  0  0  0
    7.1512    0.0492   18.5739 C   0  0  0  0  0  0  0  0  0  0  0  0
    8.1078   -0.4193   18.3449 H   0  0  0  0  0  0  0  0  0  0  0  0
    4.9142    1.7996   16.9831 H   0  0  0  0  0  0  0  0  0  0  0  0
    3.8759    1.8477   19.2464 H   0  0  0  0  0  0  0  0  0  0  0  0
    5.0161    0.6362   21.1531 H   0  0  0  0  0  0  0  0  0  0  0  0
    6.6988   -1.2892   21.6368 H   0  0  0  0  0  0  0  0  0  0  0  0
    8.1382   -1.4202   20.6063 H   0  0  0  0  0  0  0  0  0  0  0  0
    8.6573   -0.4275   23.1185 N   0  0  0  0  0  4  0  0  0  0  0  0
    8.8770    0.4333   24.2961 C   0  0  0  0  0  0  0  0  0  0  0  0
    9.5449   -0.3333   25.4253 C   0  0  0  0  0  0  0  0  0  0  0  0
    8.6991   -1.4482   26.0550 C   0  0  0  0  0  0  0  0  0  0  0  0
    7.4017   -0.9941   26.5232 N   0  0  0  0  0  0  0  0  0  0  0  0
    6.1841   -1.1493   25.8863 C   0  0  0  0  0  0  0  0  0  0  0  0
    5.2762   -0.4723   26.6565 C   0  0  0  0  0  0  0  0  0  0  0  0
    5.8991    0.1092   27.7291 N   0  0  0  0  0  0  0  0  0  0  0  0
    7.1624   -0.2129   27.6175 C   0  0  0  0  0  0  0  0  0  0  0  0
    7.9513    0.0910   28.2997 H   0  0  0  0  0  0  0  0  0  0  0  0
    4.2071   -0.3781   26.5109 H   0  0  0  0  0  0  0  0  0  0  0  0
    6.0756   -1.6986   24.9609 H   0  0  0  0  0  0  0  0  0  0  0  0
    8.5188   -2.2551   25.3380 H   0  0  0  0  0  0  0  0  0  0  0  0
    9.2366   -1.8984   26.8992 H   0  0  0  0  0  0  0  0  0  0  0  0
   10.5030   -0.7437   25.0793 H   0  0  0  0  0  0  0  0  0  0  0  0
    9.7904    0.3903   26.2135 H   0  0  0  0  0  0  0  0  0  0  0  0
    7.9227    0.8441   24.6538 H   0  0  0  0  0  0  0  0  0  0  0  0
    9.4970    1.2998   24.0289 H   0  0  0  0  0  0  0  0  0  0  0  0
    8.0074   -1.1975   23.3877 H   0  0  0  0  0  0  0  0  0  0  0  0
    9.5721   -0.8673   22.8334 H   0  0  0  0  0  0  0  0  0  0  0  0
    7.3654    1.0088   22.2831 H   0  0  0  0  0  0  0  0  0  0  0  0
    9.9574    0.3676   20.7788 H   0  0  0  0  0  0  0  0  0  0  0  0
    9.7439    1.7527   21.8746 H   0  0  0  0  0  0  0  0  0  0  0  0
    8.7802    1.6448   20.4015 H   0  0  0  0  0  0  0  0  0  0  0  0
  1  2  1  0
  2  3  1  0
  3  4  1  0
  4  5  2  0
  5  6  1  0
  6  7  2  0
  7  8  1  0
  8  9  2  0
  9 10  1  0
  7 11  1  0
  6 12  1  0
  5 13  1  0
  3 14  1  0
  3 15  1  0
  2 16  1  0
 16 17  1  0
 17 18  1  0
 18 19  1  0
 19 20  1  0
 20 21  1  0
 21 22  2  0
 22 23  1  0
 23 24  2  0
 24 25  1  0
 22 26  1  0
 21 27  1  0
 19 28  1  0
 19 29  1  0
 18 30  1  0
 18 31  1  0
 17 32  1  0
 17 33  1  0
 16 34  1  0
 16 35  1  0
  2 36  1  0
  1 37  1  0
  1 38  1  0
  1 39  1  0
  9  4  1  0
 24 20  1  0
M  CHG  1  16   1
M  END
>  <plip>  (1) 
-0.03571428571428571

>  <filename>  (1) 
[H][c]1[n][c]([H])[c]([C]([H])([H])[C]([H])([C]([H])([H])[H])[N+]([H])([H])[C]([H])([H])[C]([H])([H])[C]([H])([H])[n]2[c]([H])[n][c]([H])[c]2[H])[c]([H])[c]1[H]

$$$$
