
     RDKit          3D

 45 47  0  0  0  0  0  0  0  0999 V2000
    7.7931   -2.0424   20.6656 O   0  0  0  0  0  0  0  0  0  0  0  0
    7.3686   -0.7239   21.0066 C   0  0  0  0  0  0  0  0  0  0  0  0
    8.6050    0.1160   21.3757 C   0  0  0  0  0  0  0  0  0  0  0  0
    9.3366   -0.4217   22.5726 N   0  0  0  0  0  4  0  0  0  0  0  0
   10.7227    0.1355   22.7711 C   0  0  0  0  0  0  0  0  0  0  0  0
   10.9352    0.0594   24.2789 C   0  0  0  0  0  0  0  0  0  0  0  0
    9.5605    0.3863   24.8455 C   0  0  0  0  0  0  0  0  0  0  0  0
    8.5842   -0.3320   23.9023 C   0  0  2  0  0  0  0  0  0  0  0  0
    8.1560   -1.7259   24.3537 C   0  0  0  0  0  0  0  0  0  0  0  0
    7.3476   -1.5239   25.4909 O   0  0  0  0  0  0  0  0  0  0  0  0
    6.7758   -2.5717   26.1396 C   0  0  0  0  0  0  0  0  0  0  0  0
    6.8394   -3.9176   25.7527 C   0  0  0  0  0  0  0  0  0  0  0  0
    6.1727   -4.8810   26.5273 C   0  0  0  0  0  0  0  0  0  0  0  0
    5.4574   -4.5093   27.6669 C   0  0  0  0  0  0  0  0  0  0  0  0
    5.4055   -3.1610   28.0457 C   0  0  0  0  0  0  0  0  0  0  0  0
    6.0640   -2.1987   27.2904 C   0  0  0  0  0  0  0  0  0  0  0  0
    6.0540   -1.1465   27.5573 H   0  0  0  0  0  0  0  0  0  0  0  0
    4.8628   -2.8610   28.9424 H   0  0  0  0  0  0  0  0  0  0  0  0
    4.9473   -5.2646   28.2627 H   0  0  0  0  0  0  0  0  0  0  0  0
    6.2238   -5.9287   26.2283 H   0  0  0  0  0  0  0  0  0  0  0  0
    7.3945   -4.2049   24.8656 H   0  0  0  0  0  0  0  0  0  0  0  0
    7.6003   -2.2248   23.5441 H   0  0  0  0  0  0  0  0  0  0  0  0
    9.0410   -2.3446   24.5822 H   0  0  0  0  0  0  0  0  0  0  0  0
    7.6796    0.2675   23.7803 H   0  0  0  0  0  0  0  0  0  0  0  0
    9.4314    0.0809   25.8876 H   0  0  0  0  0  0  0  0  0  0  0  0
    9.3859    1.4659   24.7892 H   0  0  0  0  0  0  0  0  0  0  0  0
   11.1925   -0.9590   24.5719 H   0  0  0  0  0  0  0  0  0  0  0  0
   11.7235    0.7345   24.6285 H   0  0  0  0  0  0  0  0  0  0  0  0
   10.7498    1.1747   22.4229 H   0  0  0  0  0  0  0  0  0  0  0  0
   11.4579   -0.4319   22.1897 H   0  0  0  0  0  0  0  0  0  0  0  0
    9.4360   -1.4413   22.3535 H   0  0  0  0  0  0  0  0  0  0  0  0
    8.2969    1.1547   21.5455 H   0  0  0  0  0  0  0  0  0  0  0  0
    9.2686    0.1060   20.4989 H   0  0  0  0  0  0  0  0  0  0  0  0
    6.6069   -0.0781   19.8760 C   0  0  0  0  0  0  0  0  0  0  0  0
    5.4191    0.6309   20.1066 C   0  0  0  0  0  0  0  0  0  0  0  0
    4.8277    1.3174   19.0431 C   0  0  0  0  0  0  0  0  0  0  0  0
    5.4494    1.2802   17.7900 C   0  0  0  0  0  0  0  0  0  0  0  0
    6.5732    0.5911   17.5429 N   0  0  0  0  0  0  0  0  0  0  0  0
    7.1209   -0.0731   18.5652 C   0  0  0  0  0  0  0  0  0  0  0  0
    8.0401   -0.6078   18.3232 H   0  0  0  0  0  0  0  0  0  0  0  0
    5.0345    1.8326   16.9493 H   0  0  0  0  0  0  0  0  0  0  0  0
    3.9189    1.8952   19.1781 H   0  0  0  0  0  0  0  0  0  0  0  0
    4.9673    0.6377   21.1026 H   0  0  0  0  0  0  0  0  0  0  0  0
    6.7096   -0.8082   21.8861 H   0  0  0  0  0  0  0  0  0  0  0  0
    7.7320   -2.1114   19.7069 H   0  0  0  0  0  0  0  0  0  0  0  0
  1  2  1  0
  2  3  1  0
  3  4  1  0
  4  5  1  0
  5  6  1  0
  6  7  1  0
  7  8  1  0
  8  9  1  0
  9 10  1  0
 10 11  1  0
 11 12  2  0
 12 13  1  0
 13 14  2  0
 14 15  1  0
 15 16  2  0
 16 17  1  0
 15 18  1  0
 14 19  1  0
 13 20  1  0
 12 21  1  0
  9 22  1  0
  9 23  1  0
  8 24  1  6
  7 25  1  0
  7 26  1  0
  6 27  1  0
  6 28  1  0
  5 29  1  0
  5 30  1  0
  4 31  1  0
  3 32  1  0
  3 33  1  0
  2 34  1  0
 34 35  2  0
 35 36  1  0
 36 37  2  0
 37 38  1  0
 38 39  2  0
 39 40  1  0
 37 41  1  0
 36 42  1  0
 35 43  1  0
  2 44  1  0
  1 45  1  0
  8  4  1  0
 16 11  1  0
 39 34  1  0
M  CHG  1   4   1
M  END
>  <plip>  (1) 
-0.06896551724137931

>  <filename>  (1) 
[H][O][C]([H])([c]1[c]([H])[n][c]([H])[c]([H])[c]1[H])[C]([H])([H])[N+]1([H])[C]([H])([H])[C]([H])([H])[C]([H])([H])[C@]1([H])[C]([H])([H])[O][c]1[c]([H])[c]([H])[c]([H])[c]([H])[c]1[H]

$$$$
