
     RDKit          3D

 34 37  0  0  0  0  0  0  0  0999 V2000
    5.0199    1.8011   16.9384 H   0  0  0  0  0  0  0  0  0  0  0  0
    5.4426    1.2939   17.8038 C   0  0  0  0  0  0  0  0  0  0  0  0
    6.5770    0.6137   17.5820 N   0  0  0  0  0  0  0  0  0  0  0  0
    7.1393   -0.0071   18.6224 C   0  0  0  0  0  0  0  0  0  0  0  0
    8.0392   -0.5807   18.4112 H   0  0  0  0  0  0  0  0  0  0  0  0
    6.6326    0.0472   19.9308 C   0  0  0  0  0  0  0  0  0  0  0  0
    7.3676   -0.6055   21.0055 C   0  0  0  0  0  0  0  0  0  0  0  0
    7.9510   -1.8380   20.8294 N   0  0  0  0  0  0  0  0  0  0  0  0
    8.3879   -2.1422   22.0203 C   0  0  0  0  0  0  0  0  0  0  0  0
    9.2178   -3.4902   22.7449 S   0  0  0  0  0  0  0  0  0  0  0  0
    9.3214   -2.6109   24.2628 C   0  0  0  0  0  0  0  0  0  0  0  0
    9.8543   -3.0542   25.0935 H   0  0  0  0  0  0  0  0  0  0  0  0
    8.7113   -1.4153   24.2107 C   0  0  0  0  0  0  0  0  0  0  0  0
    8.5718   -0.6873   25.0053 H   0  0  0  0  0  0  0  0  0  0  0  0
    8.1736   -1.1638   22.9528 N   0  0  0  0  0  0  0  0  0  0  0  0
    7.5236   -0.1365   22.3023 C   0  0  0  0  0  0  0  0  0  0  0  0
    7.2342    1.1373   23.0285 C   0  0  0  0  0  0  0  0  0  0  0  0
    8.1312    1.4788   23.5733 H   0  0  0  0  0  0  0  0  0  0  0  0
    6.9888    1.9262   22.3104 H   0  0  0  0  0  0  0  0  0  0  0  0
    6.1159    1.0187   23.9717 N   0  0  0  0  0  0  0  0  0  0  0  0
    5.9850   -0.0099   24.9144 N   0  0  0  0  0  0  0  0  0  0  0  0
    4.7501    0.1037   25.2616 C   0  0  0  0  0  0  0  0  0  0  0  0
    4.0971   -0.6723   26.1075 O   0  0  0  0  0  0  0  0  0  0  0  0
    2.7766   -0.2819   26.5233 C   0  0  0  0  0  0  0  0  0  0  0  0
    2.4435   -1.0724   27.1928 H   0  0  0  0  0  0  0  0  0  0  0  0
    2.8162    0.6704   27.0651 H   0  0  0  0  0  0  0  0  0  0  0  0
    2.0985   -0.2095   25.6653 H   0  0  0  0  0  0  0  0  0  0  0  0
    4.0587    1.0924   24.6640 O   0  0  0  0  0  0  0  0  0  0  0  0
    4.9326    1.6646   23.7787 C   0  0  0  0  0  0  0  0  0  0  0  0
    4.6226    2.5451   23.0248 O   0  0  0  0  0  0  0  0  0  0  0  0
    5.4171    0.7217   20.1404 C   0  0  0  0  0  0  0  0  0  0  0  0
    4.9364    0.7410   21.1206 H   0  0  0  0  0  0  0  0  0  0  0  0
    4.8143    1.3491   19.0521 C   0  0  0  0  0  0  0  0  0  0  0  0
    3.8786    1.8828   19.1587 H   0  0  0  0  0  0  0  0  0  0  0  0
  1  2  1  0
  2  3  2  0
  3  4  1  0
  4  5  1  0
  4  6  2  0
  6  7  1  0
  7  8  1  0
  8  9  2  0
  9 10  1  0
 10 11  1  0
 11 12  1  0
 11 13  2  0
 13 14  1  0
 13 15  1  0
 15 16  1  0
 16 17  1  0
 17 18  1  0
 17 19  1  0
 17 20  1  0
 20 21  1  0
 21 22  2  0
 22 23  1  0
 23 24  1  0
 24 25  1  0
 24 26  1  0
 24 27  1  0
 22 28  1  0
 28 29  1  0
 29 30  2  0
  6 31  1  0
 31 32  1  0
 31 33  2  0
 33 34  1  0
 33  2  1  0
 16  7  2  0
 29 20  1  0
 15  9  1  0
M  END
>  <plip>  (1) 
-0.06896551724137931

>  <filename>  (1) 
[H][c]1[n][c]([H])[c](-[c]2[n][c]3[s][c]([H])[c]([H])[n]3[c]2[C]([H])([H])[n]2[n][c]([O][C]([H])([H])[H])[o][c]2=[O])[c]([H])[c]1[H]

$$$$
