
     RDKit          3D

 21 22  0  0  0  0  0  0  0  0999 V2000
    5.0124    1.4884   17.0378 H   0  0  0  0  0  0  0  0  0  0  0  0
    5.5468    1.0711   17.8917 C   0  0  0  0  0  0  0  0  0  0  0  0
    6.6974    0.4307   17.6269 N   0  0  0  0  0  0  0  0  0  0  0  0
    7.3866   -0.0872   18.6568 C   0  0  0  0  0  0  0  0  0  0  0  0
    8.3257   -0.5939   18.4351 H   0  0  0  0  0  0  0  0  0  0  0  0
    6.9552    0.0083   19.9872 C   0  0  0  0  0  0  0  0  0  0  0  0
    7.7328   -0.5342   21.0006 O   0  0  0  0  0  0  0  0  0  0  0  0
    7.2356   -1.6440   21.6540 C   0  0  0  0  0  0  0  0  0  0  0  0
    6.4630   -2.7079   21.1286 C   0  0  0  0  0  0  0  0  0  0  0  0
    6.0591   -2.8098   20.1276 H   0  0  0  0  0  0  0  0  0  0  0  0
    6.2443   -3.6372   22.0478 N   0  0  0  0  0  0  0  0  0  0  0  0
    6.8447   -3.1765   23.1556 N   0  0  0  0  0  0  0  0  0  0  0  0
    6.9418   -3.7277   23.9983 H   0  0  0  0  0  0  0  0  0  0  0  0
    7.4808   -2.0001   22.9788 C   0  0  0  0  0  0  0  0  0  0  0  0
    8.1681   -1.4293   24.0303 N   0  0  0  0  0  0  0  0  0  0  0  0
    8.5233   -1.6317   25.1595 C   0  0  0  0  0  0  0  0  0  0  0  0
    9.0770   -1.7670   26.6200 S   0  0  0  0  0  0  0  0  0  0  0  0
    5.7535    0.6714   20.2600 C   0  0  0  0  0  0  0  0  0  0  0  0
    5.4127    0.7541   21.2913 H   0  0  0  0  0  0  0  0  0  0  0  0
    5.0345    1.2136   19.1869 C   0  0  0  0  0  0  0  0  0  0  0  0
    4.0981    1.7420   19.3435 H   0  0  0  0  0  0  0  0  0  0  0  0
  1  2  1  0
  2  3  2  0
  3  4  1  0
  4  5  1  0
  4  6  2  0
  6  7  1  0
  7  8  1  0
  8  9  1  0
  9 10  1  0
  9 11  2  0
 11 12  1  0
 12 13  1  0
 12 14  1  0
 14 15  1  0
 15 16  2  0
 16 17  2  0
  6 18  1  0
 18 19  1  0
 18 20  2  0
 20 21  1  0
 20  2  1  0
 14  8  2  0
M  END
>  <plip>  (1) 
-0.07142857142857142

>  <filename>  (1) 
[H][c]1[n][c]([H])[c]([O][c]2[c]([H])[n][n]([H])[c]2[N]=[C]=[S])[c]([H])[c]1[H]

$$$$
