
     RDKit          3D

 33 35  0  0  0  0  0  0  0  0999 V2000
    6.7747   -1.4470   21.8306 O   0  0  0  0  0  0  0  0  0  0  0  0
    7.3674   -0.9029   20.9071 C   0  0  0  0  0  0  0  0  0  0  0  0
    8.7264   -1.0010   20.7552 N   0  0  0  0  0  0  0  0  0  0  0  0
    9.5671   -1.6078   21.7980 C   0  0  0  0  0  0  0  0  0  0  0  0
    9.5245   -0.9341   23.1464 C   0  0  0  0  0  0  0  0  0  0  0  0
   10.4324   -0.1136   23.5985 N   0  0  0  0  0  0  0  0  0  0  0  0
   10.0014    0.3511   24.8093 N   0  0  0  0  0  0  0  0  0  0  0  0
    8.8481   -0.2105   25.0713 C   0  0  0  0  0  0  0  0  0  0  0  0
    8.0469    0.0216   26.3003 C   0  0  0  0  0  0  0  0  0  0  0  0
    7.0998   -0.8972   26.7809 C   0  0  0  0  0  0  0  0  0  0  0  0
    6.4317   -0.6169   27.9770 C   0  0  0  0  0  0  0  0  0  0  0  0
    6.6082    0.5075   28.6798 N   0  0  0  0  0  0  0  0  0  0  0  0
    7.5036    1.3873   28.2147 C   0  0  0  0  0  0  0  0  0  0  0  0
    8.2518    1.1893   27.0560 C   0  0  0  0  0  0  0  0  0  0  0  0
    9.0028    1.9125   26.7548 H   0  0  0  0  0  0  0  0  0  0  0  0
    7.6334    2.2945   28.8012 H   0  0  0  0  0  0  0  0  0  0  0  0
    5.7185   -1.3231   28.3944 H   0  0  0  0  0  0  0  0  0  0  0  0
    6.8974   -1.8321   26.2711 H   0  0  0  0  0  0  0  0  0  0  0  0
    8.4996   -1.0511   24.0497 N   0  0  0  0  0  0  0  0  0  0  0  0
    7.5571   -1.3069   23.7857 H   0  0  0  0  0  0  0  0  0  0  0  0
   10.6074   -1.5931   21.4645 H   0  0  0  0  0  0  0  0  0  0  0  0
    9.2692   -2.6548   21.9144 H   0  0  0  0  0  0  0  0  0  0  0  0
    9.1335   -0.2319   20.2472 H   0  0  0  0  0  0  0  0  0  0  0  0
    6.6787   -0.0851   19.8839 C   0  0  0  0  0  0  0  0  0  0  0  0
    5.4776    0.5918   20.1497 C   0  0  0  0  0  0  0  0  0  0  0  0
    4.8921    1.3050   19.1058 C   0  0  0  0  0  0  0  0  0  0  0  0
    5.5045    1.2901   17.8462 C   0  0  0  0  0  0  0  0  0  0  0  0
    6.6364    0.6216   17.5832 N   0  0  0  0  0  0  0  0  0  0  0  0
    7.2061   -0.0364   18.5926 C   0  0  0  0  0  0  0  0  0  0  0  0
    8.1200   -0.5767   18.3438 H   0  0  0  0  0  0  0  0  0  0  0  0
    5.0653    1.8292   17.0097 H   0  0  0  0  0  0  0  0  0  0  0  0
    3.9691    1.8583   19.2412 H   0  0  0  0  0  0  0  0  0  0  0  0
    5.0120    0.5530   21.1383 H   0  0  0  0  0  0  0  0  0  0  0  0
  1  2  2  0
  2  3  1  0
  3  4  1  0
  4  5  1  0
  5  6  2  0
  6  7  1  0
  7  8  2  0
  8  9  1  0
  9 10  2  0
 10 11  1  0
 11 12  2  0
 12 13  1  0
 13 14  2  0
 14 15  1  0
 13 16  1  0
 11 17  1  0
 10 18  1  0
  8 19  1  0
 19 20  1  0
  4 21  1  0
  4 22  1  0
  3 23  1  0
  2 24  1  0
 24 25  2  0
 25 26  1  0
 26 27  2  0
 27 28  1  0
 28 29  2  0
 29 30  1  0
 27 31  1  0
 26 32  1  0
 25 33  1  0
 19  5  1  0
 29 24  1  0
 14  9  1  0
M  END
>  <plip>  (1) 
-0.03571428571428571

>  <filename>  (1) 
[H][c]1[n][c]([H])[c]([C](=[O])[N]([H])[C]([H])([H])[c]2[n][n][c](-[c]3[c]([H])[c]([H])[n][c]([H])[c]3[H])[n]2[H])[c]([H])[c]1[H]

$$$$
