
     RDKit          3D

 25 26  0  0  0  0  0  0  0  0999 V2000
    9.3779   -0.3195   20.3847 H   0  0  0  0  0  0  0  0  0  0  0  0
    8.7467   -0.8112   21.1107 C   0  0  0  0  0  0  0  0  0  0  0  0
    9.3502   -1.4464   22.0998 N   0  0  0  0  0  0  0  0  0  0  0  0
    8.5928   -2.0545   23.0345 N   0  0  0  0  0  0  0  0  0  0  0  0
    7.2611   -1.9554   22.9443 C   0  0  0  0  0  0  0  0  0  0  0  0
    6.4826   -2.5277   23.8730 O   0  0  0  0  0  0  0  0  0  0  0  0
    7.0209   -3.3001   24.9644 C   0  0  0  0  0  0  0  0  0  0  0  0
    6.1947   -3.3684   25.6712 H   0  0  0  0  0  0  0  0  0  0  0  0
    7.8537   -2.7932   25.4608 H   0  0  0  0  0  0  0  0  0  0  0  0
    7.4230   -4.6982   24.5126 C   0  0  0  0  0  0  0  0  0  0  0  0
    6.5655   -5.2216   24.0784 H   0  0  0  0  0  0  0  0  0  0  0  0
    8.2388   -4.6318   23.7874 H   0  0  0  0  0  0  0  0  0  0  0  0
    7.8535   -5.4059   25.6216 F   0  0  0  0  0  0  0  0  0  0  0  0
    6.5804   -1.3150   21.9699 N   0  0  0  0  0  0  0  0  0  0  0  0
    7.3240   -0.7471   21.0317 C   0  0  0  0  0  0  0  0  0  0  0  0
    6.6343   -0.0176   19.9387 C   0  0  0  0  0  0  0  0  0  0  0  0
    7.1635    0.0413   18.6351 C   0  0  0  0  0  0  0  0  0  0  0  0
    8.1088   -0.4334   18.3768 H   0  0  0  0  0  0  0  0  0  0  0  0
    6.5704    0.6601   17.6117 N   0  0  0  0  0  0  0  0  0  0  0  0
    5.4093    1.2871   17.8490 C   0  0  0  0  0  0  0  0  0  0  0  0
    4.9405    1.7763   16.9974 H   0  0  0  0  0  0  0  0  0  0  0  0
    4.8075    1.3156   19.1097 C   0  0  0  0  0  0  0  0  0  0  0  0
    3.8769    1.8461   19.2498 H   0  0  0  0  0  0  0  0  0  0  0  0
    5.4199    0.6510   20.1698 C   0  0  0  0  0  0  0  0  0  0  0  0
    4.9820    0.6361   21.1685 H   0  0  0  0  0  0  0  0  0  0  0  0
  1  2  1  0
  2  3  2  0
  3  4  1  0
  4  5  2  0
  5  6  1  0
  6  7  1  0
  7  8  1  0
  7  9  1  0
  7 10  1  0
 10 11  1  0
 10 12  1  0
 10 13  1  0
  5 14  1  0
 14 15  2  0
 15 16  1  0
 16 17  2  0
 17 18  1  0
 17 19  1  0
 19 20  2  0
 20 21  1  0
 20 22  1  0
 22 23  1  0
 22 24  2  0
 24 25  1  0
 15  2  1  0
 24 16  1  0
M  END
>  <plip>  (1) 
-0.034482758620689655

>  <filename>  (1) 
[H][c]1[n][n][c]([O][C]([H])([H])[C]([H])([H])[F])[n][c]1-[c]1[c]([H])[n][c]([H])[c]([H])[c]1[H]

$$$$
