
     RDKit          3D

 46 47  0  0  0  0  0  0  0  0999 V2000
    7.7786   -4.5378   21.5871 C   0  0  0  0  0  0  0  0  0  0  0  0
    7.8882   -3.0644   21.9864 C   0  0  0  0  0  0  0  0  0  0  0  0
    7.5314   -2.1426   20.8082 C   0  0  0  0  0  0  0  0  0  0  0  0
    7.3015   -0.6635   21.0940 C   0  0  0  0  0  0  0  0  0  0  0  0
    8.6913   -0.0716   21.2750 N   0  0  0  0  0  4  0  0  0  0  0  0
    8.7585    1.3724   21.5495 C   0  0  0  0  0  0  0  0  0  0  0  0
    8.0333    1.7290   22.8500 C   0  0  0  0  0  0  0  0  0  0  0  0
    8.1481    3.1985   23.1313 C   0  0  0  0  0  0  0  0  0  0  0  0
    9.2232    3.6825   23.8859 C   0  0  0  0  0  0  0  0  0  0  0  0
    9.3808    5.0525   24.0971 C   0  0  0  0  0  0  0  0  0  0  0  0
    8.4489    5.9562   23.5658 C   0  0  0  0  0  0  0  0  0  0  0  0
    8.5875    7.6894   23.9435 S   0  0  0  0  0  0  0  0  0  0  0  0
    7.5762    7.7335   25.4465 C   0  0  0  0  0  0  0  0  0  0  0  0
    8.0016    7.0994   26.2289 H   0  0  0  0  0  0  0  0  0  0  0  0
    7.5629    8.7687   25.7951 H   0  0  0  0  0  0  0  0  0  0  0  0
    6.5516    7.4156   25.2365 H   0  0  0  0  0  0  0  0  0  0  0  0
    7.3951    5.4792   22.7713 C   0  0  0  0  0  0  0  0  0  0  0  0
    7.2449    4.1070   22.5621 C   0  0  0  0  0  0  0  0  0  0  0  0
    6.4192    3.7384   21.9546 H   0  0  0  0  0  0  0  0  0  0  0  0
    6.6961    6.1818   22.3268 H   0  0  0  0  0  0  0  0  0  0  0  0
   10.2169    5.4263   24.6779 H   0  0  0  0  0  0  0  0  0  0  0  0
    9.9335    2.9785   24.3134 H   0  0  0  0  0  0  0  0  0  0  0  0
    6.9824    1.4448   22.7394 H   0  0  0  0  0  0  0  0  0  0  0  0
    8.4450    1.1426   23.6824 H   0  0  0  0  0  0  0  0  0  0  0  0
    9.7971    1.7130   21.5852 H   0  0  0  0  0  0  0  0  0  0  0  0
    8.2793    1.9284   20.7352 H   0  0  0  0  0  0  0  0  0  0  0  0
    9.1751   -0.5853   22.0494 H   0  0  0  0  0  0  0  0  0  0  0  0
    9.1781   -0.2835   20.3785 H   0  0  0  0  0  0  0  0  0  0  0  0
    6.5962    0.0579   19.9663 C   0  0  0  0  0  0  0  0  0  0  0  0
    5.3681    0.7141   20.1512 C   0  0  0  0  0  0  0  0  0  0  0  0
    4.7675    1.3510   19.0637 C   0  0  0  0  0  0  0  0  0  0  0  0
    5.4163    1.3162   17.8260 C   0  0  0  0  0  0  0  0  0  0  0  0
    6.5873    0.6938   17.6250 N   0  0  0  0  0  0  0  0  0  0  0  0
    7.1590    0.0953   18.6802 C   0  0  0  0  0  0  0  0  0  0  0  0
    8.1066   -0.4005   18.4629 H   0  0  0  0  0  0  0  0  0  0  0  0
    4.9766    1.8062   16.9597 H   0  0  0  0  0  0  0  0  0  0  0  0
    3.8219    1.8762   19.1623 H   0  0  0  0  0  0  0  0  0  0  0  0
    4.8899    0.7253   21.1331 H   0  0  0  0  0  0  0  0  0  0  0  0
    6.7180   -0.5254   22.0162 H   0  0  0  0  0  0  0  0  0  0  0  0
    6.6625   -2.5376   20.2682 H   0  0  0  0  0  0  0  0  0  0  0  0
    8.3772   -2.1560   20.1187 H   0  0  0  0  0  0  0  0  0  0  0  0
    7.2291   -2.8668   22.8434 H   0  0  0  0  0  0  0  0  0  0  0  0
    8.9138   -2.8735   22.3353 H   0  0  0  0  0  0  0  0  0  0  0  0
    8.3560   -4.7589   20.6821 H   0  0  0  0  0  0  0  0  0  0  0  0
    6.7357   -4.8008   21.3806 H   0  0  0  0  0  0  0  0  0  0  0  0
    8.1391   -5.2052   22.3756 H   0  0  0  0  0  0  0  0  0  0  0  0
  1  2  1  0
  2  3  1  0
  3  4  1  0
  4  5  1  0
  5  6  1  0
  6  7  1  0
  7  8  1  0
  8  9  2  0
  9 10  1  0
 10 11  2  0
 11 12  1  0
 12 13  1  0
 13 14  1  0
 13 15  1  0
 13 16  1  0
 11 17  1  0
 17 18  2  0
 18 19  1  0
 17 20  1  0
 10 21  1  0
  9 22  1  0
  7 23  1  0
  7 24  1  0
  6 25  1  0
  6 26  1  0
  5 27  1  0
  5 28  1  0
  4 29  1  0
 29 30  2  0
 30 31  1  0
 31 32  2  0
 32 33  1  0
 33 34  2  0
 34 35  1  0
 32 36  1  0
 31 37  1  0
 30 38  1  0
  4 39  1  0
  3 40  1  0
  3 41  1  0
  2 42  1  0
  2 43  1  0
  1 44  1  0
  1 45  1  0
  1 46  1  0
 18  8  1  0
 34 29  1  0
M  CHG  1   5   1
M  END
>  <plip>  (1) 
-0.034482758620689655

>  <filename>  (1) 
[H][c]1[n][c]([H])[c]([C]([H])([C]([H])([H])[C]([H])([H])[C]([H])([H])[H])[N+]([H])([H])[C]([H])([H])[C]([H])([H])[c]2[c]([H])[c]([H])[c]([S][C]([H])([H])[H])[c]([H])[c]2[H])[c]([H])[c]1[H]

$$$$
