
     RDKit          3D

 32 33  0  0  0  0  0  0  0  0999 V2000
    8.0750   -6.1596   26.1820 C   0  0  0  0  0  0  0  0  0  0  0  0
    8.4518   -4.8739   25.7479 O   0  0  0  0  0  0  0  0  0  0  0  0
    8.3777   -4.5803   24.4203 C   0  0  0  0  0  0  0  0  0  0  0  0
    7.9168   -5.4345   23.4065 C   0  0  0  0  0  0  0  0  0  0  0  0
    7.8624   -4.9701   22.0855 C   0  0  0  0  0  0  0  0  0  0  0  0
    8.2378   -3.6640   21.7724 C   0  0  0  0  0  0  0  0  0  0  0  0
    8.7344   -2.8131   22.7823 C   0  0  0  0  0  0  0  0  0  0  0  0
    9.2574   -1.4112   22.4945 C   0  0  0  0  0  0  0  0  0  0  0  0
   10.1883   -0.9671   23.1330 O   0  0  0  0  0  0  0  0  0  0  0  0
    8.6007   -0.5913   21.4033 C   0  0  0  0  0  0  0  0  0  0  0  0
    7.3173   -0.7463   20.9938 C   0  0  0  0  0  0  0  0  0  0  0  0
    6.6285   -0.0468   19.8988 C   0  0  0  0  0  0  0  0  0  0  0  0
    5.3857    0.5845   20.1274 C   0  0  0  0  0  0  0  0  0  0  0  0
    4.7902    1.2875   19.0843 C   0  0  0  0  0  0  0  0  0  0  0  0
    5.4190    1.2970   17.8341 C   0  0  0  0  0  0  0  0  0  0  0  0
    6.5817    0.6778   17.5767 N   0  0  0  0  0  0  0  0  0  0  0  0
    7.1719    0.0406   18.5984 C   0  0  0  0  0  0  0  0  0  0  0  0
    8.1292   -0.4426   18.3905 H   0  0  0  0  0  0  0  0  0  0  0  0
    4.9665    1.8226   16.9987 H   0  0  0  0  0  0  0  0  0  0  0  0
    3.8694    1.8432   19.2268 H   0  0  0  0  0  0  0  0  0  0  0  0
    4.9503    0.5833   21.1283 H   0  0  0  0  0  0  0  0  0  0  0  0
    6.6787   -1.4049   21.5847 H   0  0  0  0  0  0  0  0  0  0  0  0
    9.4158    0.5028   20.9647 C   0  0  0  0  0  0  0  0  0  0  0  0
   10.1500    1.3603   20.7160 N   0  0  0  0  0  0  0  0  0  0  0  0
    8.8078   -3.2887   24.0998 C   0  0  0  0  0  0  0  0  0  0  0  0
    9.1852   -2.6841   24.9205 H   0  0  0  0  0  0  0  0  0  0  0  0
    8.1459   -3.2958   20.7562 H   0  0  0  0  0  0  0  0  0  0  0  0
    7.5022   -5.6357   21.3020 H   0  0  0  0  0  0  0  0  0  0  0  0
    7.5984   -6.4386   23.6513 H   0  0  0  0  0  0  0  0  0  0  0  0
    8.6968   -6.9358   25.7208 H   0  0  0  0  0  0  0  0  0  0  0  0
    8.2302   -6.1765   27.2594 H   0  0  0  0  0  0  0  0  0  0  0  0
    7.0187   -6.3693   25.9687 H   0  0  0  0  0  0  0  0  0  0  0  0
  1  2  1  0
  2  3  1  0
  3  4  2  0
  4  5  1  0
  5  6  2  0
  6  7  1  0
  7  8  1  0
  8  9  2  0
  8 10  1  0
 10 11  2  3
 11 12  1  0
 12 13  2  0
 13 14  1  0
 14 15  2  0
 15 16  1  0
 16 17  2  0
 17 18  1  0
 15 19  1  0
 14 20  1  0
 13 21  1  0
 11 22  1  0
 10 23  1  0
 23 24  3  0
  7 25  2  0
 25 26  1  0
  6 27  1  0
  5 28  1  0
  4 29  1  0
  1 30  1  0
  1 31  1  0
  1 32  1  0
 25  3  1  0
 17 12  1  0
M  END
>  <plip>  (1) 
-0.07142857142857142

>  <filename>  (1) 
[H][C](=[C]([C]#[N])[C](=[O])[c]1[c]([H])[c]([H])[c]([H])[c]([O][C]([H])([H])[H])[c]1[H])[c]1[c]([H])[n][c]([H])[c]([H])[c]1[H]

$$$$
