
     RDKit          3D

 25 26  0  0  0  0  0  0  0  0999 V2000
    4.9222    1.7847   16.9906 H   0  0  0  0  0  0  0  0  0  0  0  0
    5.3989    1.2927   17.8343 C   0  0  0  0  0  0  0  0  0  0  0  0
    6.5644    0.6740   17.5778 N   0  0  0  0  0  0  0  0  0  0  0  0
    7.1691    0.0549   18.5926 C   0  0  0  0  0  0  0  0  0  0  0  0
    8.1162   -0.4315   18.3687 H   0  0  0  0  0  0  0  0  0  0  0  0
    6.6557    0.0253   19.9044 C   0  0  0  0  0  0  0  0  0  0  0  0
    7.3834   -0.6713   20.9967 C   0  0  0  0  0  0  0  0  0  0  0  0
    7.9977   -2.1640   20.7759 S   0  0  0  0  0  0  0  0  0  0  0  0
    7.5362   -0.0077   22.3485 C   0  0  0  0  0  0  0  0  0  0  0  0
    7.4216    1.3341   22.4075 N   0  0  0  0  0  0  0  0  0  0  0  0
    7.5888    1.9376   23.5804 C   0  0  0  0  0  0  0  0  0  0  0  0
    7.4365    3.4349   23.6088 C   0  0  0  0  0  0  0  0  0  0  0  0
    7.1354    3.8221   22.6338 H   0  0  0  0  0  0  0  0  0  0  0  0
    8.3778    3.9056   23.9011 H   0  0  0  0  0  0  0  0  0  0  0  0
    6.6930    3.7321   24.3525 H   0  0  0  0  0  0  0  0  0  0  0  0
    7.8821    1.2268   24.7550 C   0  0  0  0  0  0  0  0  0  0  0  0
    7.9989    1.7722   25.6793 H   0  0  0  0  0  0  0  0  0  0  0  0
    8.0085   -0.1608   24.7063 C   0  0  0  0  0  0  0  0  0  0  0  0
    8.2403   -0.7431   25.5998 H   0  0  0  0  0  0  0  0  0  0  0  0
    7.8332   -0.7926   23.4835 C   0  0  0  0  0  0  0  0  0  0  0  0
    7.9271   -1.8678   23.3780 H   0  0  0  0  0  0  0  0  0  0  0  0
    5.4224    0.6497   20.1481 C   0  0  0  0  0  0  0  0  0  0  0  0
    5.0061    0.6516   21.1607 H   0  0  0  0  0  0  0  0  0  0  0  0
    4.7917    1.3031   19.0926 C   0  0  0  0  0  0  0  0  0  0  0  0
    3.8667    1.8455   19.2498 H   0  0  0  0  0  0  0  0  0  0  0  0
  1  2  1  0
  2  3  2  0
  3  4  1  0
  4  5  1  0
  4  6  2  0
  6  7  1  0
  7  8  2  0
  7  9  1  0
  9 10  2  0
 10 11  1  0
 11 12  1  0
 12 13  1  0
 12 14  1  0
 12 15  1  0
 11 16  2  0
 16 17  1  0
 16 18  1  0
 18 19  1  0
 18 20  2  0
 20 21  1  0
  6 22  1  0
 22 23  1  0
 22 24  2  0
 24 25  1  0
 24  2  1  0
 20  9  1  0
M  END
>  <plip>  (1) 
-0.0

>  <filename>  (1) 
[H][c]1[n][c]([H])[c]([C](=[S])[c]2[n][c]([C]([H])([H])[H])[c]([H])[c]([H])[c]2[H])[c]([H])[c]1[H]

$$$$
