
     RDKit          3D

 44 47  0  0  0  0  0  0  0  0999 V2000
    4.9740    1.8009   16.9856 H   0  0  0  0  0  0  0  0  0  0  0  0
    5.4380    1.2864   17.8268 C   0  0  0  0  0  0  0  0  0  0  0  0
    6.5960    0.6612   17.5771 N   0  0  0  0  0  0  0  0  0  0  0  0
    7.1903    0.0446   18.6063 C   0  0  0  0  0  0  0  0  0  0  0  0
    8.1352   -0.4486   18.3787 H   0  0  0  0  0  0  0  0  0  0  0  0
    6.6832    0.0022   19.9161 C   0  0  0  0  0  0  0  0  0  0  0  0
    7.4201   -0.7559   21.0047 C   0  0  0  0  0  0  0  0  0  0  0  0
    7.5801   -0.0989   21.8670 H   0  0  0  0  0  0  0  0  0  0  0  0
    8.4151   -1.0396   20.6430 H   0  0  0  0  0  0  0  0  0  0  0  0
    6.7317   -1.9739   21.4493 N   0  0  0  0  0  0  0  0  0  0  0  0
    6.3112   -2.9651   20.5949 C   0  0  0  0  0  0  0  0  0  0  0  0
    6.4900   -2.8617   19.5334 H   0  0  0  0  0  0  0  0  0  0  0  0
    5.6241   -3.9125   21.3144 C   0  0  0  0  0  0  0  0  0  0  0  0
    5.1967   -4.8308   20.9308 H   0  0  0  0  0  0  0  0  0  0  0  0
    5.5941   -3.4582   22.6596 C   0  0  0  0  0  0  0  0  0  0  0  0
    5.0458   -3.9073   23.4814 H   0  0  0  0  0  0  0  0  0  0  0  0
    6.2999   -2.2778   22.7286 C   0  0  0  0  0  0  0  0  0  0  0  0
    6.3844   -1.2975   23.8561 C   0  0  0  0  0  0  0  0  0  0  0  0
    5.6034   -1.5899   24.5753 H   0  0  0  0  0  0  0  0  0  0  0  0
    6.0904   -0.3045   23.4789 H   0  0  0  0  0  0  0  0  0  0  0  0
    7.6788   -1.1277   24.5208 N   0  0  0  0  0  0  0  0  0  0  0  0
    8.0571   -2.0252   24.8105 H   0  0  0  0  0  0  0  0  0  0  0  0
    7.5519   -0.2796   25.6764 C   0  0  1  0  0  0  0  0  0  0  0  0
    6.7697   -0.5348   26.4009 H   0  0  0  0  0  0  0  0  0  0  0  0
    8.7920    0.3391   26.2289 C   0  0  0  0  0  0  0  0  0  0  0  0
    8.9021    0.4838   27.2980 H   0  0  0  0  0  0  0  0  0  0  0  0
    9.7187    0.0771   25.7257 H   0  0  0  0  0  0  0  0  0  0  0  0
    7.7865    1.2108   25.5163 C   0  0  1  0  0  0  0  0  0  0  0  0
    7.1470    1.8123   26.1639 H   0  0  0  0  0  0  0  0  0  0  0  0
    8.0685    1.8427   24.1858 C   0  0  0  0  0  0  0  0  0  0  0  0
    9.3833    1.9341   23.6993 C   0  0  0  0  0  0  0  0  0  0  0  0
   10.2101    1.6139   24.3260 H   0  0  0  0  0  0  0  0  0  0  0  0
    9.6472    2.4335   22.4251 C   0  0  0  0  0  0  0  0  0  0  0  0
   10.6737    2.5080   22.0751 H   0  0  0  0  0  0  0  0  0  0  0  0
    8.5950    2.8487   21.6098 C   0  0  0  0  0  0  0  0  0  0  0  0
    8.8303    3.1880   20.6079 H   0  0  0  0  0  0  0  0  0  0  0  0
    7.2797    2.8306   22.0929 C   0  0  0  0  0  0  0  0  0  0  0  0
    6.4663    3.2013   21.4684 H   0  0  0  0  0  0  0  0  0  0  0  0
    7.0205    2.3287   23.3765 C   0  0  0  0  0  0  0  0  0  0  0  0
    5.9966    2.3121   23.7499 H   0  0  0  0  0  0  0  0  0  0  0  0
    5.4656    0.6556   20.1516 C   0  0  0  0  0  0  0  0  0  0  0  0
    5.0185    0.6670   21.1503 H   0  0  0  0  0  0  0  0  0  0  0  0
    4.8315    1.3046   19.0873 C   0  0  0  0  0  0  0  0  0  0  0  0
    3.8939    1.8340   19.2184 H   0  0  0  0  0  0  0  0  0  0  0  0
  1  2  1  0
  2  3  2  0
  3  4  1  0
  4  5  1  0
  4  6  2  0
  6  7  1  0
  7  8  1  0
  7  9  1  0
  7 10  1  0
 10 11  1  0
 11 12  1  0
 11 13  2  0
 13 14  1  0
 13 15  1  0
 15 16  1  0
 15 17  2  0
 17 18  1  0
 18 19  1  0
 18 20  1  0
 18 21  1  0
 21 22  1  0
 21 23  1  0
 23 24  1  1
 23 25  1  0
 25 26  1  0
 25 27  1  0
 25 28  1  0
 28 29  1  1
 28 30  1  0
 30 31  2  0
 31 32  1  0
 31 33  1  0
 33 34  1  0
 33 35  2  0
 35 36  1  0
 35 37  1  0
 37 38  1  0
 37 39  2  0
 39 40  1  0
  6 41  1  0
 41 42  1  0
 41 43  2  0
 43 44  1  0
 43  2  1  0
 17 10  1  0
 28 23  1  0
 39 30  1  0
M  END
>  <plip>  (1) 
-0.034482758620689655

>  <filename>  (1) 
[H][c]1[n][c]([H])[c]([C]([H])([H])[n]2[c]([H])[c]([H])[c]([H])[c]2[C]([H])([H])[N]([H])[C@@]2([H])[C]([H])([H])[C@@]2([H])[c]2[c]([H])[c]([H])[c]([H])[c]([H])[c]2[H])[c]([H])[c]1[H]

$$$$
