
     RDKit          3D

 30 32  0  0  0  0  0  0  0  0999 V2000
    5.8065    4.6033   20.5799 H   0  0  0  0  0  0  0  0  0  0  0  0
    6.0478    5.2276   21.2874 O   0  0  0  0  0  0  0  0  0  0  0  0
    7.2334    4.7908   21.9376 C   0  0  0  0  0  0  0  0  0  0  0  0
    8.0897    4.7654   21.2477 H   0  0  0  0  0  0  0  0  0  0  0  0
    7.4500    5.5893   22.6533 H   0  0  0  0  0  0  0  0  0  0  0  0
    7.0999    3.4851   22.7108 C   0  0  0  0  0  0  0  0  0  0  0  0
    6.5912    3.5231   24.0205 C   0  0  0  0  0  0  0  0  0  0  0  0
    6.3154    4.4865   24.4439 H   0  0  0  0  0  0  0  0  0  0  0  0
    6.4290    2.3534   24.7708 C   0  0  0  0  0  0  0  0  0  0  0  0
    6.0160    2.4141   25.7747 H   0  0  0  0  0  0  0  0  0  0  0  0
    6.7652    1.1171   24.2195 C   0  0  0  0  0  0  0  0  0  0  0  0
    6.5885    0.2087   24.7901 H   0  0  0  0  0  0  0  0  0  0  0  0
    7.2558    1.0441   22.9012 C   0  0  0  0  0  0  0  0  0  0  0  0
    7.5809   -0.2517   22.2801 C   0  0  0  0  0  0  0  0  0  0  0  0
    8.3828   -1.5145   23.1009 S   0  0  0  0  0  0  0  0  0  0  0  0
    8.4877   -2.4701   21.6988 N   0  0  0  0  0  0  0  0  0  0  0  0
    7.9417   -1.8956   20.7089 N   0  0  0  0  0  0  0  0  0  0  0  0
    7.3821   -0.6727   20.9682 C   0  0  0  0  0  0  0  0  0  0  0  0
    6.6364    0.0193   19.9016 C   0  0  0  0  0  0  0  0  0  0  0  0
    7.1562    0.0288   18.5968 C   0  0  0  0  0  0  0  0  0  0  0  0
    8.0883   -0.4958   18.3869 H   0  0  0  0  0  0  0  0  0  0  0  0
    6.5720    0.6540   17.5730 N   0  0  0  0  0  0  0  0  0  0  0  0
    5.4166    1.2912   17.8179 C   0  0  0  0  0  0  0  0  0  0  0  0
    4.9798    1.8214   16.9788 H   0  0  0  0  0  0  0  0  0  0  0  0
    4.7854    1.3082   19.0661 C   0  0  0  0  0  0  0  0  0  0  0  0
    3.8420    1.8345   19.1860 H   0  0  0  0  0  0  0  0  0  0  0  0
    5.4087    0.6628   20.1339 C   0  0  0  0  0  0  0  0  0  0  0  0
    4.9695    0.6742   21.1327 H   0  0  0  0  0  0  0  0  0  0  0  0
    7.4345    2.2345   22.1687 C   0  0  0  0  0  0  0  0  0  0  0  0
    7.8032    2.1390   21.1497 H   0  0  0  0  0  0  0  0  0  0  0  0
  1  2  1  0
  2  3  1  0
  3  4  1  0
  3  5  1  0
  3  6  1  0
  6  7  2  0
  7  8  1  0
  7  9  1  0
  9 10  1  0
  9 11  2  0
 11 12  1  0
 11 13  1  0
 13 14  1  0
 14 15  1  0
 15 16  1  0
 16 17  2  0
 17 18  1  0
 18 19  1  0
 19 20  2  0
 20 21  1  0
 20 22  1  0
 22 23  2  0
 23 24  1  0
 23 25  1  0
 25 26  1  0
 25 27  2  0
 27 28  1  0
 13 29  2  0
 29 30  1  0
 29  6  1  0
 18 14  2  0
 27 19  1  0
M  END
>  <plip>  (1) 
-0.10344827586206896

>  <filename>  (1) 
[H][O][C]([H])([H])[c]1[c]([H])[c]([H])[c]([H])[c](-[c]2[s][n][n][c]2-[c]2[c]([H])[n][c]([H])[c]([H])[c]2[H])[c]1[H]

$$$$
