
     RDKit          3D

 38 40  0  0  0  0  0  0  0  0999 V2000
    9.3891    2.3715   22.2304 C   0  0  0  0  0  0  0  0  0  0  0  0
    8.1089    1.5652   22.0262 C   0  0  0  0  0  0  0  0  0  0  0  0
    8.5472    0.1335   21.4786 N   0  0  0  0  0  4  0  0  0  0  0  0
    7.4820   -0.7872   20.9188 C   0  0  1  0  0  0  0  0  0  0  0  0
    6.6418   -1.4077   22.0267 C   0  0  0  0  0  0  0  0  0  0  0  0
    5.8926   -2.0705   21.5868 H   0  0  0  0  0  0  0  0  0  0  0  0
    7.2471   -1.9794   22.7384 H   0  0  0  0  0  0  0  0  0  0  0  0
    6.1191   -0.6347   22.5880 H   0  0  0  0  0  0  0  0  0  0  0  0
    6.6588   -0.0230   19.9029 C   0  0  0  0  0  0  0  0  0  0  0  0
    5.4440    0.6349   20.1557 C   0  0  0  0  0  0  0  0  0  0  0  0
    4.8086    1.3027   19.1042 C   0  0  0  0  0  0  0  0  0  0  0  0
    5.4087    1.2964   17.8417 C   0  0  0  0  0  0  0  0  0  0  0  0
    6.5781    0.6949   17.5906 N   0  0  0  0  0  0  0  0  0  0  0  0
    7.1767    0.0639   18.6053 C   0  0  0  0  0  0  0  0  0  0  0  0
    8.1279   -0.4164   18.3718 H   0  0  0  0  0  0  0  0  0  0  0  0
    4.9430    1.7952   16.9931 H   0  0  0  0  0  0  0  0  0  0  0  0
    3.8788    1.8395   19.2426 H   0  0  0  0  0  0  0  0  0  0  0  0
    5.0132    0.6611   21.1602 H   0  0  0  0  0  0  0  0  0  0  0  0
    7.9758   -1.6015   20.3722 H   0  0  0  0  0  0  0  0  0  0  0  0
    9.2851    0.2781   20.7661 H   0  0  0  0  0  0  0  0  0  0  0  0
    8.9840   -0.3067   22.3179 H   0  0  0  0  0  0  0  0  0  0  0  0
    7.3253    1.4370   23.3174 C   0  0  0  0  0  0  0  0  0  0  0  0
    7.7253    0.8112   24.3748 N   0  0  0  0  0  0  0  0  0  0  0  0
    6.6807    0.9915   25.2870 C   0  0  0  0  0  0  0  0  0  0  0  0
    6.5262    0.5713   26.6130 C   0  0  0  0  0  0  0  0  0  0  0  0
    5.3435    0.9210   27.2660 C   0  0  0  0  0  0  0  0  0  0  0  0
    4.3415    1.6687   26.6141 C   0  0  0  0  0  0  0  0  0  0  0  0
    4.4938    2.0971   25.2940 C   0  0  0  0  0  0  0  0  0  0  0  0
    5.6808    1.7458   24.6702 C   0  0  0  0  0  0  0  0  0  0  0  0
    6.1059    2.0472   23.4015 O   0  0  0  0  0  0  0  0  0  0  0  0
    3.7472    2.6792   24.7681 H   0  0  0  0  0  0  0  0  0  0  0  0
    3.4333    1.9212   27.1554 H   0  0  0  0  0  0  0  0  0  0  0  0
    5.1957    0.6107   28.2955 H   0  0  0  0  0  0  0  0  0  0  0  0
    7.3176    0.0059   27.0964 H   0  0  0  0  0  0  0  0  0  0  0  0
    7.4381    2.0115   21.2941 H   0  0  0  0  0  0  0  0  0  0  0  0
    9.9653    2.4943   21.3050 H   0  0  0  0  0  0  0  0  0  0  0  0
   10.0372    1.9080   22.9873 H   0  0  0  0  0  0  0  0  0  0  0  0
    9.1534    3.3768   22.5978 H   0  0  0  0  0  0  0  0  0  0  0  0
  1  2  1  0
  2  3  1  0
  3  4  1  0
  4  5  1  0
  5  6  1  0
  5  7  1  0
  5  8  1  0
  4  9  1  0
  9 10  2  0
 10 11  1  0
 11 12  2  0
 12 13  1  0
 13 14  2  0
 14 15  1  0
 12 16  1  0
 11 17  1  0
 10 18  1  0
  4 19  1  6
  3 20  1  0
  3 21  1  0
  2 22  1  0
 22 23  2  0
 23 24  1  0
 24 25  2  0
 25 26  1  0
 26 27  2  0
 27 28  1  0
 28 29  2  0
 29 30  1  0
 28 31  1  0
 27 32  1  0
 26 33  1  0
 25 34  1  0
  2 35  1  0
  1 36  1  0
  1 37  1  0
  1 38  1  0
 14  9  1  0
 30 22  1  0
 29 24  1  0
M  CHG  1   3   1
M  END
>  <plip>  (1) 
-0.03571428571428571

>  <filename>  (1) 
[H][c]1[n][c]([H])[c]([C@]([H])([C]([H])([H])[H])[N+]([H])([H])[C]([H])([c]2[n][c]3[c]([H])[c]([H])[c]([H])[c]([H])[c]3[o]2)[C]([H])([H])[H])[c]([H])[c]1[H]

$$$$
