
     RDKit          3D

 37 38  0  0  0  0  0  0  0  0999 V2000
    8.7129   -3.7126   21.7993 O   0  0  0  0  0  0  0  0  0  0  0  0
    7.6715   -3.2130   22.1608 C   0  0  0  0  0  0  0  0  0  0  0  0
    6.7800   -2.5323   21.1886 C   0  0  0  0  0  0  0  0  0  0  0  0
    7.5033   -0.9353   21.2587 S   0  0  0  0  0  0  0  0  0  0  0  0
    7.1117   -0.3911   22.5495 O   0  0  0  0  0  0  0  0  0  0  0  0
    8.8840   -1.0160   20.8098 O   0  0  0  0  0  0  0  0  0  0  0  0
    6.6138   -0.0902   20.0283 C   0  0  0  0  0  0  0  0  0  0  0  0
    5.4163    0.5868   20.2614 C   0  0  0  0  0  0  0  0  0  0  0  0
    4.8485    1.2388   19.1735 C   0  0  0  0  0  0  0  0  0  0  0  0
    5.4957    1.1947   17.9347 C   0  0  0  0  0  0  0  0  0  0  0  0
    6.6510    0.5422   17.7433 N   0  0  0  0  0  0  0  0  0  0  0  0
    7.2119   -0.0780   18.7773 C   0  0  0  0  0  0  0  0  0  0  0  0
    8.1817   -0.5455   18.6022 H   0  0  0  0  0  0  0  0  0  0  0  0
    5.0791    1.7160   17.0700 H   0  0  0  0  0  0  0  0  0  0  0  0
    3.9328    1.8037   19.2733 H   0  0  0  0  0  0  0  0  0  0  0  0
    4.9670    0.6441   21.2549 H   0  0  0  0  0  0  0  0  0  0  0  0
    6.9062   -2.9441   20.1986 H   0  0  0  0  0  0  0  0  0  0  0  0
    5.7358   -2.4568   21.4830 H   0  0  0  0  0  0  0  0  0  0  0  0
    7.2272   -3.1645   23.4421 N   0  0  0  0  0  0  0  0  0  0  0  0
    7.8856   -3.9116   24.5044 C   0  0  0  0  0  0  0  0  0  0  0  0
    9.2964   -3.4257   24.8922 C   0  0  0  0  0  0  0  0  0  0  0  0
    9.3147   -1.9870   25.3397 C   0  0  0  0  0  0  0  0  0  0  0  0
    9.6916   -0.9859   24.4347 C   0  0  0  0  0  0  0  0  0  0  0  0
    9.6035    0.3641   24.7813 C   0  0  0  0  0  0  0  0  0  0  0  0
    9.1413    0.6936   26.0531 C   0  0  0  0  0  0  0  0  0  0  0  0
    9.0214    1.9927   26.3759 F   0  0  0  0  0  0  0  0  0  0  0  0
    8.7811   -0.2726   26.9871 C   0  0  0  0  0  0  0  0  0  0  0  0
    8.8666   -1.6196   26.6196 C   0  0  0  0  0  0  0  0  0  0  0  0
    8.5701   -2.3962   27.3217 H   0  0  0  0  0  0  0  0  0  0  0  0
    8.4371    0.0441   27.9664 H   0  0  0  0  0  0  0  0  0  0  0  0
    9.8651    1.1614   24.0939 H   0  0  0  0  0  0  0  0  0  0  0  0
   10.0202   -1.2747   23.4361 H   0  0  0  0  0  0  0  0  0  0  0  0
    9.9470   -3.5640   24.0244 H   0  0  0  0  0  0  0  0  0  0  0  0
    9.6719   -4.0877   25.6842 H   0  0  0  0  0  0  0  0  0  0  0  0
    7.2320   -3.8875   25.3816 H   0  0  0  0  0  0  0  0  0  0  0  0
    7.9594   -4.9587   24.1898 H   0  0  0  0  0  0  0  0  0  0  0  0
    6.6761   -2.3491   23.6733 H   0  0  0  0  0  0  0  0  0  0  0  0
  1  2  2  0
  2  3  1  0
  3  4  1  0
  4  5  2  0
  4  6  2  0
  4  7  1  0
  7  8  2  0
  8  9  1  0
  9 10  2  0
 10 11  1  0
 11 12  2  0
 12 13  1  0
 10 14  1  0
  9 15  1  0
  8 16  1  0
  3 17  1  0
  3 18  1  0
  2 19  1  0
 19 20  1  0
 20 21  1  0
 21 22  1  0
 22 23  2  0
 23 24  1  0
 24 25  2  0
 25 26  1  0
 25 27  1  0
 27 28  2  0
 28 29  1  0
 27 30  1  0
 24 31  1  0
 23 32  1  0
 21 33  1  0
 21 34  1  0
 20 35  1  0
 20 36  1  0
 19 37  1  0
 12  7  1  0
 28 22  1  0
M  END
>  <plip>  (1) 
-0.03333333333333333

>  <filename>  (1) 
[H][c]1[n][c]([H])[c]([S](=[O])(=[O])[C]([H])([H])[C](=[O])[N]([H])[C]([H])([H])[C]([H])([H])[c]2[c]([H])[c]([H])[c]([F])[c]([H])[c]2[H])[c]([H])[c]1[H]

$$$$
