
     RDKit          3D

 44 46  0  0  0  0  0  0  0  0999 V2000
    7.4681    0.5478   22.8763 C   0  0  0  0  0  0  0  0  0  0  0  0
    7.1848   -0.7801   22.1552 C   0  0  0  0  0  0  0  0  0  0  0  0
    7.5110   -0.7065   20.7701 O   0  0  0  0  0  0  0  0  0  0  0  0
    6.7220   -0.0284   19.8879 C   0  0  0  0  0  0  0  0  0  0  0  0
    5.5062    0.6070   20.1650 C   0  0  0  0  0  0  0  0  0  0  0  0
    4.8620    1.2816   19.1162 C   0  0  0  0  0  0  0  0  0  0  0  0
    5.4309    1.2885   17.8431 C   0  0  0  0  0  0  0  0  0  0  0  0
    6.5844    0.6563   17.5577 N   0  0  0  0  0  0  0  0  0  0  0  0
    7.2013    0.0200   18.5570 C   0  0  0  0  0  0  0  0  0  0  0  0
    8.1327   -0.4913   18.3199 H   0  0  0  0  0  0  0  0  0  0  0  0
    4.9497    1.8091   17.0184 H   0  0  0  0  0  0  0  0  0  0  0  0
    3.9310    1.8097   19.2887 H   0  0  0  0  0  0  0  0  0  0  0  0
    5.0738    0.5842   21.1636 H   0  0  0  0  0  0  0  0  0  0  0  0
    7.9984   -1.9430   22.7839 C   0  0  0  0  0  0  0  0  0  0  0  0
    9.1302   -2.2496   22.4749 O   0  0  0  0  0  0  0  0  0  0  0  0
    7.3229   -2.5885   23.7944 N   0  0  0  0  0  0  0  0  0  0  0  0
    7.9527   -3.5767   24.6594 C   0  0  0  0  0  0  0  0  0  0  0  0
    9.1191   -3.0484   25.5171 C   0  0  0  0  0  0  0  0  0  0  0  0
    9.1836   -4.0968   26.6155 C   0  0  0  0  0  0  0  0  0  0  0  0
    7.7700   -4.3012   26.9244 N   0  0  0  0  0  0  0  0  0  0  0  0
    7.4004   -5.2369   27.9018 C   0  0  0  0  0  0  0  0  0  0  0  0
    8.0899   -6.4593   27.9475 C   0  0  0  0  0  0  0  0  0  0  0  0
    7.8674   -7.3926   28.9511 C   0  0  0  0  0  0  0  0  0  0  0  0
    6.9029   -7.1454   29.9227 C   0  0  0  0  0  0  0  0  0  0  0  0
    6.1654   -5.9581   29.8806 C   0  0  0  0  0  0  0  0  0  0  0  0
    6.3783   -5.0240   28.8570 C   0  0  0  0  0  0  0  0  0  0  0  0
    5.3286   -3.6282   28.7839 Cl  0  0  0  0  0  0  0  0  0  0  0  0
    5.4368   -5.7432   30.6550 H   0  0  0  0  0  0  0  0  0  0  0  0
    6.7193   -7.8974   30.6853 H   0  0  0  0  0  0  0  0  0  0  0  0
    8.4569   -8.3047   28.9538 H   0  0  0  0  0  0  0  0  0  0  0  0
    8.7935   -6.6571   27.1491 H   0  0  0  0  0  0  0  0  0  0  0  0
    6.9736   -4.1678   25.7050 C   0  0  0  0  0  0  0  0  0  0  0  0
    6.5748   -5.1344   25.3586 H   0  0  0  0  0  0  0  0  0  0  0  0
    6.1149   -3.4977   25.8609 H   0  0  0  0  0  0  0  0  0  0  0  0
    9.7372   -3.7937   27.5091 H   0  0  0  0  0  0  0  0  0  0  0  0
    9.6779   -5.0121   26.2334 H   0  0  0  0  0  0  0  0  0  0  0  0
    8.8596   -2.0734   25.9475 H   0  0  0  0  0  0  0  0  0  0  0  0
   10.0484   -2.9516   24.9514 H   0  0  0  0  0  0  0  0  0  0  0  0
    8.3413   -4.3925   24.0312 H   0  0  0  0  0  0  0  0  0  0  0  0
    6.4870   -2.1469   24.1400 H   0  0  0  0  0  0  0  0  0  0  0  0
    6.1254   -1.0518   22.2500 H   0  0  0  0  0  0  0  0  0  0  0  0
    7.2293    0.4671   23.9426 H   0  0  0  0  0  0  0  0  0  0  0  0
    8.5237    0.8181   22.7761 H   0  0  0  0  0  0  0  0  0  0  0  0
    6.8734    1.3673   22.4590 H   0  0  0  0  0  0  0  0  0  0  0  0
  1  2  1  0
  2  3  1  0
  3  4  1  0
  4  5  2  0
  5  6  1  0
  6  7  2  0
  7  8  1  0
  8  9  2  0
  9 10  1  0
  7 11  1  0
  6 12  1  0
  5 13  1  0
  2 14  1  0
 14 15  2  0
 14 16  1  0
 16 17  1  0
 17 18  1  0
 18 19  1  0
 19 20  1  0
 20 21  1  0
 21 22  2  0
 22 23  1  0
 23 24  2  0
 24 25  1  0
 25 26  2  0
 26 27  1  0
 25 28  1  0
 24 29  1  0
 23 30  1  0
 22 31  1  0
 20 32  1  0
 32 33  1  0
 32 34  1  0
 19 35  1  0
 19 36  1  0
 18 37  1  0
 18 38  1  0
 17 39  1  0
 16 40  1  0
  2 41  1  0
  1 42  1  0
  1 43  1  0
  1 44  1  0
  9  4  1  0
 32 17  1  0
 26 21  1  0
M  END
>  <plip>  (1) 
-0.07142857142857142

>  <filename>  (1) 
[H][c]1[n][c]([H])[c]([O][C]([H])([C](=[O])[N]([H])[C]2([H])[C]([H])([H])[N]([c]3[c]([H])[c]([H])[c]([H])[c]([H])[c]3[Cl])[C]([H])([H])[C]2([H])[H])[C]([H])([H])[H])[c]([H])[c]1[H]

$$$$
