
     RDKit          3D

 50 52  0  0  0  0  0  0  0  0999 V2000
    3.1039    8.5122   22.6911 C   0  0  0  0  0  0  0  0  0  0  0  0
    3.5170    7.1577   22.7873 O   0  0  0  0  0  0  0  0  0  0  0  0
    2.6988    6.2518   23.3662 C   0  0  0  0  0  0  0  0  0  0  0  0
    1.4523    6.6175   23.9100 C   0  0  0  0  0  0  0  0  0  0  0  0
    0.6207    5.6713   24.5075 C   0  0  0  0  0  0  0  0  0  0  0  0
    1.0254    4.3412   24.5619 C   0  0  0  0  0  0  0  0  0  0  0  0
    2.2577    3.9665   24.0258 C   0  0  0  0  0  0  0  0  0  0  0  0
    3.1349    4.8881   23.4226 C   0  0  0  0  0  0  0  0  0  0  0  0
    4.4267    4.3855   22.9035 C   0  0  0  0  0  0  0  0  0  0  0  0
    5.0211    3.1464   22.9265 C   0  0  0  0  0  0  0  0  0  0  0  0
    6.2808    3.3212   22.2460 C   0  0  0  0  0  0  0  0  0  0  0  0
    7.4663    2.3727   21.8888 C   0  0  0  0  0  0  0  0  0  0  0  0
    8.4492    2.7310   21.2668 O   0  0  0  0  0  0  0  0  0  0  0  0
    7.3663    1.0704   22.3346 N   0  0  0  0  0  0  0  0  0  0  0  0
    8.2674    0.0175   21.8351 C   0  0  0  0  0  0  0  0  0  0  0  0
    7.7523   -0.9497   20.7061 C   0  0  0  0  0  0  0  0  0  0  0  0
    6.8549   -0.2489   19.6804 C   0  0  0  0  0  0  0  0  0  0  0  0
    5.6276    0.3396   20.0217 C   0  0  0  0  0  0  0  0  0  0  0  0
    4.9387    1.0955   19.0698 C   0  0  0  0  0  0  0  0  0  0  0  0
    5.4632    1.1889   17.7773 C   0  0  0  0  0  0  0  0  0  0  0  0
    6.5834    0.5613   17.3928 N   0  0  0  0  0  0  0  0  0  0  0  0
    7.2489   -0.1299   18.3301 C   0  0  0  0  0  0  0  0  0  0  0  0
    8.1601   -0.6223   17.9873 H   0  0  0  0  0  0  0  0  0  0  0  0
    4.9568    1.7841   17.0192 H   0  0  0  0  0  0  0  0  0  0  0  0
    4.0357    1.6337   19.3324 H   0  0  0  0  0  0  0  0  0  0  0  0
    5.2228    0.2444   21.0290 H   0  0  0  0  0  0  0  0  0  0  0  0
    7.2143   -2.3164   21.2903 C   0  0  0  0  0  0  0  0  0  0  0  0
    6.2559   -2.0804   22.4534 C   0  0  0  0  0  0  0  0  0  0  0  0
    6.6196   -1.4099   23.2404 H   0  0  0  0  0  0  0  0  0  0  0  0
    5.4163   -1.6245   21.9312 H   0  0  0  0  0  0  0  0  0  0  0  0
    5.9208   -3.0102   22.9262 H   0  0  0  0  0  0  0  0  0  0  0  0
    6.4683   -3.2109   20.2527 C   0  0  0  0  0  0  0  0  0  0  0  0
    6.4125   -2.7625   19.2572 H   0  0  0  0  0  0  0  0  0  0  0  0
    6.9332   -4.1950   20.1627 H   0  0  0  0  0  0  0  0  0  0  0  0
    5.4329   -3.3728   20.5711 H   0  0  0  0  0  0  0  0  0  0  0  0
    8.1107   -2.8434   21.6504 H   0  0  0  0  0  0  0  0  0  0  0  0
    8.6562   -1.2394   20.1514 H   0  0  0  0  0  0  0  0  0  0  0  0
    8.5933   -0.5906   22.6873 H   0  0  0  0  0  0  0  0  0  0  0  0
    9.1459    0.5466   21.4587 H   0  0  0  0  0  0  0  0  0  0  0  0
    6.5237    0.8076   22.8156 H   0  0  0  0  0  0  0  0  0  0  0  0
    6.3899    4.5768   21.8717 N   0  0  0  0  0  0  0  0  0  0  0  0
    5.2685    5.2277   22.2700 O   0  0  0  0  0  0  0  0  0  0  0  0
    4.6105    2.2671   23.3981 H   0  0  0  0  0  0  0  0  0  0  0  0
    2.5432    2.9200   24.0797 H   0  0  0  0  0  0  0  0  0  0  0  0
    0.3876    3.5938   25.0200 H   0  0  0  0  0  0  0  0  0  0  0  0
   -0.3376    5.9803   24.9234 H   0  0  0  0  0  0  0  0  0  0  0  0
    1.1226    7.6492   23.8673 H   0  0  0  0  0  0  0  0  0  0  0  0
    2.1755    8.6130   22.1118 H   0  0  0  0  0  0  0  0  0  0  0  0
    3.9085    9.0383   22.1772 H   0  0  0  0  0  0  0  0  0  0  0  0
    2.9513    8.9596   23.6830 H   0  0  0  0  0  0  0  0  0  0  0  0
  1  2  1  0
  2  3  1  0
  3  4  2  0
  4  5  1  0
  5  6  2  0
  6  7  1  0
  7  8  2  0
  8  9  1  0
  9 10  2  0
 10 11  1  0
 11 12  1  0
 12 13  2  0
 12 14  1  0
 14 15  1  0
 15 16  1  0
 16 17  1  0
 17 18  2  0
 18 19  1  0
 19 20  2  0
 20 21  1  0
 21 22  2  0
 22 23  1  0
 20 24  1  0
 19 25  1  0
 18 26  1  0
 16 27  1  0
 27 28  1  0
 28 29  1  0
 28 30  1  0
 28 31  1  0
 27 32  1  0
 32 33  1  0
 32 34  1  0
 32 35  1  0
 27 36  1  0
 16 37  1  0
 15 38  1  0
 15 39  1  0
 14 40  1  0
 11 41  2  0
 41 42  1  0
 10 43  1  0
  7 44  1  0
  6 45  1  0
  5 46  1  0
  4 47  1  0
  1 48  1  0
  1 49  1  0
  1 50  1  0
  8  3  1  0
 42  9  1  0
 22 17  1  0
M  END
>  <plip>  (1) 
-0.14285714285714285

>  <filename>  (1) 
[H][c]1[n][c]([H])[c]([C]([H])([C]([H])([H])[N]([H])[C](=[O])[c]2[n][o][c](-[c]3[c]([H])[c]([H])[c]([H])[c]([H])[c]3[O][C]([H])([H])[H])[c]2[H])[C]([H])([C]([H])([H])[H])[C]([H])([H])[H])[c]([H])[c]1[H]

$$$$
