
     RDKit          3D

 40 43  0  0  0  0  0  0  0  0999 V2000
    4.9167    1.7999   16.9840 H   0  0  0  0  0  0  0  0  0  0  0  0
    5.3940    1.3019   17.8255 C   0  0  0  0  0  0  0  0  0  0  0  0
    6.5529    0.6808   17.5591 N   0  0  0  0  0  0  0  0  0  0  0  0
    7.1709    0.0614   18.5716 C   0  0  0  0  0  0  0  0  0  0  0  0
    8.1131   -0.4339   18.3394 H   0  0  0  0  0  0  0  0  0  0  0  0
    6.6581   -0.0027   19.8851 C   0  0  0  0  0  0  0  0  0  0  0  0
    7.3402   -0.7175   20.9256 N   0  0  0  0  0  0  0  0  0  0  0  0
    8.6474   -0.4802   21.4154 C   0  0  0  0  0  0  0  0  0  0  0  0
    9.5688    0.6325   20.9729 C   0  0  0  0  0  0  0  0  0  0  0  0
   10.5964    0.2246   21.0010 H   0  0  0  0  0  0  0  0  0  0  0  0
    9.3615    0.8838   19.9304 H   0  0  0  0  0  0  0  0  0  0  0  0
    9.4342    1.8305   21.7907 N   0  0  0  0  0  0  0  0  0  0  0  0
    9.7246    2.6984   21.3424 H   0  0  0  0  0  0  0  0  0  0  0  0
    9.9900    1.7486   23.1036 C   0  0  1  0  0  0  0  0  0  0  0  0
   10.7405    0.9657   23.2766 H   0  0  0  0  0  0  0  0  0  0  0  0
   10.2082    3.0503   23.8122 C   0  0  0  0  0  0  0  0  0  0  0  0
    9.8762    3.9371   23.2716 H   0  0  0  0  0  0  0  0  0  0  0  0
   11.1191    3.2063   24.3824 H   0  0  0  0  0  0  0  0  0  0  0  0
    9.1437    2.1018   24.3122 C   0  0  1  0  0  0  0  0  0  0  0  0
    9.3917    1.5315   25.2080 H   0  0  0  0  0  0  0  0  0  0  0  0
    7.6813    2.4212   24.1917 C   0  0  0  0  0  0  0  0  0  0  0  0
    6.7599    1.3955   23.9404 C   0  0  0  0  0  0  0  0  0  0  0  0
    7.1236    0.3770   23.8398 H   0  0  0  0  0  0  0  0  0  0  0  0
    5.4032    1.6866   23.7776 C   0  0  0  0  0  0  0  0  0  0  0  0
    4.7055    0.8795   23.5721 H   0  0  0  0  0  0  0  0  0  0  0  0
    4.9485    3.0083   23.8749 C   0  0  0  0  0  0  0  0  0  0  0  0
    3.8932    3.2323   23.7482 H   0  0  0  0  0  0  0  0  0  0  0  0
    5.8581    4.0351   24.1435 C   0  0  0  0  0  0  0  0  0  0  0  0
    5.5224    5.0658   24.2178 H   0  0  0  0  0  0  0  0  0  0  0  0
    7.2141    3.7379   24.3053 C   0  0  0  0  0  0  0  0  0  0  0  0
    7.9422    4.5208   24.4988 H   0  0  0  0  0  0  0  0  0  0  0  0
    8.8357   -1.3799   22.3927 C   0  0  0  0  0  0  0  0  0  0  0  0
    9.6691   -1.5833   23.0501 H   0  0  0  0  0  0  0  0  0  0  0  0
    7.7203   -2.1652   22.5554 O   0  0  0  0  0  0  0  0  0  0  0  0
    6.7611   -1.7643   21.6636 C   0  0  0  0  0  0  0  0  0  0  0  0
    5.6785   -2.2698   21.5548 O   0  0  0  0  0  0  0  0  0  0  0  0
    5.4471    0.6433   20.1468 C   0  0  0  0  0  0  0  0  0  0  0  0
    5.0410    0.6007   21.1576 H   0  0  0  0  0  0  0  0  0  0  0  0
    4.8115    1.3153   19.0973 C   0  0  0  0  0  0  0  0  0  0  0  0
    3.8782    1.8423   19.2522 H   0  0  0  0  0  0  0  0  0  0  0  0
  1  2  1  0
  2  3  2  0
  3  4  1  0
  4  5  1  0
  4  6  2  0
  6  7  1  0
  7  8  1  0
  8  9  1  0
  9 10  1  0
  9 11  1  0
  9 12  1  0
 12 13  1  0
 12 14  1  0
 14 15  1  1
 14 16  1  0
 16 17  1  0
 16 18  1  0
 16 19  1  0
 19 20  1  1
 19 21  1  0
 21 22  2  0
 22 23  1  0
 22 24  1  0
 24 25  1  0
 24 26  2  0
 26 27  1  0
 26 28  1  0
 28 29  1  0
 28 30  2  0
 30 31  1  0
  8 32  2  0
 32 33  1  0
 32 34  1  0
 34 35  1  0
 35 36  2  0
  6 37  1  0
 37 38  1  0
 37 39  2  0
 39 40  1  0
 39  2  1  0
 35  7  1  0
 19 14  1  0
 30 21  1  0
M  END
>  <plip>  (1) 
-0.17857142857142858

>  <filename>  (1) 
[H][c]1[n][c]([H])[c](-[n]2[c]([C]([H])([H])[N]([H])[C@@]3([H])[C]([H])([H])[C@@]3([H])[c]3[c]([H])[c]([H])[c]([H])[c]([H])[c]3[H])[c]([H])[o][c]2=[O])[c]([H])[c]1[H]

$$$$
