
     RDKit          3D

 32 33  0  0  0  0  0  0  0  0999 V2000
    4.9553    1.8037   16.9288 H   0  0  0  0  0  0  0  0  0  0  0  0
    5.3877    1.3133   17.7985 C   0  0  0  0  0  0  0  0  0  0  0  0
    6.5620    0.6876   17.6000 N   0  0  0  0  0  0  0  0  0  0  0  0
    7.1533    0.1300   18.6603 C   0  0  0  0  0  0  0  0  0  0  0  0
    8.1012   -0.3688   18.4586 H   0  0  0  0  0  0  0  0  0  0  0  0
    6.6247    0.1709   19.9680 C   0  0  0  0  0  0  0  0  0  0  0  0
    7.3425   -0.3913   21.0573 N   0  0  0  0  0  0  0  0  0  0  0  0
    7.2388   -0.1678   22.4160 C   0  0  0  0  0  0  0  0  0  0  0  0
    6.6933    0.6648   22.8387 H   0  0  0  0  0  0  0  0  0  0  0  0
    7.9375   -1.0249   23.1115 N   0  0  0  0  0  0  0  0  0  0  0  0
    8.5089   -1.8780   22.1873 C   0  0  0  0  0  0  0  0  0  0  0  0
    9.3174   -3.1047   22.5522 C   0  0  0  0  0  0  0  0  0  0  0  0
   10.2363   -3.1004   21.9569 H   0  0  0  0  0  0  0  0  0  0  0  0
    9.6548   -2.9673   23.5847 H   0  0  0  0  0  0  0  0  0  0  0  0
    8.7052   -4.4471   22.4285 N   0  0  0  0  0  0  0  0  0  0  0  0
    8.2686   -4.5809   21.5204 H   0  0  0  0  0  0  0  0  0  0  0  0
    7.7624   -4.7877   23.5020 C   0  0  0  0  0  0  0  0  0  0  0  0
    7.2713   -3.8821   23.9057 H   0  0  0  0  0  0  0  0  0  0  0  0
    6.6755   -5.7026   22.9473 C   0  0  0  0  0  0  0  0  0  0  0  0
    7.1117   -6.6348   22.5655 H   0  0  0  0  0  0  0  0  0  0  0  0
    5.9445   -5.9563   23.7254 H   0  0  0  0  0  0  0  0  0  0  0  0
    6.1353   -5.2076   22.1286 H   0  0  0  0  0  0  0  0  0  0  0  0
    8.5516   -5.4362   24.6406 C   0  0  0  0  0  0  0  0  0  0  0  0
    9.0256   -6.3609   24.2921 H   0  0  0  0  0  0  0  0  0  0  0  0
    9.3504   -4.7673   24.9844 H   0  0  0  0  0  0  0  0  0  0  0  0
    7.9101   -5.6657   25.4995 H   0  0  0  0  0  0  0  0  0  0  0  0
    8.2223   -1.4467   20.9283 C   0  0  0  0  0  0  0  0  0  0  0  0
    8.5928   -1.7669   19.9689 H   0  0  0  0  0  0  0  0  0  0  0  0
    5.3606    0.7453   20.1475 C   0  0  0  0  0  0  0  0  0  0  0  0
    4.8661    0.6997   21.1191 H   0  0  0  0  0  0  0  0  0  0  0  0
    4.7520    1.3467   19.0424 C   0  0  0  0  0  0  0  0  0  0  0  0
    3.8036    1.8624   19.1438 H   0  0  0  0  0  0  0  0  0  0  0  0
  1  2  1  0
  2  3  2  0
  3  4  1  0
  4  5  1  0
  4  6  2  0
  6  7  1  0
  7  8  1  0
  8  9  1  0
  8 10  2  0
 10 11  1  0
 11 12  1  0
 12 13  1  0
 12 14  1  0
 12 15  1  0
 15 16  1  0
 15 17  1  0
 17 18  1  0
 17 19  1  0
 19 20  1  0
 19 21  1  0
 19 22  1  0
 17 23  1  0
 23 24  1  0
 23 25  1  0
 23 26  1  0
 11 27  2  0
 27 28  1  0
  6 29  1  0
 29 30  1  0
 29 31  2  0
 31 32  1  0
 31  2  1  0
 27  7  1  0
M  END
>  <plip>  (1) 
-0.0

>  <filename>  (1) 
[H][c]1[n][c]([H])[c](-[n]2[c]([H])[n][c]([C]([H])([H])[N]([H])[C]([H])([C]([H])([H])[H])[C]([H])([H])[H])[c]2[H])[c]([H])[c]1[H]

$$$$
