
     RDKit          3D

 31 33  0  0  0  0  0  0  0  0999 V2000
    7.0283   -2.0605   21.1179 C   0  0  0  0  0  0  0  0  0  0  0  0
    7.2978   -0.5640   21.1316 C   0  0  0  0  0  0  0  0  0  0  0  0
    8.7242   -0.3201   21.1042 N   0  0  0  0  0  0  0  0  0  0  0  0
    9.3036    0.8824   21.4650 C   0  0  0  0  0  0  0  0  0  0  0  0
    8.5550    1.9878   21.9630 C   0  0  0  0  0  0  0  0  0  0  0  0
    9.0928    3.1382   22.4262 N   0  0  0  0  0  0  0  0  0  0  0  0
   10.3957    3.2091   22.3333 C   0  0  0  0  0  0  0  0  0  0  0  0
   11.1531    4.2550   22.7609 O   0  0  0  0  0  0  0  0  0  0  0  0
   12.4131    4.0627   22.1352 C   0  0  0  0  0  0  0  0  0  0  0  0
   12.5205    2.6806   21.7688 O   0  0  0  0  0  0  0  0  0  0  0  0
   11.2394    2.2225   21.7681 C   0  0  0  0  0  0  0  0  0  0  0  0
   10.7250    1.0150   21.3749 C   0  0  0  0  0  0  0  0  0  0  0  0
   11.3433    0.1862   21.0335 H   0  0  0  0  0  0  0  0  0  0  0  0
   12.4717    4.6920   21.2343 H   0  0  0  0  0  0  0  0  0  0  0  0
   13.2129    4.2971   22.8384 H   0  0  0  0  0  0  0  0  0  0  0  0
    7.4671    1.9159   21.9959 H   0  0  0  0  0  0  0  0  0  0  0  0
    9.3227   -1.0504   20.7556 H   0  0  0  0  0  0  0  0  0  0  0  0
    6.5930    0.1516   19.9977 C   0  0  0  0  0  0  0  0  0  0  0  0
    5.3625    0.7997   20.1644 C   0  0  0  0  0  0  0  0  0  0  0  0
    4.7574    1.3851   19.0502 C   0  0  0  0  0  0  0  0  0  0  0  0
    5.4099    1.3174   17.8148 C   0  0  0  0  0  0  0  0  0  0  0  0
    6.5891    0.7015   17.6373 N   0  0  0  0  0  0  0  0  0  0  0  0
    7.1529    0.1388   18.7114 C   0  0  0  0  0  0  0  0  0  0  0  0
    8.1012   -0.3622   18.5255 H   0  0  0  0  0  0  0  0  0  0  0  0
    4.9601    1.7607   16.9303 H   0  0  0  0  0  0  0  0  0  0  0  0
    3.8019    1.8894   19.1293 H   0  0  0  0  0  0  0  0  0  0  0  0
    4.8887    0.8398   21.1468 H   0  0  0  0  0  0  0  0  0  0  0  0
    6.9067   -0.1728   22.0830 H   0  0  0  0  0  0  0  0  0  0  0  0
    6.0009   -2.2713   21.4227 H   0  0  0  0  0  0  0  0  0  0  0  0
    7.6960   -2.5624   21.8213 H   0  0  0  0  0  0  0  0  0  0  0  0
    7.1599   -2.4817   20.1197 H   0  0  0  0  0  0  0  0  0  0  0  0
  1  2  1  0
  2  3  1  0
  3  4  1  0
  4  5  2  0
  5  6  1  0
  6  7  2  0
  7  8  1  0
  8  9  1  0
  9 10  1  0
 10 11  1  0
 11 12  2  0
 12 13  1  0
  9 14  1  0
  9 15  1  0
  5 16  1  0
  3 17  1  0
  2 18  1  0
 18 19  2  0
 19 20  1  0
 20 21  2  0
 21 22  1  0
 22 23  2  0
 23 24  1  0
 21 25  1  0
 20 26  1  0
 19 27  1  0
  2 28  1  0
  1 29  1  0
  1 30  1  0
  1 31  1  0
 12  4  1  0
 23 18  1  0
 11  7  1  0
M  END
>  <plip>  (1) 
-0.10344827586206896

>  <filename>  (1) 
[H][c]1[n][c]([H])[c]([C]([H])([N]([H])[c]2[c]([H])[n][c]3[c]([c]2[H])[O][C]([H])([H])[O]3)[C]([H])([H])[H])[c]([H])[c]1[H]

$$$$
