
     RDKit          3D

 35 37  0  0  0  0  0  0  0  0999 V2000
    5.0208    1.7794   16.9912 H   0  0  0  0  0  0  0  0  0  0  0  0
    5.4942    1.2627   17.8252 C   0  0  0  0  0  0  0  0  0  0  0  0
    6.6456    0.6239   17.5725 N   0  0  0  0  0  0  0  0  0  0  0  0
    7.2435   -0.0036   18.5993 C   0  0  0  0  0  0  0  0  0  0  0  0
    8.1538   -0.5469   18.3621 H   0  0  0  0  0  0  0  0  0  0  0  0
    6.7525   -0.0036   19.9271 C   0  0  0  0  0  0  0  0  0  0  0  0
    7.3727   -0.6850   20.9439 O   0  0  0  0  0  0  0  0  0  0  0  0
    8.2212   -0.0062   21.9372 C   0  0  0  0  0  0  0  0  0  0  0  0
    7.5611    1.2316   22.5442 C   0  0  0  0  0  0  0  0  0  0  0  0
    8.0244    2.5233   22.2406 C   0  0  0  0  0  0  0  0  0  0  0  0
    8.8431    2.6621   21.5402 H   0  0  0  0  0  0  0  0  0  0  0  0
    7.5605    3.6566   22.7804 N   0  0  0  0  0  0  0  0  0  0  0  0
    6.5519    3.5559   23.6462 C   0  0  0  0  0  0  0  0  0  0  0  0
    6.1945    4.4911   24.0796 H   0  0  0  0  0  0  0  0  0  0  0  0
    5.9755    2.3291   23.9953 C   0  0  0  0  0  0  0  0  0  0  0  0
    5.1575    2.3099   24.7008 H   0  0  0  0  0  0  0  0  0  0  0  0
    6.4757    1.1476   23.4350 C   0  0  0  0  0  0  0  0  0  0  0  0
    6.0167    0.1884   23.6990 H   0  0  0  0  0  0  0  0  0  0  0  0
    9.5695    0.3301   21.2670 C   0  0  0  0  0  0  0  0  0  0  0  0
   10.1912    0.8779   21.9864 H   0  0  0  0  0  0  0  0  0  0  0  0
    9.3839    0.9569   20.3879 H   0  0  0  0  0  0  0  0  0  0  0  0
   10.3225   -0.9167   20.8451 C   0  0  0  0  0  0  0  0  0  0  0  0
    9.7637   -1.3699   20.0091 H   0  0  0  0  0  0  0  0  0  0  0  0
   11.3420   -0.6570   20.5349 H   0  0  0  0  0  0  0  0  0  0  0  0
   10.4672   -1.8376   21.9115 O   0  0  0  0  0  0  0  0  0  0  0  0
    9.2223   -2.2607   22.4398 C   0  0  0  0  0  0  0  0  0  0  0  0
    9.4494   -2.9880   23.2252 H   0  0  0  0  0  0  0  0  0  0  0  0
    8.6205   -2.7555   21.6605 H   0  0  0  0  0  0  0  0  0  0  0  0
    8.4580   -1.0780   23.0166 C   0  0  0  0  0  0  0  0  0  0  0  0
    9.0497   -0.6385   23.8305 H   0  0  0  0  0  0  0  0  0  0  0  0
    7.5096   -1.4303   23.4300 H   0  0  0  0  0  0  0  0  0  0  0  0
    5.5260    0.6305   20.1595 C   0  0  0  0  0  0  0  0  0  0  0  0
    5.1020    0.6023   21.1629 H   0  0  0  0  0  0  0  0  0  0  0  0
    4.8964    1.2726   19.0915 C   0  0  0  0  0  0  0  0  0  0  0  0
    3.9561    1.7867   19.2408 H   0  0  0  0  0  0  0  0  0  0  0  0
  1  2  1  0
  2  3  2  0
  3  4  1  0
  4  5  1  0
  4  6  2  0
  6  7  1  0
  7  8  1  0
  8  9  1  0
  9 10  2  0
 10 11  1  0
 10 12  1  0
 12 13  2  0
 13 14  1  0
 13 15  1  0
 15 16  1  0
 15 17  2  0
 17 18  1  0
  8 19  1  0
 19 20  1  0
 19 21  1  0
 19 22  1  0
 22 23  1  0
 22 24  1  0
 22 25  1  0
 25 26  1  0
 26 27  1  0
 26 28  1  0
 26 29  1  0
 29 30  1  0
 29 31  1  0
  6 32  1  0
 32 33  1  0
 32 34  2  0
 34 35  1  0
 34  2  1  0
 29  8  1  0
 17  9  1  0
M  END
>  <plip>  (1) 
-0.03571428571428571

>  <filename>  (1) 
[H][c]1[n][c]([H])[c]([O][C]2([c]3[c]([H])[n][c]([H])[c]([H])[c]3[H])[C]([H])([H])[C]([H])([H])[O][C]([H])([H])[C]2([H])[H])[c]([H])[c]1[H]

$$$$
