
     RDKit          3D

 26 27  0  0  0  0  0  0  0  0999 V2000
    7.9608    2.4853   21.7449 H   0  0  0  0  0  0  0  0  0  0  0  0
    7.9133    1.6077   22.3976 C   0  0  0  0  0  0  0  0  0  0  0  0
    7.1918    1.6939   23.5244 C   0  0  0  0  0  0  0  0  0  0  0  0
    6.2533    3.1405   23.9530 S   0  0  0  0  0  0  0  0  0  0  0  0
    5.6193    2.3559   25.4407 C   0  0  0  0  0  0  0  0  0  0  0  0
    4.8460    2.8051   26.2372 O   0  0  0  0  0  0  0  0  0  0  0  0
    6.1666    1.1147   25.5388 N   0  0  0  0  0  0  0  0  0  0  0  0
    5.9369    0.5463   26.3296 H   0  0  0  0  0  0  0  0  0  0  0  0
    7.0486    0.6560   24.6065 C   0  0  0  0  0  0  0  0  0  0  0  0
    7.6084   -0.4062   24.7309 O   0  0  0  0  0  0  0  0  0  0  0  0
    8.5803    0.3588   21.9420 C   0  0  0  0  0  0  0  0  0  0  0  0
    9.3285    0.5367   21.1682 H   0  0  0  0  0  0  0  0  0  0  0  0
    9.0098   -0.2440   22.7505 H   0  0  0  0  0  0  0  0  0  0  0  0
    7.5095   -0.8449   21.1613 S   0  0  0  0  0  0  0  0  0  0  0  0
    6.4985   -1.2797   22.1053 O   0  0  0  0  0  0  0  0  0  0  0  0
    8.4338   -1.7625   20.5150 O   0  0  0  0  0  0  0  0  0  0  0  0
    6.6570    0.0316   19.9295 C   0  0  0  0  0  0  0  0  0  0  0  0
    7.2046    0.0297   18.6550 C   0  0  0  0  0  0  0  0  0  0  0  0
    8.1435   -0.4694   18.4138 H   0  0  0  0  0  0  0  0  0  0  0  0
    6.5999    0.6425   17.6411 N   0  0  0  0  0  0  0  0  0  0  0  0
    5.4390    1.2653   17.8803 C   0  0  0  0  0  0  0  0  0  0  0  0
    4.9757    1.7542   17.0265 H   0  0  0  0  0  0  0  0  0  0  0  0
    4.8271    1.3004   19.1358 C   0  0  0  0  0  0  0  0  0  0  0  0
    3.8925    1.8282   19.2576 H   0  0  0  0  0  0  0  0  0  0  0  0
    5.4368    0.6601   20.2031 C   0  0  0  0  0  0  0  0  0  0  0  0
    4.9724    0.6414   21.1933 H   0  0  0  0  0  0  0  0  0  0  0  0
  1  2  1  0
  2  3  2  3
  3  4  1  0
  4  5  1  0
  5  6  2  0
  5  7  1  0
  7  8  1  0
  7  9  1  0
  9 10  2  0
  2 11  1  0
 11 12  1  0
 11 13  1  0
 11 14  1  0
 14 15  2  0
 14 16  2  0
 14 17  1  0
 17 18  2  0
 18 19  1  0
 18 20  1  0
 20 21  2  0
 21 22  1  0
 21 23  1  0
 23 24  1  0
 23 25  2  0
 25 26  1  0
  9  3  1  0
 25 17  1  0
M  END
>  <plip>  (1) 
-0.03571428571428571

>  <filename>  (1) 
[H][C](=[C]1[S][C](=[O])[N]([H])[C]1=[O])[C]([H])([H])[S](=[O])(=[O])[c]1[c]([H])[n][c]([H])[c]([H])[c]1[H]

$$$$
