
     RDKit          3D

 24 25  0  0  0  0  0  0  0  0999 V2000
    4.9320    1.7807   16.8378 H   0  0  0  0  0  0  0  0  0  0  0  0
    5.3731    1.3182   17.7168 C   0  0  0  0  0  0  0  0  0  0  0  0
    6.5345    0.6699   17.5220 N   0  0  0  0  0  0  0  0  0  0  0  0
    7.1236    0.1397   18.5976 C   0  0  0  0  0  0  0  0  0  0  0  0
    8.0443   -0.4103   18.4146 H   0  0  0  0  0  0  0  0  0  0  0  0
    6.6193    0.2556   19.9124 C   0  0  0  0  0  0  0  0  0  0  0  0
    7.3871   -0.2018   21.0360 C   0  0  0  0  0  0  0  0  0  0  0  0
    8.0039   -0.6794   21.9629 C   0  0  0  0  0  0  0  0  0  0  0  0
    8.5595   -1.6801   23.2171 S   0  0  0  0  0  0  0  0  0  0  0  0
    8.8109   -3.5476   22.2731 S   0  0  0  0  0  0  0  0  0  0  0  0
    7.3241   -4.4801   22.5688 C   0  0  0  0  0  0  0  0  0  0  0  0
    6.2235   -4.4090   21.6926 C   0  0  0  0  0  0  0  0  0  0  0  0
    6.3144   -3.8516   20.7626 H   0  0  0  0  0  0  0  0  0  0  0  0
    5.0422   -4.9917   21.9358 N   0  0  0  0  0  0  0  0  0  0  0  0
    4.9446   -5.7385   23.0449 C   0  0  0  0  0  0  0  0  0  0  0  0
    3.9801   -6.2097   23.2230 H   0  0  0  0  0  0  0  0  0  0  0  0
    5.9946   -5.9311   23.9435 C   0  0  0  0  0  0  0  0  0  0  0  0
    5.8436   -6.5657   24.8086 H   0  0  0  0  0  0  0  0  0  0  0  0
    7.2163   -5.2980   23.6995 C   0  0  0  0  0  0  0  0  0  0  0  0
    8.0695   -5.4061   24.3659 H   0  0  0  0  0  0  0  0  0  0  0  0
    5.3397    0.8240   20.0713 C   0  0  0  0  0  0  0  0  0  0  0  0
    4.8462    0.8136   21.0437 H   0  0  0  0  0  0  0  0  0  0  0  0
    4.7214    1.3824   18.9536 C   0  0  0  0  0  0  0  0  0  0  0  0
    3.7527    1.8677   19.0284 H   0  0  0  0  0  0  0  0  0  0  0  0
  1  2  1  0
  2  3  2  0
  3  4  1  0
  4  5  1  0
  4  6  2  0
  6  7  1  0
  7  8  3  0
  8  9  1  0
  9 10  1  0
 10 11  1  0
 11 12  2  0
 12 13  1  0
 12 14  1  0
 14 15  2  0
 15 16  1  0
 15 17  1  0
 17 18  1  0
 17 19  2  0
 19 20  1  0
  6 21  1  0
 21 22  1  0
 21 23  2  0
 23 24  1  0
 23  2  1  0
 19 11  1  0
M  END
>  <plip>  (1) 
-0.07142857142857142

>  <filename>  (1) 
[H][c]1[n][c]([H])[c]([C]#[C][S][S][c]2[c]([H])[n][c]([H])[c]([H])[c]2[H])[c]([H])[c]1[H]

$$$$
