
     RDKit          3D

 39 42  0  0  0  0  0  0  0  0999 V2000
    4.9593    1.7980   16.9463 H   0  0  0  0  0  0  0  0  0  0  0  0
    5.4170    1.3044   17.8021 C   0  0  0  0  0  0  0  0  0  0  0  0
    6.5713    0.6562   17.5743 N   0  0  0  0  0  0  0  0  0  0  0  0
    7.1528    0.0467   18.6139 C   0  0  0  0  0  0  0  0  0  0  0  0
    8.0710   -0.4991   18.4022 H   0  0  0  0  0  0  0  0  0  0  0  0
    6.6442    0.0913   19.9224 C   0  0  0  0  0  0  0  0  0  0  0  0
    7.3544   -0.5819   20.9995 C   0  0  0  0  0  0  0  0  0  0  0  0
    7.8259   -1.8690   20.8308 N   0  0  0  0  0  0  0  0  0  0  0  0
    8.2091   -2.2145   22.0247 C   0  0  0  0  0  0  0  0  0  0  0  0
    8.1128   -1.2177   22.9532 N   0  0  0  0  0  0  0  0  0  0  0  0
    7.5949   -0.1357   22.3026 C   0  0  0  0  0  0  0  0  0  0  0  0
    7.4863    1.0851   22.9663 N   0  0  0  0  0  0  0  0  0  0  0  0
    6.9687    1.8167   22.5037 H   0  0  0  0  0  0  0  0  0  0  0  0
    8.5042    1.6609   23.7423 C   0  0  0  0  0  0  0  0  0  0  0  0
    9.5923    1.1868   23.9736 O   0  0  0  0  0  0  0  0  0  0  0  0
    8.0273    2.8764   24.1756 N   0  0  0  0  0  0  0  0  0  0  0  0
    7.0291    2.8666   24.2874 H   0  0  0  0  0  0  0  0  0  0  0  0
    8.7750    3.7946   24.9380 C   0  0  0  0  0  0  0  0  0  0  0  0
    8.2279    4.3454   26.1026 C   0  0  0  0  0  0  0  0  0  0  0  0
    7.2293    4.0552   26.4148 H   0  0  0  0  0  0  0  0  0  0  0  0
    8.9659    5.2694   26.8556 C   0  0  0  0  0  0  0  0  0  0  0  0
    8.5562    5.6829   27.7709 H   0  0  0  0  0  0  0  0  0  0  0  0
   10.2411    5.6457   26.4245 C   0  0  0  0  0  0  0  0  0  0  0  0
   11.1932    6.7418   27.3843 Cl  0  0  0  0  0  0  0  0  0  0  0  0
   10.7681    5.1432   25.2288 C   0  0  0  0  0  0  0  0  0  0  0  0
   11.7364    5.4786   24.8776 H   0  0  0  0  0  0  0  0  0  0  0  0
   10.0580    4.1670   24.5238 C   0  0  0  0  0  0  0  0  0  0  0  0
   10.4881    3.6793   23.6539 H   0  0  0  0  0  0  0  0  0  0  0  0
    8.4784   -1.5360   24.3244 C   0  0  0  0  0  0  0  0  0  0  0  0
    9.5072   -1.2153   24.5168 H   0  0  0  0  0  0  0  0  0  0  0  0
    7.8201   -1.0186   25.0252 H   0  0  0  0  0  0  0  0  0  0  0  0
    8.2947   -3.0612   24.4114 C   0  0  0  0  0  0  0  0  0  0  0  0
    8.9631   -3.5149   25.1444 H   0  0  0  0  0  0  0  0  0  0  0  0
    7.2579   -3.3115   24.6636 H   0  0  0  0  0  0  0  0  0  0  0  0
    8.6809   -3.7401   22.7532 S   0  0  0  0  0  0  0  0  0  0  0  0
    5.4206    0.7446   20.1382 C   0  0  0  0  0  0  0  0  0  0  0  0
    4.9535    0.7206   21.1248 H   0  0  0  0  0  0  0  0  0  0  0  0
    4.7967    1.3560   19.0549 C   0  0  0  0  0  0  0  0  0  0  0  0
    3.8487    1.8671   19.1654 H   0  0  0  0  0  0  0  0  0  0  0  0
  1  2  1  0
  2  3  2  0
  3  4  1  0
  4  5  1  0
  4  6  2  0
  6  7  1  0
  7  8  1  0
  8  9  2  0
  9 10  1  0
 10 11  1  0
 11 12  1  0
 12 13  1  0
 12 14  1  0
 14 15  2  0
 14 16  1  0
 16 17  1  0
 16 18  1  0
 18 19  2  0
 19 20  1  0
 19 21  1  0
 21 22  1  0
 21 23  2  0
 23 24  1  0
 23 25  1  0
 25 26  1  0
 25 27  2  0
 27 28  1  0
 10 29  1  0
 29 30  1  0
 29 31  1  0
 29 32  1  0
 32 33  1  0
 32 34  1  0
 32 35  1  0
  6 36  1  0
 36 37  1  0
 36 38  2  0
 38 39  1  0
 38  2  1  0
 11  7  2  0
 27 18  1  0
 35  9  1  0
M  END
>  <plip>  (1) 
-0.06896551724137931

>  <filename>  (1) 
[H][c]1[n][c]([H])[c](-[c]2[n][c]3[n]([c]2[N]([H])[C](=[O])[N]([H])[c]2[c]([H])[c]([H])[c]([Cl])[c]([H])[c]2[H])[C]([H])([H])[C]([H])([H])[S]3)[c]([H])[c]1[H]

$$$$
