
     RDKit          3D

 39 41  0  0  0  0  0  0  0  0999 V2000
    5.0459    1.8751   16.9327 H   0  0  0  0  0  0  0  0  0  0  0  0
    5.4321    1.3282   17.7944 C   0  0  0  0  0  0  0  0  0  0  0  0
    6.6047    0.6976   17.6277 N   0  0  0  0  0  0  0  0  0  0  0  0
    7.1162    0.0246   18.6655 C   0  0  0  0  0  0  0  0  0  0  0  0
    8.0922   -0.4342   18.5085 H   0  0  0  0  0  0  0  0  0  0  0  0
    6.4746   -0.0788   19.9200 C   0  0  0  0  0  0  0  0  0  0  0  0
    7.0537   -0.8251   21.0018 N   0  0  0  0  0  0  0  0  0  0  0  0
    7.4981   -2.1278   21.0271 C   0  0  0  0  0  0  0  0  0  0  0  0
    7.2645   -2.8492   20.2606 H   0  0  0  0  0  0  0  0  0  0  0  0
    8.1412   -2.3925   22.1238 N   0  0  0  0  0  0  0  0  0  0  0  0
    8.1162   -1.2558   22.8886 N   0  0  0  0  0  0  0  0  0  0  0  0
    7.4467   -0.3459   22.2341 C   0  0  0  0  0  0  0  0  0  0  0  0
    7.0524    0.9707   22.8383 C   0  0  0  0  0  0  0  0  0  0  0  0
    6.6159    1.6401   22.0812 H   0  0  0  0  0  0  0  0  0  0  0  0
    6.2801    0.7605   23.5871 H   0  0  0  0  0  0  0  0  0  0  0  0
    8.1242    1.5598   23.5332 O   0  0  0  0  0  0  0  0  0  0  0  0
    9.1923    2.0693   22.7264 C   0  0  0  0  0  0  0  0  0  0  0  0
    9.1854    1.6031   21.7228 H   0  0  0  0  0  0  0  0  0  0  0  0
    9.0325    3.5824   22.6088 C   0  0  0  0  0  0  0  0  0  0  0  0
    8.1314    3.8555   22.0549 H   0  0  0  0  0  0  0  0  0  0  0  0
    9.8964    3.9569   22.0664 H   0  0  0  0  0  0  0  0  0  0  0  0
    9.0790    4.2364   23.9891 C   0  0  0  0  0  0  0  0  0  0  0  0
    8.2478    3.8781   24.6103 H   0  0  0  0  0  0  0  0  0  0  0  0
    8.9561    5.3259   23.9155 H   0  0  0  0  0  0  0  0  0  0  0  0
   10.3432    3.9420   24.6599 N   0  0  0  0  0  0  0  0  0  0  0  0
   11.4872    4.7609   24.3020 C   0  0  0  0  0  0  0  0  0  0  0  0
   12.0624    4.4110   23.4252 H   0  0  0  0  0  0  0  0  0  0  0  0
   12.1780    4.8071   25.1542 H   0  0  0  0  0  0  0  0  0  0  0  0
   11.1549    5.7823   24.0950 H   0  0  0  0  0  0  0  0  0  0  0  0
   10.6171    2.5051   24.7694 C   0  0  0  0  0  0  0  0  0  0  0  0
   11.6309    2.3672   25.1724 H   0  0  0  0  0  0  0  0  0  0  0  0
    9.9176    2.0760   25.4998 H   0  0  0  0  0  0  0  0  0  0  0  0
   10.4941    1.7287   23.4486 C   0  0  0  0  0  0  0  0  0  0  0  0
   10.4979    0.6548   23.6426 H   0  0  0  0  0  0  0  0  0  0  0  0
   11.3514    1.9482   22.7987 H   0  0  0  0  0  0  0  0  0  0  0  0
    5.2632    0.5985   20.0873 C   0  0  0  0  0  0  0  0  0  0  0  0
    4.7595    0.5841   21.0547 H   0  0  0  0  0  0  0  0  0  0  0  0
    4.7316    1.3119   19.0043 C   0  0  0  0  0  0  0  0  0  0  0  0
    3.8155    1.8793   19.1026 H   0  0  0  0  0  0  0  0  0  0  0  0
  1  2  1  0
  2  3  2  0
  3  4  1  0
  4  5  1  0
  4  6  2  0
  6  7  1  0
  7  8  1  0
  8  9  1  0
  8 10  2  0
 10 11  1  0
 11 12  2  0
 12 13  1  0
 13 14  1  0
 13 15  1  0
 13 16  1  0
 16 17  1  0
 17 18  1  0
 17 19  1  0
 19 20  1  0
 19 21  1  0
 19 22  1  0
 22 23  1  0
 22 24  1  0
 22 25  1  0
 25 26  1  0
 26 27  1  0
 26 28  1  0
 26 29  1  0
 25 30  1  0
 30 31  1  0
 30 32  1  0
 30 33  1  0
 33 34  1  0
 33 35  1  0
  6 36  1  0
 36 37  1  0
 36 38  2  0
 38 39  1  0
 38  2  1  0
 12  7  1  0
 33 17  1  0
M  END
>  <plip>  (1) 
-0.0

>  <filename>  (1) 
[H][c]1[n][c]([H])[c](-[n]2[c]([H])[n][n][c]2[C]([H])([H])[O][C]2([H])[C]([H])([H])[C]([H])([H])[N]([C]([H])([H])[H])[C]([H])([H])[C]2([H])[H])[c]([H])[c]1[H]

$$$$
