
     RDKit          3D

 29 30  0  0  0  0  0  0  0  0999 V2000
   10.8224   -3.8596   23.5997 H   0  0  0  0  0  0  0  0  0  0  0  0
    9.7672   -3.6907   23.3769 C   0  0  0  0  0  0  0  0  0  0  0  0
    8.8906   -4.2200   24.2240 N   0  0  0  0  0  0  0  0  0  0  0  0
    7.6175   -4.0330   23.8865 C   0  0  0  0  0  0  0  0  0  0  0  0
    6.7358   -4.6674   24.6787 N   0  0  0  0  0  0  0  0  0  0  0  0
    5.8924   -4.1219   24.6658 H   0  0  0  0  0  0  0  0  0  0  0  0
    7.2064   -4.7938   25.5585 H   0  0  0  0  0  0  0  0  0  0  0  0
    7.1199   -3.3055   22.9043 N   0  0  0  0  0  0  0  0  0  0  0  0
    8.0216   -2.8090   22.0565 C   0  0  0  0  0  0  0  0  0  0  0  0
    7.5110   -2.0737   20.8739 C   0  0  0  0  0  0  0  0  0  0  0  0
    8.2888   -2.0940   20.1176 H   0  0  0  0  0  0  0  0  0  0  0  0
    6.6140   -2.5554   20.4851 H   0  0  0  0  0  0  0  0  0  0  0  0
    7.3029   -0.5942   21.1543 C   0  0  2  0  0  0  0  0  0  0  0  0
    6.7156   -0.4521   22.0749 H   0  0  0  0  0  0  0  0  0  0  0  0
    6.5827    0.0780   20.0127 C   0  0  0  0  0  0  0  0  0  0  0  0
    7.1500    0.0729   18.7306 C   0  0  0  0  0  0  0  0  0  0  0  0
    8.0917   -0.4390   18.5263 H   0  0  0  0  0  0  0  0  0  0  0  0
    6.5992    0.6618   17.6605 N   0  0  0  0  0  0  0  0  0  0  0  0
    5.4319    1.2954   17.8357 C   0  0  0  0  0  0  0  0  0  0  0  0
    5.0104    1.7816   16.9568 H   0  0  0  0  0  0  0  0  0  0  0  0
    4.7641    1.3413   19.0633 C   0  0  0  0  0  0  0  0  0  0  0  0
    3.8217    1.8694   19.1466 H   0  0  0  0  0  0  0  0  0  0  0  0
    5.3463    0.7182   20.1681 C   0  0  0  0  0  0  0  0  0  0  0  0
    4.8615    0.7339   21.1452 H   0  0  0  0  0  0  0  0  0  0  0  0
    8.6473   -0.0625   21.3485 N   0  0  0  0  0  0  0  0  0  0  0  0
    9.1354   -0.1665   20.4635 H   0  0  0  0  0  0  0  0  0  0  0  0
    8.5937    0.9395   21.4981 H   0  0  0  0  0  0  0  0  0  0  0  0
    9.3892   -2.9793   22.2506 C   0  0  0  0  0  0  0  0  0  0  0  0
   10.1054   -2.5812   21.5498 H   0  0  0  0  0  0  0  0  0  0  0  0
  1  2  1  0
  2  3  2  0
  3  4  1  0
  4  5  1  0
  5  6  1  0
  5  7  1  0
  4  8  2  0
  8  9  1  0
  9 10  1  0
 10 11  1  0
 10 12  1  0
 10 13  1  0
 13 14  1  1
 13 15  1  0
 15 16  2  0
 16 17  1  0
 16 18  1  0
 18 19  2  0
 19 20  1  0
 19 21  1  0
 21 22  1  0
 21 23  2  0
 23 24  1  0
 13 25  1  0
 25 26  1  0
 25 27  1  0
  9 28  2  0
 28 29  1  0
 28  2  1  0
 23 15  1  0
M  END
>  <plip>  (1) 
-0.034482758620689655

>  <filename>  (1) 
[H][c]1[n][c]([N]([H])[H])[n][c]([C]([H])([H])[C@]([H])([c]2[c]([H])[n][c]([H])[c]([H])[c]2[H])[N]([H])[H])[c]1[H]

$$$$
