
     RDKit          3D

 33 35  0  0  0  0  0  0  0  0999 V2000
    4.9111    1.8085   16.9831 H   0  0  0  0  0  0  0  0  0  0  0  0
    5.3833    1.3008   17.8247 C   0  0  0  0  0  0  0  0  0  0  0  0
    6.5419    0.6790   17.5619 N   0  0  0  0  0  0  0  0  0  0  0  0
    7.1427    0.0416   18.5741 C   0  0  0  0  0  0  0  0  0  0  0  0
    8.1108   -0.4138   18.3546 H   0  0  0  0  0  0  0  0  0  0  0  0
    6.6213   -0.0353   19.8776 C   0  0  0  0  0  0  0  0  0  0  0  0
    7.3773   -0.7161   21.0062 C   0  0  0  0  0  0  0  0  0  0  0  0
    8.0030   -1.5264   20.6142 H   0  0  0  0  0  0  0  0  0  0  0  0
    6.6855   -1.1523   21.7347 H   0  0  0  0  0  0  0  0  0  0  0  0
    8.2994    0.2320   21.7043 C   0  0  0  0  0  0  0  0  0  0  0  0
    9.3170    0.8004   21.1233 N   0  0  0  0  0  0  0  0  0  0  0  0
    9.9458    1.6087   22.0373 N   0  0  0  0  0  0  0  0  0  0  0  0
    9.3144    1.5093   23.1630 C   0  0  0  0  0  0  0  0  0  0  0  0
    9.5559    2.0429   24.0747 H   0  0  0  0  0  0  0  0  0  0  0  0
    8.2796    0.6093   23.0251 N   0  0  0  0  0  0  0  0  0  0  0  0
    7.1473    0.2692   24.1686 S   0  0  0  0  0  0  0  0  0  0  0  0
    7.6476    0.9313   25.3581 O   0  0  0  0  0  0  0  0  0  0  0  0
    5.8680    0.6105   23.5781 O   0  0  0  0  0  0  0  0  0  0  0  0
    7.2410   -1.5103   24.3741 C   0  0  0  0  0  0  0  0  0  0  0  0
    6.0656   -2.2266   24.6630 C   0  0  0  0  0  0  0  0  0  0  0  0
    5.1004   -1.7351   24.7694 H   0  0  0  0  0  0  0  0  0  0  0  0
    6.1309   -3.6074   24.8558 C   0  0  0  0  0  0  0  0  0  0  0  0
    5.2242   -4.1608   25.0764 H   0  0  0  0  0  0  0  0  0  0  0  0
    7.3529   -4.2787   24.7787 C   0  0  0  0  0  0  0  0  0  0  0  0
    7.3989   -5.3534   24.9310 H   0  0  0  0  0  0  0  0  0  0  0  0
    8.5161   -3.5546   24.5096 C   0  0  0  0  0  0  0  0  0  0  0  0
    9.4697   -4.0668   24.4627 H   0  0  0  0  0  0  0  0  0  0  0  0
    8.4754   -2.1743   24.3095 C   0  0  0  0  0  0  0  0  0  0  0  0
    9.4123   -1.6512   24.1263 H   0  0  0  0  0  0  0  0  0  0  0  0
    5.4269    0.6403   20.1399 C   0  0  0  0  0  0  0  0  0  0  0  0
    5.0288    0.6447   21.1563 H   0  0  0  0  0  0  0  0  0  0  0  0
    4.7942    1.3155   19.0913 C   0  0  0  0  0  0  0  0  0  0  0  0
    3.8694    1.8558   19.2411 H   0  0  0  0  0  0  0  0  0  0  0  0
  1  2  1  0
  2  3  2  0
  3  4  1  0
  4  5  1  0
  4  6  2  0
  6  7  1  0
  7  8  1  0
  7  9  1  0
  7 10  1  0
 10 11  2  0
 11 12  1  0
 12 13  2  0
 13 14  1  0
 13 15  1  0
 15 16  1  0
 16 17  2  0
 16 18  2  0
 16 19  1  0
 19 20  2  0
 20 21  1  0
 20 22  1  0
 22 23  1  0
 22 24  2  0
 24 25  1  0
 24 26  1  0
 26 27  1  0
 26 28  2  0
 28 29  1  0
  6 30  1  0
 30 31  1  0
 30 32  2  0
 32 33  1  0
 32  2  1  0
 15 10  1  0
 28 19  1  0
M  END
>  <plip>  (1) 
-0.07142857142857142

>  <filename>  (1) 
[H][c]1[n][c]([H])[c]([C]([H])([H])[c]2[n][n][c]([H])[n]2[S](=[O])(=[O])[c]2[c]([H])[c]([H])[c]([H])[c]([H])[c]2[H])[c]([H])[c]1[H]

$$$$
