
     RDKit          3D

 39 41  0  0  0  0  0  0  0  0999 V2000
    4.9265    1.7768   17.0052 H   0  0  0  0  0  0  0  0  0  0  0  0
    5.4049    1.2854   17.8509 C   0  0  0  0  0  0  0  0  0  0  0  0
    6.5642    0.6607   17.5999 N   0  0  0  0  0  0  0  0  0  0  0  0
    7.1801    0.0427   18.6113 C   0  0  0  0  0  0  0  0  0  0  0  0
    8.1295   -0.4267   18.3828 H   0  0  0  0  0  0  0  0  0  0  0  0
    6.6678   -0.0107   19.9257 C   0  0  0  0  0  0  0  0  0  0  0  0
    7.3481   -0.6939   20.9694 N   0  0  0  0  0  0  0  0  0  0  0  0
    6.6282   -1.2381   22.0293 N   0  0  0  0  0  0  0  0  0  0  0  0
    7.5041   -1.7468   22.8395 C   0  0  0  0  0  0  0  0  0  0  0  0
    7.2564   -2.3727   23.9880 O   0  0  0  0  0  0  0  0  0  0  0  0
    5.8910   -2.5073   24.4333 C   0  0  0  0  0  0  0  0  0  0  0  0
    5.4431   -1.5177   24.5660 H   0  0  0  0  0  0  0  0  0  0  0  0
    5.3038   -3.0557   23.6875 H   0  0  0  0  0  0  0  0  0  0  0  0
    5.8462   -3.2530   25.7803 C   0  0  0  0  0  0  0  0  0  0  0  0
    6.3224   -4.2358   25.6774 H   0  0  0  0  0  0  0  0  0  0  0  0
    6.4397   -2.7052   26.5237 H   0  0  0  0  0  0  0  0  0  0  0  0
    4.5033   -3.4630   26.3491 N   0  0  0  0  0  0  0  0  0  0  0  0
    3.6202   -4.3347   25.5619 C   0  0  0  0  0  0  0  0  0  0  0  0
    3.3544   -3.8943   24.5850 H   0  0  0  0  0  0  0  0  0  0  0  0
    4.1241   -5.2897   25.3688 H   0  0  0  0  0  0  0  0  0  0  0  0
    2.3055   -4.6033   26.3088 C   0  0  0  0  0  0  0  0  0  0  0  0
    1.6245   -5.1885   25.6833 H   0  0  0  0  0  0  0  0  0  0  0  0
    2.5114   -5.1757   27.2258 H   0  0  0  0  0  0  0  0  0  0  0  0
    1.6236   -3.3985   26.6373 O   0  0  0  0  0  0  0  0  0  0  0  0
    2.4635   -2.5725   27.4358 C   0  0  0  0  0  0  0  0  0  0  0  0
    1.8991   -1.6582   27.6428 H   0  0  0  0  0  0  0  0  0  0  0  0
    2.6749   -3.0726   28.3929 H   0  0  0  0  0  0  0  0  0  0  0  0
    3.7836   -2.2374   26.7258 C   0  0  0  0  0  0  0  0  0  0  0  0
    4.4084   -1.6356   27.3972 H   0  0  0  0  0  0  0  0  0  0  0  0
    3.5326   -1.6097   25.8528 H   0  0  0  0  0  0  0  0  0  0  0  0
    8.9132   -1.5995   22.4054 C   0  0  0  0  0  0  0  0  0  0  0  0
    9.4200   -2.5480   22.2155 H   0  0  0  0  0  0  0  0  0  0  0  0
    9.5435   -1.0370   23.0953 H   0  0  0  0  0  0  0  0  0  0  0  0
    8.7290   -0.8317   21.1282 C   0  0  0  0  0  0  0  0  0  0  0  0
    9.5925   -0.4187   20.3915 O   0  0  0  0  0  0  0  0  0  0  0  0
    5.4491    0.6379   20.1812 C   0  0  0  0  0  0  0  0  0  0  0  0
    5.0204    0.6125   21.1828 H   0  0  0  0  0  0  0  0  0  0  0  0
    4.8221    1.3003   19.1234 C   0  0  0  0  0  0  0  0  0  0  0  0
    3.8894    1.8323   19.2675 H   0  0  0  0  0  0  0  0  0  0  0  0
  1  2  1  0
  2  3  2  0
  3  4  1  0
  4  5  1  0
  4  6  2  0
  6  7  1  0
  7  8  1  0
  8  9  2  0
  9 10  1  0
 10 11  1  0
 11 12  1  0
 11 13  1  0
 11 14  1  0
 14 15  1  0
 14 16  1  0
 14 17  1  0
 17 18  1  0
 18 19  1  0
 18 20  1  0
 18 21  1  0
 21 22  1  0
 21 23  1  0
 21 24  1  0
 24 25  1  0
 25 26  1  0
 25 27  1  0
 25 28  1  0
 28 29  1  0
 28 30  1  0
  9 31  1  0
 31 32  1  0
 31 33  1  0
 31 34  1  0
 34 35  2  0
  6 36  1  0
 36 37  1  0
 36 38  2  0
 38 39  1  0
 38  2  1  0
 34  7  1  0
 28 17  1  0
M  END
>  <plip>  (1) 
-0.07142857142857142

>  <filename>  (1) 
[H][c]1[n][c]([H])[c]([N]2[N]=[C]([O][C]([H])([H])[C]([H])([H])[N]3[C]([H])([H])[C]([H])([H])[O][C]([H])([H])[C]3([H])[H])[C]([H])([H])[C]2=[O])[c]([H])[c]1[H]

$$$$
