
     RDKit          3D

 31 33  0  0  0  0  0  0  0  0999 V2000
    9.0419   -3.3348   21.7936 H   0  0  0  0  0  0  0  0  0  0  0  0
    8.5489   -2.3737   21.7623 C   0  0  0  0  0  0  0  0  0  0  0  0
    7.9622   -1.9159   20.7070 N   0  0  0  0  0  0  0  0  0  0  0  0
    7.3847   -0.7001   20.9618 C   0  0  0  0  0  0  0  0  0  0  0  0
    6.6485   -0.0002   19.8992 C   0  0  0  0  0  0  0  0  0  0  0  0
    7.1697    0.0475   18.5980 C   0  0  0  0  0  0  0  0  0  0  0  0
    8.1203   -0.4324   18.3732 H   0  0  0  0  0  0  0  0  0  0  0  0
    6.5714    0.6754   17.5812 N   0  0  0  0  0  0  0  0  0  0  0  0
    5.4073    1.2904   17.8391 C   0  0  0  0  0  0  0  0  0  0  0  0
    4.9239    1.7795   16.9969 H   0  0  0  0  0  0  0  0  0  0  0  0
    4.8053    1.3067   19.1022 C   0  0  0  0  0  0  0  0  0  0  0  0
    3.8744    1.8422   19.2572 H   0  0  0  0  0  0  0  0  0  0  0  0
    5.4306    0.6454   20.1543 C   0  0  0  0  0  0  0  0  0  0  0  0
    4.9957    0.6340   21.1579 H   0  0  0  0  0  0  0  0  0  0  0  0
    7.5843   -0.2208   22.2388 C   0  0  0  0  0  0  0  0  0  0  0  0
    7.1916    1.3738   22.8664 S   0  0  0  0  0  0  0  0  0  0  0  0
    8.5503    2.3182   22.0595 C   0  0  0  0  0  0  0  0  0  0  0  0
    8.4688    2.1414   20.9836 H   0  0  0  0  0  0  0  0  0  0  0  0
    8.3384    3.3794   22.2416 H   0  0  0  0  0  0  0  0  0  0  0  0
    9.8942    1.9101   22.6025 C   0  0  0  0  0  0  0  0  0  0  0  0
   10.7552    1.0908   21.8599 C   0  0  0  0  0  0  0  0  0  0  0  0
   10.4511    0.7700   20.8666 H   0  0  0  0  0  0  0  0  0  0  0  0
   11.9751    0.6719   22.3985 C   0  0  0  0  0  0  0  0  0  0  0  0
   12.6356    0.0411   21.8121 H   0  0  0  0  0  0  0  0  0  0  0  0
   12.3379    1.0613   23.6908 C   0  0  0  0  0  0  0  0  0  0  0  0
   13.2894    0.7451   24.1095 H   0  0  0  0  0  0  0  0  0  0  0  0
   11.4698    1.8565   24.4456 C   0  0  0  0  0  0  0  0  0  0  0  0
   11.7435    2.1551   25.4481 H   0  0  0  0  0  0  0  0  0  0  0  0
   10.2518    2.2748   23.9101 C   0  0  0  0  0  0  0  0  0  0  0  0
    9.5654    2.8779   24.5023 H   0  0  0  0  0  0  0  0  0  0  0  0
    8.5068   -1.3584   23.1516 S   0  0  0  0  0  0  0  0  0  0  0  0
  1  2  1  0
  2  3  2  0
  3  4  1  0
  4  5  1  0
  5  6  2  0
  6  7  1  0
  6  8  1  0
  8  9  2  0
  9 10  1  0
  9 11  1  0
 11 12  1  0
 11 13  2  0
 13 14  1  0
  4 15  2  0
 15 16  1  0
 16 17  1  0
 17 18  1  0
 17 19  1  0
 17 20  1  0
 20 21  2  0
 21 22  1  0
 21 23  1  0
 23 24  1  0
 23 25  2  0
 25 26  1  0
 25 27  1  0
 27 28  1  0
 27 29  2  0
 29 30  1  0
 15 31  1  0
 31  2  1  0
 13  5  1  0
 29 20  1  0
M  END
>  <plip>  (1) 
-0.03333333333333333

>  <filename>  (1) 
[H][c]1[n][c](-[c]2[c]([H])[n][c]([H])[c]([H])[c]2[H])[c]([S][C]([H])([H])[c]2[c]([H])[c]([H])[c]([H])[c]([H])[c]2[H])[s]1

$$$$
