
     RDKit          3D

 32 33  0  0  0  0  0  0  0  0999 V2000
    9.1241   -2.9487   21.1892 O   0  0  0  0  0  0  0  0  0  0  0  0
    8.4157   -3.1241   22.1572 C   0  0  0  0  0  0  0  0  0  0  0  0
    8.9700   -3.6915   23.4541 C   0  0  0  0  0  0  0  0  0  0  0  0
   10.0896   -2.8195   24.1023 C   0  0  0  0  0  0  0  0  0  0  0  0
    9.5769   -1.5331   24.6959 C   0  0  0  0  0  0  0  0  0  0  0  0
    8.8729   -1.4287   25.8561 C   0  0  0  0  0  0  0  0  0  0  0  0
    8.2881    0.1729   26.0614 S   0  0  0  0  0  0  0  0  0  0  0  0
    9.0678    0.6055   24.5807 C   0  0  0  0  0  0  0  0  0  0  0  0
    9.6939   -0.3590   23.9833 N   0  0  0  0  0  0  0  0  0  0  0  0
    9.0491    1.6298   24.2165 H   0  0  0  0  0  0  0  0  0  0  0  0
    8.6541   -2.2120   26.5671 H   0  0  0  0  0  0  0  0  0  0  0  0
   10.8377   -2.5723   23.3359 H   0  0  0  0  0  0  0  0  0  0  0  0
   10.5935   -3.4136   24.8795 H   0  0  0  0  0  0  0  0  0  0  0  0
    9.4515   -4.6263   23.1628 H   0  0  0  0  0  0  0  0  0  0  0  0
    8.1674   -3.9410   24.1552 H   0  0  0  0  0  0  0  0  0  0  0  0
    7.0934   -2.8656   22.1877 O   0  0  0  0  0  0  0  0  0  0  0  0
    6.5367   -2.1073   21.0855 C   0  0  0  0  0  0  0  0  0  0  0  0
    7.1745   -0.7105   20.9488 C   0  0  0  0  0  0  0  0  0  0  0  0
    6.5592    0.0874   19.8219 C   0  0  0  0  0  0  0  0  0  0  0  0
    5.3473    0.7668   19.9997 C   0  0  0  0  0  0  0  0  0  0  0  0
    4.7596    1.4234   18.9163 C   0  0  0  0  0  0  0  0  0  0  0  0
    5.4072    1.3842   17.6779 C   0  0  0  0  0  0  0  0  0  0  0  0
    6.5779    0.7588   17.4814 N   0  0  0  0  0  0  0  0  0  0  0  0
    7.1322    0.1384   18.5338 C   0  0  0  0  0  0  0  0  0  0  0  0
    8.0954   -0.3365   18.3425 H   0  0  0  0  0  0  0  0  0  0  0  0
    4.9709    1.8754   16.8076 H   0  0  0  0  0  0  0  0  0  0  0  0
    3.8187    1.9573   19.0180 H   0  0  0  0  0  0  0  0  0  0  0  0
    4.8872    0.7812   20.9889 H   0  0  0  0  0  0  0  0  0  0  0  0
    8.2455   -0.8287   20.7588 H   0  0  0  0  0  0  0  0  0  0  0  0
    7.0732   -0.1908   21.9147 H   0  0  0  0  0  0  0  0  0  0  0  0
    5.4710   -2.0170   21.3199 H   0  0  0  0  0  0  0  0  0  0  0  0
    6.6378   -2.6853   20.1585 H   0  0  0  0  0  0  0  0  0  0  0  0
  1  2  2  0
  2  3  1  0
  3  4  1  0
  4  5  1  0
  5  6  2  0
  6  7  1  0
  7  8  1  0
  8  9  2  0
  8 10  1  0
  6 11  1  0
  4 12  1  0
  4 13  1  0
  3 14  1  0
  3 15  1  0
  2 16  1  0
 16 17  1  0
 17 18  1  0
 18 19  1  0
 19 20  2  0
 20 21  1  0
 21 22  2  0
 22 23  1  0
 23 24  2  0
 24 25  1  0
 22 26  1  0
 21 27  1  0
 20 28  1  0
 18 29  1  0
 18 30  1  0
 17 31  1  0
 17 32  1  0
  9  5  1  0
 24 19  1  0
M  END
>  <plip>  (1) 
-0.03571428571428571

>  <filename>  (1) 
[H][c]1[n][c]([C]([H])([H])[C]([H])([H])[C](=[O])[O][C]([H])([H])[C]([H])([H])[c]2[c]([H])[n][c]([H])[c]([H])[c]2[H])[c]([H])[s]1

$$$$
