
     RDKit          3D

 42 44  0  0  0  0  0  0  0  0999 V2000
    3.6208    7.1236   27.2802 C   0  0  0  0  0  0  0  0  0  0  0  0
    4.9353    6.4022   27.4285 C   0  0  0  0  0  0  0  0  0  0  0  0
    5.7137    6.5801   28.5121 C   0  0  0  0  0  0  0  0  0  0  0  0
    6.9991    5.8973   28.6849 C   0  0  0  0  0  0  0  0  0  0  0  0
    7.7254    6.0341   29.6322 O   0  0  0  0  0  0  0  0  0  0  0  0
    7.4006    5.0409   27.6831 O   0  0  0  0  0  0  0  0  0  0  0  0
    6.6372    4.8244   26.5793 C   0  0  0  0  0  0  0  0  0  0  0  0
    7.1576    3.9180   25.6558 C   0  0  0  0  0  0  0  0  0  0  0  0
    6.4271    3.6498   24.5021 C   0  0  0  0  0  0  0  0  0  0  0  0
    6.7886    2.7600   23.5359 O   0  0  0  0  0  0  0  0  0  0  0  0
    8.0642    2.1142   23.5715 C   0  0  0  0  0  0  0  0  0  0  0  0
    8.2695    1.2788   22.2796 C   0  0  0  0  0  0  0  0  0  0  0  0
    9.0587    1.5862   21.4107 O   0  0  0  0  0  0  0  0  0  0  0  0
    7.5158    0.1148   22.2477 N   0  0  0  0  0  0  0  0  0  0  0  0
    7.3695   -0.7178   21.0440 C   0  0  0  0  0  0  0  0  0  0  0  0
    6.6271   -2.4604   21.2494 C   0  0  0  0  0  0  0  0  0  0  0  0
    5.4286   -2.5295   21.4772 O   0  0  0  0  0  0  0  0  0  0  0  0
    7.5106   -3.2831   21.0573 O   0  0  0  0  0  1  0  0  0  0  0  0
    6.6763    0.0369   19.9252 C   0  0  0  0  0  0  0  0  0  0  0  0
    5.4447    0.6719   20.1410 C   0  0  0  0  0  0  0  0  0  0  0  0
    4.8147    1.3105   19.0710 C   0  0  0  0  0  0  0  0  0  0  0  0
    5.4346    1.3021   17.8181 C   0  0  0  0  0  0  0  0  0  0  0  0
    6.6159    0.7095   17.5817 N   0  0  0  0  0  0  0  0  0  0  0  0
    7.2139    0.1096   18.6224 C   0  0  0  0  0  0  0  0  0  0  0  0
    8.1684   -0.3693   18.3947 H   0  0  0  0  0  0  0  0  0  0  0  0
    4.9507    1.7729   16.9632 H   0  0  0  0  0  0  0  0  0  0  0  0
    3.8604    1.8083   19.1989 H   0  0  0  0  0  0  0  0  0  0  0  0
    4.9915    0.6673   21.1353 H   0  0  0  0  0  0  0  0  0  0  0  0
    8.3489   -1.0902   20.7319 H   0  0  0  0  0  0  0  0  0  0  0  0
    6.7525    0.1211   22.9061 H   0  0  0  0  0  0  0  0  0  0  0  0
    8.1182    1.4463   24.4438 H   0  0  0  0  0  0  0  0  0  0  0  0
    8.8720    2.8505   23.6380 H   0  0  0  0  0  0  0  0  0  0  0  0
    5.1949    4.2970   24.2623 C   0  0  0  0  0  0  0  0  0  0  0  0
    4.6971    5.1900   25.1928 C   0  0  0  0  0  0  0  0  0  0  0  0
    5.4015    5.4780   26.3858 C   0  0  0  0  0  0  0  0  0  0  0  0
    3.7444    5.6797   25.0048 H   0  0  0  0  0  0  0  0  0  0  0  0
    4.6762    4.0712   23.3362 H   0  0  0  0  0  0  0  0  0  0  0  0
    8.1157    3.4553   25.8671 H   0  0  0  0  0  0  0  0  0  0  0  0
    5.4626    7.2347   29.3356 H   0  0  0  0  0  0  0  0  0  0  0  0
    3.6237    7.7432   26.3809 H   0  0  0  0  0  0  0  0  0  0  0  0
    2.7984    6.4099   27.1952 H   0  0  0  0  0  0  0  0  0  0  0  0
    3.4219    7.7701   28.1375 H   0  0  0  0  0  0  0  0  0  0  0  0
  1  2  1  0
  2  3  2  0
  3  4  1  0
  4  5  2  0
  4  6  1  0
  6  7  1  0
  7  8  2  0
  8  9  1  0
  9 10  1  0
 10 11  1  0
 11 12  1  0
 12 13  2  0
 12 14  1  0
 14 15  1  0
 15 16  1  0
 16 17  2  0
 16 18  1  0
 15 19  1  0
 19 20  2  0
 20 21  1  0
 21 22  2  0
 22 23  1  0
 23 24  2  0
 24 25  1  0
 22 26  1  0
 21 27  1  0
 20 28  1  0
 15 29  1  0
 14 30  1  0
 11 31  1  0
 11 32  1  0
  9 33  2  0
 33 34  1  0
 34 35  2  0
 34 36  1  0
 33 37  1  0
  8 38  1  0
  3 39  1  0
  1 40  1  0
  1 41  1  0
  1 42  1  0
 35  2  1  0
 35  7  1  0
 24 19  1  0
M  CHG  1  18  -1
M  END
>  <plip>  (1) 
-0.1724137931034483

>  <filename>  (1) 
[H][c]1[n][c]([H])[c]([C]([H])([C](=[O])[O-])[N]([H])[C](=[O])[C]([H])([H])[O][c]2[c]([H])[c]([H])[c]3[c]([C]([H])([H])[H])[c]([H])[c](=[O])[o][c]3[c]2[H])[c]([H])[c]1[H]

$$$$
