
     RDKit          3D

 37 37  0  0  0  0  0  0  0  0999 V2000
    5.4964   -7.7657   28.5363 C   0  0  0  0  0  0  0  0  0  0  0  0
    5.0063   -6.6677   27.6217 C   0  0  0  0  0  0  0  0  0  0  0  0
    3.8672   -6.2863   27.6326 O   0  0  0  0  0  0  0  0  0  0  0  0
    6.2626   -5.8738   26.5706 S   0  0  0  0  0  0  0  0  0  0  0  0
    6.8042   -4.6104   27.7742 C   0  0  0  0  0  0  0  0  0  0  0  0
    7.8594   -3.7139   27.1224 C   0  0  0  0  0  0  0  0  0  0  0  0
    7.2659   -2.8056   26.0616 C   0  0  0  0  0  0  0  0  0  0  0  0
    6.6498   -1.7968   26.3696 O   0  0  0  0  0  0  0  0  0  0  0  0
    7.4665   -3.1793   24.7759 N   0  0  0  0  0  0  0  0  0  0  0  0
    6.9466   -2.3947   23.6595 C   0  0  0  0  0  0  0  0  0  0  0  0
    7.7716   -1.1054   23.3938 C   0  0  0  0  0  0  0  0  0  0  0  0
    7.2596   -0.3359   22.2652 N   0  0  0  0  0  0  0  0  0  0  0  0
    7.4340   -0.7279   20.9764 C   0  0  0  0  0  0  0  0  0  0  0  0
    8.1591   -1.6575   20.6637 O   0  0  0  0  0  0  0  0  0  0  0  0
    6.6626    0.0555   19.9646 C   0  0  0  0  0  0  0  0  0  0  0  0
    5.4282    0.6884   20.1911 C   0  0  0  0  0  0  0  0  0  0  0  0
    4.7992    1.3156   19.1172 C   0  0  0  0  0  0  0  0  0  0  0  0
    5.4107    1.2818   17.8593 C   0  0  0  0  0  0  0  0  0  0  0  0
    6.5737    0.6566   17.6278 N   0  0  0  0  0  0  0  0  0  0  0  0
    7.1747    0.0599   18.6627 C   0  0  0  0  0  0  0  0  0  0  0  0
    8.1094   -0.4490   18.4306 H   0  0  0  0  0  0  0  0  0  0  0  0
    4.9561    1.7705   16.9983 H   0  0  0  0  0  0  0  0  0  0  0  0
    3.8612    1.8457   19.2387 H   0  0  0  0  0  0  0  0  0  0  0  0
    4.9376    0.6629   21.1674 H   0  0  0  0  0  0  0  0  0  0  0  0
    6.8029    0.5477   22.4061 H   0  0  0  0  0  0  0  0  0  0  0  0
    8.8095   -1.4024   23.1879 H   0  0  0  0  0  0  0  0  0  0  0  0
    7.7604   -0.4904   24.3013 H   0  0  0  0  0  0  0  0  0  0  0  0
    6.9482   -3.0091   22.7537 H   0  0  0  0  0  0  0  0  0  0  0  0
    5.9098   -2.1017   23.8787 H   0  0  0  0  0  0  0  0  0  0  0  0
    7.9315   -4.0603   24.6247 H   0  0  0  0  0  0  0  0  0  0  0  0
    8.2424   -3.0150   27.8650 H   0  0  0  0  0  0  0  0  0  0  0  0
    8.7064   -4.3090   26.7551 H   0  0  0  0  0  0  0  0  0  0  0  0
    5.9336   -4.0237   28.0929 H   0  0  0  0  0  0  0  0  0  0  0  0
    7.2124   -5.1093   28.6631 H   0  0  0  0  0  0  0  0  0  0  0  0
    5.2855   -7.4454   29.5588 H   0  0  0  0  0  0  0  0  0  0  0  0
    6.5583   -7.9914   28.4479 H   0  0  0  0  0  0  0  0  0  0  0  0
    4.9061   -8.6607   28.3459 H   0  0  0  0  0  0  0  0  0  0  0  0
  1  2  1  0
  2  3  2  0
  2  4  1  0
  4  5  1  0
  5  6  1  0
  6  7  1  0
  7  8  2  0
  7  9  1  0
  9 10  1  0
 10 11  1  0
 11 12  1  0
 12 13  1  0
 13 14  2  0
 13 15  1  0
 15 16  2  0
 16 17  1  0
 17 18  2  0
 18 19  1  0
 19 20  2  0
 20 21  1  0
 18 22  1  0
 17 23  1  0
 16 24  1  0
 12 25  1  0
 11 26  1  0
 11 27  1  0
 10 28  1  0
 10 29  1  0
  9 30  1  0
  6 31  1  0
  6 32  1  0
  5 33  1  0
  5 34  1  0
  1 35  1  0
  1 36  1  0
  1 37  1  0
 20 15  1  0
M  END
>  <plip>  (1) 
-0.0

>  <filename>  (1) 
[H][c]1[n][c]([H])[c]([C](=[O])[N]([H])[C]([H])([H])[C]([H])([H])[N]([H])[C](=[O])[C]([H])([H])[C]([H])([H])[S][C](=[O])[C]([H])([H])[H])[c]([H])[c]1[H]

$$$$
