
     RDKit          3D

 40 42  0  0  0  0  0  0  0  0999 V2000
    4.0907    7.0622   25.1080 C   0  0  0  0  0  0  0  0  0  0  0  0
    5.1021    6.2482   25.6767 O   0  0  0  0  0  0  0  0  0  0  0  0
    5.3356    4.9998   25.1825 C   0  0  0  0  0  0  0  0  0  0  0  0
    6.3645    4.2767   25.8143 C   0  0  0  0  0  0  0  0  0  0  0  0
    6.6770    2.9872   25.3894 C   0  0  0  0  0  0  0  0  0  0  0  0
    5.9807    2.3744   24.3360 C   0  0  0  0  0  0  0  0  0  0  0  0
    6.3568    0.9931   23.8512 C   0  0  0  0  0  0  0  0  0  0  0  0
    7.4175    1.0495   22.7437 C   0  0  0  0  0  0  0  0  0  0  0  0
    7.6788   -0.2453   22.1412 N   0  0  0  0  0  0  0  0  0  0  0  0
    8.3511   -1.1847   22.8439 N   0  0  0  0  0  0  0  0  0  0  0  0
    8.4200   -2.1796   21.9869 C   0  0  0  0  0  0  0  0  0  0  0  0
    9.1425   -3.4269   22.2844 C   0  0  0  0  0  0  0  0  0  0  0  0
   10.1847   -3.2183   22.0348 H   0  0  0  0  0  0  0  0  0  0  0  0
    9.1137   -3.6850   23.3379 H   0  0  0  0  0  0  0  0  0  0  0  0
    8.7336   -4.2454   21.6905 H   0  0  0  0  0  0  0  0  0  0  0  0
    7.8827   -1.9382   20.7646 N   0  0  0  0  0  0  0  0  0  0  0  0
    7.3968   -0.7252   20.9050 C   0  0  0  0  0  0  0  0  0  0  0  0
    6.6464    0.0159   19.8971 C   0  0  0  0  0  0  0  0  0  0  0  0
    5.4298    0.6641   20.1554 C   0  0  0  0  0  0  0  0  0  0  0  0
    4.7965    1.3155   19.1006 C   0  0  0  0  0  0  0  0  0  0  0  0
    5.4020    1.2941   17.8394 C   0  0  0  0  0  0  0  0  0  0  0  0
    6.5652    0.6763   17.5810 N   0  0  0  0  0  0  0  0  0  0  0  0
    7.1631    0.0481   18.5968 C   0  0  0  0  0  0  0  0  0  0  0  0
    8.1126   -0.4381   18.3820 H   0  0  0  0  0  0  0  0  0  0  0  0
    4.9247    1.7827   16.9945 H   0  0  0  0  0  0  0  0  0  0  0  0
    3.8667    1.8479   19.2542 H   0  0  0  0  0  0  0  0  0  0  0  0
    4.9849    0.6395   21.1557 H   0  0  0  0  0  0  0  0  0  0  0  0
    7.1102    1.7353   21.9568 H   0  0  0  0  0  0  0  0  0  0  0  0
    8.3569    1.4237   23.1493 H   0  0  0  0  0  0  0  0  0  0  0  0
    5.4697    0.4789   23.4665 H   0  0  0  0  0  0  0  0  0  0  0  0
    6.7477    0.3660   24.6614 H   0  0  0  0  0  0  0  0  0  0  0  0
    4.9713    3.1123   23.7063 C   0  0  0  0  0  0  0  0  0  0  0  0
    4.6384    4.4103   24.1171 C   0  0  0  0  0  0  0  0  0  0  0  0
    3.8491    4.9549   23.6087 H   0  0  0  0  0  0  0  0  0  0  0  0
    4.4357    2.6684   22.8678 H   0  0  0  0  0  0  0  0  0  0  0  0
    7.4780    2.4344   25.8751 H   0  0  0  0  0  0  0  0  0  0  0  0
    6.9014    4.7401   26.6336 H   0  0  0  0  0  0  0  0  0  0  0  0
    4.2765    7.2967   24.0516 H   0  0  0  0  0  0  0  0  0  0  0  0
    4.1119    7.9908   25.6759 H   0  0  0  0  0  0  0  0  0  0  0  0
    3.0895    6.6216   25.2007 H   0  0  0  0  0  0  0  0  0  0  0  0
  1  2  1  0
  2  3  1  0
  3  4  2  0
  4  5  1  0
  5  6  2  0
  6  7  1  0
  7  8  1  0
  8  9  1  0
  9 10  1  0
 10 11  2  0
 11 12  1  0
 12 13  1  0
 12 14  1  0
 12 15  1  0
 11 16  1  0
 16 17  2  0
 17 18  1  0
 18 19  2  0
 19 20  1  0
 20 21  2  0
 21 22  1  0
 22 23  2  0
 23 24  1  0
 21 25  1  0
 20 26  1  0
 19 27  1  0
  8 28  1  0
  8 29  1  0
  7 30  1  0
  7 31  1  0
  6 32  1  0
 32 33  2  0
 33 34  1  0
 32 35  1  0
  5 36  1  0
  4 37  1  0
  1 38  1  0
  1 39  1  0
  1 40  1  0
 33  3  1  0
 17  9  1  0
 23 18  1  0
M  END
>  <plip>  (1) 
-0.0

>  <filename>  (1) 
[H][c]1[n][c]([H])[c](-[c]2[n][c]([C]([H])([H])[H])[n][n]2[C]([H])([H])[C]([H])([H])[c]2[c]([H])[c]([H])[c]([O][C]([H])([H])[H])[c]([H])[c]2[H])[c]([H])[c]1[H]

$$$$
