
     RDKit          3D

 22 23  0  0  0  0  0  0  0  0999 V2000
    4.9346    1.8494   16.9301 H   0  0  0  0  0  0  0  0  0  0  0  0
    5.3850    1.3263   17.7714 C   0  0  0  0  0  0  0  0  0  0  0  0
    6.5459    0.6916   17.5325 N   0  0  0  0  0  0  0  0  0  0  0  0
    7.1407    0.0776   18.5662 C   0  0  0  0  0  0  0  0  0  0  0  0
    8.0884   -0.4105   18.3254 H   0  0  0  0  0  0  0  0  0  0  0  0
    6.6336    0.0628   19.8907 C   0  0  0  0  0  0  0  0  0  0  0  0
    7.3519   -0.5713   21.0283 C   0  0  0  0  0  0  0  0  0  0  0  0
    7.1228   -0.4783   22.4425 C   0  0  0  0  0  0  0  0  0  0  0  0
    6.4209    0.1368   22.9975 H   0  0  0  0  0  0  0  0  0  0  0  0
    7.9223   -1.2788   23.1301 N   0  0  0  0  0  0  0  0  0  0  0  0
    8.6903   -1.8808   22.2115 N   0  0  0  0  0  0  0  0  0  0  0  0
    9.5626   -2.9548   22.6384 C   0  0  0  0  0  0  0  0  0  0  0  0
   10.3982   -3.0445   21.9426 H   0  0  0  0  0  0  0  0  0  0  0  0
    9.9558   -2.6882   23.6151 H   0  0  0  0  0  0  0  0  0  0  0  0
    8.8362   -4.2347   22.7262 C   0  0  0  0  0  0  0  0  0  0  0  0
    8.2619   -5.2339   22.6752 N   0  0  0  0  0  0  0  0  0  0  0  0
    8.3970   -1.4754   20.9562 C   0  0  0  0  0  0  0  0  0  0  0  0
    9.0045   -1.8325   20.1358 H   0  0  0  0  0  0  0  0  0  0  0  0
    5.3915    0.6946   20.0856 C   0  0  0  0  0  0  0  0  0  0  0  0
    4.9419    0.6908   21.0776 H   0  0  0  0  0  0  0  0  0  0  0  0
    4.7654    1.3408   19.0213 C   0  0  0  0  0  0  0  0  0  0  0  0
    3.8327    1.8741   19.1569 H   0  0  0  0  0  0  0  0  0  0  0  0
  1  2  1  0
  2  3  2  0
  3  4  1  0
  4  5  1  0
  4  6  2  0
  6  7  1  0
  7  8  1  0
  8  9  1  0
  8 10  2  0
 10 11  1  0
 11 12  1  0
 12 13  1  0
 12 14  1  0
 12 15  1  0
 15 16  3  0
 11 17  1  0
 17 18  1  0
  6 19  1  0
 19 20  1  0
 19 21  2  0
 21 22  1  0
 21  2  1  0
 17  7  2  0
M  END
>  <plip>  (1) 
-0.034482758620689655

>  <filename>  (1) 
[H][c]1[n][c]([H])[c](-[c]2[c]([H])[n][n]([C]([H])([H])[C]#[N])[c]2[H])[c]([H])[c]1[H]

$$$$
