
     RDKit          3D

 43 44  0  0  0  0  0  0  0  0999 V2000
    8.8621    8.1931   24.7446 C   0  0  0  0  0  0  0  0  0  0  0  0
    9.5458    6.8511   24.6250 C   0  0  0  0  0  0  0  0  0  0  0  0
   10.9185    6.7245   24.8953 C   0  0  0  0  0  0  0  0  0  0  0  0
   11.5625    5.4932   24.7737 C   0  0  0  0  0  0  0  0  0  0  0  0
   10.8256    4.3583   24.4252 C   0  0  0  0  0  0  0  0  0  0  0  0
    9.4420    4.4687   24.2121 C   0  0  0  0  0  0  0  0  0  0  0  0
    8.6410    3.3952   23.9401 O   0  0  0  0  0  0  0  0  0  0  0  0
    9.1637    2.0820   23.9845 C   0  0  0  0  0  0  0  0  0  0  0  0
    8.0458    1.1230   23.6065 C   0  0  0  0  0  0  0  0  0  0  0  0
    8.5632   -0.3174   23.5794 C   0  0  0  0  0  0  0  0  0  0  0  0
    7.5993   -1.3028   23.1061 N   0  0  0  0  0  0  0  0  0  0  0  0
    6.9901   -1.4055   21.8991 C   0  0  0  0  0  0  0  0  0  0  0  0
    5.7728   -2.5115   21.6561 S   0  0  0  0  0  0  0  0  0  0  0  0
    7.4810   -0.5676   20.9457 N   0  0  0  0  0  0  0  0  0  0  0  0
    6.7385    0.0069   19.8630 C   0  0  0  0  0  0  0  0  0  0  0  0
    5.4852    0.5909   20.0899 C   0  0  0  0  0  0  0  0  0  0  0  0
    4.8431    1.2423   19.0310 C   0  0  0  0  0  0  0  0  0  0  0  0
    5.4566    1.2533   17.7752 C   0  0  0  0  0  0  0  0  0  0  0  0
    6.6355    0.6600   17.5330 N   0  0  0  0  0  0  0  0  0  0  0  0
    7.2574    0.0505   18.5531 C   0  0  0  0  0  0  0  0  0  0  0  0
    8.2094   -0.4299   18.3241 H   0  0  0  0  0  0  0  0  0  0  0  0
    4.9841    1.7625   16.9352 H   0  0  0  0  0  0  0  0  0  0  0  0
    3.8954    1.7530   19.1765 H   0  0  0  0  0  0  0  0  0  0  0  0
    5.0443    0.5458   21.0877 H   0  0  0  0  0  0  0  0  0  0  0  0
    8.3408   -0.1277   21.2273 H   0  0  0  0  0  0  0  0  0  0  0  0
    7.0811   -1.8499   23.7758 H   0  0  0  0  0  0  0  0  0  0  0  0
    9.4799   -0.3806   22.9717 H   0  0  0  0  0  0  0  0  0  0  0  0
    8.8630   -0.6101   24.5947 H   0  0  0  0  0  0  0  0  0  0  0  0
    7.2188    1.2135   24.3188 H   0  0  0  0  0  0  0  0  0  0  0  0
    7.6365    1.4073   22.6277 H   0  0  0  0  0  0  0  0  0  0  0  0
    9.9963    1.9826   23.2694 H   0  0  0  0  0  0  0  0  0  0  0  0
    9.5530    1.8637   24.9947 H   0  0  0  0  0  0  0  0  0  0  0  0
    8.7890    5.7214   24.2529 C   0  0  0  0  0  0  0  0  0  0  0  0
    7.3263    5.8559   23.8589 C   0  0  0  0  0  0  0  0  0  0  0  0
    6.8060    6.5893   24.4828 H   0  0  0  0  0  0  0  0  0  0  0  0
    6.7925    4.9068   23.9452 H   0  0  0  0  0  0  0  0  0  0  0  0
    7.2282    6.1882   22.8163 H   0  0  0  0  0  0  0  0  0  0  0  0
   11.3080    3.3900   24.3339 H   0  0  0  0  0  0  0  0  0  0  0  0
   12.6328    5.4096   24.9572 H   0  0  0  0  0  0  0  0  0  0  0  0
   11.4675    7.6082   25.2090 H   0  0  0  0  0  0  0  0  0  0  0  0
    9.5628    9.0206   24.8669 H   0  0  0  0  0  0  0  0  0  0  0  0
    8.2593    8.4067   23.8559 H   0  0  0  0  0  0  0  0  0  0  0  0
    8.1804    8.2103   25.6017 H   0  0  0  0  0  0  0  0  0  0  0  0
  1  2  1  0
  2  3  2  0
  3  4  1  0
  4  5  2  0
  5  6  1  0
  6  7  1  0
  7  8  1  0
  8  9  1  0
  9 10  1  0
 10 11  1  0
 11 12  1  0
 12 13  2  0
 12 14  1  0
 14 15  1  0
 15 16  2  0
 16 17  1  0
 17 18  2  0
 18 19  1  0
 19 20  2  0
 20 21  1  0
 18 22  1  0
 17 23  1  0
 16 24  1  0
 14 25  1  0
 11 26  1  0
 10 27  1  0
 10 28  1  0
  9 29  1  0
  9 30  1  0
  8 31  1  0
  8 32  1  0
  6 33  2  0
 33 34  1  0
 34 35  1  0
 34 36  1  0
 34 37  1  0
  5 38  1  0
  4 39  1  0
  3 40  1  0
  1 41  1  0
  1 42  1  0
  1 43  1  0
 33  2  1  0
 20 15  1  0
M  END
>  <plip>  (1) 
-0.10714285714285714

>  <filename>  (1) 
[H][c]1[n][c]([H])[c]([N]([H])[C](=[S])[N]([H])[C]([H])([H])[C]([H])([H])[C]([H])([H])[O][c]2[c]([H])[c]([H])[c]([H])[c]([C]([H])([H])[H])[c]2[C]([H])([H])[H])[c]([H])[c]1[H]

$$$$
