
     RDKit          3D

 34 37  0  0  0  0  0  0  0  0999 V2000
    6.7947   -5.3656   20.8375 H   0  0  0  0  0  0  0  0  0  0  0  0
    6.5534   -4.3145   20.9606 C   0  0  0  0  0  0  0  0  0  0  0  0
    5.2919   -3.8257   21.0899 N   0  0  0  0  0  0  0  0  0  0  0  0
    5.5135   -2.5348   21.1985 C   0  0  0  0  0  0  0  0  0  0  0  0
    4.8048   -1.7488   21.4209 H   0  0  0  0  0  0  0  0  0  0  0  0
    6.8144   -2.2444   21.0874 N   0  0  0  0  0  0  0  0  0  0  0  0
    7.3572   -0.8428   21.1178 C   0  0  1  0  0  0  0  0  0  0  0  0
    6.6433   -0.0260   20.0222 C   0  0  0  0  0  0  0  0  0  0  0  0
    7.1303   -0.0709   18.7066 C   0  0  0  0  0  0  0  0  0  0  0  0
    8.0339   -0.6353   18.4828 H   0  0  0  0  0  0  0  0  0  0  0  0
    6.5714    0.5441   17.6533 N   0  0  0  0  0  0  0  0  0  0  0  0
    5.4488    1.2394   17.8708 C   0  0  0  0  0  0  0  0  0  0  0  0
    5.0330    1.7501   17.0033 H   0  0  0  0  0  0  0  0  0  0  0  0
    4.8319    1.3185   19.1246 C   0  0  0  0  0  0  0  0  0  0  0  0
    3.8978    1.8639   19.2164 H   0  0  0  0  0  0  0  0  0  0  0  0
    5.4301    0.6716   20.2133 C   0  0  0  0  0  0  0  0  0  0  0  0
    4.9295    0.6854   21.1863 H   0  0  0  0  0  0  0  0  0  0  0  0
    7.1867   -0.2312   22.5595 C   0  0  0  0  0  0  0  0  0  0  0  0
    6.7597    0.7741   22.4911 H   0  0  0  0  0  0  0  0  0  0  0  0
    6.5235   -0.8562   23.1676 H   0  0  0  0  0  0  0  0  0  0  0  0
    8.6252   -0.1631   23.1204 C   0  0  2  0  0  0  0  0  0  0  0  0
    8.6770   -0.1478   24.2121 H   0  0  0  0  0  0  0  0  0  0  0  0
    9.3321    1.0235   22.4298 C   0  0  0  0  0  0  0  0  0  0  0  0
   10.2914    1.2520   22.9044 H   0  0  0  0  0  0  0  0  0  0  0  0
    8.7338    1.9436   22.4498 H   0  0  0  0  0  0  0  0  0  0  0  0
    9.5555    0.4774   20.9922 C   0  0  0  0  0  0  0  0  0  0  0  0
   10.6278    0.3639   20.8154 H   0  0  0  0  0  0  0  0  0  0  0  0
    9.1236    1.1253   20.2252 H   0  0  0  0  0  0  0  0  0  0  0  0
    8.9143   -0.9231   21.0252 C   0  0  1  0  0  0  0  0  0  0  0  0
    9.2337   -1.5968   20.2249 H   0  0  0  0  0  0  0  0  0  0  0  0
    9.2929   -1.3692   22.4487 C   0  0  0  0  0  0  0  0  0  0  0  0
   10.3797   -1.4192   22.5903 H   0  0  0  0  0  0  0  0  0  0  0  0
    8.8462   -2.3315   22.7216 H   0  0  0  0  0  0  0  0  0  0  0  0
    7.5142   -3.4105   20.9853 N   0  0  0  0  0  0  0  0  0  0  0  0
  1  2  1  0
  2  3  1  0
  3  4  2  0
  4  5  1  0
  4  6  1  0
  7  6  1  1
  7  8  1  0
  8  9  2  0
  9 10  1  0
  9 11  1  0
 11 12  2  0
 12 13  1  0
 12 14  1  0
 14 15  1  0
 14 16  2  0
 16 17  1  0
  7 18  1  0
 18 19  1  0
 18 20  1  0
 18 21  1  0
 21 22  1  1
 21 23  1  0
 23 24  1  0
 23 25  1  0
 23 26  1  0
 26 27  1  0
 26 28  1  0
 26 29  1  0
 29 30  1  6
 29 31  1  0
 31 32  1  0
 31 33  1  0
  6 34  1  0
 34  2  2  0
 29  7  1  0
 16  8  1  0
 31 21  1  0
M  END
>  <plip>  (1) 
-0.10344827586206896

>  <filename>  (1) 
[H][c]1[n][c]([H])[n]([C@@]2([c]3[c]([H])[n][c]([H])[c]([H])[c]3[H])[C]([H])([H])[C@]3([H])[C]([H])([H])[C]([H])([H])[C@@]2([H])[C]3([H])[H])[n]1

$$$$
