
     RDKit          3D

 27 29  0  0  0  0  0  0  0  0999 V2000
   10.3384   -2.3417   22.0578 C   0  0  0  0  0  0  0  0  0  0  0  0
    8.9833   -1.7149   22.0398 C   0  0  0  0  0  0  0  0  0  0  0  0
    8.1116   -1.6073   23.1101 C   0  0  0  0  0  0  0  0  0  0  0  0
    8.2644   -2.1045   24.4333 C   0  0  0  0  0  0  0  0  0  0  0  0
    7.5145   -2.0055   25.5750 C   0  0  0  0  0  0  0  0  0  0  0  0
    8.2165   -2.7432   26.5768 C   0  0  0  0  0  0  0  0  0  0  0  0
    9.3244   -3.2417   25.9758 C   0  0  0  0  0  0  0  0  0  0  0  0
    9.3733   -2.8633   24.6847 O   0  0  0  0  0  0  0  0  0  0  0  0
   10.1497   -3.8531   26.3094 H   0  0  0  0  0  0  0  0  0  0  0  0
    7.9577   -2.8812   27.6155 H   0  0  0  0  0  0  0  0  0  0  0  0
    6.5700   -1.4796   25.6750 H   0  0  0  0  0  0  0  0  0  0  0  0
    6.6905   -0.7439   22.6312 S   0  0  0  0  0  0  0  0  0  0  0  0
    7.3452   -0.6260   21.0302 C   0  0  0  0  0  0  0  0  0  0  0  0
    6.6151    0.0214   19.9413 C   0  0  0  0  0  0  0  0  0  0  0  0
    5.3891    0.6740   20.1342 C   0  0  0  0  0  0  0  0  0  0  0  0
    4.8081    1.3106   19.0438 C   0  0  0  0  0  0  0  0  0  0  0  0
    5.4624    1.2712   17.8066 C   0  0  0  0  0  0  0  0  0  0  0  0
    6.6218    0.6256   17.6031 N   0  0  0  0  0  0  0  0  0  0  0  0
    7.1790    0.0174   18.6544 C   0  0  0  0  0  0  0  0  0  0  0  0
    8.1208   -0.4988   18.4799 H   0  0  0  0  0  0  0  0  0  0  0  0
    5.0345    1.7804   16.9466 H   0  0  0  0  0  0  0  0  0  0  0  0
    3.8778    1.8533   19.1540 H   0  0  0  0  0  0  0  0  0  0  0  0
    4.9194    0.6995   21.1189 H   0  0  0  0  0  0  0  0  0  0  0  0
    8.5254   -1.1569   20.8827 N   0  0  0  0  0  0  0  0  0  0  0  0
   11.0170   -1.7471   22.6718 H   0  0  0  0  0  0  0  0  0  0  0  0
   10.3204   -3.3282   22.5274 H   0  0  0  0  0  0  0  0  0  0  0  0
   10.7203   -2.3674   21.0371 H   0  0  0  0  0  0  0  0  0  0  0  0
  1  2  1  0
  2  3  2  0
  3  4  1  0
  4  5  2  0
  5  6  1  0
  6  7  2  0
  7  8  1  0
  7  9  1  0
  6 10  1  0
  5 11  1  0
  3 12  1  0
 12 13  1  0
 13 14  1  0
 14 15  2  0
 15 16  1  0
 16 17  2  0
 17 18  1  0
 18 19  2  0
 19 20  1  0
 17 21  1  0
 16 22  1  0
 15 23  1  0
 13 24  2  0
  1 25  1  0
  1 26  1  0
  1 27  1  0
 24  2  1  0
  8  4  1  0
 19 14  1  0
M  END
>  <plip>  (1) 
-0.03571428571428571

>  <filename>  (1) 
[H][c]1[n][c]([H])[c](-[c]2[n][c]([C]([H])([H])[H])[c](-[c]3[o][c]([H])[c]([H])[c]3[H])[s]2)[c]([H])[c]1[H]

$$$$
