
     RDKit          3D

 35 37  0  0  0  0  0  0  0  0999 V2000
    5.6866   -2.2002   21.5599 O   0  0  0  0  0  0  0  0  0  0  0  0
    6.7474   -1.6497   21.8044 C   0  0  0  0  0  0  0  0  0  0  0  0
    7.3463   -0.7459   20.9538 N   0  0  0  0  0  0  0  0  0  0  0  0
    6.6830   -0.0433   19.8958 C   0  0  0  0  0  0  0  0  0  0  0  0
    5.4669    0.6069   20.1414 C   0  0  0  0  0  0  0  0  0  0  0  0
    4.8453    1.2908   19.0902 C   0  0  0  0  0  0  0  0  0  0  0  0
    5.4444    1.2904   17.8290 C   0  0  0  0  0  0  0  0  0  0  0  0
    6.6132    0.6781   17.5773 N   0  0  0  0  0  0  0  0  0  0  0  0
    7.2171    0.0409   18.5897 C   0  0  0  0  0  0  0  0  0  0  0  0
    8.1668   -0.4370   18.3500 H   0  0  0  0  0  0  0  0  0  0  0  0
    4.9741    1.7999   16.9897 H   0  0  0  0  0  0  0  0  0  0  0  0
    3.9107    1.8175   19.2380 H   0  0  0  0  0  0  0  0  0  0  0  0
    5.0373    0.5826   21.1413 H   0  0  0  0  0  0  0  0  0  0  0  0
    8.2918   -0.4831   21.2108 H   0  0  0  0  0  0  0  0  0  0  0  0
    7.6219   -1.9452   23.1409 C   0  0  0  0  0  0  0  0  0  0  0  0
    8.7731   -1.5256   23.2314 O   0  0  0  0  0  0  0  0  0  0  0  0
    7.0585   -2.6744   24.1503 N   0  0  0  0  0  0  0  0  0  0  0  0
    5.6924   -3.2122   24.2092 C   0  0  0  0  0  0  0  0  0  0  0  0
    5.6711   -4.0001   25.4866 C   0  0  0  0  0  0  0  0  0  0  0  0
    4.6168   -4.7244   26.0494 C   0  0  0  0  0  0  0  0  0  0  0  0
    4.8111   -5.3774   27.2652 C   0  0  0  0  0  0  0  0  0  0  0  0
    6.0590   -5.2943   27.9059 C   0  0  0  0  0  0  0  0  0  0  0  0
    6.2444   -6.0317   29.1869 N   0  0  0  0  0  4  0  0  0  0  0  0
    7.3480   -6.0194   29.7036 O   0  0  0  0  0  0  0  0  0  0  0  0
    5.2839   -6.6180   29.6584 O   0  0  0  0  0  1  0  0  0  0  0  0
    7.1148   -4.5508   27.3580 C   0  0  0  0  0  0  0  0  0  0  0  0
    6.9027   -3.9012   26.1417 C   0  0  0  0  0  0  0  0  0  0  0  0
    7.8514   -3.0441   25.3423 C   0  0  0  0  0  0  0  0  0  0  0  0
    8.1696   -2.1452   25.8831 H   0  0  0  0  0  0  0  0  0  0  0  0
    8.7553   -3.5849   25.0412 H   0  0  0  0  0  0  0  0  0  0  0  0
    8.0663   -4.5019   27.8825 H   0  0  0  0  0  0  0  0  0  0  0  0
    4.0127   -5.9489   27.7274 H   0  0  0  0  0  0  0  0  0  0  0  0
    3.6461   -4.7791   25.5601 H   0  0  0  0  0  0  0  0  0  0  0  0
    4.9571   -2.4099   24.2683 H   0  0  0  0  0  0  0  0  0  0  0  0
    5.4621   -3.8073   23.3223 H   0  0  0  0  0  0  0  0  0  0  0  0
  1  2  2  0
  2  3  1  0
  3  4  1  0
  4  5  2  0
  5  6  1  0
  6  7  2  0
  7  8  1  0
  8  9  2  0
  9 10  1  0
  7 11  1  0
  6 12  1  0
  5 13  1  0
  3 14  1  0
  2 15  1  0
 15 16  2  0
 15 17  1  0
 17 18  1  0
 18 19  1  0
 19 20  2  0
 20 21  1  0
 21 22  2  0
 22 23  1  0
 23 24  2  0
 23 25  1  0
 22 26  1  0
 26 27  2  0
 27 28  1  0
 28 29  1  0
 28 30  1  0
 26 31  1  0
 21 32  1  0
 20 33  1  0
 18 34  1  0
 18 35  1  0
  9  4  1  0
 28 17  1  0
 27 19  1  0
M  CHG  2  23   1  25  -1
M  END
>  <plip>  (1) 
-0.07142857142857142

>  <filename>  (1) 
[H][c]1[n][c]([H])[c]([N]([H])[C](=[O])[C](=[O])[N]2[C]([H])([H])[c]3[c]([H])[c]([H])[c]([N+](=[O])[O-])[c]([H])[c]3[C]2([H])[H])[c]([H])[c]1[H]

$$$$
