
     RDKit          3D

 20 21  0  0  0  0  0  0  0  0999 V2000
    4.9168    1.7856   16.9904 H   0  0  0  0  0  0  0  0  0  0  0  0
    5.3999    1.2957   17.8325 C   0  0  0  0  0  0  0  0  0  0  0  0
    6.5653    0.6849   17.5664 N   0  0  0  0  0  0  0  0  0  0  0  0
    7.1619    0.0532   18.5842 C   0  0  0  0  0  0  0  0  0  0  0  0
    8.1132   -0.4302   18.3660 H   0  0  0  0  0  0  0  0  0  0  0  0
    6.6257   -0.0366   19.8787 C   0  0  0  0  0  0  0  0  0  0  0  0
    7.5537   -0.8661   21.1581 S   0  0  0  0  0  0  0  0  0  0  0  0
    8.4356    0.5641   21.7119 C   0  0  0  0  0  0  0  0  0  0  0  0
    8.0503    1.5277   22.6127 C   0  0  0  0  0  0  0  0  0  0  0  0
    7.1299    1.5086   23.1796 H   0  0  0  0  0  0  0  0  0  0  0  0
    9.0627    2.5210   22.6307 C   0  0  0  0  0  0  0  0  0  0  0  0
    9.0785    3.3993   23.2574 H   0  0  0  0  0  0  0  0  0  0  0  0
   10.0268    2.1586   21.7282 C   0  0  0  0  0  0  0  0  0  0  0  0
   10.9641    2.6400   21.4623 H   0  0  0  0  0  0  0  0  0  0  0  0
    9.6228    0.9777   21.1607 N   0  0  0  0  0  0  0  0  0  0  0  0
   10.1152    0.4540   20.4605 H   0  0  0  0  0  0  0  0  0  0  0  0
    5.4245    0.6336   20.1505 C   0  0  0  0  0  0  0  0  0  0  0  0
    5.0027    0.6294   21.1613 H   0  0  0  0  0  0  0  0  0  0  0  0
    4.8006    1.3105   19.0995 C   0  0  0  0  0  0  0  0  0  0  0  0
    3.8704    1.8475   19.2569 H   0  0  0  0  0  0  0  0  0  0  0  0
  1  2  1  0
  2  3  2  0
  3  4  1  0
  4  5  1  0
  4  6  2  0
  6  7  1  0
  7  8  1  0
  8  9  2  0
  9 10  1  0
  9 11  1  0
 11 12  1  0
 11 13  2  0
 13 14  1  0
 13 15  1  0
 15 16  1  0
  6 17  1  0
 17 18  1  0
 17 19  2  0
 19 20  1  0
 19  2  1  0
 15  8  1  0
M  END
>  <plip>  (1) 
-0.034482758620689655

>  <filename>  (1) 
[H][c]1[n][c]([H])[c]([S][c]2[c]([H])[c]([H])[c]([H])[n]2[H])[c]([H])[c]1[H]

$$$$
