
     RDKit          3D

 20 21  0  0  0  0  0  0  0  0999 V2000
    5.8637    2.4985   24.7703 H   0  0  0  0  0  0  0  0  0  0  0  0
    6.6878    2.3411   24.0861 C   0  0  0  0  0  0  0  0  0  0  0  0
    7.7399    3.2127   23.9937 N   0  0  0  0  0  0  0  0  0  0  0  0
    8.4972    2.6649   23.0912 C   0  0  0  0  0  0  0  0  0  0  0  0
    9.4375    3.0616   22.7218 H   0  0  0  0  0  0  0  0  0  0  0  0
    7.9430    1.4959   22.6522 N   0  0  0  0  0  0  0  0  0  0  0  0
    8.5079    0.6130   21.7129 C   0  0  0  0  0  0  0  0  0  0  0  0
    9.9388    0.8972   21.0041 S   0  0  0  0  0  0  0  0  0  0  0  0
    7.5171   -0.7901   21.2458 S   0  0  0  0  0  0  0  0  0  0  0  0
    6.6355   -0.0097   19.8955 C   0  0  0  0  0  0  0  0  0  0  0  0
    7.1658    0.0473   18.5932 C   0  0  0  0  0  0  0  0  0  0  0  0
    8.1252   -0.4255   18.3794 H   0  0  0  0  0  0  0  0  0  0  0  0
    6.5592    0.6774   17.5790 N   0  0  0  0  0  0  0  0  0  0  0  0
    5.3965    1.2936   17.8385 C   0  0  0  0  0  0  0  0  0  0  0  0
    4.9140    1.7836   16.9942 H   0  0  0  0  0  0  0  0  0  0  0  0
    4.7983    1.3131   19.1010 C   0  0  0  0  0  0  0  0  0  0  0  0
    3.8691    1.8485   19.2558 H   0  0  0  0  0  0  0  0  0  0  0  0
    5.4260    0.6457   20.1566 C   0  0  0  0  0  0  0  0  0  0  0  0
    5.0209    0.6349   21.1728 H   0  0  0  0  0  0  0  0  0  0  0  0
    6.7538    1.2989   23.2979 N   0  0  0  0  0  0  0  0  0  0  0  0
  1  2  1  0
  2  3  1  0
  3  4  2  0
  4  5  1  0
  4  6  1  0
  6  7  1  0
  7  8  2  0
  7  9  1  0
  9 10  1  0
 10 11  2  0
 11 12  1  0
 11 13  1  0
 13 14  2  0
 14 15  1  0
 14 16  1  0
 16 17  1  0
 16 18  2  0
 18 19  1  0
  6 20  1  0
 20  2  2  0
 18 10  1  0
M  END
>  <plip>  (1) 
-0.03571428571428571

>  <filename>  (1) 
[H][c]1[n][c]([H])[n]([C](=[S])[S][c]2[c]([H])[n][c]([H])[c]([H])[c]2[H])[n]1

$$$$
