
     RDKit          3D

 29 31  0  0  0  0  0  0  0  0999 V2000
    6.6051    0.1418   22.5879 H   0  0  0  0  0  0  0  0  0  0  0  0
    7.2859   -0.6088   22.1415 C   0  0  0  0  0  0  0  0  0  0  0  0
    7.4090   -0.7475   20.8752 N   0  0  0  0  0  0  0  0  0  0  0  0
    6.6735    0.0088   19.9280 C   0  0  0  0  0  0  0  0  0  0  0  0
    7.1756    0.0652   18.5991 C   0  0  0  0  0  0  0  0  0  0  0  0
    8.1188   -0.4329   18.3960 H   0  0  0  0  0  0  0  0  0  0  0  0
    6.5693    0.6776   17.5799 N   0  0  0  0  0  0  0  0  0  0  0  0
    5.3990    1.2939   17.8417 C   0  0  0  0  0  0  0  0  0  0  0  0
    4.9105    1.7789   16.9987 H   0  0  0  0  0  0  0  0  0  0  0  0
    4.8096    1.3080   19.1099 C   0  0  0  0  0  0  0  0  0  0  0  0
    3.8746    1.8418   19.2653 H   0  0  0  0  0  0  0  0  0  0  0  0
    5.4481    0.6529   20.1743 C   0  0  0  0  0  0  0  0  0  0  0  0
    5.0011    0.6258   21.1691 H   0  0  0  0  0  0  0  0  0  0  0  0
    8.0657   -1.4350   23.0703 C   0  0  0  0  0  0  0  0  0  0  0  0
    8.6134   -2.6257   22.6184 C   0  0  0  0  0  0  0  0  0  0  0  0
    8.4667   -2.9287   21.5893 H   0  0  0  0  0  0  0  0  0  0  0  0
    9.3198   -3.4950   23.3773 N   0  0  0  0  0  0  0  0  0  0  0  0
    9.5190   -3.1757   24.6411 C   0  0  0  0  0  0  0  0  0  0  0  0
   10.0875   -3.8741   25.2559 H   0  0  0  0  0  0  0  0  0  0  0  0
    9.0409   -1.9828   25.2519 C   0  0  0  0  0  0  0  0  0  0  0  0
    9.2803   -1.6813   26.6299 C   0  0  0  0  0  0  0  0  0  0  0  0
    9.8328   -2.3888   27.2467 H   0  0  0  0  0  0  0  0  0  0  0  0
    8.8308   -0.5014   27.1679 C   0  0  0  0  0  0  0  0  0  0  0  0
    9.0251   -0.2620   28.2123 H   0  0  0  0  0  0  0  0  0  0  0  0
    8.1156    0.4219   26.3602 C   0  0  0  0  0  0  0  0  0  0  0  0
    7.7670    1.3531   26.7937 H   0  0  0  0  0  0  0  0  0  0  0  0
    7.8598    0.1477   25.0316 C   0  0  0  0  0  0  0  0  0  0  0  0
    7.3307    0.8734   24.4246 H   0  0  0  0  0  0  0  0  0  0  0  0
    8.3014   -1.0678   24.4400 C   0  0  0  0  0  0  0  0  0  0  0  0
  1  2  1  0
  2  3  2  3
  3  4  1  0
  4  5  2  0
  5  6  1  0
  5  7  1  0
  7  8  2  0
  8  9  1  0
  8 10  1  0
 10 11  1  0
 10 12  2  0
 12 13  1  0
  2 14  1  0
 14 15  2  0
 15 16  1  0
 15 17  1  0
 17 18  2  0
 18 19  1  0
 18 20  1  0
 20 21  2  0
 21 22  1  0
 21 23  1  0
 23 24  1  0
 23 25  2  0
 25 26  1  0
 25 27  1  0
 27 28  1  0
 27 29  2  0
 12  4  1  0
 29 14  1  0
 29 20  1  0
M  END
>  <plip>  (1) 
-0.034482758620689655

>  <filename>  (1) 
[H][C](=[N][c]1[c]([H])[n][c]([H])[c]([H])[c]1[H])[c]1[c]([H])[n][c]([H])[c]2[c]([H])[c]([H])[c]([H])[c]([H])[c]12

$$$$
