
     RDKit          3D

 54 57  0  0  0  0  0  0  0  0999 V2000
    8.7832    1.1644   22.0961 C   0  0  0  0  0  0  0  0  0  0  0  0
    8.6466   -0.1339   21.3934 N   0  0  0  0  0  4  0  0  0  0  0  0
    9.4712   -1.2562   21.9741 C   0  0  0  0  0  0  0  0  0  0  0  0
    8.6407   -2.5335   21.7741 C   0  0  0  0  0  0  0  0  0  0  0  0
    7.4169   -2.1001   20.9543 C   0  0  1  0  0  0  0  0  0  0  0  0
    6.1843   -3.0079   20.9915 C   0  0  0  0  0  0  0  0  0  0  0  0
    5.4933   -3.0157   22.2728 N   0  0  0  0  0  0  0  0  0  0  0  0
    5.8843   -3.8304   23.3097 C   0  0  0  0  0  0  0  0  0  0  0  0
    6.5496   -4.8271   23.0932 O   0  0  0  0  0  0  0  0  0  0  0  0
    5.4931   -3.4029   24.7278 C   0  0  1  0  0  0  0  0  0  0  0  0
    5.9995   -4.3476   25.8021 C   0  0  0  0  0  0  0  0  0  0  0  0
    5.6899   -4.0062   26.7963 H   0  0  0  0  0  0  0  0  0  0  0  0
    7.0931   -4.4155   25.7710 H   0  0  0  0  0  0  0  0  0  0  0  0
    5.5910   -5.3503   25.6320 H   0  0  0  0  0  0  0  0  0  0  0  0
    5.4332   -1.9263   25.0880 C   0  0  0  0  0  0  0  0  0  0  0  0
    4.1525   -2.7019   24.9592 C   0  0  2  0  0  0  0  0  0  0  0  0
    3.3012   -2.9138   26.1817 C   0  0  0  0  0  0  0  0  0  0  0  0
    2.7144   -4.1699   26.4015 C   0  0  0  0  0  0  0  0  0  0  0  0
    1.9187   -4.4034   27.5288 C   0  0  0  0  0  0  0  0  0  0  0  0
    1.6835   -3.3697   28.4423 C   0  0  0  0  0  0  0  0  0  0  0  0
    2.2252   -2.0987   28.2152 C   0  0  0  0  0  0  0  0  0  0  0  0
    3.0270   -1.8748   27.0904 C   0  0  0  0  0  0  0  0  0  0  0  0
    3.4530   -0.8888   26.9174 H   0  0  0  0  0  0  0  0  0  0  0  0
    2.0236   -1.2870   28.9125 H   0  0  0  0  0  0  0  0  0  0  0  0
    1.0583   -3.5453   29.3140 H   0  0  0  0  0  0  0  0  0  0  0  0
    1.4837   -5.3872   27.6917 H   0  0  0  0  0  0  0  0  0  0  0  0
    2.9173   -4.9735   25.6970 H   0  0  0  0  0  0  0  0  0  0  0  0
    3.5350   -2.6453   24.0628 H   0  0  0  0  0  0  0  0  0  0  0  0
    5.7007   -1.1503   24.3764 H   0  0  0  0  0  0  0  0  0  0  0  0
    5.7349   -1.6908   26.1075 H   0  0  0  0  0  0  0  0  0  0  0  0
    5.1126   -2.1346   22.5617 H   0  0  0  0  0  0  0  0  0  0  0  0
    5.4781   -2.6844   20.2165 H   0  0  0  0  0  0  0  0  0  0  0  0
    6.4828   -4.0387   20.7568 H   0  0  0  0  0  0  0  0  0  0  0  0
    7.2024   -0.6076   21.2398 C   0  0  2  0  0  0  0  0  0  0  0  0
    6.5277    0.1227   20.0904 C   0  0  0  0  0  0  0  0  0  0  0  0
    5.2924    0.7781   20.2072 C   0  0  0  0  0  0  0  0  0  0  0  0
    4.7408    1.3856   19.0732 C   0  0  0  0  0  0  0  0  0  0  0  0
    5.4383    1.3318   17.8641 C   0  0  0  0  0  0  0  0  0  0  0  0
    6.6196    0.7103   17.7302 N   0  0  0  0  0  0  0  0  0  0  0  0
    7.1374    0.1337   18.8189 C   0  0  0  0  0  0  0  0  0  0  0  0
    8.0911   -0.3730   18.6513 H   0  0  0  0  0  0  0  0  0  0  0  0
    5.0272    1.7932   16.9660 H   0  0  0  0  0  0  0  0  0  0  0  0
    3.7900    1.9043   19.1147 H   0  0  0  0  0  0  0  0  0  0  0  0
    4.7643    0.8180   21.1625 H   0  0  0  0  0  0  0  0  0  0  0  0
    6.6810   -0.4164   22.1894 H   0  0  0  0  0  0  0  0  0  0  0  0
    7.7381   -2.0488   19.9162 H   0  0  0  0  0  0  0  0  0  0  0  0
    8.3775   -2.9777   22.7369 H   0  0  0  0  0  0  0  0  0  0  0  0
    9.2088   -3.2950   21.2366 H   0  0  0  0  0  0  0  0  0  0  0  0
   10.4367   -1.3060   21.4582 H   0  0  0  0  0  0  0  0  0  0  0  0
    9.6659   -1.0708   23.0341 H   0  0  0  0  0  0  0  0  0  0  0  0
    8.9704   -0.0071   20.4161 H   0  0  0  0  0  0  0  0  0  0  0  0
    8.3737    1.0885   23.1153 H   0  0  0  0  0  0  0  0  0  0  0  0
    8.2196    1.9436   21.5695 H   0  0  0  0  0  0  0  0  0  0  0  0
    9.8358    1.4644   22.1803 H   0  0  0  0  0  0  0  0  0  0  0  0
  1  2  1  0
  2  3  1  0
  3  4  1  0
  4  5  1  0
  5  6  1  0
  6  7  1  0
  7  8  1  0
  8  9  2  0
  8 10  1  0
 10 11  1  1
 11 12  1  0
 11 13  1  0
 11 14  1  0
 10 15  1  0
 15 16  1  0
 16 17  1  0
 17 18  2  0
 18 19  1  0
 19 20  2  0
 20 21  1  0
 21 22  2  0
 22 23  1  0
 21 24  1  0
 20 25  1  0
 19 26  1  0
 18 27  1  0
 16 28  1  6
 15 29  1  0
 15 30  1  0
  7 31  1  0
  6 32  1  0
  6 33  1  0
  5 34  1  0
 34 35  1  0
 35 36  2  0
 36 37  1  0
 37 38  2  0
 38 39  1  0
 39 40  2  0
 40 41  1  0
 38 42  1  0
 37 43  1  0
 36 44  1  0
 34 45  1  1
  5 46  1  6
  4 47  1  0
  4 48  1  0
  3 49  1  0
  3 50  1  0
  2 51  1  0
  1 52  1  0
  1 53  1  0
  1 54  1  0
 34  2  1  0
 40 35  1  0
 16 10  1  0
 22 17  1  0
M  CHG  1   2   1
M  END
>  <plip>  (1) 
-0.13333333333333333

>  <filename>  (1) 
[H][c]1[n][c]([H])[c]([C@@]2([H])[C@]([H])([C]([H])([H])[N]([H])[C](=[O])[C@@]3([C]([H])([H])[H])[C]([H])([H])[C@]3([H])[c]3[c]([H])[c]([H])[c]([H])[c]([H])[c]3[H])[C]([H])([H])[C]([H])([H])[N+]2([H])[C]([H])([H])[H])[c]([H])[c]1[H]

$$$$
