
     RDKit          3D

 31 33  0  0  0  0  0  0  0  0999 V2000
   12.5664    3.6708   21.6303 Cl  0  0  0  0  0  0  0  0  0  0  0  0
   11.6916    2.2277   22.0918 C   0  0  0  0  0  0  0  0  0  0  0  0
   10.3546    2.3037   22.4921 C   0  0  0  0  0  0  0  0  0  0  0  0
    9.6422    1.2143   22.8504 N   0  0  0  0  0  0  0  0  0  0  0  0
   10.2153   -0.0082   22.7920 C   0  0  0  0  0  0  0  0  0  0  0  0
    9.4137   -1.2001   23.3109 C   0  0  0  0  0  0  0  0  0  0  0  0
    8.7014   -2.0505   22.3093 N   0  0  0  0  0  0  0  0  0  0  0  0
    8.7803   -3.4260   22.2096 C   0  0  0  0  0  0  0  0  0  0  0  0
    7.9411   -3.8729   21.3095 N   0  0  0  0  0  0  0  0  0  0  0  0
    7.2781   -2.7821   20.7942 N   0  0  0  0  0  0  0  0  0  0  0  0
    7.7386   -1.7061   21.3765 C   0  0  0  0  0  0  0  0  0  0  0  0
    7.2985   -0.4055   21.1716 N   0  0  0  0  0  0  0  0  0  0  0  0
    6.6473    0.0736   20.0118 C   0  0  0  0  0  0  0  0  0  0  0  0
    5.4420    0.7483   20.1900 C   0  0  0  0  0  0  0  0  0  0  0  0
    4.8206    1.3222   19.0738 C   0  0  0  0  0  0  0  0  0  0  0  0
    5.4127    1.2082   17.8079 C   0  0  0  0  0  0  0  0  0  0  0  0
    6.5661    0.5432   17.6056 N   0  0  0  0  0  0  0  0  0  0  0  0
    7.1662   -0.0073   18.6887 C   0  0  0  0  0  0  0  0  0  0  0  0
    8.1150   -0.5111   18.5350 H   0  0  0  0  0  0  0  0  0  0  0  0
    4.9316    1.6889   16.9615 H   0  0  0  0  0  0  0  0  0  0  0  0
    3.8938    1.8773   19.1767 H   0  0  0  0  0  0  0  0  0  0  0  0
    5.0080    0.8193   21.1846 H   0  0  0  0  0  0  0  0  0  0  0  0
    7.1214    0.0943   22.0363 H   0  0  0  0  0  0  0  0  0  0  0  0
    9.4367   -4.0590   22.8033 H   0  0  0  0  0  0  0  0  0  0  0  0
    8.6724   -0.8221   24.0217 H   0  0  0  0  0  0  0  0  0  0  0  0
   10.1112   -1.8271   23.8814 H   0  0  0  0  0  0  0  0  0  0  0  0
   11.5526   -0.1545   22.3630 C   0  0  0  0  0  0  0  0  0  0  0  0
   12.3620   -1.8717   22.1455 Br  0  0  0  0  0  0  0  0  0  0  0  0
   12.3073    0.9812   22.0600 C   0  0  0  0  0  0  0  0  0  0  0  0
   13.3626    0.9016   21.8081 H   0  0  0  0  0  0  0  0  0  0  0  0
    9.9027    3.2909   22.5527 H   0  0  0  0  0  0  0  0  0  0  0  0
  1  2  1  0
  2  3  2  0
  3  4  1  0
  4  5  2  0
  5  6  1  0
  6  7  1  0
  7  8  1  0
  8  9  2  0
  9 10  1  0
 10 11  2  0
 11 12  1  0
 12 13  1  0
 13 14  2  0
 14 15  1  0
 15 16  2  0
 16 17  1  0
 17 18  2  0
 18 19  1  0
 16 20  1  0
 15 21  1  0
 14 22  1  0
 12 23  1  0
  8 24  1  0
  6 25  1  0
  6 26  1  0
  5 27  1  0
 27 28  1  0
 27 29  2  0
 29 30  1  0
  3 31  1  0
 29  2  1  0
 11  7  1  0
 18 13  1  0
M  END
>  <plip>  (1) 
-0.13793103448275862

>  <filename>  (1) 
[H][c]1[n][c]([H])[c]([N]([H])[c]2[n][n][c]([H])[n]2[C]([H])([H])[c]2[n][c]([H])[c]([Cl])[c]([H])[c]2[Br])[c]([H])[c]1[H]

$$$$
