
     RDKit          3D

 36 37  0  0  0  0  0  0  0  0999 V2000
    9.0345   -2.4337   21.0757 C   0  0  0  0  0  0  0  0  0  0  0  0
    7.5730   -2.0308   20.8624 C   0  0  0  0  0  0  0  0  0  0  0  0
    6.6260   -2.8790   21.7232 C   0  0  0  0  0  0  0  0  0  0  0  0
    6.8403   -2.7834   22.7928 H   0  0  0  0  0  0  0  0  0  0  0  0
    6.7411   -3.9324   21.4312 H   0  0  0  0  0  0  0  0  0  0  0  0
    5.5871   -2.6001   21.5245 H   0  0  0  0  0  0  0  0  0  0  0  0
    7.3924   -0.5679   20.9853 N   0  0  0  0  0  0  0  0  0  0  0  0
    7.7171    0.0522   22.1956 C   0  0  0  0  0  0  0  0  0  0  0  0
    7.9317   -0.5647   23.2293 O   0  0  0  0  0  0  0  0  0  0  0  0
    7.8140    1.4193   22.1269 N   0  0  0  0  0  0  0  0  0  0  0  0
    8.1410    2.2078   23.2938 C   0  0  1  0  0  0  0  0  0  0  0  0
    9.5790    1.9782   23.8436 C   0  0  0  0  0  0  0  0  0  0  0  0
   10.0797    3.2522   24.2450 O   0  0  0  0  0  0  0  0  0  0  0  0
    9.3102    4.2628   23.7727 C   0  0  0  0  0  0  0  0  0  0  0  0
    9.5814    5.4144   23.9631 O   0  0  0  0  0  0  0  0  0  0  0  0
    8.1015    3.7094   23.0409 C   0  0  0  0  0  0  0  0  0  0  0  0
    7.2094    4.1909   23.4467 H   0  0  0  0  0  0  0  0  0  0  0  0
    8.1718    3.9990   21.9848 H   0  0  0  0  0  0  0  0  0  0  0  0
   10.2375    1.5546   23.0725 H   0  0  0  0  0  0  0  0  0  0  0  0
    9.5698    1.3202   24.7162 H   0  0  0  0  0  0  0  0  0  0  0  0
    7.4348    1.9154   24.0875 H   0  0  0  0  0  0  0  0  0  0  0  0
    7.7762    1.8071   21.1982 H   0  0  0  0  0  0  0  0  0  0  0  0
    6.6816    0.0745   19.9121 C   0  0  0  0  0  0  0  0  0  0  0  0
    5.4423    0.6747   20.1489 C   0  0  0  0  0  0  0  0  0  0  0  0
    4.7949    1.3119   19.0857 C   0  0  0  0  0  0  0  0  0  0  0  0
    5.3852    1.3009   17.8181 C   0  0  0  0  0  0  0  0  0  0  0  0
    6.5491    0.6830   17.5599 N   0  0  0  0  0  0  0  0  0  0  0  0
    7.1661    0.0784   18.5815 C   0  0  0  0  0  0  0  0  0  0  0  0
    8.1106   -0.4124   18.3468 H   0  0  0  0  0  0  0  0  0  0  0  0
    4.9154    1.8041   16.9758 H   0  0  0  0  0  0  0  0  0  0  0  0
    3.8644    1.8416   19.2383 H   0  0  0  0  0  0  0  0  0  0  0  0
    5.0279    0.6414   21.1572 H   0  0  0  0  0  0  0  0  0  0  0  0
    7.2634   -2.2234   19.8300 H   0  0  0  0  0  0  0  0  0  0  0  0
    9.7053   -1.8365   20.4510 H   0  0  0  0  0  0  0  0  0  0  0  0
    9.1564   -3.4840   20.8037 H   0  0  0  0  0  0  0  0  0  0  0  0
    9.3261   -2.3048   22.1227 H   0  0  0  0  0  0  0  0  0  0  0  0
  1  2  1  0
  2  3  1  0
  3  4  1  0
  3  5  1  0
  3  6  1  0
  2  7  1  0
  7  8  1  0
  8  9  2  0
  8 10  1  0
 10 11  1  0
 11 12  1  0
 12 13  1  0
 13 14  1  0
 14 15  2  0
 14 16  1  0
 16 17  1  0
 16 18  1  0
 12 19  1  0
 12 20  1  0
 11 21  1  1
 10 22  1  0
  7 23  1  0
 23 24  2  0
 24 25  1  0
 25 26  2  0
 26 27  1  0
 27 28  2  0
 28 29  1  0
 26 30  1  0
 25 31  1  0
 24 32  1  0
  2 33  1  0
  1 34  1  0
  1 35  1  0
  1 36  1  0
 16 11  1  0
 28 23  1  0
M  END
>  <plip>  (1) 
-0.0

>  <filename>  (1) 
[H][c]1[n][c]([H])[c]([N]([C](=[O])[N]([H])[C@@]2([H])[C]([H])([H])[O][C](=[O])[C]2([H])[H])[C]([H])([C]([H])([H])[H])[C]([H])([H])[H])[c]([H])[c]1[H]

$$$$
