
     RDKit          3D

 26 27  0  0  0  0  0  0  0  0999 V2000
    4.9335    1.8059   17.0032 H   0  0  0  0  0  0  0  0  0  0  0  0
    5.4059    1.2905   17.8353 C   0  0  0  0  0  0  0  0  0  0  0  0
    6.5655    0.6717   17.5688 N   0  0  0  0  0  0  0  0  0  0  0  0
    7.1835    0.0458   18.5831 C   0  0  0  0  0  0  0  0  0  0  0  0
    8.1323   -0.4215   18.3252 H   0  0  0  0  0  0  0  0  0  0  0  0
    6.6802   -0.0156   19.9187 C   0  0  0  0  0  0  0  0  0  0  0  0
    7.3031   -0.6566   20.9777 N   0  0  0  0  0  0  0  0  0  0  0  0
    6.8283   -0.6786   21.8712 H   0  0  0  0  0  0  0  0  0  0  0  0
    8.6459   -1.1820   20.9623 C   0  0  2  0  0  0  0  0  0  0  0  0
    8.7765   -1.7569   20.0322 H   0  0  0  0  0  0  0  0  0  0  0  0
    8.7647   -2.1623   22.0963 C   0  0  0  0  0  0  0  0  0  0  0  0
    8.8980   -1.6833   23.7552 S   0  0  0  0  0  0  0  0  0  0  0  0
    9.1137   -3.3259   24.2512 C   0  0  0  0  0  0  0  0  0  0  0  0
    9.3239   -3.7253   25.9125 Cl  0  0  0  0  0  0  0  0  0  0  0  0
    9.0405   -4.1926   23.2067 C   0  0  0  0  0  0  0  0  0  0  0  0
    9.1945   -5.2552   23.3391 H   0  0  0  0  0  0  0  0  0  0  0  0
    8.7989   -3.5152   21.9719 C   0  0  0  0  0  0  0  0  0  0  0  0
    8.6477   -3.9817   21.0027 H   0  0  0  0  0  0  0  0  0  0  0  0
    9.7239   -0.0929   20.9433 C   0  0  0  0  0  0  0  0  0  0  0  0
    9.6791    0.5505   21.8279 H   0  0  0  0  0  0  0  0  0  0  0  0
    9.5708    0.5247   20.0554 H   0  0  0  0  0  0  0  0  0  0  0  0
   10.7120   -0.5597   20.8852 H   0  0  0  0  0  0  0  0  0  0  0  0
    5.4558    0.6315   20.1560 C   0  0  0  0  0  0  0  0  0  0  0  0
    5.0391    0.6145   21.1629 H   0  0  0  0  0  0  0  0  0  0  0  0
    4.8174    1.2941   19.1067 C   0  0  0  0  0  0  0  0  0  0  0  0
    3.8826    1.8249   19.2651 H   0  0  0  0  0  0  0  0  0  0  0  0
  1  2  1  0
  2  3  2  0
  3  4  1  0
  4  5  1  0
  4  6  2  0
  6  7  1  0
  7  8  1  0
  7  9  1  0
  9 10  1  6
  9 11  1  0
 11 12  1  0
 12 13  1  0
 13 14  1  0
 13 15  2  0
 15 16  1  0
 15 17  1  0
 17 18  1  0
  9 19  1  0
 19 20  1  0
 19 21  1  0
 19 22  1  0
  6 23  1  0
 23 24  1  0
 23 25  2  0
 25 26  1  0
 25  2  1  0
 17 11  2  0
M  END
>  <plip>  (1) 
-0.03571428571428571

>  <filename>  (1) 
[H][c]1[n][c]([H])[c]([N]([H])[C@]([H])([c]2[s][c]([Cl])[c]([H])[c]2[H])[C]([H])([H])[H])[c]([H])[c]1[H]

$$$$
