
     RDKit          3D

 34 36  0  0  0  0  0  0  0  0999 V2000
   10.1123   -1.0966   22.9581 H   0  0  0  0  0  0  0  0  0  0  0  0
    9.1694   -1.2019   22.4257 C   0  0  0  0  0  0  0  0  0  0  0  0
    8.0612   -1.8408   22.8494 C   0  0  0  0  0  0  0  0  0  0  0  0
    7.8742   -2.6612   24.0648 C   0  0  0  0  0  0  0  0  0  0  0  0
    8.8368   -3.0195   24.7228 O   0  0  0  0  0  0  0  0  0  0  0  0
    6.5866   -2.9653   24.3877 N   0  0  0  0  0  0  0  0  0  0  0  0
    5.8865   -2.6712   23.7202 H   0  0  0  0  0  0  0  0  0  0  0  0
    6.1972   -3.7352   25.5114 C   0  0  0  0  0  0  0  0  0  0  0  0
    6.7112   -5.0202   25.7133 C   0  0  0  0  0  0  0  0  0  0  0  0
    7.4319   -5.4026   25.0002 H   0  0  0  0  0  0  0  0  0  0  0  0
    6.3021   -5.7837   26.8136 C   0  0  0  0  0  0  0  0  0  0  0  0
    6.6820   -6.7813   27.0036 H   0  0  0  0  0  0  0  0  0  0  0  0
    5.3868   -5.2332   27.7063 C   0  0  0  0  0  0  0  0  0  0  0  0
    4.9855   -5.9635   28.7609 F   0  0  0  0  0  0  0  0  0  0  0  0
    4.8654   -3.9552   27.5317 C   0  0  0  0  0  0  0  0  0  0  0  0
    4.1616   -3.5716   28.2628 H   0  0  0  0  0  0  0  0  0  0  0  0
    5.2702   -3.2075   26.4170 C   0  0  0  0  0  0  0  0  0  0  0  0
    4.8848   -2.2074   26.2493 H   0  0  0  0  0  0  0  0  0  0  0  0
    7.0003   -1.6790   21.8614 C   0  0  0  0  0  0  0  0  0  0  0  0
    5.8569   -2.1098   21.9040 O   0  0  0  0  0  0  0  0  0  0  0  0
    7.5461   -0.9427   20.8057 N   0  0  0  0  0  0  0  0  0  0  0  0
    6.7896   -0.2666   19.8065 C   0  0  0  0  0  0  0  0  0  0  0  0
    7.3042   -0.0766   18.5021 C   0  0  0  0  0  0  0  0  0  0  0  0
    8.2485   -0.5507   18.2348 H   0  0  0  0  0  0  0  0  0  0  0  0
    6.6968    0.6525   17.5571 N   0  0  0  0  0  0  0  0  0  0  0  0
    5.5345    1.2450   17.8803 C   0  0  0  0  0  0  0  0  0  0  0  0
    5.0768    1.8578   17.1061 H   0  0  0  0  0  0  0  0  0  0  0  0
    4.9161    1.0877   19.1268 C   0  0  0  0  0  0  0  0  0  0  0  0
    3.9848    1.6070   19.3366 H   0  0  0  0  0  0  0  0  0  0  0  0
    5.5355    0.2936   20.0982 C   0  0  0  0  0  0  0  0  0  0  0  0
    5.0770    0.1142   21.0673 H   0  0  0  0  0  0  0  0  0  0  0  0
    8.9417   -0.5966   21.0758 C   0  0  0  0  0  0  0  0  0  0  0  0
    9.0901    0.4921   21.0920 H   0  0  0  0  0  0  0  0  0  0  0  0
    9.6122   -1.0260   20.3170 H   0  0  0  0  0  0  0  0  0  0  0  0
  1  2  1  0
  2  3  2  0
  3  4  1  0
  4  5  2  0
  4  6  1  0
  6  7  1  0
  6  8  1  0
  8  9  2  0
  9 10  1  0
  9 11  1  0
 11 12  1  0
 11 13  2  0
 13 14  1  0
 13 15  1  0
 15 16  1  0
 15 17  2  0
 17 18  1  0
  3 19  1  0
 19 20  2  0
 19 21  1  0
 21 22  1  0
 22 23  2  0
 23 24  1  0
 23 25  1  0
 25 26  2  0
 26 27  1  0
 26 28  1  0
 28 29  1  0
 28 30  2  0
 30 31  1  0
 21 32  1  0
 32 33  1  0
 32 34  1  0
 32  2  1  0
 17  8  1  0
 30 22  1  0
M  END
>  <plip>  (1) 
-0.10714285714285714

>  <filename>  (1) 
[H][C]1=[C]([C](=[O])[N]([H])[c]2[c]([H])[c]([H])[c]([F])[c]([H])[c]2[H])[C](=[O])[N]([c]2[c]([H])[n][c]([H])[c]([H])[c]2[H])[C]1([H])[H]

$$$$
