
     RDKit          3D

 43 45  0  0  0  0  0  0  0  0999 V2000
    7.1143   -0.5235   27.2519 C   0  0  0  0  0  0  0  0  0  0  0  0
    6.6731   -1.7703   26.4852 C   0  0  2  0  0  0  0  0  0  0  0  0
    6.8042   -1.5318   25.0522 N   0  0  0  0  0  0  0  0  0  0  0  0
    7.8832   -1.9240   24.3246 C   0  0  0  0  0  0  0  0  0  0  0  0
    8.8068   -2.5886   24.7750 O   0  0  0  0  0  0  0  0  0  0  0  0
    7.8645   -1.4995   22.8865 C   0  0  0  0  0  0  0  0  0  0  0  0
    8.8233   -1.8257   21.9960 C   0  0  0  0  0  0  0  0  0  0  0  0
    8.4855   -1.3049   20.7878 O   0  0  0  0  0  0  0  0  0  0  0  0
    7.3103   -0.6649   21.0025 C   0  0  0  0  0  0  0  0  0  0  0  0
    6.6459    0.0129   19.9004 C   0  0  0  0  0  0  0  0  0  0  0  0
    5.4292    0.6627   20.1414 C   0  0  0  0  0  0  0  0  0  0  0  0
    4.8031    1.3124   19.0844 C   0  0  0  0  0  0  0  0  0  0  0  0
    5.4156    1.2859   17.8251 C   0  0  0  0  0  0  0  0  0  0  0  0
    6.5765    0.6592   17.5817 N   0  0  0  0  0  0  0  0  0  0  0  0
    7.1827    0.0435   18.6041 C   0  0  0  0  0  0  0  0  0  0  0  0
    8.1313   -0.4312   18.3597 H   0  0  0  0  0  0  0  0  0  0  0  0
    4.9577    1.7920   16.9758 H   0  0  0  0  0  0  0  0  0  0  0  0
    3.8707    1.8473   19.2216 H   0  0  0  0  0  0  0  0  0  0  0  0
    5.0084    0.6472   21.1489 H   0  0  0  0  0  0  0  0  0  0  0  0
    6.8896   -0.7404   22.2260 N   0  0  0  0  0  0  0  0  0  0  0  0
    9.7415   -2.3859   22.0690 H   0  0  0  0  0  0  0  0  0  0  0  0
    6.1855   -0.8881   24.5771 H   0  0  0  0  0  0  0  0  0  0  0  0
    5.2385   -2.2340   26.8519 C   0  0  0  0  0  0  0  0  0  0  0  0
    5.0828   -2.6091   28.3506 C   0  0  0  0  0  0  0  0  0  0  0  0
    3.6678   -3.0946   28.7171 C   0  0  0  0  0  0  0  0  0  0  0  0
    3.2524   -4.2819   27.8316 C   0  0  0  0  0  0  0  0  0  0  0  0
    3.3701   -3.9226   26.3407 C   0  0  0  0  0  0  0  0  0  0  0  0
    4.7844   -3.4332   25.9840 C   0  0  0  0  0  0  0  0  0  0  0  0
    5.5086   -4.2544   26.1278 H   0  0  0  0  0  0  0  0  0  0  0  0
    4.8406   -3.1612   24.9231 H   0  0  0  0  0  0  0  0  0  0  0  0
    2.6465   -3.1277   26.1006 H   0  0  0  0  0  0  0  0  0  0  0  0
    3.1025   -4.7799   25.7098 H   0  0  0  0  0  0  0  0  0  0  0  0
    3.9090   -5.1408   28.0472 H   0  0  0  0  0  0  0  0  0  0  0  0
    2.2353   -4.6128   28.0773 H   0  0  0  0  0  0  0  0  0  0  0  0
    3.6391   -3.3780   29.7785 H   0  0  0  0  0  0  0  0  0  0  0  0
    2.9449   -2.2713   28.6029 H   0  0  0  0  0  0  0  0  0  0  0  0
    5.7739   -3.4395   28.5673 H   0  0  0  0  0  0  0  0  0  0  0  0
    5.3704   -1.7677   28.9952 H   0  0  0  0  0  0  0  0  0  0  0  0
    4.5669   -1.3804   26.6411 H   0  0  0  0  0  0  0  0  0  0  0  0
    7.3732   -2.5911   26.7025 H   0  0  0  0  0  0  0  0  0  0  0  0
    6.3993    0.3014   27.1451 H   0  0  0  0  0  0  0  0  0  0  0  0
    7.1904   -0.7368   28.3141 H   0  0  0  0  0  0  0  0  0  0  0  0
    8.0920   -0.1859   26.8949 H   0  0  0  0  0  0  0  0  0  0  0  0
  1  2  1  0
  2  3  1  0
  3  4  1  0
  4  5  2  0
  4  6  1  0
  6  7  2  0
  7  8  1  0
  8  9  1  0
  9 10  1  0
 10 11  2  0
 11 12  1  0
 12 13  2  0
 13 14  1  0
 14 15  2  0
 15 16  1  0
 13 17  1  0
 12 18  1  0
 11 19  1  0
  9 20  2  0
  7 21  1  0
  3 22  1  0
  2 23  1  0
 23 24  1  0
 24 25  1  0
 25 26  1  0
 26 27  1  0
 27 28  1  0
 28 29  1  0
 28 30  1  0
 27 31  1  0
 27 32  1  0
 26 33  1  0
 26 34  1  0
 25 35  1  0
 25 36  1  0
 24 37  1  0
 24 38  1  0
 23 39  1  0
  2 40  1  1
  1 41  1  0
  1 42  1  0
  1 43  1  0
 20  6  1  0
 28 23  1  0
 15 10  1  0
M  END
>  <plip>  (1) 
-0.07142857142857142

>  <filename>  (1) 
[H][c]1[n][c]([H])[c](-[c]2[n][c]([C](=[O])[N]([H])[C@@]([H])([C]([H])([H])[H])[C]3([H])[C]([H])([H])[C]([H])([H])[C]([H])([H])[C]([H])([H])[C]3([H])[H])[c]([H])[o]2)[c]([H])[c]1[H]

$$$$
