
     RDKit          3D

 27 29  0  0  0  0  0  0  0  0999 V2000
    9.5525    0.0217   20.3773 O   0  0  0  0  0  0  0  0  0  0  0  0
    8.7921   -0.5887   21.1042 C   0  0  0  0  0  0  0  0  0  0  0  0
    7.4381   -0.6353   20.9092 N   0  0  0  0  0  0  0  0  0  0  0  0
    6.7050   -0.0049   19.8687 C   0  0  0  0  0  0  0  0  0  0  0  0
    5.4754    0.6041   20.1507 C   0  0  0  0  0  0  0  0  0  0  0  0
    4.8166    1.2806   19.1142 C   0  0  0  0  0  0  0  0  0  0  0  0
    5.3890    1.2917   17.8375 C   0  0  0  0  0  0  0  0  0  0  0  0
    6.5444    0.6728   17.5428 N   0  0  0  0  0  0  0  0  0  0  0  0
    7.1856    0.0549   18.5401 C   0  0  0  0  0  0  0  0  0  0  0  0
    8.1409   -0.4159   18.3220 H   0  0  0  0  0  0  0  0  0  0  0  0
    4.9116    1.8142   17.0127 H   0  0  0  0  0  0  0  0  0  0  0  0
    3.8858    1.8148   19.2830 H   0  0  0  0  0  0  0  0  0  0  0  0
    5.0676    0.5942   21.1608 H   0  0  0  0  0  0  0  0  0  0  0  0
    6.9346   -1.1644   21.5962 H   0  0  0  0  0  0  0  0  0  0  0  0
    9.2636   -1.4217   22.2419 C   0  0  0  0  0  0  0  0  0  0  0  0
   10.5697   -1.9186   22.0657 C   0  0  0  0  0  0  0  0  0  0  0  0
   11.1450   -2.8042   22.8679 N   0  0  0  0  0  0  0  0  0  0  0  0
   10.4303   -3.1665   23.9399 C   0  0  0  0  0  0  0  0  0  0  0  0
   10.9759   -4.3213   25.1245 S   0  0  0  0  0  0  0  0  0  0  0  0
    9.6055   -3.9767   26.1465 C   0  0  0  0  0  0  0  0  0  0  0  0
    8.7178   -3.1266   25.5841 C   0  0  0  0  0  0  0  0  0  0  0  0
    9.1583   -2.6508   24.2938 C   0  0  0  0  0  0  0  0  0  0  0  0
    8.5445   -1.7828   23.3796 C   0  0  0  0  0  0  0  0  0  0  0  0
    7.5374   -1.4084   23.5991 H   0  0  0  0  0  0  0  0  0  0  0  0
    7.8056   -2.7876   26.0756 H   0  0  0  0  0  0  0  0  0  0  0  0
    9.5840   -4.4193   27.1400 H   0  0  0  0  0  0  0  0  0  0  0  0
   11.1621   -1.5699   21.2253 H   0  0  0  0  0  0  0  0  0  0  0  0
  1  2  2  0
  2  3  1  0
  3  4  1  0
  4  5  2  0
  5  6  1  0
  6  7  2  0
  7  8  1  0
  8  9  2  0
  9 10  1  0
  7 11  1  0
  6 12  1  0
  5 13  1  0
  3 14  1  0
  2 15  1  0
 15 16  2  0
 16 17  1  0
 17 18  2  0
 18 19  1  0
 19 20  1  0
 20 21  2  0
 21 22  1  0
 22 23  2  0
 23 24  1  0
 21 25  1  0
 20 26  1  0
 16 27  1  0
  9  4  1  0
 23 15  1  0
 22 18  1  0
M  END
>  <plip>  (1) 
-0.07142857142857142

>  <filename>  (1) 
[H][c]1[n][c]([H])[c]([N]([H])[C](=[O])[c]2[c]([H])[n][c]3[s][c]([H])[c]([H])[c]3[c]2[H])[c]([H])[c]1[H]

$$$$
