
     RDKit          3D

 25 27  0  0  0  0  0  0  0  0999 V2000
    8.2587   -3.0376   27.8610 H   0  0  0  0  0  0  0  0  0  0  0  0
    8.2069   -2.7267   26.8248 C   0  0  0  0  0  0  0  0  0  0  0  0
    9.2186   -3.1215   26.0201 N   0  0  0  0  0  0  0  0  0  0  0  0
    9.1390   -2.7388   24.7433 C   0  0  0  0  0  0  0  0  0  0  0  0
    9.9364   -3.0435   24.0784 H   0  0  0  0  0  0  0  0  0  0  0  0
    8.0554   -1.9628   24.2536 C   0  0  0  0  0  0  0  0  0  0  0  0
    7.9750   -1.5590   22.8858 N   0  0  0  0  0  0  0  0  0  0  0  0
    8.9191   -1.8835   21.9595 N   0  0  0  0  0  0  0  0  0  0  0  0
    8.5632   -1.3751   20.8341 N   0  0  0  0  0  0  0  0  0  0  0  0
    7.3770   -0.7012   20.9804 C   0  0  0  0  0  0  0  0  0  0  0  0
    6.6668    0.0049   19.9031 C   0  0  0  0  0  0  0  0  0  0  0  0
    7.1810    0.0579   18.5959 C   0  0  0  0  0  0  0  0  0  0  0  0
    8.1280   -0.4309   18.3738 H   0  0  0  0  0  0  0  0  0  0  0  0
    6.5695    0.6744   17.5811 N   0  0  0  0  0  0  0  0  0  0  0  0
    5.4053    1.2893   17.8415 C   0  0  0  0  0  0  0  0  0  0  0  0
    4.9187    1.7773   17.0007 H   0  0  0  0  0  0  0  0  0  0  0  0
    4.8087    1.3080   19.1077 C   0  0  0  0  0  0  0  0  0  0  0  0
    3.8751    1.8421   19.2610 H   0  0  0  0  0  0  0  0  0  0  0  0
    5.4432    0.6513   20.1561 C   0  0  0  0  0  0  0  0  0  0  0  0
    4.9971    0.6408   21.1533 H   0  0  0  0  0  0  0  0  0  0  0  0
    7.0018   -0.8203   22.2914 C   0  0  0  0  0  0  0  0  0  0  0  0
    6.1450   -0.4451   22.8296 H   0  0  0  0  0  0  0  0  0  0  0  0
    7.0501   -1.5716   25.0564 N   0  0  0  0  0  0  0  0  0  0  0  0
    7.1402   -1.9611   26.3439 C   0  0  0  0  0  0  0  0  0  0  0  0
    6.3408   -1.6580   27.0129 H   0  0  0  0  0  0  0  0  0  0  0  0
  1  2  1  0
  2  3  2  0
  3  4  1  0
  4  5  1  0
  4  6  2  0
  6  7  1  0
  7  8  1  0
  8  9  2  0
  9 10  1  0
 10 11  1  0
 11 12  2  0
 12 13  1  0
 12 14  1  0
 14 15  2  0
 15 16  1  0
 15 17  1  0
 17 18  1  0
 17 19  2  0
 19 20  1  0
 10 21  2  0
 21 22  1  0
  6 23  1  0
 23 24  2  0
 24 25  1  0
 24  2  1  0
 21  7  1  0
 19 11  1  0
M  END
>  <plip>  (1) 
-0.034482758620689655

>  <filename>  (1) 
[H][c]1[n][c]([H])[c](-[n]2[n][n][c](-[c]3[c]([H])[n][c]([H])[c]([H])[c]3[H])[c]2[H])[n][c]1[H]

$$$$
