
     RDKit          3D

 41 43  0  0  0  0  0  0  0  0999 V2000
    8.0141    1.9403   22.2431 O   0  0  0  0  0  0  0  0  0  0  0  0
    8.8844    1.1466   21.9082 C   0  0  0  0  0  0  0  0  0  0  0  0
    8.5128   -0.0821   21.3908 N   0  0  0  0  0  0  0  0  0  0  0  0
    7.1351   -0.5488   21.2851 C   0  0  0  0  0  0  0  0  0  0  0  0
    7.0930   -2.0634   21.0543 C   0  0  0  0  0  0  0  0  0  0  0  0
    7.7187   -2.9342   22.1513 C   0  0  0  0  0  0  0  0  0  0  0  0
    7.5806   -4.3953   21.7215 C   0  0  0  0  0  0  0  0  0  0  0  0
    8.1039   -5.2395   22.7392 O   0  0  0  0  0  0  0  0  0  0  0  0
    7.6810   -5.0371   23.5925 H   0  0  0  0  0  0  0  0  0  0  0  0
    8.1292   -4.5694   20.7905 H   0  0  0  0  0  0  0  0  0  0  0  0
    6.5261   -4.6346   21.5379 H   0  0  0  0  0  0  0  0  0  0  0  0
    7.1900   -2.7833   23.1000 H   0  0  0  0  0  0  0  0  0  0  0  0
    8.7764   -2.6798   22.2959 H   0  0  0  0  0  0  0  0  0  0  0  0
    7.6106   -2.2525   20.1197 H   0  0  0  0  0  0  0  0  0  0  0  0
    6.0505   -2.3781   20.9376 H   0  0  0  0  0  0  0  0  0  0  0  0
    6.5076    0.1269   20.0897 C   0  0  0  0  0  0  0  0  0  0  0  0
    5.2798    0.7908   20.1845 C   0  0  0  0  0  0  0  0  0  0  0  0
    4.7651    1.3776   19.0296 C   0  0  0  0  0  0  0  0  0  0  0  0
    5.4655    1.2863   17.8248 C   0  0  0  0  0  0  0  0  0  0  0  0
    6.6370    0.6320   17.7240 N   0  0  0  0  0  0  0  0  0  0  0  0
    7.1435    0.0720   18.8382 C   0  0  0  0  0  0  0  0  0  0  0  0
    8.0826   -0.4693   18.7604 H   0  0  0  0  0  0  0  0  0  0  0  0
    5.0483    1.7517   16.9374 H   0  0  0  0  0  0  0  0  0  0  0  0
    3.8260    1.9164   19.0521 H   0  0  0  0  0  0  0  0  0  0  0  0
    4.7416    0.8520   21.1282 H   0  0  0  0  0  0  0  0  0  0  0  0
    6.5772   -0.3259   22.2040 H   0  0  0  0  0  0  0  0  0  0  0  0
    9.2417   -0.6066   20.9230 H   0  0  0  0  0  0  0  0  0  0  0  0
   10.3308    1.4566   22.0435 C   0  0  0  0  0  0  0  0  0  0  0  0
   11.3949    0.6158   21.7695 C   0  0  0  0  0  0  0  0  0  0  0  0
   12.5700    1.3336   22.0057 N   0  0  0  0  0  0  0  0  0  0  0  0
   12.3142    2.6162   22.4226 C   0  0  0  0  0  0  0  0  0  0  0  0
   13.1736    3.6043   22.7075 N   0  0  0  0  0  0  0  0  0  0  0  0
   12.6231    4.7610   23.1205 C   0  0  0  0  0  0  0  0  0  0  0  0
   11.2387    4.9466   23.3037 C   0  0  0  0  0  0  0  0  0  0  0  0
   10.5490    6.5911   24.0052 Br  0  0  0  0  0  0  0  0  0  0  0  0
   10.3711    3.9083   22.9554 C   0  0  0  0  0  0  0  0  0  0  0  0
   10.9326    2.7228   22.4983 C   0  0  0  0  0  0  0  0  0  0  0  0
    9.2936    4.0168   23.0272 H   0  0  0  0  0  0  0  0  0  0  0  0
   13.2844    5.5946   23.3273 H   0  0  0  0  0  0  0  0  0  0  0  0
   13.5140    0.9927   21.8600 H   0  0  0  0  0  0  0  0  0  0  0  0
   11.3339   -0.4214   21.4283 H   0  0  0  0  0  0  0  0  0  0  0  0
  1  2  2  0
  2  3  1  0
  3  4  1  0
  4  5  1  0
  5  6  1  0
  6  7  1  0
  7  8  1  0
  8  9  1  0
  7 10  1  0
  7 11  1  0
  6 12  1  0
  6 13  1  0
  5 14  1  0
  5 15  1  0
  4 16  1  0
 16 17  2  0
 17 18  1  0
 18 19  2  0
 19 20  1  0
 20 21  2  0
 21 22  1  0
 19 23  1  0
 18 24  1  0
 17 25  1  0
  4 26  1  0
  3 27  1  0
  2 28  1  0
 28 29  2  0
 29 30  1  0
 30 31  1  0
 31 32  2  0
 32 33  1  0
 33 34  2  0
 34 35  1  0
 34 36  1  0
 36 37  2  0
 36 38  1  0
 33 39  1  0
 30 40  1  0
 29 41  1  0
 21 16  1  0
 37 28  1  0
 37 31  1  0
M  END
>  <plip>  (1) 
-0.06451612903225806

>  <filename>  (1) 
[H][O][C]([H])([H])[C]([H])([H])[C]([H])([H])[C]([H])([c]1[c]([H])[n][c]([H])[c]([H])[c]1[H])[N]([H])[C](=[O])[c]1[c]([H])[n]([H])[c]2[n][c]([H])[c]([Br])[c]([H])[c]12

$$$$
