
     RDKit          3D

 29 31  0  0  0  0  0  0  0  0999 V2000
   11.2884   -2.0992   22.6644 H   0  0  0  0  0  0  0  0  0  0  0  0
   10.8218   -1.1485   22.3989 C   0  0  0  0  0  0  0  0  0  0  0  0
   11.5368   -0.0137   22.3877 C   0  0  0  0  0  0  0  0  0  0  0  0
   10.9144    1.6353   22.2057 S   0  0  0  0  0  0  0  0  0  0  0  0
   12.5256    2.3409   22.3231 C   0  0  0  0  0  0  0  0  0  0  0  0
   12.9237    3.9068   22.1086 S   0  0  0  0  0  0  0  0  0  0  0  0
   13.4173    1.3571   22.6208 N   0  0  0  0  0  0  0  0  0  0  0  0
   14.4074    1.5293   22.6672 H   0  0  0  0  0  0  0  0  0  0  0  0
   13.0275    0.0391   22.5829 C   0  0  0  0  0  0  0  0  0  0  0  0
   13.8181   -0.8684   22.6691 O   0  0  0  0  0  0  0  0  0  0  0  0
    9.3592   -1.2753   22.1652 C   0  0  0  0  0  0  0  0  0  0  0  0
    8.7298   -2.0964   22.9657 N   0  0  0  0  0  0  0  0  0  0  0  0
    7.3609   -2.1977   22.8321 C   0  0  0  0  0  0  0  0  0  0  0  0
    6.6264   -2.8843   23.5075 O   0  0  0  0  0  0  0  0  0  0  0  0
    6.7498   -1.4588   21.8273 N   0  0  0  0  0  0  0  0  0  0  0  0
    5.7683   -1.6521   21.8075 H   0  0  0  0  0  0  0  0  0  0  0  0
    7.4009   -0.6776   20.9453 C   0  0  0  0  0  0  0  0  0  0  0  0
    6.6291    0.0031   19.9095 C   0  0  0  0  0  0  0  0  0  0  0  0
    7.1576    0.0571   18.6119 C   0  0  0  0  0  0  0  0  0  0  0  0
    8.1103   -0.4301   18.3966 H   0  0  0  0  0  0  0  0  0  0  0  0
    6.5612    0.6697   17.5833 N   0  0  0  0  0  0  0  0  0  0  0  0
    5.3983    1.2932   17.8324 C   0  0  0  0  0  0  0  0  0  0  0  0
    4.9361    1.7909   16.9819 H   0  0  0  0  0  0  0  0  0  0  0  0
    4.7901    1.3149   19.0949 C   0  0  0  0  0  0  0  0  0  0  0  0
    3.8620    1.8567   19.2349 H   0  0  0  0  0  0  0  0  0  0  0  0
    5.4061    0.6495   20.1517 C   0  0  0  0  0  0  0  0  0  0  0  0
    4.9813    0.6568   21.1577 H   0  0  0  0  0  0  0  0  0  0  0  0
    8.7459   -0.5543   21.0960 C   0  0  0  0  0  0  0  0  0  0  0  0
    9.3182    0.0869   20.4476 H   0  0  0  0  0  0  0  0  0  0  0  0
  1  2  1  0
  2  3  2  3
  3  4  1  0
  4  5  1  0
  5  6  2  0
  5  7  1  0
  7  8  1  0
  7  9  1  0
  9 10  2  0
  2 11  1  0
 11 12  2  0
 12 13  1  0
 13 14  2  0
 13 15  1  0
 15 16  1  0
 15 17  1  0
 17 18  1  0
 18 19  2  0
 19 20  1  0
 19 21  1  0
 21 22  2  0
 22 23  1  0
 22 24  1  0
 24 25  1  0
 24 26  2  0
 26 27  1  0
 17 28  2  0
 28 29  1  0
  9  3  1  0
 28 11  1  0
 26 18  1  0
M  END
>  <plip>  (1) 
-0.034482758620689655

>  <filename>  (1) 
[H][C](=[C]1[S][C](=[S])[N]([H])[C]1=[O])[c]1[n][c](=[O])[n]([H])[c](-[c]2[c]([H])[n][c]([H])[c]([H])[c]2[H])[c]1[H]

$$$$
