
     RDKit          3D

 45 47  0  0  0  0  0  0  0  0999 V2000
    9.3305    1.8909   22.9698 C   0  0  0  0  0  0  0  0  0  0  0  0
    8.8575    0.9546   21.9936 O   0  0  0  0  0  0  0  0  0  0  0  0
    7.6980    0.3183   22.2324 C   0  0  0  0  0  0  0  0  0  0  0  0
    6.9833    0.5045   23.1861 O   0  0  0  0  0  0  0  0  0  0  0  0
    7.4462   -0.6885   21.0509 C   0  0  0  0  0  0  0  0  0  0  0  0
    6.7515   -1.9285   21.4153 N   0  0  0  0  0  0  0  0  0  0  0  0
    7.2855   -2.9010   22.2116 C   0  0  0  0  0  0  0  0  0  0  0  0
    8.4669   -2.9524   22.5076 O   0  0  0  0  0  0  0  0  0  0  0  0
    6.2961   -3.9251   22.6912 C   0  0  0  0  0  0  0  0  0  0  0  0
    4.9384   -4.1653   22.5520 C   0  0  0  0  0  0  0  0  0  0  0  0
    4.6792   -5.3621   23.2676 C   0  0  0  0  0  0  0  0  0  0  0  0
    3.3648   -6.0654   23.3862 C   0  0  0  0  0  0  0  0  0  0  0  0
    3.2176   -7.2813   24.0941 C   0  0  0  0  0  0  0  0  0  0  0  0
    1.9668   -7.9119   24.1628 C   0  0  0  0  0  0  0  0  0  0  0  0
    1.7205   -9.1064   24.7740 O   0  0  0  0  0  0  0  0  0  0  0  0
    2.5733   -9.5279   25.8098 C   0  0  0  0  0  0  0  0  0  0  0  0
    2.8524   -8.6871   26.4624 H   0  0  0  0  0  0  0  0  0  0  0  0
    2.0158  -10.2720   26.3832 H   0  0  0  0  0  0  0  0  0  0  0  0
    3.4934  -10.0104   25.4513 H   0  0  0  0  0  0  0  0  0  0  0  0
    0.8469   -7.3213   23.5634 C   0  0  0  0  0  0  0  0  0  0  0  0
    0.9798   -6.1201   22.8737 C   0  0  0  0  0  0  0  0  0  0  0  0
    2.2283   -5.5050   22.7691 C   0  0  0  0  0  0  0  0  0  0  0  0
    2.2967   -4.5916   22.1865 H   0  0  0  0  0  0  0  0  0  0  0  0
    0.1081   -5.6576   22.4149 H   0  0  0  0  0  0  0  0  0  0  0  0
   -0.1061   -7.8232   23.6827 H   0  0  0  0  0  0  0  0  0  0  0  0
    4.0730   -7.7205   24.6001 H   0  0  0  0  0  0  0  0  0  0  0  0
    5.8122   -5.8051   23.8290 N   0  0  0  0  0  0  0  0  0  0  0  0
    6.7490   -4.9348   23.4741 N   0  0  0  0  0  0  0  0  0  0  0  0
    7.7017   -5.0246   23.8124 H   0  0  0  0  0  0  0  0  0  0  0  0
    4.1881   -3.5698   22.0511 H   0  0  0  0  0  0  0  0  0  0  0  0
    5.7477   -1.9272   21.3571 H   0  0  0  0  0  0  0  0  0  0  0  0
    6.6661   -0.0087   19.9273 C   0  0  0  0  0  0  0  0  0  0  0  0
    5.4540    0.6547   20.1651 C   0  0  0  0  0  0  0  0  0  0  0  0
    4.8176    1.2928   19.0970 C   0  0  0  0  0  0  0  0  0  0  0  0
    5.4166    1.2571   17.8322 C   0  0  0  0  0  0  0  0  0  0  0  0
    6.5617    0.6067   17.5767 N   0  0  0  0  0  0  0  0  0  0  0  0
    7.1562   -0.0070   18.6093 C   0  0  0  0  0  0  0  0  0  0  0  0
    8.0939   -0.5141   18.3830 H   0  0  0  0  0  0  0  0  0  0  0  0
    4.9534    1.7691   16.9888 H   0  0  0  0  0  0  0  0  0  0  0  0
    3.8813    1.8227   19.2304 H   0  0  0  0  0  0  0  0  0  0  0  0
    5.0284    0.6902   21.1726 H   0  0  0  0  0  0  0  0  0  0  0  0
    8.4457   -0.9459   20.6846 H   0  0  0  0  0  0  0  0  0  0  0  0
    9.4862    1.4033   23.9368 H   0  0  0  0  0  0  0  0  0  0  0  0
    8.6321    2.7259   23.0737 H   0  0  0  0  0  0  0  0  0  0  0  0
   10.2834    2.2501   22.5835 H   0  0  0  0  0  0  0  0  0  0  0  0
  1  2  1  0
  2  3  1  0
  3  4  2  0
  3  5  1  0
  5  6  1  0
  6  7  1  0
  7  8  2  0
  7  9  1  0
  9 10  2  0
 10 11  1  0
 11 12  1  0
 12 13  2  0
 13 14  1  0
 14 15  1  0
 15 16  1  0
 16 17  1  0
 16 18  1  0
 16 19  1  0
 14 20  2  0
 20 21  1  0
 21 22  2  0
 22 23  1  0
 21 24  1  0
 20 25  1  0
 13 26  1  0
 11 27  2  0
 27 28  1  0
 28 29  1  0
 10 30  1  0
  6 31  1  0
  5 32  1  0
 32 33  2  0
 33 34  1  0
 34 35  2  0
 35 36  1  0
 36 37  2  0
 37 38  1  0
 35 39  1  0
 34 40  1  0
 33 41  1  0
  5 42  1  0
  1 43  1  0
  1 44  1  0
  1 45  1  0
 28  9  1  0
 37 32  1  0
 22 12  1  0
M  END
>  <plip>  (1) 
-0.1

>  <filename>  (1) 
[H][c]1[n][c]([H])[c]([C]([H])([C](=[O])[O][C]([H])([H])[H])[N]([H])[C](=[O])[c]2[c]([H])[c](-[c]3[c]([H])[c]([H])[c]([H])[c]([O][C]([H])([H])[H])[c]3[H])[n][n]2[H])[c]([H])[c]1[H]

$$$$
