
     RDKit          3D

 45 47  0  0  0  0  0  0  0  0999 V2000
    8.4097   -2.9574   22.4363 O   0  0  0  0  0  0  0  0  0  0  0  0
    7.1970   -2.8352   22.4376 C   0  0  0  0  0  0  0  0  0  0  0  0
    6.2721   -3.7611   23.2209 C   0  0  0  0  0  0  0  0  0  0  0  0
    5.4811   -3.0527   24.2895 C   0  0  0  0  0  0  0  0  0  0  0  0
    4.1358   -3.1111   24.4984 C   0  0  0  0  0  0  0  0  0  0  0  0
    3.7629   -2.1709   25.4387 N   0  0  0  0  0  0  0  0  0  0  0  0
    4.8840   -1.5058   25.8719 C   0  0  0  0  0  0  0  0  0  0  0  0
    5.0167   -0.4489   26.7873 C   0  0  0  0  0  0  0  0  0  0  0  0
    6.2978    0.0030   27.0856 C   0  0  0  0  0  0  0  0  0  0  0  0
    7.4148   -0.5988   26.4644 C   0  0  0  0  0  0  0  0  0  0  0  0
    8.6378   -0.1690   26.8289 F   0  0  0  0  0  0  0  0  0  0  0  0
    7.3010   -1.6146   25.5297 C   0  0  0  0  0  0  0  0  0  0  0  0
    5.9985   -2.0619   25.1999 C   0  0  0  0  0  0  0  0  0  0  0  0
    8.1925   -2.0766   25.1127 H   0  0  0  0  0  0  0  0  0  0  0  0
    6.4720    0.8109   27.7911 H   0  0  0  0  0  0  0  0  0  0  0  0
    4.1332   -0.0194   27.2545 H   0  0  0  0  0  0  0  0  0  0  0  0
    2.8313   -1.9602   25.7480 H   0  0  0  0  0  0  0  0  0  0  0  0
    3.4082   -3.7756   24.0496 H   0  0  0  0  0  0  0  0  0  0  0  0
    6.9166   -4.5338   23.6470 H   0  0  0  0  0  0  0  0  0  0  0  0
    5.5963   -4.2449   22.5079 H   0  0  0  0  0  0  0  0  0  0  0  0
    6.5614   -1.8560   21.7186 N   0  0  0  0  0  0  0  0  0  0  0  0
    7.3327   -0.7727   21.1290 C   0  0  0  0  0  0  0  0  0  0  0  0
    7.7697    0.2193   22.2357 C   0  0  0  0  0  0  0  0  0  0  0  0
    8.6405    1.3826   21.7504 C   0  0  0  0  0  0  0  0  0  0  0  0
    9.9953    0.9355   21.2127 C   0  0  0  0  0  0  0  0  0  0  0  0
   10.7670    2.0313   20.7733 O   0  0  0  0  0  0  0  0  0  0  0  0
   10.7476    2.6997   21.4706 H   0  0  0  0  0  0  0  0  0  0  0  0
    9.8657    0.2817   20.3410 H   0  0  0  0  0  0  0  0  0  0  0  0
   10.5360    0.3491   21.9782 H   0  0  0  0  0  0  0  0  0  0  0  0
    8.1138    1.9563   20.9733 H   0  0  0  0  0  0  0  0  0  0  0  0
    8.8161    2.0693   22.5909 H   0  0  0  0  0  0  0  0  0  0  0  0
    8.3203   -0.3664   22.9845 H   0  0  0  0  0  0  0  0  0  0  0  0
    6.8676    0.6025   22.7348 H   0  0  0  0  0  0  0  0  0  0  0  0
    6.5795   -0.1099   19.9905 C   0  0  0  0  0  0  0  0  0  0  0  0
    5.3735    0.5875   20.1655 C   0  0  0  0  0  0  0  0  0  0  0  0
    4.8142    1.2601   19.0741 C   0  0  0  0  0  0  0  0  0  0  0  0
    5.4784    1.2258   17.8434 C   0  0  0  0  0  0  0  0  0  0  0  0
    6.6154    0.5447   17.6406 N   0  0  0  0  0  0  0  0  0  0  0  0
    7.1338   -0.0984   18.6977 C   0  0  0  0  0  0  0  0  0  0  0  0
    8.0542   -0.6514   18.4984 H   0  0  0  0  0  0  0  0  0  0  0  0
    5.0763    1.7612   16.9840 H   0  0  0  0  0  0  0  0  0  0  0  0
    3.8964    1.8321   19.1721 H   0  0  0  0  0  0  0  0  0  0  0  0
    4.8763    0.6221   21.1379 H   0  0  0  0  0  0  0  0  0  0  0  0
    8.2274   -1.2435   20.7030 H   0  0  0  0  0  0  0  0  0  0  0  0
    5.6707   -1.5852   22.1043 H   0  0  0  0  0  0  0  0  0  0  0  0
  1  2  2  0
  2  3  1  0
  3  4  1  0
  4  5  2  0
  5  6  1  0
  6  7  1  0
  7  8  2  0
  8  9  1  0
  9 10  2  0
 10 11  1  0
 10 12  1  0
 12 13  2  0
 12 14  1  0
  9 15  1  0
  8 16  1  0
  6 17  1  0
  5 18  1  0
  3 19  1  0
  3 20  1  0
  2 21  1  0
 21 22  1  0
 22 23  1  0
 23 24  1  0
 24 25  1  0
 25 26  1  0
 26 27  1  0
 25 28  1  0
 25 29  1  0
 24 30  1  0
 24 31  1  0
 23 32  1  0
 23 33  1  0
 22 34  1  0
 34 35  2  0
 35 36  1  0
 36 37  2  0
 37 38  1  0
 38 39  2  0
 39 40  1  0
 37 41  1  0
 36 42  1  0
 35 43  1  0
 22 44  1  0
 21 45  1  0
 13  4  1  0
 39 34  1  0
 13  7  1  0
M  END
>  <plip>  (1) 
-0.1

>  <filename>  (1) 
[H][O][C]([H])([H])[C]([H])([H])[C]([H])([H])[C]([H])([c]1[c]([H])[n][c]([H])[c]([H])[c]1[H])[N]([H])[C](=[O])[C]([H])([H])[c]1[c]([H])[n]([H])[c]2[c]([H])[c]([H])[c]([F])[c]([H])[c]12

$$$$
