
     RDKit          3D

 36 37  0  0  0  0  0  0  0  0999 V2000
    7.2133   -0.2505   26.3188 C   0  0  0  0  0  0  0  0  0  0  0  0
    6.9493   -1.2198   25.1558 C   0  0  0  0  0  0  0  0  0  0  0  0
    8.2024   -1.7601   24.5480 C   0  0  0  0  0  0  0  0  0  0  0  0
    9.1130   -1.2021   23.7012 C   0  0  0  0  0  0  0  0  0  0  0  0
    9.1710    0.1895   23.1547 C   0  0  0  0  0  0  0  0  0  0  0  0
    8.9272    0.3202   21.3534 S   0  0  0  0  0  0  0  0  0  0  0  0
    7.2838   -0.4758   21.1635 C   0  0  0  0  0  0  0  0  0  0  0  0
    7.4389   -1.9873   20.9906 C   0  0  0  0  0  0  0  0  0  0  0  0
    8.2691   -2.1945   20.3133 H   0  0  0  0  0  0  0  0  0  0  0  0
    6.5163   -2.4342   20.6098 H   0  0  0  0  0  0  0  0  0  0  0  0
    7.6631   -2.4751   21.9366 H   0  0  0  0  0  0  0  0  0  0  0  0
    6.5568    0.1604   20.0002 C   0  0  0  0  0  0  0  0  0  0  0  0
    5.3072    0.7794   20.1340 C   0  0  0  0  0  0  0  0  0  0  0  0
    4.7251    1.3674   19.0094 C   0  0  0  0  0  0  0  0  0  0  0  0
    5.3989    1.3099   17.7869 C   0  0  0  0  0  0  0  0  0  0  0  0
    6.5749    0.6828   17.6303 N   0  0  0  0  0  0  0  0  0  0  0  0
    7.1225    0.1272   18.7190 C   0  0  0  0  0  0  0  0  0  0  0  0
    8.0725   -0.3820   18.5718 H   0  0  0  0  0  0  0  0  0  0  0  0
    4.9828    1.7895   16.8988 H   0  0  0  0  0  0  0  0  0  0  0  0
    3.7743    1.8857   19.0710 H   0  0  0  0  0  0  0  0  0  0  0  0
    4.8032    0.8016   21.1018 H   0  0  0  0  0  0  0  0  0  0  0  0
    6.7248   -0.2726   22.0842 H   0  0  0  0  0  0  0  0  0  0  0  0
    8.4268    0.8264   23.6511 H   0  0  0  0  0  0  0  0  0  0  0  0
   10.1479    0.6550   23.3440 H   0  0  0  0  0  0  0  0  0  0  0  0
   10.0422   -2.2629   23.4800 C   0  0  0  0  0  0  0  0  0  0  0  0
   11.2282   -2.2672   22.5718 C   0  0  0  0  0  0  0  0  0  0  0  0
   10.8931   -2.3284   21.5316 H   0  0  0  0  0  0  0  0  0  0  0  0
   11.8036   -1.3402   22.6650 H   0  0  0  0  0  0  0  0  0  0  0  0
   11.8673   -3.1248   22.7914 H   0  0  0  0  0  0  0  0  0  0  0  0
    9.7312   -3.3274   24.1762 N   0  0  0  0  0  0  0  0  0  0  0  0
    8.5744   -3.0091   24.8575 O   0  0  0  0  0  0  0  0  0  0  0  0
    6.3256   -2.0618   25.4750 H   0  0  0  0  0  0  0  0  0  0  0  0
    6.3925   -0.6924   24.3672 H   0  0  0  0  0  0  0  0  0  0  0  0
    6.2775    0.1919   26.6746 H   0  0  0  0  0  0  0  0  0  0  0  0
    7.6851   -0.7675   27.1613 H   0  0  0  0  0  0  0  0  0  0  0  0
    7.8818    0.5652   26.0148 H   0  0  0  0  0  0  0  0  0  0  0  0
  1  2  1  0
  2  3  1  0
  3  4  2  0
  4  5  1  0
  5  6  1  0
  6  7  1  0
  7  8  1  0
  8  9  1  0
  8 10  1  0
  8 11  1  0
  7 12  1  0
 12 13  2  0
 13 14  1  0
 14 15  2  0
 15 16  1  0
 16 17  2  0
 17 18  1  0
 15 19  1  0
 14 20  1  0
 13 21  1  0
  7 22  1  0
  5 23  1  0
  5 24  1  0
  4 25  1  0
 25 26  1  0
 26 27  1  0
 26 28  1  0
 26 29  1  0
 25 30  2  0
 30 31  1  0
  2 32  1  0
  2 33  1  0
  1 34  1  0
  1 35  1  0
  1 36  1  0
 31  3  1  0
 17 12  1  0
M  END
>  <plip>  (1) 
-0.0

>  <filename>  (1) 
[H][c]1[n][c]([H])[c]([C]([H])([S][C]([H])([H])[c]2[c]([C]([H])([H])[H])[n][o][c]2[C]([H])([H])[C]([H])([H])[H])[C]([H])([H])[H])[c]([H])[c]1[H]

$$$$
