
     RDKit          3D

 29 31  0  0  0  0  0  0  0  0999 V2000
    4.9419    1.8115   16.9625 H   0  0  0  0  0  0  0  0  0  0  0  0
    5.3991    1.3205   17.8173 C   0  0  0  0  0  0  0  0  0  0  0  0
    6.5685    0.7044   17.5886 N   0  0  0  0  0  0  0  0  0  0  0  0
    7.1546    0.0992   18.6284 C   0  0  0  0  0  0  0  0  0  0  0  0
    8.1068   -0.3849   18.4117 H   0  0  0  0  0  0  0  0  0  0  0  0
    6.6267    0.0659   19.9410 C   0  0  0  0  0  0  0  0  0  0  0  0
    7.3170   -0.6863   21.0230 C   0  0  0  0  0  0  0  0  0  0  0  0
    7.7706   -1.9808   21.0749 C   0  0  0  0  0  0  0  0  0  0  0  0
    7.6972   -2.7671   20.3541 H   0  0  0  0  0  0  0  0  0  0  0  0
    8.2885   -2.2428   22.2978 N   0  0  0  0  0  0  0  0  0  0  0  0
    8.1696   -1.2036   23.0399 N   0  0  0  0  0  0  0  0  0  0  0  0
    7.5638   -0.2377   22.3083 N   0  0  0  0  0  0  0  0  0  0  0  0
    7.2609    1.0030   22.9262 C   0  0  0  0  0  0  0  0  0  0  0  0
    6.8327    0.9571   24.1842 N   0  0  0  0  0  0  0  0  0  0  0  0
    6.5038    2.1028   24.7936 C   0  0  0  0  0  0  0  0  0  0  0  0
    5.9832    2.0381   26.2530 C   0  0  0  0  0  0  0  0  0  0  0  0
    6.8081    2.7242   27.0739 F   0  0  0  0  0  0  0  0  0  0  0  0
    5.8636    0.7996   26.7368 F   0  0  0  0  0  0  0  0  0  0  0  0
    4.7743    2.6331   26.3571 F   0  0  0  0  0  0  0  0  0  0  0  0
    6.6402    3.3523   24.1675 C   0  0  0  0  0  0  0  0  0  0  0  0
    6.3785    4.2639   24.6935 H   0  0  0  0  0  0  0  0  0  0  0  0
    7.1231    3.3895   22.8519 C   0  0  0  0  0  0  0  0  0  0  0  0
    7.2506    4.3324   22.3218 H   0  0  0  0  0  0  0  0  0  0  0  0
    7.4370    2.1938   22.2151 C   0  0  0  0  0  0  0  0  0  0  0  0
    7.7898    2.1312   21.1948 H   0  0  0  0  0  0  0  0  0  0  0  0
    5.3834    0.6973   20.1395 C   0  0  0  0  0  0  0  0  0  0  0  0
    4.9172    0.6896   21.1261 H   0  0  0  0  0  0  0  0  0  0  0  0
    4.7678    1.3400   19.0640 C   0  0  0  0  0  0  0  0  0  0  0  0
    3.8171    1.8512   19.1769 H   0  0  0  0  0  0  0  0  0  0  0  0
  1  2  1  0
  2  3  2  0
  3  4  1  0
  4  5  1  0
  4  6  2  0
  6  7  1  0
  7  8  2  0
  8  9  1  0
  8 10  1  0
 10 11  2  0
 11 12  1  0
 12 13  1  0
 13 14  2  0
 14 15  1  0
 15 16  1  0
 16 17  1  0
 16 18  1  0
 16 19  1  0
 15 20  2  0
 20 21  1  0
 20 22  1  0
 22 23  1  0
 22 24  2  0
 24 25  1  0
  6 26  1  0
 26 27  1  0
 26 28  2  0
 28 29  1  0
 28  2  1  0
 12  7  1  0
 24 13  1  0
M  END
>  <plip>  (1) 
-0.03333333333333333

>  <filename>  (1) 
[H][c]1[n][c]([H])[c](-[c]2[c]([H])[n][n][n]2-[c]2[n][c]([C]([F])([F])[F])[c]([H])[c]([H])[c]2[H])[c]([H])[c]1[H]

$$$$
