
     RDKit          3D

 45 47  0  0  0  0  0  0  0  0999 V2000
    9.1618    2.3123   22.0568 C   0  0  0  0  0  0  0  0  0  0  0  0
    8.7317    1.1782   21.3231 O   0  0  0  0  0  0  0  0  0  0  0  0
    7.9347    0.3015   22.0580 C   0  0  0  0  0  0  0  0  0  0  0  0
    8.7302   -0.3611   23.0209 O   0  0  0  0  0  0  0  0  0  0  0  0
    8.2887   -0.3099   24.3630 C   0  0  0  0  0  0  0  0  0  0  0  0
    9.0161   -0.8714   24.9559 H   0  0  0  0  0  0  0  0  0  0  0  0
    8.2376    0.7155   24.7630 H   0  0  0  0  0  0  0  0  0  0  0  0
    7.3046   -0.7827   24.5061 H   0  0  0  0  0  0  0  0  0  0  0  0
    7.3112   -0.7135   21.0505 C   0  0  0  0  0  0  0  0  0  0  0  0
    6.4229   -1.6687   21.7241 N   0  0  0  0  0  0  0  0  0  0  0  0
    6.0171   -2.8245   21.1264 C   0  0  0  0  0  0  0  0  0  0  0  0
    6.2950   -3.1313   19.9862 O   0  0  0  0  0  0  0  0  0  0  0  0
    5.1519   -3.7246   21.9930 C   0  0  0  0  0  0  0  0  0  0  0  0
    5.9952   -4.4358   23.4675 S   0  0  0  0  0  0  0  0  0  0  0  0
    4.6469   -5.4557   24.0348 C   0  0  0  0  0  0  0  0  0  0  0  0
    3.6789   -4.9735   24.7303 N   0  0  0  0  0  0  0  0  0  0  0  0
    2.6907   -5.9241   24.9153 C   0  0  0  0  0  0  0  0  0  0  0  0
    1.5096   -5.6920   25.6325 C   0  0  0  0  0  0  0  0  0  0  0  0
    0.5686   -6.7069   25.7378 C   0  0  0  0  0  0  0  0  0  0  0  0
    0.7924   -7.9512   25.1117 C   0  0  0  0  0  0  0  0  0  0  0  0
    1.9567   -8.1953   24.3856 C   0  0  0  0  0  0  0  0  0  0  0  0
    2.9189   -7.1739   24.3084 C   0  0  0  0  0  0  0  0  0  0  0  0
    4.4727   -7.1297   23.5269 S   0  0  0  0  0  0  0  0  0  0  0  0
    2.1014   -9.1488   23.8854 H   0  0  0  0  0  0  0  0  0  0  0  0
    0.0401   -8.7283   25.2025 H   0  0  0  0  0  0  0  0  0  0  0  0
   -0.3439   -6.5343   26.3024 H   0  0  0  0  0  0  0  0  0  0  0  0
    1.3758   -4.7112   26.0740 H   0  0  0  0  0  0  0  0  0  0  0  0
    4.2810   -3.1452   22.3099 H   0  0  0  0  0  0  0  0  0  0  0  0
    4.8318   -4.5509   21.3621 H   0  0  0  0  0  0  0  0  0  0  0  0
    5.9167   -1.3696   22.5481 H   0  0  0  0  0  0  0  0  0  0  0  0
    6.5726   -0.0443   19.9022 C   0  0  0  0  0  0  0  0  0  0  0  0
    5.3704    0.6379   20.1102 C   0  0  0  0  0  0  0  0  0  0  0  0
    4.7957    1.3210   19.0361 C   0  0  0  0  0  0  0  0  0  0  0  0
    5.4355    1.2921   17.7891 C   0  0  0  0  0  0  0  0  0  0  0  0
    6.5697    0.6207   17.5596 N   0  0  0  0  0  0  0  0  0  0  0  0
    7.1097   -0.0297   18.6069 C   0  0  0  0  0  0  0  0  0  0  0  0
    8.0346   -0.5659   18.3981 H   0  0  0  0  0  0  0  0  0  0  0  0
    5.0081    1.8252   16.9382 H   0  0  0  0  0  0  0  0  0  0  0  0
    3.8725    1.8687   19.1516 H   0  0  0  0  0  0  0  0  0  0  0  0
    4.8832    0.6334   21.0910 H   0  0  0  0  0  0  0  0  0  0  0  0
    8.1905   -1.2408   20.6618 H   0  0  0  0  0  0  0  0  0  0  0  0
    7.1158    0.8571   22.5525 H   0  0  0  0  0  0  0  0  0  0  0  0
    8.3142    2.9313   22.3904 H   0  0  0  0  0  0  0  0  0  0  0  0
    9.7893    2.8993   21.3854 H   0  0  0  0  0  0  0  0  0  0  0  0
    9.7509    2.0323   22.9390 H   0  0  0  0  0  0  0  0  0  0  0  0
  1  2  1  0
  2  3  1  0
  3  4  1  0
  4  5  1  0
  5  6  1  0
  5  7  1  0
  5  8  1  0
  3  9  1  0
  9 10  1  0
 10 11  1  0
 11 12  2  0
 11 13  1  0
 13 14  1  0
 14 15  1  0
 15 16  2  0
 16 17  1  0
 17 18  2  0
 18 19  1  0
 19 20  2  0
 20 21  1  0
 21 22  2  0
 22 23  1  0
 21 24  1  0
 20 25  1  0
 19 26  1  0
 18 27  1  0
 13 28  1  0
 13 29  1  0
 10 30  1  0
  9 31  1  0
 31 32  2  0
 32 33  1  0
 33 34  2  0
 34 35  1  0
 35 36  2  0
 36 37  1  0
 34 38  1  0
 33 39  1  0
 32 40  1  0
  9 41  1  0
  3 42  1  0
  1 43  1  0
  1 44  1  0
  1 45  1  0
 23 15  1  0
 36 31  1  0
 22 17  1  0
M  END
>  <plip>  (1) 
-0.17857142857142858

>  <filename>  (1) 
[H][c]1[n][c]([H])[c]([C]([H])([N]([H])[C](=[O])[C]([H])([H])[S][c]2[n][c]3[c]([H])[c]([H])[c]([H])[c]([H])[c]3[s]2)[C]([H])([O][C]([H])([H])[H])[O][C]([H])([H])[H])[c]([H])[c]1[H]

$$$$
