
     RDKit          3D

 38 40  0  0  0  0  0  0  0  0999 V2000
    5.4249   -2.6609   20.6585 O   0  0  0  0  0  0  0  0  0  0  0  0
    6.5901   -2.9799   20.7123 C   0  0  0  0  0  0  0  0  0  0  0  0
    6.9744   -4.4708   20.7897 C   0  0  0  0  0  0  0  0  0  0  0  0
    6.6716   -5.1063   22.0732 N   0  0  0  0  0  0  0  0  0  0  0  0
    5.5661   -5.9441   22.2317 C   0  0  0  0  0  0  0  0  0  0  0  0
    4.8282   -6.2836   21.3437 O   0  0  0  0  0  0  0  0  0  0  0  0
    5.4255   -6.4361   23.9464 S   0  0  0  0  0  0  0  0  0  0  0  0
    6.9634   -5.6845   24.3137 C   0  0  0  0  0  0  0  0  0  0  0  0
    7.7166   -5.8015   25.4862 C   0  0  0  0  0  0  0  0  0  0  0  0
    8.9255   -5.1130   25.5873 C   0  0  0  0  0  0  0  0  0  0  0  0
    9.3319   -4.2960   24.5227 C   0  0  0  0  0  0  0  0  0  0  0  0
   10.8041   -3.3928   24.6458 Cl  0  0  0  0  0  0  0  0  0  0  0  0
    8.6029   -4.1790   23.3396 C   0  0  0  0  0  0  0  0  0  0  0  0
    7.4388   -4.9388   23.2202 C   0  0  0  0  0  0  0  0  0  0  0  0
    8.9524   -3.4926   22.5757 H   0  0  0  0  0  0  0  0  0  0  0  0
    9.5492   -5.2164   26.4748 H   0  0  0  0  0  0  0  0  0  0  0  0
    7.3776   -6.4250   26.3109 H   0  0  0  0  0  0  0  0  0  0  0  0
    6.3380   -4.9537   20.0428 H   0  0  0  0  0  0  0  0  0  0  0  0
    8.0221   -4.6405   20.5225 H   0  0  0  0  0  0  0  0  0  0  0  0
    7.6045   -2.0636   20.6956 N   0  0  0  0  0  0  0  0  0  0  0  0
    7.3207   -0.6673   21.0481 C   0  0  0  0  0  0  0  0  0  0  0  0
    8.6425    0.0333   21.4122 C   0  0  0  0  0  0  0  0  0  0  0  0
    9.1780   -0.5984   22.5751 O   0  0  0  0  0  0  0  0  0  0  0  0
   10.0106   -0.1638   22.8005 H   0  0  0  0  0  0  0  0  0  0  0  0
    8.4560    1.1010   21.5892 H   0  0  0  0  0  0  0  0  0  0  0  0
    9.3319   -0.0554   20.5550 H   0  0  0  0  0  0  0  0  0  0  0  0
    6.5762   -0.0057   19.9041 C   0  0  0  0  0  0  0  0  0  0  0  0
    5.4030    0.7440   20.0799 C   0  0  0  0  0  0  0  0  0  0  0  0
    4.8490    1.3931   18.9718 C   0  0  0  0  0  0  0  0  0  0  0  0
    5.4760    1.2590   17.7309 C   0  0  0  0  0  0  0  0  0  0  0  0
    6.5741    0.5130   17.5344 N   0  0  0  0  0  0  0  0  0  0  0  0
    7.0876   -0.1106   18.6016 C   0  0  0  0  0  0  0  0  0  0  0  0
    7.9745   -0.7204   18.4194 H   0  0  0  0  0  0  0  0  0  0  0  0
    5.0943    1.7795   16.8543 H   0  0  0  0  0  0  0  0  0  0  0  0
    3.9627    2.0110   19.0589 H   0  0  0  0  0  0  0  0  0  0  0  0
    4.9303    0.8242   21.0622 H   0  0  0  0  0  0  0  0  0  0  0  0
    6.6925   -0.6215   21.9533 H   0  0  0  0  0  0  0  0  0  0  0  0
    8.5146   -2.3954   20.9843 H   0  0  0  0  0  0  0  0  0  0  0  0
  1  2  2  0
  2  3  1  0
  3  4  1  0
  4  5  1  0
  5  6  2  0
  5  7  1  0
  7  8  1  0
  8  9  2  0
  9 10  1  0
 10 11  2  0
 11 12  1  0
 11 13  1  0
 13 14  2  0
 13 15  1  0
 10 16  1  0
  9 17  1  0
  3 18  1  0
  3 19  1  0
  2 20  1  0
 20 21  1  0
 21 22  1  0
 22 23  1  0
 23 24  1  0
 22 25  1  0
 22 26  1  0
 21 27  1  0
 27 28  2  0
 28 29  1  0
 29 30  2  0
 30 31  1  0
 31 32  2  0
 32 33  1  0
 30 34  1  0
 29 35  1  0
 28 36  1  0
 21 37  1  0
 20 38  1  0
 14  4  1  0
 32 27  1  0
 14  8  1  0
M  END
>  <plip>  (1) 
-0.13793103448275862

>  <filename>  (1) 
[H][O][C]([H])([H])[C]([H])([c]1[c]([H])[n][c]([H])[c]([H])[c]1[H])[N]([H])[C](=[O])[C]([H])([H])[n]1[c](=[O])[s][c]2[c]([H])[c]([H])[c]([Cl])[c]([H])[c]21

$$$$
