
     RDKit          3D

 46 49  0  0  0  0  0  0  0  0999 V2000
    4.9475   -3.4084   21.2500 O   0  0  0  0  0  0  0  0  0  0  0  0
    5.8529   -2.8302   21.8279 C   0  0  0  0  0  0  0  0  0  0  0  0
    5.8665   -2.6797   23.1844 N   0  0  0  0  0  0  0  0  0  0  0  0
    4.7815   -3.1445   24.0346 C   0  0  0  0  0  0  0  0  0  0  0  0
    4.9517   -2.6115   25.4384 C   0  0  2  0  0  0  0  0  0  0  0  0
    3.7650   -2.1701   26.2547 C   0  0  0  0  0  0  0  0  0  0  0  0
    4.7912   -1.1596   25.8213 C   0  0  1  0  0  0  0  0  0  0  0  0
    5.6844   -0.5257   26.8550 C   0  0  0  0  0  0  0  0  0  0  0  0
    7.0784   -0.4869   26.6933 C   0  0  0  0  0  0  0  0  0  0  0  0
    7.9015    0.0707   27.6767 C   0  0  0  0  0  0  0  0  0  0  0  0
    7.3379    0.6211   28.8326 C   0  0  0  0  0  0  0  0  0  0  0  0
    5.9483    0.6178   28.9946 C   0  0  0  0  0  0  0  0  0  0  0  0
    5.1309    0.0557   28.0101 C   0  0  0  0  0  0  0  0  0  0  0  0
    4.0490    0.0568   28.1247 H   0  0  0  0  0  0  0  0  0  0  0  0
    5.5032    1.0359   29.8936 H   0  0  0  0  0  0  0  0  0  0  0  0
    7.9805    1.0204   29.6131 H   0  0  0  0  0  0  0  0  0  0  0  0
    8.9814    0.0626   27.5528 H   0  0  0  0  0  0  0  0  0  0  0  0
    7.5144   -0.9037   25.7881 H   0  0  0  0  0  0  0  0  0  0  0  0
    4.4867   -0.4840   25.0248 H   0  0  0  0  0  0  0  0  0  0  0  0
    3.7237   -2.4258   27.3135 H   0  0  0  0  0  0  0  0  0  0  0  0
    2.7931   -2.1544   25.7664 H   0  0  0  0  0  0  0  0  0  0  0  0
    5.7463   -3.1414   25.9580 H   0  0  0  0  0  0  0  0  0  0  0  0
    4.7981   -4.2357   24.0665 H   0  0  0  0  0  0  0  0  0  0  0  0
    3.7992   -2.8879   23.6204 H   0  0  0  0  0  0  0  0  0  0  0  0
    6.5018   -2.0055   23.5765 H   0  0  0  0  0  0  0  0  0  0  0  0
    7.0734   -2.3227   21.0786 C   0  0  2  0  0  0  0  0  0  0  0  0
    8.4398   -2.9122   21.5259 C   0  0  0  0  0  0  0  0  0  0  0  0
    9.3763   -1.6973   21.5534 C   0  0  0  0  0  0  0  0  0  0  0  0
    8.7099   -0.6817   20.8323 O   0  0  0  0  0  0  0  0  0  0  0  0
    7.3144   -0.7881   21.0608 C   0  0  1  0  0  0  0  0  0  0  0  0
    6.5998   -0.0329   19.9576 C   0  0  0  0  0  0  0  0  0  0  0  0
    5.3880    0.6401   20.1692 C   0  0  0  0  0  0  0  0  0  0  0  0
    4.7883    1.3018   19.0940 C   0  0  0  0  0  0  0  0  0  0  0  0
    5.4200    1.2754   17.8480 C   0  0  0  0  0  0  0  0  0  0  0  0
    6.5800    0.6397   17.6228 N   0  0  0  0  0  0  0  0  0  0  0  0
    7.1493    0.0161   18.6614 C   0  0  0  0  0  0  0  0  0  0  0  0
    8.1040   -0.4636   18.4512 H   0  0  0  0  0  0  0  0  0  0  0  0
    4.9829    1.7870   16.9921 H   0  0  0  0  0  0  0  0  0  0  0  0
    3.8597    1.8515   19.2115 H   0  0  0  0  0  0  0  0  0  0  0  0
    4.9292    0.6565   21.1605 H   0  0  0  0  0  0  0  0  0  0  0  0
    7.0760   -0.3159   22.0356 H   0  0  0  0  0  0  0  0  0  0  0  0
   10.3361   -1.8825   21.0612 H   0  0  0  0  0  0  0  0  0  0  0  0
    9.5796   -1.3682   22.5863 H   0  0  0  0  0  0  0  0  0  0  0  0
    8.4042   -3.4000   22.5050 H   0  0  0  0  0  0  0  0  0  0  0  0
    8.7799   -3.6742   20.8234 H   0  0  0  0  0  0  0  0  0  0  0  0
    6.8654   -2.6155   20.0467 H   0  0  0  0  0  0  0  0  0  0  0  0
  1  2  2  0
  2  3  1  0
  3  4  1  0
  4  5  1  0
  5  6  1  0
  6  7  1  0
  7  8  1  0
  8  9  2  0
  9 10  1  0
 10 11  2  0
 11 12  1  0
 12 13  2  0
 13 14  1  0
 12 15  1  0
 11 16  1  0
 10 17  1  0
  9 18  1  0
  7 19  1  6
  6 20  1  0
  6 21  1  0
  5 22  1  1
  4 23  1  0
  4 24  1  0
  3 25  1  0
  2 26  1  0
 26 27  1  0
 27 28  1  0
 28 29  1  0
 29 30  1  0
 30 31  1  0
 31 32  2  0
 32 33  1  0
 33 34  2  0
 34 35  1  0
 35 36  2  0
 36 37  1  0
 34 38  1  0
 33 39  1  0
 32 40  1  0
 30 41  1  1
 28 42  1  0
 28 43  1  0
 27 44  1  0
 27 45  1  0
 26 46  1  6
  7  5  1  0
 13  8  1  0
 30 26  1  0
 36 31  1  0
M  END
>  <plip>  (1) 
-0.07142857142857142

>  <filename>  (1) 
[H][c]1[n][c]([H])[c]([C@]2([H])[O][C]([H])([H])[C]([H])([H])[C@@]2([H])[C](=[O])[N]([H])[C]([H])([H])[C@]2([H])[C]([H])([H])[C@@]2([H])[c]2[c]([H])[c]([H])[c]([H])[c]([H])[c]2[H])[c]([H])[c]1[H]

$$$$
