
     RDKit          3D

 38 40  0  0  0  0  0  0  0  0999 V2000
    7.9321   -1.7776   26.5418 O   0  0  0  0  0  0  0  0  0  0  0  0
    7.4282   -0.9091   25.5444 C   0  0  0  0  0  0  0  0  0  0  0  0
    7.4080   -1.6901   24.2190 C   0  0  0  0  0  0  0  0  0  0  0  0
    6.7115   -0.9883   23.0705 N   0  0  0  0  0  4  0  0  0  0  0  0
    7.5988    0.0556   22.2756 C   0  0  0  0  0  0  0  0  0  0  0  0
    7.3962   -0.6939   20.9142 C   0  0  0  0  0  0  0  0  0  0  0  0
    8.5845   -1.2246   20.4216 F   0  0  0  0  0  0  0  0  0  0  0  0
    6.6657    0.0311   19.8121 C   0  0  0  0  0  0  0  0  0  0  0  0
    5.4474    0.6791   20.0669 C   0  0  0  0  0  0  0  0  0  0  0  0
    4.8038    1.3447   19.0262 C   0  0  0  0  0  0  0  0  0  0  0  0
    5.3882    1.3416   17.7576 C   0  0  0  0  0  0  0  0  0  0  0  0
    6.5451    0.7188   17.4902 N   0  0  0  0  0  0  0  0  0  0  0  0
    7.1626    0.0844   18.4907 C   0  0  0  0  0  0  0  0  0  0  0  0
    8.1010   -0.4048   18.2368 H   0  0  0  0  0  0  0  0  0  0  0  0
    4.9153    1.8607   16.9232 H   0  0  0  0  0  0  0  0  0  0  0  0
    3.8695    1.8641   19.1785 H   0  0  0  0  0  0  0  0  0  0  0  0
    5.0140    0.6763   21.0715 H   0  0  0  0  0  0  0  0  0  0  0  0
    6.5770   -1.7531   21.7239 C   0  0  0  0  0  0  0  0  0  0  0  0
    7.0489   -2.7298   21.7676 H   0  0  0  0  0  0  0  0  0  0  0  0
    5.5366   -1.8293   21.4317 H   0  0  0  0  0  0  0  0  0  0  0  0
    8.6162    0.0190   22.6460 H   0  0  0  0  0  0  0  0  0  0  0  0
    7.1906    1.0584   22.3286 H   0  0  0  0  0  0  0  0  0  0  0  0
    5.7715   -0.6501   23.4013 H   0  0  0  0  0  0  0  0  0  0  0  0
    8.4558   -1.8548   23.9564 H   0  0  0  0  0  0  0  0  0  0  0  0
    6.9498   -2.6622   24.4113 H   0  0  0  0  0  0  0  0  0  0  0  0
    8.1986    0.3998   25.4619 C   0  0  0  0  0  0  0  0  0  0  0  0
    7.5338    1.6409   25.4250 C   0  0  0  0  0  0  0  0  0  0  0  0
    8.2327    2.8409   25.2643 C   0  0  0  0  0  0  0  0  0  0  0  0
    9.6226    2.8212   25.1077 C   0  0  0  0  0  0  0  0  0  0  0  0
   10.3199    1.6042   25.1309 C   0  0  0  0  0  0  0  0  0  0  0  0
    9.5903    0.4325   25.2948 C   0  0  0  0  0  0  0  0  0  0  0  0
   10.2646   -0.7526   25.2653 F   0  0  0  0  0  0  0  0  0  0  0  0
   11.4003    1.5424   25.0303 H   0  0  0  0  0  0  0  0  0  0  0  0
   10.1705    3.7444   24.9339 H   0  0  0  0  0  0  0  0  0  0  0  0
    7.6971    3.7890   25.2611 H   0  0  0  0  0  0  0  0  0  0  0  0
    6.4467    1.6569   25.5152 H   0  0  0  0  0  0  0  0  0  0  0  0
    6.3890   -0.6798   25.8088 H   0  0  0  0  0  0  0  0  0  0  0  0
    8.8964   -1.7807   26.4196 H   0  0  0  0  0  0  0  0  0  0  0  0
  1  2  1  0
  2  3  1  0
  3  4  1  0
  4  5  1  0
  5  6  1  0
  6  7  1  0
  6  8  1  0
  8  9  2  0
  9 10  1  0
 10 11  2  0
 11 12  1  0
 12 13  2  0
 13 14  1  0
 11 15  1  0
 10 16  1  0
  9 17  1  0
  6 18  1  0
 18 19  1  0
 18 20  1  0
  5 21  1  0
  5 22  1  0
  4 23  1  0
  3 24  1  0
  3 25  1  0
  2 26  1  0
 26 27  2  0
 27 28  1  0
 28 29  2  0
 29 30  1  0
 30 31  2  0
 31 32  1  0
 30 33  1  0
 29 34  1  0
 28 35  1  0
 27 36  1  0
  2 37  1  0
  1 38  1  0
 18  4  1  0
 31 26  1  0
 13  8  1  0
M  CHG  1   4   1
M  END
>  <plip>  (1) 
-0.10344827586206896

>  <filename>  (1) 
[H][O][C]([H])([c]1[c]([H])[c]([H])[c]([H])[c]([H])[c]1[F])[C]([H])([H])[N+]1([H])[C]([H])([H])[C]([F])([c]2[c]([H])[n][c]([H])[c]([H])[c]2[H])[C]1([H])[H]

$$$$
