
     RDKit          3D

 46 48  0  0  0  0  0  0  0  0999 V2000
    6.3770   -4.3005   20.8393 C   0  0  0  0  0  0  0  0  0  0  0  0
    7.0397   -3.0468   20.6359 O   0  0  0  0  0  0  0  0  0  0  0  0
    6.6807   -2.0425   21.4598 C   0  0  0  0  0  0  0  0  0  0  0  0
    5.9099   -2.1905   22.3691 O   0  0  0  0  0  0  0  0  0  0  0  0
    7.4131   -0.7503   21.0233 C   0  0  2  0  0  0  0  0  0  0  0  0
    7.5655    0.0686   22.1956 O   0  0  0  0  0  0  0  0  0  0  0  0
    8.3427    1.1745   22.0968 C   0  0  0  0  0  0  0  0  0  0  0  0
    9.0415    1.3984   21.1390 O   0  0  0  0  0  0  0  0  0  0  0  0
    8.2376    2.0531   23.3304 C   0  0  0  0  0  0  0  0  0  0  0  0
    7.8523    3.5338   23.0286 C   0  0  0  0  0  0  0  0  0  0  0  0
    6.5222    3.6312   22.2487 C   0  0  0  0  0  0  0  0  0  0  0  0
    5.3204    3.3475   23.1594 C   0  0  0  0  0  0  0  0  0  0  0  0
    5.2351    4.3873   24.2871 C   0  0  0  0  0  0  0  0  0  0  0  0
    6.5751    4.7157   24.9336 C   0  0  0  0  0  0  0  0  0  0  0  0
    6.5919    5.4255   26.1494 C   0  0  0  0  0  0  0  0  0  0  0  0
    7.7911    5.8248   26.7412 C   0  0  0  0  0  0  0  0  0  0  0  0
    9.0033    5.5143   26.1167 C   0  0  0  0  0  0  0  0  0  0  0  0
    8.9985    4.7945   24.9202 C   0  0  0  0  0  0  0  0  0  0  0  0
    7.7988    4.3741   24.3141 C   0  0  0  0  0  0  0  0  0  0  0  0
    9.9446    4.5590   24.4392 H   0  0  0  0  0  0  0  0  0  0  0  0
    9.9432    5.8281   26.5634 H   0  0  0  0  0  0  0  0  0  0  0  0
    7.7800    6.3778   27.6785 H   0  0  0  0  0  0  0  0  0  0  0  0
    5.6488    5.6771   26.6329 H   0  0  0  0  0  0  0  0  0  0  0  0
    4.8165    5.3200   23.8802 H   0  0  0  0  0  0  0  0  0  0  0  0
    4.5266    4.0620   25.0603 H   0  0  0  0  0  0  0  0  0  0  0  0
    4.3879    3.3328   22.5816 H   0  0  0  0  0  0  0  0  0  0  0  0
    5.4234    2.3419   23.5917 H   0  0  0  0  0  0  0  0  0  0  0  0
    6.4279    4.6418   21.8268 H   0  0  0  0  0  0  0  0  0  0  0  0
    6.5378    2.9511   21.3866 H   0  0  0  0  0  0  0  0  0  0  0  0
    8.6516    3.9458   22.3934 H   0  0  0  0  0  0  0  0  0  0  0  0
    9.2334    2.0296   23.7876 H   0  0  0  0  0  0  0  0  0  0  0  0
    7.5381    1.6021   24.0389 H   0  0  0  0  0  0  0  0  0  0  0  0
    6.6821    0.0095   19.9102 C   0  0  0  0  0  0  0  0  0  0  0  0
    5.4581    0.6484   20.1529 C   0  0  0  0  0  0  0  0  0  0  0  0
    4.8211    1.3101   19.1017 C   0  0  0  0  0  0  0  0  0  0  0  0
    5.4308    1.3032   17.8408 C   0  0  0  0  0  0  0  0  0  0  0  0
    6.5966    0.6979   17.5832 N   0  0  0  0  0  0  0  0  0  0  0  0
    7.2025    0.0801   18.6082 C   0  0  0  0  0  0  0  0  0  0  0  0
    8.1566   -0.3929   18.3735 H   0  0  0  0  0  0  0  0  0  0  0  0
    4.9487    1.7932   16.9988 H   0  0  0  0  0  0  0  0  0  0  0  0
    3.8767    1.8271   19.2394 H   0  0  0  0  0  0  0  0  0  0  0  0
    5.0205    0.6398   21.1563 H   0  0  0  0  0  0  0  0  0  0  0  0
    8.3951   -1.0900   20.6673 H   0  0  0  0  0  0  0  0  0  0  0  0
    5.3065   -4.1797   20.6624 H   0  0  0  0  0  0  0  0  0  0  0  0
    6.5354   -4.6678   21.8583 H   0  0  0  0  0  0  0  0  0  0  0  0
    6.7932   -5.0030   20.1199 H   0  0  0  0  0  0  0  0  0  0  0  0
  1  2  1  0
  2  3  1  0
  3  4  2  0
  3  5  1  0
  5  6  1  0
  6  7  1  0
  7  8  2  0
  7  9  1  0
  9 10  1  0
 10 11  1  0
 11 12  1  0
 12 13  1  0
 13 14  1  0
 14 15  2  0
 15 16  1  0
 16 17  2  0
 17 18  1  0
 18 19  2  0
 18 20  1  0
 17 21  1  0
 16 22  1  0
 15 23  1  0
 13 24  1  0
 13 25  1  0
 12 26  1  0
 12 27  1  0
 11 28  1  0
 11 29  1  0
 10 30  1  0
  9 31  1  0
  9 32  1  0
  5 33  1  0
 33 34  2  0
 34 35  1  0
 35 36  2  0
 36 37  1  0
 37 38  2  0
 38 39  1  0
 36 40  1  0
 35 41  1  0
 34 42  1  0
  5 43  1  6
  1 44  1  0
  1 45  1  0
  1 46  1  0
 19 10  1  0
 38 33  1  0
 19 14  1  0
M  END
>  <plip>  (1) 
-0.07142857142857142

>  <filename>  (1) 
[H][c]1[n][c]([H])[c]([C@@]([H])([O][C](=[O])[C]([H])([H])[C]2([H])[c]3[c]([H])[c]([H])[c]([H])[c]([H])[c]3[C]([H])([H])[C]([H])([H])[C]2([H])[H])[C](=[O])[O][C]([H])([H])[H])[c]([H])[c]1[H]

$$$$
