
     RDKit          3D

 28 30  0  0  0  0  0  0  0  0999 V2000
    5.0196    1.7335   16.9776 H   0  0  0  0  0  0  0  0  0  0  0  0
    5.4608    1.2750   17.8590 C   0  0  0  0  0  0  0  0  0  0  0  0
    6.6360    0.6530   17.6795 N   0  0  0  0  0  0  0  0  0  0  0  0
    7.1850    0.0635   18.7468 C   0  0  0  0  0  0  0  0  0  0  0  0
    8.1305   -0.4494   18.5712 H   0  0  0  0  0  0  0  0  0  0  0  0
    6.6273    0.0740   20.0383 C   0  0  0  0  0  0  0  0  0  0  0  0
    7.3038   -0.6393   21.1293 C   0  0  0  0  0  0  0  0  0  0  0  0
    7.8317   -1.8687   21.1111 C   0  0  0  0  0  0  0  0  0  0  0  0
    7.7810   -2.6635   20.3948 H   0  0  0  0  0  0  0  0  0  0  0  0
    8.4210   -2.1712   22.3074 O   0  0  0  0  0  0  0  0  0  0  0  0
    8.2489   -1.1130   23.1554 C   0  0  0  0  0  0  0  0  0  0  0  0
    8.6702   -1.0641   24.2753 O   0  0  0  0  0  0  0  0  0  0  0  0
    7.5143   -0.1496   22.4413 N   0  0  0  0  0  0  0  0  0  0  0  0
    7.1143    1.1066   22.9965 C   0  0  0  0  0  0  0  0  0  0  0  0
    6.2840    1.1879   24.1361 C   0  0  0  0  0  0  0  0  0  0  0  0
    5.8864    0.0582   24.7355 F   0  0  0  0  0  0  0  0  0  0  0  0
    5.8497    2.3978   24.6726 C   0  0  0  0  0  0  0  0  0  0  0  0
    5.1917    2.3840   25.5377 H   0  0  0  0  0  0  0  0  0  0  0  0
    6.2709    3.5889   24.0783 C   0  0  0  0  0  0  0  0  0  0  0  0
    5.9349    4.5398   24.4829 H   0  0  0  0  0  0  0  0  0  0  0  0
    7.1140    3.5673   22.9640 C   0  0  0  0  0  0  0  0  0  0  0  0
    7.4481    4.4752   22.4672 H   0  0  0  0  0  0  0  0  0  0  0  0
    7.5233    2.3401   22.4463 C   0  0  0  0  0  0  0  0  0  0  0  0
    8.3335    2.3391   21.3749 F   0  0  0  0  0  0  0  0  0  0  0  0
    5.4013    0.7388   20.1966 C   0  0  0  0  0  0  0  0  0  0  0  0
    4.9555    0.7723   21.1882 H   0  0  0  0  0  0  0  0  0  0  0  0
    4.8001    1.3346   19.0897 C   0  0  0  0  0  0  0  0  0  0  0  0
    3.8463    1.8432   19.1689 H   0  0  0  0  0  0  0  0  0  0  0  0
  1  2  1  0
  2  3  2  0
  3  4  1  0
  4  5  1  0
  4  6  2  0
  6  7  1  0
  7  8  2  0
  8  9  1  0
  8 10  1  0
 10 11  1  0
 11 12  2  0
 11 13  1  0
 13 14  1  0
 14 15  2  0
 15 16  1  0
 15 17  1  0
 17 18  1  0
 17 19  2  0
 19 20  1  0
 19 21  1  0
 21 22  1  0
 21 23  2  0
 23 24  1  0
  6 25  1  0
 25 26  1  0
 25 27  2  0
 27 28  1  0
 27  2  1  0
 13  7  1  0
 23 14  1  0
M  END
>  <plip>  (1) 
-0.03571428571428571

>  <filename>  (1) 
[H][c]1[n][c]([H])[c](-[c]2[c]([H])[o][c](=[O])[n]2-[c]2[c]([F])[c]([H])[c]([H])[c]([H])[c]2[F])[c]([H])[c]1[H]

$$$$
