
     RDKit          3D

 31 33  0  0  0  0  0  0  0  0999 V2000
   10.9028   -2.2934   21.7142 H   0  0  0  0  0  0  0  0  0  0  0  0
   10.0504   -2.5516   22.3413 C   0  0  0  0  0  0  0  0  0  0  0  0
   10.1689   -3.4686   23.3089 C   0  0  0  0  0  0  0  0  0  0  0  0
   11.1731   -3.8206   23.5554 H   0  0  0  0  0  0  0  0  0  0  0  0
    9.0667   -4.1054   24.0783 C   0  0  0  0  0  0  0  0  0  0  0  0
    7.8932   -4.5638   23.4497 C   0  0  0  0  0  0  0  0  0  0  0  0
    7.7902   -4.4432   22.3735 H   0  0  0  0  0  0  0  0  0  0  0  0
    6.8728   -5.1521   24.2014 C   0  0  0  0  0  0  0  0  0  0  0  0
    5.9697   -5.4946   23.7033 H   0  0  0  0  0  0  0  0  0  0  0  0
    7.0150   -5.2981   25.5856 C   0  0  0  0  0  0  0  0  0  0  0  0
    6.2222   -5.7617   26.1669 H   0  0  0  0  0  0  0  0  0  0  0  0
    8.1848   -4.8572   26.2207 C   0  0  0  0  0  0  0  0  0  0  0  0
    8.3085   -4.9862   27.2945 H   0  0  0  0  0  0  0  0  0  0  0  0
    9.2053   -4.2705   25.4680 C   0  0  0  0  0  0  0  0  0  0  0  0
   10.1197   -3.9288   25.9517 H   0  0  0  0  0  0  0  0  0  0  0  0
    8.8301   -1.8140   22.0389 C   0  0  0  0  0  0  0  0  0  0  0  0
    8.5470   -1.3125   20.7774 N   0  0  0  0  0  0  0  0  0  0  0  0
    7.4103   -0.7086   20.9256 C   0  0  0  0  0  0  0  0  0  0  0  0
    6.6487    0.0118   19.9095 C   0  0  0  0  0  0  0  0  0  0  0  0
    7.1749    0.0574   18.6111 C   0  0  0  0  0  0  0  0  0  0  0  0
    8.1196   -0.4292   18.3876 H   0  0  0  0  0  0  0  0  0  0  0  0
    6.5734    0.6681   17.5869 N   0  0  0  0  0  0  0  0  0  0  0  0
    5.4106    1.2870   17.8444 C   0  0  0  0  0  0  0  0  0  0  0  0
    4.9268    1.7746   17.0008 H   0  0  0  0  0  0  0  0  0  0  0  0
    4.8036    1.3091   19.1104 C   0  0  0  0  0  0  0  0  0  0  0  0
    3.8701    1.8457   19.2577 H   0  0  0  0  0  0  0  0  0  0  0  0
    5.4276    0.6561   20.1711 C   0  0  0  0  0  0  0  0  0  0  0  0
    4.9906    0.6399   21.1758 H   0  0  0  0  0  0  0  0  0  0  0  0
    6.9114   -0.7631   22.1843 O   0  0  0  0  0  0  0  0  0  0  0  0
    7.8245   -1.4824   22.8869 C   0  0  0  0  0  0  0  0  0  0  0  0
    7.6649   -1.6526   23.9410 H   0  0  0  0  0  0  0  0  0  0  0  0
  1  2  1  0
  2  3  2  3
  3  4  1  0
  3  5  1  0
  5  6  2  0
  6  7  1  0
  6  8  1  0
  8  9  1  0
  8 10  2  0
 10 11  1  0
 10 12  1  0
 12 13  1  0
 12 14  2  0
 14 15  1  0
  2 16  1  0
 16 17  1  0
 17 18  2  0
 18 19  1  0
 19 20  2  0
 20 21  1  0
 20 22  1  0
 22 23  2  0
 23 24  1  0
 23 25  1  0
 25 26  1  0
 25 27  2  0
 27 28  1  0
 18 29  1  0
 29 30  1  0
 30 31  1  0
 14  5  1  0
 30 16  2  0
 27 19  1  0
M  END
>  <plip>  (1) 
-0.03571428571428571

>  <filename>  (1) 
[H][C](=[C]([H])[c]1[c]([H])[c]([H])[c]([H])[c]([H])[c]1[H])[c]1[n][c](-[c]2[c]([H])[n][c]([H])[c]([H])[c]2[H])[o][c]1[H]

$$$$
