
     RDKit          3D

 55 57  0  0  0  0  0  0  0  0999 V2000
    7.2492    4.2008   27.5391 C   0  0  0  0  0  0  0  0  0  0  0  0
    7.6416    3.7762   26.1142 C   0  0  0  0  0  0  0  0  0  0  0  0
    6.5434    2.9198   25.4468 C   0  0  0  0  0  0  0  0  0  0  0  0
    6.7988    2.5583   23.9892 C   0  0  0  0  0  0  0  0  0  0  0  0
    8.0151    1.6890   23.8886 N   0  0  0  0  0  4  0  0  0  0  0  0
    8.2411    1.0738   22.5617 C   0  0  0  0  0  0  0  0  0  0  0  0
    7.4427   -0.2245   22.3833 C   0  0  2  0  0  0  0  0  0  0  0  0
    7.9147   -1.4357   23.2196 C   0  0  0  0  0  0  0  0  0  0  0  0
    7.7096   -2.6993   22.3497 C   0  0  0  0  0  0  0  0  0  0  0  0
    7.1185   -2.2127   21.0367 N   0  0  0  0  0  4  0  0  0  0  0  0
    5.6431   -2.5192   20.9380 C   0  0  0  0  0  0  0  0  0  0  0  0
    5.2659   -2.2265   19.9558 H   0  0  0  0  0  0  0  0  0  0  0  0
    5.0856   -1.9559   21.6928 H   0  0  0  0  0  0  0  0  0  0  0  0
    5.4531   -3.5851   21.1026 H   0  0  0  0  0  0  0  0  0  0  0  0
    7.4908   -0.7066   20.9399 C   0  0  1  0  0  0  0  0  0  0  0  0
    6.6831    0.0310   19.9091 C   0  0  0  0  0  0  0  0  0  0  0  0
    5.4598    0.6839   20.1478 C   0  0  0  0  0  0  0  0  0  0  0  0
    4.8242    1.3273   19.0828 C   0  0  0  0  0  0  0  0  0  0  0  0
    5.4188    1.2919   17.8175 C   0  0  0  0  0  0  0  0  0  0  0  0
    6.5595    0.6365   17.5604 N   0  0  0  0  0  0  0  0  0  0  0  0
    7.1592    0.0244   18.5863 C   0  0  0  0  0  0  0  0  0  0  0  0
    8.0945   -0.4822   18.3496 H   0  0  0  0  0  0  0  0  0  0  0  0
    4.9453    1.7956   16.9754 H   0  0  0  0  0  0  0  0  0  0  0  0
    3.8945    1.8649   19.2215 H   0  0  0  0  0  0  0  0  0  0  0  0
    5.0028    0.6765   21.1399 H   0  0  0  0  0  0  0  0  0  0  0  0
    8.5354   -0.7105   20.6143 H   0  0  0  0  0  0  0  0  0  0  0  0
    7.5809   -2.6427   20.2193 H   0  0  0  0  0  0  0  0  0  0  0  0
    8.6528   -3.2188   22.1568 H   0  0  0  0  0  0  0  0  0  0  0  0
    7.0191   -3.4126   22.8080 H   0  0  0  0  0  0  0  0  0  0  0  0
    8.9721   -1.3523   23.4936 H   0  0  0  0  0  0  0  0  0  0  0  0
    7.3536   -1.5082   24.1560 H   0  0  0  0  0  0  0  0  0  0  0  0
    6.3914   -0.0366   22.6405 H   0  0  0  0  0  0  0  0  0  0  0  0
    9.3082    0.8664   22.4354 H   0  0  0  0  0  0  0  0  0  0  0  0
    7.9699    1.7874   21.7734 H   0  0  0  0  0  0  0  0  0  0  0  0
    8.8289    2.2868   24.1625 H   0  0  0  0  0  0  0  0  0  0  0  0
    7.9206    0.9243   24.6042 H   0  0  0  0  0  0  0  0  0  0  0  0
    5.9314    2.0491   23.5539 H   0  0  0  0  0  0  0  0  0  0  0  0
    6.9452    3.4741   23.4030 H   0  0  0  0  0  0  0  0  0  0  0  0
    5.6075    3.4853   25.4971 H   0  0  0  0  0  0  0  0  0  0  0  0
    6.3693    2.0111   26.0354 H   0  0  0  0  0  0  0  0  0  0  0  0
    7.9882    4.9915   25.2620 C   0  0  0  0  0  0  0  0  0  0  0  0
    7.0310    5.9815   24.9752 C   0  0  0  0  0  0  0  0  0  0  0  0
    7.3847    7.1381   24.2742 C   0  0  0  0  0  0  0  0  0  0  0  0
    8.7132    7.3210   23.8667 C   0  0  0  0  0  0  0  0  0  0  0  0
    9.6518    6.2977   24.0408 C   0  0  0  0  0  0  0  0  0  0  0  0
    9.2810    5.1417   24.7335 C   0  0  0  0  0  0  0  0  0  0  0  0
   10.0063    4.3482   24.9115 H   0  0  0  0  0  0  0  0  0  0  0  0
   10.6635    6.3824   23.6478 H   0  0  0  0  0  0  0  0  0  0  0  0
    9.0248    8.2771   23.4705 H   0  0  0  0  0  0  0  0  0  0  0  0
    6.6201    7.8803   24.0555 H   0  0  0  0  0  0  0  0  0  0  0  0
    6.0060    5.8637   25.3292 H   0  0  0  0  0  0  0  0  0  0  0  0
    8.5480    3.1633   26.2196 H   0  0  0  0  0  0  0  0  0  0  0  0
    6.3329    4.7986   27.5274 H   0  0  0  0  0  0  0  0  0  0  0  0
    7.0776    3.3387   28.1921 H   0  0  0  0  0  0  0  0  0  0  0  0
    8.0299    4.8188   27.9939 H   0  0  0  0  0  0  0  0  0  0  0  0
  1  2  1  0
  2  3  1  0
  3  4  1  0
  4  5  1  0
  5  6  1  0
  6  7  1  0
  7  8  1  0
  8  9  1  0
  9 10  1  0
 10 11  1  0
 11 12  1  0
 11 13  1  0
 11 14  1  0
 10 15  1  0
 15 16  1  0
 16 17  2  0
 17 18  1  0
 18 19  2  0
 19 20  1  0
 20 21  2  0
 21 22  1  0
 19 23  1  0
 18 24  1  0
 17 25  1  0
 15 26  1  6
 10 27  1  0
  9 28  1  0
  9 29  1  0
  8 30  1  0
  8 31  1  0
  7 32  1  1
  6 33  1  0
  6 34  1  0
  5 35  1  0
  5 36  1  0
  4 37  1  0
  4 38  1  0
  3 39  1  0
  3 40  1  0
  2 41  1  0
 41 42  2  0
 42 43  1  0
 43 44  2  0
 44 45  1  0
 45 46  2  0
 46 47  1  0
 45 48  1  0
 44 49  1  0
 43 50  1  0
 42 51  1  0
  2 52  1  0
  1 53  1  0
  1 54  1  0
  1 55  1  0
 15  7  1  0
 21 16  1  0
 46 41  1  0
M  CHG  2   5   1  10   1
M  END
>  <plip>  (1) 
-0.10714285714285714

>  <filename>  (1) 
[H][c]1[n][c]([H])[c]([C@@]2([H])[C@]([H])([C]([H])([H])[N+]([H])([H])[C]([H])([H])[C]([H])([H])[C]([H])([c]3[c]([H])[c]([H])[c]([H])[c]([H])[c]3[H])[C]([H])([H])[H])[C]([H])([H])[C]([H])([H])[N+]2([H])[C]([H])([H])[H])[c]([H])[c]1[H]

$$$$
