
     RDKit          3D

 22 23  0  0  0  0  0  0  0  0999 V2000
    9.4194   -1.8777   25.2093 H   0  0  0  0  0  0  0  0  0  0  0  0
    9.5890   -2.8785   24.3408 S   0  0  0  0  0  0  0  0  0  0  0  0
    8.7346   -2.0528   23.0170 C   0  0  0  0  0  0  0  0  0  0  0  0
    7.3498   -2.2082   22.8651 C   0  0  0  0  0  0  0  0  0  0  0  0
    6.8006   -2.8490   23.5457 H   0  0  0  0  0  0  0  0  0  0  0  0
    6.6773   -1.5353   21.8511 C   0  0  0  0  0  0  0  0  0  0  0  0
    5.6060   -1.6741   21.7359 H   0  0  0  0  0  0  0  0  0  0  0  0
    7.3786   -0.7014   20.9705 C   0  0  0  0  0  0  0  0  0  0  0  0
    6.6587    0.0114   19.9027 C   0  0  0  0  0  0  0  0  0  0  0  0
    7.1804    0.0652   18.5999 C   0  0  0  0  0  0  0  0  0  0  0  0
    8.1298   -0.4382   18.3812 H   0  0  0  0  0  0  0  0  0  0  0  0
    6.5681    0.6823   17.5823 N   0  0  0  0  0  0  0  0  0  0  0  0
    5.3997    1.2909   17.8465 C   0  0  0  0  0  0  0  0  0  0  0  0
    4.9045    1.7704   17.0077 H   0  0  0  0  0  0  0  0  0  0  0  0
    4.8036    1.3157   19.1116 C   0  0  0  0  0  0  0  0  0  0  0  0
    3.8706    1.8462   19.2684 H   0  0  0  0  0  0  0  0  0  0  0  0
    5.4399    0.6514   20.1529 C   0  0  0  0  0  0  0  0  0  0  0  0
    5.0130    0.6290   21.1539 H   0  0  0  0  0  0  0  0  0  0  0  0
    8.7643   -0.5495   21.1176 C   0  0  0  0  0  0  0  0  0  0  0  0
    9.3188    0.1076   20.4532 H   0  0  0  0  0  0  0  0  0  0  0  0
    9.4364   -1.2178   22.1366 C   0  0  0  0  0  0  0  0  0  0  0  0
   10.5076   -1.0934   22.2502 H   0  0  0  0  0  0  0  0  0  0  0  0
  1  2  1  0
  2  3  1  0
  3  4  2  0
  4  5  1  0
  4  6  1  0
  6  7  1  0
  6  8  2  0
  8  9  1  0
  9 10  2  0
 10 11  1  0
 10 12  1  0
 12 13  2  0
 13 14  1  0
 13 15  1  0
 15 16  1  0
 15 17  2  0
 17 18  1  0
  8 19  1  0
 19 20  1  0
 19 21  2  0
 21 22  1  0
 21  3  1  0
 17  9  1  0
M  END
>  <plip>  (1) 
-0.03571428571428571

>  <filename>  (1) 
[H][S][c]1[c]([H])[c]([H])[c](-[c]2[c]([H])[n][c]([H])[c]([H])[c]2[H])[c]([H])[c]1[H]

$$$$
