
     RDKit          3D

 43 43  0  0  0  0  0  0  0  0999 V2000
    6.8412   -4.9133   21.9331 C   0  0  0  0  0  0  0  0  0  0  0  0
    8.0657   -4.6782   22.8131 C   0  0  0  0  0  0  0  0  0  0  0  0
    8.7051   -3.2023   22.4219 N   0  0  0  0  0  4  0  0  0  0  0  0
    7.6779   -2.0466   22.7143 C   0  0  0  0  0  0  0  0  0  0  0  0
    6.7490   -1.5223   21.5723 C   0  0  0  0  0  0  0  0  0  0  0  0
    5.6337   -1.9690   21.3740 O   0  0  0  0  0  0  0  0  0  0  0  0
    7.3188   -0.5530   20.7770 N   0  0  0  0  0  0  0  0  0  0  0  0
    6.6574    0.1106   19.6886 C   0  0  0  0  0  0  0  0  0  0  0  0
    5.4100    0.7082   19.8997 C   0  0  0  0  0  0  0  0  0  0  0  0
    4.8082    1.4089   18.8457 C   0  0  0  0  0  0  0  0  0  0  0  0
    5.4543    1.4484   17.6046 C   0  0  0  0  0  0  0  0  0  0  0  0
    6.6337    0.8459   17.3724 N   0  0  0  0  0  0  0  0  0  0  0  0
    7.2203    0.2088   18.3936 C   0  0  0  0  0  0  0  0  0  0  0  0
    8.1779   -0.2577   18.1751 H   0  0  0  0  0  0  0  0  0  0  0  0
    5.0090    1.9814   16.7654 H   0  0  0  0  0  0  0  0  0  0  0  0
    3.8626    1.9316   18.9793 H   0  0  0  0  0  0  0  0  0  0  0  0
    4.9413    0.6238   20.8811 H   0  0  0  0  0  0  0  0  0  0  0  0
    8.1708   -0.1350   21.1148 H   0  0  0  0  0  0  0  0  0  0  0  0
    8.2042   -1.1943   23.1482 H   0  0  0  0  0  0  0  0  0  0  0  0
    6.9984   -2.4348   23.4722 H   0  0  0  0  0  0  0  0  0  0  0  0
    9.5884   -3.0405   22.9535 H   0  0  0  0  0  0  0  0  0  0  0  0
    8.9575   -3.2021   21.4089 H   0  0  0  0  0  0  0  0  0  0  0  0
    7.8129   -4.8336   24.3615 C   0  0  0  0  0  0  0  0  0  0  0  0
    6.7187   -4.7443   24.8921 O   0  0  0  0  0  0  0  0  0  0  0  0
    8.9585   -5.0476   25.0639 N   0  0  0  0  0  0  0  0  0  0  0  0
    9.0493   -5.1456   26.5275 C   0  0  0  0  0  0  0  0  0  0  0  0
   10.5386   -5.3317   26.8217 C   0  0  0  0  0  0  0  0  0  0  0  0
   11.1268   -4.5268   26.3668 H   0  0  0  0  0  0  0  0  0  0  0  0
   10.8870   -6.2894   26.4097 H   0  0  0  0  0  0  0  0  0  0  0  0
   10.7394   -5.3322   27.9003 H   0  0  0  0  0  0  0  0  0  0  0  0
    8.2774   -6.3778   27.0010 C   0  0  0  0  0  0  0  0  0  0  0  0
    7.2184   -6.3129   26.7344 H   0  0  0  0  0  0  0  0  0  0  0  0
    8.7215   -7.2468   26.5055 H   0  0  0  0  0  0  0  0  0  0  0  0
    8.3714   -6.5055   28.0884 H   0  0  0  0  0  0  0  0  0  0  0  0
    8.5197   -3.8746   27.1986 C   0  0  0  0  0  0  0  0  0  0  0  0
    7.5462   -3.5976   26.7900 H   0  0  0  0  0  0  0  0  0  0  0  0
    8.4153   -4.0582   28.2727 H   0  0  0  0  0  0  0  0  0  0  0  0
    9.2122   -3.0390   27.0522 H   0  0  0  0  0  0  0  0  0  0  0  0
    9.8103   -5.2686   24.5762 H   0  0  0  0  0  0  0  0  0  0  0  0
    8.8382   -5.4172   22.5757 H   0  0  0  0  0  0  0  0  0  0  0  0
    5.9987   -4.2715   22.2108 H   0  0  0  0  0  0  0  0  0  0  0  0
    7.0837   -4.6989   20.8869 H   0  0  0  0  0  0  0  0  0  0  0  0
    6.5213   -5.9569   21.9922 H   0  0  0  0  0  0  0  0  0  0  0  0
  1  2  1  0
  2  3  1  0
  3  4  1  0
  4  5  1  0
  5  6  2  0
  5  7  1  0
  7  8  1  0
  8  9  2  0
  9 10  1  0
 10 11  2  0
 11 12  1  0
 12 13  2  0
 13 14  1  0
 11 15  1  0
 10 16  1  0
  9 17  1  0
  7 18  1  0
  4 19  1  0
  4 20  1  0
  3 21  1  0
  3 22  1  0
  2 23  1  0
 23 24  2  0
 23 25  1  0
 25 26  1  0
 26 27  1  0
 27 28  1  0
 27 29  1  0
 27 30  1  0
 26 31  1  0
 31 32  1  0
 31 33  1  0
 31 34  1  0
 26 35  1  0
 35 36  1  0
 35 37  1  0
 35 38  1  0
 25 39  1  0
  2 40  1  0
  1 41  1  0
  1 42  1  0
  1 43  1  0
 13  8  1  0
M  CHG  1   3   1
M  END
>  <plip>  (1) 
-0.13793103448275862

>  <filename>  (1) 
[H][c]1[n][c]([H])[c]([N]([H])[C](=[O])[C]([H])([H])[N+]([H])([H])[C]([H])([C](=[O])[N]([H])[C]([C]([H])([H])[H])([C]([H])([H])[H])[C]([H])([H])[H])[C]([H])([H])[H])[c]([H])[c]1[H]

$$$$
