
     RDKit          3D

 34 36  0  0  0  0  0  0  0  0999 V2000
    4.9229    1.7889   16.9899 H   0  0  0  0  0  0  0  0  0  0  0  0
    5.3974    1.2967   17.8350 C   0  0  0  0  0  0  0  0  0  0  0  0
    6.5607    0.6802   17.5753 N   0  0  0  0  0  0  0  0  0  0  0  0
    7.1644    0.0674   18.5998 C   0  0  0  0  0  0  0  0  0  0  0  0
    8.1165   -0.4135   18.3763 H   0  0  0  0  0  0  0  0  0  0  0  0
    6.6412    0.0109   19.9001 C   0  0  0  0  0  0  0  0  0  0  0  0
    7.4149   -0.6619   21.0022 C   0  0  0  0  0  0  0  0  0  0  0  0
    6.7707   -0.8527   21.8692 H   0  0  0  0  0  0  0  0  0  0  0  0
    7.8396   -1.6198   20.6833 H   0  0  0  0  0  0  0  0  0  0  0  0
    8.5352    0.1633   21.4376 N   0  0  0  0  0  0  0  0  0  0  0  0
    9.8217   -0.1611   21.1740 N   0  0  0  0  0  0  0  0  0  0  0  0
   10.5430    0.8003   21.6110 N   0  0  0  0  0  0  0  0  0  0  0  0
    9.7826    1.7877   22.1513 N   0  0  0  0  0  0  0  0  0  0  0  0
    8.5455    1.3800   22.0225 C   0  0  0  0  0  0  0  0  0  0  0  0
    7.4098    1.9698   22.3917 O   0  0  0  0  0  0  0  0  0  0  0  0
    7.4893    3.2904   22.9910 C   0  0  0  0  0  0  0  0  0  0  0  0
    8.0084    3.9896   22.3258 H   0  0  0  0  0  0  0  0  0  0  0  0
    8.0455    3.2489   23.9329 H   0  0  0  0  0  0  0  0  0  0  0  0
    6.0615    3.7746   23.2303 C   0  0  1  0  0  0  0  0  0  0  0  0
    5.5795    3.0828   23.9368 H   0  0  0  0  0  0  0  0  0  0  0  0
    6.1175    5.0674   23.8307 O   0  0  0  0  0  0  0  0  0  0  0  0
    5.2320    5.9857   23.1927 C   0  0  0  0  0  0  0  0  0  0  0  0
    4.6377    6.5123   23.9534 H   0  0  0  0  0  0  0  0  0  0  0  0
    5.8216    6.7479   22.6611 H   0  0  0  0  0  0  0  0  0  0  0  0
    4.3596    5.1668   22.2327 C   0  0  0  0  0  0  0  0  0  0  0  0
    3.4105    4.8883   22.7030 H   0  0  0  0  0  0  0  0  0  0  0  0
    4.1143    5.7272   21.3247 H   0  0  0  0  0  0  0  0  0  0  0  0
    5.2220    3.9294   21.9535 C   0  0  0  0  0  0  0  0  0  0  0  0
    5.8745    4.0935   21.0892 H   0  0  0  0  0  0  0  0  0  0  0  0
    4.6444    3.0238   21.7474 H   0  0  0  0  0  0  0  0  0  0  0  0
    5.4260    0.6496   20.1514 C   0  0  0  0  0  0  0  0  0  0  0  0
    5.0062    0.6335   21.1620 H   0  0  0  0  0  0  0  0  0  0  0  0
    4.7970    1.3141   19.0974 C   0  0  0  0  0  0  0  0  0  0  0  0
    3.8643    1.8478   19.2381 H   0  0  0  0  0  0  0  0  0  0  0  0
  1  2  1  0
  2  3  2  0
  3  4  1  0
  4  5  1  0
  4  6  2  0
  6  7  1  0
  7  8  1  0
  7  9  1  0
  7 10  1  0
 10 11  1  0
 11 12  2  0
 12 13  1  0
 13 14  2  0
 14 15  1  0
 15 16  1  0
 16 17  1  0
 16 18  1  0
 16 19  1  0
 19 20  1  1
 19 21  1  0
 21 22  1  0
 22 23  1  0
 22 24  1  0
 22 25  1  0
 25 26  1  0
 25 27  1  0
 25 28  1  0
 28 29  1  0
 28 30  1  0
  6 31  1  0
 31 32  1  0
 31 33  2  0
 33 34  1  0
 33  2  1  0
 14 10  1  0
 28 19  1  0
M  END
>  <plip>  (1) 
-0.03571428571428571

>  <filename>  (1) 
[H][c]1[n][c]([H])[c]([C]([H])([H])[n]2[n][n][n][c]2[O][C]([H])([H])[C@@]2([H])[O][C]([H])([H])[C]([H])([H])[C]2([H])[H])[c]([H])[c]1[H]

$$$$
