
     RDKit          3D

 25 27  0  0  0  0  0  0  0  0999 V2000
    4.9735    1.7982   16.9712 H   0  0  0  0  0  0  0  0  0  0  0  0
    5.4274    1.2889   17.8152 C   0  0  0  0  0  0  0  0  0  0  0  0
    6.5873    0.6587   17.5722 N   0  0  0  0  0  0  0  0  0  0  0  0
    7.1743    0.0404   18.5977 C   0  0  0  0  0  0  0  0  0  0  0  0
    8.1258   -0.4597   18.4120 H   0  0  0  0  0  0  0  0  0  0  0  0
    6.6230    0.0201   19.8859 C   0  0  0  0  0  0  0  0  0  0  0  0
    7.3424   -0.6658   20.9378 C   0  0  0  0  0  0  0  0  0  0  0  0
    8.5217   -1.3231   20.7767 N   0  0  0  0  0  0  0  0  0  0  0  0
    8.8385   -1.8041   21.9329 N   0  0  0  0  0  0  0  0  0  0  0  0
    7.8730   -1.4403   22.7653 N   0  0  0  0  0  0  0  0  0  0  0  0
    7.8114   -1.8395   24.1166 C   0  0  0  0  0  0  0  0  0  0  0  0
    8.7665   -2.7061   24.5864 N   0  0  0  0  0  0  0  0  0  0  0  0
    8.5353   -3.0030   25.8161 C   0  0  0  0  0  0  0  0  0  0  0  0
    9.3949   -3.9923   26.5430 C   0  0  0  0  0  0  0  0  0  0  0  0
    9.4841   -3.7718   27.6024 H   0  0  0  0  0  0  0  0  0  0  0  0
    8.9550   -4.9876   26.4143 H   0  0  0  0  0  0  0  0  0  0  0  0
   10.3876   -3.9913   26.0861 H   0  0  0  0  0  0  0  0  0  0  0  0
    7.1269   -2.2294   26.5166 S   0  0  0  0  0  0  0  0  0  0  0  0
    6.8419   -1.4806   25.0038 C   0  0  0  0  0  0  0  0  0  0  0  0
    5.9682   -0.8813   24.8047 H   0  0  0  0  0  0  0  0  0  0  0  0
    6.9156   -0.7233   22.1859 N   0  0  0  0  0  0  0  0  0  0  0  0
    5.4061    0.6716   20.1364 C   0  0  0  0  0  0  0  0  0  0  0  0
    4.9760    0.6731   21.1424 H   0  0  0  0  0  0  0  0  0  0  0  0
    4.7987    1.3178   19.0677 C   0  0  0  0  0  0  0  0  0  0  0  0
    3.8648    1.8515   19.2009 H   0  0  0  0  0  0  0  0  0  0  0  0
  1  2  1  0
  2  3  2  0
  3  4  1  0
  4  5  1  0
  4  6  2  0
  6  7  1  0
  7  8  1  0
  8  9  2  0
  9 10  1  0
 10 11  1  0
 11 12  1  0
 12 13  2  0
 13 14  1  0
 14 15  1  0
 14 16  1  0
 14 17  1  0
 13 18  1  0
 18 19  1  0
 19 20  1  0
 10 21  1  0
  6 22  1  0
 22 23  1  0
 22 24  2  0
 24 25  1  0
 24  2  1  0
 21  7  2  0
 19 11  2  0
M  END
>  <plip>  (1) 
-0.07142857142857142

>  <filename>  (1) 
[H][c]1[n][c]([H])[c](-[c]2[n][n][n](-[c]3[n][c]([C]([H])([H])[H])[s][c]3[H])[n]2)[c]([H])[c]1[H]

$$$$
