
     RDKit          3D

 52 54  0  0  0  0  0  0  0  0999 V2000
    8.7793    1.1610   22.0966 C   0  0  0  0  0  0  0  0  0  0  0  0
    8.6466   -0.1363   21.3907 N   0  0  0  0  0  4  0  0  0  0  0  0
    9.4713   -1.2610   21.9738 C   0  0  0  0  0  0  0  0  0  0  0  0
    8.6328   -2.5380   21.7838 C   0  0  0  0  0  0  0  0  0  0  0  0
    7.4071   -2.0958   20.9640 C   0  0  1  0  0  0  0  0  0  0  0  0
    6.1555   -2.9736   21.0048 C   0  0  0  0  0  0  0  0  0  0  0  0
    5.4464   -2.9910   22.2788 N   0  0  0  0  0  0  0  0  0  0  0  0
    5.8352   -3.8273   23.2963 C   0  0  0  0  0  0  0  0  0  0  0  0
    6.5616   -4.7751   23.0600 O   0  0  0  0  0  0  0  0  0  0  0  0
    5.4098   -3.4376   24.7569 C   0  0  0  0  0  0  0  0  0  0  0  0
    3.9390   -2.9411   24.9492 C   0  0  0  0  0  0  0  0  0  0  0  0
    3.5836   -3.2332   25.9471 H   0  0  0  0  0  0  0  0  0  0  0  0
    3.8578   -1.8517   24.9132 H   0  0  0  0  0  0  0  0  0  0  0  0
    3.2333   -3.3786   24.2412 H   0  0  0  0  0  0  0  0  0  0  0  0
    6.3527   -2.2887   25.1990 C   0  0  0  0  0  0  0  0  0  0  0  0
    6.2592   -1.4282   24.5246 H   0  0  0  0  0  0  0  0  0  0  0  0
    7.4016   -2.5995   25.1976 H   0  0  0  0  0  0  0  0  0  0  0  0
    6.0983   -1.9327   26.2049 H   0  0  0  0  0  0  0  0  0  0  0  0
    5.5332   -4.6984   25.6252 C   0  0  0  0  0  0  0  0  0  0  0  0
    6.2737   -4.7672   26.8047 C   0  0  0  0  0  0  0  0  0  0  0  0
    6.1782   -5.9111   27.6040 C   0  0  0  0  0  0  0  0  0  0  0  0
    5.4013   -6.9587   27.3068 N   0  0  0  0  0  0  0  0  0  0  0  0
    4.7133   -6.9029   26.1574 C   0  0  0  0  0  0  0  0  0  0  0  0
    4.7663   -5.8163   25.2835 C   0  0  0  0  0  0  0  0  0  0  0  0
    4.2014   -5.8349   24.3585 H   0  0  0  0  0  0  0  0  0  0  0  0
    4.0663   -7.7480   25.9307 H   0  0  0  0  0  0  0  0  0  0  0  0
    6.7389   -5.9670   28.5356 H   0  0  0  0  0  0  0  0  0  0  0  0
    6.9009   -3.9465   27.1256 H   0  0  0  0  0  0  0  0  0  0  0  0
    5.0175   -2.1309   22.5734 H   0  0  0  0  0  0  0  0  0  0  0  0
    5.4630   -2.6342   20.2289 H   0  0  0  0  0  0  0  0  0  0  0  0
    6.4358   -4.0051   20.7639 H   0  0  0  0  0  0  0  0  0  0  0  0
    7.2006   -0.6008   21.2410 C   0  0  2  0  0  0  0  0  0  0  0  0
    6.5304    0.1273   20.0876 C   0  0  0  0  0  0  0  0  0  0  0  0
    5.2941    0.7828   20.2011 C   0  0  0  0  0  0  0  0  0  0  0  0
    4.7415    1.3883   19.0683 C   0  0  0  0  0  0  0  0  0  0  0  0
    5.4375    1.3332   17.8591 C   0  0  0  0  0  0  0  0  0  0  0  0
    6.6176    0.7087   17.7261 N   0  0  0  0  0  0  0  0  0  0  0  0
    7.1380    0.1328   18.8141 C   0  0  0  0  0  0  0  0  0  0  0  0
    8.0908   -0.3741   18.6418 H   0  0  0  0  0  0  0  0  0  0  0  0
    5.0260    1.7948   16.9609 H   0  0  0  0  0  0  0  0  0  0  0  0
    3.7900    1.9071   19.1105 H   0  0  0  0  0  0  0  0  0  0  0  0
    4.7683    0.8245   21.1571 H   0  0  0  0  0  0  0  0  0  0  0  0
    6.6796   -0.4006   22.1920 H   0  0  0  0  0  0  0  0  0  0  0  0
    7.7294   -2.0689   19.9238 H   0  0  0  0  0  0  0  0  0  0  0  0
    9.1971   -3.2929   21.2317 H   0  0  0  0  0  0  0  0  0  0  0  0
    8.3733   -2.9884   22.7474 H   0  0  0  0  0  0  0  0  0  0  0  0
   10.4363   -1.3088   21.4555 H   0  0  0  0  0  0  0  0  0  0  0  0
    9.6710   -1.0709   23.0319 H   0  0  0  0  0  0  0  0  0  0  0  0
    8.9672   -0.0104   20.4113 H   0  0  0  0  0  0  0  0  0  0  0  0
    9.8297    1.4648   22.1875 H   0  0  0  0  0  0  0  0  0  0  0  0
    8.2174    1.9402   21.5689 H   0  0  0  0  0  0  0  0  0  0  0  0
    8.3641    1.0831   23.1133 H   0  0  0  0  0  0  0  0  0  0  0  0
  1  2  1  0
  2  3  1  0
  3  4  1  0
  4  5  1  0
  5  6  1  0
  6  7  1  0
  7  8  1  0
  8  9  2  0
  8 10  1  0
 10 11  1  0
 11 12  1  0
 11 13  1  0
 11 14  1  0
 10 15  1  0
 15 16  1  0
 15 17  1  0
 15 18  1  0
 10 19  1  0
 19 20  2  0
 20 21  1  0
 21 22  2  0
 22 23  1  0
 23 24  2  0
 24 25  1  0
 23 26  1  0
 21 27  1  0
 20 28  1  0
  7 29  1  0
  6 30  1  0
  6 31  1  0
  5 32  1  0
 32 33  1  0
 33 34  2  0
 34 35  1  0
 35 36  2  0
 36 37  1  0
 37 38  2  0
 38 39  1  0
 36 40  1  0
 35 41  1  0
 34 42  1  0
 32 43  1  1
  5 44  1  6
  4 45  1  0
  4 46  1  0
  3 47  1  0
  3 48  1  0
  2 49  1  0
  1 50  1  0
  1 51  1  0
  1 52  1  0
 32  2  1  0
 38 33  1  0
 24 19  1  0
M  CHG  1   2   1
M  END
>  <plip>  (1) 
-0.13333333333333333

>  <filename>  (1) 
[H][c]1[n][c]([H])[c]([C@@]2([H])[C@]([H])([C]([H])([H])[N]([H])[C](=[O])[C]([c]3[c]([H])[c]([H])[n][c]([H])[c]3[H])([C]([H])([H])[H])[C]([H])([H])[H])[C]([H])([H])[C]([H])([H])[N+]2([H])[C]([H])([H])[H])[c]([H])[c]1[H]

$$$$
