
     RDKit          3D

 24 25  0  0  0  0  0  0  0  0999 V2000
    4.9094    1.7812   16.9957 H   0  0  0  0  0  0  0  0  0  0  0  0
    5.3979    1.2955   17.8352 C   0  0  0  0  0  0  0  0  0  0  0  0
    6.5645    0.6848   17.5678 N   0  0  0  0  0  0  0  0  0  0  0  0
    7.1684    0.0672   18.5883 C   0  0  0  0  0  0  0  0  0  0  0  0
    8.1172   -0.4247   18.3749 H   0  0  0  0  0  0  0  0  0  0  0  0
    6.6593    0.0182   19.8955 C   0  0  0  0  0  0  0  0  0  0  0  0
    7.3847   -0.7049   20.9724 C   0  0  0  0  0  0  0  0  0  0  0  0
    7.4995   -2.1028   20.9299 C   0  0  0  0  0  0  0  0  0  0  0  0
    7.0438   -2.6238   20.0911 H   0  0  0  0  0  0  0  0  0  0  0  0
    8.1134   -2.8489   21.8546 N   0  0  0  0  0  0  0  0  0  0  0  0
    8.6418   -2.1820   22.8904 C   0  0  0  0  0  0  0  0  0  0  0  0
    9.1329   -2.7826   23.6454 H   0  0  0  0  0  0  0  0  0  0  0  0
    8.5958   -0.7964   23.0333 C   0  0  0  0  0  0  0  0  0  0  0  0
    9.0409   -0.3169   23.8983 H   0  0  0  0  0  0  0  0  0  0  0  0
    7.9699   -0.0300   22.0529 C   0  0  0  0  0  0  0  0  0  0  0  0
    7.9280    1.4812   22.1950 C   0  0  0  0  0  0  0  0  0  0  0  0
    7.8379    1.9697   21.2222 H   0  0  0  0  0  0  0  0  0  0  0  0
    8.8500    1.8330   22.6628 H   0  0  0  0  0  0  0  0  0  0  0  0
    6.7995    1.8996   23.0348 C   0  0  0  0  0  0  0  0  0  0  0  0
    5.9034    2.1891   23.7039 N   0  0  0  0  0  0  0  0  0  0  0  0
    5.4380    0.6584   20.1549 C   0  0  0  0  0  0  0  0  0  0  0  0
    5.0188    0.6290   21.1662 H   0  0  0  0  0  0  0  0  0  0  0  0
    4.8004    1.3133   19.1014 C   0  0  0  0  0  0  0  0  0  0  0  0
    3.8695    1.8473   19.2603 H   0  0  0  0  0  0  0  0  0  0  0  0
  1  2  1  0
  2  3  2  0
  3  4  1  0
  4  5  1  0
  4  6  2  0
  6  7  1  0
  7  8  2  0
  8  9  1  0
  8 10  1  0
 10 11  2  0
 11 12  1  0
 11 13  1  0
 13 14  1  0
 13 15  2  0
 15 16  1  0
 16 17  1  0
 16 18  1  0
 16 19  1  0
 19 20  3  0
  6 21  1  0
 21 22  1  0
 21 23  2  0
 23 24  1  0
 23  2  1  0
 15  7  1  0
M  END
>  <plip>  (1) 
-0.06896551724137931

>  <filename>  (1) 
[H][c]1[n][c]([H])[c](-[c]2[c]([H])[n][c]([H])[c]([H])[c]2[C]([H])([H])[C]#[N])[c]([H])[c]1[H]

$$$$
