
     RDKit          3D

 29 30  0  0  0  0  0  0  0  0999 V2000
    8.7648   -0.9538   20.9037 C   0  0  0  0  0  0  0  0  0  0  0  0
    7.2469   -0.8090   21.0186 C   0  0  1  0  0  0  0  0  0  0  0  0
    6.5876   -0.0720   19.8806 C   0  0  0  0  0  0  0  0  0  0  0  0
    5.3932    0.6218   20.1076 C   0  0  0  0  0  0  0  0  0  0  0  0
    4.8054    1.3287   19.0567 C   0  0  0  0  0  0  0  0  0  0  0  0
    5.4313    1.3007   17.8060 C   0  0  0  0  0  0  0  0  0  0  0  0
    6.5676    0.6363   17.5620 N   0  0  0  0  0  0  0  0  0  0  0  0
    7.1262   -0.0274   18.5865 C   0  0  0  0  0  0  0  0  0  0  0  0
    8.0694   -0.5250   18.3558 H   0  0  0  0  0  0  0  0  0  0  0  0
    5.0006    1.8369   16.9620 H   0  0  0  0  0  0  0  0  0  0  0  0
    3.8891    1.8906   19.1949 H   0  0  0  0  0  0  0  0  0  0  0  0
    4.9374    0.6053   21.1014 H   0  0  0  0  0  0  0  0  0  0  0  0
    6.5999   -2.1054   21.2580 N   0  0  0  0  0  0  0  0  0  0  0  0
    6.5636   -2.6625   22.5108 C   0  0  0  0  0  0  0  0  0  0  0  0
    6.8369   -2.1012   23.5423 O   0  0  0  0  0  0  0  0  0  0  0  0
    6.1536   -4.1097   22.3423 C   0  0  0  0  0  0  0  0  0  0  0  0
    6.0132   -4.2344   20.9157 N   0  0  0  0  0  0  0  0  0  0  0  0
    5.8458   -5.4834   20.2108 C   0  0  0  0  0  0  0  0  0  0  0  0
    5.2432   -6.1777   20.8080 H   0  0  0  0  0  0  0  0  0  0  0  0
    6.8030   -5.9732   20.0016 H   0  0  0  0  0  0  0  0  0  0  0  0
    5.3392   -5.2869   19.2655 H   0  0  0  0  0  0  0  0  0  0  0  0
    6.2119   -3.0262   20.2873 C   0  0  0  0  0  0  0  0  0  0  0  0
    6.0540   -2.8074   19.1075 O   0  0  0  0  0  0  0  0  0  0  0  0
    6.9249   -4.7575   22.7791 H   0  0  0  0  0  0  0  0  0  0  0  0
    5.2191   -4.3079   22.8812 H   0  0  0  0  0  0  0  0  0  0  0  0
    7.0702   -0.2312   21.9383 H   0  0  0  0  0  0  0  0  0  0  0  0
    9.1710   -1.3423   21.8432 H   0  0  0  0  0  0  0  0  0  0  0  0
    9.0526   -1.6206   20.0856 H   0  0  0  0  0  0  0  0  0  0  0  0
    9.2156    0.0265   20.7260 H   0  0  0  0  0  0  0  0  0  0  0  0
  1  2  1  0
  2  3  1  0
  3  4  2  0
  4  5  1  0
  5  6  2  0
  6  7  1  0
  7  8  2  0
  8  9  1  0
  6 10  1  0
  5 11  1  0
  4 12  1  0
  2 13  1  0
 13 14  1  0
 14 15  2  0
 14 16  1  0
 16 17  1  0
 17 18  1  0
 18 19  1  0
 18 20  1  0
 18 21  1  0
 17 22  1  0
 22 23  2  0
 16 24  1  0
 16 25  1  0
  2 26  1  1
  1 27  1  0
  1 28  1  0
  1 29  1  0
  8  3  1  0
 22 13  1  0
M  END
>  <plip>  (1) 
-0.14285714285714285

>  <filename>  (1) 
[H][c]1[n][c]([H])[c]([C@@]([H])([N]2[C](=[O])[N]([C]([H])([H])[H])[C]([H])([H])[C]2=[O])[C]([H])([H])[H])[c]([H])[c]1[H]

$$$$
