
     RDKit          3D

 50 52  0  0  0  0  0  0  0  0999 V2000
    9.1648    8.1814   25.0395 N   0  0  0  0  0  4  0  0  0  0  0  0
    8.5069    6.9420   25.5538 C   0  0  2  0  0  0  0  0  0  0  0  0
    9.5338    6.0146   26.2124 C   0  0  0  0  0  0  0  0  0  0  0  0
    8.9353    4.6048   26.0767 C   0  0  1  0  0  0  0  0  0  0  0  0
    8.3350    4.1500   27.2821 O   0  0  0  0  0  0  0  0  0  0  0  0
    9.0354    3.9164   27.9184 H   0  0  0  0  0  0  0  0  0  0  0  0
    7.8242    4.7021   24.9988 C   0  0  2  0  0  0  0  0  0  0  0  0
    7.8708    3.6170   23.9423 N   0  0  0  0  0  4  0  0  0  0  0  0
    9.1041    3.6623   23.0269 C   0  0  0  0  0  0  0  0  0  0  0  0
    9.4719    2.2799   22.4825 C   0  0  0  0  0  0  0  0  0  0  0  0
    8.2291    1.4362   22.1784 C   0  0  0  0  0  0  0  0  0  0  0  0
    8.6069    0.1168   21.4904 C   0  0  0  0  0  0  0  0  0  0  0  0
    7.4145   -0.7180   20.9888 C   0  0  0  0  0  0  0  0  0  0  0  0
    6.6405   -0.0125   19.8984 C   0  0  0  0  0  0  0  0  0  0  0  0
    5.4319    0.6487   20.1476 C   0  0  0  0  0  0  0  0  0  0  0  0
    4.7990    1.3175   19.0965 C   0  0  0  0  0  0  0  0  0  0  0  0
    5.3950    1.3001   17.8308 C   0  0  0  0  0  0  0  0  0  0  0  0
    6.5582    0.6880   17.5705 N   0  0  0  0  0  0  0  0  0  0  0  0
    7.1569    0.0615   18.5905 C   0  0  0  0  0  0  0  0  0  0  0  0
    8.1097   -0.4171   18.3663 H   0  0  0  0  0  0  0  0  0  0  0  0
    4.9168    1.7912   16.9854 H   0  0  0  0  0  0  0  0  0  0  0  0
    3.8676    1.8477   19.2469 H   0  0  0  0  0  0  0  0  0  0  0  0
    5.0013    0.6358   21.1537 H   0  0  0  0  0  0  0  0  0  0  0  0
    6.7450   -0.9428   21.8304 H   0  0  0  0  0  0  0  0  0  0  0  0
    7.7798   -1.6860   20.6189 H   0  0  0  0  0  0  0  0  0  0  0  0
    9.2621    0.3364   20.6370 H   0  0  0  0  0  0  0  0  0  0  0  0
    9.2100   -0.4826   22.1869 H   0  0  0  0  0  0  0  0  0  0  0  0
    7.3980    1.2043   23.4651 C   0  0  0  0  0  0  0  0  0  0  0  0
    7.6339    2.2525   24.5540 C   0  0  0  0  0  0  0  0  0  0  0  0
    8.5069    1.9830   25.1531 H   0  0  0  0  0  0  0  0  0  0  0  0
    6.7884    2.3108   25.2472 H   0  0  0  0  0  0  0  0  0  0  0  0
    6.3317    1.1688   23.2124 H   0  0  0  0  0  0  0  0  0  0  0  0
    7.6368    0.2255   23.8981 H   0  0  0  0  0  0  0  0  0  0  0  0
    7.6058    2.0302   21.4903 H   0  0  0  0  0  0  0  0  0  0  0  0
   10.0753    2.4237   21.5804 H   0  0  0  0  0  0  0  0  0  0  0  0
   10.1034    1.7425   23.2027 H   0  0  0  0  0  0  0  0  0  0  0  0
    9.9386    4.0793   23.5948 H   0  0  0  0  0  0  0  0  0  0  0  0
    8.8972    4.3460   22.1948 H   0  0  0  0  0  0  0  0  0  0  0  0
    7.0568    3.7631   23.3048 H   0  0  0  0  0  0  0  0  0  0  0  0
    7.8894    6.1180   24.4233 C   0  0  0  0  0  0  0  0  0  0  0  0
    8.5310    6.1320   23.5352 H   0  0  0  0  0  0  0  0  0  0  0  0
    6.9023    6.4809   24.1148 H   0  0  0  0  0  0  0  0  0  0  0  0
    6.9034    4.5711   25.5722 H   0  0  0  0  0  0  0  0  0  0  0  0
    9.6662    3.8768   25.7057 H   0  0  0  0  0  0  0  0  0  0  0  0
   10.4925    6.0653   25.6839 H   0  0  0  0  0  0  0  0  0  0  0  0
    9.7019    6.2638   27.2647 H   0  0  0  0  0  0  0  0  0  0  0  0
    7.7245    7.1859   26.2839 H   0  0  0  0  0  0  0  0  0  0  0  0
    9.6122    8.7067   25.8101 H   0  0  0  0  0  0  0  0  0  0  0  0
    9.8934    7.8939   24.3592 H   0  0  0  0  0  0  0  0  0  0  0  0
    8.4786    8.7818   24.5501 H   0  0  0  0  0  0  0  0  0  0  0  0
  1  2  1  0
  2  3  1  0
  3  4  1  0
  4  5  1  0
  5  6  1  0
  4  7  1  0
  7  8  1  0
  8  9  1  0
  9 10  1  0
 10 11  1  0
 11 12  1  0
 12 13  1  0
 13 14  1  0
 14 15  2  0
 15 16  1  0
 16 17  2  0
 17 18  1  0
 18 19  2  0
 19 20  1  0
 17 21  1  0
 16 22  1  0
 15 23  1  0
 13 24  1  0
 13 25  1  0
 12 26  1  0
 12 27  1  0
 11 28  1  0
 28 29  1  0
 29 30  1  0
 29 31  1  0
 28 32  1  0
 28 33  1  0
 11 34  1  0
 10 35  1  0
 10 36  1  0
  9 37  1  0
  9 38  1  0
  8 39  1  0
  7 40  1  0
 40 41  1  0
 40 42  1  0
  7 43  1  1
  4 44  1  6
  3 45  1  0
  3 46  1  0
  2 47  1  1
  1 48  1  0
  1 49  1  0
  1 50  1  0
 40  2  1  0
 29  8  1  0
 19 14  1  0
M  CHG  2   1   1   8   1
M  END
>  <plip>  (1) 
-0.10714285714285714

>  <filename>  (1) 
[H][O][C@]1([H])[C]([H])([H])[C@@]([H])([N+]([H])([H])[H])[C]([H])([H])[C@@]1([H])[N+]1([H])[C]([H])([H])[C]([H])([H])[C]([H])([C]([H])([H])[C]([H])([H])[c]2[c]([H])[n][c]([H])[c]([H])[c]2[H])[C]([H])([H])[C]1([H])[H]

$$$$
