
     RDKit          3D

 30 31  0  0  0  0  0  0  0  0999 V2000
    6.0873    5.1564   20.2698 H   0  0  0  0  0  0  0  0  0  0  0  0
    6.6022    5.2858   21.0845 O   0  0  0  0  0  0  0  0  0  0  0  0
    5.9881    4.5157   22.1074 C   0  0  0  0  0  0  0  0  0  0  0  0
    5.6147    3.5471   21.7304 H   0  0  0  0  0  0  0  0  0  0  0  0
    5.1271    5.0635   22.5220 H   0  0  0  0  0  0  0  0  0  0  0  0
    6.9933    4.2355   23.2297 C   0  0  0  0  0  0  0  0  0  0  0  0
    7.4510    5.1736   23.5638 H   0  0  0  0  0  0  0  0  0  0  0  0
    6.4474    3.8309   24.0873 H   0  0  0  0  0  0  0  0  0  0  0  0
    8.0545    3.2861   22.8884 N   0  0  0  0  0  0  0  0  0  0  0  0
    8.8848    3.6302   22.4265 H   0  0  0  0  0  0  0  0  0  0  0  0
    7.7448    2.0058   22.5772 C   0  0  0  0  0  0  0  0  0  0  0  0
    6.6787    1.4731   22.8041 O   0  0  0  0  0  0  0  0  0  0  0  0
    8.7874    1.2891   21.9342 N   0  0  0  0  0  0  0  0  0  0  0  0
   10.0969    1.6687   21.9005 N   0  0  0  0  0  0  0  0  0  0  0  0
   10.7214    0.7225   21.3220 N   0  0  0  0  0  0  0  0  0  0  0  0
    9.8828   -0.2694   20.9468 N   0  0  0  0  0  0  0  0  0  0  0  0
    8.6849    0.0877   21.3276 C   0  0  0  0  0  0  0  0  0  0  0  0
    7.4319   -0.6465   20.9841 C   0  0  0  0  0  0  0  0  0  0  0  0
    7.7624   -1.6429   20.6732 H   0  0  0  0  0  0  0  0  0  0  0  0
    6.8117   -0.7632   21.8743 H   0  0  0  0  0  0  0  0  0  0  0  0
    6.6490    0.0314   19.8711 C   0  0  0  0  0  0  0  0  0  0  0  0
    7.1466    0.0477   18.5552 C   0  0  0  0  0  0  0  0  0  0  0  0
    8.0865   -0.4568   18.3319 H   0  0  0  0  0  0  0  0  0  0  0  0
    6.5438    0.6597   17.5290 N   0  0  0  0  0  0  0  0  0  0  0  0
    5.3920    1.2957   17.7858 C   0  0  0  0  0  0  0  0  0  0  0  0
    4.9284    1.7955   16.9357 H   0  0  0  0  0  0  0  0  0  0  0  0
    4.8005    1.3393   19.0503 C   0  0  0  0  0  0  0  0  0  0  0  0
    3.8700    1.8790   19.1864 H   0  0  0  0  0  0  0  0  0  0  0  0
    5.4484    0.7042   20.1177 C   0  0  0  0  0  0  0  0  0  0  0  0
    5.0604    0.7403   21.1350 H   0  0  0  0  0  0  0  0  0  0  0  0
  1  2  1  0
  2  3  1  0
  3  4  1  0
  3  5  1  0
  3  6  1  0
  6  7  1  0
  6  8  1  0
  6  9  1  0
  9 10  1  0
  9 11  1  0
 11 12  2  0
 11 13  1  0
 13 14  1  0
 14 15  2  0
 15 16  1  0
 16 17  2  0
 17 18  1  0
 18 19  1  0
 18 20  1  0
 18 21  1  0
 21 22  2  0
 22 23  1  0
 22 24  1  0
 24 25  2  0
 25 26  1  0
 25 27  1  0
 27 28  1  0
 27 29  2  0
 29 30  1  0
 17 13  1  0
 29 21  1  0
M  END
>  <plip>  (1) 
-0.13793103448275862

>  <filename>  (1) 
[H][O][C]([H])([H])[C]([H])([H])[N]([H])[C](=[O])[n]1[n][n][n][c]1[C]([H])([H])[c]1[c]([H])[n][c]([H])[c]([H])[c]1[H]

$$$$
