
     RDKit          3D

 37 38  0  0  0  0  0  0  0  0999 V2000
   10.4280    0.9917   22.0261 C   0  0  0  0  0  0  0  0  0  0  0  0
    9.0599    1.3244   21.4200 C   0  0  0  0  0  0  0  0  0  0  0  0
    7.9533    0.5234   21.9738 N   0  0  0  0  0  0  0  0  0  0  0  0
    7.7414    0.4555   23.3228 C   0  0  0  0  0  0  0  0  0  0  0  0
    7.2552   -0.5038   23.8990 O   0  0  0  0  0  0  0  0  0  0  0  0
    8.1213    1.6190   23.9794 N   0  0  0  0  0  0  0  0  0  0  0  0
    8.0603    1.6471   25.3365 C   0  0  0  0  0  0  0  0  0  0  0  0
    8.4916    0.5911   26.1232 C   0  0  0  0  0  0  0  0  0  0  0  0
    8.3871    0.8136   27.4776 C   0  0  0  0  0  0  0  0  0  0  0  0
    7.9222    1.9653   27.9913 N   0  0  0  0  0  0  0  0  0  0  0  0
    7.5568    2.8932   27.1145 C   0  0  0  0  0  0  0  0  0  0  0  0
    7.5935    2.7961   25.7891 N   0  0  0  0  0  0  0  0  0  0  0  0
    7.1977    3.8410   27.5164 H   0  0  0  0  0  0  0  0  0  0  0  0
    8.6754    0.0353   28.1895 H   0  0  0  0  0  0  0  0  0  0  0  0
    8.8348   -0.3241   25.6710 H   0  0  0  0  0  0  0  0  0  0  0  0
    7.6741    2.4571   23.6482 H   0  0  0  0  0  0  0  0  0  0  0  0
    7.3254   -0.5378   21.1701 C   0  0  0  0  0  0  0  0  0  0  0  0
    8.2934   -1.6619   20.8515 C   0  0  0  0  0  0  0  0  0  0  0  0
    7.7325   -2.4606   20.3706 H   0  0  0  0  0  0  0  0  0  0  0  0
    8.7232   -2.0718   21.7668 H   0  0  0  0  0  0  0  0  0  0  0  0
    9.1052   -1.3272   20.1987 H   0  0  0  0  0  0  0  0  0  0  0  0
    6.6233    0.0611   19.9762 C   0  0  0  0  0  0  0  0  0  0  0  0
    5.3911    0.7030   20.1663 C   0  0  0  0  0  0  0  0  0  0  0  0
    4.7811    1.3249   19.0787 C   0  0  0  0  0  0  0  0  0  0  0  0
    5.4217    1.2828   17.8340 C   0  0  0  0  0  0  0  0  0  0  0  0
    6.5838    0.6515   17.6246 N   0  0  0  0  0  0  0  0  0  0  0  0
    7.1615    0.0626   18.6835 C   0  0  0  0  0  0  0  0  0  0  0  0
    8.1078   -0.4377   18.4732 H   0  0  0  0  0  0  0  0  0  0  0  0
    4.9716    1.7642   16.9688 H   0  0  0  0  0  0  0  0  0  0  0  0
    3.8361    1.8455   19.1875 H   0  0  0  0  0  0  0  0  0  0  0  0
    4.9355    0.7219   21.1609 H   0  0  0  0  0  0  0  0  0  0  0  0
    6.5289   -0.9663   21.7935 H   0  0  0  0  0  0  0  0  0  0  0  0
    9.0906    1.1582   20.3378 H   0  0  0  0  0  0  0  0  0  0  0  0
    8.8349    2.3910   21.5619 H   0  0  0  0  0  0  0  0  0  0  0  0
   10.6467   -0.0765   21.9014 H   0  0  0  0  0  0  0  0  0  0  0  0
   11.2027    1.5792   21.5172 H   0  0  0  0  0  0  0  0  0  0  0  0
   10.4677    1.2290   23.0962 H   0  0  0  0  0  0  0  0  0  0  0  0
  1  2  1  0
  2  3  1  0
  3  4  1  0
  4  5  2  0
  4  6  1  0
  6  7  1  0
  7  8  2  0
  8  9  1  0
  9 10  2  0
 10 11  1  0
 11 12  2  0
 11 13  1  0
  9 14  1  0
  8 15  1  0
  6 16  1  0
  3 17  1  0
 17 18  1  0
 18 19  1  0
 18 20  1  0
 18 21  1  0
 17 22  1  0
 22 23  2  0
 23 24  1  0
 24 25  2  0
 25 26  1  0
 26 27  2  0
 27 28  1  0
 25 29  1  0
 24 30  1  0
 23 31  1  0
 17 32  1  0
  2 33  1  0
  2 34  1  0
  1 35  1  0
  1 36  1  0
  1 37  1  0
 12  7  1  0
 27 22  1  0
M  END
>  <plip>  (1) 
-0.0

>  <filename>  (1) 
[H][c]1[n][c]([H])[c]([H])[c]([N]([H])[C](=[O])[N]([C]([H])([H])[C]([H])([H])[H])[C]([H])([c]2[c]([H])[n][c]([H])[c]([H])[c]2[H])[C]([H])([H])[H])[n]1

$$$$
