
     RDKit          3D

 43 45  0  0  0  0  0  0  0  0999 V2000
    7.7113   -5.4293   26.6147 O   0  0  0  0  0  0  0  0  0  0  0  0
    8.5712   -4.9029   25.9348 C   0  0  0  0  0  0  0  0  0  0  0  0
    8.3518   -3.6069   25.1783 C   0  0  0  0  0  0  0  0  0  0  0  0
    9.2931   -3.3537   23.9838 C   0  0  0  0  0  0  0  0  0  0  0  0
    9.2582   -1.8744   23.5614 C   0  0  0  0  0  0  0  0  0  0  0  0
    8.0179   -1.4316   22.8454 N   0  0  0  0  0  4  0  0  0  0  0  0
    7.9519   -1.9664   21.4125 C   0  0  0  0  0  0  0  0  0  0  0  0
    6.7710   -1.3789   20.6487 C   0  0  0  0  0  0  0  0  0  0  0  0
    6.8770    0.0843   20.5825 N   0  0  0  0  0  0  0  0  0  0  0  0
    6.2159    0.7266   19.4959 C   0  0  0  0  0  0  0  0  0  0  0  0
    5.0231    1.4708   19.6019 C   0  0  0  0  0  0  0  0  0  0  0  0
    4.5098    2.0916   18.4544 C   0  0  0  0  0  0  0  0  0  0  0  0
    5.1968    1.9747   17.2429 C   0  0  0  0  0  0  0  0  0  0  0  0
    6.3135    1.2359   17.1042 N   0  0  0  0  0  0  0  0  0  0  0  0
    6.7812    0.6299   18.2001 C   0  0  0  0  0  0  0  0  0  0  0  0
    7.6786    0.0219   18.0865 H   0  0  0  0  0  0  0  0  0  0  0  0
    4.8445    2.4834   16.3483 H   0  0  0  0  0  0  0  0  0  0  0  0
    3.5914    2.6733   18.4819 H   0  0  0  0  0  0  0  0  0  0  0  0
    4.5184    1.5568   20.5626 H   0  0  0  0  0  0  0  0  0  0  0  0
    6.8278    0.6646   21.9270 C   0  0  0  0  0  0  0  0  0  0  0  0
    7.9604    0.1008   22.7994 C   0  0  0  0  0  0  0  0  0  0  0  0
    7.8565    0.4819   23.8194 H   0  0  0  0  0  0  0  0  0  0  0  0
    8.9138    0.4559   22.3895 H   0  0  0  0  0  0  0  0  0  0  0  0
    6.9529    1.7520   21.8572 H   0  0  0  0  0  0  0  0  0  0  0  0
    5.8673    0.4666   22.4376 H   0  0  0  0  0  0  0  0  0  0  0  0
    5.8475   -1.6952   21.1667 H   0  0  0  0  0  0  0  0  0  0  0  0
    6.7545   -1.7916   19.6357 H   0  0  0  0  0  0  0  0  0  0  0  0
    8.8812   -1.6878   20.9055 H   0  0  0  0  0  0  0  0  0  0  0  0
    7.8725   -3.0546   21.4218 H   0  0  0  0  0  0  0  0  0  0  0  0
    7.2013   -1.7973   23.3912 H   0  0  0  0  0  0  0  0  0  0  0  0
    9.3938   -1.2476   24.4568 H   0  0  0  0  0  0  0  0  0  0  0  0
   10.1122   -1.6447   22.9088 H   0  0  0  0  0  0  0  0  0  0  0  0
   10.7467   -3.7013   24.3483 C   0  0  0  0  0  0  0  0  0  0  0  0
   10.9652   -5.0188   25.1080 C   0  0  0  0  0  0  0  0  0  0  0  0
    9.8049   -5.4519   25.8644 N   0  0  0  0  0  0  0  0  0  0  0  0
    9.8437   -6.2502   26.4837 H   0  0  0  0  0  0  0  0  0  0  0  0
   11.8016   -4.9115   25.8011 H   0  0  0  0  0  0  0  0  0  0  0  0
   11.2608   -5.8039   24.4171 H   0  0  0  0  0  0  0  0  0  0  0  0
   11.1402   -2.8979   24.9633 H   0  0  0  0  0  0  0  0  0  0  0  0
   11.3499   -3.6909   23.4314 H   0  0  0  0  0  0  0  0  0  0  0  0
    8.9823   -3.9886   23.1395 H   0  0  0  0  0  0  0  0  0  0  0  0
    8.4803   -2.8197   25.9331 H   0  0  0  0  0  0  0  0  0  0  0  0
    7.2967   -3.6001   24.8863 H   0  0  0  0  0  0  0  0  0  0  0  0
  1  2  2  0
  2  3  1  0
  3  4  1  0
  4  5  1  0
  5  6  1  0
  6  7  1  0
  7  8  1  0
  8  9  1  0
  9 10  1  0
 10 11  2  0
 11 12  1  0
 12 13  2  0
 13 14  1  0
 14 15  2  0
 15 16  1  0
 13 17  1  0
 12 18  1  0
 11 19  1  0
  9 20  1  0
 20 21  1  0
 21 22  1  0
 21 23  1  0
 20 24  1  0
 20 25  1  0
  8 26  1  0
  8 27  1  0
  7 28  1  0
  7 29  1  0
  6 30  1  0
  5 31  1  0
  5 32  1  0
  4 33  1  0
 33 34  1  0
 34 35  1  0
 35 36  1  0
 34 37  1  0
 34 38  1  0
 33 39  1  0
 33 40  1  0
  4 41  1  0
  3 42  1  0
  3 43  1  0
 35  2  1  0
 21  6  1  0
 15 10  1  0
M  CHG  1   6   1
M  END
>  <plip>  (1) 
-0.13793103448275862

>  <filename>  (1) 
[H][c]1[n][c]([H])[c]([N]2[C]([H])([H])[C]([H])([H])[N+]([H])([C]([H])([H])[C]3([H])[C]([H])([H])[C](=[O])[N]([H])[C]([H])([H])[C]3([H])[H])[C]([H])([H])[C]2([H])[H])[c]([H])[c]1[H]

$$$$
