
     RDKit          3D

 46 48  0  0  0  0  0  0  0  0999 V2000
    4.7856    2.1310   18.2401 C   0  0  0  0  0  0  0  0  0  0  0  0
    5.3769    1.6748   17.0612 C   0  0  0  0  0  0  0  0  0  0  0  0
    6.3905    0.7970   17.0331 N   0  0  0  0  0  0  0  0  0  0  0  0
    6.8408    0.3377   18.2074 C   0  0  0  0  0  0  0  0  0  0  0  0
    6.3065    0.7033   19.4514 C   0  0  0  0  0  0  0  0  0  0  0  0
    6.8770    0.1032   20.7044 C   0  0  0  0  0  0  0  0  0  0  0  0
    6.3879   -1.2872   20.7720 N   0  0  0  0  0  4  0  0  0  0  0  0
    6.7462   -2.0542   21.9929 C   0  0  0  0  0  0  0  0  0  0  0  0
    8.2807   -2.3096   22.0337 C   0  0  0  0  0  0  0  0  0  0  0  0
    8.6859   -3.5942   22.7924 C   0  0  0  0  0  0  0  0  0  0  0  0
    7.6905   -3.9112   23.9106 C   0  0  0  0  0  0  0  0  0  0  0  0
    8.2319   -4.9550   24.8343 N   0  0  0  0  0  4  0  0  0  0  0  0
    9.5925   -4.5913   25.4185 C   0  0  0  0  0  0  0  0  0  0  0  0
    9.6936   -5.3068   26.7684 C   0  0  0  0  0  0  0  0  0  0  0  0
    8.3811   -6.0870   26.9038 C   0  0  0  0  0  0  0  0  0  0  0  0
    7.3880   -5.3347   26.0298 C   0  0  0  0  0  0  0  0  0  0  0  0
    6.9975   -4.4296   26.5181 H   0  0  0  0  0  0  0  0  0  0  0  0
    6.5363   -5.9535   25.7343 H   0  0  0  0  0  0  0  0  0  0  0  0
    8.5241   -7.0732   26.4526 H   0  0  0  0  0  0  0  0  0  0  0  0
    8.0571   -6.2244   27.9402 H   0  0  0  0  0  0  0  0  0  0  0  0
   10.5638   -5.9663   26.8064 H   0  0  0  0  0  0  0  0  0  0  0  0
    9.8232   -4.5716   27.5685 H   0  0  0  0  0  0  0  0  0  0  0  0
    9.6176   -3.5056   25.5580 H   0  0  0  0  0  0  0  0  0  0  0  0
   10.3927   -4.8722   24.7248 H   0  0  0  0  0  0  0  0  0  0  0  0
    8.3493   -5.8284   24.2736 H   0  0  0  0  0  0  0  0  0  0  0  0
    6.3232   -4.2720   23.2801 C   0  0  0  0  0  0  0  0  0  0  0  0
    5.9621   -3.3724   22.0420 C   0  0  0  0  0  0  0  0  0  0  0  0
    4.8878   -3.1461   22.0156 H   0  0  0  0  0  0  0  0  0  0  0  0
    6.2098   -3.9110   21.1166 H   0  0  0  0  0  0  0  0  0  0  0  0
    5.5488   -4.2084   24.0565 H   0  0  0  0  0  0  0  0  0  0  0  0
    6.3602   -5.3267   22.9664 H   0  0  0  0  0  0  0  0  0  0  0  0
    7.5562   -3.0016   24.5180 H   0  0  0  0  0  0  0  0  0  0  0  0
    9.6992   -3.4848   23.1919 H   0  0  0  0  0  0  0  0  0  0  0  0
    8.7004   -4.4610   22.1159 H   0  0  0  0  0  0  0  0  0  0  0  0
    8.6494   -2.3759   20.9999 H   0  0  0  0  0  0  0  0  0  0  0  0
    8.7599   -1.4356   22.4997 H   0  0  0  0  0  0  0  0  0  0  0  0
    6.4637   -1.4530   22.8706 H   0  0  0  0  0  0  0  0  0  0  0  0
    5.3551   -1.2496   20.6013 H   0  0  0  0  0  0  0  0  0  0  0  0
    6.7825   -1.7913   19.9432 H   0  0  0  0  0  0  0  0  0  0  0  0
    7.9757    0.1254   20.6855 H   0  0  0  0  0  0  0  0  0  0  0  0
    6.5630    0.6644   21.5925 H   0  0  0  0  0  0  0  0  0  0  0  0
    5.2597    1.6376   19.4600 C   0  0  0  0  0  0  0  0  0  0  0  0
    4.8135    1.9733   20.4002 H   0  0  0  0  0  0  0  0  0  0  0  0
    7.6984   -0.3380   18.1452 H   0  0  0  0  0  0  0  0  0  0  0  0
    5.0264    2.0469   16.1009 H   0  0  0  0  0  0  0  0  0  0  0  0
    3.9915    2.8690   18.1780 H   0  0  0  0  0  0  0  0  0  0  0  0
  1  2  2  0
  2  3  1  0
  3  4  2  0
  4  5  1  0
  5  6  1  0
  6  7  1  0
  7  8  1  0
  8  9  1  0
  9 10  1  0
 10 11  1  0
 11 12  1  0
 12 13  1  0
 13 14  1  0
 14 15  1  0
 15 16  1  0
 16 17  1  0
 16 18  1  0
 15 19  1  0
 15 20  1  0
 14 21  1  0
 14 22  1  0
 13 23  1  0
 13 24  1  0
 12 25  1  0
 11 26  1  0
 26 27  1  0
 27 28  1  0
 27 29  1  0
 26 30  1  0
 26 31  1  0
 11 32  1  0
 10 33  1  0
 10 34  1  0
  9 35  1  0
  9 36  1  0
  8 37  1  0
  7 38  1  0
  7 39  1  0
  6 40  1  0
  6 41  1  0
  5 42  2  0
 42 43  1  0
  4 44  1  0
  2 45  1  0
  1 46  1  0
 42  1  1  0
 27  8  1  0
 16 12  1  0
M  CHG  2   7   1  12   1
M  END
>  <plip>  (1) 
-0.13793103448275862

>  <filename>  (1) 
[H][c]1[n][c]([H])[c]([C]([H])([H])[N+]([H])([H])[C]2([H])[C]([H])([H])[C]([H])([H])[C]([H])([N+]3([H])[C]([H])([H])[C]([H])([H])[C]([H])([H])[C]3([H])[H])[C]([H])([H])[C]2([H])[H])[c]([H])[c]1[H]

$$$$
