
     RDKit          3D

 56 58  0  0  0  0  0  0  0  0999 V2000
    9.9270    7.7356   30.2695 C   0  0  0  0  0  0  0  0  0  0  0  0
   10.5863    7.3775   29.0710 O   0  0  0  0  0  0  0  0  0  0  0  0
   10.0045    6.5686   28.1492 C   0  0  0  0  0  0  0  0  0  0  0  0
    8.7319    6.0024   28.2756 C   0  0  0  0  0  0  0  0  0  0  0  0
    8.2313    5.1166   27.3137 C   0  0  0  0  0  0  0  0  0  0  0  0
    8.9960    4.7695   26.1867 C   0  0  0  0  0  0  0  0  0  0  0  0
    8.5203    3.7318   25.2346 C   0  0  0  0  0  0  0  0  0  0  0  0
    7.3561    3.1510   25.3418 N   0  0  0  0  0  0  0  0  0  0  0  0
    7.1204    2.2428   24.3519 C   0  0  0  0  0  0  0  0  0  0  0  0
    5.7864    1.5590   24.3887 C   0  0  0  0  0  0  0  0  0  0  0  0
    5.1185    2.1402   25.0245 H   0  0  0  0  0  0  0  0  0  0  0  0
    5.8697    0.5572   24.8249 H   0  0  0  0  0  0  0  0  0  0  0  0
    5.3396    1.4867   23.3932 H   0  0  0  0  0  0  0  0  0  0  0  0
    8.1420    2.0859   23.4560 C   0  0  0  0  0  0  0  0  0  0  0  0
    8.2159    1.2356   22.2522 C   0  0  0  0  0  0  0  0  0  0  0  0
    8.9261    1.5077   21.2970 O   0  0  0  0  0  0  0  0  0  0  0  0
    7.4871    0.0767   22.2886 N   0  0  0  0  0  0  0  0  0  0  0  0
    7.3184   -0.7600   21.0939 C   0  0  0  0  0  0  0  0  0  0  0  0
    6.5483   -0.0345   19.9885 C   0  0  0  0  0  0  0  0  0  0  0  0
    5.3128    0.6073   20.1546 C   0  0  0  0  0  0  0  0  0  0  0  0
    4.7618    1.2928   19.0628 C   0  0  0  0  0  0  0  0  0  0  0  0
    5.4494    1.2973   17.8426 C   0  0  0  0  0  0  0  0  0  0  0  0
    6.6208    0.6732   17.6543 N   0  0  0  0  0  0  0  0  0  0  0  0
    7.1424    0.0494   18.7190 C   0  0  0  0  0  0  0  0  0  0  0  0
    8.1125   -0.4199   18.5562 H   0  0  0  0  0  0  0  0  0  0  0  0
    5.0427    1.8130   16.9715 H   0  0  0  0  0  0  0  0  0  0  0  0
    3.8223    1.8318   19.1398 H   0  0  0  0  0  0  0  0  0  0  0  0
    4.7866    0.5925   21.1140 H   0  0  0  0  0  0  0  0  0  0  0  0
    6.8546   -2.2213   21.4227 C   0  0  0  0  0  0  0  0  0  0  0  0
    6.7045   -2.8864   20.2036 O   0  0  0  0  0  0  0  0  0  0  0  0
    6.3943   -4.2669   20.2613 C   0  0  0  0  0  0  0  0  0  0  0  0
    7.1161   -4.8411   20.8645 H   0  0  0  0  0  0  0  0  0  0  0  0
    6.4162   -4.6412   19.2379 H   0  0  0  0  0  0  0  0  0  0  0  0
    5.3896   -4.4453   20.6536 H   0  0  0  0  0  0  0  0  0  0  0  0
    5.6687   -2.2457   22.1475 O   0  0  0  0  0  0  0  0  0  0  0  0
    5.3949   -3.3066   23.0468 C   0  0  0  0  0  0  0  0  0  0  0  0
    4.3140   -3.4731   23.0041 H   0  0  0  0  0  0  0  0  0  0  0  0
    5.6478   -3.0268   24.0789 H   0  0  0  0  0  0  0  0  0  0  0  0
    5.9027   -4.2489   22.7958 H   0  0  0  0  0  0  0  0  0  0  0  0
    7.6765   -2.6740   22.0105 H   0  0  0  0  0  0  0  0  0  0  0  0
    8.3274   -0.9095   20.6956 H   0  0  0  0  0  0  0  0  0  0  0  0
    6.8109   -0.0039   23.0254 H   0  0  0  0  0  0  0  0  0  0  0  0
    9.4379    3.1732   23.8569 S   0  0  0  0  0  0  0  0  0  0  0  0
   10.2313    5.4322   26.0015 C   0  0  0  0  0  0  0  0  0  0  0  0
   10.7689    6.2747   26.9737 C   0  0  0  0  0  0  0  0  0  0  0  0
   11.9942    6.8528   26.8609 O   0  0  0  0  0  0  0  0  0  0  0  0
   12.8730    6.4389   25.8348 C   0  0  0  0  0  0  0  0  0  0  0  0
   12.5389    6.7791   24.8447 H   0  0  0  0  0  0  0  0  0  0  0  0
   13.8245    6.9051   26.0766 H   0  0  0  0  0  0  0  0  0  0  0  0
   12.9957    5.3475   25.8198 H   0  0  0  0  0  0  0  0  0  0  0  0
   10.8106    5.3067   25.0938 H   0  0  0  0  0  0  0  0  0  0  0  0
    7.2503    4.6703   27.4530 H   0  0  0  0  0  0  0  0  0  0  0  0
    8.1317    6.2370   29.1493 H   0  0  0  0  0  0  0  0  0  0  0  0
    8.9968    8.2860   30.0796 H   0  0  0  0  0  0  0  0  0  0  0  0
   10.6217    8.3911   30.7971 H   0  0  0  0  0  0  0  0  0  0  0  0
    9.7181    6.8668   30.9076 H   0  0  0  0  0  0  0  0  0  0  0  0
  1  2  1  0
  2  3  1  0
  3  4  2  0
  4  5  1  0
  5  6  2  0
  6  7  1  0
  7  8  2  0
  8  9  1  0
  9 10  1  0
 10 11  1  0
 10 12  1  0
 10 13  1  0
  9 14  2  0
 14 15  1  0
 15 16  2  0
 15 17  1  0
 17 18  1  0
 18 19  1  0
 19 20  2  0
 20 21  1  0
 21 22  2  0
 22 23  1  0
 23 24  2  0
 24 25  1  0
 22 26  1  0
 21 27  1  0
 20 28  1  0
 18 29  1  0
 29 30  1  0
 30 31  1  0
 31 32  1  0
 31 33  1  0
 31 34  1  0
 29 35  1  0
 35 36  1  0
 36 37  1  0
 36 38  1  0
 36 39  1  0
 29 40  1  0
 18 41  1  0
 17 42  1  0
 14 43  1  0
  6 44  1  0
 44 45  2  0
 45 46  1  0
 46 47  1  0
 47 48  1  0
 47 49  1  0
 47 50  1  0
 44 51  1  0
  5 52  1  0
  4 53  1  0
  1 54  1  0
  1 55  1  0
  1 56  1  0
 45  3  1  0
 43  7  1  0
 24 19  1  0
M  END
>  <plip>  (1) 
-0.21428571428571427

>  <filename>  (1) 
[H][c]1[n][c]([H])[c]([C]([H])([N]([H])[C](=[O])[c]2[s][c](-[c]3[c]([H])[c]([H])[c]([O][C]([H])([H])[H])[c]([O][C]([H])([H])[H])[c]3[H])[n][c]2[C]([H])([H])[H])[C]([H])([O][C]([H])([H])[H])[O][C]([H])([H])[H])[c]([H])[c]1[H]

$$$$
