
     RDKit          3D

 41 44  0  0  0  0  0  0  0  0999 V2000
    8.9821   -3.3439   22.3344 C   0  0  0  0  0  0  0  0  0  0  0  0
    8.3074   -2.0907   22.0674 N   0  0  0  0  0  0  0  0  0  0  0  0
    8.0994   -1.0867   22.9414 C   0  0  0  0  0  0  0  0  0  0  0  0
    7.3893   -0.1079   22.2750 C   0  0  0  0  0  0  0  0  0  0  0  0
    6.8641    1.2109   22.7619 C   0  0  0  0  0  0  0  0  0  0  0  0
    7.7226    1.7085   23.8676 N   0  0  0  0  0  4  0  0  0  0  0  0
    7.5638    0.8727   25.1768 C   0  0  0  0  0  0  0  0  0  0  0  0
    7.3897    1.9572   26.2389 C   0  0  1  0  0  0  0  0  0  0  0  0
    8.7504    2.6662   26.3873 C   0  0  0  0  0  0  0  0  0  0  0  0
    8.8873    3.4591   25.0546 C   0  0  0  0  0  0  0  0  0  0  0  0
    7.5590    3.1492   24.3420 C   0  0  2  0  0  0  0  0  0  0  0  0
    6.5452    2.9886   25.4799 C   0  0  0  0  0  0  0  0  0  0  0  0
    5.6002    2.5727   25.1132 H   0  0  0  0  0  0  0  0  0  0  0  0
    6.3408    3.9113   26.0281 H   0  0  0  0  0  0  0  0  0  0  0  0
    7.2851    3.8357   23.5382 H   0  0  0  0  0  0  0  0  0  0  0  0
    9.7314    3.1114   24.4457 H   0  0  0  0  0  0  0  0  0  0  0  0
    9.0367    4.5263   25.2330 H   0  0  0  0  0  0  0  0  0  0  0  0
    8.7343    3.3422   27.2432 H   0  0  0  0  0  0  0  0  0  0  0  0
    9.5594    1.9432   26.5250 H   0  0  0  0  0  0  0  0  0  0  0  0
    6.9690    1.5636   27.1662 H   0  0  0  0  0  0  0  0  0  0  0  0
    6.6870    0.2283   25.0785 H   0  0  0  0  0  0  0  0  0  0  0  0
    8.4594    0.2723   25.3479 H   0  0  0  0  0  0  0  0  0  0  0  0
    8.6842    1.5955   23.4932 H   0  0  0  0  0  0  0  0  0  0  0  0
    5.8307    1.1070   23.1240 H   0  0  0  0  0  0  0  0  0  0  0  0
    6.8191    1.9438   21.9461 H   0  0  0  0  0  0  0  0  0  0  0  0
    7.1964   -0.6425   20.9805 C   0  0  0  0  0  0  0  0  0  0  0  0
    6.5056    0.0048   19.8648 C   0  0  0  0  0  0  0  0  0  0  0  0
    5.2856    0.6920   20.0086 C   0  0  0  0  0  0  0  0  0  0  0  0
    4.7624    1.3555   18.9048 C   0  0  0  0  0  0  0  0  0  0  0  0
    5.4723    1.3244   17.7009 C   0  0  0  0  0  0  0  0  0  0  0  0
    6.6308    0.6620   17.5431 N   0  0  0  0  0  0  0  0  0  0  0  0
    7.1130    0.0038   18.6001 C   0  0  0  0  0  0  0  0  0  0  0  0
    8.0385   -0.5515   18.4485 H   0  0  0  0  0  0  0  0  0  0  0  0
    5.1094    1.8560   16.8263 H   0  0  0  0  0  0  0  0  0  0  0  0
    3.8347    1.9134   18.9637 H   0  0  0  0  0  0  0  0  0  0  0  0
    4.7573    0.7209   20.9643 H   0  0  0  0  0  0  0  0  0  0  0  0
    7.7934   -1.8279   20.8628 N   0  0  0  0  0  0  0  0  0  0  0  0
    8.4882   -1.1403   23.9519 H   0  0  0  0  0  0  0  0  0  0  0  0
   10.0725   -3.2264   22.2724 H   0  0  0  0  0  0  0  0  0  0  0  0
    8.7111   -3.6936   23.3365 H   0  0  0  0  0  0  0  0  0  0  0  0
    8.6242   -4.0652   21.5969 H   0  0  0  0  0  0  0  0  0  0  0  0
  1  2  1  0
  2  3  1  0
  3  4  2  0
  4  5  1  0
  5  6  1  0
  6  7  1  0
  7  8  1  0
  8  9  1  0
  9 10  1  0
 10 11  1  0
 11 12  1  0
 12 13  1  0
 12 14  1  0
 11 15  1  6
 10 16  1  0
 10 17  1  0
  9 18  1  0
  9 19  1  0
  8 20  1  1
  7 21  1  0
  7 22  1  0
  6 23  1  0
  5 24  1  0
  5 25  1  0
  4 26  1  0
 26 27  1  0
 27 28  2  0
 28 29  1  0
 29 30  2  0
 30 31  1  0
 31 32  2  0
 32 33  1  0
 30 34  1  0
 29 35  1  0
 28 36  1  0
 26 37  2  0
  3 38  1  0
  1 39  1  0
  1 40  1  0
  1 41  1  0
 37  2  1  0
 11  6  1  0
 32 27  1  0
 12  8  1  0
M  CHG  1   6   1
M  END
>  <plip>  (1) 
-0.07142857142857142

>  <filename>  (1) 
[H][c]1[n][c]([H])[c](-[c]2[n][n]([C]([H])([H])[H])[c]([H])[c]2[C]([H])([H])[N+]2([H])[C]([H])([H])[C@@]3([H])[C]([H])([H])[C]([H])([H])[C@]2([H])[C]3([H])[H])[c]([H])[c]1[H]

$$$$
