
     RDKit          3D

 50 52  0  0  0  0  0  0  0  0999 V2000
    6.9332    0.6970   24.0710 C   0  0  0  0  0  0  0  0  0  0  0  0
    7.1394    1.0652   22.7214 O   0  0  0  0  0  0  0  0  0  0  0  0
    8.0781    0.2719   22.0151 C   0  0  0  0  0  0  0  0  0  0  0  0
    8.9379    1.1009   21.2992 O   0  0  0  0  0  0  0  0  0  0  0  0
    9.7689    1.9054   22.1222 C   0  0  0  0  0  0  0  0  0  0  0  0
   10.4656    1.2860   22.7114 H   0  0  0  0  0  0  0  0  0  0  0  0
   10.3475    2.5513   21.4584 H   0  0  0  0  0  0  0  0  0  0  0  0
    9.1793    2.5293   22.8087 H   0  0  0  0  0  0  0  0  0  0  0  0
    7.4296   -0.7218   20.9855 C   0  0  0  0  0  0  0  0  0  0  0  0
    6.6312   -1.7714   21.6213 N   0  0  0  0  0  0  0  0  0  0  0  0
    7.1918   -2.7860   22.3501 C   0  0  0  0  0  0  0  0  0  0  0  0
    8.3944   -2.9666   22.3228 O   0  0  0  0  0  0  0  0  0  0  0  0
    6.1823   -3.6845   23.0994 C   0  0  0  0  0  0  0  0  0  0  0  0
    5.6788   -4.7572   22.0987 C   0  0  0  0  0  0  0  0  0  0  0  0
    6.8021   -5.7562   21.8242 C   0  0  0  0  0  0  0  0  0  0  0  0
    7.1116   -6.4838   23.1364 C   0  0  0  0  0  0  0  0  0  0  0  0
    7.3394   -5.5763   24.3548 C   0  0  0  0  0  0  0  0  0  0  0  0
    7.9958   -6.0415   25.5160 C   0  0  0  0  0  0  0  0  0  0  0  0
    8.1343   -5.2333   26.6421 C   0  0  0  0  0  0  0  0  0  0  0  0
    8.7674   -5.6603   27.7709 O   0  0  0  0  0  0  0  0  0  0  0  0
    9.1252   -6.5464   27.6141 H   0  0  0  0  0  0  0  0  0  0  0  0
    7.6301   -3.9300   26.6363 C   0  0  0  0  0  0  0  0  0  0  0  0
    6.9783   -3.4556   25.4985 C   0  0  0  0  0  0  0  0  0  0  0  0
    6.8104   -4.2708   24.3592 C   0  0  0  0  0  0  0  0  0  0  0  0
    6.5858   -2.4376   25.4883 H   0  0  0  0  0  0  0  0  0  0  0  0
    7.8030   -3.3318   27.5212 H   0  0  0  0  0  0  0  0  0  0  0  0
    8.4287   -7.0325   25.5896 H   0  0  0  0  0  0  0  0  0  0  0  0
    7.9440   -7.1886   23.0087 H   0  0  0  0  0  0  0  0  0  0  0  0
    6.2101   -7.0848   23.3397 H   0  0  0  0  0  0  0  0  0  0  0  0
    7.6852   -5.2317   21.4431 H   0  0  0  0  0  0  0  0  0  0  0  0
    6.5050   -6.4831   21.0572 H   0  0  0  0  0  0  0  0  0  0  0  0
    4.8289   -5.2969   22.5337 H   0  0  0  0  0  0  0  0  0  0  0  0
    5.3113   -4.2839   21.1808 H   0  0  0  0  0  0  0  0  0  0  0  0
    5.3483   -3.0397   23.4038 H   0  0  0  0  0  0  0  0  0  0  0  0
    5.6503   -1.5899   21.7365 H   0  0  0  0  0  0  0  0  0  0  0  0
    6.6248   -0.0402   19.8931 C   0  0  0  0  0  0  0  0  0  0  0  0
    5.4193    0.6332   20.1375 C   0  0  0  0  0  0  0  0  0  0  0  0
    4.7884    1.2919   19.0797 C   0  0  0  0  0  0  0  0  0  0  0  0
    5.3948    1.2744   17.8180 C   0  0  0  0  0  0  0  0  0  0  0  0
    6.5438    0.6352   17.5601 N   0  0  0  0  0  0  0  0  0  0  0  0
    7.1369    0.0124   18.5880 C   0  0  0  0  0  0  0  0  0  0  0  0
    8.0854   -0.4739   18.3521 H   0  0  0  0  0  0  0  0  0  0  0  0
    4.9491    1.8210   16.9888 H   0  0  0  0  0  0  0  0  0  0  0  0
    3.8660    1.8450   19.2289 H   0  0  0  0  0  0  0  0  0  0  0  0
    5.0046    0.6803   21.1450 H   0  0  0  0  0  0  0  0  0  0  0  0
    8.2940   -1.2146   20.5320 H   0  0  0  0  0  0  0  0  0  0  0  0
    8.6601   -0.3539   22.7176 H   0  0  0  0  0  0  0  0  0  0  0  0
    6.1264    1.3325   24.4420 H   0  0  0  0  0  0  0  0  0  0  0  0
    6.6309   -0.3575   24.1695 H   0  0  0  0  0  0  0  0  0  0  0  0
    7.8261    0.8677   24.6952 H   0  0  0  0  0  0  0  0  0  0  0  0
  1  2  1  0
  2  3  1  0
  3  4  1  0
  4  5  1  0
  5  6  1  0
  5  7  1  0
  5  8  1  0
  3  9  1  0
  9 10  1  0
 10 11  1  0
 11 12  2  0
 11 13  1  0
 13 14  1  0
 14 15  1  0
 15 16  1  0
 16 17  1  0
 17 18  2  0
 18 19  1  0
 19 20  1  0
 20 21  1  0
 19 22  2  0
 22 23  1  0
 23 24  2  0
 23 25  1  0
 22 26  1  0
 18 27  1  0
 16 28  1  0
 16 29  1  0
 15 30  1  0
 15 31  1  0
 14 32  1  0
 14 33  1  0
 13 34  1  0
 10 35  1  0
  9 36  1  0
 36 37  2  0
 37 38  1  0
 38 39  2  0
 39 40  1  0
 40 41  2  0
 41 42  1  0
 39 43  1  0
 38 44  1  0
 37 45  1  0
  9 46  1  0
  3 47  1  0
  1 48  1  0
  1 49  1  0
  1 50  1  0
 24 13  1  0
 41 36  1  0
 24 17  1  0
M  END
>  <plip>  (1) 
-0.2

>  <filename>  (1) 
[H][O][c]1[c]([H])[c]([H])[c]2[c]([c]1[H])[C]([H])([H])[C]([H])([H])[C]([H])([H])[C]2([H])[C](=[O])[N]([H])[C]([H])([c]1[c]([H])[n][c]([H])[c]([H])[c]1[H])[C]([H])([O][C]([H])([H])[H])[O][C]([H])([H])[H]

$$$$
