
     RDKit          3D

 26 27  0  0  0  0  0  0  0  0999 V2000
    5.0249    1.8344   16.9243 H   0  0  0  0  0  0  0  0  0  0  0  0
    5.4570    1.3600   17.8015 C   0  0  0  0  0  0  0  0  0  0  0  0
    6.6546    0.7859   17.6255 N   0  0  0  0  0  0  0  0  0  0  0  0
    7.2186    0.1984   18.6886 C   0  0  0  0  0  0  0  0  0  0  0  0
    8.2021   -0.2393   18.5094 H   0  0  0  0  0  0  0  0  0  0  0  0
    6.6158    0.1112   19.9514 C   0  0  0  0  0  0  0  0  0  0  0  0
    7.2245   -0.7122   21.0702 C   0  0  1  0  0  0  0  0  0  0  0  0
    7.0603   -0.1681   22.0068 H   0  0  0  0  0  0  0  0  0  0  0  0
    6.5630   -2.0803   21.2265 C   0  0  0  0  0  0  0  0  0  0  0  0
    6.2555   -2.8752   20.1036 C   0  0  0  0  0  0  0  0  0  0  0  0
    6.4334   -2.4914   19.1048 H   0  0  0  0  0  0  0  0  0  0  0  0
    5.7742   -4.1756   20.2197 C   0  0  0  0  0  0  0  0  0  0  0  0
    5.5648   -4.7887   19.3508 H   0  0  0  0  0  0  0  0  0  0  0  0
    5.5865   -4.7161   21.4871 C   0  0  0  0  0  0  0  0  0  0  0  0
    5.0648   -6.3616   21.6671 Cl  0  0  0  0  0  0  0  0  0  0  0  0
    5.8265   -3.9535   22.6299 C   0  0  0  0  0  0  0  0  0  0  0  0
    5.6547   -4.3678   23.6150 H   0  0  0  0  0  0  0  0  0  0  0  0
    6.3092   -2.6486   22.4863 C   0  0  0  0  0  0  0  0  0  0  0  0
    6.5901   -1.7506   23.9580 Cl  0  0  0  0  0  0  0  0  0  0  0  0
    8.6622   -0.9192   20.9165 N   0  0  0  0  0  0  0  0  0  0  0  0
    9.1016   -0.0351   20.6834 H   0  0  0  0  0  0  0  0  0  0  0  0
    8.8084   -1.5633   20.1458 H   0  0  0  0  0  0  0  0  0  0  0  0
    5.3713    0.7466   20.1281 C   0  0  0  0  0  0  0  0  0  0  0  0
    4.8840    0.7407   21.1061 H   0  0  0  0  0  0  0  0  0  0  0  0
    4.7826    1.3729   19.0287 C   0  0  0  0  0  0  0  0  0  0  0  0
    3.8316    1.8849   19.1087 H   0  0  0  0  0  0  0  0  0  0  0  0
  1  2  1  0
  2  3  2  0
  3  4  1  0
  4  5  1  0
  4  6  2  0
  6  7  1  0
  7  8  1  1
  7  9  1  0
  9 10  2  0
 10 11  1  0
 10 12  1  0
 12 13  1  0
 12 14  2  0
 14 15  1  0
 14 16  1  0
 16 17  1  0
 16 18  2  0
 18 19  1  0
  7 20  1  0
 20 21  1  0
 20 22  1  0
  6 23  1  0
 23 24  1  0
 23 25  2  0
 25 26  1  0
 25  2  1  0
 18  9  1  0
M  END
>  <plip>  (1) 
-0.03333333333333333

>  <filename>  (1) 
[H][c]1[n][c]([H])[c]([C@@]([H])([c]2[c]([H])[c]([H])[c]([Cl])[c]([H])[c]2[Cl])[N]([H])[H])[c]([H])[c]1[H]

$$$$
