
     RDKit          3D

 34 36  0  0  0  0  0  0  0  0999 V2000
    4.9114    1.8429   16.9462 H   0  0  0  0  0  0  0  0  0  0  0  0
    5.3858    1.3386   17.7856 C   0  0  0  0  0  0  0  0  0  0  0  0
    6.5463    0.7166   17.5301 N   0  0  0  0  0  0  0  0  0  0  0  0
    7.1587    0.0952   18.5467 C   0  0  0  0  0  0  0  0  0  0  0  0
    8.0955   -0.3998   18.2945 H   0  0  0  0  0  0  0  0  0  0  0  0
    6.6501    0.0315   19.8580 C   0  0  0  0  0  0  0  0  0  0  0  0
    7.3215   -0.7292   20.9308 C   0  0  0  0  0  0  0  0  0  0  0  0
    6.8354   -1.6691   21.7558 C   0  0  0  0  0  0  0  0  0  0  0  0
    5.8702   -2.1577   21.8257 H   0  0  0  0  0  0  0  0  0  0  0  0
    7.8117   -2.0847   22.6267 O   0  0  0  0  0  0  0  0  0  0  0  0
    8.9528   -1.3759   22.3796 C   0  0  0  0  0  0  0  0  0  0  0  0
    9.9859   -1.4773   22.9983 O   0  0  0  0  0  0  0  0  0  0  0  0
    8.6824   -0.5969   21.2758 N   0  0  0  0  0  0  0  0  0  0  0  0
    9.5911    0.4783   20.9741 C   0  0  0  0  0  0  0  0  0  0  0  0
   10.6073    0.0832   21.0744 H   0  0  0  0  0  0  0  0  0  0  0  0
    9.4461    0.7630   19.9281 H   0  0  0  0  0  0  0  0  0  0  0  0
    9.4285    1.6434   21.7959 N   0  0  0  0  0  0  0  0  0  0  0  0
    8.1648    2.3644   21.6060 C   0  0  0  0  0  0  0  0  0  0  0  0
    7.3057    1.8229   22.0400 H   0  0  0  0  0  0  0  0  0  0  0  0
    7.9693    2.4711   20.5345 H   0  0  0  0  0  0  0  0  0  0  0  0
    8.2108    3.7382   22.2931 C   0  0  0  0  0  0  0  0  0  0  0  0
    8.9061    4.4276   21.7997 H   0  0  0  0  0  0  0  0  0  0  0  0
    7.2218    4.2089   22.2743 H   0  0  0  0  0  0  0  0  0  0  0  0
    8.5630    3.6115   23.6676 O   0  0  0  0  0  0  0  0  0  0  0  0
    9.8196    2.9636   23.8302 C   0  0  0  0  0  0  0  0  0  0  0  0
    9.9910    2.8964   24.9098 H   0  0  0  0  0  0  0  0  0  0  0  0
   10.6253    3.5760   23.3947 H   0  0  0  0  0  0  0  0  0  0  0  0
    9.8263    1.5628   23.2047 C   0  0  0  0  0  0  0  0  0  0  0  0
    9.1626    0.9172   23.8065 H   0  0  0  0  0  0  0  0  0  0  0  0
   10.8387    1.1489   23.2748 H   0  0  0  0  0  0  0  0  0  0  0  0
    5.4271    0.6866   20.0951 C   0  0  0  0  0  0  0  0  0  0  0  0
    4.9861    0.6769   21.0917 H   0  0  0  0  0  0  0  0  0  0  0  0
    4.7855    1.3486   19.0459 C   0  0  0  0  0  0  0  0  0  0  0  0
    3.8419    1.8680   19.1872 H   0  0  0  0  0  0  0  0  0  0  0  0
  1  2  1  0
  2  3  2  0
  3  4  1  0
  4  5  1  0
  4  6  2  0
  6  7  1  0
  7  8  2  0
  8  9  1  0
  8 10  1  0
 10 11  1  0
 11 12  2  0
 11 13  1  0
 13 14  1  0
 14 15  1  0
 14 16  1  0
 14 17  1  0
 17 18  1  0
 18 19  1  0
 18 20  1  0
 18 21  1  0
 21 22  1  0
 21 23  1  0
 21 24  1  0
 24 25  1  0
 25 26  1  0
 25 27  1  0
 25 28  1  0
 28 29  1  0
 28 30  1  0
  6 31  1  0
 31 32  1  0
 31 33  2  0
 33 34  1  0
 33  2  1  0
 13  7  1  0
 28 17  1  0
M  END
>  <plip>  (1) 
-0.07142857142857142

>  <filename>  (1) 
[H][c]1[n][c]([H])[c](-[c]2[c]([H])[o][c](=[O])[n]2[C]([H])([H])[N]2[C]([H])([H])[C]([H])([H])[O][C]([H])([H])[C]2([H])[H])[c]([H])[c]1[H]

$$$$
