
     RDKit          3D

 30 31  0  0  0  0  0  0  0  0999 V2000
    9.7001   -4.1160   24.7721 C   0  0  0  0  0  0  0  0  0  0  0  0
    8.7906   -4.0611   23.5907 C   0  0  0  0  0  0  0  0  0  0  0  0
    8.7576   -2.9881   22.7116 C   0  0  0  0  0  0  0  0  0  0  0  0
    7.7942   -3.0903   21.7341 C   0  0  0  0  0  0  0  0  0  0  0  0
    7.5907   -2.1843   20.7353 N   0  0  0  0  0  0  0  0  0  0  0  0
    7.5510   -0.6445   21.3338 S   0  0  0  0  0  0  0  0  0  0  0  0
    6.7307   -0.6026   22.5234 O   0  0  0  0  0  0  0  0  0  0  0  0
    8.9187   -0.1862   21.3082 O   0  0  0  0  0  0  0  0  0  0  0  0
    6.6540    0.0147   20.0414 C   0  0  0  0  0  0  0  0  0  0  0  0
    5.4768    0.7364   20.2317 C   0  0  0  0  0  0  0  0  0  0  0  0
    4.8843    1.2389   19.0800 C   0  0  0  0  0  0  0  0  0  0  0  0
    5.5020    1.0162   17.8431 C   0  0  0  0  0  0  0  0  0  0  0  0
    6.6304    0.3052   17.6965 N   0  0  0  0  0  0  0  0  0  0  0  0
    7.1986   -0.2042   18.7864 C   0  0  0  0  0  0  0  0  0  0  0  0
    8.0958   -0.8026   18.6271 H   0  0  0  0  0  0  0  0  0  0  0  0
    5.0655    1.4265   16.9344 H   0  0  0  0  0  0  0  0  0  0  0  0
    3.9643    1.8064   19.1308 H   0  0  0  0  0  0  0  0  0  0  0  0
    5.0591    0.8962   21.2299 H   0  0  0  0  0  0  0  0  0  0  0  0
    6.6408   -2.3940   20.4813 H   0  0  0  0  0  0  0  0  0  0  0  0
    6.9515   -4.0950   21.5984 N   0  0  0  0  0  0  0  0  0  0  0  0
    7.1080   -5.1140   22.4417 C   0  0  0  0  0  0  0  0  0  0  0  0
    6.2562   -6.4233   22.2879 C   0  0  0  0  0  0  0  0  0  0  0  0
    5.4481   -6.3971   21.2182 F   0  0  0  0  0  0  0  0  0  0  0  0
    7.0507   -7.4991   22.1442 F   0  0  0  0  0  0  0  0  0  0  0  0
    5.4899   -6.6562   23.3688 F   0  0  0  0  0  0  0  0  0  0  0  0
    7.9876   -5.1151   23.4436 N   0  0  0  0  0  0  0  0  0  0  0  0
    9.4089   -2.1314   22.7408 H   0  0  0  0  0  0  0  0  0  0  0  0
    9.2704   -3.5289   25.5896 H   0  0  0  0  0  0  0  0  0  0  0  0
   10.7000   -3.7355   24.5470 H   0  0  0  0  0  0  0  0  0  0  0  0
    9.7773   -5.1495   25.1168 H   0  0  0  0  0  0  0  0  0  0  0  0
  1  2  1  0
  2  3  2  0
  3  4  1  0
  4  5  1  0
  5  6  1  0
  6  7  2  0
  6  8  2  0
  6  9  1  0
  9 10  2  0
 10 11  1  0
 11 12  2  0
 12 13  1  0
 13 14  2  0
 14 15  1  0
 12 16  1  0
 11 17  1  0
 10 18  1  0
  5 19  1  0
  4 20  2  0
 20 21  1  0
 21 22  1  0
 22 23  1  0
 22 24  1  0
 22 25  1  0
 21 26  2  0
  3 27  1  0
  1 28  1  0
  1 29  1  0
  1 30  1  0
 26  2  1  0
 14  9  1  0
M  END
>  <plip>  (1) 
-0.06896551724137931

>  <filename>  (1) 
[H][c]1[n][c]([H])[c]([S](=[O])(=[O])[N]([H])[c]2[n][c]([C]([F])([F])[F])[n][c]([C]([H])([H])[H])[c]2[H])[c]([H])[c]1[H]

$$$$
