
     RDKit          3D

 32 34  0  0  0  0  0  0  0  0999 V2000
    9.6165    0.0782   20.6127 O   0  0  0  0  0  0  0  0  0  0  0  0
    8.7851   -0.4963   21.2699 C   0  0  0  0  0  0  0  0  0  0  0  0
    9.0404   -1.1940   22.4096 N   0  0  0  0  0  0  0  0  0  0  0  0
    7.8433   -1.6954   23.0526 C   0  0  0  0  0  0  0  0  0  0  0  0
    7.5130   -1.0297   24.4185 C   0  0  0  0  0  0  0  0  0  0  0  0
    7.3807    0.4705   24.3288 C   0  0  0  0  0  0  0  0  0  0  0  0
    8.5031    1.3022   24.4435 C   0  0  0  0  0  0  0  0  0  0  0  0
    8.3525    2.6757   24.2809 C   0  0  0  0  0  0  0  0  0  0  0  0
    7.1739    3.2582   24.0170 N   0  0  0  0  0  0  0  0  0  0  0  0
    6.1355    2.4638   23.8999 C   0  0  0  0  0  0  0  0  0  0  0  0
    4.9662    3.0522   23.6316 F   0  0  0  0  0  0  0  0  0  0  0  0
    6.1578    1.0774   24.0398 C   0  0  0  0  0  0  0  0  0  0  0  0
    5.2400    0.5227   23.9181 H   0  0  0  0  0  0  0  0  0  0  0  0
    9.2005    3.3526   24.3690 H   0  0  0  0  0  0  0  0  0  0  0  0
    9.4840    0.8934   24.6536 H   0  0  0  0  0  0  0  0  0  0  0  0
    6.5826   -1.4647   24.8108 H   0  0  0  0  0  0  0  0  0  0  0  0
    8.3015   -1.2846   25.1441 H   0  0  0  0  0  0  0  0  0  0  0  0
    6.8133   -1.4601   21.9317 C   0  0  0  0  0  0  0  0  0  0  0  0
    5.7545   -2.0213   21.7938 O   0  0  0  0  0  0  0  0  0  0  0  0
    7.4071   -0.6083   21.0010 N   0  0  0  0  0  0  0  0  0  0  0  0
    6.7015    0.0257   19.9213 C   0  0  0  0  0  0  0  0  0  0  0  0
    5.4717    0.6373   20.1747 C   0  0  0  0  0  0  0  0  0  0  0  0
    4.8269    1.2955   19.1241 C   0  0  0  0  0  0  0  0  0  0  0  0
    5.4072    1.2796   17.8533 C   0  0  0  0  0  0  0  0  0  0  0  0
    6.5635    0.6554   17.5830 N   0  0  0  0  0  0  0  0  0  0  0  0
    7.1987    0.0558   18.5971 C   0  0  0  0  0  0  0  0  0  0  0  0
    8.1478   -0.4256   18.3706 H   0  0  0  0  0  0  0  0  0  0  0  0
    4.9310    1.7800   17.0139 H   0  0  0  0  0  0  0  0  0  0  0  0
    3.8956    1.8229   19.2760 H   0  0  0  0  0  0  0  0  0  0  0  0
    5.0424    0.5878   21.1759 H   0  0  0  0  0  0  0  0  0  0  0  0
    7.8796   -2.7785   23.2177 H   0  0  0  0  0  0  0  0  0  0  0  0
    9.9662   -1.0714   22.7864 H   0  0  0  0  0  0  0  0  0  0  0  0
  1  2  2  0
  2  3  1  0
  3  4  1  0
  4  5  1  0
  5  6  1  0
  6  7  2  0
  7  8  1  0
  8  9  2  0
  9 10  1  0
 10 11  1  0
 10 12  2  0
 12 13  1  0
  8 14  1  0
  7 15  1  0
  5 16  1  0
  5 17  1  0
  4 18  1  0
 18 19  2  0
 18 20  1  0
 20 21  1  0
 21 22  2  0
 22 23  1  0
 23 24  2  0
 24 25  1  0
 25 26  2  0
 26 27  1  0
 24 28  1  0
 23 29  1  0
 22 30  1  0
  4 31  1  0
  3 32  1  0
 20  2  1  0
 26 21  1  0
 12  6  1  0
M  END
>  <plip>  (1) 
-0.10714285714285714

>  <filename>  (1) 
[H][c]1[n][c]([H])[c]([N]2[C](=[O])[N]([H])[C]([H])([C]([H])([H])[c]3[c]([H])[c]([H])[n][c]([F])[c]3[H])[C]2=[O])[c]([H])[c]1[H]

$$$$
