
     RDKit          3D

 31 33  0  0  0  0  0  0  0  0999 V2000
    9.2004   -2.9719   22.1971 H   0  0  0  0  0  0  0  0  0  0  0  0
    8.5873   -2.1286   21.8961 C   0  0  0  0  0  0  0  0  0  0  0  0
    8.1254   -1.8271   20.7294 N   0  0  0  0  0  0  0  0  0  0  0  0
    7.3685   -0.6874   20.9500 C   0  0  0  0  0  0  0  0  0  0  0  0
    6.6399    0.0021   19.8896 C   0  0  0  0  0  0  0  0  0  0  0  0
    7.1609    0.0374   18.5828 C   0  0  0  0  0  0  0  0  0  0  0  0
    8.1111   -0.4368   18.3576 H   0  0  0  0  0  0  0  0  0  0  0  0
    6.5626    0.6686   17.5677 N   0  0  0  0  0  0  0  0  0  0  0  0
    5.4056    1.2923   17.8270 C   0  0  0  0  0  0  0  0  0  0  0  0
    4.9384    1.7930   16.9828 H   0  0  0  0  0  0  0  0  0  0  0  0
    4.8026    1.3098   19.0908 C   0  0  0  0  0  0  0  0  0  0  0  0
    3.8748    1.8410   19.2404 H   0  0  0  0  0  0  0  0  0  0  0  0
    5.4246    0.6533   20.1485 C   0  0  0  0  0  0  0  0  0  0  0  0
    4.9935    0.6430   21.1552 H   0  0  0  0  0  0  0  0  0  0  0  0
    7.4704   -0.3311   22.2691 C   0  0  0  0  0  0  0  0  0  0  0  0
    7.0349    1.1323   23.1246 S   0  0  0  0  0  0  0  0  0  0  0  0
    8.3714    2.2331   22.4758 C   0  0  0  0  0  0  0  0  0  0  0  0
    8.3797    2.1545   21.3876 H   0  0  0  0  0  0  0  0  0  0  0  0
    8.0633    3.2515   22.7443 H   0  0  0  0  0  0  0  0  0  0  0  0
    9.6990    1.8515   23.0699 C   0  0  0  0  0  0  0  0  0  0  0  0
   10.6451    1.0883   22.3668 C   0  0  0  0  0  0  0  0  0  0  0  0
   10.4322    0.8098   21.3397 H   0  0  0  0  0  0  0  0  0  0  0  0
   11.8310    0.6616   22.9798 C   0  0  0  0  0  0  0  0  0  0  0  0
   12.5571    0.0786   22.4158 H   0  0  0  0  0  0  0  0  0  0  0  0
   12.0692    0.9830   24.3199 C   0  0  0  0  0  0  0  0  0  0  0  0
   12.9910    0.6802   24.8153 H   0  0  0  0  0  0  0  0  0  0  0  0
   11.0964    1.6954   25.0298 C   0  0  0  0  0  0  0  0  0  0  0  0
   11.1832    1.8843   26.0835 H   0  0  0  0  0  0  0  0  0  0  0  0
    9.9317    2.1416   24.4171 C   0  0  0  0  0  0  0  0  0  0  0  0
    9.1823    2.6815   24.9968 H   0  0  0  0  0  0  0  0  0  0  0  0
    8.2453   -1.2785   22.8820 O   0  0  0  0  0  0  0  0  0  0  0  0
  1  2  1  0
  2  3  2  0
  3  4  1  0
  4  5  1  0
  5  6  2  0
  6  7  1  0
  6  8  1  0
  8  9  2  0
  9 10  1  0
  9 11  1  0
 11 12  1  0
 11 13  2  0
 13 14  1  0
  4 15  2  0
 15 16  1  0
 16 17  1  0
 17 18  1  0
 17 19  1  0
 17 20  1  0
 20 21  2  0
 21 22  1  0
 21 23  1  0
 23 24  1  0
 23 25  2  0
 25 26  1  0
 25 27  1  0
 27 28  1  0
 27 29  2  0
 29 30  1  0
 15 31  1  0
 31  2  1  0
 13  5  1  0
 29 20  1  0
M  END
>  <plip>  (1) 
-0.06666666666666667

>  <filename>  (1) 
[H][c]1[n][c](-[c]2[c]([H])[n][c]([H])[c]([H])[c]2[H])[c]([S][C]([H])([H])[c]2[c]([H])[c]([H])[c]([H])[c]([H])[c]2[H])[o]1

$$$$
