
     RDKit          3D

 37 39  0  0  0  0  0  0  0  0999 V2000
    6.0538   -2.7850   27.5616 N   0  0  0  0  0  0  0  0  0  0  0  0
    6.8648   -3.0111   26.5052 C   0  0  0  0  0  0  0  0  0  0  0  0
    7.0391   -2.1061   25.4916 C   0  0  0  0  0  0  0  0  0  0  0  0
    7.7880   -2.6179   24.4519 C   0  0  0  0  0  0  0  0  0  0  0  0
    7.9696   -1.9331   23.2779 N   0  0  0  0  0  0  0  0  0  0  0  0
    7.6030   -2.6525   22.0591 C   0  0  0  0  0  0  0  0  0  0  0  0
    7.7850   -1.8076   20.7952 C   0  0  0  0  0  0  0  0  0  0  0  0
    7.2907   -0.4353   20.9551 N   0  0  0  0  0  0  0  0  0  0  0  0
    6.6198    0.1735   19.8549 C   0  0  0  0  0  0  0  0  0  0  0  0
    5.4149    0.8498   20.0671 C   0  0  0  0  0  0  0  0  0  0  0  0
    4.7743    1.4113   18.9612 C   0  0  0  0  0  0  0  0  0  0  0  0
    5.3767    1.3121   17.7008 C   0  0  0  0  0  0  0  0  0  0  0  0
    6.5297    0.6597   17.4826 N   0  0  0  0  0  0  0  0  0  0  0  0
    7.1239    0.0953   18.5406 C   0  0  0  0  0  0  0  0  0  0  0  0
    8.0549   -0.4438   18.3602 H   0  0  0  0  0  0  0  0  0  0  0  0
    4.9244    1.7753   16.8292 H   0  0  0  0  0  0  0  0  0  0  0  0
    3.8398    1.9470   19.0742 H   0  0  0  0  0  0  0  0  0  0  0  0
    5.0213    0.9302   21.0806 H   0  0  0  0  0  0  0  0  0  0  0  0
    7.5812    0.2982   22.0977 C   0  0  0  0  0  0  0  0  0  0  0  0
    7.3695    1.4909   22.2249 O   0  0  0  0  0  0  0  0  0  0  0  0
    8.2919   -0.5041   23.1975 C   0  0  0  0  0  0  0  0  0  0  0  0
    8.0736    0.0305   24.1194 H   0  0  0  0  0  0  0  0  0  0  0  0
    9.3612   -0.3440   22.9942 H   0  0  0  0  0  0  0  0  0  0  0  0
    7.1711   -2.2725   20.0230 H   0  0  0  0  0  0  0  0  0  0  0  0
    8.8317   -1.8287   20.4514 H   0  0  0  0  0  0  0  0  0  0  0  0
    8.2045   -3.5652   21.9692 H   0  0  0  0  0  0  0  0  0  0  0  0
    6.5504   -2.9724   22.1191 H   0  0  0  0  0  0  0  0  0  0  0  0
    8.3272   -3.8366   24.4444 N   0  0  0  0  0  0  0  0  0  0  0  0
    8.2039   -4.5496   25.5471 C   0  0  0  0  0  0  0  0  0  0  0  0
    9.0661   -5.8601   25.6066 C   0  0  0  0  0  0  0  0  0  0  0  0
    9.3439   -6.3506   24.3887 F   0  0  0  0  0  0  0  0  0  0  0  0
    8.4647   -6.8439   26.2759 F   0  0  0  0  0  0  0  0  0  0  0  0
   10.2412   -5.6097   26.2156 F   0  0  0  0  0  0  0  0  0  0  0  0
    7.4413   -4.2058   26.5824 N   0  0  0  0  0  0  0  0  0  0  0  0
    6.4637   -1.1981   25.4313 H   0  0  0  0  0  0  0  0  0  0  0  0
    6.1700   -1.8720   27.9640 H   0  0  0  0  0  0  0  0  0  0  0  0
    6.2885   -3.5461   28.1844 H   0  0  0  0  0  0  0  0  0  0  0  0
  1  2  1  0
  2  3  2  0
  3  4  1  0
  4  5  1  0
  5  6  1  0
  6  7  1  0
  7  8  1  0
  8  9  1  0
  9 10  2  0
 10 11  1  0
 11 12  2  0
 12 13  1  0
 13 14  2  0
 14 15  1  0
 12 16  1  0
 11 17  1  0
 10 18  1  0
  8 19  1  0
 19 20  2  0
 19 21  1  0
 21 22  1  0
 21 23  1  0
  7 24  1  0
  7 25  1  0
  6 26  1  0
  6 27  1  0
  4 28  2  0
 28 29  1  0
 29 30  1  0
 30 31  1  0
 30 32  1  0
 30 33  1  0
 29 34  2  0
  3 35  1  0
  1 36  1  0
  1 37  1  0
 34  2  1  0
 21  5  1  0
 14  9  1  0
M  END
>  <plip>  (1) 
-0.06666666666666667

>  <filename>  (1) 
[H][c]1[n][c]([H])[c]([N]2[C](=[O])[C]([H])([H])[N]([c]3[n][c]([C]([F])([F])[F])[n][c]([N]([H])[H])[c]3[H])[C]([H])([H])[C]2([H])[H])[c]([H])[c]1[H]

$$$$
