
     RDKit          3D

 33 34  0  0  0  0  0  0  0  0999 V2000
    6.6381   -1.6484   21.7622 C   0  0  0  0  0  0  0  0  0  0  0  0
    7.3952   -0.7403   20.8816 N   0  0  0  0  0  0  0  0  0  0  0  0
    8.7074   -0.4917   21.2961 C   0  0  0  0  0  0  0  0  0  0  0  0
    9.3551   -1.3323   21.8969 O   0  0  0  0  0  0  0  0  0  0  0  0
    9.2983    0.8840   21.0405 C   0  0  0  0  0  0  0  0  0  0  0  0
    9.2353    1.8148   22.2781 C   0  0  0  0  0  0  0  0  0  0  0  0
    7.8960    2.2543   22.6696 N   0  0  0  0  0  0  0  0  0  0  0  0
    7.1840    3.2710   22.1232 C   0  0  0  0  0  0  0  0  0  0  0  0
    5.8945    3.1849   22.6026 C   0  0  0  0  0  0  0  0  0  0  0  0
    5.9243    2.0650   23.4477 C   0  0  0  0  0  0  0  0  0  0  0  0
    4.8648    1.4730   24.1345 N   0  0  0  0  0  0  0  0  0  0  0  0
    4.2112    2.1635   24.4735 H   0  0  0  0  0  0  0  0  0  0  0  0
    5.2868    0.9619   24.9004 H   0  0  0  0  0  0  0  0  0  0  0  0
    7.1206    1.5101   23.5004 N   0  0  0  0  0  0  0  0  0  0  0  0
    5.0206    3.7684   22.3504 H   0  0  0  0  0  0  0  0  0  0  0  0
    7.6733    3.9793   21.4649 H   0  0  0  0  0  0  0  0  0  0  0  0
    9.6901    1.3504   23.1572 H   0  0  0  0  0  0  0  0  0  0  0  0
    9.8120    2.7216   22.0576 H   0  0  0  0  0  0  0  0  0  0  0  0
   10.3465    0.7162   20.7892 H   0  0  0  0  0  0  0  0  0  0  0  0
    8.7919    1.3694   20.2076 H   0  0  0  0  0  0  0  0  0  0  0  0
    6.7043   -0.0079   19.8519 C   0  0  0  0  0  0  0  0  0  0  0  0
    5.4990    0.6416   20.1457 C   0  0  0  0  0  0  0  0  0  0  0  0
    4.8407    1.3236   19.1135 C   0  0  0  0  0  0  0  0  0  0  0  0
    5.3922    1.3221   17.8279 C   0  0  0  0  0  0  0  0  0  0  0  0
    6.5339    0.6862   17.5210 N   0  0  0  0  0  0  0  0  0  0  0  0
    7.1669    0.0445   18.5144 C   0  0  0  0  0  0  0  0  0  0  0  0
    8.0983   -0.4557   18.2473 H   0  0  0  0  0  0  0  0  0  0  0  0
    4.8982    1.8414   17.0095 H   0  0  0  0  0  0  0  0  0  0  0  0
    3.9060    1.8432   19.2889 H   0  0  0  0  0  0  0  0  0  0  0  0
    5.1087    0.6137   21.1671 H   0  0  0  0  0  0  0  0  0  0  0  0
    5.6937   -1.9243   21.2902 H   0  0  0  0  0  0  0  0  0  0  0  0
    6.4324   -1.1771   22.7380 H   0  0  0  0  0  0  0  0  0  0  0  0
    7.2306   -2.5539   21.9246 H   0  0  0  0  0  0  0  0  0  0  0  0
  1  2  1  0
  2  3  1  0
  3  4  2  0
  3  5  1  0
  5  6  1  0
  6  7  1  0
  7  8  1  0
  8  9  2  0
  9 10  1  0
 10 11  1  0
 11 12  1  0
 11 13  1  0
 10 14  2  0
  9 15  1  0
  8 16  1  0
  6 17  1  0
  6 18  1  0
  5 19  1  0
  5 20  1  0
  2 21  1  0
 21 22  2  0
 22 23  1  0
 23 24  2  0
 24 25  1  0
 25 26  2  0
 26 27  1  0
 24 28  1  0
 23 29  1  0
 22 30  1  0
  1 31  1  0
  1 32  1  0
  1 33  1  0
 14  7  1  0
 26 21  1  0
M  END
>  <plip>  (1) 
-0.07142857142857142

>  <filename>  (1) 
[H][c]1[n][c]([H])[c]([N]([C](=[O])[C]([H])([H])[C]([H])([H])[n]2[n][c]([N]([H])[H])[c]([H])[c]2[H])[C]([H])([H])[H])[c]([H])[c]1[H]

$$$$
