
     RDKit          3D

 26 28  0  0  0  0  0  0  0  0999 V2000
    9.9458   -2.4651   21.8910 H   0  0  0  0  0  0  0  0  0  0  0  0
    9.0117   -1.9124   21.9028 C   0  0  0  0  0  0  0  0  0  0  0  0
    8.5465   -1.3386   20.7532 N   0  0  0  0  0  0  0  0  0  0  0  0
    7.4189   -0.7186   20.9537 C   0  0  0  0  0  0  0  0  0  0  0  0
    6.6679   -0.0010   19.9158 C   0  0  0  0  0  0  0  0  0  0  0  0
    7.1859    0.0488   18.6097 C   0  0  0  0  0  0  0  0  0  0  0  0
    8.1314   -0.4356   18.3800 H   0  0  0  0  0  0  0  0  0  0  0  0
    6.5760    0.6660   17.5938 N   0  0  0  0  0  0  0  0  0  0  0  0
    5.4123    1.2831   17.8472 C   0  0  0  0  0  0  0  0  0  0  0  0
    4.9310    1.7753   17.0034 H   0  0  0  0  0  0  0  0  0  0  0  0
    4.8133    1.3036   19.1108 C   0  0  0  0  0  0  0  0  0  0  0  0
    3.8811    1.8371   19.2603 H   0  0  0  0  0  0  0  0  0  0  0  0
    5.4434    0.6480   20.1659 C   0  0  0  0  0  0  0  0  0  0  0  0
    4.9925    0.6437   21.1595 H   0  0  0  0  0  0  0  0  0  0  0  0
    6.8441   -0.8095   22.6016 S   0  0  0  0  0  0  0  0  0  0  0  0
    8.2442   -1.7425   23.0223 C   0  0  0  0  0  0  0  0  0  0  0  0
    8.5369   -2.2390   24.3716 C   0  0  0  0  0  0  0  0  0  0  0  0
    9.6830   -2.9324   24.5180 N   0  0  0  0  0  0  0  0  0  0  0  0
    9.9038   -3.5423   25.6850 C   0  0  0  0  0  0  0  0  0  0  0  0
   10.8468   -4.0686   25.8097 H   0  0  0  0  0  0  0  0  0  0  0  0
    9.0234   -3.4525   26.7661 C   0  0  0  0  0  0  0  0  0  0  0  0
    9.2408   -4.2142   27.8425 F   0  0  0  0  0  0  0  0  0  0  0  0
    7.9143   -2.6143   26.6910 C   0  0  0  0  0  0  0  0  0  0  0  0
    7.2834   -2.4255   27.5552 H   0  0  0  0  0  0  0  0  0  0  0  0
    7.6594   -2.0224   25.4524 C   0  0  0  0  0  0  0  0  0  0  0  0
    6.7609   -1.4382   25.3103 H   0  0  0  0  0  0  0  0  0  0  0  0
  1  2  1  0
  2  3  1  0
  3  4  2  0
  4  5  1  0
  5  6  2  0
  6  7  1  0
  6  8  1  0
  8  9  2  0
  9 10  1  0
  9 11  1  0
 11 12  1  0
 11 13  2  0
 13 14  1  0
  4 15  1  0
 15 16  1  0
 16 17  1  0
 17 18  2  0
 18 19  1  0
 19 20  1  0
 19 21  2  0
 21 22  1  0
 21 23  1  0
 23 24  1  0
 23 25  2  0
 25 26  1  0
 16  2  2  0
 25 17  1  0
 13  5  1  0
M  END
>  <plip>  (1) 
-0.03571428571428571

>  <filename>  (1) 
[H][c]1[n][c](-[c]2[c]([H])[n][c]([H])[c]([H])[c]2[H])[s][c]1-[c]1[n][c]([H])[c]([F])[c]([H])[c]1[H]

$$$$
