
     RDKit          3D

 42 44  0  0  0  0  0  0  0  0999 V2000
    4.9297    1.7888   16.9959 H   0  0  0  0  0  0  0  0  0  0  0  0
    5.4079    1.2897   17.8342 C   0  0  0  0  0  0  0  0  0  0  0  0
    6.5718    0.6761   17.5681 N   0  0  0  0  0  0  0  0  0  0  0  0
    7.1942    0.0715   18.5899 C   0  0  0  0  0  0  0  0  0  0  0  0
    8.1389   -0.4178   18.3613 H   0  0  0  0  0  0  0  0  0  0  0  0
    6.6846    0.0126   19.9092 C   0  0  0  0  0  0  0  0  0  0  0  0
    7.3763   -0.6518   20.9553 N   0  0  0  0  0  0  0  0  0  0  0  0
    6.7494   -1.4714   21.8842 C   0  0  0  0  0  0  0  0  0  0  0  0
    5.6737   -2.0162   21.7179 O   0  0  0  0  0  0  0  0  0  0  0  0
    7.7631   -1.7576   23.0333 C   0  0  2  0  0  0  0  0  0  0  0  0
    7.6983   -2.8534   23.1060 H   0  0  0  0  0  0  0  0  0  0  0  0
    7.5982   -1.1326   24.3830 N   0  0  0  0  0  0  0  0  0  0  0  0
    6.2215   -1.1113   24.9150 C   0  0  0  0  0  0  0  0  0  0  0  0
    5.6030   -0.6138   24.1744 H   0  0  0  0  0  0  0  0  0  0  0  0
    6.2167   -0.4731   25.8113 H   0  0  0  0  0  0  0  0  0  0  0  0
    5.6924   -2.5044   25.3194 C   0  0  0  0  0  0  0  0  0  0  0  0
    4.6647   -2.4190   25.6901 H   0  0  0  0  0  0  0  0  0  0  0  0
    5.6498   -3.1499   24.4187 H   0  0  0  0  0  0  0  0  0  0  0  0
    6.5485   -3.0838   26.3787 N   0  0  0  0  0  0  0  0  0  0  0  0
    6.0802   -4.3809   26.8661 C   0  0  0  0  0  0  0  0  0  0  0  0
    5.7901   -5.0537   26.0330 H   0  0  0  0  0  0  0  0  0  0  0  0
    6.9155   -4.8792   27.3770 H   0  0  0  0  0  0  0  0  0  0  0  0
    4.9298   -4.2334   27.8558 C   0  0  0  0  0  0  0  0  0  0  0  0
    4.6803   -5.2000   28.3053 H   0  0  0  0  0  0  0  0  0  0  0  0
    4.0265   -3.8480   27.3732 H   0  0  0  0  0  0  0  0  0  0  0  0
    5.2075   -3.5394   28.6538 H   0  0  0  0  0  0  0  0  0  0  0  0
    7.9488   -3.1244   25.9251 C   0  0  0  0  0  0  0  0  0  0  0  0
    8.0908   -3.8666   25.1125 H   0  0  0  0  0  0  0  0  0  0  0  0
    8.5783   -3.4399   26.7674 H   0  0  0  0  0  0  0  0  0  0  0  0
    8.4498   -1.7476   25.4286 C   0  0  0  0  0  0  0  0  0  0  0  0
    8.4675   -1.0553   26.2828 H   0  0  0  0  0  0  0  0  0  0  0  0
    9.4785   -1.8424   25.0614 H   0  0  0  0  0  0  0  0  0  0  0  0
    9.1198   -1.3295   22.4265 C   0  0  0  0  0  0  0  0  0  0  0  0
    9.5934   -0.5848   23.0702 H   0  0  0  0  0  0  0  0  0  0  0  0
    9.7945   -2.1865   22.3720 H   0  0  0  0  0  0  0  0  0  0  0  0
    8.8358   -0.7400   21.0303 C   0  0  0  0  0  0  0  0  0  0  0  0
    9.2848    0.2516   20.8976 H   0  0  0  0  0  0  0  0  0  0  0  0
    9.2273   -1.3865   20.2314 H   0  0  0  0  0  0  0  0  0  0  0  0
    5.4529    0.6410   20.1596 C   0  0  0  0  0  0  0  0  0  0  0  0
    5.0092    0.6084   21.1519 H   0  0  0  0  0  0  0  0  0  0  0  0
    4.8154    1.3026   19.1045 C   0  0  0  0  0  0  0  0  0  0  0  0
    3.8812    1.8335   19.2580 H   0  0  0  0  0  0  0  0  0  0  0  0
  1  2  1  0
  2  3  2  0
  3  4  1  0
  4  5  1  0
  4  6  2  0
  6  7  1  0
  7  8  1  0
  8  9  2  0
  8 10  1  0
 10 11  1  1
 10 12  1  0
 12 13  1  0
 13 14  1  0
 13 15  1  0
 13 16  1  0
 16 17  1  0
 16 18  1  0
 16 19  1  0
 19 20  1  0
 20 21  1  0
 20 22  1  0
 20 23  1  0
 23 24  1  0
 23 25  1  0
 23 26  1  0
 19 27  1  0
 27 28  1  0
 27 29  1  0
 27 30  1  0
 30 31  1  0
 30 32  1  0
 10 33  1  0
 33 34  1  0
 33 35  1  0
 33 36  1  0
 36 37  1  0
 36 38  1  0
  6 39  1  0
 39 40  1  0
 39 41  2  0
 41 42  1  0
 41  2  1  0
 36  7  1  0
 30 12  1  0
M  END
>  <plip>  (1) 
-0.07142857142857142

>  <filename>  (1) 
[H][c]1[n][c]([H])[c]([N]2[C](=[O])[C@]([H])([N]3[C]([H])([H])[C]([H])([H])[N]([C]([H])([H])[C]([H])([H])[H])[C]([H])([H])[C]3([H])[H])[C]([H])([H])[C]2([H])[H])[c]([H])[c]1[H]

$$$$
