
     RDKit          3D

 27 29  0  0  0  0  0  0  0  0999 V2000
    4.9326    1.8188   16.9533 H   0  0  0  0  0  0  0  0  0  0  0  0
    5.3792    1.2987   17.8022 C   0  0  0  0  0  0  0  0  0  0  0  0
    6.5446    0.6725   17.5698 N   0  0  0  0  0  0  0  0  0  0  0  0
    7.1332    0.0546   18.6023 C   0  0  0  0  0  0  0  0  0  0  0  0
    8.0900   -0.4212   18.3694 H   0  0  0  0  0  0  0  0  0  0  0  0
    6.6131    0.0198   19.9116 C   0  0  0  0  0  0  0  0  0  0  0  0
    7.2949   -0.6999   21.0071 C   0  0  0  0  0  0  0  0  0  0  0  0
    7.7488   -0.2098   22.1847 C   0  0  0  0  0  0  0  0  0  0  0  0
    7.7294    1.2034   22.5468 C   0  0  0  0  0  0  0  0  0  0  0  0
    7.9296    1.6588   23.8125 N   0  0  0  0  0  0  0  0  0  0  0  0
    7.8182    2.9508   23.7769 N   0  0  0  0  0  0  0  0  0  0  0  0
    7.5700    3.2515   22.5208 N   0  0  0  0  0  0  0  0  0  0  0  0
    7.4399    4.2092   22.2142 H   0  0  0  0  0  0  0  0  0  0  0  0
    7.5145    2.2188   21.7026 N   0  0  0  0  0  0  0  0  0  0  0  0
    8.3683   -1.2752   23.0730 C   0  0  0  0  0  0  0  0  0  0  0  0
    7.8821   -1.2845   24.0578 H   0  0  0  0  0  0  0  0  0  0  0  0
    9.4273   -1.0508   23.2751 H   0  0  0  0  0  0  0  0  0  0  0  0
    8.1744   -2.5869   22.2613 C   0  0  0  0  0  0  0  0  0  0  0  0
    7.4615   -3.2593   22.7538 H   0  0  0  0  0  0  0  0  0  0  0  0
    9.1080   -3.1460   22.1640 H   0  0  0  0  0  0  0  0  0  0  0  0
    7.6973   -2.1326   20.8626 C   0  0  0  0  0  0  0  0  0  0  0  0
    6.8931   -2.7348   20.4306 H   0  0  0  0  0  0  0  0  0  0  0  0
    8.5444   -2.1152   20.1705 H   0  0  0  0  0  0  0  0  0  0  0  0
    5.3860    0.6680   20.1211 C   0  0  0  0  0  0  0  0  0  0  0  0
    4.9606    0.6811   21.1219 H   0  0  0  0  0  0  0  0  0  0  0  0
    4.7635    1.3172   19.0535 C   0  0  0  0  0  0  0  0  0  0  0  0
    3.8372    1.8594   19.2014 H   0  0  0  0  0  0  0  0  0  0  0  0
  1  2  1  0
  2  3  2  0
  3  4  1  0
  4  5  1  0
  4  6  2  0
  6  7  1  0
  7  8  2  0
  8  9  1  0
  9 10  1  0
 10 11  2  0
 11 12  1  0
 12 13  1  0
 12 14  1  0
  8 15  1  0
 15 16  1  0
 15 17  1  0
 15 18  1  0
 18 19  1  0
 18 20  1  0
 18 21  1  0
 21 22  1  0
 21 23  1  0
  6 24  1  0
 24 25  1  0
 24 26  2  0
 26 27  1  0
 26  2  1  0
 21  7  1  0
 14  9  2  0
M  END
>  <plip>  (1) 
-0.07142857142857142

>  <filename>  (1) 
[H][c]1[n][c]([H])[c]([C]2=[C]([c]3[n][n][n]([H])[n]3)[C]([H])([H])[C]([H])([H])[C]2([H])[H])[c]([H])[c]1[H]

$$$$
