
     RDKit          3D

 52 55  0  0  0  0  0  0  0  0999 V2000
    8.2445   -3.0605   22.3188 O   0  0  0  0  0  0  0  0  0  0  0  0
    7.0567   -2.7648   22.3830 C   0  0  0  0  0  0  0  0  0  0  0  0
    6.5328   -1.7057   21.7050 N   0  0  0  0  0  0  0  0  0  0  0  0
    7.3980   -0.7367   21.0383 C   0  0  0  0  0  0  0  0  0  0  0  0
    6.6332   -0.0063   19.9597 C   0  0  0  0  0  0  0  0  0  0  0  0
    5.4099    0.6425   20.1692 C   0  0  0  0  0  0  0  0  0  0  0  0
    4.8027    1.3069   19.0977 C   0  0  0  0  0  0  0  0  0  0  0  0
    5.4223    1.2878   17.8438 C   0  0  0  0  0  0  0  0  0  0  0  0
    6.5697    0.6351   17.6054 N   0  0  0  0  0  0  0  0  0  0  0  0
    7.1380    0.0108   18.6460 C   0  0  0  0  0  0  0  0  0  0  0  0
    8.0584   -0.5301   18.4203 H   0  0  0  0  0  0  0  0  0  0  0  0
    4.9753    1.8085   16.9979 H   0  0  0  0  0  0  0  0  0  0  0  0
    3.8611    1.8291   19.2183 H   0  0  0  0  0  0  0  0  0  0  0  0
    4.9452    0.6562   21.1587 H   0  0  0  0  0  0  0  0  0  0  0  0
    8.2065    0.1162   22.0794 C   0  0  0  0  0  0  0  0  0  0  0  0
    9.4052    0.8503   21.4339 C   0  0  0  0  0  0  0  0  0  0  0  0
    9.1198    2.3016   21.0260 C   0  0  0  0  0  0  0  0  0  0  0  0
    8.4264    3.1500   22.0956 C   0  0  0  0  0  0  0  0  0  0  0  0
    7.1297    2.4569   22.5212 C   0  0  0  0  0  0  0  0  0  0  0  0
    7.4080    1.0376   23.0382 C   0  0  0  0  0  0  0  0  0  0  0  0
    6.4771    0.5505   23.3548 H   0  0  0  0  0  0  0  0  0  0  0  0
    8.0079    1.1330   23.9574 H   0  0  0  0  0  0  0  0  0  0  0  0
    6.6351    3.0352   23.3113 H   0  0  0  0  0  0  0  0  0  0  0  0
    6.4593    2.4186   21.6492 H   0  0  0  0  0  0  0  0  0  0  0  0
    8.2032    4.1466   21.6889 H   0  0  0  0  0  0  0  0  0  0  0  0
    9.0785    3.3133   22.9670 H   0  0  0  0  0  0  0  0  0  0  0  0
   10.0637    2.7656   20.7251 H   0  0  0  0  0  0  0  0  0  0  0  0
    8.4404    2.2735   20.1638 H   0  0  0  0  0  0  0  0  0  0  0  0
    9.7477    0.2854   20.5518 H   0  0  0  0  0  0  0  0  0  0  0  0
   10.2452    0.8198   22.1405 H   0  0  0  0  0  0  0  0  0  0  0  0
    8.6371   -0.6633   22.7162 H   0  0  0  0  0  0  0  0  0  0  0  0
    8.1723   -1.3229   20.5238 H   0  0  0  0  0  0  0  0  0  0  0  0
    5.5612   -1.4781   21.8717 H   0  0  0  0  0  0  0  0  0  0  0  0
    6.1071   -3.5868   23.2449 C   0  0  0  0  0  0  0  0  0  0  0  0
    4.8531   -3.3467   23.3587 N   0  0  0  0  0  0  0  0  0  0  0  0
    4.2781   -4.1960   24.2715 O   0  0  0  0  0  0  0  0  0  0  0  0
    5.2560   -5.1161   24.8140 C   0  0  0  0  0  0  0  0  0  0  0  0
    5.2995   -5.0511   26.3364 C   0  0  0  0  0  0  0  0  0  0  0  0
    5.3788   -6.2411   27.0790 C   0  0  0  0  0  0  0  0  0  0  0  0
    5.4977   -6.2082   28.4720 C   0  0  0  0  0  0  0  0  0  0  0  0
    5.5201   -4.9821   29.1415 C   0  0  0  0  0  0  0  0  0  0  0  0
    5.4077   -3.7912   28.4161 C   0  0  0  0  0  0  0  0  0  0  0  0
    5.3136   -3.8214   27.0217 C   0  0  0  0  0  0  0  0  0  0  0  0
    5.2478   -2.8869   26.4699 H   0  0  0  0  0  0  0  0  0  0  0  0
    5.3994   -2.8391   28.9429 H   0  0  0  0  0  0  0  0  0  0  0  0
    5.6201   -4.9518   30.2237 H   0  0  0  0  0  0  0  0  0  0  0  0
    5.5760   -7.1366   29.0318 H   0  0  0  0  0  0  0  0  0  0  0  0
    5.3497   -7.2050   26.5739 H   0  0  0  0  0  0  0  0  0  0  0  0
    6.5698   -4.7398   24.1027 C   0  0  0  0  0  0  0  0  0  0  0  0
    7.3636   -4.4333   24.7927 H   0  0  0  0  0  0  0  0  0  0  0  0
    6.9739   -5.5633   23.5034 H   0  0  0  0  0  0  0  0  0  0  0  0
    4.9127   -6.1092   24.5016 H   0  0  0  0  0  0  0  0  0  0  0  0
  1  2  2  0
  2  3  1  0
  3  4  1  0
  4  5  1  0
  5  6  2  0
  6  7  1  0
  7  8  2  0
  8  9  1  0
  9 10  2  0
 10 11  1  0
  8 12  1  0
  7 13  1  0
  6 14  1  0
  4 15  1  0
 15 16  1  0
 16 17  1  0
 17 18  1  0
 18 19  1  0
 19 20  1  0
 20 21  1  0
 20 22  1  0
 19 23  1  0
 19 24  1  0
 18 25  1  0
 18 26  1  0
 17 27  1  0
 17 28  1  0
 16 29  1  0
 16 30  1  0
 15 31  1  0
  4 32  1  0
  3 33  1  0
  2 34  1  0
 34 35  2  0
 35 36  1  0
 36 37  1  0
 37 38  1  0
 38 39  2  0
 39 40  1  0
 40 41  2  0
 41 42  1  0
 42 43  2  0
 43 44  1  0
 42 45  1  0
 41 46  1  0
 40 47  1  0
 39 48  1  0
 37 49  1  0
 49 50  1  0
 49 51  1  0
 37 52  1  0
 10  5  1  0
 20 15  1  0
 49 34  1  0
 43 38  1  0
M  END
>  <plip>  (1) 
-0.10344827586206896

>  <filename>  (1) 
[H][c]1[n][c]([H])[c]([C]([H])([N]([H])[C](=[O])[C]2=[N][O][C]([H])([c]3[c]([H])[c]([H])[c]([H])[c]([H])[c]3[H])[C]2([H])[H])[C]2([H])[C]([H])([H])[C]([H])([H])[C]([H])([H])[C]([H])([H])[C]2([H])[H])[c]([H])[c]1[H]

$$$$
