
     RDKit          3D

 50 53  0  0  0  0  0  0  0  0999 V2000
    2.7956   -8.1729   24.6102 H   0  0  0  0  0  0  0  0  0  0  0  0
    2.7167   -7.4320   23.9977 O   0  0  0  0  0  0  0  0  0  0  0  0
    3.9908   -6.8110   23.9016 C   0  0  0  0  0  0  0  0  0  0  0  0
    4.3351   -6.4336   24.8788 H   0  0  0  0  0  0  0  0  0  0  0  0
    4.7637   -7.4996   23.5288 H   0  0  0  0  0  0  0  0  0  0  0  0
    3.8958   -5.6432   22.9251 C   0  0  0  0  0  0  0  0  0  0  0  0
    3.1644   -4.9015   23.2976 H   0  0  0  0  0  0  0  0  0  0  0  0
    3.4869   -6.0291   21.9848 H   0  0  0  0  0  0  0  0  0  0  0  0
    5.2163   -5.0530   22.6811 N   0  0  0  0  0  0  0  0  0  0  0  0
    5.6154   -4.0975   23.7310 C   0  0  0  0  0  0  0  0  0  0  0  0
    4.9069   -3.2473   23.7899 H   0  0  0  0  0  0  0  0  0  0  0  0
    5.5933   -4.5867   24.7077 H   0  0  0  0  0  0  0  0  0  0  0  0
    7.0246   -3.5519   23.4623 C   0  0  0  0  0  0  0  0  0  0  0  0
    7.7265   -4.3942   23.4336 H   0  0  0  0  0  0  0  0  0  0  0  0
    7.3611   -2.9011   24.2712 H   0  0  0  0  0  0  0  0  0  0  0  0
    7.1519   -2.8519   22.1782 N   0  0  0  0  0  0  0  0  0  0  0  0
    6.6007   -1.4716   22.0474 C   0  0  1  0  0  0  0  0  0  0  0  0
    5.5836   -1.5605   21.6299 H   0  0  0  0  0  0  0  0  0  0  0  0
    6.4737   -0.6892   23.3827 C   0  0  0  0  0  0  0  0  0  0  0  0
    5.7527    0.1201   23.2034 H   0  0  0  0  0  0  0  0  0  0  0  0
    6.0192   -1.3344   24.1467 H   0  0  0  0  0  0  0  0  0  0  0  0
    7.7477   -0.0068   23.9185 C   0  0  1  0  0  0  0  0  0  0  0  0
    7.8439   -0.1686   24.9980 H   0  0  0  0  0  0  0  0  0  0  0  0
    9.2608   -0.6037   23.0827 S   0  0  0  0  0  0  0  0  0  0  0  0
    8.5885    0.1842   21.5779 C   0  0  2  0  0  0  0  0  0  0  0  0
    9.3818    0.2640   20.8291 H   0  0  0  0  0  0  0  0  0  0  0  0
    8.1529    1.5890   22.0609 C   0  0  0  0  0  0  0  0  0  0  0  0
    7.3302    1.9752   21.4488 H   0  0  0  0  0  0  0  0  0  0  0  0
    8.9875    2.2870   21.9300 H   0  0  0  0  0  0  0  0  0  0  0  0
    7.7707    1.4923   23.5558 C   0  0  0  0  0  0  0  0  0  0  0  0
    6.8077    1.9690   23.7779 H   0  0  0  0  0  0  0  0  0  0  0  0
    8.5210    1.9900   24.1761 H   0  0  0  0  0  0  0  0  0  0  0  0
    7.4656   -0.7214   20.9760 C   0  0  2  0  0  0  0  0  0  0  0  0
    8.0215   -1.5200   20.4640 H   0  0  0  0  0  0  0  0  0  0  0  0
    6.6543   -0.0031   19.9013 C   0  0  0  0  0  0  0  0  0  0  0  0
    7.1607    0.0678   18.5876 C   0  0  0  0  0  0  0  0  0  0  0  0
    8.1082   -0.4137   18.3564 H   0  0  0  0  0  0  0  0  0  0  0  0
    6.5564    0.6845   17.5681 N   0  0  0  0  0  0  0  0  0  0  0  0
    5.3956    1.2970   17.8287 C   0  0  0  0  0  0  0  0  0  0  0  0
    4.9145    1.7896   16.9876 H   0  0  0  0  0  0  0  0  0  0  0  0
    4.8048    1.3126   19.0962 C   0  0  0  0  0  0  0  0  0  0  0  0
    3.8736    1.8431   19.2524 H   0  0  0  0  0  0  0  0  0  0  0  0
    5.4375    0.6461   20.1508 C   0  0  0  0  0  0  0  0  0  0  0  0
    4.9987    0.6455   21.1510 H   0  0  0  0  0  0  0  0  0  0  0  0
    6.6922   -3.7759   21.1217 C   0  0  0  0  0  0  0  0  0  0  0  0
    6.6710   -3.2573   20.1573 H   0  0  0  0  0  0  0  0  0  0  0  0
    7.4192   -4.5928   21.0317 H   0  0  0  0  0  0  0  0  0  0  0  0
    5.3014   -4.3832   21.3801 C   0  0  0  0  0  0  0  0  0  0  0  0
    5.0948   -5.1159   20.5910 H   0  0  0  0  0  0  0  0  0  0  0  0
    4.5564   -3.5662   21.2962 H   0  0  0  0  0  0  0  0  0  0  0  0
  1  2  1  0
  2  3  1  0
  3  4  1  0
  3  5  1  0
  3  6  1  0
  6  7  1  0
  6  8  1  0
  6  9  1  0
  9 10  1  0
 10 11  1  0
 10 12  1  0
 10 13  1  0
 13 14  1  0
 13 15  1  0
 13 16  1  0
 16 17  1  0
 17 18  1  6
 17 19  1  0
 19 20  1  0
 19 21  1  0
 19 22  1  0
 22 23  1  1
 22 24  1  0
 24 25  1  0
 25 26  1  6
 25 27  1  0
 27 28  1  0
 27 29  1  0
 27 30  1  0
 30 31  1  0
 30 32  1  0
 25 33  1  0
 33 34  1  6
 33 35  1  0
 35 36  2  0
 36 37  1  0
 36 38  1  0
 38 39  2  0
 39 40  1  0
 39 41  1  0
 41 42  1  0
 41 43  2  0
 43 44  1  0
 16 45  1  0
 45 46  1  0
 45 47  1  0
 45 48  1  0
 48 49  1  0
 48 50  1  0
 48  9  1  0
 33 17  1  0
 43 35  1  0
 30 22  1  0
M  END
>  <plip>  (1) 
-0.06896551724137931

>  <filename>  (1) 
[H][O][C]([H])([H])[C]([H])([H])[N]1[C]([H])([H])[C]([H])([H])[N]([C@@]2([H])[C]([H])([H])[C@@]3([H])[S][C@]([H])([C]([H])([H])[C]3([H])[H])[C@]2([H])[c]2[c]([H])[n][c]([H])[c]([H])[c]2[H])[C]([H])([H])[C]1([H])[H]

$$$$
