
     RDKit          3D

 46 49  0  0  0  0  0  0  0  0999 V2000
    6.2575    6.5575   22.7487 C   0  0  0  0  0  0  0  0  0  0  0  0
    6.6639    5.2044   22.3956 N   0  0  0  0  0  0  0  0  0  0  0  0
    5.8697    4.1397   22.0625 C   0  0  0  0  0  0  0  0  0  0  0  0
    6.4994    3.0050   21.9075 N   0  0  0  0  0  0  0  0  0  0  0  0
    7.8246    3.3193   22.1298 C   0  0  0  0  0  0  0  0  0  0  0  0
    8.9975    2.5310   22.0990 C   0  0  0  0  0  0  0  0  0  0  0  0
    8.9575    1.0664   21.6592 C   0  0  0  0  0  0  0  0  0  0  0  0
    9.8689    0.5864   20.9968 O   0  0  0  0  0  0  0  0  0  0  0  0
    7.8601    0.2961   22.0052 N   0  0  0  0  0  0  0  0  0  0  0  0
    7.2898    0.2932   23.3509 C   0  0  0  0  0  0  0  0  0  0  0  0
    7.8008   -0.8812   24.2360 C   0  0  0  0  0  0  0  0  0  0  0  0
    8.3616   -2.0957   23.4645 C   0  0  0  0  0  0  0  0  0  0  0  0
    7.3584   -2.7994   22.5314 C   0  0  0  0  0  0  0  0  0  0  0  0
    6.6137   -1.8604   21.5592 C   0  0  0  0  0  0  0  0  0  0  0  0
    7.4395   -0.6967   20.9960 C   0  0  0  0  0  0  0  0  0  0  0  0
    6.6646    0.0140   19.8992 C   0  0  0  0  0  0  0  0  0  0  0  0
    5.4366    0.6417   20.1440 C   0  0  0  0  0  0  0  0  0  0  0  0
    4.7988    1.2996   19.0911 C   0  0  0  0  0  0  0  0  0  0  0  0
    5.3967    1.2866   17.8260 C   0  0  0  0  0  0  0  0  0  0  0  0
    6.5601    0.6759   17.5719 N   0  0  0  0  0  0  0  0  0  0  0  0
    7.1726    0.0689   18.5994 C   0  0  0  0  0  0  0  0  0  0  0  0
    8.1262   -0.4095   18.3687 H   0  0  0  0  0  0  0  0  0  0  0  0
    4.9308    1.7949   16.9836 H   0  0  0  0  0  0  0  0  0  0  0  0
    3.8768    1.8443   19.2491 H   0  0  0  0  0  0  0  0  0  0  0  0
    5.0057    0.6709   21.1481 H   0  0  0  0  0  0  0  0  0  0  0  0
    8.3713   -1.1066   20.5778 H   0  0  0  0  0  0  0  0  0  0  0  0
    5.7390   -1.4206   22.0362 H   0  0  0  0  0  0  0  0  0  0  0  0
    6.2279   -2.4333   20.7104 H   0  0  0  0  0  0  0  0  0  0  0  0
    7.9093   -3.5562   21.9536 H   0  0  0  0  0  0  0  0  0  0  0  0
    6.6137   -3.3482   23.1273 H   0  0  0  0  0  0  0  0  0  0  0  0
    8.7695   -2.8249   24.1775 H   0  0  0  0  0  0  0  0  0  0  0  0
    9.2154   -1.7542   22.8599 H   0  0  0  0  0  0  0  0  0  0  0  0
    8.5918   -0.5075   24.8998 H   0  0  0  0  0  0  0  0  0  0  0  0
    6.9755   -1.2013   24.8903 H   0  0  0  0  0  0  0  0  0  0  0  0
    7.5286    1.2546   23.8179 H   0  0  0  0  0  0  0  0  0  0  0  0
    6.1956    0.2717   23.2641 H   0  0  0  0  0  0  0  0  0  0  0  0
   10.1895    3.2312   22.3909 C   0  0  0  0  0  0  0  0  0  0  0  0
   10.1657    4.6041   22.7133 C   0  0  0  0  0  0  0  0  0  0  0  0
    9.0566    5.3625   22.7553 N   0  0  0  0  0  0  0  0  0  0  0  0
    7.9454    4.7026   22.4461 C   0  0  0  0  0  0  0  0  0  0  0  0
   11.1022    5.1215   22.8957 H   0  0  0  0  0  0  0  0  0  0  0  0
   11.1470    2.7376   22.3071 H   0  0  0  0  0  0  0  0  0  0  0  0
    4.8004    4.2650   21.9556 H   0  0  0  0  0  0  0  0  0  0  0  0
    6.1568    6.6728   23.8358 H   0  0  0  0  0  0  0  0  0  0  0  0
    7.0060    7.2696   22.3866 H   0  0  0  0  0  0  0  0  0  0  0  0
    5.2957    6.7658   22.2717 H   0  0  0  0  0  0  0  0  0  0  0  0
  1  2  1  0
  2  3  1  0
  3  4  2  0
  4  5  1  0
  5  6  2  0
  6  7  1  0
  7  8  2  0
  7  9  1  0
  9 10  1  0
 10 11  1  0
 11 12  1  0
 12 13  1  0
 13 14  1  0
 14 15  1  0
 15 16  1  0
 16 17  2  0
 17 18  1  0
 18 19  2  0
 19 20  1  0
 20 21  2  0
 21 22  1  0
 19 23  1  0
 18 24  1  0
 17 25  1  0
 15 26  1  0
 14 27  1  0
 14 28  1  0
 13 29  1  0
 13 30  1  0
 12 31  1  0
 12 32  1  0
 11 33  1  0
 11 34  1  0
 10 35  1  0
 10 36  1  0
  6 37  1  0
 37 38  2  0
 38 39  1  0
 39 40  2  0
 38 41  1  0
 37 42  1  0
  3 43  1  0
  1 44  1  0
  1 45  1  0
  1 46  1  0
 40  2  1  0
 40  5  1  0
 15  9  1  0
 21 16  1  0
M  END
>  <plip>  (1) 
-0.10714285714285714

>  <filename>  (1) 
[H][c]1[n][c]([H])[c]([C]2([H])[N]([C](=[O])[c]3[c]([H])[c]([H])[n][c]4[c]3[n][c]([H])[n]4[C]([H])([H])[H])[C]([H])([H])[C]([H])([H])[C]([H])([H])[C]([H])([H])[C]2([H])[H])[c]([H])[c]1[H]

$$$$
