
     RDKit          3D

 42 43  0  0  0  0  0  0  0  0999 V2000
    8.6808    1.1282   22.9126 O   0  0  0  0  0  0  0  0  0  0  0  0
    7.5113    0.7785   22.8617 C   0  0  0  0  0  0  0  0  0  0  0  0
    7.0979   -0.5586   22.2373 C   0  0  0  0  0  0  0  0  0  0  0  0
    7.3614   -0.7057   20.8460 O   0  0  0  0  0  0  0  0  0  0  0  0
    6.6390    0.0114   19.9310 C   0  0  0  0  0  0  0  0  0  0  0  0
    5.4333    0.6803   20.1680 C   0  0  0  0  0  0  0  0  0  0  0  0
    4.8148    1.3241   19.0824 C   0  0  0  0  0  0  0  0  0  0  0  0
    5.4182    1.3004   17.8242 C   0  0  0  0  0  0  0  0  0  0  0  0
    6.5766    0.6597   17.5825 N   0  0  0  0  0  0  0  0  0  0  0  0
    7.1570    0.0390   18.6140 C   0  0  0  0  0  0  0  0  0  0  0  0
    8.0904   -0.4806   18.4171 H   0  0  0  0  0  0  0  0  0  0  0  0
    4.9683    1.8238   16.9844 H   0  0  0  0  0  0  0  0  0  0  0  0
    3.8832    1.8652   19.2172 H   0  0  0  0  0  0  0  0  0  0  0  0
    4.9891    0.7354   21.1630 H   0  0  0  0  0  0  0  0  0  0  0  0
    7.7122   -1.3285   22.7046 H   0  0  0  0  0  0  0  0  0  0  0  0
    6.0510   -0.7742   22.4574 H   0  0  0  0  0  0  0  0  0  0  0  0
    6.5067    1.4943   23.4470 N   0  0  0  0  0  0  0  0  0  0  0  0
    6.7876    2.8057   24.0088 C   0  0  0  0  0  0  0  0  0  0  0  0
    7.0993    3.8437   22.9274 C   0  0  0  0  0  0  0  0  0  0  0  0
    5.9701    4.1325   21.9383 C   0  0  0  0  0  0  0  0  0  0  0  0
    4.7681    4.6089   22.5864 N   0  0  0  0  0  0  0  0  0  0  0  0
    3.6844    3.8437   22.8248 C   0  0  0  0  0  0  0  0  0  0  0  0
    3.6898    2.6229   22.6795 O   0  0  0  0  0  0  0  0  0  0  0  0
    2.4838    4.5714   23.3748 C   0  0  0  0  0  0  0  0  0  0  0  0
    1.5798    3.8608   24.1844 C   0  0  0  0  0  0  0  0  0  0  0  0
    0.4747    4.4901   24.7580 C   0  0  0  0  0  0  0  0  0  0  0  0
    0.2273    5.8453   24.5066 C   0  0  0  0  0  0  0  0  0  0  0  0
    1.0974    6.5768   23.6930 C   0  0  0  0  0  0  0  0  0  0  0  0
    2.2086    5.9312   23.1605 C   0  0  0  0  0  0  0  0  0  0  0  0
    3.0507    6.6930   22.4147 F   0  0  0  0  0  0  0  0  0  0  0  0
    0.9410    7.6323   23.4819 H   0  0  0  0  0  0  0  0  0  0  0  0
   -0.6357    6.3339   24.9546 H   0  0  0  0  0  0  0  0  0  0  0  0
   -0.1873    3.9196   25.4020 H   0  0  0  0  0  0  0  0  0  0  0  0
    1.7732    2.8037   24.3543 H   0  0  0  0  0  0  0  0  0  0  0  0
    4.6242    5.5995   22.6396 H   0  0  0  0  0  0  0  0  0  0  0  0
    5.7258    3.2397   21.3470 H   0  0  0  0  0  0  0  0  0  0  0  0
    6.3046    4.9071   21.2364 H   0  0  0  0  0  0  0  0  0  0  0  0
    7.9638    3.4749   22.3599 H   0  0  0  0  0  0  0  0  0  0  0  0
    7.3993    4.7757   23.4232 H   0  0  0  0  0  0  0  0  0  0  0  0
    5.9381    3.1021   24.6351 H   0  0  0  0  0  0  0  0  0  0  0  0
    7.6616    2.7154   24.6673 H   0  0  0  0  0  0  0  0  0  0  0  0
    5.5633    1.3648   23.1091 H   0  0  0  0  0  0  0  0  0  0  0  0
  1  2  2  0
  2  3  1  0
  3  4  1  0
  4  5  1  0
  5  6  2  0
  6  7  1  0
  7  8  2  0
  8  9  1  0
  9 10  2  0
 10 11  1  0
  8 12  1  0
  7 13  1  0
  6 14  1  0
  3 15  1  0
  3 16  1  0
  2 17  1  0
 17 18  1  0
 18 19  1  0
 19 20  1  0
 20 21  1  0
 21 22  1  0
 22 23  2  0
 22 24  1  0
 24 25  2  0
 25 26  1  0
 26 27  2  0
 27 28  1  0
 28 29  2  0
 29 30  1  0
 28 31  1  0
 27 32  1  0
 26 33  1  0
 25 34  1  0
 21 35  1  0
 20 36  1  0
 20 37  1  0
 19 38  1  0
 19 39  1  0
 18 40  1  0
 18 41  1  0
 17 42  1  0
 10  5  1  0
 29 24  1  0
M  END
>  <plip>  (1) 
-0.14285714285714285

>  <filename>  (1) 
[H][c]1[n][c]([H])[c]([O][C]([H])([H])[C](=[O])[N]([H])[C]([H])([H])[C]([H])([H])[C]([H])([H])[N]([H])[C](=[O])[c]2[c]([H])[c]([H])[c]([H])[c]([H])[c]2[F])[c]([H])[c]1[H]

$$$$
