
     RDKit          3D

 28 30  0  0  0  0  0  0  0  0999 V2000
    5.0325    1.8198   16.8489 H   0  0  0  0  0  0  0  0  0  0  0  0
    5.4227    1.3257   17.7373 C   0  0  0  0  0  0  0  0  0  0  0  0
    6.5773    0.6623   17.5827 N   0  0  0  0  0  0  0  0  0  0  0  0
    7.0780    0.0509   18.6611 C   0  0  0  0  0  0  0  0  0  0  0  0
    8.0162   -0.4791   18.5188 H   0  0  0  0  0  0  0  0  0  0  0  0
    6.4710    0.0627   19.9315 C   0  0  0  0  0  0  0  0  0  0  0  0
    7.1528   -0.6309   21.0341 C   0  0  0  0  0  0  0  0  0  0  0  0
    8.2618   -1.3215   20.7861 N   0  0  0  0  0  0  0  0  0  0  0  0
    8.6660   -1.8236   21.9584 N   0  0  0  0  0  0  0  0  0  0  0  0
    9.9827   -2.4489   22.0097 C   0  0  0  0  0  0  0  0  0  0  0  0
   10.1069   -2.8353   20.9963 H   0  0  0  0  0  0  0  0  0  0  0  0
    9.9247   -3.2756   22.7286 H   0  0  0  0  0  0  0  0  0  0  0  0
   11.0967   -1.4789   22.3650 C   0  0  0  0  0  0  0  0  0  0  0  0
   12.5148   -1.3586   21.3777 S   0  0  0  0  0  0  0  0  0  0  0  0
   13.1598   -0.1029   22.3623 C   0  0  0  0  0  0  0  0  0  0  0  0
   14.1149    0.3351   22.1000 H   0  0  0  0  0  0  0  0  0  0  0  0
   12.3293    0.2012   23.4006 C   0  0  0  0  0  0  0  0  0  0  0  0
   12.5649    0.9427   24.1590 H   0  0  0  0  0  0  0  0  0  0  0  0
   11.1365   -0.5850   23.3941 C   0  0  0  0  0  0  0  0  0  0  0  0
   10.3541   -0.5018   24.1528 H   0  0  0  0  0  0  0  0  0  0  0  0
    7.8333   -1.4696   22.9679 C   0  0  0  0  0  0  0  0  0  0  0  0
    7.9743   -1.8164   23.9872 H   0  0  0  0  0  0  0  0  0  0  0  0
    6.8534   -0.6823   22.4158 C   0  0  0  0  0  0  0  0  0  0  0  0
    6.0524   -0.1655   22.9207 H   0  0  0  0  0  0  0  0  0  0  0  0
    5.2571    0.7572   20.0703 C   0  0  0  0  0  0  0  0  0  0  0  0
    4.7389    0.8046   21.0292 H   0  0  0  0  0  0  0  0  0  0  0  0
    4.7280    1.3955   18.9480 C   0  0  0  0  0  0  0  0  0  0  0  0
    3.8003    1.9551   18.9980 H   0  0  0  0  0  0  0  0  0  0  0  0
  1  2  1  0
  2  3  2  0
  3  4  1  0
  4  5  1  0
  4  6  2  0
  6  7  1  0
  7  8  2  0
  8  9  1  0
  9 10  1  0
 10 11  1  0
 10 12  1  0
 10 13  1  0
 13 14  1  0
 14 15  1  0
 15 16  1  0
 15 17  2  0
 17 18  1  0
 17 19  1  0
 19 20  1  0
  9 21  1  0
 21 22  1  0
 21 23  2  0
 23 24  1  0
  6 25  1  0
 25 26  1  0
 25 27  2  0
 27 28  1  0
 27  2  1  0
 23  7  1  0
 19 13  2  0
M  END
>  <plip>  (1) 
-0.07142857142857142

>  <filename>  (1) 
[H][c]1[n][c]([H])[c](-[c]2[n][n]([C]([H])([H])[c]3[s][c]([H])[c]([H])[c]3[H])[c]([H])[c]2[H])[c]([H])[c]1[H]

$$$$
