
     RDKit          3D

 43 45  0  0  0  0  0  0  0  0999 V2000
    7.2520   -0.1918   22.4372 O   0  0  0  0  0  0  0  0  0  0  0  0
    7.5644   -0.8056   21.1532 S   0  0  0  0  0  0  0  0  0  0  0  0
    8.9395   -0.8511   20.6572 O   0  0  0  0  0  0  0  0  0  0  0  0
    6.9321   -2.4781   21.1493 C   0  0  0  0  0  0  0  0  0  0  0  0
    7.8799   -3.4648   21.8444 C   0  0  0  0  0  0  0  0  0  0  0  0
    7.3945   -4.9033   21.5982 C   0  0  0  0  0  0  0  0  0  0  0  0
    8.1797   -5.9695   22.3893 C   0  0  0  0  0  0  0  0  0  0  0  0
    8.4313   -5.6157   23.8730 C   0  0  0  0  0  0  0  0  0  0  0  0
    7.2177   -5.8662   24.7797 C   0  0  0  0  0  0  0  0  0  0  0  0
    7.4418   -5.8902   26.1687 C   0  0  0  0  0  0  0  0  0  0  0  0
    6.4690   -6.3582   27.0490 C   0  0  0  0  0  0  0  0  0  0  0  0
    5.2438   -6.8224   26.5588 C   0  0  0  0  0  0  0  0  0  0  0  0
    4.9749   -6.7332   25.1896 C   0  0  0  0  0  0  0  0  0  0  0  0
    5.9287   -6.2052   24.3166 C   0  0  0  0  0  0  0  0  0  0  0  0
    5.6856   -6.1690   23.2593 H   0  0  0  0  0  0  0  0  0  0  0  0
    4.0322   -7.1009   24.7881 H   0  0  0  0  0  0  0  0  0  0  0  0
    4.5021   -7.2313   27.2400 H   0  0  0  0  0  0  0  0  0  0  0  0
    6.6775   -6.3797   28.1171 H   0  0  0  0  0  0  0  0  0  0  0  0
    8.4096   -5.5659   26.5570 H   0  0  0  0  0  0  0  0  0  0  0  0
    8.9617   -4.1686   24.0108 C   0  0  0  0  0  0  0  0  0  0  0  0
    7.9916   -3.1833   23.3532 C   0  0  0  0  0  0  0  0  0  0  0  0
    8.2968   -2.1447   23.5267 H   0  0  0  0  0  0  0  0  0  0  0  0
    6.9976   -3.2927   23.8223 H   0  0  0  0  0  0  0  0  0  0  0  0
    9.1048   -3.9054   25.0685 H   0  0  0  0  0  0  0  0  0  0  0  0
    9.9511   -4.0810   23.5328 H   0  0  0  0  0  0  0  0  0  0  0  0
    9.2269   -6.2851   24.2402 H   0  0  0  0  0  0  0  0  0  0  0  0
    7.6524   -6.9292   22.3463 H   0  0  0  0  0  0  0  0  0  0  0  0
    9.1428   -6.1615   21.9070 H   0  0  0  0  0  0  0  0  0  0  0  0
    6.3287   -4.9445   21.8652 H   0  0  0  0  0  0  0  0  0  0  0  0
    7.4504   -5.1356   20.5268 H   0  0  0  0  0  0  0  0  0  0  0  0
    8.8771   -3.3426   21.3911 H   0  0  0  0  0  0  0  0  0  0  0  0
    6.7798   -2.7331   20.1009 H   0  0  0  0  0  0  0  0  0  0  0  0
    5.9521   -2.4269   21.6280 H   0  0  0  0  0  0  0  0  0  0  0  0
    6.5997   -0.0171   19.9401 C   0  0  0  0  0  0  0  0  0  0  0  0
    5.3880    0.6330   20.1916 C   0  0  0  0  0  0  0  0  0  0  0  0
    4.8047    1.2742   19.1022 C   0  0  0  0  0  0  0  0  0  0  0  0
    5.4417    1.2383   17.8592 C   0  0  0  0  0  0  0  0  0  0  0  0
    6.5934    0.5900   17.6426 N   0  0  0  0  0  0  0  0  0  0  0  0
    7.1683   -0.0162   18.6757 C   0  0  0  0  0  0  0  0  0  0  0  0
    8.1277   -0.4945   18.4929 H   0  0  0  0  0  0  0  0  0  0  0  0
    5.0173    1.7573   17.0009 H   0  0  0  0  0  0  0  0  0  0  0  0
    3.8870    1.8360   19.2067 H   0  0  0  0  0  0  0  0  0  0  0  0
    4.9322    0.6725   21.1831 H   0  0  0  0  0  0  0  0  0  0  0  0
  1  2  2  0
  2  3  2  0
  2  4  1  0
  4  5  1  0
  5  6  1  0
  6  7  1  0
  7  8  1  0
  8  9  1  0
  9 10  2  0
 10 11  1  0
 11 12  2  0
 12 13  1  0
 13 14  2  0
 14 15  1  0
 13 16  1  0
 12 17  1  0
 11 18  1  0
 10 19  1  0
  8 20  1  0
 20 21  1  0
 21 22  1  0
 21 23  1  0
 20 24  1  0
 20 25  1  0
  8 26  1  0
  7 27  1  0
  7 28  1  0
  6 29  1  0
  6 30  1  0
  5 31  1  0
  4 32  1  0
  4 33  1  0
  2 34  1  0
 34 35  2  0
 35 36  1  0
 36 37  2  0
 37 38  1  0
 38 39  2  0
 39 40  1  0
 37 41  1  0
 36 42  1  0
 35 43  1  0
 21  5  1  0
 39 34  1  0
 14  9  1  0
M  END
>  <plip>  (1) 
-0.034482758620689655

>  <filename>  (1) 
[H][c]1[n][c]([H])[c]([S](=[O])(=[O])[C]([H])([H])[C]2([H])[C]([H])([H])[C]([H])([H])[C]([H])([c]3[c]([H])[c]([H])[c]([H])[c]([H])[c]3[H])[C]([H])([H])[C]2([H])[H])[c]([H])[c]1[H]

$$$$
