
     RDKit          3D

 39 41  0  0  0  0  0  0  0  0999 V2000
    5.7581   -3.3050   22.3372 O   0  0  0  0  0  0  0  0  0  0  0  0
    6.9263   -3.2314   22.7042 C   0  0  0  0  0  0  0  0  0  0  0  0
    7.8993   -2.6797   21.8921 N   0  0  0  0  0  0  0  0  0  0  0  0
    7.6081   -1.8946   20.7121 C   0  0  0  0  0  0  0  0  0  0  0  0
    7.3280   -0.4495   21.1097 C   0  0  0  0  0  0  0  0  0  0  0  0
    8.6582    0.2221   21.4841 C   0  0  0  0  0  0  0  0  0  0  0  0
    9.2879   -0.5255   22.5344 O   0  0  0  0  0  0  0  0  0  0  0  0
   10.1795   -0.1818   22.7103 H   0  0  0  0  0  0  0  0  0  0  0  0
    8.4792    1.2514   21.8069 H   0  0  0  0  0  0  0  0  0  0  0  0
    9.3199    0.2554   20.6108 H   0  0  0  0  0  0  0  0  0  0  0  0
    6.6420    0.2508   19.9404 C   0  0  0  0  0  0  0  0  0  0  0  0
    5.4108    0.8856   20.1139 C   0  0  0  0  0  0  0  0  0  0  0  0
    4.7968    1.4442   18.9916 C   0  0  0  0  0  0  0  0  0  0  0  0
    5.4113    1.3644   17.7398 C   0  0  0  0  0  0  0  0  0  0  0  0
    6.5972    0.7594   17.5637 N   0  0  0  0  0  0  0  0  0  0  0  0
    7.1968    0.2258   18.6438 C   0  0  0  0  0  0  0  0  0  0  0  0
    8.1547   -0.2625   18.4984 H   0  0  0  0  0  0  0  0  0  0  0  0
    4.9098    1.8005   16.8811 H   0  0  0  0  0  0  0  0  0  0  0  0
    3.8421    1.9443   19.0719 H   0  0  0  0  0  0  0  0  0  0  0  0
    4.9405    0.9328   21.0949 H   0  0  0  0  0  0  0  0  0  0  0  0
    6.6679   -0.4436   21.9855 H   0  0  0  0  0  0  0  0  0  0  0  0
    6.7612   -2.3222   20.1684 H   0  0  0  0  0  0  0  0  0  0  0  0
    8.4744   -1.9052   20.0479 H   0  0  0  0  0  0  0  0  0  0  0  0
    8.8005   -2.5249   22.3364 H   0  0  0  0  0  0  0  0  0  0  0  0
    7.3747   -3.7488   24.0021 C   0  0  0  0  0  0  0  0  0  0  0  0
    8.7099   -3.8944   24.3065 C   0  0  0  0  0  0  0  0  0  0  0  0
    8.8120   -4.4208   25.6381 C   0  0  0  0  0  0  0  0  0  0  0  0
    7.5292   -4.6030   26.1306 C   0  0  0  0  0  0  0  0  0  0  0  0
    6.6595   -4.1766   25.1333 N   0  0  0  0  0  0  0  0  0  0  0  0
    5.6414   -4.2177   25.2186 H   0  0  0  0  0  0  0  0  0  0  0  0
    7.3455   -5.1618   27.3994 C   0  0  0  0  0  0  0  0  0  0  0  0
    5.5841   -5.4607   28.0909 Br  0  0  0  0  0  0  0  0  0  0  0  0
    8.4758   -5.5052   28.1571 C   0  0  0  0  0  0  0  0  0  0  0  0
    9.7691   -5.2487   27.6740 C   0  0  0  0  0  0  0  0  0  0  0  0
    9.9384   -4.7486   26.3835 C   0  0  0  0  0  0  0  0  0  0  0  0
   11.1696   -4.6160   25.8515 F   0  0  0  0  0  0  0  0  0  0  0  0
   10.6421   -5.4681   28.2788 H   0  0  0  0  0  0  0  0  0  0  0  0
    8.3388   -5.9890   29.1179 H   0  0  0  0  0  0  0  0  0  0  0  0
    9.5609   -3.6669   23.6721 H   0  0  0  0  0  0  0  0  0  0  0  0
  1  2  2  0
  2  3  1  0
  3  4  1  0
  4  5  1  0
  5  6  1  0
  6  7  1  0
  7  8  1  0
  6  9  1  0
  6 10  1  0
  5 11  1  0
 11 12  2  0
 12 13  1  0
 13 14  2  0
 14 15  1  0
 15 16  2  0
 16 17  1  0
 14 18  1  0
 13 19  1  0
 12 20  1  0
  5 21  1  0
  4 22  1  0
  4 23  1  0
  3 24  1  0
  2 25  1  0
 25 26  2  0
 26 27  1  0
 27 28  2  0
 28 29  1  0
 29 30  1  0
 28 31  1  0
 31 32  1  0
 31 33  2  0
 33 34  1  0
 34 35  2  0
 35 36  1  0
 34 37  1  0
 33 38  1  0
 26 39  1  0
 16 11  1  0
 29 25  1  0
 35 27  1  0
M  END
>  <plip>  (1) 
-0.06896551724137931

>  <filename>  (1) 
[H][O][C]([H])([H])[C]([H])([c]1[c]([H])[n][c]([H])[c]([H])[c]1[H])[C]([H])([H])[N]([H])[C](=[O])[c]1[c]([H])[c]2[c]([F])[c]([H])[c]([H])[c]([Br])[c]2[n]1[H]

$$$$
