
     RDKit          3D

 22 24  0  0  0  0  0  0  0  0999 V2000
    6.9546    4.2012   22.4207 H   0  0  0  0  0  0  0  0  0  0  0  0
    7.1621    3.2272   22.8483 C   0  0  0  0  0  0  0  0  0  0  0  0
    7.2158    2.1210   22.0389 N   0  0  0  0  0  0  0  0  0  0  0  0
    7.4679    1.0501   22.7381 C   0  0  0  0  0  0  0  0  0  0  0  0
    7.6478   -0.3134   22.1981 C   0  0  0  0  0  0  0  0  0  0  0  0
    8.2130   -1.3332   22.8036 N   0  0  0  0  0  0  0  0  0  0  0  0
    8.2637   -2.3284   21.8983 N   0  0  0  0  0  0  0  0  0  0  0  0
    7.7534   -1.9672   20.7761 N   0  0  0  0  0  0  0  0  0  0  0  0
    7.3428   -0.6951   20.9284 N   0  0  0  0  0  0  0  0  0  0  0  0
    6.6562    0.0075   19.8977 C   0  0  0  0  0  0  0  0  0  0  0  0
    7.1845    0.0537   18.5974 C   0  0  0  0  0  0  0  0  0  0  0  0
    8.1330   -0.4417   18.3838 H   0  0  0  0  0  0  0  0  0  0  0  0
    6.5714    0.6809   17.5916 N   0  0  0  0  0  0  0  0  0  0  0  0
    5.4004    1.2922   17.8464 C   0  0  0  0  0  0  0  0  0  0  0  0
    4.9068    1.7728   17.0049 H   0  0  0  0  0  0  0  0  0  0  0  0
    4.8063    1.3065   19.1101 C   0  0  0  0  0  0  0  0  0  0  0  0
    3.8745    1.8439   19.2692 H   0  0  0  0  0  0  0  0  0  0  0  0
    5.4378    0.6332   20.1599 C   0  0  0  0  0  0  0  0  0  0  0  0
    5.0107    0.6296   21.1598 H   0  0  0  0  0  0  0  0  0  0  0  0
    7.6699    1.3260   24.4357 S   0  0  0  0  0  0  0  0  0  0  0  0
    7.3766    2.9982   24.1712 C   0  0  0  0  0  0  0  0  0  0  0  0
    7.3790    3.7340   24.9657 H   0  0  0  0  0  0  0  0  0  0  0  0
  1  2  1  0
  2  3  1  0
  3  4  2  0
  4  5  1  0
  5  6  2  0
  6  7  1  0
  7  8  2  0
  8  9  1  0
  9 10  1  0
 10 11  2  0
 11 12  1  0
 11 13  1  0
 13 14  2  0
 14 15  1  0
 14 16  1  0
 16 17  1  0
 16 18  2  0
 18 19  1  0
  4 20  1  0
 20 21  1  0
 21 22  1  0
 21  2  2  0
  9  5  1  0
 18 10  1  0
M  END
>  <plip>  (1) 
-0.0

>  <filename>  (1) 
[H][c]1[n][c](-[c]2[n][n][n][n]2-[c]2[c]([H])[n][c]([H])[c]([H])[c]2[H])[s][c]1[H]

$$$$
