
     RDKit          3D

 24 24  0  0  0  0  0  0  0  0999 V2000
    7.9484    1.2845   26.5513 H   0  0  0  0  0  0  0  0  0  0  0  0
    8.2330    0.8760   25.6050 C   0  0  0  0  0  0  0  0  0  0  0  0
    8.5664    0.3888   24.5551 C   0  0  0  0  0  0  0  0  0  0  0  0
    8.9830   -0.2181   23.2773 C   0  0  0  0  0  0  0  0  0  0  0  0
    9.9632   -0.6964   23.3827 H   0  0  0  0  0  0  0  0  0  0  0  0
    9.0799    0.5610   22.5091 H   0  0  0  0  0  0  0  0  0  0  0  0
    8.1239   -1.2725   22.8832 O   0  0  0  0  0  0  0  0  0  0  0  0
    7.0071   -0.9408   22.1280 C   0  0  1  0  0  0  0  0  0  0  0  0
    6.5003   -0.0565   22.5523 H   0  0  0  0  0  0  0  0  0  0  0  0
    7.4898   -0.6061   20.8327 O   0  0  0  0  0  0  0  0  0  0  0  0
    6.6736    0.0085   19.9246 C   0  0  0  0  0  0  0  0  0  0  0  0
    7.1801    0.0424   18.6049 C   0  0  0  0  0  0  0  0  0  0  0  0
    8.1323   -0.4463   18.4076 H   0  0  0  0  0  0  0  0  0  0  0  0
    6.5668    0.6488   17.5836 N   0  0  0  0  0  0  0  0  0  0  0  0
    5.4072    1.2799   17.8463 C   0  0  0  0  0  0  0  0  0  0  0  0
    4.9494    1.8023   17.0081 H   0  0  0  0  0  0  0  0  0  0  0  0
    4.8089    1.2905   19.1099 C   0  0  0  0  0  0  0  0  0  0  0  0
    3.8723    1.8313   19.2553 H   0  0  0  0  0  0  0  0  0  0  0  0
    5.4461    0.6334   20.1795 C   0  0  0  0  0  0  0  0  0  0  0  0
    4.9964    0.6277   21.1708 H   0  0  0  0  0  0  0  0  0  0  0  0
    6.1165   -2.1605   22.1045 C   0  0  0  0  0  0  0  0  0  0  0  0
    5.8078   -2.3876   23.1260 H   0  0  0  0  0  0  0  0  0  0  0  0
    5.2224   -1.9840   21.5048 H   0  0  0  0  0  0  0  0  0  0  0  0
    6.6765   -3.0126   21.7101 H   0  0  0  0  0  0  0  0  0  0  0  0
  1  2  1  0
  2  3  3  0
  3  4  1  0
  4  5  1  0
  4  6  1  0
  4  7  1  0
  7  8  1  0
  8  9  1  1
  8 10  1  0
 10 11  1  0
 11 12  2  0
 12 13  1  0
 12 14  1  0
 14 15  2  0
 15 16  1  0
 15 17  1  0
 17 18  1  0
 17 19  2  0
 19 20  1  0
  8 21  1  0
 21 22  1  0
 21 23  1  0
 21 24  1  0
 19 11  1  0
M  END
>  <plip>  (1) 
-0.0

>  <filename>  (1) 
[H][C]#[C][C]([H])([H])[O][C@@]([H])([O][c]1[c]([H])[n][c]([H])[c]([H])[c]1[H])[C]([H])([H])[H]

$$$$
