
     RDKit          3D

 36 38  0  0  0  0  0  0  0  0999 V2000
    7.5622   -2.0719   20.9475 C   0  0  0  0  0  0  0  0  0  0  0  0
    7.2949   -0.5959   21.1690 C   0  0  0  0  0  0  0  0  0  0  0  0
    8.6488    0.0081   21.3432 N   0  0  0  0  0  4  0  0  0  0  0  0
    8.7550    1.4667   21.5728 C   0  0  0  0  0  0  0  0  0  0  0  0
    8.0267    1.8241   22.8820 C   0  0  0  0  0  0  0  0  0  0  0  0
    8.5988    1.0563   24.0841 C   0  0  0  0  0  0  0  0  0  0  0  0
   10.0641    1.0716   24.0324 N   0  0  0  0  0  0  0  0  0  0  0  0
   10.9681    0.8505   25.0335 C   0  0  0  0  0  0  0  0  0  0  0  0
   12.1911    0.9638   24.5932 N   0  0  0  0  0  0  0  0  0  0  0  0
   12.1109    1.2879   23.2550 N   0  0  0  0  0  0  0  0  0  0  0  0
   10.8458    1.3574   22.9478 C   0  0  0  0  0  0  0  0  0  0  0  0
   10.2490    1.7848   21.6426 C   0  0  0  0  0  0  0  0  0  0  0  0
   10.7987    1.2963   20.8371 H   0  0  0  0  0  0  0  0  0  0  0  0
   10.4170    2.8582   21.5315 H   0  0  0  0  0  0  0  0  0  0  0  0
   10.6822    0.6400   26.0550 H   0  0  0  0  0  0  0  0  0  0  0  0
    8.2335    0.0179   24.0957 H   0  0  0  0  0  0  0  0  0  0  0  0
    8.2847    1.5094   25.0279 H   0  0  0  0  0  0  0  0  0  0  0  0
    6.9671    1.5857   22.7590 H   0  0  0  0  0  0  0  0  0  0  0  0
    8.0986    2.9002   23.0562 H   0  0  0  0  0  0  0  0  0  0  0  0
    8.2932    2.0142   20.7423 H   0  0  0  0  0  0  0  0  0  0  0  0
    9.1735   -0.2247   20.4731 H   0  0  0  0  0  0  0  0  0  0  0  0
    9.1538   -0.4519   22.1304 H   0  0  0  0  0  0  0  0  0  0  0  0
    6.5665    0.0865   20.0319 C   0  0  0  0  0  0  0  0  0  0  0  0
    5.3357    0.7473   20.1779 C   0  0  0  0  0  0  0  0  0  0  0  0
    4.7627    1.3619   19.0610 C   0  0  0  0  0  0  0  0  0  0  0  0
    5.4368    1.3058   17.8380 C   0  0  0  0  0  0  0  0  0  0  0  0
    6.6079    0.6749   17.6799 N   0  0  0  0  0  0  0  0  0  0  0  0
    7.1484    0.0931   18.7586 C   0  0  0  0  0  0  0  0  0  0  0  0
    8.0971   -0.4154   18.5863 H   0  0  0  0  0  0  0  0  0  0  0  0
    5.0233    1.7910   16.9528 H   0  0  0  0  0  0  0  0  0  0  0  0
    3.8174    1.8840   19.1236 H   0  0  0  0  0  0  0  0  0  0  0  0
    4.8264    0.7777   21.1443 H   0  0  0  0  0  0  0  0  0  0  0  0
    6.6891   -0.4656   22.0790 H   0  0  0  0  0  0  0  0  0  0  0  0
    6.6960   -2.5977   20.5563 H   0  0  0  0  0  0  0  0  0  0  0  0
    8.3885   -2.1685   20.2481 H   0  0  0  0  0  0  0  0  0  0  0  0
    7.8794   -2.5327   21.8827 H   0  0  0  0  0  0  0  0  0  0  0  0
  1  2  1  0
  2  3  1  0
  3  4  1  0
  4  5  1  0
  5  6  1  0
  6  7  1  0
  7  8  1  0
  8  9  2  0
  9 10  1  0
 10 11  2  0
 11 12  1  0
 12 13  1  0
 12 14  1  0
  8 15  1  0
  6 16  1  0
  6 17  1  0
  5 18  1  0
  5 19  1  0
  4 20  1  0
  3 21  1  0
  3 22  1  0
  2 23  1  0
 23 24  2  0
 24 25  1  0
 25 26  2  0
 26 27  1  0
 27 28  2  0
 28 29  1  0
 26 30  1  0
 25 31  1  0
 24 32  1  0
  2 33  1  0
  1 34  1  0
  1 35  1  0
  1 36  1  0
 12  4  1  0
 28 23  1  0
 11  7  1  0
M  CHG  1   3   1
M  END
>  <plip>  (1) 
-0.06896551724137931

>  <filename>  (1) 
[H][c]1[n][c]([H])[c]([C]([H])([C]([H])([H])[H])[N+]([H])([H])[C]2([H])[C]([H])([H])[c]3[n][n][c]([H])[n]3[C]([H])([H])[C]2([H])[H])[c]([H])[c]1[H]

$$$$
