
     RDKit          3D

 30 33  0  0  0  0  0  0  0  0999 V2000
    4.9458    1.8067   16.9866 H   0  0  0  0  0  0  0  0  0  0  0  0
    5.3955    1.2857   17.8325 C   0  0  0  0  0  0  0  0  0  0  0  0
    6.5634    0.6672   17.5903 N   0  0  0  0  0  0  0  0  0  0  0  0
    7.1652    0.0442   18.6068 C   0  0  0  0  0  0  0  0  0  0  0  0
    8.1241   -0.4135   18.3616 H   0  0  0  0  0  0  0  0  0  0  0  0
    6.6449   -0.0179   19.9176 C   0  0  0  0  0  0  0  0  0  0  0  0
    7.3661   -0.6994   21.0237 C   0  0  0  0  0  0  0  0  0  0  0  0
    7.7476   -2.3829   20.8275 S   0  0  0  0  0  0  0  0  0  0  0  0
    8.6625   -2.6047   22.6502 S   0  0  0  0  0  0  0  0  0  0  0  0
    8.3181   -0.9985   23.2462 C   0  0  0  0  0  0  0  0  0  0  0  0
    8.7949   -0.6410   24.7786 S   0  0  0  0  0  0  0  0  0  0  0  0
    7.6720   -0.1655   22.2519 C   0  0  0  0  0  0  0  0  0  0  0  0
    7.3912    1.2444   22.5396 C   0  0  0  0  0  0  0  0  0  0  0  0
    7.6836    2.2641   21.7757 N   0  0  0  0  0  0  0  0  0  0  0  0
    7.1874    3.3618   22.4535 C   0  0  0  0  0  0  0  0  0  0  0  0
    7.1910    4.7165   22.0759 C   0  0  0  0  0  0  0  0  0  0  0  0
    7.6366    5.0071   21.1298 H   0  0  0  0  0  0  0  0  0  0  0  0
    6.6129    5.6406   22.9370 C   0  0  0  0  0  0  0  0  0  0  0  0
    6.6018    6.6847   22.6454 H   0  0  0  0  0  0  0  0  0  0  0  0
    6.0423    5.2374   24.1687 C   0  0  0  0  0  0  0  0  0  0  0  0
    5.6116    5.9928   24.8183 H   0  0  0  0  0  0  0  0  0  0  0  0
    6.0276    3.8959   24.5516 C   0  0  0  0  0  0  0  0  0  0  0  0
    5.5944    3.5875   25.4980 H   0  0  0  0  0  0  0  0  0  0  0  0
    6.5935    2.9664   23.6715 C   0  0  0  0  0  0  0  0  0  0  0  0
    6.7297    1.5926   23.6773 N   0  0  0  0  0  0  0  0  0  0  0  0
    6.5461    0.9311   24.4121 H   0  0  0  0  0  0  0  0  0  0  0  0
    5.4119    0.6234   20.1437 C   0  0  0  0  0  0  0  0  0  0  0  0
    4.9836    0.6457   21.1465 H   0  0  0  0  0  0  0  0  0  0  0  0
    4.7853    1.2848   19.0875 C   0  0  0  0  0  0  0  0  0  0  0  0
    3.8615    1.8362   19.2297 H   0  0  0  0  0  0  0  0  0  0  0  0
  1  2  1  0
  2  3  2  0
  3  4  1  0
  4  5  1  0
  4  6  2  0
  6  7  1  0
  7  8  1  0
  8  9  1  0
  9 10  1  0
 10 11  2  0
 10 12  1  0
 12 13  1  0
 13 14  2  0
 14 15  1  0
 15 16  2  0
 16 17  1  0
 16 18  1  0
 18 19  1  0
 18 20  2  0
 20 21  1  0
 20 22  1  0
 22 23  1  0
 22 24  2  0
 24 25  1  0
 25 26  1  0
  6 27  1  0
 27 28  1  0
 27 29  2  0
 29 30  1  0
 29  2  1  0
 12  7  2  0
 25 13  1  0
 24 15  1  0
M  END
>  <plip>  (1) 
-0.10714285714285714

>  <filename>  (1) 
[H][c]1[n][c]([H])[c](-[c]2[s][s][c](=[S])[c]2-[c]2[n][c]3[c]([H])[c]([H])[c]([H])[c]([H])[c]3[n]2[H])[c]([H])[c]1[H]

$$$$
