
     RDKit          3D

 42 44  0  0  0  0  0  0  0  0999 V2000
    7.9234   -5.1720   24.8780 C   0  0  0  0  0  0  0  0  0  0  0  0
    8.8256   -4.3979   25.6105 C   0  0  0  0  0  0  0  0  0  0  0  0
    9.6215   -3.4960   24.9115 C   0  0  0  0  0  0  0  0  0  0  0  0
    9.5063   -3.3713   23.5208 C   0  0  0  0  0  0  0  0  0  0  0  0
   10.4221   -2.4164   22.7718 C   0  0  0  0  0  0  0  0  0  0  0  0
    9.8063   -1.4237   21.7705 C   0  0  0  0  0  0  0  0  0  0  0  0
    8.9227   -0.3521   22.4108 C   0  0  1  0  0  0  0  0  0  0  0  0
    9.6832    0.8553   23.0094 C   0  0  0  0  0  0  0  0  0  0  0  0
    8.8120    2.1011   22.7133 C   0  0  0  0  0  0  0  0  0  0  0  0
    7.5085    1.5279   22.1642 C   0  0  0  0  0  0  0  0  0  0  0  0
    7.9760    0.3019   21.4216 N   0  0  0  0  0  4  0  0  0  0  0  0
    6.8791   -0.5066   20.8369 C   0  0  0  0  0  0  0  0  0  0  0  0
    6.3153    0.2307   19.6479 C   0  0  0  0  0  0  0  0  0  0  0  0
    5.0990    0.9224   19.7153 C   0  0  0  0  0  0  0  0  0  0  0  0
    4.6565    1.6248   18.5910 C   0  0  0  0  0  0  0  0  0  0  0  0
    5.4468    1.6133   17.4403 C   0  0  0  0  0  0  0  0  0  0  0  0
    6.6114    0.9508   17.3538 N   0  0  0  0  0  0  0  0  0  0  0  0
    7.0304    0.2944   18.4424 C   0  0  0  0  0  0  0  0  0  0  0  0
    7.9877   -0.2195   18.3338 H   0  0  0  0  0  0  0  0  0  0  0  0
    5.1348    2.1568   16.5481 H   0  0  0  0  0  0  0  0  0  0  0  0
    3.7278    2.1863   18.5985 H   0  0  0  0  0  0  0  0  0  0  0  0
    4.5255    0.9218   20.6442 H   0  0  0  0  0  0  0  0  0  0  0  0
    6.1063   -0.6875   21.6000 H   0  0  0  0  0  0  0  0  0  0  0  0
    7.2630   -1.4892   20.5351 H   0  0  0  0  0  0  0  0  0  0  0  0
    8.5433    0.6358   20.6144 H   0  0  0  0  0  0  0  0  0  0  0  0
    6.9440    2.2029   21.5157 H   0  0  0  0  0  0  0  0  0  0  0  0
    6.8421    1.2036   22.9770 H   0  0  0  0  0  0  0  0  0  0  0  0
    8.6390    2.7215   23.5974 H   0  0  0  0  0  0  0  0  0  0  0  0
    9.2783    2.7516   21.9603 H   0  0  0  0  0  0  0  0  0  0  0  0
   10.6808    0.9632   22.5617 H   0  0  0  0  0  0  0  0  0  0  0  0
    9.8492    0.7062   24.0823 H   0  0  0  0  0  0  0  0  0  0  0  0
    8.3056   -0.8161   23.1971 H   0  0  0  0  0  0  0  0  0  0  0  0
    9.2383   -1.9871   21.0216 H   0  0  0  0  0  0  0  0  0  0  0  0
   10.6351   -0.9335   21.2362 H   0  0  0  0  0  0  0  0  0  0  0  0
   11.1422   -3.0386   22.2398 H   0  0  0  0  0  0  0  0  0  0  0  0
   11.0093   -1.8471   23.4975 H   0  0  0  0  0  0  0  0  0  0  0  0
    8.6417   -4.1176   22.8139 N   0  0  0  0  0  0  0  0  0  0  0  0
    7.8824   -4.9931   23.4927 C   0  0  0  0  0  0  0  0  0  0  0  0
    7.2318   -5.6159   22.8837 H   0  0  0  0  0  0  0  0  0  0  0  0
   10.3678   -2.9050   25.4020 H   0  0  0  0  0  0  0  0  0  0  0  0
    8.9278   -4.5106   26.6943 H   0  0  0  0  0  0  0  0  0  0  0  0
    7.2806   -5.9043   25.3567 H   0  0  0  0  0  0  0  0  0  0  0  0
  1  2  2  0
  2  3  1  0
  3  4  2  0
  4  5  1  0
  5  6  1  0
  6  7  1  0
  7  8  1  0
  8  9  1  0
  9 10  1  0
 10 11  1  0
 11 12  1  0
 12 13  1  0
 13 14  2  0
 14 15  1  0
 15 16  2  0
 16 17  1  0
 17 18  2  0
 18 19  1  0
 16 20  1  0
 15 21  1  0
 14 22  1  0
 12 23  1  0
 12 24  1  0
 11 25  1  0
 10 26  1  0
 10 27  1  0
  9 28  1  0
  9 29  1  0
  8 30  1  0
  8 31  1  0
  7 32  1  1
  6 33  1  0
  6 34  1  0
  5 35  1  0
  5 36  1  0
  4 37  1  0
 37 38  2  0
 38 39  1  0
  3 40  1  0
  2 41  1  0
  1 42  1  0
 38  1  1  0
 11  7  1  0
 18 13  1  0
M  CHG  1  11   1
M  END
>  <plip>  (1) 
-0.10344827586206896

>  <filename>  (1) 
[H][c]1[n][c]([C]([H])([H])[C]([H])([H])[C@@]2([H])[C]([H])([H])[C]([H])([H])[C]([H])([H])[N+]2([H])[C]([H])([H])[c]2[c]([H])[n][c]([H])[c]([H])[c]2[H])[c]([H])[c]([H])[c]1[H]

$$$$
