
     RDKit          3D

 29 31  0  0  0  0  0  0  0  0999 V2000
    4.7857    1.3042   19.0875 C   0  0  0  0  0  0  0  0  0  0  0  0
    5.3928    1.2981   17.8289 C   0  0  0  0  0  0  0  0  0  0  0  0
    6.5611    0.6865   17.5689 N   0  0  0  0  0  0  0  0  0  0  0  0
    7.1516    0.0584   18.5887 C   0  0  0  0  0  0  0  0  0  0  0  0
    6.6126   -0.0399   19.8835 C   0  0  0  0  0  0  0  0  0  0  0  0
    7.3996   -0.7099   20.9765 C   0  0  0  0  0  0  0  0  0  0  0  0
    8.8251    0.3487   21.4946 S   0  0  0  0  0  0  0  0  0  0  0  0
    7.8956    1.6636   22.2802 C   0  0  0  0  0  0  0  0  0  0  0  0
    7.6376    2.7334   21.5442 N   0  0  0  0  0  0  0  0  0  0  0  0
    6.8480    3.7063   22.0711 C   0  0  0  0  0  0  0  0  0  0  0  0
    6.3449    3.6708   23.3475 C   0  0  0  0  0  0  0  0  0  0  0  0
    6.6330    2.5474   24.1799 C   0  0  0  0  0  0  0  0  0  0  0  0
    6.1660    2.4403   25.5240 C   0  0  0  0  0  0  0  0  0  0  0  0
    6.4954    1.3155   26.2448 C   0  0  0  0  0  0  0  0  0  0  0  0
    7.2791    0.2982   25.6280 C   0  0  0  0  0  0  0  0  0  0  0  0
    7.7213    0.3573   24.3865 N   0  0  0  0  0  0  0  0  0  0  0  0
    7.4308    1.4779   23.6530 C   0  0  0  0  0  0  0  0  0  0  0  0
    7.5495   -0.5980   26.1850 H   0  0  0  0  0  0  0  0  0  0  0  0
    6.1696    1.1815   27.2721 H   0  0  0  0  0  0  0  0  0  0  0  0
    5.5681    3.2552   25.9372 H   0  0  0  0  0  0  0  0  0  0  0  0
    5.7526    4.4924   23.7304 H   0  0  0  0  0  0  0  0  0  0  0  0
    6.6373    4.5454   21.4083 H   0  0  0  0  0  0  0  0  0  0  0  0
    7.8270   -1.6696   20.6515 H   0  0  0  0  0  0  0  0  0  0  0  0
    6.7777   -0.9071   21.8595 H   0  0  0  0  0  0  0  0  0  0  0  0
    5.4025    0.6163   20.1359 C   0  0  0  0  0  0  0  0  0  0  0  0
    5.0004    0.6392   21.1545 H   0  0  0  0  0  0  0  0  0  0  0  0
    8.1132   -0.4081   18.3788 H   0  0  0  0  0  0  0  0  0  0  0  0
    4.9208    1.7928   16.9845 H   0  0  0  0  0  0  0  0  0  0  0  0
    3.8638    1.8508   19.2446 H   0  0  0  0  0  0  0  0  0  0  0  0
  1  2  2  0
  2  3  1  0
  3  4  2  0
  4  5  1  0
  5  6  1  0
  6  7  1  0
  7  8  1  0
  8  9  2  0
  9 10  1  0
 10 11  2  0
 11 12  1  0
 12 13  2  0
 13 14  1  0
 14 15  2  0
 15 16  1  0
 16 17  2  0
 15 18  1  0
 14 19  1  0
 13 20  1  0
 11 21  1  0
 10 22  1  0
  6 23  1  0
  6 24  1  0
  5 25  2  0
 25 26  1  0
  4 27  1  0
  2 28  1  0
  1 29  1  0
 25  1  1  0
 17  8  1  0
 17 12  1  0
M  END
>  <plip>  (1) 
-0.03571428571428571

>  <filename>  (1) 
[H][c]1[n][c]([H])[c]([C]([H])([H])[S][c]2[n][c]([H])[c]([H])[c]3[c]([H])[c]([H])[c]([H])[n][c]23)[c]([H])[c]1[H]

$$$$
