
     RDKit          3D

 22 24  0  0  0  0  0  0  0  0999 V2000
    8.9277   -3.1842   26.7668 H   0  0  0  0  0  0  0  0  0  0  0  0
    8.3832   -2.6558   25.9974 C   0  0  0  0  0  0  0  0  0  0  0  0
    7.1935   -2.0194   26.2153 N   0  0  0  0  0  0  0  0  0  0  0  0
    6.9004   -1.5288   25.0414 C   0  0  0  0  0  0  0  0  0  0  0  0
    6.0130   -0.9478   24.8135 H   0  0  0  0  0  0  0  0  0  0  0  0
    7.8704   -1.8516   24.1404 N   0  0  0  0  0  0  0  0  0  0  0  0
    7.8737   -1.4864   22.7917 C   0  0  0  0  0  0  0  0  0  0  0  0
    8.8486   -1.8244   21.9153 N   0  0  0  0  0  0  0  0  0  0  0  0
    8.4960   -1.3084   20.7865 N   0  0  0  0  0  0  0  0  0  0  0  0
    7.3475   -0.6846   20.9806 N   0  0  0  0  0  0  0  0  0  0  0  0
    6.6611    0.0012   19.9304 C   0  0  0  0  0  0  0  0  0  0  0  0
    7.1841    0.0472   18.6237 C   0  0  0  0  0  0  0  0  0  0  0  0
    8.1283   -0.4317   18.3789 H   0  0  0  0  0  0  0  0  0  0  0  0
    6.5750    0.6604   17.6057 N   0  0  0  0  0  0  0  0  0  0  0  0
    5.4105    1.2849   17.8487 C   0  0  0  0  0  0  0  0  0  0  0  0
    4.9317    1.7764   17.0004 H   0  0  0  0  0  0  0  0  0  0  0  0
    4.8175    1.2994   19.1167 C   0  0  0  0  0  0  0  0  0  0  0  0
    3.8855    1.8338   19.2643 H   0  0  0  0  0  0  0  0  0  0  0  0
    5.4429    0.6444   20.1811 C   0  0  0  0  0  0  0  0  0  0  0  0
    5.0053    0.6314   21.1812 H   0  0  0  0  0  0  0  0  0  0  0  0
    6.9066   -0.7673   22.2322 N   0  0  0  0  0  0  0  0  0  0  0  0
    8.8372   -2.5890   24.7699 N   0  0  0  0  0  0  0  0  0  0  0  0
  1  2  1  0
  2  3  1  0
  3  4  2  0
  4  5  1  0
  4  6  1  0
  6  7  1  0
  7  8  1  0
  8  9  2  0
  9 10  1  0
 10 11  1  0
 11 12  2  0
 12 13  1  0
 12 14  1  0
 14 15  2  0
 15 16  1  0
 15 17  1  0
 17 18  1  0
 17 19  2  0
 19 20  1  0
 10 21  1  0
  6 22  1  0
 22  2  2  0
 21  7  2  0
 19 11  1  0
M  END
>  <plip>  (1) 
-0.06896551724137931

>  <filename>  (1) 
[H][c]1[n][c]([H])[n](-[c]2[n][n][n](-[c]3[c]([H])[n][c]([H])[c]([H])[c]3[H])[n]2)[n]1

$$$$
