
     RDKit          3D

 29 31  0  0  0  0  0  0  0  0999 V2000
    8.6467   -3.7295   21.3821 H   0  0  0  0  0  0  0  0  0  0  0  0
    8.3560   -2.7114   21.6154 C   0  0  0  0  0  0  0  0  0  0  0  0
    7.7792   -2.0012   20.6316 N   0  0  0  0  0  0  0  0  0  0  0  0
    7.3981   -0.7465   20.9457 C   0  0  0  0  0  0  0  0  0  0  0  0
    6.6481   -0.0210   19.8883 C   0  0  0  0  0  0  0  0  0  0  0  0
    7.1634    0.0343   18.5893 C   0  0  0  0  0  0  0  0  0  0  0  0
    8.1172   -0.4433   18.3641 H   0  0  0  0  0  0  0  0  0  0  0  0
    6.5707    0.6766   17.5814 N   0  0  0  0  0  0  0  0  0  0  0  0
    5.4058    1.2916   17.8437 C   0  0  0  0  0  0  0  0  0  0  0  0
    4.9211    1.7809   17.0001 H   0  0  0  0  0  0  0  0  0  0  0  0
    4.8071    1.3044   19.1061 C   0  0  0  0  0  0  0  0  0  0  0  0
    3.8767    1.8421   19.2575 H   0  0  0  0  0  0  0  0  0  0  0  0
    5.4373    0.6389   20.1563 C   0  0  0  0  0  0  0  0  0  0  0  0
    5.0090    0.6357   21.1629 H   0  0  0  0  0  0  0  0  0  0  0  0
    7.6761   -0.1834   22.2453 C   0  0  0  0  0  0  0  0  0  0  0  0
    7.3612    1.2337   22.6033 C   0  0  0  0  0  0  0  0  0  0  0  0
    6.5515    1.5287   23.7101 C   0  0  0  0  0  0  0  0  0  0  0  0
    6.1759    0.7063   24.3149 H   0  0  0  0  0  0  0  0  0  0  0  0
    6.2356    2.8441   24.0468 C   0  0  0  0  0  0  0  0  0  0  0  0
    5.6270    3.0444   24.9240 H   0  0  0  0  0  0  0  0  0  0  0  0
    6.7246    3.9025   23.2722 C   0  0  0  0  0  0  0  0  0  0  0  0
    6.4898    4.9298   23.5342 H   0  0  0  0  0  0  0  0  0  0  0  0
    7.5266    3.6394   22.1579 C   0  0  0  0  0  0  0  0  0  0  0  0
    7.9246    4.4386   21.5370 H   0  0  0  0  0  0  0  0  0  0  0  0
    7.8311    2.3178   21.8428 C   0  0  0  0  0  0  0  0  0  0  0  0
    8.6065    2.0814   20.7707 F   0  0  0  0  0  0  0  0  0  0  0  0
    8.2336   -0.9266   23.2295 N   0  0  0  0  0  0  0  0  0  0  0  0
    8.5833   -2.1776   22.8954 C   0  0  0  0  0  0  0  0  0  0  0  0
    9.0576   -2.7739   23.6651 H   0  0  0  0  0  0  0  0  0  0  0  0
  1  2  1  0
  2  3  2  0
  3  4  1  0
  4  5  1  0
  5  6  2  0
  6  7  1  0
  6  8  1  0
  8  9  2  0
  9 10  1  0
  9 11  1  0
 11 12  1  0
 11 13  2  0
 13 14  1  0
  4 15  2  0
 15 16  1  0
 16 17  2  0
 17 18  1  0
 17 19  1  0
 19 20  1  0
 19 21  2  0
 21 22  1  0
 21 23  1  0
 23 24  1  0
 23 25  2  0
 25 26  1  0
 15 27  1  0
 27 28  2  0
 28 29  1  0
 28  2  1  0
 13  5  1  0
 25 16  1  0
M  END
>  <plip>  (1) 
-0.034482758620689655

>  <filename>  (1) 
[H][c]1[n][c](-[c]2[c]([H])[n][c]([H])[c]([H])[c]2[H])[c](-[c]2[c]([H])[c]([H])[c]([H])[c]([H])[c]2[F])[n][c]1[H]

$$$$
