
     RDKit          3D

 38 39  0  0  0  0  0  0  0  0999 V2000
    7.4323   -2.9283   22.2590 C   0  0  0  0  0  0  0  0  0  0  0  0
    6.6458   -2.0294   21.3067 C   0  0  0  0  0  0  0  0  0  0  0  0
    7.4025   -0.7392   20.9665 C   0  0  0  0  0  0  0  0  0  0  0  0
    7.5301    0.1242   22.1320 N   0  0  0  0  0  0  0  0  0  0  0  0
    8.4124    1.2026   22.2058 C   0  0  0  0  0  0  0  0  0  0  0  0
    9.1160    1.3706   21.2067 O   0  0  0  0  0  0  0  0  0  0  0  0
    8.5022    2.1287   23.4165 C   0  0  0  0  0  0  0  0  0  0  0  0
    7.7607    1.9876   24.3900 O   0  0  0  0  0  0  0  0  0  0  0  0
    9.4152    3.1858   23.4973 N   0  0  0  0  0  0  0  0  0  0  0  0
    9.4061    4.2177   24.4481 C   0  0  0  0  0  0  0  0  0  0  0  0
    8.1899    4.7174   24.9320 C   0  0  0  0  0  0  0  0  0  0  0  0
    8.1723    5.7497   25.8741 C   0  0  0  0  0  0  0  0  0  0  0  0
    9.3738    6.2858   26.3458 C   0  0  0  0  0  0  0  0  0  0  0  0
   10.5959    5.8107   25.8554 C   0  0  0  0  0  0  0  0  0  0  0  0
   12.2323    6.5488   26.5216 Br  0  0  0  0  0  0  0  0  0  0  0  0
   10.6139    4.7929   24.8896 C   0  0  0  0  0  0  0  0  0  0  0  0
   11.8078    4.3172   24.4477 F   0  0  0  0  0  0  0  0  0  0  0  0
    9.3621    7.0817   27.0829 H   0  0  0  0  0  0  0  0  0  0  0  0
    7.2284    6.1420   26.2371 H   0  0  0  0  0  0  0  0  0  0  0  0
    7.2613    4.3097   24.5460 H   0  0  0  0  0  0  0  0  0  0  0  0
   10.1837    3.1809   22.8362 H   0  0  0  0  0  0  0  0  0  0  0  0
    6.9059   -0.0436   22.9117 H   0  0  0  0  0  0  0  0  0  0  0  0
    6.6585    0.0127   19.9012 C   0  0  0  0  0  0  0  0  0  0  0  0
    5.4399    0.6489   20.1628 C   0  0  0  0  0  0  0  0  0  0  0  0
    4.8187    1.3063   19.1024 C   0  0  0  0  0  0  0  0  0  0  0  0
    5.4040    1.2932   17.8302 C   0  0  0  0  0  0  0  0  0  0  0  0
    6.5713    0.6732   17.5837 N   0  0  0  0  0  0  0  0  0  0  0  0
    7.1844    0.0607   18.6062 C   0  0  0  0  0  0  0  0  0  0  0  0
    8.1261   -0.4370   18.4063 H   0  0  0  0  0  0  0  0  0  0  0  0
    4.8907    1.7956   17.0146 H   0  0  0  0  0  0  0  0  0  0  0  0
    3.8840    1.8315   19.2577 H   0  0  0  0  0  0  0  0  0  0  0  0
    5.0006    0.6364   21.1638 H   0  0  0  0  0  0  0  0  0  0  0  0
    8.4070   -1.0125   20.6203 H   0  0  0  0  0  0  0  0  0  0  0  0
    5.6700   -1.7960   21.7426 H   0  0  0  0  0  0  0  0  0  0  0  0
    6.4603   -2.5818   20.3809 H   0  0  0  0  0  0  0  0  0  0  0  0
    6.8835   -3.8560   22.4500 H   0  0  0  0  0  0  0  0  0  0  0  0
    8.4039   -3.1804   21.8236 H   0  0  0  0  0  0  0  0  0  0  0  0
    7.5976   -2.4171   23.2120 H   0  0  0  0  0  0  0  0  0  0  0  0
  1  2  1  0
  2  3  1  0
  3  4  1  0
  4  5  1  0
  5  6  2  0
  5  7  1  0
  7  8  2  0
  7  9  1  0
  9 10  1  0
 10 11  2  0
 11 12  1  0
 12 13  2  0
 13 14  1  0
 14 15  1  0
 14 16  2  0
 16 17  1  0
 13 18  1  0
 12 19  1  0
 11 20  1  0
  9 21  1  0
  4 22  1  0
  3 23  1  0
 23 24  2  0
 24 25  1  0
 25 26  2  0
 26 27  1  0
 27 28  2  0
 28 29  1  0
 26 30  1  0
 25 31  1  0
 24 32  1  0
  3 33  1  0
  2 34  1  0
  2 35  1  0
  1 36  1  0
  1 37  1  0
  1 38  1  0
 16 10  1  0
 28 23  1  0
M  END
>  <plip>  (1) 
-0.17857142857142858

>  <filename>  (1) 
[H][c]1[n][c]([H])[c]([C]([H])([N]([H])[C](=[O])[C](=[O])[N]([H])[c]2[c]([H])[c]([H])[c]([H])[c]([Br])[c]2[F])[C]([H])([H])[C]([H])([H])[H])[c]([H])[c]1[H]

$$$$
