
     RDKit          3D

 38 40  0  0  0  0  0  0  0  0999 V2000
    2.5624   -3.7000   25.6514 C   0  0  0  0  0  0  0  0  0  0  0  0
    2.7009   -4.7376   24.5793 C   0  0  0  0  0  0  0  0  0  0  0  0
    1.8404   -5.8227   24.4839 C   0  0  0  0  0  0  0  0  0  0  0  0
    1.9260   -6.7436   23.4161 C   0  0  0  0  0  0  0  0  0  0  0  0
    2.8625   -6.5697   22.4175 C   0  0  0  0  0  0  0  0  0  0  0  0
    2.8288   -7.4501   21.4050 F   0  0  0  0  0  0  0  0  0  0  0  0
    3.7657   -5.4794   22.4776 C   0  0  0  0  0  0  0  0  0  0  0  0
    3.6897   -4.5736   23.5688 C   0  0  0  0  0  0  0  0  0  0  0  0
    4.6398   -3.5426   23.3206 C   0  0  0  0  0  0  0  0  0  0  0  0
    5.2049   -3.7663   22.0839 C   0  0  0  0  0  0  0  0  0  0  0  0
    6.0146   -2.8848   21.1640 C   0  0  0  0  0  0  0  0  0  0  0  0
    6.1541   -3.1636   19.9820 O   0  0  0  0  0  0  0  0  0  0  0  0
    6.5617   -1.7649   21.7273 N   0  0  0  0  0  0  0  0  0  0  0  0
    7.3647   -0.7945   20.9883 C   0  0  2  0  0  0  0  0  0  0  0  0
    7.9859    0.2089   21.9639 C   0  0  0  0  0  0  0  0  0  0  0  0
    8.5455   -0.3158   22.7446 H   0  0  0  0  0  0  0  0  0  0  0  0
    7.2234    0.8429   22.4375 H   0  0  0  0  0  0  0  0  0  0  0  0
    8.6783    0.8770   21.4389 H   0  0  0  0  0  0  0  0  0  0  0  0
    6.5839   -0.0808   19.8921 C   0  0  0  0  0  0  0  0  0  0  0  0
    5.3868    0.6165   20.1199 C   0  0  0  0  0  0  0  0  0  0  0  0
    4.7972    1.3095   19.0578 C   0  0  0  0  0  0  0  0  0  0  0  0
    5.4311    1.3051   17.8091 C   0  0  0  0  0  0  0  0  0  0  0  0
    6.5795    0.6549   17.5707 N   0  0  0  0  0  0  0  0  0  0  0  0
    7.1222   -0.0115   18.6003 C   0  0  0  0  0  0  0  0  0  0  0  0
    8.0625   -0.5196   18.3832 H   0  0  0  0  0  0  0  0  0  0  0  0
    4.9969    1.8423   16.9638 H   0  0  0  0  0  0  0  0  0  0  0  0
    3.8754    1.8704   19.1822 H   0  0  0  0  0  0  0  0  0  0  0  0
    4.9251    0.6449   21.1112 H   0  0  0  0  0  0  0  0  0  0  0  0
    8.1797   -1.3393   20.4922 H   0  0  0  0  0  0  0  0  0  0  0  0
    6.1806   -1.4682   22.6105 H   0  0  0  0  0  0  0  0  0  0  0  0
    4.7177   -4.9861   21.6193 N   0  0  0  0  0  0  0  0  0  0  0  0
    4.9558   -5.4043   20.7300 H   0  0  0  0  0  0  0  0  0  0  0  0
    4.8734   -2.7605   24.0427 H   0  0  0  0  0  0  0  0  0  0  0  0
    1.2660   -7.6018   23.3414 H   0  0  0  0  0  0  0  0  0  0  0  0
    1.0588   -5.9600   25.2281 H   0  0  0  0  0  0  0  0  0  0  0  0
    1.8134   -3.9935   26.3907 H   0  0  0  0  0  0  0  0  0  0  0  0
    2.2435   -2.7537   25.1993 H   0  0  0  0  0  0  0  0  0  0  0  0
    3.5177   -3.5260   26.1602 H   0  0  0  0  0  0  0  0  0  0  0  0
  1  2  1  0
  2  3  2  0
  3  4  1  0
  4  5  2  0
  5  6  1  0
  5  7  1  0
  7  8  2  0
  8  9  1  0
  9 10  2  0
 10 11  1  0
 11 12  2  0
 11 13  1  0
 13 14  1  0
 14 15  1  0
 15 16  1  0
 15 17  1  0
 15 18  1  0
 14 19  1  0
 19 20  2  0
 20 21  1  0
 21 22  2  0
 22 23  1  0
 23 24  2  0
 24 25  1  0
 22 26  1  0
 21 27  1  0
 20 28  1  0
 14 29  1  6
 13 30  1  0
 10 31  1  0
 31 32  1  0
  9 33  1  0
  4 34  1  0
  3 35  1  0
  1 36  1  0
  1 37  1  0
  1 38  1  0
  8  2  1  0
 24 19  1  0
 31  7  1  0
M  END
>  <plip>  (1) 
-0.1724137931034483

>  <filename>  (1) 
[H][c]1[n][c]([H])[c]([C@]([H])([N]([H])[C](=[O])[c]2[c]([H])[c]3[c]([C]([H])([H])[H])[c]([H])[c]([H])[c]([F])[c]3[n]2[H])[C]([H])([H])[H])[c]([H])[c]1[H]

$$$$
