
     RDKit          3D

 47 50  0  0  0  0  0  0  0  0999 V2000
    6.7463   -3.9505   22.6830 C   0  0  0  0  0  0  0  0  0  0  0  0
    7.3650   -2.7382   22.3205 O   0  0  0  0  0  0  0  0  0  0  0  0
    6.6189   -1.9917   21.3788 C   0  0  0  0  0  0  0  0  0  0  0  0
    7.3690   -0.7084   21.0042 C   0  0  2  0  0  0  0  0  0  0  0  0
    7.5889    0.1742   22.1431 N   0  0  0  0  0  0  0  0  0  0  0  0
    8.5907    1.1069   22.1156 C   0  0  0  0  0  0  0  0  0  0  0  0
    9.2791    1.3013   21.1296 O   0  0  0  0  0  0  0  0  0  0  0  0
    8.7339    1.8342   23.4289 C   0  0  2  0  0  0  0  0  0  0  0  0
   10.0962    2.1764   23.9483 C   0  0  0  0  0  0  0  0  0  0  0  0
    9.2684    1.1329   24.6689 C   0  0  2  0  0  0  0  0  0  0  0  0
    9.7153   -0.3253   24.6000 C   0  0  0  0  0  0  0  0  0  0  0  0
    8.7148   -1.2429   25.3084 C   0  0  0  0  0  0  0  0  0  0  0  0
    8.4727   -0.8330   26.6586 O   0  0  0  0  0  0  0  0  0  0  0  0
    8.2182    0.4956   26.8732 C   0  0  0  0  0  0  0  0  0  0  0  0
    7.5808    0.8322   28.0757 C   0  0  0  0  0  0  0  0  0  0  0  0
    7.3198    2.1621   28.3970 C   0  0  0  0  0  0  0  0  0  0  0  0
    7.6851    3.1624   27.4885 C   0  0  0  0  0  0  0  0  0  0  0  0
    7.4316    4.8341   27.8934 Cl  0  0  0  0  0  0  0  0  0  0  0  0
    8.2808    2.8403   26.2754 C   0  0  0  0  0  0  0  0  0  0  0  0
    8.5942    1.5011   25.9583 C   0  0  0  0  0  0  0  0  0  0  0  0
    8.5079    3.6439   25.5849 H   0  0  0  0  0  0  0  0  0  0  0  0
    6.8286    2.4134   29.3329 H   0  0  0  0  0  0  0  0  0  0  0  0
    7.2774    0.0311   28.7388 H   0  0  0  0  0  0  0  0  0  0  0  0
    7.7619   -1.2836   24.7621 H   0  0  0  0  0  0  0  0  0  0  0  0
    9.0932   -2.2684   25.3876 H   0  0  0  0  0  0  0  0  0  0  0  0
    9.8528   -0.6476   23.5631 H   0  0  0  0  0  0  0  0  0  0  0  0
   10.6857   -0.4240   25.1059 H   0  0  0  0  0  0  0  0  0  0  0  0
   10.2392    3.1410   24.4315 H   0  0  0  0  0  0  0  0  0  0  0  0
   10.9360    1.8275   23.3477 H   0  0  0  0  0  0  0  0  0  0  0  0
    7.9242    2.5396   23.6131 H   0  0  0  0  0  0  0  0  0  0  0  0
    7.2939   -0.1103   23.0632 H   0  0  0  0  0  0  0  0  0  0  0  0
    6.6565    0.0578   19.9028 C   0  0  0  0  0  0  0  0  0  0  0  0
    5.4334    0.7146   20.1053 C   0  0  0  0  0  0  0  0  0  0  0  0
    4.8170    1.3369   19.0181 C   0  0  0  0  0  0  0  0  0  0  0  0
    5.4555    1.2943   17.7723 C   0  0  0  0  0  0  0  0  0  0  0  0
    6.6299    0.6847   17.5589 N   0  0  0  0  0  0  0  0  0  0  0  0
    7.2088    0.1000   18.6178 C   0  0  0  0  0  0  0  0  0  0  0  0
    8.1780   -0.3678   18.4346 H   0  0  0  0  0  0  0  0  0  0  0  0
    4.9988    1.7637   16.9039 H   0  0  0  0  0  0  0  0  0  0  0  0
    3.8732    1.8633   19.1250 H   0  0  0  0  0  0  0  0  0  0  0  0
    4.9930    0.7634   21.1041 H   0  0  0  0  0  0  0  0  0  0  0  0
    8.3443   -1.0305   20.6127 H   0  0  0  0  0  0  0  0  0  0  0  0
    6.4665   -2.5861   20.4621 H   0  0  0  0  0  0  0  0  0  0  0  0
    5.6267   -1.7296   21.7808 H   0  0  0  0  0  0  0  0  0  0  0  0
    5.7705   -3.7851   23.1702 H   0  0  0  0  0  0  0  0  0  0  0  0
    7.4096   -4.4568   23.3886 H   0  0  0  0  0  0  0  0  0  0  0  0
    6.6010   -4.6089   21.8105 H   0  0  0  0  0  0  0  0  0  0  0  0
  1  2  1  0
  2  3  1  0
  3  4  1  0
  4  5  1  0
  5  6  1  0
  6  7  2  0
  6  8  1  0
  8  9  1  0
 10  9  1  1
 10 11  1  0
 11 12  1  0
 12 13  1  0
 13 14  1  0
 14 15  2  0
 15 16  1  0
 16 17  2  0
 17 18  1  0
 17 19  1  0
 19 20  2  0
 19 21  1  0
 16 22  1  0
 15 23  1  0
 12 24  1  0
 12 25  1  0
 11 26  1  0
 11 27  1  0
  9 28  1  0
  9 29  1  0
  8 30  1  1
  5 31  1  0
  4 32  1  0
 32 33  2  0
 33 34  1  0
 34 35  2  0
 35 36  1  0
 36 37  2  0
 37 38  1  0
 35 39  1  0
 34 40  1  0
 33 41  1  0
  4 42  1  6
  3 43  1  0
  3 44  1  0
  1 45  1  0
  1 46  1  0
  1 47  1  0
 10  8  1  0
 20 14  1  0
 37 32  1  0
 20 10  1  0
M  END
>  <plip>  (1) 
-0.13793103448275862

>  <filename>  (1) 
[H][c]1[n][c]([H])[c]([C@@]([H])([N]([H])[C](=[O])[C@]2([H])[C]([H])([H])[C@@]23[c]2[c]([H])[c]([Cl])[c]([H])[c]([H])[c]2[O][C]([H])([H])[C]3([H])[H])[C]([H])([H])[O][C]([H])([H])[H])[c]([H])[c]1[H]

$$$$
