
     RDKit          3D

 43 45  0  0  0  0  0  0  0  0999 V2000
    9.0243    1.4750   21.2136 O   0  0  0  0  0  0  0  0  0  0  0  0
    8.3240    1.1824   22.1621 C   0  0  0  0  0  0  0  0  0  0  0  0
    8.3440    1.9636   23.4754 C   0  0  0  0  0  0  0  0  0  0  0  0
    9.3306    1.3958   24.5161 C   0  0  0  0  0  0  0  0  0  0  0  0
    8.9418   -0.3034   25.0708 S   0  0  0  0  0  0  0  0  0  0  0  0
    7.9034    0.0588   26.4829 C   0  0  0  0  0  0  0  0  0  0  0  0
    6.5209    0.2243   26.3263 C   0  0  0  0  0  0  0  0  0  0  0  0
    5.7350    0.6510   27.3991 C   0  0  0  0  0  0  0  0  0  0  0  0
    6.3179    0.9155   28.6357 C   0  0  0  0  0  0  0  0  0  0  0  0
    5.5001    1.2973   29.6707 O   0  0  0  0  0  0  0  0  0  0  0  0
    6.1912    1.9913   30.7083 C   0  0  0  0  0  0  0  0  0  0  0  0
    7.4607    1.2411   31.1205 C   0  0  0  0  0  0  0  0  0  0  0  0
    8.3268    1.0261   29.9991 O   0  0  0  0  0  0  0  0  0  0  0  0
    7.7078    0.7205   28.8156 C   0  0  0  0  0  0  0  0  0  0  0  0
    8.4754    0.2258   27.7569 C   0  0  0  0  0  0  0  0  0  0  0  0
    9.5087   -0.0250   27.9500 H   0  0  0  0  0  0  0  0  0  0  0  0
    8.0479    1.8325   31.8310 H   0  0  0  0  0  0  0  0  0  0  0  0
    7.2008    0.2698   31.5668 H   0  0  0  0  0  0  0  0  0  0  0  0
    6.4461    2.9973   30.3486 H   0  0  0  0  0  0  0  0  0  0  0  0
    5.4980    2.0617   31.5486 H   0  0  0  0  0  0  0  0  0  0  0  0
    4.6630    0.7722   27.3133 H   0  0  0  0  0  0  0  0  0  0  0  0
    6.0585    0.0084   25.3688 H   0  0  0  0  0  0  0  0  0  0  0  0
   10.3515    1.3819   24.1126 H   0  0  0  0  0  0  0  0  0  0  0  0
    9.3389    2.0252   25.4120 H   0  0  0  0  0  0  0  0  0  0  0  0
    7.3366    1.9928   23.9091 H   0  0  0  0  0  0  0  0  0  0  0  0
    8.6248    2.9927   23.2252 H   0  0  0  0  0  0  0  0  0  0  0  0
    7.4774    0.0999   22.1619 N   0  0  0  0  0  0  0  0  0  0  0  0
    7.3178   -0.7740   20.9980 C   0  0  0  0  0  0  0  0  0  0  0  0
    6.6141   -2.5245   21.2502 C   0  0  0  0  0  0  0  0  0  0  0  0
    5.3985   -2.6318   21.2418 O   0  0  0  0  0  0  0  0  0  0  0  0
    7.5593   -3.2954   21.3458 O   0  0  0  0  0  1  0  0  0  0  0  0
    6.6319   -0.0120   19.8942 C   0  0  0  0  0  0  0  0  0  0  0  0
    5.3972    0.6299   20.0813 C   0  0  0  0  0  0  0  0  0  0  0  0
    4.8094    1.2843   18.9975 C   0  0  0  0  0  0  0  0  0  0  0  0
    5.4828    1.2976   17.7717 C   0  0  0  0  0  0  0  0  0  0  0  0
    6.6800    0.7238   17.5781 N   0  0  0  0  0  0  0  0  0  0  0  0
    7.2334    0.1074   18.6303 C   0  0  0  0  0  0  0  0  0  0  0  0
    8.2195   -0.3316   18.4605 H   0  0  0  0  0  0  0  0  0  0  0  0
    5.0524    1.7984   16.9069 H   0  0  0  0  0  0  0  0  0  0  0  0
    3.8606    1.7998   19.0928 H   0  0  0  0  0  0  0  0  0  0  0  0
    4.9293    0.6304   21.0687 H   0  0  0  0  0  0  0  0  0  0  0  0
    8.3004   -1.1365   20.6738 H   0  0  0  0  0  0  0  0  0  0  0  0
    7.0795   -0.1408   23.0544 H   0  0  0  0  0  0  0  0  0  0  0  0
  1  2  2  0
  2  3  1  0
  3  4  1  0
  4  5  1  0
  5  6  1  0
  6  7  2  0
  7  8  1  0
  8  9  2  0
  9 10  1  0
 10 11  1  0
 11 12  1  0
 12 13  1  0
 13 14  1  0
 14 15  2  0
 15 16  1  0
 12 17  1  0
 12 18  1  0
 11 19  1  0
 11 20  1  0
  8 21  1  0
  7 22  1  0
  4 23  1  0
  4 24  1  0
  3 25  1  0
  3 26  1  0
  2 27  1  0
 27 28  1  0
 28 29  1  0
 29 30  2  0
 29 31  1  0
 28 32  1  0
 32 33  2  0
 33 34  1  0
 34 35  2  0
 35 36  1  0
 36 37  2  0
 37 38  1  0
 35 39  1  0
 34 40  1  0
 33 41  1  0
 28 42  1  0
 27 43  1  0
 15  6  1  0
 37 32  1  0
 14  9  1  0
M  CHG  1  31  -1
M  END
>  <plip>  (1) 
-0.14285714285714285

>  <filename>  (1) 
[H][c]1[n][c]([H])[c]([C]([H])([C](=[O])[O-])[N]([H])[C](=[O])[C]([H])([H])[C]([H])([H])[S][c]2[c]([H])[c]([H])[c]3[c]([c]2[H])[O][C]([H])([H])[C]([H])([H])[O]3)[c]([H])[c]1[H]

$$$$
