
     RDKit          3D

 55 57  0  0  0  0  0  0  0  0999 V2000
    6.0571   -3.1459   20.7783 C   0  0  0  0  0  0  0  0  0  0  0  0
    6.4645   -1.9208   21.4924 N   0  0  0  0  0  4  0  0  0  0  0  0
    7.2662   -2.1746   22.7381 C   0  0  0  0  0  0  0  0  0  0  0  0
    7.9211   -0.8192   23.0455 C   0  0  0  0  0  0  0  0  0  0  0  0
    7.7694    0.0377   21.7636 C   0  0  1  0  0  0  0  0  0  0  0  0
    8.9783    0.8783   21.3283 C   0  0  0  0  0  0  0  0  0  0  0  0
    9.1068    2.1585   22.1061 N   0  0  0  0  0  4  0  0  0  0  0  0
    9.1148    1.9700   23.6040 C   0  0  0  0  0  0  0  0  0  0  0  0
    9.3743    3.2473   24.4184 C   0  0  0  0  0  0  0  0  0  0  0  0
   10.8402    3.7241   24.2676 C   0  0  0  0  0  0  0  0  0  0  0  0
   11.0049    4.6012   24.9061 H   0  0  0  0  0  0  0  0  0  0  0  0
   11.1301    4.0142   23.2488 H   0  0  0  0  0  0  0  0  0  0  0  0
   11.5332    2.9439   24.6037 H   0  0  0  0  0  0  0  0  0  0  0  0
    9.1896    2.8317   25.9036 C   0  0  0  0  0  0  0  0  0  0  0  0
    9.3091    3.7037   26.5533 H   0  0  0  0  0  0  0  0  0  0  0  0
    9.9565    2.0999   26.1906 H   0  0  0  0  0  0  0  0  0  0  0  0
    8.2079    2.3852   26.1097 H   0  0  0  0  0  0  0  0  0  0  0  0
    8.3445    4.3467   24.0732 C   0  0  0  0  0  0  0  0  0  0  0  0
    8.7308    5.6490   23.7120 C   0  0  0  0  0  0  0  0  0  0  0  0
    7.8100    6.6986   23.6676 C   0  0  0  0  0  0  0  0  0  0  0  0
    6.4559    6.4474   23.9060 C   0  0  0  0  0  0  0  0  0  0  0  0
    6.0287    5.1321   24.1165 C   0  0  0  0  0  0  0  0  0  0  0  0
    6.9612    4.0961   24.1991 C   0  0  0  0  0  0  0  0  0  0  0  0
    6.6097    3.0826   24.3811 H   0  0  0  0  0  0  0  0  0  0  0  0
    4.9700    4.9183   24.2400 H   0  0  0  0  0  0  0  0  0  0  0  0
    5.7454    7.2670   23.9097 H   0  0  0  0  0  0  0  0  0  0  0  0
    8.1682    7.7061   23.4811 H   0  0  0  0  0  0  0  0  0  0  0  0
    9.7694    5.8489   23.4747 H   0  0  0  0  0  0  0  0  0  0  0  0
    8.1382    1.5984   23.9073 H   0  0  0  0  0  0  0  0  0  0  0  0
    9.8442    1.1991   23.8821 H   0  0  0  0  0  0  0  0  0  0  0  0
    9.9800    2.6927   21.8642 H   0  0  0  0  0  0  0  0  0  0  0  0
    8.3022    2.8156   21.8938 H   0  0  0  0  0  0  0  0  0  0  0  0
    8.9186    1.1344   20.2700 H   0  0  0  0  0  0  0  0  0  0  0  0
    9.8849    0.2762   21.4626 H   0  0  0  0  0  0  0  0  0  0  0  0
    7.2932   -0.9411   20.6865 C   0  0  2  0  0  0  0  0  0  0  0  0
    6.5109   -0.2577   19.6026 C   0  0  0  0  0  0  0  0  0  0  0  0
    5.3221    0.4468   19.8558 C   0  0  0  0  0  0  0  0  0  0  0  0
    4.8023    1.2571   18.8486 C   0  0  0  0  0  0  0  0  0  0  0  0
    5.4531    1.3047   17.6123 C   0  0  0  0  0  0  0  0  0  0  0  0
    6.5527    0.5903   17.3370 N   0  0  0  0  0  0  0  0  0  0  0  0
    7.0560   -0.1665   18.3172 C   0  0  0  0  0  0  0  0  0  0  0  0
    7.9675   -0.7133   18.0680 H   0  0  0  0  0  0  0  0  0  0  0  0
    5.0762    1.9403   16.8119 H   0  0  0  0  0  0  0  0  0  0  0  0
    3.9363    1.8828   19.0177 H   0  0  0  0  0  0  0  0  0  0  0  0
    4.8325    0.3842   20.8319 H   0  0  0  0  0  0  0  0  0  0  0  0
    8.1370   -1.4965   20.2540 H   0  0  0  0  0  0  0  0  0  0  0  0
    6.9376    0.7336   21.9364 H   0  0  0  0  0  0  0  0  0  0  0  0
    7.4181   -0.3387   23.8935 H   0  0  0  0  0  0  0  0  0  0  0  0
    8.9675   -0.9536   23.3403 H   0  0  0  0  0  0  0  0  0  0  0  0
    6.6333   -2.5529   23.5504 H   0  0  0  0  0  0  0  0  0  0  0  0
    8.0287   -2.9327   22.5142 H   0  0  0  0  0  0  0  0  0  0  0  0
    5.6262   -1.3631   21.7697 H   0  0  0  0  0  0  0  0  0  0  0  0
    5.6952   -2.9069   19.7737 H   0  0  0  0  0  0  0  0  0  0  0  0
    6.9165   -3.8205   20.6588 H   0  0  0  0  0  0  0  0  0  0  0  0
    5.2851   -3.6998   21.3246 H   0  0  0  0  0  0  0  0  0  0  0  0
  1  2  1  0
  2  3  1  0
  3  4  1  0
  4  5  1  0
  5  6  1  0
  6  7  1  0
  7  8  1  0
  8  9  1  0
  9 10  1  0
 10 11  1  0
 10 12  1  0
 10 13  1  0
  9 14  1  0
 14 15  1  0
 14 16  1  0
 14 17  1  0
  9 18  1  0
 18 19  2  0
 19 20  1  0
 20 21  2  0
 21 22  1  0
 22 23  2  0
 23 24  1  0
 22 25  1  0
 21 26  1  0
 20 27  1  0
 19 28  1  0
  8 29  1  0
  8 30  1  0
  7 31  1  0
  7 32  1  0
  6 33  1  0
  6 34  1  0
  5 35  1  0
 35 36  1  0
 36 37  2  0
 37 38  1  0
 38 39  2  0
 39 40  1  0
 40 41  2  0
 41 42  1  0
 39 43  1  0
 38 44  1  0
 37 45  1  0
 35 46  1  6
  5 47  1  1
  4 48  1  0
  4 49  1  0
  3 50  1  0
  3 51  1  0
  2 52  1  0
  1 53  1  0
  1 54  1  0
  1 55  1  0
 35  2  1  0
 41 36  1  0
 23 18  1  0
M  CHG  2   2   1   7   1
M  END
>  <plip>  (1) 
-0.17857142857142858

>  <filename>  (1) 
[H][c]1[n][c]([H])[c]([C@@]2([H])[C@]([H])([C]([H])([H])[N+]([H])([H])[C]([H])([H])[C]([c]3[c]([H])[c]([H])[c]([H])[c]([H])[c]3[H])([C]([H])([H])[H])[C]([H])([H])[H])[C]([H])([H])[C]([H])([H])[N+]2([H])[C]([H])([H])[H])[c]([H])[c]1[H]

$$$$
