
     RDKit          3D

 28 30  0  0  0  0  0  0  0  0999 V2000
    4.7867    1.3055   19.0878 C   0  0  0  0  0  0  0  0  0  0  0  0
    5.3936    1.2987   17.8289 C   0  0  0  0  0  0  0  0  0  0  0  0
    6.5614    0.6858   17.5684 N   0  0  0  0  0  0  0  0  0  0  0  0
    7.1523    0.0603   18.5893 C   0  0  0  0  0  0  0  0  0  0  0  0
    6.6149   -0.0335   19.8853 C   0  0  0  0  0  0  0  0  0  0  0  0
    7.3999   -0.7061   20.9776 C   0  0  0  0  0  0  0  0  0  0  0  0
    8.8181    0.3584   21.4997 S   0  0  0  0  0  0  0  0  0  0  0  0
    7.8913    1.6412   22.3084 C   0  0  0  0  0  0  0  0  0  0  0  0
    7.6106    2.7184   21.5844 N   0  0  0  0  0  0  0  0  0  0  0  0
    6.8391    3.6611   22.1609 C   0  0  0  0  0  0  0  0  0  0  0  0
    6.3574    3.6442   23.3792 N   0  0  0  0  0  0  0  0  0  0  0  0
    6.6665    2.5486   24.1349 C   0  0  0  0  0  0  0  0  0  0  0  0
    6.1938    2.4570   25.4806 C   0  0  0  0  0  0  0  0  0  0  0  0
    6.5077    1.3384   26.2264 C   0  0  0  0  0  0  0  0  0  0  0  0
    7.2854    0.2922   25.6498 C   0  0  0  0  0  0  0  0  0  0  0  0
    7.7365    0.3268   24.4086 N   0  0  0  0  0  0  0  0  0  0  0  0
    7.4530    1.4449   23.6649 C   0  0  0  0  0  0  0  0  0  0  0  0
    7.5460   -0.5976   26.2184 H   0  0  0  0  0  0  0  0  0  0  0  0
    6.1761    1.2220   27.2527 H   0  0  0  0  0  0  0  0  0  0  0  0
    5.6024    3.2853   25.8666 H   0  0  0  0  0  0  0  0  0  0  0  0
    6.6036    4.5267   21.5390 H   0  0  0  0  0  0  0  0  0  0  0  0
    7.8297   -1.6642   20.6510 H   0  0  0  0  0  0  0  0  0  0  0  0
    6.7749   -0.9131   21.8564 H   0  0  0  0  0  0  0  0  0  0  0  0
    5.4043    0.6207   20.1375 C   0  0  0  0  0  0  0  0  0  0  0  0
    5.0005    0.6415   21.1549 H   0  0  0  0  0  0  0  0  0  0  0  0
    8.1126   -0.4087   18.3790 H   0  0  0  0  0  0  0  0  0  0  0  0
    4.9211    1.7928   16.9846 H   0  0  0  0  0  0  0  0  0  0  0  0
    3.8636    1.8515   19.2451 H   0  0  0  0  0  0  0  0  0  0  0  0
  1  2  2  0
  2  3  1  0
  3  4  2  0
  4  5  1  0
  5  6  1  0
  6  7  1  0
  7  8  1  0
  8  9  2  0
  9 10  1  0
 10 11  2  0
 11 12  1  0
 12 13  2  0
 13 14  1  0
 14 15  2  0
 15 16  1  0
 16 17  2  0
 15 18  1  0
 14 19  1  0
 13 20  1  0
 10 21  1  0
  6 22  1  0
  6 23  1  0
  5 24  2  0
 24 25  1  0
  4 26  1  0
  2 27  1  0
  1 28  1  0
 24  1  1  0
 17  8  1  0
 17 12  1  0
M  END
>  <plip>  (1) 
-0.03571428571428571

>  <filename>  (1) 
[H][c]1[n][c]([S][C]([H])([H])[c]2[c]([H])[n][c]([H])[c]([H])[c]2[H])[c]2[n][c]([H])[c]([H])[c]([H])[c]2[n]1

$$$$
