
     RDKit          3D

 49 53  0  0  0  0  0  0  0  0999 V2000
   10.5987   -1.9567   21.6760 C   0  0  0  0  0  0  0  0  0  0  0  0
    9.2114   -1.5539   22.0322 C   0  0  0  0  0  0  0  0  0  0  0  0
    8.6912   -1.7267   23.2862 C   0  0  0  0  0  0  0  0  0  0  0  0
    7.4665   -1.1029   23.4942 C   0  0  0  0  0  0  0  0  0  0  0  0
    6.9960   -1.0789   24.7533 N   0  0  0  0  0  0  0  0  0  0  0  0
    5.8239   -0.3429   25.1844 C   0  0  0  0  0  0  0  0  0  0  0  0
    5.0035   -1.1152   26.2195 C   0  0  0  0  0  0  0  0  0  0  0  0
    3.6366   -1.3645   25.9714 C   0  0  0  0  0  0  0  0  0  0  0  0
    2.8531   -2.0908   26.8744 C   0  0  0  0  0  0  0  0  0  0  0  0
    3.4254   -2.5865   28.0481 C   0  0  0  0  0  0  0  0  0  0  0  0
    4.7830   -2.3693   28.3016 C   0  0  0  0  0  0  0  0  0  0  0  0
    5.5661   -1.6404   27.3974 C   0  0  0  0  0  0  0  0  0  0  0  0
    6.6239   -1.5006   27.6240 H   0  0  0  0  0  0  0  0  0  0  0  0
    5.2376   -2.7851   29.1971 H   0  0  0  0  0  0  0  0  0  0  0  0
    2.8221   -3.1516   28.7530 H   0  0  0  0  0  0  0  0  0  0  0  0
    1.8047   -2.2781   26.6550 H   0  0  0  0  0  0  0  0  0  0  0  0
    3.1764   -1.0003   25.0538 H   0  0  0  0  0  0  0  0  0  0  0  0
    6.2014    1.0739   25.5872 C   0  0  0  0  0  0  0  0  0  0  0  0
    7.2023    1.3606   26.7075 C   0  0  0  0  0  0  0  0  0  0  0  0
    7.1898    2.7974   26.6639 O   0  0  0  0  0  0  0  0  0  0  0  0
    6.2984    3.0682   25.5747 C   0  0  0  0  0  0  0  0  0  0  0  0
    5.1114    2.1344   25.8806 C   0  0  0  0  0  0  0  0  0  0  0  0
    4.6983    2.1641   26.8927 H   0  0  0  0  0  0  0  0  0  0  0  0
    4.3039    2.1639   25.1384 H   0  0  0  0  0  0  0  0  0  0  0  0
    6.7557    2.0596   24.5098 C   0  0  0  0  0  0  0  0  0  0  0  0
    6.1870    2.0617   23.5750 H   0  0  0  0  0  0  0  0  0  0  0  0
    7.8290    2.0029   24.2997 H   0  0  0  0  0  0  0  0  0  0  0  0
    6.2157    4.1451   25.4213 H   0  0  0  0  0  0  0  0  0  0  0  0
    6.8811    1.0070   27.6949 H   0  0  0  0  0  0  0  0  0  0  0  0
    8.2112    0.9882   26.4786 H   0  0  0  0  0  0  0  0  0  0  0  0
    5.1966   -0.1775   24.3143 H   0  0  0  0  0  0  0  0  0  0  0  0
    7.2939   -1.8552   25.3075 H   0  0  0  0  0  0  0  0  0  0  0  0
    6.7533   -0.5129   22.5398 N   0  0  0  0  0  0  0  0  0  0  0  0
    7.2957   -0.5281   21.3315 C   0  0  0  0  0  0  0  0  0  0  0  0
    6.5527    0.0635   20.2005 C   0  0  0  0  0  0  0  0  0  0  0  0
    5.3098    0.7205   20.2671 C   0  0  0  0  0  0  0  0  0  0  0  0
    4.8030    1.2878   19.0996 C   0  0  0  0  0  0  0  0  0  0  0  0
    5.5317    1.1814   17.9135 C   0  0  0  0  0  0  0  0  0  0  0  0
    6.6944    0.5269   17.8275 N   0  0  0  0  0  0  0  0  0  0  0  0
    7.1772   -0.0140   18.9462 C   0  0  0  0  0  0  0  0  0  0  0  0
    8.1215   -0.5419   18.8627 H   0  0  0  0  0  0  0  0  0  0  0  0
    5.1723    1.6296   16.9895 H   0  0  0  0  0  0  0  0  0  0  0  0
    3.8702    1.8393   19.0869 H   0  0  0  0  0  0  0  0  0  0  0  0
    4.7402    0.8117   21.1937 H   0  0  0  0  0  0  0  0  0  0  0  0
    8.5074   -0.9962   21.0461 N   0  0  0  0  0  0  0  0  0  0  0  0
    9.1960   -2.2702   24.0712 H   0  0  0  0  0  0  0  0  0  0  0  0
   10.5677   -2.4547   20.7130 H   0  0  0  0  0  0  0  0  0  0  0  0
   11.2056   -1.0574   21.5617 H   0  0  0  0  0  0  0  0  0  0  0  0
   11.0643   -2.6136   22.4110 H   0  0  0  0  0  0  0  0  0  0  0  0
  1  2  1  0
  2  3  2  0
  3  4  1  0
  4  5  1  0
  5  6  1  0
  6  7  1  0
  7  8  2  0
  8  9  1  0
  9 10  2  0
 10 11  1  0
 11 12  2  0
 12 13  1  0
 11 14  1  0
 10 15  1  0
  9 16  1  0
  8 17  1  0
  6 18  1  0
 18 19  1  0
 19 20  1  0
 20 21  1  0
 21 22  1  0
 22 23  1  0
 22 24  1  0
 21 25  1  0
 25 26  1  0
 25 27  1  0
 21 28  1  0
 19 29  1  0
 19 30  1  0
  6 31  1  0
  5 32  1  0
  4 33  2  0
 33 34  1  0
 34 35  1  0
 35 36  2  0
 36 37  1  0
 37 38  2  0
 38 39  1  0
 39 40  2  0
 40 41  1  0
 38 42  1  0
 37 43  1  0
 36 44  1  0
 34 45  2  0
  3 46  1  0
  1 47  1  0
  1 48  1  0
  1 49  1  0
 45  2  1  0
 12  7  1  0
 22 18  1  0
 40 35  1  0
 25 18  1  0
M  END
>  <plip>  (1) 
-0.0

>  <filename>  (1) 
[H][c]1[n][c]([H])[c](-[c]2[n][c]([N]([H])[C]([H])([c]3[c]([H])[c]([H])[c]([H])[c]([H])[c]3[H])[C]34[C]([H])([H])[O][C]([H])([C]3([H])[H])[C]4([H])[H])[c]([H])[c]([C]([H])([H])[H])[n]2)[c]([H])[c]1[H]

$$$$
