
     RDKit          3D

 30 31  0  0  0  0  0  0  0  0999 V2000
    6.1441   -1.5359   22.3614 H   0  0  0  0  0  0  0  0  0  0  0  0
    6.5723   -0.6117   22.5199 N   0  0  0  0  0  0  0  0  0  0  0  0
    7.7315   -0.7768   21.3980 S   0  0  1  0  0  6  0  0  0  0  0  0
    8.0517   -2.1352   21.0453 O   0  0  0  0  0  0  0  0  0  0  0  0
    6.7458   -0.0608   20.1433 C   0  0  0  0  0  0  0  0  0  0  0  0
    7.3884   -0.0599   18.9112 C   0  0  0  0  0  0  0  0  0  0  0  0
    8.3406   -0.5606   18.7142 H   0  0  0  0  0  0  0  0  0  0  0  0
    6.8657    0.5644   17.8565 N   0  0  0  0  0  0  0  0  0  0  0  0
    5.6847    1.1852   17.9904 C   0  0  0  0  0  0  0  0  0  0  0  0
    5.3075    1.7220   17.1172 H   0  0  0  0  0  0  0  0  0  0  0  0
    4.9538    1.1615   19.1805 C   0  0  0  0  0  0  0  0  0  0  0  0
    4.0052    1.6727   19.2332 H   0  0  0  0  0  0  0  0  0  0  0  0
    5.4669    0.4913   20.2841 C   0  0  0  0  0  0  0  0  0  0  0  0
    4.9386    0.4009   21.2402 H   0  0  0  0  0  0  0  0  0  0  0  0
    8.8290    0.4601   21.3253 N   0  0  0  0  0  0  0  0  0  0  0  0
    8.3701    1.2029   21.8764 H   0  0  0  0  0  0  0  0  0  0  0  0
    9.0650   -0.3215   22.9718 S   0  0  0  0  0  0  0  0  0  0  0  0
   10.4173   -0.7741   22.7965 O   0  0  0  0  0  0  0  0  0  0  0  0
    8.6446    0.8956   23.6401 O   0  0  0  0  0  0  0  0  0  0  0  0
    8.3669   -1.6733   24.0318 C   0  0  0  0  0  0  0  0  0  0  0  0
    8.7644   -2.9813   23.7609 C   0  0  0  0  0  0  0  0  0  0  0  0
    9.4213   -3.2084   22.9236 H   0  0  0  0  0  0  0  0  0  0  0  0
    8.2801   -4.0103   24.5728 C   0  0  0  0  0  0  0  0  0  0  0  0
    8.5629   -5.0353   24.3533 H   0  0  0  0  0  0  0  0  0  0  0  0
    7.4599   -3.7263   25.6719 C   0  0  0  0  0  0  0  0  0  0  0  0
    7.1139   -4.5316   26.3162 H   0  0  0  0  0  0  0  0  0  0  0  0
    7.0673   -2.4056   25.9145 C   0  0  0  0  0  0  0  0  0  0  0  0
    6.4207   -2.1790   26.7576 H   0  0  0  0  0  0  0  0  0  0  0  0
    7.4842   -1.3688   25.0702 C   0  0  0  0  0  0  0  0  0  0  0  0
    7.0622   -0.3690   25.1700 H   0  0  0  0  0  0  0  0  0  0  0  0
  1  2  1  0
  2  3  2  0
  3  4  2  0
  3  5  1  0
  5  6  2  0
  6  7  1  0
  6  8  1  0
  8  9  2  0
  9 10  1  0
  9 11  1  0
 11 12  1  0
 11 13  2  0
 13 14  1  0
  3 15  1  1
 15 16  1  0
 15 17  1  0
 17 18  2  0
 17 19  2  0
 17 20  1  0
 20 21  2  0
 21 22  1  0
 21 23  1  0
 23 24  1  0
 23 25  2  0
 25 26  1  0
 25 27  1  0
 27 28  1  0
 27 29  2  0
 29 30  1  0
 13  5  1  0
 29 20  1  0
M  END
>  <plip>  (1) 
-0.034482758620689655

>  <filename>  (1) 
[H][N]=[S@@](=[O])([c]1[c]([H])[n][c]([H])[c]([H])[c]1[H])[N]([H])[S](=[O])(=[O])[c]1[c]([H])[c]([H])[c]([H])[c]([H])[c]1[H]

$$$$
