
     RDKit          3D

 24 25  0  0  0  0  0  0  0  0999 V2000
    4.9195    1.7796   16.9944 H   0  0  0  0  0  0  0  0  0  0  0  0
    5.4019    1.2922   17.8390 C   0  0  0  0  0  0  0  0  0  0  0  0
    6.5673    0.6782   17.5823 N   0  0  0  0  0  0  0  0  0  0  0  0
    7.1730    0.0702   18.6086 C   0  0  0  0  0  0  0  0  0  0  0  0
    8.1207   -0.4189   18.3844 H   0  0  0  0  0  0  0  0  0  0  0  0
    6.6457    0.0154   19.9049 C   0  0  0  0  0  0  0  0  0  0  0  0
    7.4112   -0.6695   20.9993 C   0  0  0  0  0  0  0  0  0  0  0  0
    7.7255   -1.6657   20.6779 H   0  0  0  0  0  0  0  0  0  0  0  0
    6.7983   -0.7751   21.9042 H   0  0  0  0  0  0  0  0  0  0  0  0
    8.6584    0.0056   21.2849 O   0  0  0  0  0  0  0  0  0  0  0  0
    8.6042    1.1853   21.9416 C   0  0  0  0  0  0  0  0  0  0  0  0
    7.5703    1.6801   22.3397 O   0  0  0  0  0  0  0  0  0  0  0  0
    9.9501    1.8428   22.1577 C   0  0  0  0  0  0  0  0  0  0  0  0
   11.1325    1.3497   21.7539 N   0  0  0  0  0  0  0  0  0  0  0  0
   12.0249    2.2450   22.1619 N   0  0  0  0  0  0  0  0  0  0  0  0
   12.9963    2.0715   21.9560 H   0  0  0  0  0  0  0  0  0  0  0  0
   11.4874    3.3058   22.8167 C   0  0  0  0  0  0  0  0  0  0  0  0
   12.0980    4.1188   23.1979 H   0  0  0  0  0  0  0  0  0  0  0  0
   10.1358    3.0774   22.8343 C   0  0  0  0  0  0  0  0  0  0  0  0
    9.3857    3.7188   23.2656 H   0  0  0  0  0  0  0  0  0  0  0  0
    5.4264    0.6508   20.1542 C   0  0  0  0  0  0  0  0  0  0  0  0
    5.0106    0.6431   21.1662 H   0  0  0  0  0  0  0  0  0  0  0  0
    4.7973    1.3135   19.0991 C   0  0  0  0  0  0  0  0  0  0  0  0
    3.8670    1.8498   19.2521 H   0  0  0  0  0  0  0  0  0  0  0  0
  1  2  1  0
  2  3  2  0
  3  4  1  0
  4  5  1  0
  4  6  2  0
  6  7  1  0
  7  8  1  0
  7  9  1  0
  7 10  1  0
 10 11  1  0
 11 12  2  0
 11 13  1  0
 13 14  2  0
 14 15  1  0
 15 16  1  0
 15 17  1  0
 17 18  1  0
 17 19  2  0
 19 20  1  0
  6 21  1  0
 21 22  1  0
 21 23  2  0
 23 24  1  0
 23  2  1  0
 19 13  1  0
M  END
>  <plip>  (1) 
-0.03571428571428571

>  <filename>  (1) 
[H][c]1[n][c]([H])[c]([C]([H])([H])[O][C](=[O])[c]2[n][n]([H])[c]([H])[c]2[H])[c]([H])[c]1[H]

$$$$
