
     RDKit          3D

 57 60  0  0  0  0  0  0  0  0999 V2000
    6.9804   -1.2295   25.3750 C   0  0  0  0  0  0  0  0  0  0  0  0
    6.7860   -0.0967   26.3630 C   0  0  0  0  0  0  0  0  0  0  0  0
    6.5737   -0.4161   27.7133 C   0  0  0  0  0  0  0  0  0  0  0  0
    6.3694    0.5608   28.6916 C   0  0  0  0  0  0  0  0  0  0  0  0
    6.3611    1.9073   28.3271 C   0  0  0  0  0  0  0  0  0  0  0  0
    6.5670    2.2633   26.9978 C   0  0  0  0  0  0  0  0  0  0  0  0
    6.7885    1.2761   26.0234 C   0  0  0  0  0  0  0  0  0  0  0  0
    6.9883    1.7267   24.6844 N   0  0  0  0  0  0  0  0  0  0  0  0
    6.2803    2.6951   24.0460 C   0  0  0  0  0  0  0  0  0  0  0  0
    6.8136    2.8309   22.7881 C   0  0  0  0  0  0  0  0  0  0  0  0
    7.8601    1.8780   22.7433 C   0  0  0  0  0  0  0  0  0  0  0  0
    8.7261    1.4810   21.5532 C   0  0  0  0  0  0  0  0  0  0  0  0
   10.2063    1.8115   21.6830 C   0  0  0  0  0  0  0  0  0  0  0  0
   10.3748    2.8826   21.8258 H   0  0  0  0  0  0  0  0  0  0  0  0
   10.7201    1.5107   20.7631 H   0  0  0  0  0  0  0  0  0  0  0  0
   10.6533    1.2781   22.5309 H   0  0  0  0  0  0  0  0  0  0  0  0
    8.6576   -0.0215   21.2873 N   0  0  0  0  0  4  0  0  0  0  0  0
    7.2956   -0.6284   21.1226 C   0  0  0  0  0  0  0  0  0  0  0  0
    6.5896    0.0827   19.9799 C   0  0  0  0  0  0  0  0  0  0  0  0
    5.3445    0.7090   20.1426 C   0  0  0  0  0  0  0  0  0  0  0  0
    4.7624    1.3530   19.0463 C   0  0  0  0  0  0  0  0  0  0  0  0
    5.4283    1.3338   17.8193 C   0  0  0  0  0  0  0  0  0  0  0  0
    6.6066    0.7218   17.6379 N   0  0  0  0  0  0  0  0  0  0  0  0
    7.1630    0.1211   18.6999 C   0  0  0  0  0  0  0  0  0  0  0  0
    8.1194   -0.3627   18.4948 H   0  0  0  0  0  0  0  0  0  0  0  0
    4.9902    1.8187   16.9462 H   0  0  0  0  0  0  0  0  0  0  0  0
    3.8136    1.8681   19.1321 H   0  0  0  0  0  0  0  0  0  0  0  0
    4.8480    0.7025   21.1137 H   0  0  0  0  0  0  0  0  0  0  0  0
    7.4172   -2.1560   20.8983 C   0  0  0  0  0  0  0  0  0  0  0  0
    8.1035   -3.0141   22.0009 C   0  0  0  0  0  0  0  0  0  0  0  0
    8.0004   -4.5174   21.6806 C   0  0  0  0  0  0  0  0  0  0  0  0
    6.6604   -4.9363   21.5247 O   0  0  0  0  0  0  0  0  0  0  0  0
    6.1022   -4.3322   20.3755 C   0  0  0  0  0  0  0  0  0  0  0  0
    6.0557   -2.8055   20.5213 C   0  0  0  0  0  0  0  0  0  0  0  0
    5.6679   -2.3590   19.6012 H   0  0  0  0  0  0  0  0  0  0  0  0
    5.3326   -2.5798   21.3178 H   0  0  0  0  0  0  0  0  0  0  0  0
    6.6512   -4.6433   19.4672 H   0  0  0  0  0  0  0  0  0  0  0  0
    5.1138   -4.7676   20.2790 H   0  0  0  0  0  0  0  0  0  0  0  0
    8.4453   -5.1414   22.4619 H   0  0  0  0  0  0  0  0  0  0  0  0
    8.5049   -4.7312   20.7248 H   0  0  0  0  0  0  0  0  0  0  0  0
    7.6470   -2.8337   22.9849 H   0  0  0  0  0  0  0  0  0  0  0  0
    9.1681   -2.7638   22.0834 H   0  0  0  0  0  0  0  0  0  0  0  0
    8.1076   -2.1421   20.0618 H   0  0  0  0  0  0  0  0  0  0  0  0
    6.7232   -0.4494   22.0382 H   0  0  0  0  0  0  0  0  0  0  0  0
    9.1180   -0.4629   22.1140 H   0  0  0  0  0  0  0  0  0  0  0  0
    9.2204   -0.2408   20.4393 H   0  0  0  0  0  0  0  0  0  0  0  0
    8.2948    2.0063   20.6956 H   0  0  0  0  0  0  0  0  0  0  0  0
    7.9637    1.2275   23.8994 N   0  0  0  0  0  0  0  0  0  0  0  0
    6.4845    3.4902   21.9967 H   0  0  0  0  0  0  0  0  0  0  0  0
    5.4513    3.1744   24.5441 H   0  0  0  0  0  0  0  0  0  0  0  0
    6.5783    3.3105   26.7032 H   0  0  0  0  0  0  0  0  0  0  0  0
    6.1935    2.6837   29.0680 H   0  0  0  0  0  0  0  0  0  0  0  0
    6.2207    0.2706   29.7282 H   0  0  0  0  0  0  0  0  0  0  0  0
    6.5657   -1.4671   27.9941 H   0  0  0  0  0  0  0  0  0  0  0  0
    6.3763   -1.0922   24.4717 H   0  0  0  0  0  0  0  0  0  0  0  0
    6.7006   -2.1865   25.8324 H   0  0  0  0  0  0  0  0  0  0  0  0
    8.0264   -1.3034   25.0572 H   0  0  0  0  0  0  0  0  0  0  0  0
  1  2  1  0
  2  3  2  0
  3  4  1  0
  4  5  2  0
  5  6  1  0
  6  7  2  0
  7  8  1  0
  8  9  1  0
  9 10  2  0
 10 11  1  0
 11 12  1  0
 12 13  1  0
 13 14  1  0
 13 15  1  0
 13 16  1  0
 12 17  1  0
 17 18  1  0
 18 19  1  0
 19 20  2  0
 20 21  1  0
 21 22  2  0
 22 23  1  0
 23 24  2  0
 24 25  1  0
 22 26  1  0
 21 27  1  0
 20 28  1  0
 18 29  1  0
 29 30  1  0
 30 31  1  0
 31 32  1  0
 32 33  1  0
 33 34  1  0
 34 35  1  0
 34 36  1  0
 33 37  1  0
 33 38  1  0
 31 39  1  0
 31 40  1  0
 30 41  1  0
 30 42  1  0
 29 43  1  0
 18 44  1  0
 17 45  1  0
 17 46  1  0
 12 47  1  0
 11 48  2  0
 10 49  1  0
  9 50  1  0
  6 51  1  0
  5 52  1  0
  4 53  1  0
  3 54  1  0
  1 55  1  0
  1 56  1  0
  1 57  1  0
  7  2  1  0
 48  8  1  0
 24 19  1  0
 34 29  1  0
M  CHG  1  17   1
M  END
>  <plip>  (1) 
-0.1

>  <filename>  (1) 
[H][c]1[n][c]([H])[c]([C]([H])([C]2([H])[C]([H])([H])[C]([H])([H])[O][C]([H])([H])[C]2([H])[H])[N+]([H])([H])[C]([H])([c]2[n][n](-[c]3[c]([H])[c]([H])[c]([H])[c]([H])[c]3[C]([H])([H])[H])[c]([H])[c]2[H])[C]([H])([H])[H])[c]([H])[c]1[H]

$$$$
