
     RDKit          3D

 42 44  0  0  0  0  0  0  0  0999 V2000
    8.1839   -2.8077   21.5525 C   0  0  0  0  0  0  0  0  0  0  0  0
    7.0374   -1.8000   21.7889 C   0  0  0  0  0  0  0  0  0  0  0  0
    5.6965   -2.3012   21.2884 C   0  0  0  0  0  0  0  0  0  0  0  0
    4.9544   -1.5084   21.3517 H   0  0  0  0  0  0  0  0  0  0  0  0
    5.7491   -2.6495   20.2510 H   0  0  0  0  0  0  0  0  0  0  0  0
    5.3604   -3.1182   21.9302 H   0  0  0  0  0  0  0  0  0  0  0  0
    7.3585   -0.4396   21.2445 N   0  0  0  0  0  0  0  0  0  0  0  0
    8.3269    0.2529   21.9707 C   0  0  0  0  0  0  0  0  0  0  0  0
    8.9914   -0.3018   22.8310 O   0  0  0  0  0  0  0  0  0  0  0  0
    8.4012    1.7768   21.7682 C   0  0  2  0  0  0  0  0  0  0  0  0
    9.7572    2.2461   21.8206 O   0  0  0  0  0  0  0  0  0  0  0  0
    9.8448    3.1993   22.7884 C   0  0  0  0  0  0  0  0  0  0  0  0
   11.0303    3.8210   23.1682 C   0  0  0  0  0  0  0  0  0  0  0  0
   10.9608    4.7803   24.1891 C   0  0  0  0  0  0  0  0  0  0  0  0
    9.7384    5.0857   24.8070 C   0  0  0  0  0  0  0  0  0  0  0  0
    8.5645    4.4270   24.4191 C   0  0  0  0  0  0  0  0  0  0  0  0
    8.6268    3.4741   23.3994 C   0  0  0  0  0  0  0  0  0  0  0  0
    7.5625    2.5641   22.8417 C   0  0  2  0  0  0  0  0  0  0  0  0
    6.8511    1.7219   23.9150 C   0  0  0  0  0  0  0  0  0  0  0  0
    6.3474    2.3717   24.6363 H   0  0  0  0  0  0  0  0  0  0  0  0
    6.0984    1.0592   23.4764 H   0  0  0  0  0  0  0  0  0  0  0  0
    7.5705    1.0985   24.4550 H   0  0  0  0  0  0  0  0  0  0  0  0
    6.7908    3.1442   22.3058 H   0  0  0  0  0  0  0  0  0  0  0  0
    7.6178    4.6427   24.9090 H   0  0  0  0  0  0  0  0  0  0  0  0
    9.7053    5.8278   25.5994 H   0  0  0  0  0  0  0  0  0  0  0  0
   11.8712    5.2811   24.5082 H   0  0  0  0  0  0  0  0  0  0  0  0
   11.9559    3.5432   22.6776 H   0  0  0  0  0  0  0  0  0  0  0  0
    8.0358    2.0158   20.7711 H   0  0  0  0  0  0  0  0  0  0  0  0
    6.6833    0.1326   20.0874 C   0  0  0  0  0  0  0  0  0  0  0  0
    5.4987    0.8708   20.2301 C   0  0  0  0  0  0  0  0  0  0  0  0
    4.8805    1.4002   19.0852 C   0  0  0  0  0  0  0  0  0  0  0  0
    5.4758    1.1895   17.8373 C   0  0  0  0  0  0  0  0  0  0  0  0
    6.6154    0.4972   17.6765 N   0  0  0  0  0  0  0  0  0  0  0  0
    7.1964   -0.0077   18.7780 C   0  0  0  0  0  0  0  0  0  0  0  0
    8.1340   -0.5430   18.6240 H   0  0  0  0  0  0  0  0  0  0  0  0
    5.0203    1.5882   16.9313 H   0  0  0  0  0  0  0  0  0  0  0  0
    3.9597    1.9719   19.1478 H   0  0  0  0  0  0  0  0  0  0  0  0
    5.0705    1.0194   21.2250 H   0  0  0  0  0  0  0  0  0  0  0  0
    6.9313   -1.6637   22.8742 H   0  0  0  0  0  0  0  0  0  0  0  0
    7.7762   -3.8166   21.4039 H   0  0  0  0  0  0  0  0  0  0  0  0
    8.7760   -2.5355   20.6705 H   0  0  0  0  0  0  0  0  0  0  0  0
    8.8641   -2.8466   22.4077 H   0  0  0  0  0  0  0  0  0  0  0  0
  1  2  1  0
  2  3  1  0
  3  4  1  0
  3  5  1  0
  3  6  1  0
  2  7  1  0
  7  8  1  0
  8  9  2  0
  8 10  1  0
 10 11  1  0
 11 12  1  0
 12 13  2  0
 13 14  1  0
 14 15  2  0
 15 16  1  0
 16 17  2  0
 17 18  1  0
 18 19  1  0
 19 20  1  0
 19 21  1  0
 19 22  1  0
 18 23  1  6
 16 24  1  0
 15 25  1  0
 14 26  1  0
 13 27  1  0
 10 28  1  6
  7 29  1  0
 29 30  2  0
 30 31  1  0
 31 32  2  0
 32 33  1  0
 33 34  2  0
 34 35  1  0
 32 36  1  0
 31 37  1  0
 30 38  1  0
  2 39  1  0
  1 40  1  0
  1 41  1  0
  1 42  1  0
 18 10  1  0
 34 29  1  0
 17 12  1  0
M  END
>  <plip>  (1) 
-0.13793103448275862

>  <filename>  (1) 
[H][c]1[n][c]([H])[c]([N]([C](=[O])[C@]2([H])[O][c]3[c]([H])[c]([H])[c]([H])[c]([H])[c]3[C@]2([H])[C]([H])([H])[H])[C]([H])([C]([H])([H])[H])[C]([H])([H])[H])[c]([H])[c]1[H]

$$$$
