
     RDKit          3D

 52 54  0  0  0  0  0  0  0  0999 V2000
    5.8049   -2.8502   19.1115 C   0  0  0  0  0  0  0  0  0  0  0  0
    5.9085   -2.4303   20.4590 O   0  0  0  0  0  0  0  0  0  0  0  0
    7.1836   -1.9929   20.8753 C   0  0  0  0  0  0  0  0  0  0  0  0
    7.5122   -2.5764   22.0942 O   0  0  0  0  0  0  0  0  0  0  0  0
    7.6905   -3.9880   22.0730 C   0  0  0  0  0  0  0  0  0  0  0  0
    8.3886   -4.2297   22.8724 H   0  0  0  0  0  0  0  0  0  0  0  0
    8.1230   -4.3380   21.1232 H   0  0  0  0  0  0  0  0  0  0  0  0
    6.7386   -4.5079   22.2462 H   0  0  0  0  0  0  0  0  0  0  0  0
    7.2418   -0.4362   21.0172 C   0  0  0  0  0  0  0  0  0  0  0  0
    8.6163    0.0830   21.0847 N   0  0  0  0  0  0  0  0  0  0  0  0
    8.8730    1.2564   21.7332 C   0  0  0  0  0  0  0  0  0  0  0  0
    8.0287    1.8479   22.4004 O   0  0  0  0  0  0  0  0  0  0  0  0
   10.3230    1.6746   21.7793 C   0  0  0  0  0  0  0  0  0  0  0  0
   10.9537    1.1586   23.0926 C   0  0  0  0  0  0  0  0  0  0  0  0
   10.6423   -0.3072   23.3315 C   0  0  0  0  0  0  0  0  0  0  0  0
   11.4516   -1.2887   22.7126 C   0  0  0  0  0  0  0  0  0  0  0  0
   11.3134   -2.6281   23.0118 C   0  0  0  0  0  0  0  0  0  0  0  0
   10.4108   -3.0639   24.0229 C   0  0  0  0  0  0  0  0  0  0  0  0
   10.4630   -4.3647   24.6158 C   0  0  0  0  0  0  0  0  0  0  0  0
    9.5023   -4.7658   25.5265 C   0  0  0  0  0  0  0  0  0  0  0  0
    8.4486   -3.8876   25.8862 C   0  0  0  0  0  0  0  0  0  0  0  0
    8.4238   -2.5955   25.3978 C   0  0  0  0  0  0  0  0  0  0  0  0
    9.4490   -2.1306   24.5127 C   0  0  0  0  0  0  0  0  0  0  0  0
    9.5578   -0.7533   24.1015 C   0  0  0  0  0  0  0  0  0  0  0  0
    8.5903    0.0724   24.5736 O   0  0  0  0  0  0  0  0  0  0  0  0
    8.4492    0.8373   23.9853 H   0  0  0  0  0  0  0  0  0  0  0  0
    7.6450   -1.8958   25.6776 H   0  0  0  0  0  0  0  0  0  0  0  0
    7.6550   -4.2439   26.5425 H   0  0  0  0  0  0  0  0  0  0  0  0
    9.5692   -5.7563   25.9724 H   0  0  0  0  0  0  0  0  0  0  0  0
   11.2885   -5.0161   24.3492 H   0  0  0  0  0  0  0  0  0  0  0  0
   12.0017   -3.3398   22.5999 H   0  0  0  0  0  0  0  0  0  0  0  0
   12.2651   -0.9842   22.0569 H   0  0  0  0  0  0  0  0  0  0  0  0
   10.5896    1.7588   23.9363 H   0  0  0  0  0  0  0  0  0  0  0  0
   12.0412    1.2982   23.0507 H   0  0  0  0  0  0  0  0  0  0  0  0
   10.8584    1.2898   20.9086 H   0  0  0  0  0  0  0  0  0  0  0  0
   10.3741    2.7655   21.7583 H   0  0  0  0  0  0  0  0  0  0  0  0
    9.4024   -0.5541   21.0267 H   0  0  0  0  0  0  0  0  0  0  0  0
    6.5514    0.3240   19.8967 C   0  0  0  0  0  0  0  0  0  0  0  0
    5.2722    0.8752   20.0380 C   0  0  0  0  0  0  0  0  0  0  0  0
    4.6489    1.4267   18.9123 C   0  0  0  0  0  0  0  0  0  0  0  0
    5.3318    1.4106   17.6921 C   0  0  0  0  0  0  0  0  0  0  0  0
    6.5729    0.9242   17.5454 N   0  0  0  0  0  0  0  0  0  0  0  0
    7.1707    0.4378   18.6389 C   0  0  0  0  0  0  0  0  0  0  0  0
    8.2027    0.1143   18.5009 H   0  0  0  0  0  0  0  0  0  0  0  0
    4.8724    1.8033   16.7883 H   0  0  0  0  0  0  0  0  0  0  0  0
    3.6656    1.8791   18.9695 H   0  0  0  0  0  0  0  0  0  0  0  0
    4.7857    0.8894   21.0168 H   0  0  0  0  0  0  0  0  0  0  0  0
    6.7188   -0.2397   21.9653 H   0  0  0  0  0  0  0  0  0  0  0  0
    7.9537   -2.2599   20.1350 H   0  0  0  0  0  0  0  0  0  0  0  0
    6.1815   -3.8783   18.9890 H   0  0  0  0  0  0  0  0  0  0  0  0
    4.7442   -2.8355   18.8495 H   0  0  0  0  0  0  0  0  0  0  0  0
    6.3334   -2.1756   18.4197 H   0  0  0  0  0  0  0  0  0  0  0  0
  1  2  1  0
  2  3  1  0
  3  4  1  0
  4  5  1  0
  5  6  1  0
  5  7  1  0
  5  8  1  0
  3  9  1  0
  9 10  1  0
 10 11  1  0
 11 12  2  0
 11 13  1  0
 13 14  1  0
 14 15  1  0
 15 16  2  0
 16 17  1  0
 17 18  2  0
 18 19  1  0
 19 20  2  0
 20 21  1  0
 21 22  2  0
 22 23  1  0
 23 24  2  0
 24 25  1  0
 25 26  1  0
 22 27  1  0
 21 28  1  0
 20 29  1  0
 19 30  1  0
 17 31  1  0
 16 32  1  0
 14 33  1  0
 14 34  1  0
 13 35  1  0
 13 36  1  0
 10 37  1  0
  9 38  1  0
 38 39  2  0
 39 40  1  0
 40 41  2  0
 41 42  1  0
 42 43  2  0
 43 44  1  0
 41 45  1  0
 40 46  1  0
 39 47  1  0
  9 48  1  0
  3 49  1  0
  1 50  1  0
  1 51  1  0
  1 52  1  0
 24 15  1  0
 43 38  1  0
 23 18  1  0
M  END
>  <plip>  (1) 
-0.06896551724137931

>  <filename>  (1) 
[H][O][c]1[c]([C]([H])([H])[C]([H])([H])[C](=[O])[N]([H])[C]([H])([c]2[c]([H])[n][c]([H])[c]([H])[c]2[H])[C]([H])([O][C]([H])([H])[H])[O][C]([H])([H])[H])[c]([H])[c]([H])[c]2[c]([H])[c]([H])[c]([H])[c]([H])[c]12

$$$$
