
     RDKit          3D

 32 34  0  0  0  0  0  0  0  0999 V2000
    7.8177    0.2502   22.1096 C   0  0  0  0  0  0  0  0  0  0  0  0
    7.4072   -0.7274   21.0043 C   0  0  1  0  0  0  0  0  0  0  0  0
    6.6174   -1.8361   21.5362 N   0  0  0  0  0  0  0  0  0  0  0  0
    7.1685   -2.8408   22.2585 C   0  0  0  0  0  0  0  0  0  0  0  0
    8.3738   -2.9208   22.4409 O   0  0  0  0  0  0  0  0  0  0  0  0
    6.2086   -3.9031   22.8266 C   0  0  0  0  0  0  0  0  0  0  0  0
    4.9238   -3.9165   22.6770 N   0  0  0  0  0  0  0  0  0  0  0  0
    4.3783   -5.0083   23.3225 C   0  0  0  0  0  0  0  0  0  0  0  0
    3.0124   -5.3292   23.3761 C   0  0  0  0  0  0  0  0  0  0  0  0
    2.6350   -6.4733   24.0649 C   0  0  0  0  0  0  0  0  0  0  0  0
    3.6283   -7.2665   24.6815 C   0  0  0  0  0  0  0  0  0  0  0  0
    4.9357   -6.9878   24.6443 N   0  0  0  0  0  0  0  0  0  0  0  0
    5.2870   -5.8738   23.9787 C   0  0  0  0  0  0  0  0  0  0  0  0
    6.9012   -5.2314   23.7505 S   0  0  0  0  0  0  0  0  0  0  0  0
    3.3423   -8.1666   25.2236 H   0  0  0  0  0  0  0  0  0  0  0  0
    1.5908   -6.7609   24.1330 H   0  0  0  0  0  0  0  0  0  0  0  0
    2.2982   -4.6760   22.8793 H   0  0  0  0  0  0  0  0  0  0  0  0
    5.6205   -1.8343   21.3944 H   0  0  0  0  0  0  0  0  0  0  0  0
    6.6452   -0.0259   19.9090 C   0  0  0  0  0  0  0  0  0  0  0  0
    5.4380    0.6414   20.1577 C   0  0  0  0  0  0  0  0  0  0  0  0
    4.8075    1.3095   19.1074 C   0  0  0  0  0  0  0  0  0  0  0  0
    5.4036    1.2906   17.8416 C   0  0  0  0  0  0  0  0  0  0  0  0
    6.5687    0.6768   17.5845 N   0  0  0  0  0  0  0  0  0  0  0  0
    7.1634    0.0513   18.6090 C   0  0  0  0  0  0  0  0  0  0  0  0
    8.1154   -0.4260   18.3772 H   0  0  0  0  0  0  0  0  0  0  0  0
    4.9155    1.7786   16.9994 H   0  0  0  0  0  0  0  0  0  0  0  0
    3.8754    1.8429   19.2615 H   0  0  0  0  0  0  0  0  0  0  0  0
    5.0002    0.6385   21.1608 H   0  0  0  0  0  0  0  0  0  0  0  0
    8.3193   -1.1573   20.5764 H   0  0  0  0  0  0  0  0  0  0  0  0
    6.9357    0.6433   22.6263 H   0  0  0  0  0  0  0  0  0  0  0  0
    8.3674    1.0926   21.6793 H   0  0  0  0  0  0  0  0  0  0  0  0
    8.4511   -0.2603   22.8379 H   0  0  0  0  0  0  0  0  0  0  0  0
  1  2  1  0
  2  3  1  0
  3  4  1  0
  4  5  2  0
  4  6  1  0
  6  7  2  0
  7  8  1  0
  8  9  2  0
  9 10  1  0
 10 11  2  0
 11 12  1  0
 12 13  2  0
 13 14  1  0
 11 15  1  0
 10 16  1  0
  9 17  1  0
  3 18  1  0
  2 19  1  0
 19 20  2  0
 20 21  1  0
 21 22  2  0
 22 23  1  0
 23 24  2  0
 24 25  1  0
 22 26  1  0
 21 27  1  0
 20 28  1  0
  2 29  1  6
  1 30  1  0
  1 31  1  0
  1 32  1  0
 14  6  1  0
 24 19  1  0
 13  8  1  0
M  END
>  <plip>  (1) 
-0.0967741935483871

>  <filename>  (1) 
[H][c]1[n][c]([H])[c]([C@]([H])([N]([H])[C](=[O])[c]2[n][c]3[c]([H])[c]([H])[c]([H])[n][c]3[s]2)[C]([H])([H])[H])[c]([H])[c]1[H]

$$$$
