
     RDKit          3D

 33 34  0  0  0  0  0  0  0  0999 V2000
    6.5459   -1.2114   21.8795 H   0  0  0  0  0  0  0  0  0  0  0  0
    7.2921   -0.6183   21.3566 C   0  0  0  0  0  0  0  0  0  0  0  0
    8.5685   -0.6532   21.8771 C   0  0  0  0  0  0  0  0  0  0  0  0
    8.8836   -1.8311   23.3610 Br  0  0  0  0  0  0  0  0  0  0  0  0
    9.6635    0.2423   21.3679 C   0  0  0  0  0  0  0  0  0  0  0  0
   10.1466   -0.2207   20.4989 H   0  0  0  0  0  0  0  0  0  0  0  0
    9.2338    1.2041   21.0628 H   0  0  0  0  0  0  0  0  0  0  0  0
   10.6555    0.4823   22.4274 N   0  0  0  0  0  0  0  0  0  0  0  0
   10.1973    0.7325   23.3059 H   0  0  0  0  0  0  0  0  0  0  0  0
   11.7132    1.4405   22.0825 C   0  0  0  0  0  0  0  0  0  0  0  0
   12.2742    1.0704   21.2253 H   0  0  0  0  0  0  0  0  0  0  0  0
   11.1540    2.7909   21.7278 C   0  0  0  0  0  0  0  0  0  0  0  0
   10.3747    3.0547   22.4473 H   0  0  0  0  0  0  0  0  0  0  0  0
   10.7274    2.7775   20.7220 H   0  0  0  0  0  0  0  0  0  0  0  0
   12.3414    3.7328   21.8665 C   0  0  0  0  0  0  0  0  0  0  0  0
   12.0336    4.7669   22.0591 H   0  0  0  0  0  0  0  0  0  0  0  0
   12.9367    3.7008   20.9487 H   0  0  0  0  0  0  0  0  0  0  0  0
   13.1395    3.1773   23.0380 C   0  0  0  0  0  0  0  0  0  0  0  0
   14.2167    3.2095   22.8401 H   0  0  0  0  0  0  0  0  0  0  0  0
   12.9110    3.7683   23.9303 H   0  0  0  0  0  0  0  0  0  0  0  0
   12.6597    1.7373   23.2375 C   0  0  0  0  0  0  0  0  0  0  0  0
   12.1348    1.6506   24.1895 H   0  0  0  0  0  0  0  0  0  0  0  0
   13.4978    1.0361   23.2572 H   0  0  0  0  0  0  0  0  0  0  0  0
    6.8316    0.1342   20.1799 C   0  0  0  0  0  0  0  0  0  0  0  0
    7.5954    0.3008   19.0034 C   0  0  0  0  0  0  0  0  0  0  0  0
    8.6165   -0.0705   18.9795 H   0  0  0  0  0  0  0  0  0  0  0  0
    7.0986    0.8491   17.8753 N   0  0  0  0  0  0  0  0  0  0  0  0
    5.8262    1.2937   17.8932 C   0  0  0  0  0  0  0  0  0  0  0  0
    5.4007    1.7292   16.9944 H   0  0  0  0  0  0  0  0  0  0  0  0
    5.0277    1.2165   19.0387 C   0  0  0  0  0  0  0  0  0  0  0  0
    4.0191    1.6127   19.0143 H   0  0  0  0  0  0  0  0  0  0  0  0
    5.5263    0.6242   20.1944 C   0  0  0  0  0  0  0  0  0  0  0  0
    4.9166    0.5379   21.0946 H   0  0  0  0  0  0  0  0  0  0  0  0
  1  2  1  0
  2  3  2  3
  3  4  1  0
  3  5  1  0
  5  6  1  0
  5  7  1  0
  5  8  1  0
  8  9  1  0
  8 10  1  0
 10 11  1  0
 10 12  1  0
 12 13  1  0
 12 14  1  0
 12 15  1  0
 15 16  1  0
 15 17  1  0
 15 18  1  0
 18 19  1  0
 18 20  1  0
 18 21  1  0
 21 22  1  0
 21 23  1  0
  2 24  1  0
 24 25  2  0
 25 26  1  0
 25 27  1  0
 27 28  2  0
 28 29  1  0
 28 30  1  0
 30 31  1  0
 30 32  2  0
 32 33  1  0
 21 10  1  0
 32 24  1  0
M  END
>  <plip>  (1) 
-0.07142857142857142

>  <filename>  (1) 
[H][C](=[C]([Br])[C]([H])([H])[N]([H])[C]1([H])[C]([H])([H])[C]([H])([H])[C]([H])([H])[C]1([H])[H])[c]1[c]([H])[n][c]([H])[c]([H])[c]1[H]

$$$$
