
     RDKit          3D

 48 50  0  0  0  0  0  0  0  0999 V2000
    6.9794    1.6898   22.5761 O   0  0  0  0  0  0  0  0  0  0  0  0
    8.1375    1.4631   22.2762 C   0  0  0  0  0  0  0  0  0  0  0  0
    9.2116    2.1715   22.7331 N   0  0  0  0  0  0  0  0  0  0  0  0
    9.0503    3.3285   23.6027 C   0  0  0  0  0  0  0  0  0  0  0  0
    8.6264    2.8916   25.0109 C   0  0  0  0  0  0  0  0  0  0  0  0
    8.4859    4.0376   25.8872 N   0  0  0  0  0  0  0  0  0  0  0  0
    8.0212    4.0275   27.1502 C   0  0  0  0  0  0  0  0  0  0  0  0
    7.9649    5.2666   27.6709 N   0  0  0  0  0  0  0  0  0  0  0  0
    7.5701    5.3178   28.9174 C   0  0  0  0  0  0  0  0  0  0  0  0
    7.5259    6.5352   29.4604 F   0  0  0  0  0  0  0  0  0  0  0  0
    7.2131    4.2476   29.7438 C   0  0  0  0  0  0  0  0  0  0  0  0
    7.2565    2.9811   29.1676 C   0  0  0  0  0  0  0  0  0  0  0  0
    7.6607    2.8659   27.8407 C   0  0  0  0  0  0  0  0  0  0  0  0
    7.7350    1.9267   27.3132 H   0  0  0  0  0  0  0  0  0  0  0  0
    6.9914    2.0915   29.7401 H   0  0  0  0  0  0  0  0  0  0  0  0
    6.9428    4.4365   30.7735 H   0  0  0  0  0  0  0  0  0  0  0  0
    8.5269    5.0029   25.6039 H   0  0  0  0  0  0  0  0  0  0  0  0
    7.6859    2.3231   24.9217 H   0  0  0  0  0  0  0  0  0  0  0  0
    9.3852    2.1864   25.3920 H   0  0  0  0  0  0  0  0  0  0  0  0
   10.0022    3.8660   23.6686 H   0  0  0  0  0  0  0  0  0  0  0  0
    8.2975    4.0278   23.2107 H   0  0  0  0  0  0  0  0  0  0  0  0
    9.9994    2.1027   22.1149 H   0  0  0  0  0  0  0  0  0  0  0  0
    8.6086    0.4287   21.4750 N   0  0  0  0  0  0  0  0  0  0  0  0
    7.6600   -0.5817   20.9889 C   0  0  0  0  0  0  0  0  0  0  0  0
    6.7794    0.0542   19.9242 C   0  0  0  0  0  0  0  0  0  0  0  0
    5.5523    0.6909   20.1630 C   0  0  0  0  0  0  0  0  0  0  0  0
    4.8836    1.2864   19.0843 C   0  0  0  0  0  0  0  0  0  0  0  0
    5.4678    1.2344   17.8132 C   0  0  0  0  0  0  0  0  0  0  0  0
    6.6431    0.6343   17.5641 N   0  0  0  0  0  0  0  0  0  0  0  0
    7.2677    0.0764   18.6073 C   0  0  0  0  0  0  0  0  0  0  0  0
    8.2256   -0.3922   18.3841 H   0  0  0  0  0  0  0  0  0  0  0  0
    4.9732    1.6903   16.9558 H   0  0  0  0  0  0  0  0  0  0  0  0
    3.9302    1.7912   19.2165 H   0  0  0  0  0  0  0  0  0  0  0  0
    5.1502    0.7693   21.1769 H   0  0  0  0  0  0  0  0  0  0  0  0
    6.9320   -1.3691   22.1037 C   0  0  0  0  0  0  0  0  0  0  0  0
    5.8794   -2.3224   21.5755 C   0  0  0  0  0  0  0  0  0  0  0  0
    5.7541   -3.3450   22.7048 C   0  0  0  0  0  0  0  0  0  0  0  0
    7.1841   -3.3572   23.2940 C   0  0  0  0  0  0  0  0  0  0  0  0
    7.8662   -2.2347   22.7435 O   0  0  0  0  0  0  0  0  0  0  0  0
    7.1844   -3.2832   24.3914 H   0  0  0  0  0  0  0  0  0  0  0  0
    7.7484   -4.2537   23.0114 H   0  0  0  0  0  0  0  0  0  0  0  0
    5.0328   -3.0153   23.4634 H   0  0  0  0  0  0  0  0  0  0  0  0
    5.4351   -4.3296   22.3466 H   0  0  0  0  0  0  0  0  0  0  0  0
    4.9774   -1.7673   21.3289 H   0  0  0  0  0  0  0  0  0  0  0  0
    6.2753   -2.7848   20.6644 H   0  0  0  0  0  0  0  0  0  0  0  0
    6.5101   -0.6756   22.8450 H   0  0  0  0  0  0  0  0  0  0  0  0
    8.2652   -1.3479   20.4922 H   0  0  0  0  0  0  0  0  0  0  0  0
    9.3845    0.0342   21.9865 H   0  0  0  0  0  0  0  0  0  0  0  0
  1  2  2  0
  2  3  1  0
  3  4  1  0
  4  5  1  0
  5  6  1  0
  6  7  1  0
  7  8  2  0
  8  9  1  0
  9 10  1  0
  9 11  2  0
 11 12  1  0
 12 13  2  0
 13 14  1  0
 12 15  1  0
 11 16  1  0
  6 17  1  0
  5 18  1  0
  5 19  1  0
  4 20  1  0
  4 21  1  0
  3 22  1  0
  2 23  1  0
 23 24  1  0
 24 25  1  0
 25 26  2  0
 26 27  1  0
 27 28  2  0
 28 29  1  0
 29 30  2  0
 30 31  1  0
 28 32  1  0
 27 33  1  0
 26 34  1  0
 24 35  1  0
 35 36  1  0
 36 37  1  0
 37 38  1  0
 38 39  1  0
 38 40  1  0
 38 41  1  0
 37 42  1  0
 37 43  1  0
 36 44  1  0
 36 45  1  0
 35 46  1  0
 24 47  1  0
 23 48  1  0
 13  7  1  0
 30 25  1  0
 39 35  1  0
M  END
>  <plip>  (1) 
-0.10344827586206896

>  <filename>  (1) 
[H][c]1[n][c]([H])[c]([C]([H])([N]([H])[C](=[O])[N]([H])[C]([H])([H])[C]([H])([H])[N]([H])[c]2[n][c]([F])[c]([H])[c]([H])[c]2[H])[C]2([H])[O][C]([H])([H])[C]([H])([H])[C]2([H])[H])[c]([H])[c]1[H]

$$$$
