
     RDKit          3D

 46 48  0  0  0  0  0  0  0  0999 V2000
    5.0657   -3.4635   21.9352 C   0  0  0  0  0  0  0  0  0  0  0  0
    5.5506   -2.1852   21.6138 O   0  0  0  0  0  0  0  0  0  0  0  0
    6.8961   -2.1601   21.1901 C   0  0  0  0  0  0  0  0  0  0  0  0
    7.4016   -0.7223   20.9926 C   0  0  2  0  0  0  0  0  0  0  0  0
    7.4696    0.0065   22.2482 N   0  0  0  0  0  0  0  0  0  0  0  0
    8.3452    1.0291   22.4399 C   0  0  0  0  0  0  0  0  0  0  0  0
    9.1559    1.3562   21.5911 O   0  0  0  0  0  0  0  0  0  0  0  0
    8.3004    1.6801   23.8076 C   0  0  0  0  0  0  0  0  0  0  0  0
    9.1074    0.8897   24.8720 C   0  0  0  0  0  0  0  0  0  0  0  0
    8.4987   -0.4720   25.1486 C   0  0  0  0  0  0  0  0  0  0  0  0
    7.3413   -0.5625   25.9726 C   0  0  0  0  0  0  0  0  0  0  0  0
    6.6743   -1.7546   26.1713 C   0  0  0  0  0  0  0  0  0  0  0  0
    7.1435   -2.9465   25.5333 C   0  0  0  0  0  0  0  0  0  0  0  0
    6.5260   -4.2281   25.6577 C   0  0  0  0  0  0  0  0  0  0  0  0
    7.0700   -5.3026   24.9891 C   0  0  0  0  0  0  0  0  0  0  0  0
    8.2200   -5.1017   24.1827 C   0  0  0  0  0  0  0  0  0  0  0  0
    8.8234   -3.9413   24.0214 N   0  0  0  0  0  0  0  0  0  0  0  0
    8.3111   -2.8683   24.7064 C   0  0  0  0  0  0  0  0  0  0  0  0
    8.9708   -1.6271   24.5453 C   0  0  0  0  0  0  0  0  0  0  0  0
    9.8225   -1.6510   23.8775 H   0  0  0  0  0  0  0  0  0  0  0  0
    8.6581   -5.9443   23.6516 H   0  0  0  0  0  0  0  0  0  0  0  0
    6.6370   -6.2922   25.0740 H   0  0  0  0  0  0  0  0  0  0  0  0
    5.6375   -4.3368   26.2772 H   0  0  0  0  0  0  0  0  0  0  0  0
    5.7815   -1.8053   26.7945 H   0  0  0  0  0  0  0  0  0  0  0  0
    6.9704    0.3460   26.4483 H   0  0  0  0  0  0  0  0  0  0  0  0
   10.1507    0.7864   24.5397 H   0  0  0  0  0  0  0  0  0  0  0  0
    9.1194    1.4717   25.8025 H   0  0  0  0  0  0  0  0  0  0  0  0
    8.6971    2.6903   23.6765 H   0  0  0  0  0  0  0  0  0  0  0  0
    7.2527    1.7606   24.1157 H   0  0  0  0  0  0  0  0  0  0  0  0
    6.7706   -0.1618   22.9536 H   0  0  0  0  0  0  0  0  0  0  0  0
    6.6560    0.0519   19.9113 C   0  0  0  0  0  0  0  0  0  0  0  0
    5.4277    0.6920   20.1326 C   0  0  0  0  0  0  0  0  0  0  0  0
    4.7969    1.3345   19.0669 C   0  0  0  0  0  0  0  0  0  0  0  0
    5.4107    1.3079   17.8106 C   0  0  0  0  0  0  0  0  0  0  0  0
    6.5779    0.6935   17.5701 N   0  0  0  0  0  0  0  0  0  0  0  0
    7.1793    0.0978   18.6088 C   0  0  0  0  0  0  0  0  0  0  0  0
    8.1394   -0.3705   18.3807 H   0  0  0  0  0  0  0  0  0  0  0  0
    4.9379    1.7917   16.9583 H   0  0  0  0  0  0  0  0  0  0  0  0
    3.8505    1.8516   19.1952 H   0  0  0  0  0  0  0  0  0  0  0  0
    4.9675    0.6870   21.1222 H   0  0  0  0  0  0  0  0  0  0  0  0
    8.4389   -0.8315   20.6536 H   0  0  0  0  0  0  0  0  0  0  0  0
    7.5542   -2.6473   21.9309 H   0  0  0  0  0  0  0  0  0  0  0  0
    6.9919   -2.6879   20.2267 H   0  0  0  0  0  0  0  0  0  0  0  0
    5.1179   -4.1491   21.0753 H   0  0  0  0  0  0  0  0  0  0  0  0
    5.5982   -3.9161   22.7860 H   0  0  0  0  0  0  0  0  0  0  0  0
    4.0196   -3.3408   22.2126 H   0  0  0  0  0  0  0  0  0  0  0  0
  1  2  1  0
  2  3  1  0
  3  4  1  0
  4  5  1  0
  5  6  1  0
  6  7  2  0
  6  8  1  0
  8  9  1  0
  9 10  1  0
 10 11  2  0
 11 12  1  0
 12 13  2  0
 13 14  1  0
 14 15  2  0
 15 16  1  0
 16 17  2  0
 17 18  1  0
 18 19  2  0
 19 20  1  0
 16 21  1  0
 15 22  1  0
 14 23  1  0
 12 24  1  0
 11 25  1  0
  9 26  1  0
  9 27  1  0
  8 28  1  0
  8 29  1  0
  5 30  1  0
  4 31  1  0
 31 32  2  0
 32 33  1  0
 33 34  2  0
 34 35  1  0
 35 36  2  0
 36 37  1  0
 34 38  1  0
 33 39  1  0
 32 40  1  0
  4 41  1  6
  3 42  1  0
  3 43  1  0
  1 44  1  0
  1 45  1  0
  1 46  1  0
 19 10  1  0
 36 31  1  0
 18 13  1  0
M  END
>  <plip>  (1) 
-0.17857142857142858

>  <filename>  (1) 
[H][c]1[n][c]([H])[c]([C@@]([H])([N]([H])[C](=[O])[C]([H])([H])[C]([H])([H])[c]2[c]([H])[c]([H])[c]3[c]([H])[c]([H])[c]([H])[n][c]3[c]2[H])[C]([H])([H])[O][C]([H])([H])[H])[c]([H])[c]1[H]

$$$$
