
     RDKit          3D

 44 46  0  0  0  0  0  0  0  0999 V2000
    4.9592    1.7967   16.9518 H   0  0  0  0  0  0  0  0  0  0  0  0
    5.4018    1.3166   17.8206 C   0  0  0  0  0  0  0  0  0  0  0  0
    6.5861    0.7160   17.6157 N   0  0  0  0  0  0  0  0  0  0  0  0
    7.1691    0.1404   18.6756 C   0  0  0  0  0  0  0  0  0  0  0  0
    8.1396   -0.3170   18.4878 H   0  0  0  0  0  0  0  0  0  0  0  0
    6.6082    0.0835   19.9625 C   0  0  0  0  0  0  0  0  0  0  0  0
    7.3186   -0.6752   21.0782 C   0  0  2  0  0  0  0  0  0  0  0  0
    6.9131   -0.3270   22.0406 H   0  0  0  0  0  0  0  0  0  0  0  0
    8.7892   -0.3868   21.0424 N   0  0  0  0  0  0  0  0  0  0  0  0
    9.1199    0.6330   22.0121 N   0  0  0  0  0  0  0  0  0  0  0  0
    8.2871    1.8469   21.8863 C   0  0  0  0  0  0  0  0  0  0  0  0
    7.3227    1.7099   22.3908 H   0  0  0  0  0  0  0  0  0  0  0  0
    8.0932    2.0806   20.8267 H   0  0  0  0  0  0  0  0  0  0  0  0
    9.1176    2.9235   22.5450 C   0  0  0  0  0  0  0  0  0  0  0  0
    9.0566    2.8210   23.6323 H   0  0  0  0  0  0  0  0  0  0  0  0
    8.7957    3.9294   22.2536 H   0  0  0  0  0  0  0  0  0  0  0  0
   10.5372    2.6071   22.0778 C   0  0  1  0  0  0  0  0  0  0  0  0
   10.6402    2.9677   21.0377 H   0  0  0  0  0  0  0  0  0  0  0  0
   11.5850    3.1710   22.9336 N   0  0  0  0  0  0  0  0  0  0  0  0
   12.9042    2.9090   22.3726 C   0  0  0  0  0  0  0  0  0  0  0  0
   13.0509    3.4200   21.4007 H   0  0  0  0  0  0  0  0  0  0  0  0
   13.6855    3.2487   23.0604 H   0  0  0  0  0  0  0  0  0  0  0  0
   13.0509    1.8344   22.2256 H   0  0  0  0  0  0  0  0  0  0  0  0
   11.4101    4.6055   23.1652 C   0  0  0  0  0  0  0  0  0  0  0  0
   10.4815    4.8064   23.7074 H   0  0  0  0  0  0  0  0  0  0  0  0
   12.2234    4.9763   23.7960 H   0  0  0  0  0  0  0  0  0  0  0  0
   11.4012    5.2083   22.2351 H   0  0  0  0  0  0  0  0  0  0  0  0
   10.5357    1.0628   21.9621 C   0  0  0  0  0  0  0  0  0  0  0  0
   11.1000    0.5906   22.7742 H   0  0  0  0  0  0  0  0  0  0  0  0
   11.0075    0.7643   21.0166 H   0  0  0  0  0  0  0  0  0  0  0  0
    9.6196   -1.6046   21.2298 C   0  0  0  0  0  0  0  0  0  0  0  0
   10.6465   -1.3349   21.4940 H   0  0  0  0  0  0  0  0  0  0  0  0
    9.6561   -2.1343   20.2713 H   0  0  0  0  0  0  0  0  0  0  0  0
    9.0230   -2.5631   22.2565 C   0  0  0  0  0  0  0  0  0  0  0  0
    8.9236   -2.0740   23.2407 H   0  0  0  0  0  0  0  0  0  0  0  0
    9.6591   -3.4430   22.3835 H   0  0  0  0  0  0  0  0  0  0  0  0
    7.7614   -3.0556   21.8182 O   0  0  0  0  0  0  0  0  0  0  0  0
    6.9661   -2.1855   21.0147 C   0  0  0  0  0  0  0  0  0  0  0  0
    6.9958   -2.4980   19.9626 H   0  0  0  0  0  0  0  0  0  0  0  0
    5.9334   -2.3008   21.3505 H   0  0  0  0  0  0  0  0  0  0  0  0
    5.3601    0.7086   20.1543 C   0  0  0  0  0  0  0  0  0  0  0  0
    4.8677    0.7135   21.1289 H   0  0  0  0  0  0  0  0  0  0  0  0
    4.7523    1.3387   19.0594 C   0  0  0  0  0  0  0  0  0  0  0  0
    3.8009    1.8554   19.1529 H   0  0  0  0  0  0  0  0  0  0  0  0
  1  2  1  0
  2  3  2  0
  3  4  1  0
  4  5  1  0
  4  6  2  0
  6  7  1  0
  7  8  1  1
  7  9  1  0
  9 10  1  0
 10 11  1  0
 11 12  1  0
 11 13  1  0
 11 14  1  0
 14 15  1  0
 14 16  1  0
 14 17  1  0
 17 18  1  6
 17 19  1  0
 19 20  1  0
 20 21  1  0
 20 22  1  0
 20 23  1  0
 19 24  1  0
 24 25  1  0
 24 26  1  0
 24 27  1  0
 17 28  1  0
 28 29  1  0
 28 30  1  0
  9 31  1  0
 31 32  1  0
 31 33  1  0
 31 34  1  0
 34 35  1  0
 34 36  1  0
 34 37  1  0
 37 38  1  0
 38 39  1  0
 38 40  1  0
  6 41  1  0
 41 42  1  0
 41 43  2  0
 43 44  1  0
 43  2  1  0
 38  7  1  0
 28 10  1  0
M  END
>  <plip>  (1) 
-0.034482758620689655

>  <filename>  (1) 
[H][c]1[n][c]([H])[c]([C@]2([H])[N]([N]3[C]([H])([H])[C]([H])([H])[C@@]([H])([N]([C]([H])([H])[H])[C]([H])([H])[H])[C]3([H])[H])[C]([H])([H])[C]([H])([H])[O][C]2([H])[H])[c]([H])[c]1[H]

$$$$
