
     RDKit          3D

 25 27  0  0  0  0  0  0  0  0999 V2000
    7.1265    4.5782   24.2921 H   0  0  0  0  0  0  0  0  0  0  0  0
    7.2533    3.5918   23.8579 C   0  0  0  0  0  0  0  0  0  0  0  0
    7.3625    2.5538   24.7062 N   0  0  0  0  0  0  0  0  0  0  0  0
    7.5282    1.3431   24.1467 C   0  0  0  0  0  0  0  0  0  0  0  0
    7.6191    0.4944   24.8157 H   0  0  0  0  0  0  0  0  0  0  0  0
    7.5775    1.1636   22.7420 C   0  0  0  0  0  0  0  0  0  0  0  0
    7.7295   -0.2105   22.1993 C   0  0  0  0  0  0  0  0  0  0  0  0
    8.2460   -1.1895   22.9011 N   0  0  0  0  0  0  0  0  0  0  0  0
    8.1408   -2.3393   22.1748 N   0  0  0  0  0  0  0  0  0  0  0  0
    7.5517   -2.0400   21.0542 C   0  0  0  0  0  0  0  0  0  0  0  0
    7.2550   -2.7537   20.3008 H   0  0  0  0  0  0  0  0  0  0  0  0
    7.2844   -0.6920   20.9706 N   0  0  0  0  0  0  0  0  0  0  0  0
    6.6203   -0.0062   19.8872 C   0  0  0  0  0  0  0  0  0  0  0  0
    7.1696    0.0653   18.5847 C   0  0  0  0  0  0  0  0  0  0  0  0
    8.1345   -0.3970   18.3720 H   0  0  0  0  0  0  0  0  0  0  0  0
    6.5679    0.6886   17.5644 N   0  0  0  0  0  0  0  0  0  0  0  0
    5.3964    1.2997   17.8048 C   0  0  0  0  0  0  0  0  0  0  0  0
    4.9496    1.8319   16.9679 H   0  0  0  0  0  0  0  0  0  0  0  0
    4.7675    1.2815   19.0531 C   0  0  0  0  0  0  0  0  0  0  0  0
    3.8291    1.8063   19.1942 H   0  0  0  0  0  0  0  0  0  0  0  0
    5.3806    0.6023   20.1106 C   0  0  0  0  0  0  0  0  0  0  0  0
    4.9501    0.5943   21.1130 H   0  0  0  0  0  0  0  0  0  0  0  0
    7.4896    2.2187   21.9014 N   0  0  0  0  0  0  0  0  0  0  0  0
    7.3090    3.4231   22.4624 C   0  0  0  0  0  0  0  0  0  0  0  0
    7.1956    4.2592   21.7799 H   0  0  0  0  0  0  0  0  0  0  0  0
  1  2  1  0
  2  3  2  0
  3  4  1  0
  4  5  1  0
  4  6  2  0
  6  7  1  0
  7  8  2  0
  8  9  1  0
  9 10  2  0
 10 11  1  0
 10 12  1  0
 12 13  1  0
 13 14  2  0
 14 15  1  0
 14 16  1  0
 16 17  2  0
 17 18  1  0
 17 19  1  0
 19 20  1  0
 19 21  2  0
 21 22  1  0
  6 23  1  0
 23 24  2  0
 24 25  1  0
 24  2  1  0
 12  7  1  0
 21 13  1  0
M  END
>  <plip>  (1) 
-0.034482758620689655

>  <filename>  (1) 
[H][c]1[n][c]([H])[c](-[c]2[n][n][c]([H])[n]2-[c]2[c]([H])[n][c]([H])[c]([H])[c]2[H])[n][c]1[H]

$$$$
