
     RDKit          3D

 31 32  0  0  0  0  0  0  0  0999 V2000
    5.7077   -1.8323   21.5912 H   0  0  0  0  0  0  0  0  0  0  0  0
    6.7490   -1.5832   21.7659 C   0  0  0  0  0  0  0  0  0  0  0  0
    7.2523   -2.0739   22.5938 H   0  0  0  0  0  0  0  0  0  0  0  0
    7.3863   -0.6986   21.0023 C   0  0  0  0  0  0  0  0  0  0  0  0
    6.6762    0.0270   19.9106 C   0  0  0  0  0  0  0  0  0  0  0  0
    7.1784    0.0787   18.5967 C   0  0  0  0  0  0  0  0  0  0  0  0
    8.1219   -0.4171   18.3593 H   0  0  0  0  0  0  0  0  0  0  0  0
    6.5628    0.6794   17.5702 N   0  0  0  0  0  0  0  0  0  0  0  0
    5.3986    1.2972   17.8292 C   0  0  0  0  0  0  0  0  0  0  0  0
    4.9215    1.7917   16.9844 H   0  0  0  0  0  0  0  0  0  0  0  0
    4.8085    1.3174   19.0968 C   0  0  0  0  0  0  0  0  0  0  0  0
    3.8730    1.8425   19.2451 H   0  0  0  0  0  0  0  0  0  0  0  0
    5.4466    0.6606   20.1472 C   0  0  0  0  0  0  0  0  0  0  0  0
    5.0217    0.6386   21.1531 H   0  0  0  0  0  0  0  0  0  0  0  0
    8.8242   -0.3061   21.3146 C   0  0  0  0  0  0  0  0  0  0  0  0
    9.3627   -1.1422   21.7701 H   0  0  0  0  0  0  0  0  0  0  0  0
    9.3392   -0.0293   20.3897 H   0  0  0  0  0  0  0  0  0  0  0  0
    8.8357    0.8649   22.2644 C   0  0  0  0  0  0  0  0  0  0  0  0
    8.8942    0.5848   23.5801 N   0  0  0  0  0  0  0  0  0  0  0  0
    8.8759    1.6138   24.4150 C   0  0  0  0  0  0  0  0  0  0  0  0
    8.9287    1.4195   25.7466 O   0  0  0  0  0  0  0  0  0  0  0  0
    8.9946    0.1014   26.2811 C   0  0  0  0  0  0  0  0  0  0  0  0
    9.0191    0.2465   27.3626 H   0  0  0  0  0  0  0  0  0  0  0  0
    9.8976   -0.4275   25.9529 H   0  0  0  0  0  0  0  0  0  0  0  0
    8.1168   -0.4957   26.0027 H   0  0  0  0  0  0  0  0  0  0  0  0
    8.8017    2.9635   24.0207 C   0  0  0  0  0  0  0  0  0  0  0  0
    8.7949    3.7153   24.7973 H   0  0  0  0  0  0  0  0  0  0  0  0
    8.7349    3.2468   22.6684 C   0  0  0  0  0  0  0  0  0  0  0  0
    8.6767    4.2751   22.3018 H   0  0  0  0  0  0  0  0  0  0  0  0
    8.7469    2.1679   21.7738 C   0  0  0  0  0  0  0  0  0  0  0  0
    8.6790    2.3279   20.7069 H   0  0  0  0  0  0  0  0  0  0  0  0
  1  2  1  0
  2  3  1  0
  2  4  2  3
  4  5  1  0
  5  6  2  0
  6  7  1  0
  6  8  1  0
  8  9  2  0
  9 10  1  0
  9 11  1  0
 11 12  1  0
 11 13  2  0
 13 14  1  0
  4 15  1  0
 15 16  1  0
 15 17  1  0
 15 18  1  0
 18 19  2  0
 19 20  1  0
 20 21  1  0
 21 22  1  0
 22 23  1  0
 22 24  1  0
 22 25  1  0
 20 26  2  0
 26 27  1  0
 26 28  1  0
 28 29  1  0
 28 30  2  0
 30 31  1  0
 13  5  1  0
 30 18  1  0
M  END
>  <plip>  (1) 
-0.0

>  <filename>  (1) 
[H][C]([H])=[C]([c]1[c]([H])[n][c]([H])[c]([H])[c]1[H])[C]([H])([H])[c]1[n][c]([O][C]([H])([H])[H])[c]([H])[c]([H])[c]1[H]

$$$$
