
     RDKit          3D

 34 37  0  0  0  0  0  0  0  0999 V2000
    5.2820    1.7667   17.1061 H   0  0  0  0  0  0  0  0  0  0  0  0
    5.7369    1.2498   17.9513 C   0  0  0  0  0  0  0  0  0  0  0  0
    6.9749    0.7726   17.7522 N   0  0  0  0  0  0  0  0  0  0  0  0
    7.5640    0.1413   18.7799 C   0  0  0  0  0  0  0  0  0  0  0  0
    8.5719   -0.2359   18.5983 H   0  0  0  0  0  0  0  0  0  0  0  0
    6.9554   -0.0814   20.0315 C   0  0  0  0  0  0  0  0  0  0  0  0
    7.6300   -0.8385   21.1273 C   0  0  0  0  0  0  0  0  0  0  0  0
    8.8126   -0.4192   21.6827 C   0  0  0  0  0  0  0  0  0  0  0  0
    9.4146    0.9229   21.4787 C   0  0  1  0  0  0  0  0  0  0  0  0
    9.9973    0.9490   20.5626 H   0  0  0  0  0  0  0  0  0  0  0  0
    8.6842    2.1686   21.9068 C   0  0  0  0  0  0  0  0  0  0  0  0
    8.7590    3.0514   21.2745 H   0  0  0  0  0  0  0  0  0  0  0  0
    7.7391    2.0262   22.4199 H   0  0  0  0  0  0  0  0  0  0  0  0
    9.9510    1.7467   22.6325 C   0  0  2  0  0  0  0  0  0  0  0  0
    9.8234    1.3209   23.6291 H   0  0  0  0  0  0  0  0  0  0  0  0
   11.1693    2.6128   22.4762 C   0  0  0  0  0  0  0  0  0  0  0  0
   11.7772    3.1943   23.6074 C   0  0  0  0  0  0  0  0  0  0  0  0
   11.4174    2.9379   24.5979 H   0  0  0  0  0  0  0  0  0  0  0  0
   12.8076    4.1388   23.4706 C   0  0  0  0  0  0  0  0  0  0  0  0
   13.2472    4.6237   24.3391 H   0  0  0  0  0  0  0  0  0  0  0  0
   13.2567    4.4959   22.1986 C   0  0  0  0  0  0  0  0  0  0  0  0
   14.0560    5.2207   22.0755 H   0  0  0  0  0  0  0  0  0  0  0  0
   12.6752    3.9189   21.0712 C   0  0  0  0  0  0  0  0  0  0  0  0
   13.0220    4.1975   20.0810 H   0  0  0  0  0  0  0  0  0  0  0  0
   11.6621    2.9706   21.2092 C   0  0  0  0  0  0  0  0  0  0  0  0
   11.2445    2.5444   20.3052 H   0  0  0  0  0  0  0  0  0  0  0  0
    9.7004   -1.5969   22.6157 S   0  0  0  0  0  0  0  0  0  0  0  0
    8.0538   -2.7959   22.8861 S   0  0  0  0  0  0  0  0  0  0  0  0
    7.0493   -2.0691   21.6535 C   0  0  0  0  0  0  0  0  0  0  0  0
    5.6655   -2.8309   21.2016 S   0  0  0  0  0  0  0  0  0  0  0  0
    5.6629    0.4262   20.2094 C   0  0  0  0  0  0  0  0  0  0  0  0
    5.1681    0.2917   21.1708 H   0  0  0  0  0  0  0  0  0  0  0  0
    5.0444    1.1040   19.1574 C   0  0  0  0  0  0  0  0  0  0  0  0
    4.0476    1.5191   19.2565 H   0  0  0  0  0  0  0  0  0  0  0  0
  1  2  1  0
  2  3  2  0
  3  4  1  0
  4  5  1  0
  4  6  2  0
  6  7  1  0
  7  8  2  0
  8  9  1  0
  9 10  1  6
  9 11  1  0
 11 12  1  0
 11 13  1  0
 11 14  1  0
 14 15  1  1
 14 16  1  0
 16 17  2  0
 17 18  1  0
 17 19  1  0
 19 20  1  0
 19 21  2  0
 21 22  1  0
 21 23  1  0
 23 24  1  0
 23 25  2  0
 25 26  1  0
  8 27  1  0
 27 28  1  0
 28 29  1  0
 29 30  2  0
  6 31  1  0
 31 32  1  0
 31 33  2  0
 33 34  1  0
 33  2  1  0
 29  7  1  0
 14  9  1  0
 25 16  1  0
M  END
>  <plip>  (1) 
-0.06896551724137931

>  <filename>  (1) 
[H][c]1[n][c]([H])[c](-[c]2[c]([C@@]3([H])[C]([H])([H])[C@]3([H])[c]3[c]([H])[c]([H])[c]([H])[c]([H])[c]3[H])[s][s][c]2=[S])[c]([H])[c]1[H]

$$$$
