
     RDKit          3D

 23 24  0  0  0  0  0  0  0  0999 V2000
    4.9632    1.7681   17.0159 H   0  0  0  0  0  0  0  0  0  0  0  0
    5.4222    1.2693   17.8689 C   0  0  0  0  0  0  0  0  0  0  0  0
    6.5844    0.6449   17.6283 N   0  0  0  0  0  0  0  0  0  0  0  0
    7.1863    0.0307   18.6522 C   0  0  0  0  0  0  0  0  0  0  0  0
    8.1338   -0.4409   18.3957 H   0  0  0  0  0  0  0  0  0  0  0  0
    6.6637   -0.0122   19.9586 C   0  0  0  0  0  0  0  0  0  0  0  0
    7.4062   -0.7233   21.0154 C   0  0  0  0  0  0  0  0  0  0  0  0
    6.9797   -0.7924   22.3060 N   0  0  0  0  0  0  0  0  0  0  0  0
    7.9047   -1.5082   22.8703 C   0  0  0  0  0  0  0  0  0  0  0  0
    7.8147   -1.9251   24.1584 O   0  0  0  0  0  0  0  0  0  0  0  0
    8.9424   -2.2887   24.8332 C   0  0  0  0  0  0  0  0  0  0  0  0
   10.0458   -2.1620   24.3665 O   0  0  0  0  0  0  0  0  0  0  0  0
    8.6364   -2.8557   26.1913 C   0  0  0  0  0  0  0  0  0  0  0  0
    9.4103   -3.5879   26.4254 H   0  0  0  0  0  0  0  0  0  0  0  0
    7.6468   -3.3144   26.2455 H   0  0  0  0  0  0  0  0  0  0  0  0
    8.6969   -2.0686   26.9493 H   0  0  0  0  0  0  0  0  0  0  0  0
    8.8611   -1.8638   22.0003 N   0  0  0  0  0  0  0  0  0  0  0  0
    9.7218   -2.3531   22.2104 H   0  0  0  0  0  0  0  0  0  0  0  0
    8.5428   -1.3572   20.7764 N   0  0  0  0  0  0  0  0  0  0  0  0
    5.4395    0.6417   20.1941 C   0  0  0  0  0  0  0  0  0  0  0  0
    4.9963    0.6391   21.1917 H   0  0  0  0  0  0  0  0  0  0  0  0
    4.8193    1.2921   19.1295 C   0  0  0  0  0  0  0  0  0  0  0  0
    3.8883    1.8294   19.2555 H   0  0  0  0  0  0  0  0  0  0  0  0
  1  2  1  0
  2  3  2  0
  3  4  1  0
  4  5  1  0
  4  6  2  0
  6  7  1  0
  7  8  1  0
  8  9  2  0
  9 10  1  0
 10 11  1  0
 11 12  2  0
 11 13  1  0
 13 14  1  0
 13 15  1  0
 13 16  1  0
  9 17  1  0
 17 18  1  0
 17 19  1  0
  6 20  1  0
 20 21  1  0
 20 22  2  0
 22 23  1  0
 22  2  1  0
 19  7  2  0
M  END
>  <plip>  (1) 
-0.0

>  <filename>  (1) 
[H][c]1[n][c]([H])[c](-[c]2[n][c]([O][C](=[O])[C]([H])([H])[H])[n]([H])[n]2)[c]([H])[c]1[H]

$$$$
