
     RDKit          3D

 40 41  0  0  0  0  0  0  0  0999 V2000
    7.1921   -3.0728   21.2647 C   0  0  0  0  0  0  0  0  0  0  0  0
    6.6630   -1.7170   21.7318 C   0  0  0  0  0  0  0  0  0  0  0  0
    6.6956   -1.6006   23.2599 C   0  0  0  0  0  0  0  0  0  0  0  0
    6.0642   -2.3934   23.6810 H   0  0  0  0  0  0  0  0  0  0  0  0
    7.7073   -1.7137   23.6562 H   0  0  0  0  0  0  0  0  0  0  0  0
    6.2895   -0.6398   23.5970 H   0  0  0  0  0  0  0  0  0  0  0  0
    7.3612   -0.6032   21.0210 N   0  0  0  0  0  0  0  0  0  0  0  0
    8.6101   -0.1884   21.4990 C   0  0  0  0  0  0  0  0  0  0  0  0
    9.3559   -0.9470   22.0894 O   0  0  0  0  0  0  0  0  0  0  0  0
    8.9477    1.2914   21.3654 C   0  0  0  0  0  0  0  0  0  0  0  0
    8.2178    2.0876   22.4637 C   0  0  0  0  0  0  0  0  0  0  0  0
    8.3987    3.5390   22.3258 N   0  0  0  0  0  0  0  0  0  0  0  0
    7.3914    4.3174   21.7876 C   0  0  0  0  0  0  0  0  0  0  0  0
    7.5432    5.6596   21.6161 C   0  0  0  0  0  0  0  0  0  0  0  0
    8.7436    6.2929   22.0535 C   0  0  0  0  0  0  0  0  0  0  0  0
    9.7309    5.5565   22.6325 C   0  0  0  0  0  0  0  0  0  0  0  0
    9.6172    4.1110   22.7904 C   0  0  0  0  0  0  0  0  0  0  0  0
   10.4891    3.4312   23.3230 O   0  0  0  0  0  0  0  0  0  0  0  0
   10.6502    5.9822   23.0032 H   0  0  0  0  0  0  0  0  0  0  0  0
    8.8389    7.3678   21.9335 H   0  0  0  0  0  0  0  0  0  0  0  0
    6.7626    6.2353   21.1251 H   0  0  0  0  0  0  0  0  0  0  0  0
    6.4796    3.8023   21.4810 H   0  0  0  0  0  0  0  0  0  0  0  0
    8.5902    1.8174   23.4571 H   0  0  0  0  0  0  0  0  0  0  0  0
    7.1401    1.8636   22.4275 H   0  0  0  0  0  0  0  0  0  0  0  0
   10.0295    1.3954   21.4724 H   0  0  0  0  0  0  0  0  0  0  0  0
    8.6350    1.6678   20.3891 H   0  0  0  0  0  0  0  0  0  0  0  0
    6.6836    0.0276   19.9200 C   0  0  0  0  0  0  0  0  0  0  0  0
    5.4696    0.6806   20.1556 C   0  0  0  0  0  0  0  0  0  0  0  0
    4.8244    1.3333   19.1014 C   0  0  0  0  0  0  0  0  0  0  0  0
    5.4048    1.2983   17.8304 C   0  0  0  0  0  0  0  0  0  0  0  0
    6.5508    0.6496   17.5679 N   0  0  0  0  0  0  0  0  0  0  0  0
    7.1697    0.0314   18.5865 C   0  0  0  0  0  0  0  0  0  0  0  0
    8.0995   -0.4834   18.3426 H   0  0  0  0  0  0  0  0  0  0  0  0
    4.9311    1.8039   16.9914 H   0  0  0  0  0  0  0  0  0  0  0  0
    3.8844    1.8512   19.2532 H   0  0  0  0  0  0  0  0  0  0  0  0
    5.0561    0.6689   21.1639 H   0  0  0  0  0  0  0  0  0  0  0  0
    5.6091   -1.6476   21.4277 H   0  0  0  0  0  0  0  0  0  0  0  0
    6.8312   -3.2970   20.2567 H   0  0  0  0  0  0  0  0  0  0  0  0
    8.2849   -3.0753   21.2735 H   0  0  0  0  0  0  0  0  0  0  0  0
    6.8401   -3.8698   21.9313 H   0  0  0  0  0  0  0  0  0  0  0  0
  1  2  1  0
  2  3  1  0
  3  4  1  0
  3  5  1  0
  3  6  1  0
  2  7  1  0
  7  8  1  0
  8  9  2  0
  8 10  1  0
 10 11  1  0
 11 12  1  0
 12 13  1  0
 13 14  2  0
 14 15  1  0
 15 16  2  0
 16 17  1  0
 17 18  2  0
 16 19  1  0
 15 20  1  0
 14 21  1  0
 13 22  1  0
 11 23  1  0
 11 24  1  0
 10 25  1  0
 10 26  1  0
  7 27  1  0
 27 28  2  0
 28 29  1  0
 29 30  2  0
 30 31  1  0
 31 32  2  0
 32 33  1  0
 30 34  1  0
 29 35  1  0
 28 36  1  0
  2 37  1  0
  1 38  1  0
  1 39  1  0
  1 40  1  0
 17 12  1  0
 32 27  1  0
M  END
>  <plip>  (1) 
-0.0

>  <filename>  (1) 
[H][c]1[n][c]([H])[c]([N]([C](=[O])[C]([H])([H])[C]([H])([H])[n]2[c]([H])[c]([H])[c]([H])[c]([H])[c]2=[O])[C]([H])([C]([H])([H])[H])[C]([H])([H])[H])[c]([H])[c]1[H]

$$$$
