
     RDKit          3D

 18 18  0  0  0  0  0  0  0  0999 V2000
    5.0843    1.6339   16.8587 H   0  0  0  0  0  0  0  0  0  0  0  0
    5.5070    1.1685   17.7462 C   0  0  0  0  0  0  0  0  0  0  0  0
    6.6552    0.4874   17.5637 N   0  0  0  0  0  0  0  0  0  0  0  0
    7.2238   -0.0679   18.6387 C   0  0  0  0  0  0  0  0  0  0  0  0
    8.1318   -0.6424   18.4654 H   0  0  0  0  0  0  0  0  0  0  0  0
    6.7139    0.0669   19.9539 C   0  0  0  0  0  0  0  0  0  0  0  0
    7.4317   -0.3526   21.0851 N   0  0  0  0  0  0  0  0  0  0  0  0
    7.9272   -1.6551   21.0356 N   0  0  0  0  0  0  0  0  0  0  0  0
    8.2682   -2.5131   21.8365 C   0  0  0  0  0  0  0  0  0  0  0  0
    8.7488   -3.8429   22.5322 S   0  0  0  0  0  0  0  0  0  0  0  0
    7.1413    0.1629   22.4187 C   0  0  0  0  0  0  0  0  0  0  0  0
    6.8207    1.2019   22.3250 H   0  0  0  0  0  0  0  0  0  0  0  0
    6.3734   -0.4558   22.9032 H   0  0  0  0  0  0  0  0  0  0  0  0
    8.0580    0.1081   23.0132 H   0  0  0  0  0  0  0  0  0  0  0  0
    5.4730    0.7134   20.1065 C   0  0  0  0  0  0  0  0  0  0  0  0
    4.9983    0.7643   21.0901 H   0  0  0  0  0  0  0  0  0  0  0  0
    4.8670    1.2799   18.9847 C   0  0  0  0  0  0  0  0  0  0  0  0
    3.9334    1.8353   19.0724 H   0  0  0  0  0  0  0  0  0  0  0  0
  1  2  1  0
  2  3  2  0
  3  4  1  0
  4  5  1  0
  4  6  2  0
  6  7  1  0
  7  8  1  0
  8  9  2  0
  9 10  2  0
  7 11  1  0
 11 12  1  0
 11 13  1  0
 11 14  1  0
  6 15  1  0
 15 16  1  0
 15 17  2  0
 17 18  1  0
 17  2  1  0
M  END
>  <plip>  (1) 
-0.07142857142857142

>  <filename>  (1) 
[H][c]1[n][c]([H])[c]([N]([N]=[C]=[S])[C]([H])([H])[H])[c]([H])[c]1[H]

$$$$
