
     RDKit          3D

 26 27  0  0  0  0  0  0  0  0999 V2000
    8.8013   -1.9834   21.3774 H   0  0  0  0  0  0  0  0  0  0  0  0
    8.3159   -1.5898   20.5777 N   0  0  0  0  0  0  0  0  0  0  0  0
    7.4278   -0.7583   20.9165 C   0  0  0  0  0  0  0  0  0  0  0  0
    7.0779   -0.3013   22.6635 S   0  0  0  0  0  0  0  0  0  0  0  0
    8.1714    0.9849   22.9291 N   0  0  0  0  0  0  0  0  0  0  0  0
    9.5061    0.7893   23.2393 C   0  0  0  0  0  0  0  0  0  0  0  0
   10.0366   -0.2770   23.4640 O   0  0  0  0  0  0  0  0  0  0  0  0
   10.1644    2.1521   23.2411 C   0  0  0  0  0  0  0  0  0  0  0  0
   10.5451    2.3201   24.2520 H   0  0  0  0  0  0  0  0  0  0  0  0
   11.0318    2.1064   22.5764 H   0  0  0  0  0  0  0  0  0  0  0  0
    9.0909    3.1714   22.8038 C   0  0  0  0  0  0  0  0  0  0  0  0
    9.3628    3.6690   21.8734 H   0  0  0  0  0  0  0  0  0  0  0  0
    8.9354    3.9571   23.5478 H   0  0  0  0  0  0  0  0  0  0  0  0
    7.7921    2.3587   22.5979 C   0  0  0  0  0  0  0  0  0  0  0  0
    7.4173    2.4097   21.5638 H   0  0  0  0  0  0  0  0  0  0  0  0
    6.9649    2.6704   23.2459 H   0  0  0  0  0  0  0  0  0  0  0  0
    6.6409   -0.0234   19.9004 C   0  0  0  0  0  0  0  0  0  0  0  0
    7.1712    0.0352   18.6018 C   0  0  0  0  0  0  0  0  0  0  0  0
    8.1217   -0.4391   18.3826 H   0  0  0  0  0  0  0  0  0  0  0  0
    6.5746    0.6715   17.5921 N   0  0  0  0  0  0  0  0  0  0  0  0
    5.4135    1.2860   17.8500 C   0  0  0  0  0  0  0  0  0  0  0  0
    4.9431    1.7806   17.0038 H   0  0  0  0  0  0  0  0  0  0  0  0
    4.8133    1.3042   19.1123 C   0  0  0  0  0  0  0  0  0  0  0  0
    3.8836    1.8359   19.2565 H   0  0  0  0  0  0  0  0  0  0  0  0
    5.4350    0.6390   20.1664 C   0  0  0  0  0  0  0  0  0  0  0  0
    4.9858    0.6456   21.1629 H   0  0  0  0  0  0  0  0  0  0  0  0
  1  2  1  0
  2  3  2  3
  3  4  1  0
  4  5  1  0
  5  6  1  0
  6  7  2  0
  6  8  1  0
  8  9  1  0
  8 10  1  0
  8 11  1  0
 11 12  1  0
 11 13  1  0
 11 14  1  0
 14 15  1  0
 14 16  1  0
  3 17  1  0
 17 18  2  0
 18 19  1  0
 18 20  1  0
 20 21  2  0
 21 22  1  0
 21 23  1  0
 23 24  1  0
 23 25  2  0
 25 26  1  0
 14  5  1  0
 25 17  1  0
M  END
>  <plip>  (1) 
-0.034482758620689655

>  <filename>  (1) 
[H][N]=[C]([S][N]1[C](=[O])[C]([H])([H])[C]([H])([H])[C]1([H])[H])[c]1[c]([H])[n][c]([H])[c]([H])[c]1[H]

$$$$
