
     RDKit          3D

 29 31  0  0  0  0  0  0  0  0999 V2000
    4.9118    1.8066   16.9867 H   0  0  0  0  0  0  0  0  0  0  0  0
    5.3866    1.3010   17.8233 C   0  0  0  0  0  0  0  0  0  0  0  0
    6.5461    0.6799   17.5505 N   0  0  0  0  0  0  0  0  0  0  0  0
    7.1646    0.0739   18.5673 C   0  0  0  0  0  0  0  0  0  0  0  0
    8.1058   -0.4299   18.3374 H   0  0  0  0  0  0  0  0  0  0  0  0
    6.6724    0.0368   19.8923 C   0  0  0  0  0  0  0  0  0  0  0  0
    7.3915   -0.6616   20.9737 C   0  0  0  0  0  0  0  0  0  0  0  0
    8.1150   -0.0948   21.9838 C   0  0  0  0  0  0  0  0  0  0  0  0
    8.0907    1.3518   22.2618 C   0  0  1  0  0  0  0  0  0  0  0  0
    8.5859    1.9301   21.4794 H   0  0  0  0  0  0  0  0  0  0  0  0
    6.8711    2.0222   22.8611 C   0  0  0  0  0  0  0  0  0  0  0  0
    6.5413    2.9720   22.4495 H   0  0  0  0  0  0  0  0  0  0  0  0
    6.0752    1.3628   23.2062 H   0  0  0  0  0  0  0  0  0  0  0  0
    8.1518    1.9615   23.6381 C   0  0  1  0  0  0  0  0  0  0  0  0
    8.7314    2.8913   23.6969 H   0  0  0  0  0  0  0  0  0  0  0  0
    8.1507    1.0599   24.7525 N   0  0  0  0  0  0  0  0  0  0  0  0
    7.6415    1.4342   25.5443 H   0  0  0  0  0  0  0  0  0  0  0  0
    9.0910    0.8319   25.0511 H   0  0  0  0  0  0  0  0  0  0  0  0
    8.9014   -1.1504   22.7233 C   0  0  0  0  0  0  0  0  0  0  0  0
    9.9712   -0.9094   22.8315 H   0  0  0  0  0  0  0  0  0  0  0  0
    8.5207   -1.2785   23.7478 H   0  0  0  0  0  0  0  0  0  0  0  0
    8.6301   -2.3122   21.9051 N   0  0  0  0  0  0  0  0  0  0  0  0
    8.8833   -3.2653   22.0896 H   0  0  0  0  0  0  0  0  0  0  0  0
    7.5556   -2.1415   21.0657 C   0  0  0  0  0  0  0  0  0  0  0  0
    6.9115   -3.0586   20.6001 O   0  0  0  0  0  0  0  0  0  0  0  0
    5.4508    0.6729   20.1417 C   0  0  0  0  0  0  0  0  0  0  0  0
    5.0219    0.6280   21.1468 H   0  0  0  0  0  0  0  0  0  0  0  0
    4.8004    1.3165   19.0914 C   0  0  0  0  0  0  0  0  0  0  0  0
    3.8627    1.8377   19.2405 H   0  0  0  0  0  0  0  0  0  0  0  0
  1  2  1  0
  2  3  2  0
  3  4  1  0
  4  5  1  0
  4  6  2  0
  6  7  1  0
  7  8  2  0
  8  9  1  0
  9 10  1  6
  9 11  1  0
 11 12  1  0
 11 13  1  0
 11 14  1  0
 14 15  1  6
 14 16  1  0
 16 17  1  0
 16 18  1  0
  8 19  1  0
 19 20  1  0
 19 21  1  0
 19 22  1  0
 22 23  1  0
 22 24  1  0
 24 25  2  0
  6 26  1  0
 26 27  1  0
 26 28  2  0
 28 29  1  0
 28  2  1  0
 24  7  1  0
 14  9  1  0
M  END
>  <plip>  (1) 
-0.06896551724137931

>  <filename>  (1) 
[H][c]1[n][c]([H])[c]([C]2=[C]([C@@]3([H])[C]([H])([H])[C@@]3([H])[N]([H])[H])[C]([H])([H])[N]([H])[C]2=[O])[c]([H])[c]1[H]

$$$$
