
     RDKit          3D

 46 48  0  0  0  0  0  0  0  0999 V2000
    7.5400    1.3878   23.8868 C   0  0  0  0  0  0  0  0  0  0  0  0
    7.4171    1.1846   22.4913 O   0  0  0  0  0  0  0  0  0  0  0  0
    8.2267    0.1882   21.8991 C   0  0  0  0  0  0  0  0  0  0  0  0
    9.2109    0.7379   21.0705 O   0  0  0  0  0  0  0  0  0  0  0  0
   10.1529    1.6022   21.6830 C   0  0  0  0  0  0  0  0  0  0  0  0
   10.8398    1.9094   20.8896 H   0  0  0  0  0  0  0  0  0  0  0  0
   10.7336    1.0954   22.4722 H   0  0  0  0  0  0  0  0  0  0  0  0
    9.6778    2.4967   22.1066 H   0  0  0  0  0  0  0  0  0  0  0  0
    7.3875   -0.7737   20.9923 C   0  0  0  0  0  0  0  0  0  0  0  0
    6.5680   -1.6756   21.8135 N   0  0  0  0  0  0  0  0  0  0  0  0
    5.9909   -2.8111   21.2950 C   0  0  0  0  0  0  0  0  0  0  0  0
    6.2114   -3.2090   20.1671 O   0  0  0  0  0  0  0  0  0  0  0  0
    5.0979   -3.6084   22.2109 C   0  0  0  0  0  0  0  0  0  0  0  0
    4.4672   -4.8178   21.9651 C   0  0  0  0  0  0  0  0  0  0  0  0
    3.5745   -5.0296   23.0397 C   0  0  0  0  0  0  0  0  0  0  0  0
    2.5266   -6.0460   23.1998 C   0  0  0  0  0  0  0  0  0  0  0  0
    1.5446   -6.2337   24.1341 C   0  0  0  0  0  0  0  0  0  0  0  0
    0.7357   -7.3172   23.6783 C   0  0  0  0  0  0  0  0  0  0  0  0
    1.2699   -7.7260   22.4922 C   0  0  0  0  0  0  0  0  0  0  0  0
    0.8618   -8.7786   21.5149 C   0  0  0  0  0  0  0  0  0  0  0  0
    1.4197   -8.7118   20.5795 H   0  0  0  0  0  0  0  0  0  0  0  0
    1.0128   -9.7750   21.9399 H   0  0  0  0  0  0  0  0  0  0  0  0
   -0.2045   -8.7117   21.2727 H   0  0  0  0  0  0  0  0  0  0  0  0
    2.3614   -6.9756   22.2003 O   0  0  0  0  0  0  0  0  0  0  0  0
   -0.1485   -7.7267   24.1568 H   0  0  0  0  0  0  0  0  0  0  0  0
    1.4116   -5.6533   25.0366 H   0  0  0  0  0  0  0  0  0  0  0  0
    3.7379   -4.0632   23.9473 N   0  0  0  0  0  0  0  0  0  0  0  0
    4.6670   -3.2541   23.4610 N   0  0  0  0  0  0  0  0  0  0  0  0
    4.8576   -2.4331   24.0239 H   0  0  0  0  0  0  0  0  0  0  0  0
    4.6371   -5.4953   21.1463 H   0  0  0  0  0  0  0  0  0  0  0  0
    6.0435   -1.2371   22.5517 H   0  0  0  0  0  0  0  0  0  0  0  0
    6.5810   -0.0627   19.9084 C   0  0  0  0  0  0  0  0  0  0  0  0
    5.3858    0.6357   20.1350 C   0  0  0  0  0  0  0  0  0  0  0  0
    4.7956    1.3104   19.0642 C   0  0  0  0  0  0  0  0  0  0  0  0
    5.4210    1.2742   17.8137 C   0  0  0  0  0  0  0  0  0  0  0  0
    6.5574    0.6066   17.5732 N   0  0  0  0  0  0  0  0  0  0  0  0
    7.1050   -0.0409   18.6097 C   0  0  0  0  0  0  0  0  0  0  0  0
    8.0318   -0.5775   18.3988 H   0  0  0  0  0  0  0  0  0  0  0  0
    4.9896    1.7998   16.9654 H   0  0  0  0  0  0  0  0  0  0  0  0
    3.8754    1.8708   19.1850 H   0  0  0  0  0  0  0  0  0  0  0  0
    4.9319    0.6776   21.1264 H   0  0  0  0  0  0  0  0  0  0  0  0
    8.1352   -1.4003   20.4949 H   0  0  0  0  0  0  0  0  0  0  0  0
    8.6971   -0.4372   22.6839 H   0  0  0  0  0  0  0  0  0  0  0  0
    6.8693    2.2167   24.1262 H   0  0  0  0  0  0  0  0  0  0  0  0
    8.5612    1.6590   24.1958 H   0  0  0  0  0  0  0  0  0  0  0  0
    7.2221    0.5087   24.4717 H   0  0  0  0  0  0  0  0  0  0  0  0
  1  2  1  0
  2  3  1  0
  3  4  1  0
  4  5  1  0
  5  6  1  0
  5  7  1  0
  5  8  1  0
  3  9  1  0
  9 10  1  0
 10 11  1  0
 11 12  2  0
 11 13  1  0
 13 14  2  0
 14 15  1  0
 15 16  1  0
 16 17  2  0
 17 18  1  0
 18 19  2  0
 19 20  1  0
 20 21  1  0
 20 22  1  0
 20 23  1  0
 19 24  1  0
 18 25  1  0
 17 26  1  0
 15 27  2  0
 27 28  1  0
 28 29  1  0
 14 30  1  0
 10 31  1  0
  9 32  1  0
 32 33  2  0
 33 34  1  0
 34 35  2  0
 35 36  1  0
 36 37  2  0
 37 38  1  0
 35 39  1  0
 34 40  1  0
 33 41  1  0
  9 42  1  0
  3 43  1  0
  1 44  1  0
  1 45  1  0
  1 46  1  0
 28 13  1  0
 37 32  1  0
 24 16  1  0
M  END
>  <plip>  (1) 
-0.16129032258064516

>  <filename>  (1) 
[H][c]1[n][c]([H])[c]([C]([H])([N]([H])[C](=[O])[c]2[c]([H])[c](-[c]3[o][c]([C]([H])([H])[H])[c]([H])[c]3[H])[n][n]2[H])[C]([H])([O][C]([H])([H])[H])[O][C]([H])([H])[H])[c]([H])[c]1[H]

$$$$
