
     RDKit          3D

 43 44  0  0  0  0  0  0  0  0999 V2000
    4.9129    1.8128   16.9986 H   0  0  0  0  0  0  0  0  0  0  0  0
    5.3835    1.2961   17.8312 C   0  0  0  0  0  0  0  0  0  0  0  0
    6.5410    0.6734   17.5493 N   0  0  0  0  0  0  0  0  0  0  0  0
    7.1623    0.0531   18.5579 C   0  0  0  0  0  0  0  0  0  0  0  0
    8.1171   -0.4146   18.3340 H   0  0  0  0  0  0  0  0  0  0  0  0
    6.6648   -0.0132   19.8832 C   0  0  0  0  0  0  0  0  0  0  0  0
    7.3824   -0.6828   20.9066 N   0  0  0  0  0  0  0  0  0  0  0  0
    6.8688   -1.0750   21.6807 H   0  0  0  0  0  0  0  0  0  0  0  0
    8.7502   -0.6110   21.0868 C   0  0  0  0  0  0  0  0  0  0  0  0
    9.4470    0.1126   20.3983 O   0  0  0  0  0  0  0  0  0  0  0  0
    9.3213   -1.5838   22.1856 C   0  0  0  0  0  0  0  0  0  0  0  0
    8.7215   -1.3504   23.5917 C   0  0  0  0  0  0  0  0  0  0  0  0
    8.6124   -0.0531   24.1024 C   0  0  0  0  0  0  0  0  0  0  0  0
    8.9374    0.7791   23.4792 H   0  0  0  0  0  0  0  0  0  0  0  0
    8.1086    0.2677   25.3049 N   0  0  0  0  0  0  0  0  0  0  0  0
    7.7128   -0.7264   26.0885 C   0  0  0  0  0  0  0  0  0  0  0  0
    7.2092   -0.4951   27.3123 O   0  0  0  0  0  0  0  0  0  0  0  0
    6.9999    0.8583   27.7728 C   0  0  0  0  0  0  0  0  0  0  0  0
    7.8850    1.4568   27.5130 H   0  0  0  0  0  0  0  0  0  0  0  0
    5.7592    1.4537   27.1173 C   0  0  0  0  0  0  0  0  0  0  0  0
    5.8663    1.5437   26.0324 H   0  0  0  0  0  0  0  0  0  0  0  0
    4.8808    0.8367   27.3388 H   0  0  0  0  0  0  0  0  0  0  0  0
    5.5899    2.4539   27.5291 H   0  0  0  0  0  0  0  0  0  0  0  0
    6.8404    0.7725   29.2836 C   0  0  0  0  0  0  0  0  0  0  0  0
    5.9735    0.1539   29.5490 H   0  0  0  0  0  0  0  0  0  0  0  0
    6.6725    1.7780   29.6787 H   0  0  0  0  0  0  0  0  0  0  0  0
    7.7308    0.3723   29.7778 H   0  0  0  0  0  0  0  0  0  0  0  0
    7.8060   -2.0813   25.7124 C   0  0  0  0  0  0  0  0  0  0  0  0
    7.4658   -2.8086   26.4368 H   0  0  0  0  0  0  0  0  0  0  0  0
    8.3159   -2.3928   24.4643 C   0  0  0  0  0  0  0  0  0  0  0  0
    8.3963   -3.4367   24.1504 H   0  0  0  0  0  0  0  0  0  0  0  0
   10.8619   -1.4068   22.2609 C   0  0  0  0  0  0  0  0  0  0  0  0
   11.1440   -0.3884   22.5521 H   0  0  0  0  0  0  0  0  0  0  0  0
   11.2887   -2.1109   22.9833 H   0  0  0  0  0  0  0  0  0  0  0  0
   11.3227   -1.6095   21.2879 H   0  0  0  0  0  0  0  0  0  0  0  0
    9.0500   -3.0292   21.7052 C   0  0  0  0  0  0  0  0  0  0  0  0
    9.4737   -3.1541   20.7080 H   0  0  0  0  0  0  0  0  0  0  0  0
    7.9891   -3.3042   21.6593 H   0  0  0  0  0  0  0  0  0  0  0  0
    9.5435   -3.7220   22.3931 H   0  0  0  0  0  0  0  0  0  0  0  0
    5.4480    0.6214   20.1552 C   0  0  0  0  0  0  0  0  0  0  0  0
    5.0352    0.6130   21.1635 H   0  0  0  0  0  0  0  0  0  0  0  0
    4.8073    1.2962   19.1067 C   0  0  0  0  0  0  0  0  0  0  0  0
    3.8789    1.8332   19.2688 H   0  0  0  0  0  0  0  0  0  0  0  0
  1  2  1  0
  2  3  2  0
  3  4  1  0
  4  5  1  0
  4  6  2  0
  6  7  1  0
  7  8  1  0
  7  9  1  0
  9 10  2  0
  9 11  1  0
 11 12  1  0
 12 13  2  0
 13 14  1  0
 13 15  1  0
 15 16  2  0
 16 17  1  0
 17 18  1  0
 18 19  1  0
 18 20  1  0
 20 21  1  0
 20 22  1  0
 20 23  1  0
 18 24  1  0
 24 25  1  0
 24 26  1  0
 24 27  1  0
 16 28  1  0
 28 29  1  0
 28 30  2  0
 30 31  1  0
 11 32  1  0
 32 33  1  0
 32 34  1  0
 32 35  1  0
 11 36  1  0
 36 37  1  0
 36 38  1  0
 36 39  1  0
  6 40  1  0
 40 41  1  0
 40 42  2  0
 42 43  1  0
 42  2  1  0
 30 12  1  0
M  END
>  <plip>  (1) 
-0.07142857142857142

>  <filename>  (1) 
[H][c]1[n][c]([H])[c]([N]([H])[C](=[O])[C]([c]2[c]([H])[n][c]([O][C]([H])([C]([H])([H])[H])[C]([H])([H])[H])[c]([H])[c]2[H])([C]([H])([H])[H])[C]([H])([H])[H])[c]([H])[c]1[H]

$$$$
