
     RDKit          3D

 29 31  0  0  0  0  0  0  0  0999 V2000
    4.9171    1.7820   16.9926 H   0  0  0  0  0  0  0  0  0  0  0  0
    5.4020    1.2934   17.8370 C   0  0  0  0  0  0  0  0  0  0  0  0
    6.5653    0.6738   17.5836 N   0  0  0  0  0  0  0  0  0  0  0  0
    7.1778    0.0623   18.6009 C   0  0  0  0  0  0  0  0  0  0  0  0
    8.1152   -0.4330   18.3661 H   0  0  0  0  0  0  0  0  0  0  0  0
    6.6663    0.0052   19.9115 C   0  0  0  0  0  0  0  0  0  0  0  0
    7.3704   -0.6835   20.9374 N   0  0  0  0  0  0  0  0  0  0  0  0
    8.7476   -0.8012   21.0594 C   0  0  0  0  0  0  0  0  0  0  0  0
    9.3993   -0.3190   20.3369 H   0  0  0  0  0  0  0  0  0  0  0  0
    9.0245   -1.5200   22.1934 C   0  0  0  0  0  0  0  0  0  0  0  0
   10.0066   -1.7405   22.5792 H   0  0  0  0  0  0  0  0  0  0  0  0
    7.7756   -1.8641   22.7992 C   0  0  0  0  0  0  0  0  0  0  0  0
    7.5535   -2.5798   24.0028 N   0  0  0  0  0  0  0  0  0  0  0  0
    8.3644   -3.5226   24.6092 C   0  0  0  0  0  0  0  0  0  0  0  0
    9.6668   -4.0109   24.0704 C   0  0  0  0  0  0  0  0  0  0  0  0
    9.6084   -4.1700   22.9914 H   0  0  0  0  0  0  0  0  0  0  0  0
    9.9245   -4.9505   24.5646 H   0  0  0  0  0  0  0  0  0  0  0  0
   10.4757   -3.2966   24.2682 H   0  0  0  0  0  0  0  0  0  0  0  0
    7.8432   -3.9547   25.7277 N   0  0  0  0  0  0  0  0  0  0  0  0
    6.6532   -3.2817   25.8701 C   0  0  0  0  0  0  0  0  0  0  0  0
    5.9981   -3.4489   26.7151 H   0  0  0  0  0  0  0  0  0  0  0  0
    6.4477   -2.4382   24.8279 C   0  0  0  0  0  0  0  0  0  0  0  0
    5.6456   -1.7499   24.5897 H   0  0  0  0  0  0  0  0  0  0  0  0
    6.7935   -1.3425   22.0025 C   0  0  0  0  0  0  0  0  0  0  0  0
    5.7222   -1.4078   22.0912 H   0  0  0  0  0  0  0  0  0  0  0  0
    5.4394    0.6470   20.1645 C   0  0  0  0  0  0  0  0  0  0  0  0
    5.0087    0.6421   21.1682 H   0  0  0  0  0  0  0  0  0  0  0  0
    4.8101    1.3090   19.1053 C   0  0  0  0  0  0  0  0  0  0  0  0
    3.8764    1.8411   19.2610 H   0  0  0  0  0  0  0  0  0  0  0  0
  1  2  1  0
  2  3  2  0
  3  4  1  0
  4  5  1  0
  4  6  2  0
  6  7  1  0
  7  8  1  0
  8  9  1  0
  8 10  2  0
 10 11  1  0
 10 12  1  0
 12 13  1  0
 13 14  1  0
 14 15  1  0
 15 16  1  0
 15 17  1  0
 15 18  1  0
 14 19  2  0
 19 20  1  0
 20 21  1  0
 20 22  2  0
 22 23  1  0
 12 24  2  0
 24 25  1  0
  6 26  1  0
 26 27  1  0
 26 28  2  0
 28 29  1  0
 28  2  1  0
 24  7  1  0
 22 13  1  0
M  END
>  <plip>  (1) 
-0.03571428571428571

>  <filename>  (1) 
[H][c]1[n][c]([H])[c](-[n]2[c]([H])[c]([H])[c](-[n]3[c]([C]([H])([H])[H])[n][c]([H])[c]3[H])[c]2[H])[c]([H])[c]1[H]

$$$$
