
     RDKit          3D

 36 39  0  0  0  0  0  0  0  0999 V2000
    4.9488    1.8013   16.9771 H   0  0  0  0  0  0  0  0  0  0  0  0
    5.4160    1.2913   17.8197 C   0  0  0  0  0  0  0  0  0  0  0  0
    6.5682    0.6535   17.5620 N   0  0  0  0  0  0  0  0  0  0  0  0
    7.1637    0.0296   18.5824 C   0  0  0  0  0  0  0  0  0  0  0  0
    8.0960   -0.4879   18.3541 H   0  0  0  0  0  0  0  0  0  0  0  0
    6.6543    0.0263   19.8944 C   0  0  0  0  0  0  0  0  0  0  0  0
    7.4174   -0.6744   20.9309 C   0  0  0  0  0  0  0  0  0  0  0  0
    8.3023   -1.6148   20.7017 N   0  0  0  0  0  0  0  0  0  0  0  0
    8.8274   -2.0576   21.8942 N   0  0  0  0  0  0  0  0  0  0  0  0
    8.2443   -1.3494   22.8203 C   0  0  0  0  0  0  0  0  0  0  0  0
    8.2968   -1.1444   24.5487 S   0  0  0  0  0  0  0  0  0  0  0  0
    7.0847    0.1346   24.3652 C   0  0  0  0  0  0  0  0  0  0  0  0
    6.5644    0.9218   25.5625 C   0  0  0  0  0  0  0  0  0  0  0  0
    7.3613    0.9794   26.3191 H   0  0  0  0  0  0  0  0  0  0  0  0
    6.4098    1.9455   25.1942 H   0  0  0  0  0  0  0  0  0  0  0  0
    5.3091    0.4757   26.2168 N   0  0  0  0  0  0  0  0  0  0  0  0
    4.1232    0.7176   25.3590 C   0  0  0  0  0  0  0  0  0  0  0  0
    3.9802    1.8031   25.2795 H   0  0  0  0  0  0  0  0  0  0  0  0
    4.3003    0.3536   24.3468 H   0  0  0  0  0  0  0  0  0  0  0  0
    2.8076    0.1035   25.8930 C   0  0  0  0  0  0  0  0  0  0  0  0
    2.0632    0.1572   25.0916 H   0  0  0  0  0  0  0  0  0  0  0  0
    2.4522    0.7383   26.7159 H   0  0  0  0  0  0  0  0  0  0  0  0
    2.8663   -1.2806   26.3962 N   0  0  0  0  0  0  0  0  0  0  0  0
    2.9763   -1.9412   25.6255 H   0  0  0  0  0  0  0  0  0  0  0  0
    4.0258   -1.3996   27.2956 C   0  0  0  0  0  0  0  0  0  0  0  0
    3.8124   -0.8010   28.1877 H   0  0  0  0  0  0  0  0  0  0  0  0
    4.1314   -2.4388   27.6290 H   0  0  0  0  0  0  0  0  0  0  0  0
    5.3584   -0.9326   26.6753 C   0  0  0  0  0  0  0  0  0  0  0  0
    5.5915   -1.6186   25.8416 H   0  0  0  0  0  0  0  0  0  0  0  0
    6.1622   -1.0383   27.4140 H   0  0  0  0  0  0  0  0  0  0  0  0
    6.7002    0.3742   23.1490 N   0  0  0  0  0  0  0  0  0  0  0  0
    7.3457   -0.4711   22.2947 N   0  0  0  0  0  0  0  0  0  0  0  0
    5.4398    0.6789   20.1489 C   0  0  0  0  0  0  0  0  0  0  0  0
    5.0149    0.6921   21.1510 H   0  0  0  0  0  0  0  0  0  0  0  0
    4.8131    1.3186   19.0787 C   0  0  0  0  0  0  0  0  0  0  0  0
    3.8764    1.8417   19.2160 H   0  0  0  0  0  0  0  0  0  0  0  0
  1  2  1  0
  2  3  2  0
  3  4  1  0
  4  5  1  0
  4  6  2  0
  6  7  1  0
  7  8  2  0
  8  9  1  0
  9 10  2  0
 10 11  1  0
 11 12  1  0
 12 13  1  0
 13 14  1  0
 13 15  1  0
 13 16  1  0
 16 17  1  0
 17 18  1  0
 17 19  1  0
 17 20  1  0
 20 21  1  0
 20 22  1  0
 20 23  1  0
 23 24  1  0
 23 25  1  0
 25 26  1  0
 25 27  1  0
 25 28  1  0
 28 29  1  0
 28 30  1  0
 12 31  2  0
 31 32  1  0
  6 33  1  0
 33 34  1  0
 33 35  2  0
 35 36  1  0
 35  2  1  0
 32  7  1  0
 32 10  1  0
 28 16  1  0
M  END
>  <plip>  (1) 
-0.06896551724137931

>  <filename>  (1) 
[H][c]1[n][c]([H])[c](-[c]2[n][n][c]3[s][c]([C]([H])([H])[N]4[C]([H])([H])[C]([H])([H])[N]([H])[C]([H])([H])[C]4([H])[H])[n][n]23)[c]([H])[c]1[H]

$$$$
