
     RDKit          3D

 29 30  0  0  0  0  0  0  0  0999 V2000
    5.1946    2.0227   17.0462 H   0  0  0  0  0  0  0  0  0  0  0  0
    5.6518    1.4844   17.8782 C   0  0  0  0  0  0  0  0  0  0  0  0
    6.8096    0.8534   17.6225 N   0  0  0  0  0  0  0  0  0  0  0  0
    7.4162    0.2499   18.6539 C   0  0  0  0  0  0  0  0  0  0  0  0
    8.4028   -0.1640   18.4399 H   0  0  0  0  0  0  0  0  0  0  0  0
    6.8887    0.1481   19.9559 C   0  0  0  0  0  0  0  0  0  0  0  0
    7.6083   -0.6308   21.0577 C   0  0  1  0  0  0  0  0  0  0  0  0
    8.5385   -1.0350   20.6313 H   0  0  0  0  0  0  0  0  0  0  0  0
    7.9929    0.2994   22.2331 C   0  0  0  0  0  0  0  0  0  0  0  0
    8.6100    1.1270   21.8629 H   0  0  0  0  0  0  0  0  0  0  0  0
    7.0756    0.7503   22.6407 H   0  0  0  0  0  0  0  0  0  0  0  0
    8.7176   -0.4557   23.3558 C   0  0  0  0  0  0  0  0  0  0  0  0
    8.9844    0.2316   24.1673 H   0  0  0  0  0  0  0  0  0  0  0  0
    9.6656   -0.8645   22.9720 H   0  0  0  0  0  0  0  0  0  0  0  0
    7.8601   -1.6120   23.8907 C   0  0  0  0  0  0  0  0  0  0  0  0
    6.9490   -1.2103   24.3638 H   0  0  0  0  0  0  0  0  0  0  0  0
    8.3947   -2.1546   24.6815 H   0  0  0  0  0  0  0  0  0  0  0  0
    7.4746   -2.5753   22.7550 C   0  0  0  0  0  0  0  0  0  0  0  0
    8.3776   -3.0887   22.3889 H   0  0  0  0  0  0  0  0  0  0  0  0
    6.8087   -3.3650   23.1200 H   0  0  0  0  0  0  0  0  0  0  0  0
    6.7795   -1.8551   21.5840 C   0  0  2  0  0  0  0  0  0  0  0  0
    5.8091   -1.4677   21.9267 H   0  0  0  0  0  0  0  0  0  0  0  0
    6.5012   -2.8358   20.5330 N   0  0  0  0  0  0  0  0  0  0  0  0
    6.0242   -2.7134   19.4375 C   0  0  0  0  0  0  0  0  0  0  0  0
    5.4798   -2.5968   17.9652 S   0  0  0  0  0  0  0  0  0  0  0  0
    5.6797    0.8145   20.1946 C   0  0  0  0  0  0  0  0  0  0  0  0
    5.2468    0.8366   21.2001 H   0  0  0  0  0  0  0  0  0  0  0  0
    5.0572    1.4987   19.1457 C   0  0  0  0  0  0  0  0  0  0  0  0
    4.1249    2.0309   19.2923 H   0  0  0  0  0  0  0  0  0  0  0  0
  1  2  1  0
  2  3  2  0
  3  4  1  0
  4  5  1  0
  4  6  2  0
  6  7  1  0
  7  8  1  6
  7  9  1  0
  9 10  1  0
  9 11  1  0
  9 12  1  0
 12 13  1  0
 12 14  1  0
 12 15  1  0
 15 16  1  0
 15 17  1  0
 15 18  1  0
 18 19  1  0
 18 20  1  0
 18 21  1  0
 21 22  1  1
 21 23  1  0
 23 24  2  0
 24 25  2  0
  6 26  1  0
 26 27  1  0
 26 28  2  0
 28 29  1  0
 28  2  1  0
 21  7  1  0
M  END
>  <plip>  (1) 
-0.07142857142857142

>  <filename>  (1) 
[H][c]1[n][c]([H])[c]([C@@]2([H])[C]([H])([H])[C]([H])([H])[C]([H])([H])[C]([H])([H])[C@]2([H])[N]=[C]=[S])[c]([H])[c]1[H]

$$$$
