
     RDKit          3D

 32 33  0  0  0  0  0  0  0  0999 V2000
    4.9153    1.7955   16.9838 H   0  0  0  0  0  0  0  0  0  0  0  0
    5.3951    1.2994   17.8247 C   0  0  0  0  0  0  0  0  0  0  0  0
    6.5543    0.6800   17.5561 N   0  0  0  0  0  0  0  0  0  0  0  0
    7.1561    0.0549   18.5770 C   0  0  0  0  0  0  0  0  0  0  0  0
    8.1116   -0.4191   18.3504 H   0  0  0  0  0  0  0  0  0  0  0  0
    6.6462   -0.0100   19.8869 C   0  0  0  0  0  0  0  0  0  0  0  0
    7.4027   -0.6765   21.0183 C   0  0  0  0  0  0  0  0  0  0  0  0
    6.7077   -1.2279   21.6630 H   0  0  0  0  0  0  0  0  0  0  0  0
    8.0763   -1.4429   20.6091 H   0  0  0  0  0  0  0  0  0  0  0  0
    8.2440    0.2773   21.8838 C   0  0  0  0  0  0  0  0  0  0  0  0
    8.0333    0.1657   23.2672 O   0  0  0  0  0  0  0  0  0  0  0  0
    6.8178    0.7534   23.7186 C   0  0  0  0  0  0  0  0  0  0  0  0
    5.9360    0.1968   23.3619 H   0  0  0  0  0  0  0  0  0  0  0  0
    6.7213    1.7909   23.3634 H   0  0  0  0  0  0  0  0  0  0  0  0
    6.8318    0.7407   25.2395 C   0  0  0  0  0  0  0  0  0  0  0  0
    6.9247   -0.2958   25.6054 H   0  0  0  0  0  0  0  0  0  0  0  0
    7.7108    1.2949   25.6086 H   0  0  0  0  0  0  0  0  0  0  0  0
    5.6350    1.3321   25.7039 O   0  0  0  0  0  0  0  0  0  0  0  0
    5.5701    1.3592   27.1109 C   0  0  0  0  0  0  0  0  0  0  0  0
    6.4019    1.9395   27.5433 H   0  0  0  0  0  0  0  0  0  0  0  0
    4.6239    1.8240   27.3980 H   0  0  0  0  0  0  0  0  0  0  0  0
    5.6160    0.3439   27.5380 H   0  0  0  0  0  0  0  0  0  0  0  0
    9.6790    0.4747   21.4999 C   0  0  0  0  0  0  0  0  0  0  0  0
   10.4151    0.4603   22.2972 H   0  0  0  0  0  0  0  0  0  0  0  0
   10.0170    0.0200   20.5706 H   0  0  0  0  0  0  0  0  0  0  0  0
    8.7093    1.6298   21.4139 C   0  0  0  0  0  0  0  0  0  0  0  0
    8.3895    1.9953   20.4425 H   0  0  0  0  0  0  0  0  0  0  0  0
    8.8056    2.4162   22.1573 H   0  0  0  0  0  0  0  0  0  0  0  0
    5.4389    0.6498   20.1432 C   0  0  0  0  0  0  0  0  0  0  0  0
    5.0176    0.6365   21.1544 H   0  0  0  0  0  0  0  0  0  0  0  0
    4.8041    1.3157   19.0931 C   0  0  0  0  0  0  0  0  0  0  0  0
    3.8731    1.8462   19.2467 H   0  0  0  0  0  0  0  0  0  0  0  0
  1  2  1  0
  2  3  2  0
  3  4  1  0
  4  5  1  0
  4  6  2  0
  6  7  1  0
  7  8  1  0
  7  9  1  0
  7 10  1  0
 10 11  1  0
 11 12  1  0
 12 13  1  0
 12 14  1  0
 12 15  1  0
 15 16  1  0
 15 17  1  0
 15 18  1  0
 18 19  1  0
 19 20  1  0
 19 21  1  0
 19 22  1  0
 10 23  1  0
 23 24  1  0
 23 25  1  0
 23 26  1  0
 26 27  1  0
 26 28  1  0
  6 29  1  0
 29 30  1  0
 29 31  2  0
 31 32  1  0
 31  2  1  0
 26 10  1  0
M  END
>  <plip>  (1) 
-0.0

>  <filename>  (1) 
[H][c]1[n][c]([H])[c]([C]([H])([H])[C]2([O][C]([H])([H])[C]([H])([H])[O][C]([H])([H])[H])[C]([H])([H])[C]2([H])[H])[c]([H])[c]1[H]

$$$$
