
     RDKit          3D

 38 39  0  0  0  0  0  0  0  0999 V2000
   11.7072    4.5599   24.3535 C   0  0  0  0  0  0  0  0  0  0  0  0
   10.3525    4.9429   24.9013 C   0  0  0  0  0  0  0  0  0  0  0  0
   10.2573    5.9063   25.9361 C   0  0  0  0  0  0  0  0  0  0  0  0
   11.8216    6.7249   26.6844 Br  0  0  0  0  0  0  0  0  0  0  0  0
    9.0047    6.2660   26.4539 C   0  0  0  0  0  0  0  0  0  0  0  0
    7.8515    5.6475   25.9775 C   0  0  0  0  0  0  0  0  0  0  0  0
    7.9460    4.6774   24.9819 C   0  0  0  0  0  0  0  0  0  0  0  0
    9.1762    4.3201   24.4254 C   0  0  0  0  0  0  0  0  0  0  0  0
    9.2034    3.3264   23.4336 N   0  0  0  0  0  0  0  0  0  0  0  0
    8.3034    2.2518   23.3483 C   0  0  0  0  0  0  0  0  0  0  0  0
    7.4714    2.1588   24.2582 O   0  0  0  0  0  0  0  0  0  0  0  0
    8.3420    1.2375   22.1979 C   0  0  0  0  0  0  0  0  0  0  0  0
    9.0962    1.4028   21.2321 O   0  0  0  0  0  0  0  0  0  0  0  0
    7.5302    0.0963   22.1213 N   0  0  0  0  0  0  0  0  0  0  0  0
    7.4340   -0.7450   20.9418 C   0  0  1  0  0  0  0  0  0  0  0  0
    6.6910   -2.0225   21.3110 C   0  0  0  0  0  0  0  0  0  0  0  0
    6.6037   -2.6843   20.4443 H   0  0  0  0  0  0  0  0  0  0  0  0
    5.6837   -1.7908   21.6699 H   0  0  0  0  0  0  0  0  0  0  0  0
    7.2373   -2.5486   22.0983 H   0  0  0  0  0  0  0  0  0  0  0  0
    6.6819   -0.0013   19.8720 C   0  0  0  0  0  0  0  0  0  0  0  0
    5.4590    0.6328   20.1276 C   0  0  0  0  0  0  0  0  0  0  0  0
    4.8381    1.2984   19.0694 C   0  0  0  0  0  0  0  0  0  0  0  0
    5.4441    1.3164   17.8060 C   0  0  0  0  0  0  0  0  0  0  0  0
    6.6095    0.6959   17.5547 N   0  0  0  0  0  0  0  0  0  0  0  0
    7.2088    0.0568   18.5744 C   0  0  0  0  0  0  0  0  0  0  0  0
    8.1444   -0.4517   18.3678 H   0  0  0  0  0  0  0  0  0  0  0  0
    4.9584    1.8472   16.9922 H   0  0  0  0  0  0  0  0  0  0  0  0
    3.8949    1.8170   19.2105 H   0  0  0  0  0  0  0  0  0  0  0  0
    5.0053    0.6140   21.1190 H   0  0  0  0  0  0  0  0  0  0  0  0
    8.4392   -1.0090   20.5885 H   0  0  0  0  0  0  0  0  0  0  0  0
    6.8462   -0.0716   22.8562 H   0  0  0  0  0  0  0  0  0  0  0  0
    9.9989    3.3233   22.8035 H   0  0  0  0  0  0  0  0  0  0  0  0
    7.0403    4.1829   24.6536 H   0  0  0  0  0  0  0  0  0  0  0  0
    6.8775    5.8970   26.3879 H   0  0  0  0  0  0  0  0  0  0  0  0
    8.9127    7.0111   27.2421 H   0  0  0  0  0  0  0  0  0  0  0  0
   11.8195    4.9594   23.3390 H   0  0  0  0  0  0  0  0  0  0  0  0
   12.5021    4.9716   24.9882 H   0  0  0  0  0  0  0  0  0  0  0  0
   11.8205    3.4682   24.3256 H   0  0  0  0  0  0  0  0  0  0  0  0
  1  2  1  0
  2  3  2  0
  3  4  1  0
  3  5  1  0
  5  6  2  0
  6  7  1  0
  7  8  2  0
  8  9  1  0
  9 10  1  0
 10 11  2  0
 10 12  1  0
 12 13  2  0
 12 14  1  0
 14 15  1  0
 15 16  1  0
 16 17  1  0
 16 18  1  0
 16 19  1  0
 15 20  1  0
 20 21  2  0
 21 22  1  0
 22 23  2  0
 23 24  1  0
 24 25  2  0
 25 26  1  0
 23 27  1  0
 22 28  1  0
 21 29  1  0
 15 30  1  6
 14 31  1  0
  9 32  1  0
  7 33  1  0
  6 34  1  0
  5 35  1  0
  1 36  1  0
  1 37  1  0
  1 38  1  0
  8  2  1  0
 25 20  1  0
M  END
>  <plip>  (1) 
-0.17857142857142858

>  <filename>  (1) 
[H][c]1[n][c]([H])[c]([C@@]([H])([N]([H])[C](=[O])[C](=[O])[N]([H])[c]2[c]([H])[c]([H])[c]([H])[c]([Br])[c]2[C]([H])([H])[H])[C]([H])([H])[H])[c]([H])[c]1[H]

$$$$
