
     RDKit          3D

 40 42  0  0  0  0  0  0  0  0999 V2000
    5.8403   -8.2473   28.6004 N   0  0  0  0  0  0  0  0  0  0  0  0
    6.6415   -7.1498   28.4129 C   0  0  0  0  0  0  0  0  0  0  0  0
    7.6984   -7.0552   29.0077 O   0  0  0  0  0  0  0  0  0  0  0  0
    6.1095   -6.0889   27.4897 C   0  0  0  0  0  0  0  0  0  0  0  0
    4.7459   -5.7341   27.4638 C   0  0  0  0  0  0  0  0  0  0  0  0
    4.3189   -4.6729   26.6669 C   0  0  0  0  0  0  0  0  0  0  0  0
    5.2326   -3.9232   25.9087 C   0  0  0  0  0  0  0  0  0  0  0  0
    4.7860   -2.7095   25.1196 C   0  0  0  0  0  0  0  0  0  0  0  0
    5.9624   -1.7596   24.9185 C   0  0  0  0  0  0  0  0  0  0  0  0
    7.0381   -2.4912   24.2460 N   0  0  0  0  0  0  0  0  0  0  0  0
    7.6548   -2.1239   23.0635 C   0  0  0  0  0  0  0  0  0  0  0  0
    8.8669   -2.1948   22.9284 O   0  0  0  0  0  0  0  0  0  0  0  0
    6.7255   -1.6339   21.8394 C   0  0  0  0  0  0  0  0  0  0  0  0
    5.6167   -2.0921   21.6312 O   0  0  0  0  0  0  0  0  0  0  0  0
    7.3332   -0.7268   20.9920 N   0  0  0  0  0  0  0  0  0  0  0  0
    6.6767   -0.0395   19.9198 C   0  0  0  0  0  0  0  0  0  0  0  0
    5.4523    0.6047   20.1317 C   0  0  0  0  0  0  0  0  0  0  0  0
    4.8491    1.2874   19.0668 C   0  0  0  0  0  0  0  0  0  0  0  0
    5.4776    1.2832   17.8186 C   0  0  0  0  0  0  0  0  0  0  0  0
    6.6522    0.6679   17.5961 N   0  0  0  0  0  0  0  0  0  0  0  0
    7.2357    0.0368   18.6248 C   0  0  0  0  0  0  0  0  0  0  0  0
    8.1902   -0.4495   18.4199 H   0  0  0  0  0  0  0  0  0  0  0  0
    5.0310    1.7997   16.9689 H   0  0  0  0  0  0  0  0  0  0  0  0
    3.9147    1.8242   19.1976 H   0  0  0  0  0  0  0  0  0  0  0  0
    5.0061    0.5808   21.1228 H   0  0  0  0  0  0  0  0  0  0  0  0
    8.3020   -0.4989   21.1805 H   0  0  0  0  0  0  0  0  0  0  0  0
    7.6387   -3.5330   25.0888 C   0  0  0  0  0  0  0  0  0  0  0  0
    6.5940   -4.3042   25.8927 C   0  0  0  0  0  0  0  0  0  0  0  0
    7.0137   -5.3729   26.6917 C   0  0  0  0  0  0  0  0  0  0  0  0
    8.0682   -5.6476   26.7324 H   0  0  0  0  0  0  0  0  0  0  0  0
    8.3908   -3.0951   25.7669 H   0  0  0  0  0  0  0  0  0  0  0  0
    8.1995   -4.2295   24.4574 H   0  0  0  0  0  0  0  0  0  0  0  0
    5.7078   -0.8492   24.3755 H   0  0  0  0  0  0  0  0  0  0  0  0
    6.3238   -1.4312   25.9076 H   0  0  0  0  0  0  0  0  0  0  0  0
    3.9680   -2.1974   25.6398 H   0  0  0  0  0  0  0  0  0  0  0  0
    4.4178   -3.0350   24.1410 H   0  0  0  0  0  0  0  0  0  0  0  0
    3.2642   -4.4009   26.6445 H   0  0  0  0  0  0  0  0  0  0  0  0
    4.0340   -6.2606   28.1000 H   0  0  0  0  0  0  0  0  0  0  0  0
    6.3481   -8.9189   29.1573 H   0  0  0  0  0  0  0  0  0  0  0  0
    5.3642   -8.5996   27.7850 H   0  0  0  0  0  0  0  0  0  0  0  0
  1  2  1  0
  2  3  2  0
  2  4  1  0
  4  5  2  0
  5  6  1  0
  6  7  2  0
  7  8  1  0
  8  9  1  0
  9 10  1  0
 10 11  1  0
 11 12  2  0
 11 13  1  0
 13 14  2  0
 13 15  1  0
 15 16  1  0
 16 17  2  0
 17 18  1  0
 18 19  2  0
 19 20  1  0
 20 21  2  0
 21 22  1  0
 19 23  1  0
 18 24  1  0
 17 25  1  0
 15 26  1  0
 10 27  1  0
 27 28  1  0
 28 29  2  0
 29 30  1  0
 27 31  1  0
 27 32  1  0
  9 33  1  0
  9 34  1  0
  8 35  1  0
  8 36  1  0
  6 37  1  0
  5 38  1  0
  1 39  1  0
  1 40  1  0
 29  4  1  0
 28  7  1  0
 21 16  1  0
M  END
>  <plip>  (1) 
-0.06666666666666667

>  <filename>  (1) 
[H][c]1[n][c]([H])[c]([N]([H])[C](=[O])[C](=[O])[N]2[C]([H])([H])[c]3[c]([H])[c]([C](=[O])[N]([H])[H])[c]([H])[c]([H])[c]3[C]([H])([H])[C]2([H])[H])[c]([H])[c]1[H]

$$$$
