
     RDKit          3D

 19 20  0  0  0  0  0  0  0  0999 V2000
    5.0770    1.7355   17.0249 H   0  0  0  0  0  0  0  0  0  0  0  0
    5.4664    1.2088   17.8926 C   0  0  0  0  0  0  0  0  0  0  0  0
    6.6278    0.5701   17.7069 N   0  0  0  0  0  0  0  0  0  0  0  0
    7.1778   -0.0287   18.7566 C   0  0  0  0  0  0  0  0  0  0  0  0
    8.1358   -0.5253   18.6243 H   0  0  0  0  0  0  0  0  0  0  0  0
    6.5680   -0.0328   20.0005 C   0  0  0  0  0  0  0  0  0  0  0  0
    7.5328   -0.7959   21.2696 S   0  0  0  0  0  0  0  0  0  0  0  0
    7.2183   -0.0573   22.4843 O   0  0  0  0  0  0  0  0  0  0  0  0
    8.8980   -0.8714   20.7675 O   0  0  0  0  0  0  0  0  0  0  0  0
    6.8812   -2.5096   21.3759 C   0  0  0  0  0  0  0  0  0  0  0  0
    5.5724   -2.8152   21.6097 N   0  0  0  0  0  0  0  0  0  0  0  0
    5.4813   -4.1085   21.4885 N   0  0  0  0  0  0  0  0  0  0  0  0
    6.6921   -4.5304   21.2112 N   0  0  0  0  0  0  0  0  0  0  0  0
    6.9070   -5.5061   21.0496 H   0  0  0  0  0  0  0  0  0  0  0  0
    7.6139   -3.5968   21.1474 N   0  0  0  0  0  0  0  0  0  0  0  0
    5.3503    0.6182   20.2229 C   0  0  0  0  0  0  0  0  0  0  0  0
    4.8637    0.6640   21.2008 H   0  0  0  0  0  0  0  0  0  0  0  0
    4.7921    1.2524   19.1160 C   0  0  0  0  0  0  0  0  0  0  0  0
    3.8795    1.8273   19.1934 H   0  0  0  0  0  0  0  0  0  0  0  0
  1  2  1  0
  2  3  2  0
  3  4  1  0
  4  5  1  0
  4  6  2  0
  6  7  1  0
  7  8  2  0
  7  9  2  0
  7 10  1  0
 10 11  1  0
 11 12  2  0
 12 13  1  0
 13 14  1  0
 13 15  1  0
  6 16  1  0
 16 17  1  0
 16 18  2  0
 18 19  1  0
 18  2  1  0
 15 10  2  0
M  END
>  <plip>  (1) 
-0.034482758620689655

>  <filename>  (1) 
[H][c]1[n][c]([H])[c]([S](=[O])(=[O])[c]2[n][n][n]([H])[n]2)[c]([H])[c]1[H]

$$$$
