
     RDKit          3D

 39 40  0  0  0  0  0  0  0  0999 V2000
   10.8298   -1.9382   21.5564 C   0  0  0  0  0  0  0  0  0  0  0  0
    9.7083   -2.1498   22.4641 N   0  0  0  0  0  0  0  0  0  0  0  0
   10.0085   -2.4654   23.8752 C   0  0  0  0  0  0  0  0  0  0  0  0
   10.1539   -1.2252   24.7422 C   0  0  0  0  0  0  0  0  0  0  0  0
   11.0241   -0.1792   24.3934 C   0  0  0  0  0  0  0  0  0  0  0  0
   10.9111    1.0672   25.0102 C   0  0  0  0  0  0  0  0  0  0  0  0
    9.9671    1.2649   26.0185 C   0  0  0  0  0  0  0  0  0  0  0  0
    9.2025    0.1852   26.4930 C   0  0  0  0  0  0  0  0  0  0  0  0
    8.2655    0.3492   27.6647 C   0  0  0  0  0  0  0  0  0  0  0  0
    8.5930    0.3357   28.8343 O   0  0  0  0  0  0  0  0  0  0  0  0
    6.9488    0.5424   27.3531 N   0  0  0  0  0  0  0  0  0  0  0  0
    6.4056    0.3813   28.1863 H   0  0  0  0  0  0  0  0  0  0  0  0
    6.6071    0.2092   26.4662 H   0  0  0  0  0  0  0  0  0  0  0  0
    9.3186   -1.0584   25.8542 C   0  0  0  0  0  0  0  0  0  0  0  0
    8.7700   -1.9186   26.2352 H   0  0  0  0  0  0  0  0  0  0  0  0
    9.8164    2.2642   26.4139 H   0  0  0  0  0  0  0  0  0  0  0  0
   11.5389    1.8895   24.6793 H   0  0  0  0  0  0  0  0  0  0  0  0
   11.7950   -0.3348   23.6430 H   0  0  0  0  0  0  0  0  0  0  0  0
    9.1944   -3.0823   24.2634 H   0  0  0  0  0  0  0  0  0  0  0  0
   10.9199   -3.0742   23.9078 H   0  0  0  0  0  0  0  0  0  0  0  0
    8.4265   -1.7459   22.1569 C   0  0  0  0  0  0  0  0  0  0  0  0
    7.5030   -1.9381   22.9387 O   0  0  0  0  0  0  0  0  0  0  0  0
    8.1339   -0.9972   20.7502 C   0  0  0  0  0  0  0  0  0  0  0  0
    9.0005   -0.6676   19.9565 O   0  0  0  0  0  0  0  0  0  0  0  0
    6.8031   -0.7434   20.5136 N   0  0  0  0  0  0  0  0  0  0  0  0
    6.2491    0.0566   19.4728 C   0  0  0  0  0  0  0  0  0  0  0  0
    5.0490    0.7409   19.7148 C   0  0  0  0  0  0  0  0  0  0  0  0
    4.5361    1.5823   18.7184 C   0  0  0  0  0  0  0  0  0  0  0  0
    5.2228    1.6946   17.5053 C   0  0  0  0  0  0  0  0  0  0  0  0
    6.3390    0.9988   17.2295 N   0  0  0  0  0  0  0  0  0  0  0  0
    6.8365    0.2098   18.1920 C   0  0  0  0  0  0  0  0  0  0  0  0
    7.7410   -0.3402   17.9568 H   0  0  0  0  0  0  0  0  0  0  0  0
    4.8636    2.3608   16.7228 H   0  0  0  0  0  0  0  0  0  0  0  0
    3.6361    2.1692   18.8816 H   0  0  0  0  0  0  0  0  0  0  0  0
    4.5370    0.6312   20.6698 H   0  0  0  0  0  0  0  0  0  0  0  0
    6.1814   -0.9880   21.2747 H   0  0  0  0  0  0  0  0  0  0  0  0
   11.7196   -2.4440   21.9400 H   0  0  0  0  0  0  0  0  0  0  0  0
   11.0550   -0.8790   21.4019 H   0  0  0  0  0  0  0  0  0  0  0  0
   10.5669   -2.3589   20.5943 H   0  0  0  0  0  0  0  0  0  0  0  0
  1  2  1  0
  2  3  1  0
  3  4  1  0
  4  5  2  0
  5  6  1  0
  6  7  2  0
  7  8  1  0
  8  9  1  0
  9 10  2  0
  9 11  1  0
 11 12  1  0
 11 13  1  0
  8 14  2  0
 14 15  1  0
  7 16  1  0
  6 17  1  0
  5 18  1  0
  3 19  1  0
  3 20  1  0
  2 21  1  0
 21 22  2  0
 21 23  1  0
 23 24  2  0
 23 25  1  0
 25 26  1  0
 26 27  2  0
 27 28  1  0
 28 29  2  0
 29 30  1  0
 30 31  2  0
 31 32  1  0
 29 33  1  0
 28 34  1  0
 27 35  1  0
 25 36  1  0
  1 37  1  0
  1 38  1  0
  1 39  1  0
 14  4  1  0
 31 26  1  0
M  END
>  <plip>  (1) 
-0.13333333333333333

>  <filename>  (1) 
[H][c]1[n][c]([H])[c]([N]([H])[C](=[O])[C](=[O])[N]([C]([H])([H])[H])[C]([H])([H])[c]2[c]([H])[c]([H])[c]([H])[c]([C](=[O])[N]([H])[H])[c]2[H])[c]([H])[c]1[H]

$$$$
