
     RDKit          3D

 37 38  0  0  0  0  0  0  0  0999 V2000
    4.9534    1.8180   17.0052 H   0  0  0  0  0  0  0  0  0  0  0  0
    5.4288    1.2940   17.8328 C   0  0  0  0  0  0  0  0  0  0  0  0
    6.5641    0.6389   17.5488 N   0  0  0  0  0  0  0  0  0  0  0  0
    7.1805   -0.0015   18.5466 C   0  0  0  0  0  0  0  0  0  0  0  0
    8.0788   -0.5500   18.2672 H   0  0  0  0  0  0  0  0  0  0  0  0
    6.7131   -0.0119   19.8723 C   0  0  0  0  0  0  0  0  0  0  0  0
    7.4260   -0.6796   20.9104 N   0  0  0  0  0  0  0  0  0  0  0  0
    6.7880   -1.0432   22.0523 N   0  0  0  0  0  0  0  0  0  0  0  0
    7.7346   -1.6370   22.7470 C   0  0  0  0  0  0  0  0  0  0  0  0
    7.4993   -2.1611   24.1202 C   0  0  0  0  0  0  0  0  0  0  0  0
    6.5698   -2.7328   24.1275 H   0  0  0  0  0  0  0  0  0  0  0  0
    8.3160   -2.8421   24.3636 H   0  0  0  0  0  0  0  0  0  0  0  0
    7.4289   -1.0152   25.1353 C   0  0  0  0  0  0  0  0  0  0  0  0
    7.2619   -1.4240   26.1518 H   0  0  0  0  0  0  0  0  0  0  0  0
    6.5491   -0.4012   24.9037 H   0  0  0  0  0  0  0  0  0  0  0  0
    8.6212   -0.1846   25.0486 N   0  0  0  0  0  0  0  0  0  0  0  0
    9.8187   -0.7472   25.6571 C   0  0  0  0  0  0  0  0  0  0  0  0
    9.8079   -0.6869   26.7674 H   0  0  0  0  0  0  0  0  0  0  0  0
    9.8536   -1.8125   25.4008 H   0  0  0  0  0  0  0  0  0  0  0  0
   11.1038   -0.1097   25.1230 C   0  0  0  0  0  0  0  0  0  0  0  0
   11.9863   -0.6990   25.3774 H   0  0  0  0  0  0  0  0  0  0  0  0
   11.2859    0.8786   25.5469 H   0  0  0  0  0  0  0  0  0  0  0  0
   11.0719    0.0002   24.0331 H   0  0  0  0  0  0  0  0  0  0  0  0
    8.4483    1.2484   25.2429 C   0  0  0  0  0  0  0  0  0  0  0  0
    9.4243    1.7226   25.0927 H   0  0  0  0  0  0  0  0  0  0  0  0
    7.8052    1.6500   24.4471 H   0  0  0  0  0  0  0  0  0  0  0  0
    7.8758    1.6706   26.5898 C   0  0  0  0  0  0  0  0  0  0  0  0
    7.9737    2.7525   26.7173 H   0  0  0  0  0  0  0  0  0  0  0  0
    6.8137    1.4184   26.6505 H   0  0  0  0  0  0  0  0  0  0  0  0
    8.3824    1.1743   27.4251 H   0  0  0  0  0  0  0  0  0  0  0  0
    8.9468   -1.6990   22.1333 N   0  0  0  0  0  0  0  0  0  0  0  0
    8.7198   -1.0729   20.9969 C   0  0  0  0  0  0  0  0  0  0  0  0
    9.4472   -0.8860   20.2178 H   0  0  0  0  0  0  0  0  0  0  0  0
    5.5036    0.6443   20.1531 C   0  0  0  0  0  0  0  0  0  0  0  0
    5.0970    0.6102   21.1618 H   0  0  0  0  0  0  0  0  0  0  0  0
    4.8549    1.3092   19.1081 C   0  0  0  0  0  0  0  0  0  0  0  0
    3.9226    1.8378   19.2788 H   0  0  0  0  0  0  0  0  0  0  0  0
  1  2  1  0
  2  3  2  0
  3  4  1  0
  4  5  1  0
  4  6  2  0
  6  7  1  0
  7  8  1  0
  8  9  2  0
  9 10  1  0
 10 11  1  0
 10 12  1  0
 10 13  1  0
 13 14  1  0
 13 15  1  0
 13 16  1  0
 16 17  1  0
 17 18  1  0
 17 19  1  0
 17 20  1  0
 20 21  1  0
 20 22  1  0
 20 23  1  0
 16 24  1  0
 24 25  1  0
 24 26  1  0
 24 27  1  0
 27 28  1  0
 27 29  1  0
 27 30  1  0
  9 31  1  0
 31 32  2  0
 32 33  1  0
  6 34  1  0
 34 35  1  0
 34 36  2  0
 36 37  1  0
 36  2  1  0
 32  7  1  0
M  END
>  <plip>  (1) 
-0.06896551724137931

>  <filename>  (1) 
[H][c]1[n][c]([H])[c](-[n]2[n][c]([C]([H])([H])[C]([H])([H])[N]([C]([H])([H])[C]([H])([H])[H])[C]([H])([H])[C]([H])([H])[H])[n][c]2[H])[c]([H])[c]1[H]

$$$$
