
     RDKit          3D

 23 24  0  0  0  0  0  0  0  0999 V2000
    4.9219    1.7931   16.9845 H   0  0  0  0  0  0  0  0  0  0  0  0
    5.3935    1.2978   17.8302 C   0  0  0  0  0  0  0  0  0  0  0  0
    6.5547    0.6820   17.5639 N   0  0  0  0  0  0  0  0  0  0  0  0
    7.1662    0.0657   18.5830 C   0  0  0  0  0  0  0  0  0  0  0  0
    8.1163   -0.4166   18.3505 H   0  0  0  0  0  0  0  0  0  0  0  0
    6.6514    0.0137   19.8990 C   0  0  0  0  0  0  0  0  0  0  0  0
    7.3531   -0.6795   20.9325 C   0  0  0  0  0  0  0  0  0  0  0  0
    7.9408   -1.2633   21.8060 C   0  0  0  0  0  0  0  0  0  0  0  0
    8.6193   -1.9406   22.8607 C   0  0  0  0  0  0  0  0  0  0  0  0
    9.8493   -2.5745   22.5967 C   0  0  0  0  0  0  0  0  0  0  0  0
   10.2518   -2.5376   21.5867 H   0  0  0  0  0  0  0  0  0  0  0  0
   10.5321   -3.2609   23.5975 C   0  0  0  0  0  0  0  0  0  0  0  0
   11.4830   -3.7437   23.4076 H   0  0  0  0  0  0  0  0  0  0  0  0
    9.9561   -3.3544   24.8667 C   0  0  0  0  0  0  0  0  0  0  0  0
   10.6480   -4.4484   26.0163 Cl  0  0  0  0  0  0  0  0  0  0  0  0
    8.7785   -2.6818   25.1901 C   0  0  0  0  0  0  0  0  0  0  0  0
    8.3691   -2.7184   26.1963 H   0  0  0  0  0  0  0  0  0  0  0  0
    8.1098   -1.9929   24.1761 C   0  0  0  0  0  0  0  0  0  0  0  0
    6.6016   -1.2289   24.5728 Cl  0  0  0  0  0  0  0  0  0  0  0  0
    5.4321    0.6568   20.1555 C   0  0  0  0  0  0  0  0  0  0  0  0
    5.0105    0.6359   21.1616 H   0  0  0  0  0  0  0  0  0  0  0  0
    4.7990    1.3147   19.0982 C   0  0  0  0  0  0  0  0  0  0  0  0
    3.8689    1.8469   19.2426 H   0  0  0  0  0  0  0  0  0  0  0  0
  1  2  1  0
  2  3  2  0
  3  4  1  0
  4  5  1  0
  4  6  2  0
  6  7  1  0
  7  8  3  0
  8  9  1  0
  9 10  2  0
 10 11  1  0
 10 12  1  0
 12 13  1  0
 12 14  2  0
 14 15  1  0
 14 16  1  0
 16 17  1  0
 16 18  2  0
 18 19  1  0
  6 20  1  0
 20 21  1  0
 20 22  2  0
 22 23  1  0
 22  2  1  0
 18  9  1  0
M  END
>  <plip>  (1) 
-0.06896551724137931

>  <filename>  (1) 
[H][c]1[n][c]([H])[c]([C]#[C][c]2[c]([H])[c]([H])[c]([Cl])[c]([H])[c]2[Cl])[c]([H])[c]1[H]

$$$$
