
     RDKit          3D

 33 35  0  0  0  0  0  0  0  0999 V2000
    4.9720    1.7785   16.9304 H   0  0  0  0  0  0  0  0  0  0  0  0
    5.4435    1.2951   17.7842 C   0  0  0  0  0  0  0  0  0  0  0  0
    6.6101    0.6746   17.5487 N   0  0  0  0  0  0  0  0  0  0  0  0
    7.1985    0.0689   18.5908 C   0  0  0  0  0  0  0  0  0  0  0  0
    8.1460   -0.4268   18.3704 H   0  0  0  0  0  0  0  0  0  0  0  0
    6.6854    0.0453   19.8988 C   0  0  0  0  0  0  0  0  0  0  0  0
    7.3772   -0.6970   21.0249 C   0  0  0  0  0  0  0  0  0  0  0  0
    7.3805   -0.0628   21.9241 H   0  0  0  0  0  0  0  0  0  0  0  0
    8.4295   -0.8561   20.7488 H   0  0  0  0  0  0  0  0  0  0  0  0
    6.7529   -2.0351   21.3461 C   0  0  0  0  0  0  0  0  0  0  0  0
    6.1288   -2.9117   20.4271 C   0  0  0  0  0  0  0  0  0  0  0  0
    5.9801   -2.7496   19.3651 H   0  0  0  0  0  0  0  0  0  0  0  0
    5.7031   -4.0288   21.0023 N   0  0  0  0  0  0  0  0  0  0  0  0
    6.0526   -3.8686   22.2884 N   0  0  0  0  0  0  0  0  0  0  0  0
    5.8855   -4.6166   22.9462 H   0  0  0  0  0  0  0  0  0  0  0  0
    6.6870   -2.6974   22.5589 C   0  0  0  0  0  0  0  0  0  0  0  0
    7.0697   -2.3021   23.9599 C   0  0  1  0  0  0  0  0  0  0  0  0
    6.8888   -3.1842   24.5885 H   0  0  0  0  0  0  0  0  0  0  0  0
    8.5496   -1.8697   24.1952 C   0  0  0  0  0  0  0  0  0  0  0  0
    9.1428   -1.8632   23.2716 H   0  0  0  0  0  0  0  0  0  0  0  0
    9.0240   -2.5975   24.8690 H   0  0  0  0  0  0  0  0  0  0  0  0
    8.5284   -0.5523   24.8486 N   0  0  0  0  0  0  0  0  0  0  0  0
    8.5697    0.1701   24.1344 H   0  0  0  0  0  0  0  0  0  0  0  0
    7.2218   -0.4561   25.5089 C   0  0  0  0  0  0  0  0  0  0  0  0
    7.2665   -0.9712   26.4808 H   0  0  0  0  0  0  0  0  0  0  0  0
    6.9702    0.5892   25.7245 H   0  0  0  0  0  0  0  0  0  0  0  0
    6.2477   -1.1234   24.5340 C   0  0  0  0  0  0  0  0  0  0  0  0
    5.3057   -1.4706   24.9774 H   0  0  0  0  0  0  0  0  0  0  0  0
    6.0375   -0.3972   23.7360 H   0  0  0  0  0  0  0  0  0  0  0  0
    5.4633    0.6986   20.1125 C   0  0  0  0  0  0  0  0  0  0  0  0
    5.0231    0.7116   21.1130 H   0  0  0  0  0  0  0  0  0  0  0  0
    4.8291    1.3274   19.0402 C   0  0  0  0  0  0  0  0  0  0  0  0
    3.8840    1.8445   19.1682 H   0  0  0  0  0  0  0  0  0  0  0  0
  1  2  1  0
  2  3  2  0
  3  4  1  0
  4  5  1  0
  4  6  2  0
  6  7  1  0
  7  8  1  0
  7  9  1  0
  7 10  1  0
 10 11  1  0
 11 12  1  0
 11 13  2  0
 13 14  1  0
 14 15  1  0
 14 16  1  0
 16 17  1  0
 17 18  1  1
 17 19  1  0
 19 20  1  0
 19 21  1  0
 19 22  1  0
 22 23  1  0
 22 24  1  0
 24 25  1  0
 24 26  1  0
 24 27  1  0
 27 28  1  0
 27 29  1  0
  6 30  1  0
 30 31  1  0
 30 32  2  0
 32 33  1  0
 32  2  1  0
 16 10  2  0
 27 17  1  0
M  END
>  <plip>  (1) 
-0.07142857142857142

>  <filename>  (1) 
[H][c]1[n][c]([H])[c]([C]([H])([H])[c]2[c]([H])[n][n]([H])[c]2[C@@]2([H])[C]([H])([H])[N]([H])[C]([H])([H])[C]2([H])[H])[c]([H])[c]1[H]

$$$$
