
     RDKit          3D

 24 24  0  0  0  0  0  0  0  0999 V2000
    9.0794   -1.5052   21.4579 H   0  0  0  0  0  0  0  0  0  0  0  0
    8.7050   -1.0098   20.6552 N   0  0  0  0  0  0  0  0  0  0  0  0
    7.5199   -0.6444   20.9063 C   0  0  0  0  0  0  0  0  0  0  0  0
    6.7562   -1.0576   22.4981 S   0  0  0  0  0  0  0  0  0  0  0  0
    5.9675   -2.6105   22.0893 C   0  0  0  0  0  0  0  0  0  0  0  0
    4.9268   -2.5340   21.7534 H   0  0  0  0  0  0  0  0  0  0  0  0
    6.6019   -3.7886   22.1719 C   0  0  0  0  0  0  0  0  0  0  0  0
    7.6032   -3.8733   22.5955 H   0  0  0  0  0  0  0  0  0  0  0  0
    5.9440   -5.0767   21.8442 C   0  0  0  0  0  0  0  0  0  0  0  0
    4.8754   -5.1850   21.2838 O   0  0  0  0  0  0  0  0  0  0  0  0
    6.6628   -6.1516   22.3965 N   0  0  0  0  0  0  0  0  0  0  0  0
    7.6540   -5.9812   22.3059 H   0  0  0  0  0  0  0  0  0  0  0  0
    6.4216   -7.4573   21.9381 O   0  0  0  0  0  0  0  0  0  0  0  0
    5.5629   -7.7310   22.3093 H   0  0  0  0  0  0  0  0  0  0  0  0
    6.7015    0.0531   19.8912 C   0  0  0  0  0  0  0  0  0  0  0  0
    7.1987    0.0793   18.5781 C   0  0  0  0  0  0  0  0  0  0  0  0
    8.1394   -0.4102   18.3513 H   0  0  0  0  0  0  0  0  0  0  0  0
    6.5817    0.6820   17.5607 N   0  0  0  0  0  0  0  0  0  0  0  0
    5.4196    1.2985   17.8144 C   0  0  0  0  0  0  0  0  0  0  0  0
    4.9373    1.7870   16.9676 H   0  0  0  0  0  0  0  0  0  0  0  0
    4.8260    1.3088   19.0795 C   0  0  0  0  0  0  0  0  0  0  0  0
    3.8842    1.8226   19.2198 H   0  0  0  0  0  0  0  0  0  0  0  0
    5.4700    0.6723   20.1378 C   0  0  0  0  0  0  0  0  0  0  0  0
    5.0345    0.6719   21.1366 H   0  0  0  0  0  0  0  0  0  0  0  0
  1  2  1  0
  2  3  2  3
  3  4  1  0
  4  5  1  0
  5  6  1  0
  5  7  2  3
  7  8  1  0
  7  9  1  0
  9 10  2  0
  9 11  1  0
 11 12  1  0
 11 13  1  0
 13 14  1  0
  3 15  1  0
 15 16  2  0
 16 17  1  0
 16 18  1  0
 18 19  2  0
 19 20  1  0
 19 21  1  0
 21 22  1  0
 21 23  2  0
 23 24  1  0
 23 15  1  0
M  END
>  <plip>  (1) 
-0.06896551724137931

>  <filename>  (1) 
[H][N]=[C]([S][C]([H])=[C]([H])[C](=[O])[N]([H])[O][H])[c]1[c]([H])[n][c]([H])[c]([H])[c]1[H]

$$$$
