
     RDKit          3D

 29 31  0  0  0  0  0  0  0  0999 V2000
    7.7963    2.1086   21.2993 H   0  0  0  0  0  0  0  0  0  0  0  0
    7.3524    2.0450   22.2900 C   0  0  0  0  0  0  0  0  0  0  0  0
    7.1498    0.8732   22.8921 C   0  0  0  0  0  0  0  0  0  0  0  0
    7.4738   -0.3658   22.2461 N   0  0  0  0  0  0  0  0  0  0  0  0
    8.1296   -1.3704   22.8752 N   0  0  0  0  0  0  0  0  0  0  0  0
    8.3951   -2.2551   21.9878 N   0  0  0  0  0  0  0  0  0  0  0  0
    7.9497   -1.8798   20.7717 N   0  0  0  0  0  0  0  0  0  0  0  0
    7.3677   -0.7155   20.9347 C   0  0  0  0  0  0  0  0  0  0  0  0
    6.6509    0.0265   19.8979 C   0  0  0  0  0  0  0  0  0  0  0  0
    7.1715    0.0558   18.5965 C   0  0  0  0  0  0  0  0  0  0  0  0
    8.1183   -0.4382   18.3777 H   0  0  0  0  0  0  0  0  0  0  0  0
    6.5696    0.6777   17.5803 N   0  0  0  0  0  0  0  0  0  0  0  0
    5.4045    1.2935   17.8394 C   0  0  0  0  0  0  0  0  0  0  0  0
    4.9188    1.7786   16.9984 H   0  0  0  0  0  0  0  0  0  0  0  0
    4.7980    1.3132   19.1011 C   0  0  0  0  0  0  0  0  0  0  0  0
    3.8679    1.8459   19.2560 H   0  0  0  0  0  0  0  0  0  0  0  0
    5.4265    0.6588   20.1530 C   0  0  0  0  0  0  0  0  0  0  0  0
    4.9951    0.6342   21.1600 H   0  0  0  0  0  0  0  0  0  0  0  0
    6.6152    0.7790   24.3052 C   0  0  0  0  0  0  0  0  0  0  0  0
    5.9190   -0.0594   24.4059 H   0  0  0  0  0  0  0  0  0  0  0  0
    7.4635    0.5687   24.9678 H   0  0  0  0  0  0  0  0  0  0  0  0
    5.9533    2.0994   24.7489 C   0  0  0  0  0  0  0  0  0  0  0  0
    5.7786    2.1014   25.8309 H   0  0  0  0  0  0  0  0  0  0  0  0
    4.9655    2.2095   24.2839 H   0  0  0  0  0  0  0  0  0  0  0  0
    6.7457    3.2755   24.3868 N   0  0  0  0  0  0  0  0  0  0  0  0
    7.6711    3.1466   24.7930 H   0  0  0  0  0  0  0  0  0  0  0  0
    6.9202    3.3484   22.9321 C   0  0  0  0  0  0  0  0  0  0  0  0
    7.6345    4.1443   22.6917 H   0  0  0  0  0  0  0  0  0  0  0  0
    5.9669    3.6791   22.4915 H   0  0  0  0  0  0  0  0  0  0  0  0
  1  2  1  0
  2  3  2  0
  3  4  1  0
  4  5  1  0
  5  6  2  0
  6  7  1  0
  7  8  2  0
  8  9  1  0
  9 10  2  0
 10 11  1  0
 10 12  1  0
 12 13  2  0
 13 14  1  0
 13 15  1  0
 15 16  1  0
 15 17  2  0
 17 18  1  0
  3 19  1  0
 19 20  1  0
 19 21  1  0
 19 22  1  0
 22 23  1  0
 22 24  1  0
 22 25  1  0
 25 26  1  0
 25 27  1  0
 27 28  1  0
 27 29  1  0
 27  2  1  0
  8  4  1  0
 17  9  1  0
M  END
>  <plip>  (1) 
-0.0

>  <filename>  (1) 
[H][C]1=[C]([n]2[n][n][n][c]2-[c]2[c]([H])[n][c]([H])[c]([H])[c]2[H])[C]([H])([H])[C]([H])([H])[N]([H])[C]1([H])[H]

$$$$
