
     RDKit          3D

 41 42  0  0  0  0  0  0  0  0999 V2000
    9.2779    1.0728   21.0925 C   0  0  0  0  0  0  0  0  0  0  0  0
    8.2746    0.2548   21.9182 C   0  0  0  0  0  0  0  0  0  0  0  0
    7.4014    1.1916   22.7732 C   0  0  0  0  0  0  0  0  0  0  0  0
    6.6706    0.6530   23.3916 H   0  0  0  0  0  0  0  0  0  0  0  0
    6.8507    1.9002   22.1403 H   0  0  0  0  0  0  0  0  0  0  0  0
    8.0291    1.7851   23.4509 H   0  0  0  0  0  0  0  0  0  0  0  0
    7.4650   -0.7037   20.9781 C   0  0  0  0  0  0  0  0  0  0  0  0
    6.5161   -1.6537   21.7153 C   0  0  0  0  0  0  0  0  0  0  0  0
    7.2358   -2.5964   22.6136 N   0  0  0  0  0  4  0  0  0  0  0  0
    6.3715   -3.6885   23.2230 C   0  0  0  0  0  0  0  0  0  0  0  0
    7.1609   -4.5934   24.1081 C   0  0  0  0  0  0  0  0  0  0  0  0
    7.8122   -5.7377   23.8008 C   0  0  0  0  0  0  0  0  0  0  0  0
    7.8285   -6.4866   22.5125 C   0  0  0  0  0  0  0  0  0  0  0  0
    6.5802   -6.8502   22.1491 F   0  0  0  0  0  0  0  0  0  0  0  0
    8.5762   -7.5831   22.5602 F   0  0  0  0  0  0  0  0  0  0  0  0
    8.2974   -5.6959   21.5199 F   0  0  0  0  0  0  0  0  0  0  0  0
    8.4757   -6.1660   24.9144 O   0  0  0  0  0  0  0  0  0  0  0  0
    8.1591   -5.2619   25.8638 C   0  0  0  0  0  0  0  0  0  0  0  0
    7.3810   -4.3213   25.4527 N   0  0  0  0  0  0  0  0  0  0  0  0
    8.5864   -5.4055   26.8503 H   0  0  0  0  0  0  0  0  0  0  0  0
    5.8895   -4.2663   22.4248 H   0  0  0  0  0  0  0  0  0  0  0  0
    5.5875   -3.2484   23.8427 H   0  0  0  0  0  0  0  0  0  0  0  0
    8.0384   -3.0282   22.0747 H   0  0  0  0  0  0  0  0  0  0  0  0
    7.6679   -2.0484   23.4126 H   0  0  0  0  0  0  0  0  0  0  0  0
    5.7878   -1.0512   22.2708 H   0  0  0  0  0  0  0  0  0  0  0  0
    5.9443   -2.2130   20.9618 H   0  0  0  0  0  0  0  0  0  0  0  0
    6.6675    0.0075   19.8815 C   0  0  0  0  0  0  0  0  0  0  0  0
    5.4374    0.6536   20.1185 C   0  0  0  0  0  0  0  0  0  0  0  0
    4.7913    1.3130   19.0699 C   0  0  0  0  0  0  0  0  0  0  0  0
    5.3842    1.3060   17.8057 C   0  0  0  0  0  0  0  0  0  0  0  0
    6.5424    0.6814   17.5436 N   0  0  0  0  0  0  0  0  0  0  0  0
    7.1553    0.0645   18.5627 C   0  0  0  0  0  0  0  0  0  0  0  0
    8.1043   -0.4172   18.3130 H   0  0  0  0  0  0  0  0  0  0  0  0
    4.9252    1.8303   16.9687 H   0  0  0  0  0  0  0  0  0  0  0  0
    3.8600    1.8525   19.2196 H   0  0  0  0  0  0  0  0  0  0  0  0
    4.9894    0.6650   21.1158 H   0  0  0  0  0  0  0  0  0  0  0  0
    8.2121   -1.3440   20.4781 H   0  0  0  0  0  0  0  0  0  0  0  0
    8.8536   -0.3789   22.6113 H   0  0  0  0  0  0  0  0  0  0  0  0
    9.8900    0.4281   20.4499 H   0  0  0  0  0  0  0  0  0  0  0  0
    8.7288    1.7719   20.4496 H   0  0  0  0  0  0  0  0  0  0  0  0
    9.9501    1.6566   21.7331 H   0  0  0  0  0  0  0  0  0  0  0  0
  1  2  1  0
  2  3  1  0
  3  4  1  0
  3  5  1  0
  3  6  1  0
  2  7  1  0
  7  8  1  0
  8  9  1  0
  9 10  1  0
 10 11  1  0
 11 12  2  0
 12 13  1  0
 13 14  1  0
 13 15  1  0
 13 16  1  0
 12 17  1  0
 17 18  1  0
 18 19  2  0
 18 20  1  0
 10 21  1  0
 10 22  1  0
  9 23  1  0
  9 24  1  0
  8 25  1  0
  8 26  1  0
  7 27  1  0
 27 28  2  0
 28 29  1  0
 29 30  2  0
 30 31  1  0
 31 32  2  0
 32 33  1  0
 30 34  1  0
 29 35  1  0
 28 36  1  0
  7 37  1  0
  2 38  1  0
  1 39  1  0
  1 40  1  0
  1 41  1  0
 19 11  1  0
 32 27  1  0
M  CHG  1   9   1
M  END
>  <plip>  (1) 
-0.034482758620689655

>  <filename>  (1) 
[H][c]1[n][c]([C]([H])([H])[N+]([H])([H])[C]([H])([H])[C]([H])([c]2[c]([H])[n][c]([H])[c]([H])[c]2[H])[C]([H])([C]([H])([H])[H])[C]([H])([H])[H])[c]([C]([F])([F])[F])[o]1

$$$$
