
     RDKit          3D

 25 26  0  0  0  0  0  0  0  0999 V2000
    4.9116    1.7774   16.9993 H   0  0  0  0  0  0  0  0  0  0  0  0
    5.4023    1.2916   17.8422 C   0  0  0  0  0  0  0  0  0  0  0  0
    6.5701    0.6743   17.5893 N   0  0  0  0  0  0  0  0  0  0  0  0
    7.1846    0.0539   18.6073 C   0  0  0  0  0  0  0  0  0  0  0  0
    8.1287   -0.4386   18.3877 H   0  0  0  0  0  0  0  0  0  0  0  0
    6.6652    0.0245   19.9176 C   0  0  0  0  0  0  0  0  0  0  0  0
    7.3625   -0.6928   20.8981 O   0  0  0  0  0  0  0  0  0  0  0  0
    7.3609   -0.2946   22.2066 C   0  0  0  0  0  0  0  0  0  0  0  0
    6.9967    0.7877   22.5968 O   0  0  0  0  0  0  0  0  0  0  0  0
    7.9006   -1.4389   23.1357 C   0  0  0  0  0  0  0  0  0  0  0  0
    8.0303   -2.5818   22.7559 O   0  0  0  0  0  0  0  0  0  0  0  0
    8.2019   -1.0501   24.5742 C   0  0  0  0  0  0  0  0  0  0  0  0
    8.7442    0.1913   24.9482 C   0  0  0  0  0  0  0  0  0  0  0  0
    8.9575    0.9657   24.2167 H   0  0  0  0  0  0  0  0  0  0  0  0
    9.0261    0.4228   26.3021 C   0  0  0  0  0  0  0  0  0  0  0  0
    9.4431    1.3815   26.5962 H   0  0  0  0  0  0  0  0  0  0  0  0
    8.8105   -0.4710   27.2786 N   0  0  0  0  0  0  0  0  0  0  0  0
    8.2968   -1.6532   26.9138 C   0  0  0  0  0  0  0  0  0  0  0  0
    8.1312   -2.3837   27.7009 H   0  0  0  0  0  0  0  0  0  0  0  0
    7.9765   -1.9881   25.5957 C   0  0  0  0  0  0  0  0  0  0  0  0
    7.5753   -2.9697   25.3656 H   0  0  0  0  0  0  0  0  0  0  0  0
    5.4428    0.6495   20.1714 C   0  0  0  0  0  0  0  0  0  0  0  0
    5.0109    0.6318   21.1705 H   0  0  0  0  0  0  0  0  0  0  0  0
    4.8075    1.3030   19.1080 C   0  0  0  0  0  0  0  0  0  0  0  0
    3.8764    1.8405   19.2650 H   0  0  0  0  0  0  0  0  0  0  0  0
  1  2  1  0
  2  3  2  0
  3  4  1  0
  4  5  1  0
  4  6  2  0
  6  7  1  0
  7  8  1  0
  8  9  2  0
  8 10  1  0
 10 11  2  0
 10 12  1  0
 12 13  2  0
 13 14  1  0
 13 15  1  0
 15 16  1  0
 15 17  2  0
 17 18  1  0
 18 19  1  0
 18 20  2  0
 20 21  1  0
  6 22  1  0
 22 23  1  0
 22 24  2  0
 24 25  1  0
 24  2  1  0
 20 12  1  0
M  END
>  <plip>  (1) 
-0.0

>  <filename>  (1) 
[H][c]1[n][c]([H])[c]([O][C](=[O])[C](=[O])[c]2[c]([H])[c]([H])[n][c]([H])[c]2[H])[c]([H])[c]1[H]

$$$$
