
     RDKit          3D

 25 26  0  0  0  0  0  0  0  0999 V2000
   11.9550   -2.2385   21.4959 H   0  0  0  0  0  0  0  0  0  0  0  0
   11.3776   -1.6221   22.1798 C   0  0  0  0  0  0  0  0  0  0  0  0
   12.0440   -0.7158   22.8963 N   0  0  0  0  0  0  0  0  0  0  0  0
   11.3302   -0.0335   23.8005 C   0  0  0  0  0  0  0  0  0  0  0  0
   11.8869    0.6968   24.3886 H   0  0  0  0  0  0  0  0  0  0  0  0
    9.9728   -0.2384   23.9842 C   0  0  0  0  0  0  0  0  0  0  0  0
    9.3816    0.2620   24.7404 H   0  0  0  0  0  0  0  0  0  0  0  0
    9.3783   -1.1587   23.1306 C   0  0  0  0  0  0  0  0  0  0  0  0
    7.9163   -1.4066   23.1300 C   0  0  0  0  0  0  0  0  0  0  0  0
    7.7156   -2.3979   22.7273 H   0  0  0  0  0  0  0  0  0  0  0  0
    7.4649   -1.2768   24.1123 H   0  0  0  0  0  0  0  0  0  0  0  0
    7.4032   -0.3149   22.2470 C   0  0  0  0  0  0  0  0  0  0  0  0
    7.1197    0.7844   22.6373 O   0  0  0  0  0  0  0  0  0  0  0  0
    7.3992   -0.7141   20.9413 O   0  0  0  0  0  0  0  0  0  0  0  0
    6.6969    0.0019   19.9704 C   0  0  0  0  0  0  0  0  0  0  0  0
    7.2217    0.0023   18.6643 C   0  0  0  0  0  0  0  0  0  0  0  0
    8.1654   -0.5034   18.4670 H   0  0  0  0  0  0  0  0  0  0  0  0
    6.6224    0.6182   17.6377 N   0  0  0  0  0  0  0  0  0  0  0  0
    5.4606    1.2526   17.8787 C   0  0  0  0  0  0  0  0  0  0  0  0
    5.0060    1.7631   17.0313 H   0  0  0  0  0  0  0  0  0  0  0  0
    4.8461    1.2684   19.1363 C   0  0  0  0  0  0  0  0  0  0  0  0
    3.8992    1.7885   19.2655 H   0  0  0  0  0  0  0  0  0  0  0  0
    5.4792    0.6424   20.2192 C   0  0  0  0  0  0  0  0  0  0  0  0
    5.0559    0.6656   21.2236 H   0  0  0  0  0  0  0  0  0  0  0  0
   10.0673   -1.8472   22.2281 N   0  0  0  0  0  0  0  0  0  0  0  0
  1  2  1  0
  2  3  2  0
  3  4  1  0
  4  5  1  0
  4  6  2  0
  6  7  1  0
  6  8  1  0
  8  9  1  0
  9 10  1  0
  9 11  1  0
  9 12  1  0
 12 13  2  0
 12 14  1  0
 14 15  1  0
 15 16  2  0
 16 17  1  0
 16 18  1  0
 18 19  2  0
 19 20  1  0
 19 21  1  0
 21 22  1  0
 21 23  2  0
 23 24  1  0
  8 25  2  0
 25  2  1  0
 23 15  1  0
M  END
>  <plip>  (1) 
-0.0

>  <filename>  (1) 
[H][c]1[n][c]([H])[c]([H])[c]([C]([H])([H])[C](=[O])[O][c]2[c]([H])[n][c]([H])[c]([H])[c]2[H])[n]1

$$$$
