
     RDKit          3D

 26 28  0  0  0  0  0  0  0  0999 V2000
    4.9119    1.7909   16.9847 H   0  0  0  0  0  0  0  0  0  0  0  0
    5.3926    1.3004   17.8239 C   0  0  0  0  0  0  0  0  0  0  0  0
    6.5580    0.6887   17.5540 N   0  0  0  0  0  0  0  0  0  0  0  0
    7.1637    0.0642   18.5709 C   0  0  0  0  0  0  0  0  0  0  0  0
    8.1202   -0.4054   18.3425 H   0  0  0  0  0  0  0  0  0  0  0  0
    6.6515    0.0021   19.8788 C   0  0  0  0  0  0  0  0  0  0  0  0
    7.3526   -0.6764   20.9811 C   0  0  0  0  0  0  0  0  0  0  0  0
    7.2776   -0.4592   22.3307 C   0  0  0  0  0  0  0  0  0  0  0  0
    6.6822    0.2961   22.8106 H   0  0  0  0  0  0  0  0  0  0  0  0
    8.1451   -1.3929   22.9236 C   0  0  0  0  0  0  0  0  0  0  0  0
    8.3907   -1.5358   24.3034 N   0  0  0  0  0  0  0  0  0  0  0  0
    7.8162   -0.7797   25.3217 C   0  0  0  0  0  0  0  0  0  0  0  0
    7.1028    0.0118   25.1243 H   0  0  0  0  0  0  0  0  0  0  0  0
    8.3066   -1.2308   26.5104 C   0  0  0  0  0  0  0  0  0  0  0  0
    8.0622   -0.8436   27.4921 H   0  0  0  0  0  0  0  0  0  0  0  0
    9.2061   -2.3022   26.2240 C   0  0  0  0  0  0  0  0  0  0  0  0
    9.7654   -2.8821   26.9457 H   0  0  0  0  0  0  0  0  0  0  0  0
    9.2467   -2.4643   24.8706 C   0  0  0  0  0  0  0  0  0  0  0  0
    9.8048   -3.1526   24.2447 H   0  0  0  0  0  0  0  0  0  0  0  0
    8.7288   -2.1566   21.9970 N   0  0  0  0  0  0  0  0  0  0  0  0
    8.2414   -1.6874   20.8316 N   0  0  0  0  0  0  0  0  0  0  0  0
    8.4928   -2.1276   19.9582 H   0  0  0  0  0  0  0  0  0  0  0  0
    5.4341    0.6570   20.1375 C   0  0  0  0  0  0  0  0  0  0  0  0
    5.0099    0.6289   21.1465 H   0  0  0  0  0  0  0  0  0  0  0  0
    4.7972    1.3177   19.0902 C   0  0  0  0  0  0  0  0  0  0  0  0
    3.8681    1.8483   19.2510 H   0  0  0  0  0  0  0  0  0  0  0  0
  1  2  1  0
  2  3  2  0
  3  4  1  0
  4  5  1  0
  4  6  2  0
  6  7  1  0
  7  8  2  0
  8  9  1  0
  8 10  1  0
 10 11  1  0
 11 12  1  0
 12 13  1  0
 12 14  2  0
 14 15  1  0
 14 16  1  0
 16 17  1  0
 16 18  2  0
 18 19  1  0
 10 20  2  0
 20 21  1  0
 21 22  1  0
  6 23  1  0
 23 24  1  0
 23 25  2  0
 25 26  1  0
 25  2  1  0
 21  7  1  0
 18 11  1  0
M  END
>  <plip>  (1) 
-0.03225806451612903

>  <filename>  (1) 
[H][c]1[n][c]([H])[c](-[c]2[c]([H])[c](-[n]3[c]([H])[c]([H])[c]([H])[c]3[H])[n][n]2[H])[c]([H])[c]1[H]

$$$$
