
     RDKit          3D

 21 22  0  0  0  0  0  0  0  0999 V2000
    4.9232    1.7834   16.9926 H   0  0  0  0  0  0  0  0  0  0  0  0
    5.4006    1.2919   17.8368 C   0  0  0  0  0  0  0  0  0  0  0  0
    6.5662    0.6766   17.5785 N   0  0  0  0  0  0  0  0  0  0  0  0
    7.1701    0.0537   18.5971 C   0  0  0  0  0  0  0  0  0  0  0  0
    8.1195   -0.4289   18.3755 H   0  0  0  0  0  0  0  0  0  0  0  0
    6.6370   -0.0037   19.8930 C   0  0  0  0  0  0  0  0  0  0  0  0
    7.5959   -0.7674   21.1869 S   0  0  0  0  0  0  0  0  0  0  0  0
    8.4878    0.5707   21.6735 N   0  0  0  0  0  0  0  0  0  0  0  0
    9.3101    0.7759   21.1309 H   0  0  0  0  0  0  0  0  0  0  0  0
    8.1204    1.5115   22.6168 C   0  0  0  0  0  0  0  0  0  0  0  0
    6.7066    1.2891   23.5972 S   0  0  0  0  0  0  0  0  0  0  0  0
    7.0474    2.7614   24.4485 C   0  0  0  0  0  0  0  0  0  0  0  0
    6.3929    3.0890   25.2432 H   0  0  0  0  0  0  0  0  0  0  0  0
    8.1711    3.3748   23.9918 C   0  0  0  0  0  0  0  0  0  0  0  0
    8.5534    4.3073   24.3923 H   0  0  0  0  0  0  0  0  0  0  0  0
    8.7966    2.6606   22.9276 C   0  0  0  0  0  0  0  0  0  0  0  0
    9.6986    2.9608   22.4037 H   0  0  0  0  0  0  0  0  0  0  0  0
    5.4251    0.6386   20.1604 C   0  0  0  0  0  0  0  0  0  0  0  0
    5.0035    0.6330   21.1669 H   0  0  0  0  0  0  0  0  0  0  0  0
    4.7994    1.3066   19.1029 C   0  0  0  0  0  0  0  0  0  0  0  0
    3.8713    1.8464   19.2548 H   0  0  0  0  0  0  0  0  0  0  0  0
  1  2  1  0
  2  3  2  0
  3  4  1  0
  4  5  1  0
  4  6  2  0
  6  7  1  0
  7  8  1  0
  8  9  1  0
  8 10  1  0
 10 11  1  0
 11 12  1  0
 12 13  1  0
 12 14  2  0
 14 15  1  0
 14 16  1  0
 16 17  1  0
  6 18  1  0
 18 19  1  0
 18 20  2  0
 20 21  1  0
 20  2  1  0
 16 10  2  0
M  END
>  <plip>  (1) 
-0.03571428571428571

>  <filename>  (1) 
[H][c]1[n][c]([H])[c]([S][N]([H])[c]2[s][c]([H])[c]([H])[c]2[H])[c]([H])[c]1[H]

$$$$
