
     RDKit          3D

 42 45  0  0  0  0  0  0  0  0999 V2000
    4.9704    1.7900   16.9923 H   0  0  0  0  0  0  0  0  0  0  0  0
    5.4450    1.2793   17.8300 C   0  0  0  0  0  0  0  0  0  0  0  0
    6.6090    0.6571   17.5825 N   0  0  0  0  0  0  0  0  0  0  0  0
    7.2183    0.0476   18.6090 C   0  0  0  0  0  0  0  0  0  0  0  0
    8.1548   -0.4484   18.3694 H   0  0  0  0  0  0  0  0  0  0  0  0
    6.7337    0.0026   19.9529 C   0  0  0  0  0  0  0  0  0  0  0  0
    7.4131   -0.6111   20.9867 N   0  0  0  0  0  0  0  0  0  0  0  0
    8.7209   -1.2322   20.8236 C   0  0  0  0  0  0  0  0  0  0  0  0
    8.6789   -1.9580   20.0195 H   0  0  0  0  0  0  0  0  0  0  0  0
    9.4847   -0.4876   20.5496 H   0  0  0  0  0  0  0  0  0  0  0  0
    9.0186   -1.8929   22.1611 C   0  0  1  0  0  0  0  0  0  0  0  0
    9.5539   -2.8355   22.1749 H   0  0  0  0  0  0  0  0  0  0  0  0
    9.2658   -0.9308   23.2933 C   0  0  1  0  0  0  0  0  0  0  0  0
    9.8501   -1.3388   24.1243 H   0  0  0  0  0  0  0  0  0  0  0  0
    9.4192    0.4349   22.9316 N   0  0  0  0  0  0  0  0  0  0  0  0
    8.9744    1.0554   23.5966 H   0  0  0  0  0  0  0  0  0  0  0  0
   10.7581    0.8727   22.5892 C   0  0  0  0  0  0  0  0  0  0  0  0
   11.2283    0.0890   21.9673 H   0  0  0  0  0  0  0  0  0  0  0  0
   11.6657    1.0990   23.8139 C   0  0  0  0  0  0  0  0  0  0  0  0
   11.7401    0.1772   24.4056 H   0  0  0  0  0  0  0  0  0  0  0  0
   11.1907    1.8529   24.4644 H   0  0  0  0  0  0  0  0  0  0  0  0
   13.0540    1.6062   23.4000 C   0  0  0  0  0  0  0  0  0  0  0  0
   13.6646    1.7762   24.2926 H   0  0  0  0  0  0  0  0  0  0  0  0
   13.5774    0.8384   22.8048 H   0  0  0  0  0  0  0  0  0  0  0  0
   12.9133    2.8950   22.5723 C   0  0  0  0  0  0  0  0  0  0  0  0
   12.4856    3.6833   23.2105 H   0  0  0  0  0  0  0  0  0  0  0  0
   13.8946    3.2507   22.2426 H   0  0  0  0  0  0  0  0  0  0  0  0
   12.0086    2.6741   21.3491 C   0  0  0  0  0  0  0  0  0  0  0  0
   12.4780    1.9111   20.7229 H   0  0  0  0  0  0  0  0  0  0  0  0
   11.9294    3.5844   20.7447 H   0  0  0  0  0  0  0  0  0  0  0  0
   10.6307    2.1370   21.7370 C   0  0  0  0  0  0  0  0  0  0  0  0
   10.0646    2.8835   22.3138 H   0  0  0  0  0  0  0  0  0  0  0  0
   10.0291    1.8861   20.8517 H   0  0  0  0  0  0  0  0  0  0  0  0
    7.9083   -1.5387   23.1043 C   0  0  1  0  0  0  0  0  0  0  0  0
    7.5508   -2.1759   23.9029 H   0  0  0  0  0  0  0  0  0  0  0  0
    6.8729   -0.7461   22.3319 C   0  0  0  0  0  0  0  0  0  0  0  0
    5.9334   -1.3049   22.2789 H   0  0  0  0  0  0  0  0  0  0  0  0
    6.6802    0.2357   22.7901 H   0  0  0  0  0  0  0  0  0  0  0  0
    5.4906    0.6400   20.1666 C   0  0  0  0  0  0  0  0  0  0  0  0
    5.0566    0.6309   21.1634 H   0  0  0  0  0  0  0  0  0  0  0  0
    4.8579    1.2794   19.0999 C   0  0  0  0  0  0  0  0  0  0  0  0
    3.9142    1.7884   19.2508 H   0  0  0  0  0  0  0  0  0  0  0  0
  1  2  1  0
  2  3  2  0
  3  4  1  0
  4  5  1  0
  4  6  2  0
  6  7  1  0
  7  8  1  0
  8  9  1  0
  8 10  1  0
  8 11  1  0
 11 12  1  6
 11 13  1  0
 13 14  1  1
 13 15  1  0
 15 16  1  0
 15 17  1  0
 17 18  1  0
 17 19  1  0
 19 20  1  0
 19 21  1  0
 19 22  1  0
 22 23  1  0
 22 24  1  0
 22 25  1  0
 25 26  1  0
 25 27  1  0
 25 28  1  0
 28 29  1  0
 28 30  1  0
 28 31  1  0
 31 32  1  0
 31 33  1  0
 13 34  1  0
 34 35  1  1
 34 36  1  0
 36 37  1  0
 36 38  1  0
  6 39  1  0
 39 40  1  0
 39 41  2  0
 41 42  1  0
 41  2  1  0
 36  7  1  0
 34 11  1  0
 31 17  1  0
M  END
>  <plip>  (1) 
-0.10714285714285714

>  <filename>  (1) 
[H][c]1[n][c]([H])[c]([N]2[C]([H])([H])[C@@]3([H])[C@@]([H])([N]([H])[C]4([H])[C]([H])([H])[C]([H])([H])[C]([H])([H])[C]([H])([H])[C]4([H])[H])[C@@]3([H])[C]2([H])[H])[c]([H])[c]1[H]

$$$$
