
     RDKit          3D

 37 39  0  0  0  0  0  0  0  0999 V2000
    8.6394   -0.9698   27.0888 C   0  0  0  0  0  0  0  0  0  0  0  0
    7.5944   -1.9903   26.6022 C   0  0  1  0  0  0  0  0  0  0  0  0
    7.1850   -1.8496   25.1263 C   0  0  0  0  0  0  0  0  0  0  0  0
    6.0198   -1.7141   24.8072 O   0  0  0  0  0  0  0  0  0  0  0  0
    8.1999   -1.8882   24.2057 N   0  0  0  0  0  0  0  0  0  0  0  0
    8.0265   -1.5462   22.8789 C   0  0  0  0  0  0  0  0  0  0  0  0
    8.9224   -1.9033   21.9998 N   0  0  0  0  0  0  0  0  0  0  0  0
    8.4686   -1.3616   20.7952 O   0  0  0  0  0  0  0  0  0  0  0  0
    7.3264   -0.6887   21.0206 C   0  0  0  0  0  0  0  0  0  0  0  0
    6.6616   -0.0121   19.9059 C   0  0  0  0  0  0  0  0  0  0  0  0
    5.4476    0.6478   20.1312 C   0  0  0  0  0  0  0  0  0  0  0  0
    4.8368    1.2983   19.0626 C   0  0  0  0  0  0  0  0  0  0  0  0
    5.4662    1.2729   17.8122 C   0  0  0  0  0  0  0  0  0  0  0  0
    6.6254    0.6386   17.5795 N   0  0  0  0  0  0  0  0  0  0  0  0
    7.2083    0.0134   18.6093 C   0  0  0  0  0  0  0  0  0  0  0  0
    8.1507   -0.4862   18.3946 H   0  0  0  0  0  0  0  0  0  0  0  0
    5.0187    1.7850   16.9606 H   0  0  0  0  0  0  0  0  0  0  0  0
    3.9023    1.8293   19.1895 H   0  0  0  0  0  0  0  0  0  0  0  0
    5.0001    0.6568   21.1267 H   0  0  0  0  0  0  0  0  0  0  0  0
    6.9854   -0.7762   22.3301 C   0  0  0  0  0  0  0  0  0  0  0  0
    6.1490   -0.4093   22.8945 H   0  0  0  0  0  0  0  0  0  0  0  0
    9.0225   -2.4314   24.4019 H   0  0  0  0  0  0  0  0  0  0  0  0
    7.9318   -3.4431   26.8754 C   0  0  0  0  0  0  0  0  0  0  0  0
    6.8859   -4.3083   27.2337 C   0  0  0  0  0  0  0  0  0  0  0  0
    7.1166   -5.6731   27.4166 C   0  0  0  0  0  0  0  0  0  0  0  0
    8.4062   -6.1731   27.2360 C   0  0  0  0  0  0  0  0  0  0  0  0
    9.4662   -5.3221   26.9175 C   0  0  0  0  0  0  0  0  0  0  0  0
    9.2255   -3.9576   26.7242 C   0  0  0  0  0  0  0  0  0  0  0  0
   10.0516   -3.3004   26.4688 H   0  0  0  0  0  0  0  0  0  0  0  0
   10.4738   -5.7200   26.8309 H   0  0  0  0  0  0  0  0  0  0  0  0
    8.5890   -7.2281   27.3459 H   0  0  0  0  0  0  0  0  0  0  0  0
    6.3069   -6.3407   27.7076 H   0  0  0  0  0  0  0  0  0  0  0  0
    5.8828   -3.9112   27.3802 H   0  0  0  0  0  0  0  0  0  0  0  0
    6.6714   -1.7603   27.1382 H   0  0  0  0  0  0  0  0  0  0  0  0
    9.5513   -0.9950   26.4884 H   0  0  0  0  0  0  0  0  0  0  0  0
    8.2299    0.0446   27.0263 H   0  0  0  0  0  0  0  0  0  0  0  0
    8.9052   -1.1749   28.1306 H   0  0  0  0  0  0  0  0  0  0  0  0
  1  2  1  0
  2  3  1  0
  3  4  2  0
  3  5  1  0
  5  6  1  0
  6  7  2  0
  7  8  1  0
  8  9  1  0
  9 10  1  0
 10 11  2  0
 11 12  1  0
 12 13  2  0
 13 14  1  0
 14 15  2  0
 15 16  1  0
 13 17  1  0
 12 18  1  0
 11 19  1  0
  9 20  2  0
 20 21  1  0
  5 22  1  0
  2 23  1  0
 23 24  2  0
 24 25  1  0
 25 26  2  0
 26 27  1  0
 27 28  2  0
 28 29  1  0
 27 30  1  0
 26 31  1  0
 25 32  1  0
 24 33  1  0
  2 34  1  1
  1 35  1  0
  1 36  1  0
  1 37  1  0
 20  6  1  0
 28 23  1  0
 15 10  1  0
M  END
>  <plip>  (1) 
-0.07142857142857142

>  <filename>  (1) 
[H][c]1[n][c]([H])[c](-[c]2[o][n][c]([N]([H])[C](=[O])[C@@]([H])([c]3[c]([H])[c]([H])[c]([H])[c]([H])[c]3[H])[C]([H])([H])[H])[c]2[H])[c]([H])[c]1[H]

$$$$
