
     RDKit          3D

 39 41  0  0  0  0  0  0  0  0999 V2000
    4.9296    1.8045   16.9806 H   0  0  0  0  0  0  0  0  0  0  0  0
    5.3952    1.2974   17.8251 C   0  0  0  0  0  0  0  0  0  0  0  0
    6.5531    0.6716   17.5700 N   0  0  0  0  0  0  0  0  0  0  0  0
    7.1562    0.0526   18.5934 C   0  0  0  0  0  0  0  0  0  0  0  0
    8.1094   -0.4187   18.3476 H   0  0  0  0  0  0  0  0  0  0  0  0
    6.6529   -0.0185   19.9105 C   0  0  0  0  0  0  0  0  0  0  0  0
    7.3700   -0.7820   21.0051 C   0  0  0  0  0  0  0  0  0  0  0  0
    6.6202   -1.1946   21.6932 H   0  0  0  0  0  0  0  0  0  0  0  0
    7.9032   -1.6361   20.5668 H   0  0  0  0  0  0  0  0  0  0  0  0
    8.3782    0.0599   21.8297 C   0  0  1  0  0  0  0  0  0  0  0  0
    9.2954   -1.0717   22.9851 S   0  0  0  0  0  0  0  0  0  0  0  0
   10.1692   -0.2951   23.8535 O   0  0  0  0  0  0  0  0  0  0  0  0
    9.8294   -2.1419   22.1458 O   0  0  0  0  0  0  0  0  0  0  0  0
    8.0384   -1.8072   24.0432 C   0  0  0  0  0  0  0  0  0  0  0  0
    7.3837   -2.9821   23.6451 C   0  0  0  0  0  0  0  0  0  0  0  0
    7.5920   -3.4581   22.6865 H   0  0  0  0  0  0  0  0  0  0  0  0
    6.4476   -3.5667   24.4983 C   0  0  0  0  0  0  0  0  0  0  0  0
    5.9294   -4.4772   24.2300 H   0  0  0  0  0  0  0  0  0  0  0  0
    6.1770   -2.9798   25.7333 C   0  0  0  0  0  0  0  0  0  0  0  0
    5.0201   -3.7185   26.7983 Cl  0  0  0  0  0  0  0  0  0  0  0  0
    6.8280   -1.8141   26.1319 C   0  0  0  0  0  0  0  0  0  0  0  0
    6.6019   -1.3912   27.1016 H   0  0  0  0  0  0  0  0  0  0  0  0
    7.7652   -1.2210   25.2870 C   0  0  0  0  0  0  0  0  0  0  0  0
    8.2826   -0.3241   25.6280 H   0  0  0  0  0  0  0  0  0  0  0  0
    9.4675    0.7146   20.9778 C   0  0  0  0  0  0  0  0  0  0  0  0
   10.2797    0.0259   20.7084 H   0  0  0  0  0  0  0  0  0  0  0  0
    9.0131    1.0558   20.0344 H   0  0  0  0  0  0  0  0  0  0  0  0
    9.9460    1.8085   21.8003 N   0  0  0  0  0  0  0  0  0  0  0  0
   10.3048    2.5776   21.2472 H   0  0  0  0  0  0  0  0  0  0  0  0
    8.9309    2.2700   22.7523 C   0  0  0  0  0  0  0  0  0  0  0  0
    9.3481    2.2776   23.7672 H   0  0  0  0  0  0  0  0  0  0  0  0
    8.5934    3.2971   22.5435 H   0  0  0  0  0  0  0  0  0  0  0  0
    7.7798    1.2541   22.6049 C   0  0  0  0  0  0  0  0  0  0  0  0
    6.9882    1.6911   21.9903 H   0  0  0  0  0  0  0  0  0  0  0  0
    7.3334    0.9635   23.5611 H   0  0  0  0  0  0  0  0  0  0  0  0
    5.4361    0.6429   20.1427 C   0  0  0  0  0  0  0  0  0  0  0  0
    4.9949    0.6380   21.1424 H   0  0  0  0  0  0  0  0  0  0  0  0
    4.8005    1.3097   19.0895 C   0  0  0  0  0  0  0  0  0  0  0  0
    3.8710    1.8463   19.2385 H   0  0  0  0  0  0  0  0  0  0  0  0
  1  2  1  0
  2  3  2  0
  3  4  1  0
  4  5  1  0
  4  6  2  0
  6  7  1  0
  7  8  1  0
  7  9  1  0
 10  7  1  6
 10 11  1  0
 11 12  2  0
 11 13  2  0
 11 14  1  0
 14 15  2  0
 15 16  1  0
 15 17  1  0
 17 18  1  0
 17 19  2  0
 19 20  1  0
 19 21  1  0
 21 22  1  0
 21 23  2  0
 23 24  1  0
 10 25  1  0
 25 26  1  0
 25 27  1  0
 25 28  1  0
 28 29  1  0
 28 30  1  0
 30 31  1  0
 30 32  1  0
 30 33  1  0
 33 34  1  0
 33 35  1  0
  6 36  1  0
 36 37  1  0
 36 38  2  0
 38 39  1  0
 38  2  1  0
 33 10  1  0
 23 14  1  0
M  END
>  <plip>  (1) 
-0.07142857142857142

>  <filename>  (1) 
[H][c]1[n][c]([H])[c]([C]([H])([H])[C@@]2([S](=[O])(=[O])[c]3[c]([H])[c]([H])[c]([Cl])[c]([H])[c]3[H])[C]([H])([H])[N]([H])[C]([H])([H])[C]2([H])[H])[c]([H])[c]1[H]

$$$$
