
     RDKit          3D

 27 28  0  0  0  0  0  0  0  0999 V2000
    6.4407   -5.6032   22.4475 H   0  0  0  0  0  0  0  0  0  0  0  0
    7.0857   -4.8344   22.8661 C   0  0  0  0  0  0  0  0  0  0  0  0
    6.6052   -4.0089   23.3907 H   0  0  0  0  0  0  0  0  0  0  0  0
    8.4089   -4.8943   22.7717 C   0  0  0  0  0  0  0  0  0  0  0  0
    8.8759   -5.7262   22.2430 H   0  0  0  0  0  0  0  0  0  0  0  0
    9.3262   -3.8665   23.3828 C   0  0  0  0  0  0  0  0  0  0  0  0
    8.8465   -3.3655   24.2337 H   0  0  0  0  0  0  0  0  0  0  0  0
   10.2637   -4.3116   23.7170 H   0  0  0  0  0  0  0  0  0  0  0  0
    9.7655   -2.8403   22.4554 O   0  0  0  0  0  0  0  0  0  0  0  0
    8.7757   -1.9215   22.1923 N   0  0  0  0  0  0  0  0  0  0  0  0
    8.4364   -1.6014   20.8946 C   0  0  0  0  0  0  0  0  0  0  0  0
    8.9863   -2.0520   20.0868 H   0  0  0  0  0  0  0  0  0  0  0  0
    7.4379   -0.6807   20.9683 C   0  0  0  0  0  0  0  0  0  0  0  0
    6.6487    0.0031   19.9389 C   0  0  0  0  0  0  0  0  0  0  0  0
    7.1664    0.0430   18.6346 C   0  0  0  0  0  0  0  0  0  0  0  0
    8.1123   -0.4543   18.4379 H   0  0  0  0  0  0  0  0  0  0  0  0
    6.5931    0.6638   17.5975 N   0  0  0  0  0  0  0  0  0  0  0  0
    5.4324    1.2956   17.8298 C   0  0  0  0  0  0  0  0  0  0  0  0
    4.9872    1.8136   16.9802 H   0  0  0  0  0  0  0  0  0  0  0  0
    4.8038    1.3031   19.0826 C   0  0  0  0  0  0  0  0  0  0  0  0
    3.8721    1.8442   19.2064 H   0  0  0  0  0  0  0  0  0  0  0  0
    5.4116    0.6476   20.1552 C   0  0  0  0  0  0  0  0  0  0  0  0
    4.9303    0.6426   21.1375 H   0  0  0  0  0  0  0  0  0  0  0  0
    7.2375   -0.4488   22.3153 N   0  0  0  0  0  0  0  0  0  0  0  0
    6.7288    0.3126   22.7307 H   0  0  0  0  0  0  0  0  0  0  0  0
    8.0822   -1.1691   23.0975 C   0  0  0  0  0  0  0  0  0  0  0  0
    8.1576   -1.0420   24.7686 S   0  0  0  0  0  0  0  0  0  0  0  0
  1  2  1  0
  2  3  1  0
  2  4  2  3
  4  5  1  0
  4  6  1  0
  6  7  1  0
  6  8  1  0
  6  9  1  0
  9 10  1  0
 10 11  1  0
 11 12  1  0
 11 13  2  0
 13 14  1  0
 14 15  2  0
 15 16  1  0
 15 17  1  0
 17 18  2  0
 18 19  1  0
 18 20  1  0
 20 21  1  0
 20 22  2  0
 22 23  1  0
 13 24  1  0
 24 25  1  0
 24 26  1  0
 26 27  2  0
 26 10  1  0
 22 14  1  0
M  END
>  <plip>  (1) 
-0.0

>  <filename>  (1) 
[H][C]([H])=[C]([H])[C]([H])([H])[O][n]1[c]([H])[c](-[c]2[c]([H])[n][c]([H])[c]([H])[c]2[H])[n]([H])[c]1=[S]

$$$$
