
     RDKit          3D

 34 36  0  0  0  0  0  0  0  0999 V2000
    6.4308   -2.6768   24.5773 O   0  0  0  0  0  0  0  0  0  0  0  0
    7.5611   -2.5878   24.1203 C   0  0  0  0  0  0  0  0  0  0  0  0
    8.7623   -3.2652   24.8091 C   0  0  0  0  0  0  0  0  0  0  0  0
    8.5911   -3.3878   26.3442 C   0  0  0  0  0  0  0  0  0  0  0  0
    7.9330   -4.7641   26.5455 C   0  0  0  0  0  0  0  0  0  0  0  0
    8.0584   -5.4591   25.3189 O   0  0  0  0  0  0  0  0  0  0  0  0
    8.8485   -4.7469   24.3915 C   0  0  0  0  0  0  0  0  0  0  0  0
    8.4339   -4.9761   23.4018 H   0  0  0  0  0  0  0  0  0  0  0  0
    9.8976   -5.0978   24.4015 H   0  0  0  0  0  0  0  0  0  0  0  0
    6.8611   -4.6856   26.7718 H   0  0  0  0  0  0  0  0  0  0  0  0
    8.3977   -5.3307   27.3725 H   0  0  0  0  0  0  0  0  0  0  0  0
    9.5687   -3.3540   26.8411 H   0  0  0  0  0  0  0  0  0  0  0  0
    7.9798   -2.5911   26.7778 H   0  0  0  0  0  0  0  0  0  0  0  0
    9.6772   -2.7269   24.5416 H   0  0  0  0  0  0  0  0  0  0  0  0
    7.7938   -1.9092   22.9510 N   0  0  0  0  0  0  0  0  0  0  0  0
    9.0645   -1.7620   22.2439 C   0  0  0  0  0  0  0  0  0  0  0  0
    8.6704   -1.0081   21.0140 C   0  0  0  0  0  0  0  0  0  0  0  0
    7.3733   -0.7137   20.9844 C   0  0  0  0  0  0  0  0  0  0  0  0
    6.6551    0.0054   19.9164 C   0  0  0  0  0  0  0  0  0  0  0  0
    5.4297    0.6508   20.1568 C   0  0  0  0  0  0  0  0  0  0  0  0
    4.8034    1.3113   19.0996 C   0  0  0  0  0  0  0  0  0  0  0  0
    5.3991    1.2942   17.8342 C   0  0  0  0  0  0  0  0  0  0  0  0
    6.5618    0.6776   17.5778 N   0  0  0  0  0  0  0  0  0  0  0  0
    7.1680    0.0675   18.6007 C   0  0  0  0  0  0  0  0  0  0  0  0
    8.1059   -0.4231   18.3631 H   0  0  0  0  0  0  0  0  0  0  0  0
    4.9203    1.7861   16.9895 H   0  0  0  0  0  0  0  0  0  0  0  0
    3.8729    1.8445   19.2513 H   0  0  0  0  0  0  0  0  0  0  0  0
    4.9915    0.6435   21.1558 H   0  0  0  0  0  0  0  0  0  0  0  0
    6.6952   -1.2387   22.2386 C   0  0  0  0  0  0  0  0  0  0  0  0
    6.2427   -0.4327   22.8350 H   0  0  0  0  0  0  0  0  0  0  0  0
    5.8775   -1.9302   21.9972 H   0  0  0  0  0  0  0  0  0  0  0  0
    9.3940   -0.7070   20.2681 H   0  0  0  0  0  0  0  0  0  0  0  0
    9.8098   -1.1983   22.8239 H   0  0  0  0  0  0  0  0  0  0  0  0
    9.5112   -2.7301   21.9806 H   0  0  0  0  0  0  0  0  0  0  0  0
  1  2  2  0
  2  3  1  0
  3  4  1  0
  4  5  1  0
  5  6  1  0
  6  7  1  0
  7  8  1  0
  7  9  1  0
  5 10  1  0
  5 11  1  0
  4 12  1  0
  4 13  1  0
  3 14  1  0
  2 15  1  0
 15 16  1  0
 16 17  1  0
 17 18  2  0
 18 19  1  0
 19 20  2  0
 20 21  1  0
 21 22  2  0
 22 23  1  0
 23 24  2  0
 24 25  1  0
 22 26  1  0
 21 27  1  0
 20 28  1  0
 18 29  1  0
 29 30  1  0
 29 31  1  0
 17 32  1  0
 16 33  1  0
 16 34  1  0
  7  3  1  0
 29 15  1  0
 24 19  1  0
M  END
>  <plip>  (1) 
-0.03571428571428571

>  <filename>  (1) 
[H][C]1=[C]([c]2[c]([H])[n][c]([H])[c]([H])[c]2[H])[C]([H])([H])[N]([C](=[O])[C]2([H])[C]([H])([H])[O][C]([H])([H])[C]2([H])[H])[C]1([H])[H]

$$$$
