
     RDKit          3D

 34 36  0  0  0  0  0  0  0  0999 V2000
   10.0542   -2.2185   21.3557 C   0  0  0  0  0  0  0  0  0  0  0  0
    9.8033   -0.7598   21.4806 C   0  0  0  0  0  0  0  0  0  0  0  0
   10.7372    0.1259   21.6915 N   0  0  0  0  0  0  0  0  0  0  0  0
   10.1238    1.3234   21.9497 N   0  0  0  0  0  0  0  0  0  0  0  0
    8.8325    1.1217   21.9340 C   0  0  0  0  0  0  0  0  0  0  0  0
    7.8181    2.1416   22.3117 C   0  0  0  0  0  0  0  0  0  0  0  0
    7.9978    3.4207   21.7809 C   0  0  0  0  0  0  0  0  0  0  0  0
    7.0802    4.4413   22.0105 C   0  0  0  0  0  0  0  0  0  0  0  0
    5.9588    4.2024   22.8073 C   0  0  0  0  0  0  0  0  0  0  0  0
    5.7837    2.9346   23.3940 C   0  0  0  0  0  0  0  0  0  0  0  0
    4.6302    2.6871   24.2322 C   0  0  0  0  0  0  0  0  0  0  0  0
    3.6892    2.5144   24.8861 N   0  0  0  0  0  0  0  0  0  0  0  0
    6.7322    1.9169   23.1797 C   0  0  0  0  0  0  0  0  0  0  0  0
    6.6324    0.9784   23.7218 H   0  0  0  0  0  0  0  0  0  0  0  0
    5.2380    4.9977   22.9763 H   0  0  0  0  0  0  0  0  0  0  0  0
    7.2324    5.4183   21.5576 H   0  0  0  0  0  0  0  0  0  0  0  0
    8.8450    3.5736   21.1278 H   0  0  0  0  0  0  0  0  0  0  0  0
    8.5650   -0.1743   21.5610 N   0  0  0  0  0  0  0  0  0  0  0  0
    7.2604   -0.6899   21.1587 C   0  0  0  0  0  0  0  0  0  0  0  0
    6.6297    0.0737   20.0101 C   0  0  0  0  0  0  0  0  0  0  0  0
    5.4140    0.7480   20.1682 C   0  0  0  0  0  0  0  0  0  0  0  0
    4.8201    1.3637   19.0629 C   0  0  0  0  0  0  0  0  0  0  0  0
    5.4839    1.3063   17.8338 C   0  0  0  0  0  0  0  0  0  0  0  0
    6.6664    0.6953   17.6647 N   0  0  0  0  0  0  0  0  0  0  0  0
    7.2195    0.1066   18.7343 C   0  0  0  0  0  0  0  0  0  0  0  0
    8.1753   -0.3860   18.5501 H   0  0  0  0  0  0  0  0  0  0  0  0
    5.0424    1.7585   16.9447 H   0  0  0  0  0  0  0  0  0  0  0  0
    3.8679    1.8788   19.1386 H   0  0  0  0  0  0  0  0  0  0  0  0
    4.9575    0.8035   21.1587 H   0  0  0  0  0  0  0  0  0  0  0  0
    6.5866   -0.6711   22.0245 H   0  0  0  0  0  0  0  0  0  0  0  0
    7.3829   -1.7386   20.8750 H   0  0  0  0  0  0  0  0  0  0  0  0
    9.6696   -2.6618   20.4336 H   0  0  0  0  0  0  0  0  0  0  0  0
    9.5947   -2.7316   22.2038 H   0  0  0  0  0  0  0  0  0  0  0  0
   11.1338   -2.3591   21.4132 H   0  0  0  0  0  0  0  0  0  0  0  0
  1  2  1  0
  2  3  2  0
  3  4  1  0
  4  5  2  0
  5  6  1  0
  6  7  2  0
  7  8  1  0
  8  9  2  0
  9 10  1  0
 10 11  1  0
 11 12  3  0
 10 13  2  0
 13 14  1  0
  9 15  1  0
  8 16  1  0
  7 17  1  0
  5 18  1  0
 18 19  1  0
 19 20  1  0
 20 21  2  0
 21 22  1  0
 22 23  2  0
 23 24  1  0
 24 25  2  0
 25 26  1  0
 23 27  1  0
 22 28  1  0
 21 29  1  0
 19 30  1  0
 19 31  1  0
  1 32  1  0
  1 33  1  0
  1 34  1  0
 18  2  1  0
 25 20  1  0
 13  6  1  0
M  END
>  <plip>  (1) 
-0.10714285714285714

>  <filename>  (1) 
[H][c]1[n][c]([H])[c]([C]([H])([H])[n]2[c](-[c]3[c]([H])[c]([H])[c]([H])[c]([C]#[N])[c]3[H])[n][n][c]2[C]([H])([H])[H])[c]([H])[c]1[H]

$$$$
