
     RDKit          3D

 26 26  0  0  0  0  0  0  0  0999 V2000
    4.9612    1.7775   17.0340 H   0  0  0  0  0  0  0  0  0  0  0  0
    5.4253    1.2655   17.8705 C   0  0  0  0  0  0  0  0  0  0  0  0
    6.5881    0.6390   17.6105 N   0  0  0  0  0  0  0  0  0  0  0  0
    7.2019    0.0295   18.6282 C   0  0  0  0  0  0  0  0  0  0  0  0
    8.1517   -0.4580   18.4137 H   0  0  0  0  0  0  0  0  0  0  0  0
    6.6936   -0.0016   19.9498 C   0  0  0  0  0  0  0  0  0  0  0  0
    7.4582   -0.6352   20.8892 O   0  0  0  0  0  0  0  0  0  0  0  0
    6.9212   -0.7584   22.1874 C   0  0  0  0  0  0  0  0  0  0  0  0
    5.9591   -1.2967   22.1547 H   0  0  0  0  0  0  0  0  0  0  0  0
    6.7353    0.2626   22.5824 H   0  0  0  0  0  0  0  0  0  0  0  0
    7.8887   -1.5167   22.9139 N   0  0  0  0  0  0  0  0  0  0  0  0
    8.8075   -1.1246   22.7624 H   0  0  0  0  0  0  0  0  0  0  0  0
    7.5615   -1.9023   24.2728 C   0  0  0  0  0  0  0  0  0  0  0  0
    6.5575   -2.3620   24.2618 H   0  0  0  0  0  0  0  0  0  0  0  0
    8.2478   -2.7031   24.5923 H   0  0  0  0  0  0  0  0  0  0  0  0
    7.5924   -0.7534   25.2927 C   0  0  0  0  0  0  0  0  0  0  0  0
    6.8937    0.0288   24.9643 H   0  0  0  0  0  0  0  0  0  0  0  0
    8.5914   -0.2970   25.2637 H   0  0  0  0  0  0  0  0  0  0  0  0
    7.2545   -1.1823   26.7274 C   0  0  0  0  0  0  0  0  0  0  0  0
    6.2514   -1.6222   26.7962 H   0  0  0  0  0  0  0  0  0  0  0  0
    7.2825   -0.3322   27.4199 H   0  0  0  0  0  0  0  0  0  0  0  0
    7.9634   -1.9313   27.1019 H   0  0  0  0  0  0  0  0  0  0  0  0
    5.4642    0.6304   20.1993 C   0  0  0  0  0  0  0  0  0  0  0  0
    5.0220    0.6267   21.1961 H   0  0  0  0  0  0  0  0  0  0  0  0
    4.8284    1.2805   19.1317 C   0  0  0  0  0  0  0  0  0  0  0  0
    3.8920    1.8138   19.2779 H   0  0  0  0  0  0  0  0  0  0  0  0
  1  2  1  0
  2  3  2  0
  3  4  1  0
  4  5  1  0
  4  6  2  0
  6  7  1  0
  7  8  1  0
  8  9  1  0
  8 10  1  0
  8 11  1  0
 11 12  1  0
 11 13  1  0
 13 14  1  0
 13 15  1  0
 13 16  1  0
 16 17  1  0
 16 18  1  0
 16 19  1  0
 19 20  1  0
 19 21  1  0
 19 22  1  0
  6 23  1  0
 23 24  1  0
 23 25  2  0
 25 26  1  0
 25  2  1  0
M  END
>  <plip>  (1) 
-0.0

>  <filename>  (1) 
[H][c]1[n][c]([H])[c]([O][C]([H])([H])[N]([H])[C]([H])([H])[C]([H])([H])[C]([H])([H])[H])[c]([H])[c]1[H]

$$$$
