
     RDKit          3D

 28 30  0  0  0  0  0  0  0  0999 V2000
    8.1040   -1.6642   20.7239 O   0  0  0  0  0  0  0  0  0  0  0  0
    7.3848   -0.7237   21.0226 C   0  0  0  0  0  0  0  0  0  0  0  0
    7.2316   -0.3681   22.3370 N   0  0  0  0  0  0  0  0  0  0  0  0
    7.6196   -1.1663   23.3871 C   0  0  0  0  0  0  0  0  0  0  0  0
    7.8459   -2.4650   23.1362 N   0  0  0  0  0  0  0  0  0  0  0  0
    8.1374   -3.2440   24.1888 C   0  0  0  0  0  0  0  0  0  0  0  0
    8.2305   -2.7749   25.4970 C   0  0  0  0  0  0  0  0  0  0  0  0
    8.0066   -1.4261   25.7573 C   0  0  0  0  0  0  0  0  0  0  0  0
    7.6865   -0.6010   24.6777 C   0  0  0  0  0  0  0  0  0  0  0  0
    7.3436    1.2652   25.0028 Br  0  0  0  0  0  0  0  0  0  0  0  0
    8.0674   -1.0212   26.7630 H   0  0  0  0  0  0  0  0  0  0  0  0
    8.5582   -3.8510   26.3153 N   0  0  0  0  0  0  0  0  0  0  0  0
    8.6740   -5.0149   25.5622 C   0  0  0  0  0  0  0  0  0  0  0  0
    8.4106   -4.6707   24.2556 C   0  0  0  0  0  0  0  0  0  0  0  0
    8.4083   -5.3416   23.4081 H   0  0  0  0  0  0  0  0  0  0  0  0
    8.9273   -6.0091   25.9311 H   0  0  0  0  0  0  0  0  0  0  0  0
    8.7055   -3.7880   27.3238 H   0  0  0  0  0  0  0  0  0  0  0  0
    6.7772    0.5093   22.5435 H   0  0  0  0  0  0  0  0  0  0  0  0
    6.6765    0.0112   19.9902 C   0  0  0  0  0  0  0  0  0  0  0  0
    5.4621    0.6767   20.2226 C   0  0  0  0  0  0  0  0  0  0  0  0
    4.8477    1.2981   19.1385 C   0  0  0  0  0  0  0  0  0  0  0  0
    5.4450    1.2623   17.8784 C   0  0  0  0  0  0  0  0  0  0  0  0
    6.6044    0.6202   17.6575 N   0  0  0  0  0  0  0  0  0  0  0  0
    7.2026    0.0118   18.6942 C   0  0  0  0  0  0  0  0  0  0  0  0
    8.1407   -0.4967   18.4982 H   0  0  0  0  0  0  0  0  0  0  0  0
    4.9518    1.7773   17.0580 H   0  0  0  0  0  0  0  0  0  0  0  0
    3.8999    1.8148   19.2419 H   0  0  0  0  0  0  0  0  0  0  0  0
    4.9675    0.7031   21.1947 H   0  0  0  0  0  0  0  0  0  0  0  0
  1  2  2  0
  2  3  1  0
  3  4  1  0
  4  5  2  0
  5  6  1  0
  6  7  2  0
  7  8  1  0
  8  9  2  0
  9 10  1  0
  8 11  1  0
  7 12  1  0
 12 13  1  0
 13 14  2  0
 14 15  1  0
 13 16  1  0
 12 17  1  0
  3 18  1  0
  2 19  1  0
 19 20  2  0
 20 21  1  0
 21 22  2  0
 22 23  1  0
 23 24  2  0
 24 25  1  0
 22 26  1  0
 21 27  1  0
 20 28  1  0
  9  4  1  0
 24 19  1  0
 14  6  1  0
M  END
>  <plip>  (1) 
-0.03571428571428571

>  <filename>  (1) 
[H][c]1[n][c]([H])[c]([C](=[O])[N]([H])[c]2[n][c]3[c]([H])[c]([H])[n]([H])[c]3[c]([H])[c]2[Br])[c]([H])[c]1[H]

$$$$
