
     RDKit          3D

 27 29  0  0  0  0  0  0  0  0999 V2000
    9.4629    0.0768   20.4338 O   0  0  0  0  0  0  0  0  0  0  0  0
    8.7274   -0.6527   21.0837 C   0  0  0  0  0  0  0  0  0  0  0  0
    7.3610   -0.6239   20.9470 N   0  0  0  0  0  0  0  0  0  0  0  0
    6.6640    0.0112   19.8874 C   0  0  0  0  0  0  0  0  0  0  0  0
    5.4418    0.6381   20.1454 C   0  0  0  0  0  0  0  0  0  0  0  0
    4.7933    1.3066   19.0983 C   0  0  0  0  0  0  0  0  0  0  0  0
    5.3797    1.3000   17.8283 C   0  0  0  0  0  0  0  0  0  0  0  0
    6.5401    0.6794   17.5556 N   0  0  0  0  0  0  0  0  0  0  0  0
    7.1662    0.0646   18.5648 C   0  0  0  0  0  0  0  0  0  0  0  0
    8.1200   -0.4078   18.3416 H   0  0  0  0  0  0  0  0  0  0  0  0
    4.9087    1.8158   16.9948 H   0  0  0  0  0  0  0  0  0  0  0  0
    3.8617    1.8417   19.2609 H   0  0  0  0  0  0  0  0  0  0  0  0
    5.0364    0.6196   21.1553 H   0  0  0  0  0  0  0  0  0  0  0  0
    6.8407   -1.1783   21.6170 H   0  0  0  0  0  0  0  0  0  0  0  0
    9.2889   -1.6955   22.0745 C   0  0  0  0  0  0  0  0  0  0  0  0
   10.6966   -1.7717   22.1725 C   0  0  0  0  0  0  0  0  0  0  0  0
   11.3045   -2.7747   22.9192 C   0  0  0  0  0  0  0  0  0  0  0  0
   10.4417   -3.5727   23.6633 C   0  0  0  0  0  0  0  0  0  0  0  0
   10.7512   -4.5367   24.5633 O   0  0  0  0  0  0  0  0  0  0  0  0
    9.5552   -5.0842   24.9458 C   0  0  0  0  0  0  0  0  0  0  0  0
    8.4914   -4.5079   24.3362 C   0  0  0  0  0  0  0  0  0  0  0  0
    9.0467   -3.4598   23.5129 C   0  0  0  0  0  0  0  0  0  0  0  0
    8.4602   -2.5247   22.7384 N   0  0  0  0  0  0  0  0  0  0  0  0
    7.4473   -4.7864   24.3925 H   0  0  0  0  0  0  0  0  0  0  0  0
    9.6579   -5.8921   25.6581 H   0  0  0  0  0  0  0  0  0  0  0  0
   12.3719   -2.9438   22.8674 H   0  0  0  0  0  0  0  0  0  0  0  0
   11.2753   -1.0191   21.6504 H   0  0  0  0  0  0  0  0  0  0  0  0
  1  2  2  0
  2  3  1  0
  3  4  1  0
  4  5  2  0
  5  6  1  0
  6  7  2  0
  7  8  1  0
  8  9  2  0
  9 10  1  0
  7 11  1  0
  6 12  1  0
  5 13  1  0
  3 14  1  0
  2 15  1  0
 15 16  2  0
 16 17  1  0
 17 18  2  0
 18 19  1  0
 19 20  1  0
 20 21  2  0
 21 22  1  0
 22 23  2  0
 21 24  1  0
 20 25  1  0
 17 26  1  0
 16 27  1  0
  9  4  1  0
 23 15  1  0
 22 18  1  0
M  END
>  <plip>  (1) 
-0.10344827586206896

>  <filename>  (1) 
[H][c]1[n][c]([H])[c]([N]([H])[C](=[O])[c]2[n][c]3[c]([H])[c]([H])[o][c]3[c]([H])[c]2[H])[c]([H])[c]1[H]

$$$$
