
     RDKit          3D

 41 41  0  0  0  0  0  0  0  0999 V2000
    7.1463   -6.3083   28.3117 C   0  0  0  0  0  0  0  0  0  0  0  0
    6.7087   -5.1212   27.4708 C   0  0  0  0  0  0  0  0  0  0  0  0
    7.2817   -5.1775   26.1766 O   0  0  0  0  0  0  0  0  0  0  0  0
    6.8798   -4.0940   25.3575 C   0  0  0  0  0  0  0  0  0  0  0  0
    7.5469   -4.2113   23.9854 C   0  0  0  0  0  0  0  0  0  0  0  0
    7.0304   -3.1891   23.0566 N   0  0  0  0  0  0  0  0  0  0  0  0
    6.0161   -3.6044   22.0794 C   0  0  0  0  0  0  0  0  0  0  0  0
    6.6497   -4.1211   20.7924 C   0  0  0  0  0  0  0  0  0  0  0  0
    5.8777   -4.3522   20.0458 H   0  0  0  0  0  0  0  0  0  0  0  0
    7.2969   -3.3260   20.4154 H   0  0  0  0  0  0  0  0  0  0  0  0
    7.2527   -5.0240   20.9761 H   0  0  0  0  0  0  0  0  0  0  0  0
    5.3693   -4.3728   22.5385 H   0  0  0  0  0  0  0  0  0  0  0  0
    5.3671   -2.7521   21.8523 H   0  0  0  0  0  0  0  0  0  0  0  0
    7.6950   -1.9634   22.9917 C   0  0  0  0  0  0  0  0  0  0  0  0
    8.7666   -1.7926   23.5587 O   0  0  0  0  0  0  0  0  0  0  0  0
    7.0196   -0.7768   22.2410 C   0  0  0  0  0  0  0  0  0  0  0  0
    7.3802    0.5828   22.8459 C   0  0  0  0  0  0  0  0  0  0  0  0
    8.4545    0.7627   22.7741 H   0  0  0  0  0  0  0  0  0  0  0  0
    6.8656    1.4057   22.3427 H   0  0  0  0  0  0  0  0  0  0  0  0
    7.0870    0.6062   23.8998 H   0  0  0  0  0  0  0  0  0  0  0  0
    7.3893   -0.8875   20.8463 O   0  0  0  0  0  0  0  0  0  0  0  0
    6.7120   -0.1490   19.9123 C   0  0  0  0  0  0  0  0  0  0  0  0
    5.5164    0.5414   20.1608 C   0  0  0  0  0  0  0  0  0  0  0  0
    4.9134    1.2499   19.1187 C   0  0  0  0  0  0  0  0  0  0  0  0
    5.5182    1.2530   17.8627 C   0  0  0  0  0  0  0  0  0  0  0  0
    6.6623    0.5932   17.6020 N   0  0  0  0  0  0  0  0  0  0  0  0
    7.2395   -0.0896   18.6007 C   0  0  0  0  0  0  0  0  0  0  0  0
    8.1672   -0.6127   18.3628 H   0  0  0  0  0  0  0  0  0  0  0  0
    5.0669    1.7907   17.0331 H   0  0  0  0  0  0  0  0  0  0  0  0
    3.9877    1.7962   19.2823 H   0  0  0  0  0  0  0  0  0  0  0  0
    5.0842    0.5385   21.1550 H   0  0  0  0  0  0  0  0  0  0  0  0
    5.9431   -0.9238   22.3086 H   0  0  0  0  0  0  0  0  0  0  0  0
    7.3651   -5.2199   23.5852 H   0  0  0  0  0  0  0  0  0  0  0  0
    8.6309   -4.0841   24.0949 H   0  0  0  0  0  0  0  0  0  0  0  0
    7.1653   -3.1315   25.8131 H   0  0  0  0  0  0  0  0  0  0  0  0
    5.7817   -4.0806   25.2310 H   0  0  0  0  0  0  0  0  0  0  0  0
    5.6082   -5.1116   27.3877 H   0  0  0  0  0  0  0  0  0  0  0  0
    7.0121   -4.1871   27.9727 H   0  0  0  0  0  0  0  0  0  0  0  0
    8.2352   -6.4030   28.3284 H   0  0  0  0  0  0  0  0  0  0  0  0
    6.7992   -6.1648   29.3414 H   0  0  0  0  0  0  0  0  0  0  0  0
    6.7233   -7.2474   27.9457 H   0  0  0  0  0  0  0  0  0  0  0  0
  1  2  1  0
  2  3  1  0
  3  4  1  0
  4  5  1  0
  5  6  1  0
  6  7  1  0
  7  8  1  0
  8  9  1  0
  8 10  1  0
  8 11  1  0
  7 12  1  0
  7 13  1  0
  6 14  1  0
 14 15  2  0
 14 16  1  0
 16 17  1  0
 17 18  1  0
 17 19  1  0
 17 20  1  0
 16 21  1  0
 21 22  1  0
 22 23  2  0
 23 24  1  0
 24 25  2  0
 25 26  1  0
 26 27  2  0
 27 28  1  0
 25 29  1  0
 24 30  1  0
 23 31  1  0
 16 32  1  0
  5 33  1  0
  5 34  1  0
  4 35  1  0
  4 36  1  0
  2 37  1  0
  2 38  1  0
  1 39  1  0
  1 40  1  0
  1 41  1  0
 27 22  1  0
M  END
>  <plip>  (1) 
-0.03571428571428571

>  <filename>  (1) 
[H][c]1[n][c]([H])[c]([O][C]([H])([C](=[O])[N]([C]([H])([H])[C]([H])([H])[H])[C]([H])([H])[C]([H])([H])[O][C]([H])([H])[C]([H])([H])[H])[C]([H])([H])[H])[c]([H])[c]1[H]

$$$$
