
     RDKit          3D

 47 49  0  0  0  0  0  0  0  0999 V2000
    6.0645   -2.6579   21.2936 C   0  0  0  0  0  0  0  0  0  0  0  0
    6.8617   -1.3388   21.2055 C   0  0  0  0  0  0  0  0  0  0  0  0
    6.9678   -0.6260   22.5947 C   0  0  0  0  0  0  0  0  0  0  0  0
    6.8255   -1.2913   23.6129 O   0  0  0  0  0  0  0  0  0  0  0  0
    7.2777    0.7046   22.6827 N   0  0  0  0  0  0  0  0  0  0  0  0
    7.1495    1.3784   23.9875 C   0  0  0  0  0  0  0  0  0  0  0  0
    7.7520    2.7700   23.7466 C   0  0  0  0  0  0  0  0  0  0  0  0
    8.6170    2.5876   22.4931 C   0  0  0  0  0  0  0  0  0  0  0  0
   10.2303    1.8948   22.8381 S   0  0  0  0  0  0  0  0  0  0  0  0
   10.1781    1.0125   23.9888 O   0  0  0  0  0  0  0  0  0  0  0  0
   10.7589    1.4157   21.5626 O   0  0  0  0  0  0  0  0  0  0  0  0
   11.1249    3.2504   23.3592 N   0  0  0  0  0  0  0  0  0  0  0  0
   11.2583    4.4154   22.4517 C   0  0  0  0  0  0  0  0  0  0  0  0
   12.1978    4.1099   21.2550 C   0  0  0  0  0  0  0  0  0  0  0  0
   13.4977    3.8121   21.7681 O   0  0  0  0  0  0  0  0  0  0  0  0
   13.4395    2.6389   22.5931 C   0  0  0  0  0  0  0  0  0  0  0  0
   12.5034    2.8992   23.7813 C   0  0  0  0  0  0  0  0  0  0  0  0
   12.8773    3.8349   24.2173 H   0  0  0  0  0  0  0  0  0  0  0  0
   12.5085    2.0966   24.5269 H   0  0  0  0  0  0  0  0  0  0  0  0
   13.0792    1.7757   22.0179 H   0  0  0  0  0  0  0  0  0  0  0  0
   14.4521    2.4316   22.9287 H   0  0  0  0  0  0  0  0  0  0  0  0
   12.3008    4.9645   20.5836 H   0  0  0  0  0  0  0  0  0  0  0  0
   11.7986    3.2595   20.6785 H   0  0  0  0  0  0  0  0  0  0  0  0
   10.2824    4.8440   22.2244 H   0  0  0  0  0  0  0  0  0  0  0  0
   11.7438    5.2024   23.0489 H   0  0  0  0  0  0  0  0  0  0  0  0
    7.8180    1.5953   21.6578 C   0  0  0  0  0  0  0  0  0  0  0  0
    7.0069    2.1276   21.1401 H   0  0  0  0  0  0  0  0  0  0  0  0
    8.4047    1.0636   20.9057 H   0  0  0  0  0  0  0  0  0  0  0  0
    8.8384    3.5128   21.9610 H   0  0  0  0  0  0  0  0  0  0  0  0
    6.9550    3.4962   23.5279 H   0  0  0  0  0  0  0  0  0  0  0  0
    8.3216    3.1221   24.6095 H   0  0  0  0  0  0  0  0  0  0  0  0
    6.0974    1.4193   24.2910 H   0  0  0  0  0  0  0  0  0  0  0  0
    7.6962    0.8102   24.7457 H   0  0  0  0  0  0  0  0  0  0  0  0
    6.3735   -0.5039   20.0266 C   0  0  0  0  0  0  0  0  0  0  0  0
    5.2932    0.3786   20.1344 C   0  0  0  0  0  0  0  0  0  0  0  0
    4.9548    1.1619   19.0225 C   0  0  0  0  0  0  0  0  0  0  0  0
    5.6596    0.9867   17.8302 C   0  0  0  0  0  0  0  0  0  0  0  0
    6.6570    0.1035   17.6824 N   0  0  0  0  0  0  0  0  0  0  0  0
    6.9868   -0.6200   18.7626 C   0  0  0  0  0  0  0  0  0  0  0  0
    7.8057   -1.3242   18.6232 H   0  0  0  0  0  0  0  0  0  0  0  0
    5.4169    1.5858   16.9535 H   0  0  0  0  0  0  0  0  0  0  0  0
    4.1795    1.9158   19.0821 H   0  0  0  0  0  0  0  0  0  0  0  0
    4.7590    0.4952   21.0780 H   0  0  0  0  0  0  0  0  0  0  0  0
    7.9088   -1.6113   21.0097 H   0  0  0  0  0  0  0  0  0  0  0  0
    5.0096   -2.4760   21.5161 H   0  0  0  0  0  0  0  0  0  0  0  0
    6.4562   -3.2950   22.0898 H   0  0  0  0  0  0  0  0  0  0  0  0
    6.1315   -3.1955   20.3424 H   0  0  0  0  0  0  0  0  0  0  0  0
  1  2  1  0
  2  3  1  0
  3  4  2  0
  3  5  1  0
  5  6  1  0
  6  7  1  0
  7  8  1  0
  8  9  1  0
  9 10  2  0
  9 11  2  0
  9 12  1  0
 12 13  1  0
 13 14  1  0
 14 15  1  0
 15 16  1  0
 16 17  1  0
 17 18  1  0
 17 19  1  0
 16 20  1  0
 16 21  1  0
 14 22  1  0
 14 23  1  0
 13 24  1  0
 13 25  1  0
  8 26  1  0
 26 27  1  0
 26 28  1  0
  8 29  1  0
  7 30  1  0
  7 31  1  0
  6 32  1  0
  6 33  1  0
  2 34  1  0
 34 35  2  0
 35 36  1  0
 36 37  2  0
 37 38  1  0
 38 39  2  0
 39 40  1  0
 37 41  1  0
 36 42  1  0
 35 43  1  0
  2 44  1  0
  1 45  1  0
  1 46  1  0
  1 47  1  0
 26  5  1  0
 39 34  1  0
 17 12  1  0
M  END
>  <plip>  (1) 
-0.06896551724137931

>  <filename>  (1) 
[H][c]1[n][c]([H])[c]([C]([H])([C](=[O])[N]2[C]([H])([H])[C]([H])([H])[C]([H])([S](=[O])(=[O])[N]3[C]([H])([H])[C]([H])([H])[O][C]([H])([H])[C]3([H])[H])[C]2([H])[H])[C]([H])([H])[H])[c]([H])[c]1[H]

$$$$
