
     RDKit          3D

 27 29  0  0  0  0  0  0  0  0999 V2000
   11.3570   -5.0582   25.9098 H   0  0  0  0  0  0  0  0  0  0  0  0
   10.6831   -4.8123   25.0944 C   0  0  0  0  0  0  0  0  0  0  0  0
   10.9615   -3.7312   24.2928 N   0  0  0  0  0  0  0  0  0  0  0  0
   10.0249   -3.6026   23.4109 C   0  0  0  0  0  0  0  0  0  0  0  0
   10.1268   -2.5360   22.5289 N   0  0  0  0  0  0  0  0  0  0  0  0
   10.8223   -1.9339   22.9646 H   0  0  0  0  0  0  0  0  0  0  0  0
    8.9833   -1.8748   22.1280 N   0  0  0  0  0  0  0  0  0  0  0  0
    7.9574   -1.4770   22.9448 C   0  0  0  0  0  0  0  0  0  0  0  0
    7.9616   -1.7443   23.9954 H   0  0  0  0  0  0  0  0  0  0  0  0
    7.0705   -0.7910   22.1772 C   0  0  0  0  0  0  0  0  0  0  0  0
    6.1477   -0.3476   22.5305 H   0  0  0  0  0  0  0  0  0  0  0  0
    7.5770   -0.7332   20.8328 C   0  0  0  0  0  0  0  0  0  0  0  0
    6.9040   -0.0266   19.7195 C   0  0  0  0  0  0  0  0  0  0  0  0
    7.3862   -0.0155   18.3931 C   0  0  0  0  0  0  0  0  0  0  0  0
    8.3175   -0.5145   18.1417 H   0  0  0  0  0  0  0  0  0  0  0  0
    6.7761    0.5865   17.3596 N   0  0  0  0  0  0  0  0  0  0  0  0
    5.6298    1.2367   17.6016 C   0  0  0  0  0  0  0  0  0  0  0  0
    5.1590    1.7288   16.7506 H   0  0  0  0  0  0  0  0  0  0  0  0
    5.0629    1.3131   18.8764 C   0  0  0  0  0  0  0  0  0  0  0  0
    4.1533    1.8807   19.0279 H   0  0  0  0  0  0  0  0  0  0  0  0
    5.7094    0.6847   19.9378 C   0  0  0  0  0  0  0  0  0  0  0  0
    5.2920    0.7528   20.9401 H   0  0  0  0  0  0  0  0  0  0  0  0
    8.7788   -1.4181   20.8545 C   0  0  0  0  0  0  0  0  0  0  0  0
    9.5503   -1.6177   20.1206 H   0  0  0  0  0  0  0  0  0  0  0  0
    8.7715   -4.7961   23.4239 S   0  0  0  0  0  0  0  0  0  0  0  0
    9.5601   -5.5025   24.7970 C   0  0  0  0  0  0  0  0  0  0  0  0
    9.1552   -6.3677   25.2934 H   0  0  0  0  0  0  0  0  0  0  0  0
  1  2  1  0
  2  3  1  0
  3  4  2  0
  4  5  1  0
  5  6  1  0
  5  7  1  0
  7  8  1  0
  8  9  1  0
  8 10  2  0
 10 11  1  0
 10 12  1  0
 12 13  1  0
 13 14  2  0
 14 15  1  0
 14 16  1  0
 16 17  2  0
 17 18  1  0
 17 19  1  0
 19 20  1  0
 19 21  2  0
 21 22  1  0
 12 23  2  0
 23 24  1  0
  4 25  1  0
 25 26  1  0
 26 27  1  0
 26  2  2  0
 23  7  1  0
 21 13  1  0
M  END
>  <plip>  (1) 
-0.07142857142857142

>  <filename>  (1) 
[H][c]1[n][c]([N]([H])[n]2[c]([H])[c]([H])[c](-[c]3[c]([H])[n][c]([H])[c]([H])[c]3[H])[c]2[H])[s][c]1[H]

$$$$
