
     RDKit          3D

 41 43  0  0  0  0  0  0  0  0999 V2000
    8.5390   -3.7153   21.9001 O   0  0  0  0  0  0  0  0  0  0  0  0
    7.5940   -2.9857   22.1623 C   0  0  0  0  0  0  0  0  0  0  0  0
    6.8639   -2.1833   21.1075 C   0  0  0  0  0  0  0  0  0  0  0  0
    7.3697   -0.7251   21.0133 C   0  0  0  0  0  0  0  0  0  0  0  0
    6.6676    0.0331   19.9103 C   0  0  0  0  0  0  0  0  0  0  0  0
    5.4412    0.6715   20.1405 C   0  0  0  0  0  0  0  0  0  0  0  0
    4.7964    1.3207   19.0862 C   0  0  0  0  0  0  0  0  0  0  0  0
    5.3867    1.2979   17.8196 C   0  0  0  0  0  0  0  0  0  0  0  0
    6.5476    0.6770   17.5652 N   0  0  0  0  0  0  0  0  0  0  0  0
    7.1620    0.0715   18.5926 C   0  0  0  0  0  0  0  0  0  0  0  0
    8.1137   -0.4024   18.3411 H   0  0  0  0  0  0  0  0  0  0  0  0
    4.9196    1.8013   16.9729 H   0  0  0  0  0  0  0  0  0  0  0  0
    3.8617    1.8472   19.2326 H   0  0  0  0  0  0  0  0  0  0  0  0
    5.0042    0.6546   21.1404 H   0  0  0  0  0  0  0  0  0  0  0  0
    8.4550   -0.7287   20.8441 H   0  0  0  0  0  0  0  0  0  0  0  0
    7.2110   -0.2141   21.9742 H   0  0  0  0  0  0  0  0  0  0  0  0
    7.0540   -2.6972   20.1682 H   0  0  0  0  0  0  0  0  0  0  0  0
    5.7754   -2.2001   21.2567 H   0  0  0  0  0  0  0  0  0  0  0  0
    7.1506   -2.8051   23.4340 N   0  0  0  0  0  0  0  0  0  0  0  0
    7.7817   -3.5079   24.5404 C   0  0  0  0  0  0  0  0  0  0  0  0
    7.0685   -3.2605   25.8704 C   0  0  0  0  0  0  0  0  0  0  0  0
    5.6878   -3.8501   25.9186 C   0  0  0  0  0  0  0  0  0  0  0  0
    5.3533   -5.1693   26.0258 C   0  0  0  0  0  0  0  0  0  0  0  0
    3.9836   -5.3187   25.9233 N   0  0  0  0  0  0  0  0  0  0  0  0
    3.4050   -4.0866   25.7458 C   0  0  0  0  0  0  0  0  0  0  0  0
    2.0538   -3.7243   25.5859 C   0  0  0  0  0  0  0  0  0  0  0  0
    1.7803   -2.3757   25.4128 C   0  0  0  0  0  0  0  0  0  0  0  0
    0.1321   -1.8552   25.2060 Cl  0  0  0  0  0  0  0  0  0  0  0  0
    2.8002   -1.3945   25.3975 C   0  0  0  0  0  0  0  0  0  0  0  0
    4.1268   -1.7684   25.5570 C   0  0  0  0  0  0  0  0  0  0  0  0
    4.4525   -3.1305   25.7378 C   0  0  0  0  0  0  0  0  0  0  0  0
    4.9185   -1.0185   25.5326 H   0  0  0  0  0  0  0  0  0  0  0  0
    2.5289   -0.3548   25.2528 H   0  0  0  0  0  0  0  0  0  0  0  0
    1.2429   -4.4438   25.6009 H   0  0  0  0  0  0  0  0  0  0  0  0
    3.4732   -6.1800   25.9820 H   0  0  0  0  0  0  0  0  0  0  0  0
    5.9948   -6.0333   26.1621 H   0  0  0  0  0  0  0  0  0  0  0  0
    7.6950   -3.6902   26.6602 H   0  0  0  0  0  0  0  0  0  0  0  0
    7.0171   -2.1810   26.0755 H   0  0  0  0  0  0  0  0  0  0  0  0
    8.8334   -3.1988   24.6069 H   0  0  0  0  0  0  0  0  0  0  0  0
    7.7942   -4.5850   24.3165 H   0  0  0  0  0  0  0  0  0  0  0  0
    6.3171   -2.2503   23.5647 H   0  0  0  0  0  0  0  0  0  0  0  0
  1  2  2  0
  2  3  1  0
  3  4  1  0
  4  5  1  0
  5  6  2  0
  6  7  1  0
  7  8  2  0
  8  9  1  0
  9 10  2  0
 10 11  1  0
  8 12  1  0
  7 13  1  0
  6 14  1  0
  4 15  1  0
  4 16  1  0
  3 17  1  0
  3 18  1  0
  2 19  1  0
 19 20  1  0
 20 21  1  0
 21 22  1  0
 22 23  2  0
 23 24  1  0
 24 25  1  0
 25 26  2  0
 26 27  1  0
 27 28  1  0
 27 29  2  0
 29 30  1  0
 30 31  2  0
 30 32  1  0
 29 33  1  0
 26 34  1  0
 24 35  1  0
 23 36  1  0
 21 37  1  0
 21 38  1  0
 20 39  1  0
 20 40  1  0
 19 41  1  0
 10  5  1  0
 31 22  1  0
 31 25  1  0
M  END
>  <plip>  (1) 
-0.06666666666666667

>  <filename>  (1) 
[H][c]1[n][c]([H])[c]([C]([H])([H])[C]([H])([H])[C](=[O])[N]([H])[C]([H])([H])[C]([H])([H])[c]2[c]([H])[n]([H])[c]3[c]([H])[c]([Cl])[c]([H])[c]([H])[c]23)[c]([H])[c]1[H]

$$$$
