
     RDKit          3D

 46 48  0  0  0  0  0  0  0  0999 V2000
    5.0843   -3.3723   22.3177 C   0  0  0  0  0  0  0  0  0  0  0  0
    5.7833   -2.1444   22.1101 O   0  0  0  0  0  0  0  0  0  0  0  0
    6.8385   -2.1431   21.3050 C   0  0  0  0  0  0  0  0  0  0  0  0
    7.3143   -3.1362   20.8100 O   0  0  0  0  0  0  0  0  0  0  0  0
    7.4014   -0.7136   21.0499 C   0  0  0  0  0  0  0  0  0  0  0  0
    7.4104    0.0326   22.2811 O   0  0  0  0  0  0  0  0  0  0  0  0
    8.1098    1.1940   22.3120 C   0  0  0  0  0  0  0  0  0  0  0  0
    8.7688    1.6041   21.3868 O   0  0  0  0  0  0  0  0  0  0  0  0
    7.9740    1.8642   23.6048 C   0  0  0  0  0  0  0  0  0  0  0  0
    8.6154    3.0237   23.9385 C   0  0  0  0  0  0  0  0  0  0  0  0
    9.5512    3.8144   23.0885 C   0  0  0  0  0  0  0  0  0  0  0  0
   10.4106    3.2104   22.7885 H   0  0  0  0  0  0  0  0  0  0  0  0
    9.8826    4.6808   23.6615 H   0  0  0  0  0  0  0  0  0  0  0  0
    9.0509    4.1408   22.1737 H   0  0  0  0  0  0  0  0  0  0  0  0
    8.3356    3.4843   25.1918 N   0  0  0  0  0  0  0  0  0  0  0  0
    7.4927    2.7220   25.8332 C   0  0  0  0  0  0  0  0  0  0  0  0
    7.0193    3.0195   27.2012 C   0  0  0  0  0  0  0  0  0  0  0  0
    7.4615    4.1736   27.8786 C   0  0  0  0  0  0  0  0  0  0  0  0
    7.0357    4.4586   29.1784 C   0  0  0  0  0  0  0  0  0  0  0  0
    6.1418    3.5882   29.8163 C   0  0  0  0  0  0  0  0  0  0  0  0
    5.6329    3.7235   31.0656 O   0  0  0  0  0  0  0  0  0  0  0  0
    6.0050    4.8227   31.8654 C   0  0  0  0  0  0  0  0  0  0  0  0
    5.4675    4.7032   32.8067 H   0  0  0  0  0  0  0  0  0  0  0  0
    5.7122    5.7747   31.4047 H   0  0  0  0  0  0  0  0  0  0  0  0
    7.0837    4.8288   32.0680 H   0  0  0  0  0  0  0  0  0  0  0  0
    5.6876    2.4432   29.1485 C   0  0  0  0  0  0  0  0  0  0  0  0
    6.1165    2.1595   27.8656 C   0  0  0  0  0  0  0  0  0  0  0  0
    5.7363    1.2570   27.3932 H   0  0  0  0  0  0  0  0  0  0  0  0
    4.9983    1.8039   29.6857 H   0  0  0  0  0  0  0  0  0  0  0  0
    7.3979    5.3457   29.6839 H   0  0  0  0  0  0  0  0  0  0  0  0
    8.1554    4.8463   27.3793 H   0  0  0  0  0  0  0  0  0  0  0  0
    6.9746    1.3296   24.9097 S   0  0  0  0  0  0  0  0  0  0  0  0
    6.6590    0.0499   19.9610 C   0  0  0  0  0  0  0  0  0  0  0  0
    5.4406    0.7082   20.1746 C   0  0  0  0  0  0  0  0  0  0  0  0
    4.8171    1.3247   19.0863 C   0  0  0  0  0  0  0  0  0  0  0  0
    5.4399    1.2928   17.8345 C   0  0  0  0  0  0  0  0  0  0  0  0
    6.6150    0.6849   17.6176 N   0  0  0  0  0  0  0  0  0  0  0  0
    7.2002    0.0979   18.6717 C   0  0  0  0  0  0  0  0  0  0  0  0
    8.1580   -0.3842   18.4703 H   0  0  0  0  0  0  0  0  0  0  0  0
    4.9706    1.7724   16.9729 H   0  0  0  0  0  0  0  0  0  0  0  0
    3.8718    1.8416   19.1951 H   0  0  0  0  0  0  0  0  0  0  0  0
    4.9981    0.7627   21.1697 H   0  0  0  0  0  0  0  0  0  0  0  0
    8.4294   -0.8986   20.7192 H   0  0  0  0  0  0  0  0  0  0  0  0
    4.6423   -3.7060   21.3786 H   0  0  0  0  0  0  0  0  0  0  0  0
    5.7506   -4.1386   22.7164 H   0  0  0  0  0  0  0  0  0  0  0  0
    4.2983   -3.1595   23.0402 H   0  0  0  0  0  0  0  0  0  0  0  0
  1  2  1  0
  2  3  1  0
  3  4  2  0
  3  5  1  0
  5  6  1  0
  6  7  1  0
  7  8  2  0
  7  9  1  0
  9 10  2  0
 10 11  1  0
 11 12  1  0
 11 13  1  0
 11 14  1  0
 10 15  1  0
 15 16  2  0
 16 17  1  0
 17 18  2  0
 18 19  1  0
 19 20  2  0
 20 21  1  0
 21 22  1  0
 22 23  1  0
 22 24  1  0
 22 25  1  0
 20 26  1  0
 26 27  2  0
 27 28  1  0
 26 29  1  0
 19 30  1  0
 18 31  1  0
 16 32  1  0
  5 33  1  0
 33 34  2  0
 34 35  1  0
 35 36  2  0
 36 37  1  0
 37 38  2  0
 38 39  1  0
 36 40  1  0
 35 41  1  0
 34 42  1  0
  5 43  1  0
  1 44  1  0
  1 45  1  0
  1 46  1  0
 32  9  1  0
 38 33  1  0
 27 17  1  0
M  END
>  <plip>  (1) 
-0.06896551724137931

>  <filename>  (1) 
[H][c]1[n][c]([H])[c]([C]([H])([O][C](=[O])[c]2[s][c](-[c]3[c]([H])[c]([H])[c]([O][C]([H])([H])[H])[c]([H])[c]3[H])[n][c]2[C]([H])([H])[H])[C](=[O])[O][C]([H])([H])[H])[c]([H])[c]1[H]

$$$$
