
     RDKit          3D

 28 29  0  0  0  0  0  0  0  0999 V2000
    5.7938   -6.7545   21.8755 H   0  0  0  0  0  0  0  0  0  0  0  0
    5.7585   -5.7249   22.1688 C   0  0  0  0  0  0  0  0  0  0  0  0
    5.5780   -4.5564   22.4110 C   0  0  0  0  0  0  0  0  0  0  0  0
    5.2217   -3.1500   22.6764 C   0  0  0  0  0  0  0  0  0  0  0  0
    4.1360   -3.0785   22.6395 H   0  0  0  0  0  0  0  0  0  0  0  0
    5.5389   -2.8464   23.6826 H   0  0  0  0  0  0  0  0  0  0  0  0
    5.6645   -2.2076   21.7008 O   0  0  0  0  0  0  0  0  0  0  0  0
    6.8940   -1.6427   21.8103 C   0  0  0  0  0  0  0  0  0  0  0  0
    7.3861   -0.7387   20.9397 C   0  0  0  0  0  0  0  0  0  0  0  0
    6.6428   -0.0051   19.8889 C   0  0  0  0  0  0  0  0  0  0  0  0
    7.1681    0.0854   18.5789 C   0  0  0  0  0  0  0  0  0  0  0  0
    8.1169   -0.3931   18.3438 H   0  0  0  0  0  0  0  0  0  0  0  0
    6.5645    0.7071   17.5575 N   0  0  0  0  0  0  0  0  0  0  0  0
    5.3979    1.3159   17.8081 C   0  0  0  0  0  0  0  0  0  0  0  0
    4.9258    1.8177   16.9641 H   0  0  0  0  0  0  0  0  0  0  0  0
    4.7878    1.3237   19.0672 C   0  0  0  0  0  0  0  0  0  0  0  0
    3.8533    1.8589   19.2024 H   0  0  0  0  0  0  0  0  0  0  0  0
    5.4154    0.6488   20.1193 C   0  0  0  0  0  0  0  0  0  0  0  0
    4.9673    0.6393   21.1119 H   0  0  0  0  0  0  0  0  0  0  0  0
    8.8853   -0.6191   21.1326 C   0  0  0  0  0  0  0  0  0  0  0  0
    9.4081   -1.1203   20.3039 H   0  0  0  0  0  0  0  0  0  0  0  0
    9.2226    0.4257   21.1320 H   0  0  0  0  0  0  0  0  0  0  0  0
    9.1853   -1.3278   22.4801 C   0  0  0  0  0  0  0  0  0  0  0  0
   10.0284   -2.0211   22.3990 H   0  0  0  0  0  0  0  0  0  0  0  0
    9.4387   -0.5901   23.2494 H   0  0  0  0  0  0  0  0  0  0  0  0
    7.8854   -2.0796   22.8518 C   0  0  0  0  0  0  0  0  0  0  0  0
    7.9801   -3.1725   22.8128 H   0  0  0  0  0  0  0  0  0  0  0  0
    7.5438   -1.8255   23.8655 H   0  0  0  0  0  0  0  0  0  0  0  0
  1  2  1  0
  2  3  3  0
  3  4  1  0
  4  5  1  0
  4  6  1  0
  4  7  1  0
  7  8  1  0
  8  9  2  0
  9 10  1  0
 10 11  2  0
 11 12  1  0
 11 13  1  0
 13 14  2  0
 14 15  1  0
 14 16  1  0
 16 17  1  0
 16 18  2  0
 18 19  1  0
  9 20  1  0
 20 21  1  0
 20 22  1  0
 20 23  1  0
 23 24  1  0
 23 25  1  0
 23 26  1  0
 26 27  1  0
 26 28  1  0
 26  8  1  0
 18 10  1  0
M  END
>  <plip>  (1) 
-0.07142857142857142

>  <filename>  (1) 
[H][C]#[C][C]([H])([H])[O][C]1=[C]([c]2[c]([H])[n][c]([H])[c]([H])[c]2[H])[C]([H])([H])[C]([H])([H])[C]1([H])[H]

$$$$
