
     RDKit          3D

 34 36  0  0  0  0  0  0  0  0999 V2000
    4.9623    1.8023   16.9622 H   0  0  0  0  0  0  0  0  0  0  0  0
    5.4171    1.2916   17.8088 C   0  0  0  0  0  0  0  0  0  0  0  0
    6.5602    0.6323   17.5682 N   0  0  0  0  0  0  0  0  0  0  0  0
    7.1346    0.0080   18.6065 C   0  0  0  0  0  0  0  0  0  0  0  0
    8.0634   -0.5154   18.3771 H   0  0  0  0  0  0  0  0  0  0  0  0
    6.6328    0.0189   19.9194 C   0  0  0  0  0  0  0  0  0  0  0  0
    7.4071   -0.7631   20.9635 C   0  0  2  0  0  0  0  0  0  0  0  0
    8.4737   -0.5607   20.7843 H   0  0  0  0  0  0  0  0  0  0  0  0
    7.2641   -2.2379   20.7804 N   0  0  0  0  0  0  0  0  0  0  0  0
    5.8785   -2.7091   20.8569 C   0  0  0  0  0  0  0  0  0  0  0  0
    5.3296   -2.1629   20.0889 H   0  0  0  0  0  0  0  0  0  0  0  0
    5.3863   -2.5021   21.8209 H   0  0  0  0  0  0  0  0  0  0  0  0
    5.7441   -4.1033   20.5156 N   0  0  0  0  0  0  0  0  0  0  0  0
    5.9573   -4.4928   19.2377 C   0  0  0  0  0  0  0  0  0  0  0  0
    6.2629   -3.7720   18.4833 H   0  0  0  0  0  0  0  0  0  0  0  0
    5.7240   -5.7651   19.0534 N   0  0  0  0  0  0  0  0  0  0  0  0
    5.3478   -6.2468   20.2823 C   0  0  0  0  0  0  0  0  0  0  0  0
    5.0546   -7.2812   20.4126 H   0  0  0  0  0  0  0  0  0  0  0  0
    5.3364   -5.2374   21.2108 C   0  0  0  0  0  0  0  0  0  0  0  0
    5.0882   -5.2241   22.2623 H   0  0  0  0  0  0  0  0  0  0  0  0
    8.1597   -2.9256   21.7389 C   0  0  0  0  0  0  0  0  0  0  0  0
    8.0259   -4.0096   21.6437 H   0  0  0  0  0  0  0  0  0  0  0  0
    9.1951   -2.7006   21.4517 H   0  0  0  0  0  0  0  0  0  0  0  0
    7.9260   -2.4691   23.1921 C   0  0  0  0  0  0  0  0  0  0  0  0
    8.6725   -2.9006   23.8654 H   0  0  0  0  0  0  0  0  0  0  0  0
    6.9330   -2.8215   23.5156 H   0  0  0  0  0  0  0  0  0  0  0  0
    8.0290   -1.0555   23.3325 O   0  0  0  0  0  0  0  0  0  0  0  0
    7.1624   -0.3537   22.4446 C   0  0  0  0  0  0  0  0  0  0  0  0
    6.1127   -0.5427   22.7023 H   0  0  0  0  0  0  0  0  0  0  0  0
    7.3590    0.7103   22.5848 H   0  0  0  0  0  0  0  0  0  0  0  0
    5.4315    0.7038   20.1467 C   0  0  0  0  0  0  0  0  0  0  0  0
    4.9826    0.7385   21.1416 H   0  0  0  0  0  0  0  0  0  0  0  0
    4.8114    1.3392   19.0680 C   0  0  0  0  0  0  0  0  0  0  0  0
    3.8770    1.8696   19.1966 H   0  0  0  0  0  0  0  0  0  0  0  0
  1  2  1  0
  2  3  2  0
  3  4  1  0
  4  5  1  0
  4  6  2  0
  6  7  1  0
  7  8  1  6
  7  9  1  0
  9 10  1  0
 10 11  1  0
 10 12  1  0
 10 13  1  0
 13 14  1  0
 14 15  1  0
 14 16  2  0
 16 17  1  0
 17 18  1  0
 17 19  2  0
 19 20  1  0
  9 21  1  0
 21 22  1  0
 21 23  1  0
 21 24  1  0
 24 25  1  0
 24 26  1  0
 24 27  1  0
 27 28  1  0
 28 29  1  0
 28 30  1  0
  6 31  1  0
 31 32  1  0
 31 33  2  0
 33 34  1  0
 33  2  1  0
 28  7  1  0
 19 13  1  0
M  END
>  <plip>  (1) 
-0.10714285714285714

>  <filename>  (1) 
[H][c]1[n][c]([H])[c]([C@]2([H])[N]([C]([H])([H])[n]3[c]([H])[n][c]([H])[c]3[H])[C]([H])([H])[C]([H])([H])[O][C]2([H])[H])[c]([H])[c]1[H]

$$$$
