
     RDKit          3D

 43 45  0  0  0  0  0  0  0  0999 V2000
   10.7757    8.2732   28.3535 C   0  0  0  0  0  0  0  0  0  0  0  0
   10.2250    7.1639   27.4892 C   0  0  0  0  0  0  0  0  0  0  0  0
   11.0298    6.5100   26.5483 C   0  0  0  0  0  0  0  0  0  0  0  0
   10.5290    5.4710   25.7683 C   0  0  0  0  0  0  0  0  0  0  0  0
    9.1967    5.0211   25.9007 C   0  0  0  0  0  0  0  0  0  0  0  0
    8.7091    3.8720   25.0763 C   0  0  0  0  0  0  0  0  0  0  0  0
    7.7666    3.0370   25.4439 N   0  0  0  0  0  0  0  0  0  0  0  0
    7.5463    2.0517   24.5278 C   0  0  0  0  0  0  0  0  0  0  0  0
    8.3069    2.0908   23.3971 C   0  0  0  0  0  0  0  0  0  0  0  0
    8.3353    1.2274   22.1845 C   0  0  0  0  0  0  0  0  0  0  0  0
    9.0303    1.5030   21.2162 O   0  0  0  0  0  0  0  0  0  0  0  0
    7.5622    0.1095   22.2148 N   0  0  0  0  0  0  0  0  0  0  0  0
    7.4057   -0.7133   21.0151 C   0  0  0  0  0  0  0  0  0  0  0  0
    6.6883   -2.0222   21.3300 C   0  0  0  0  0  0  0  0  0  0  0  0
    5.6547   -1.8459   21.6525 H   0  0  0  0  0  0  0  0  0  0  0  0
    6.6277   -2.6261   20.4198 H   0  0  0  0  0  0  0  0  0  0  0  0
    7.2108   -2.6105   22.0920 H   0  0  0  0  0  0  0  0  0  0  0  0
    6.6711    0.0423   19.9168 C   0  0  0  0  0  0  0  0  0  0  0  0
    5.4398    0.6688   20.1514 C   0  0  0  0  0  0  0  0  0  0  0  0
    4.8026    1.3110   19.0921 C   0  0  0  0  0  0  0  0  0  0  0  0
    5.3986    1.2875   17.8268 C   0  0  0  0  0  0  0  0  0  0  0  0
    6.5591    0.6682   17.5710 N   0  0  0  0  0  0  0  0  0  0  0  0
    7.1709    0.0779   18.6098 C   0  0  0  0  0  0  0  0  0  0  0  0
    8.1179   -0.4114   18.3736 H   0  0  0  0  0  0  0  0  0  0  0  0
    4.9280    1.7878   16.9816 H   0  0  0  0  0  0  0  0  0  0  0  0
    3.8723    1.8400   19.2425 H   0  0  0  0  0  0  0  0  0  0  0  0
    4.9991    0.6528   21.1516 H   0  0  0  0  0  0  0  0  0  0  0  0
    8.4146   -0.9379   20.6392 H   0  0  0  0  0  0  0  0  0  0  0  0
    7.0015   -0.0766   23.0270 H   0  0  0  0  0  0  0  0  0  0  0  0
    9.3534    3.4782   23.4943 S   0  0  0  0  0  0  0  0  0  0  0  0
    6.7634    1.3342   24.7626 H   0  0  0  0  0  0  0  0  0  0  0  0
    8.3572    5.6977   26.8356 C   0  0  0  0  0  0  0  0  0  0  0  0
    6.9019    5.3560   27.0373 C   0  0  0  0  0  0  0  0  0  0  0  0
    6.8082    4.3852   27.5295 H   0  0  0  0  0  0  0  0  0  0  0  0
    6.3897    5.2428   26.0790 H   0  0  0  0  0  0  0  0  0  0  0  0
    6.3839    6.1173   27.6318 H   0  0  0  0  0  0  0  0  0  0  0  0
    8.8967    6.7393   27.6079 C   0  0  0  0  0  0  0  0  0  0  0  0
    8.2525    7.2430   28.3283 H   0  0  0  0  0  0  0  0  0  0  0  0
   11.2022    4.9835   25.0681 H   0  0  0  0  0  0  0  0  0  0  0  0
   12.0636    6.8220   26.4345 H   0  0  0  0  0  0  0  0  0  0  0  0
   11.5888    8.8098   27.8536 H   0  0  0  0  0  0  0  0  0  0  0  0
   10.0059    9.0080   28.6137 H   0  0  0  0  0  0  0  0  0  0  0  0
   11.1813    7.8842   29.2953 H   0  0  0  0  0  0  0  0  0  0  0  0
  1  2  1  0
  2  3  2  0
  3  4  1  0
  4  5  2  0
  5  6  1  0
  6  7  2  0
  7  8  1  0
  8  9  2  0
  9 10  1  0
 10 11  2  0
 10 12  1  0
 12 13  1  0
 13 14  1  0
 14 15  1  0
 14 16  1  0
 14 17  1  0
 13 18  1  0
 18 19  2  0
 19 20  1  0
 20 21  2  0
 21 22  1  0
 22 23  2  0
 23 24  1  0
 21 25  1  0
 20 26  1  0
 19 27  1  0
 13 28  1  0
 12 29  1  0
  9 30  1  0
  8 31  1  0
  5 32  1  0
 32 33  1  0
 33 34  1  0
 33 35  1  0
 33 36  1  0
 32 37  2  0
 37 38  1  0
  4 39  1  0
  3 40  1  0
  1 41  1  0
  1 42  1  0
  1 43  1  0
 37  2  1  0
 30  6  1  0
 23 18  1  0
M  END
>  <plip>  (1) 
-0.14285714285714285

>  <filename>  (1) 
[H][c]1[n][c](-[c]2[c]([H])[c]([H])[c]([C]([H])([H])[H])[c]([H])[c]2[C]([H])([H])[H])[s][c]1[C](=[O])[N]([H])[C]([H])([c]1[c]([H])[n][c]([H])[c]([H])[c]1[H])[C]([H])([H])[H]

$$$$
