
     RDKit          3D

 44 46  0  0  0  0  0  0  0  0999 V2000
   11.4517    1.9437   23.2787 C   0  0  0  0  0  0  0  0  0  0  0  0
   10.0829    2.3660   23.6848 C   0  0  0  0  0  0  0  0  0  0  0  0
    9.9062    3.1485   24.7378 N   0  0  0  0  0  0  0  0  0  0  0  0
    8.5910    3.3312   24.8468 N   0  0  0  0  0  0  0  0  0  0  0  0
    8.0459    4.1568   25.8372 C   0  0  0  0  0  0  0  0  0  0  0  0
    6.7190    4.3542   25.8469 C   0  0  0  0  0  0  0  0  0  0  0  0
    5.9326    3.6998   24.8819 N   0  0  0  0  0  0  0  0  0  0  0  0
    6.4106    2.7959   23.9550 C   0  0  0  0  0  0  0  0  0  0  0  0
    5.6438    2.1643   23.2487 O   0  0  0  0  0  0  0  0  0  0  0  0
    7.8815    2.6573   23.9009 C   0  0  0  0  0  0  0  0  0  0  0  0
    8.8563    2.0107   23.1033 C   0  0  0  0  0  0  0  0  0  0  0  0
    8.8263    1.0707   21.9720 C   0  0  0  0  0  0  0  0  0  0  0  0
    9.6869    1.0351   21.1033 O   0  0  0  0  0  0  0  0  0  0  0  0
    7.7902    0.1835   22.0567 N   0  0  0  0  0  0  0  0  0  0  0  0
    7.4559   -0.7047   20.9615 C   0  0  0  0  0  0  0  0  0  0  0  0
    6.6309   -1.9055   21.4493 C   0  0  0  0  0  0  0  0  0  0  0  0
    7.3046   -2.8462   22.4544 C   0  0  0  0  0  0  0  0  0  0  0  0
    8.4294   -3.6853   21.8600 C   0  0  0  0  0  0  0  0  0  0  0  0
    8.9446   -4.6028   22.8021 O   0  0  0  0  0  0  0  0  0  0  0  0
    8.2572   -5.2491   23.0026 H   0  0  0  0  0  0  0  0  0  0  0  0
    8.0886   -4.2152   20.9534 H   0  0  0  0  0  0  0  0  0  0  0  0
    9.2750   -3.0489   21.5677 H   0  0  0  0  0  0  0  0  0  0  0  0
    6.5355   -3.5341   22.8340 H   0  0  0  0  0  0  0  0  0  0  0  0
    7.6912   -2.2906   23.3204 H   0  0  0  0  0  0  0  0  0  0  0  0
    6.3259   -2.4813   20.5629 H   0  0  0  0  0  0  0  0  0  0  0  0
    5.7070   -1.5086   21.8871 H   0  0  0  0  0  0  0  0  0  0  0  0
    6.6938    0.0730   19.9051 C   0  0  0  0  0  0  0  0  0  0  0  0
    5.4848    0.7479   20.1601 C   0  0  0  0  0  0  0  0  0  0  0  0
    4.8292    1.3510   19.0822 C   0  0  0  0  0  0  0  0  0  0  0  0
    5.4164    1.2982   17.8118 C   0  0  0  0  0  0  0  0  0  0  0  0
    6.5857    0.6933   17.5627 N   0  0  0  0  0  0  0  0  0  0  0  0
    7.1936    0.1088   18.6034 C   0  0  0  0  0  0  0  0  0  0  0  0
    8.1425   -0.3856   18.3962 H   0  0  0  0  0  0  0  0  0  0  0  0
    4.9268    1.7587   16.9550 H   0  0  0  0  0  0  0  0  0  0  0  0
    3.8807    1.8635   19.2093 H   0  0  0  0  0  0  0  0  0  0  0  0
    5.0562    0.8174   21.1662 H   0  0  0  0  0  0  0  0  0  0  0  0
    8.4046   -1.0553   20.5238 H   0  0  0  0  0  0  0  0  0  0  0  0
    7.0023    0.5600   22.5738 H   0  0  0  0  0  0  0  0  0  0  0  0
    4.9335    3.8214   24.8035 H   0  0  0  0  0  0  0  0  0  0  0  0
    6.2194    4.9945   26.5673 H   0  0  0  0  0  0  0  0  0  0  0  0
    8.7824    4.5772   26.4965 H   0  0  0  0  0  0  0  0  0  0  0  0
   11.7076    2.3527   22.2977 H   0  0  0  0  0  0  0  0  0  0  0  0
   11.5006    0.8566   23.1794 H   0  0  0  0  0  0  0  0  0  0  0  0
   12.1700    2.2792   24.0296 H   0  0  0  0  0  0  0  0  0  0  0  0
  1  2  1  0
  2  3  2  0
  3  4  1  0
  4  5  1  0
  5  6  2  0
  6  7  1  0
  7  8  1  0
  8  9  2  0
  8 10  1  0
 10 11  2  0
 11 12  1  0
 12 13  2  0
 12 14  1  0
 14 15  1  0
 15 16  1  0
 16 17  1  0
 17 18  1  0
 18 19  1  0
 19 20  1  0
 18 21  1  0
 18 22  1  0
 17 23  1  0
 17 24  1  0
 16 25  1  0
 16 26  1  0
 15 27  1  0
 27 28  2  0
 28 29  1  0
 29 30  2  0
 30 31  1  0
 31 32  2  0
 32 33  1  0
 30 34  1  0
 29 35  1  0
 28 36  1  0
 15 37  1  0
 14 38  1  0
  7 39  1  0
  6 40  1  0
  5 41  1  0
  1 42  1  0
  1 43  1  0
  1 44  1  0
 11  2  1  0
 32 27  1  0
 10  4  1  0
M  END
>  <plip>  (1) 
-0.14285714285714285

>  <filename>  (1) 
[H][O][C]([H])([H])[C]([H])([H])[C]([H])([H])[C]([H])([c]1[c]([H])[n][c]([H])[c]([H])[c]1[H])[N]([H])[C](=[O])[c]1[c]([C]([H])([H])[H])[n][n]2[c]([H])[c]([H])[n]([H])[c](=[O])[c]12

$$$$
