
     RDKit          3D

 28 30  0  0  0  0  0  0  0  0999 V2000
    8.4260   -0.2243   24.9578 H   0  0  0  0  0  0  0  0  0  0  0  0
    8.4384   -1.1965   24.4644 C   0  0  0  0  0  0  0  0  0  0  0  0
    8.6290   -2.3282   25.1673 C   0  0  0  0  0  0  0  0  0  0  0  0
    9.0268   -2.3665   26.8891 S   0  0  0  0  0  0  0  0  0  0  0  0
    8.8308   -4.1512   26.9331 C   0  0  0  0  0  0  0  0  0  0  0  0
    9.0851   -4.8841   27.8395 O   0  0  0  0  0  0  0  0  0  0  0  0
    8.3396   -4.5717   25.7228 N   0  0  0  0  0  0  0  0  0  0  0  0
    8.3066   -5.5565   25.5405 H   0  0  0  0  0  0  0  0  0  0  0  0
    8.3724   -3.6908   24.6810 C   0  0  0  0  0  0  0  0  0  0  0  0
    8.2159   -4.0904   23.5370 O   0  0  0  0  0  0  0  0  0  0  0  0
    8.1518   -1.1741   23.1104 N   0  0  0  0  0  0  0  0  0  0  0  0
    7.2677   -0.2647   22.4958 C   0  0  0  0  0  0  0  0  0  0  0  0
    6.5517    0.5012   23.1191 O   0  0  0  0  0  0  0  0  0  0  0  0
    7.4744   -0.5101   21.0421 C   0  0  0  0  0  0  0  0  0  0  0  0
    6.7373    0.1123   19.9269 C   0  0  0  0  0  0  0  0  0  0  0  0
    7.2110    0.0692   18.5943 C   0  0  0  0  0  0  0  0  0  0  0  0
    8.1450   -0.4433   18.3635 H   0  0  0  0  0  0  0  0  0  0  0  0
    6.5859    0.6316   17.5550 N   0  0  0  0  0  0  0  0  0  0  0  0
    5.4283    1.2656   17.8036 C   0  0  0  0  0  0  0  0  0  0  0  0
    4.9450    1.7266   16.9464 H   0  0  0  0  0  0  0  0  0  0  0  0
    4.8506    1.3423   19.0736 C   0  0  0  0  0  0  0  0  0  0  0  0
    3.9149    1.8694   19.2051 H   0  0  0  0  0  0  0  0  0  0  0  0
    5.5107    0.7596   20.1531 C   0  0  0  0  0  0  0  0  0  0  0  0
    5.1183    0.7935   21.1701 H   0  0  0  0  0  0  0  0  0  0  0  0
    8.4274   -1.4755   20.9488 C   0  0  0  0  0  0  0  0  0  0  0  0
    8.9332   -1.8379   20.0653 H   0  0  0  0  0  0  0  0  0  0  0  0
    8.8530   -1.9439   22.1763 N   0  0  0  0  0  0  0  0  0  0  0  0
    8.7622   -2.9497   22.4163 H   0  0  0  0  0  0  0  0  0  0  0  0
  1  2  1  0
  2  3  2  3
  3  4  1  0
  4  5  1  0
  5  6  2  0
  5  7  1  0
  7  8  1  0
  7  9  1  0
  9 10  2  0
  2 11  1  0
 11 12  1  0
 12 13  2  0
 12 14  1  0
 14 15  1  0
 15 16  2  0
 16 17  1  0
 16 18  1  0
 18 19  2  0
 19 20  1  0
 19 21  1  0
 21 22  1  0
 21 23  2  0
 23 24  1  0
 14 25  2  0
 25 26  1  0
 25 27  1  0
 27 28  1  0
  9  3  1  0
 27 11  1  0
 23 15  1  0
M  END
>  <plip>  (1) 
-0.06896551724137931

>  <filename>  (1) 
[H][C](=[C]1[S][C](=[O])[N]([H])[C]1=[O])[n]1[c](=[O])[c](-[c]2[c]([H])[n][c]([H])[c]([H])[c]2[H])[c]([H])[n]1[H]

$$$$
