
     RDKit          3D

 33 35  0  0  0  0  0  0  0  0999 V2000
    9.1391   -4.4657   23.4468 H   0  0  0  0  0  0  0  0  0  0  0  0
    9.5829   -3.7669   22.9473 O   0  0  0  0  0  0  0  0  0  0  0  0
    8.6518   -2.7083   22.7913 C   0  0  1  0  0  0  0  0  0  0  0  0
    7.7281   -3.0592   22.3020 H   0  0  0  0  0  0  0  0  0  0  0  0
    8.2546   -2.0829   24.1332 C   0  0  0  0  0  0  0  0  0  0  0  0
    9.2149   -1.8142   25.1204 C   0  0  0  0  0  0  0  0  0  0  0  0
   10.2489   -2.0947   24.9435 H   0  0  0  0  0  0  0  0  0  0  0  0
    8.8494   -1.1867   26.3139 C   0  0  0  0  0  0  0  0  0  0  0  0
    9.6064   -0.9848   27.0695 H   0  0  0  0  0  0  0  0  0  0  0  0
    7.5144   -0.8211   26.5310 C   0  0  0  0  0  0  0  0  0  0  0  0
    7.2290   -0.3443   27.4668 H   0  0  0  0  0  0  0  0  0  0  0  0
    6.5534   -1.0692   25.5430 C   0  0  0  0  0  0  0  0  0  0  0  0
    5.5162   -0.7820   25.6992 H   0  0  0  0  0  0  0  0  0  0  0  0
    6.9276   -1.6899   24.3459 C   0  0  0  0  0  0  0  0  0  0  0  0
    6.1934   -1.8500   23.5580 H   0  0  0  0  0  0  0  0  0  0  0  0
    9.2564   -1.6835   21.8756 C   0  0  0  0  0  0  0  0  0  0  0  0
    8.6317   -0.7417   21.0795 C   0  0  0  0  0  0  0  0  0  0  0  0
    7.2700   -0.6966   20.9344 O   0  0  0  0  0  0  0  0  0  0  0  0
    6.6897    0.0100   19.9098 C   0  0  0  0  0  0  0  0  0  0  0  0
    7.1943    0.0443   18.5977 C   0  0  0  0  0  0  0  0  0  0  0  0
    8.1355   -0.4448   18.3551 H   0  0  0  0  0  0  0  0  0  0  0  0
    6.5719    0.6592   17.5833 N   0  0  0  0  0  0  0  0  0  0  0  0
    5.4135    1.2816   17.8472 C   0  0  0  0  0  0  0  0  0  0  0  0
    4.9418    1.7847   17.0057 H   0  0  0  0  0  0  0  0  0  0  0  0
    4.8327    1.2967   19.1206 C   0  0  0  0  0  0  0  0  0  0  0  0
    3.8964    1.8182   19.2692 H   0  0  0  0  0  0  0  0  0  0  0  0
    5.4728    0.6415   20.1756 C   0  0  0  0  0  0  0  0  0  0  0  0
    5.0586    0.6003   21.1834 H   0  0  0  0  0  0  0  0  0  0  0  0
    9.6569    0.1161   20.6277 C   0  0  0  0  0  0  0  0  0  0  0  0
    9.6124    0.9662   19.9608 H   0  0  0  0  0  0  0  0  0  0  0  0
   10.8353   -0.2683   21.1108 N   0  0  0  0  0  0  0  0  0  0  0  0
   10.5759   -1.3470   21.8485 N   0  0  0  0  0  0  0  0  0  0  0  0
   11.3455   -1.8263   22.3030 H   0  0  0  0  0  0  0  0  0  0  0  0
  1  2  1  0
  2  3  1  0
  3  4  1  6
  3  5  1  0
  5  6  2  0
  6  7  1  0
  6  8  1  0
  8  9  1  0
  8 10  2  0
 10 11  1  0
 10 12  1  0
 12 13  1  0
 12 14  2  0
 14 15  1  0
  3 16  1  0
 16 17  2  0
 17 18  1  0
 18 19  1  0
 19 20  2  0
 20 21  1  0
 20 22  1  0
 22 23  2  0
 23 24  1  0
 23 25  1  0
 25 26  1  0
 25 27  2  0
 27 28  1  0
 17 29  1  0
 29 30  1  0
 29 31  2  0
 31 32  1  0
 32 33  1  0
 14  5  1  0
 32 16  1  0
 27 19  1  0
M  END
>  <plip>  (1) 
-0.06896551724137931

>  <filename>  (1) 
[H][O][C@@]([H])([c]1[c]([H])[c]([H])[c]([H])[c]([H])[c]1[H])[c]1[c]([O][c]2[c]([H])[n][c]([H])[c]([H])[c]2[H])[c]([H])[n][n]1[H]

$$$$
