
     RDKit          3D

 47 50  0  0  0  0  0  0  0  0999 V2000
    8.0810    1.9431   22.2229 O   0  0  0  0  0  0  0  0  0  0  0  0
    8.9607    1.2543   21.7547 C   0  0  0  0  0  0  0  0  0  0  0  0
   10.2999    1.5482   21.8059 N   0  0  0  0  0  0  0  0  0  0  0  0
   10.7449    2.6855   22.4254 C   0  0  0  0  0  0  0  0  0  0  0  0
   11.9426    3.1434   22.1708 N   0  0  0  0  0  0  0  0  0  0  0  0
   12.0772    4.2556   22.9949 O   0  0  0  0  0  0  0  0  0  0  0  0
   10.9500    4.4013   23.7125 C   0  0  0  0  0  0  0  0  0  0  0  0
   10.8192    5.4809   24.6994 C   0  0  0  0  0  0  0  0  0  0  0  0
    9.6343    5.6121   25.4490 C   0  0  0  0  0  0  0  0  0  0  0  0
    9.4863    6.6164   26.4057 C   0  0  0  0  0  0  0  0  0  0  0  0
   10.5352    7.5156   26.6282 C   0  0  0  0  0  0  0  0  0  0  0  0
   11.7191    7.4080   25.8971 C   0  0  0  0  0  0  0  0  0  0  0  0
   11.8505    6.4003   24.9444 C   0  0  0  0  0  0  0  0  0  0  0  0
   12.9960    6.3261   24.2618 F   0  0  0  0  0  0  0  0  0  0  0  0
   12.5563    8.0827   26.0354 H   0  0  0  0  0  0  0  0  0  0  0  0
   10.4281    8.3014   27.3711 H   0  0  0  0  0  0  0  0  0  0  0  0
    8.5604    6.6973   26.9677 H   0  0  0  0  0  0  0  0  0  0  0  0
    8.8113    4.9200   25.2832 H   0  0  0  0  0  0  0  0  0  0  0  0
   10.0542    3.4385   23.3947 C   0  0  0  0  0  0  0  0  0  0  0  0
    9.0503    3.2676   23.7419 H   0  0  0  0  0  0  0  0  0  0  0  0
   10.8807    1.2170   21.0615 H   0  0  0  0  0  0  0  0  0  0  0  0
    8.7869    0.0552   21.1042 N   0  0  0  0  0  0  0  0  0  0  0  0
    7.4265   -0.5035   21.1224 C   0  0  0  0  0  0  0  0  0  0  0  0
    6.6488    0.1727   20.0040 C   0  0  0  0  0  0  0  0  0  0  0  0
    5.4007    0.7850   20.1863 C   0  0  0  0  0  0  0  0  0  0  0  0
    4.7648    1.3659   19.0813 C   0  0  0  0  0  0  0  0  0  0  0  0
    5.3992    1.3077   17.8359 C   0  0  0  0  0  0  0  0  0  0  0  0
    6.5844    0.7106   17.6369 N   0  0  0  0  0  0  0  0  0  0  0  0
    7.1904    0.1841   18.7061 C   0  0  0  0  0  0  0  0  0  0  0  0
    8.1759   -0.2486   18.5264 H   0  0  0  0  0  0  0  0  0  0  0  0
    4.9366    1.7456   16.9534 H   0  0  0  0  0  0  0  0  0  0  0  0
    3.8100    1.8731   19.1733 H   0  0  0  0  0  0  0  0  0  0  0  0
    4.9500    0.8318   21.1811 H   0  0  0  0  0  0  0  0  0  0  0  0
    7.5260   -2.0366   20.9602 C   0  0  0  0  0  0  0  0  0  0  0  0
    6.1738   -2.7588   20.8162 C   0  0  0  0  0  0  0  0  0  0  0  0
    5.9843   -3.4046   22.1940 C   0  0  0  0  0  0  0  0  0  0  0  0
    7.4280   -3.7186   22.5813 C   0  0  0  0  0  0  0  0  0  0  0  0
    8.1746   -2.6093   22.0979 O   0  0  0  0  0  0  0  0  0  0  0  0
    7.7860   -4.6511   22.1094 H   0  0  0  0  0  0  0  0  0  0  0  0
    7.5913   -3.7878   23.6622 H   0  0  0  0  0  0  0  0  0  0  0  0
    5.5563   -2.6831   22.9036 H   0  0  0  0  0  0  0  0  0  0  0  0
    5.3419   -4.2902   22.1800 H   0  0  0  0  0  0  0  0  0  0  0  0
    5.3858   -2.0463   20.5612 H   0  0  0  0  0  0  0  0  0  0  0  0
    6.2089   -3.5041   20.0117 H   0  0  0  0  0  0  0  0  0  0  0  0
    8.1952   -2.1593   20.1084 H   0  0  0  0  0  0  0  0  0  0  0  0
    6.9285   -0.3141   22.0892 H   0  0  0  0  0  0  0  0  0  0  0  0
    9.5202   -0.5853   21.3710 H   0  0  0  0  0  0  0  0  0  0  0  0
  1  2  2  0
  2  3  1  0
  3  4  1  0
  4  5  2  0
  5  6  1  0
  6  7  1  0
  7  8  1  0
  8  9  2  0
  9 10  1  0
 10 11  2  0
 11 12  1  0
 12 13  2  0
 13 14  1  0
 12 15  1  0
 11 16  1  0
 10 17  1  0
  9 18  1  0
  7 19  2  0
 19 20  1  0
  3 21  1  0
  2 22  1  0
 22 23  1  0
 23 24  1  0
 24 25  2  0
 25 26  1  0
 26 27  2  0
 27 28  1  0
 28 29  2  0
 29 30  1  0
 27 31  1  0
 26 32  1  0
 25 33  1  0
 23 34  1  0
 34 35  1  0
 35 36  1  0
 36 37  1  0
 37 38  1  0
 37 39  1  0
 37 40  1  0
 36 41  1  0
 36 42  1  0
 35 43  1  0
 35 44  1  0
 34 45  1  0
 23 46  1  0
 22 47  1  0
 19  4  1  0
 29 24  1  0
 38 34  1  0
 13  8  1  0
M  END
>  <plip>  (1) 
-0.12903225806451613

>  <filename>  (1) 
[H][c]1[n][c]([H])[c]([C]([H])([N]([H])[C](=[O])[N]([H])[c]2[n][o][c](-[c]3[c]([H])[c]([H])[c]([H])[c]([H])[c]3[F])[c]2[H])[C]2([H])[O][C]([H])([H])[C]([H])([H])[C]2([H])[H])[c]([H])[c]1[H]

$$$$
