
     RDKit          3D

 36 38  0  0  0  0  0  0  0  0999 V2000
   10.1028    2.6320   21.8824 C   0  0  0  0  0  0  0  0  0  0  0  0
    9.2487    1.9964   22.7053 C   0  0  0  0  0  0  0  0  0  0  0  0
    7.9884    1.3161   22.2759 C   0  0  0  0  0  0  0  0  0  0  0  0
    8.4379    0.0850   21.5148 N   0  0  0  0  0  4  0  0  0  0  0  0
    7.3722   -0.7970   21.0067 C   0  0  0  0  0  0  0  0  0  0  0  0
    6.6595   -0.0490   19.9046 C   0  0  0  0  0  0  0  0  0  0  0  0
    5.4607    0.6316   20.1446 C   0  0  0  0  0  0  0  0  0  0  0  0
    4.8449    1.3072   19.0902 C   0  0  0  0  0  0  0  0  0  0  0  0
    5.4669    1.3106   17.8401 C   0  0  0  0  0  0  0  0  0  0  0  0
    6.6350    0.6967   17.5958 N   0  0  0  0  0  0  0  0  0  0  0  0
    7.2149    0.0524   18.6177 C   0  0  0  0  0  0  0  0  0  0  0  0
    8.1633   -0.4297   18.3747 H   0  0  0  0  0  0  0  0  0  0  0  0
    5.0011    1.8299   17.0026 H   0  0  0  0  0  0  0  0  0  0  0  0
    3.9070    1.8304   19.2327 H   0  0  0  0  0  0  0  0  0  0  0  0
    5.0457    0.6591   21.1563 H   0  0  0  0  0  0  0  0  0  0  0  0
    7.8120   -1.7293   20.6474 H   0  0  0  0  0  0  0  0  0  0  0  0
    6.6583   -1.0512   21.8017 H   0  0  0  0  0  0  0  0  0  0  0  0
    9.1465   -0.3667   22.1260 H   0  0  0  0  0  0  0  0  0  0  0  0
    8.9149    0.4866   20.6764 H   0  0  0  0  0  0  0  0  0  0  0  0
    7.3855    1.9565   21.6249 H   0  0  0  0  0  0  0  0  0  0  0  0
    7.3618    1.0398   23.1317 H   0  0  0  0  0  0  0  0  0  0  0  0
    9.5958    1.9186   24.1776 C   0  0  0  0  0  0  0  0  0  0  0  0
   10.3522    3.0272   24.6616 O   0  0  0  0  0  0  0  0  0  0  0  0
   11.2547    3.6050   23.8225 C   0  0  0  0  0  0  0  0  0  0  0  0
   12.1971    4.4617   24.3983 C   0  0  0  0  0  0  0  0  0  0  0  0
   13.2110    4.9964   23.6136 C   0  0  0  0  0  0  0  0  0  0  0  0
   13.2537    4.7479   22.2331 C   0  0  0  0  0  0  0  0  0  0  0  0
   12.2384    4.0079   21.6443 C   0  0  0  0  0  0  0  0  0  0  0  0
   11.2153    3.4174   22.4253 C   0  0  0  0  0  0  0  0  0  0  0  0
   12.2401    3.8612   20.5670 H   0  0  0  0  0  0  0  0  0  0  0  0
   14.0813    5.1261   21.6345 H   0  0  0  0  0  0  0  0  0  0  0  0
   13.9702    5.6000   24.0907 H   0  0  0  0  0  0  0  0  0  0  0  0
   12.1448    4.6725   25.4588 H   0  0  0  0  0  0  0  0  0  0  0  0
   10.1223    0.9766   24.4157 H   0  0  0  0  0  0  0  0  0  0  0  0
    8.6833    1.9229   24.7799 H   0  0  0  0  0  0  0  0  0  0  0  0
   10.0019    2.5842   20.7994 H   0  0  0  0  0  0  0  0  0  0  0  0
  1  2  2  0
  2  3  1  0
  3  4  1  0
  4  5  1  0
  5  6  1  0
  6  7  2  0
  7  8  1  0
  8  9  2  0
  9 10  1  0
 10 11  2  0
 11 12  1  0
  9 13  1  0
  8 14  1  0
  7 15  1  0
  5 16  1  0
  5 17  1  0
  4 18  1  0
  4 19  1  0
  3 20  1  0
  3 21  1  0
  2 22  1  0
 22 23  1  0
 23 24  1  0
 24 25  2  0
 25 26  1  0
 26 27  2  0
 27 28  1  0
 28 29  2  0
 28 30  1  0
 27 31  1  0
 26 32  1  0
 25 33  1  0
 22 34  1  0
 22 35  1  0
  1 36  1  0
 29  1  1  0
 11  6  1  0
 29 24  1  0
M  CHG  1   4   1
M  END
>  <plip>  (1) 
-0.10714285714285714

>  <filename>  (1) 
[H][C]1=[C]([C]([H])([H])[N+]([H])([H])[C]([H])([H])[c]2[c]([H])[n][c]([H])[c]([H])[c]2[H])[C]([H])([H])[O][c]2[c]([H])[c]([H])[c]([H])[c]([H])[c]21

$$$$
