
     RDKit          3D

 53 55  0  0  0  0  0  0  0  0999 V2000
    8.7812    1.2212   22.0662 C   0  0  0  0  0  0  0  0  0  0  0  0
    8.6517   -0.0807   21.3838 N   0  0  0  0  0  4  0  0  0  0  0  0
    9.4199   -1.1998   22.0034 C   0  0  0  0  0  0  0  0  0  0  0  0
    8.8654   -2.4420   21.3010 C   0  0  0  0  0  0  0  0  0  0  0  0
    7.4397   -2.0545   20.8211 C   0  0  1  0  0  0  0  0  0  0  0  0
    6.3278   -2.9954   21.2510 C   0  0  0  0  0  0  0  0  0  0  0  0
    6.0829   -2.8236   22.7192 N   0  0  0  0  0  4  0  0  0  0  0  0
    5.5560   -4.0374   23.4078 C   0  0  0  0  0  0  0  0  0  0  0  0
    6.5871   -5.1429   23.7079 C   0  0  0  0  0  0  0  0  0  0  0  0
    5.8389   -6.3109   24.0088 O   0  0  0  0  0  0  0  0  0  0  0  0
    5.6093   -6.2619   24.9504 H   0  0  0  0  0  0  0  0  0  0  0  0
    7.6116   -4.8488   24.8271 C   0  0  0  0  0  0  0  0  0  0  0  0
    6.9715   -4.4552   26.1422 C   0  0  0  0  0  0  0  0  0  0  0  0
    6.6378   -3.1167   26.4124 C   0  0  0  0  0  0  0  0  0  0  0  0
    5.8830   -2.7829   27.5445 C   0  0  0  0  0  0  0  0  0  0  0  0
    5.4783   -3.7797   28.4370 C   0  0  0  0  0  0  0  0  0  0  0  0
    5.8574   -5.1071   28.2114 C   0  0  0  0  0  0  0  0  0  0  0  0
    6.5993   -5.4405   27.0703 C   0  0  0  0  0  0  0  0  0  0  0  0
    6.9039   -6.4756   26.9131 H   0  0  0  0  0  0  0  0  0  0  0  0
    5.5736   -5.8861   28.9132 H   0  0  0  0  0  0  0  0  0  0  0  0
    4.9106   -3.5189   29.3289 H   0  0  0  0  0  0  0  0  0  0  0  0
    5.6259   -1.7440   27.7321 H   0  0  0  0  0  0  0  0  0  0  0  0
    6.9501   -2.3341   25.7251 H   0  0  0  0  0  0  0  0  0  0  0  0
    8.2047   -5.7658   24.9658 H   0  0  0  0  0  0  0  0  0  0  0  0
    8.3175   -4.0764   24.4986 H   0  0  0  0  0  0  0  0  0  0  0  0
    7.1350   -5.3666   22.7834 H   0  0  0  0  0  0  0  0  0  0  0  0
    5.0634   -3.7600   24.3409 H   0  0  0  0  0  0  0  0  0  0  0  0
    4.7970   -4.5312   22.7966 H   0  0  0  0  0  0  0  0  0  0  0  0
    5.4165   -2.0119   22.8411 H   0  0  0  0  0  0  0  0  0  0  0  0
    6.9870   -2.5278   23.1579 H   0  0  0  0  0  0  0  0  0  0  0  0
    5.4132   -2.8209   20.6727 H   0  0  0  0  0  0  0  0  0  0  0  0
    6.6331   -4.0311   21.0500 H   0  0  0  0  0  0  0  0  0  0  0  0
    7.2246   -0.5741   21.2056 C   0  0  2  0  0  0  0  0  0  0  0  0
    6.5376    0.1995   20.1019 C   0  0  0  0  0  0  0  0  0  0  0  0
    5.3000    0.8456   20.2201 C   0  0  0  0  0  0  0  0  0  0  0  0
    4.7480    1.4401   19.0771 C   0  0  0  0  0  0  0  0  0  0  0  0
    5.4571    1.3773   17.8729 C   0  0  0  0  0  0  0  0  0  0  0  0
    6.6473    0.7742   17.7451 N   0  0  0  0  0  0  0  0  0  0  0  0
    7.1632    0.2165   18.8398 C   0  0  0  0  0  0  0  0  0  0  0  0
    8.1178   -0.2921   18.6933 H   0  0  0  0  0  0  0  0  0  0  0  0
    5.0621    1.8297   16.9663 H   0  0  0  0  0  0  0  0  0  0  0  0
    3.7976    1.9628   19.1027 H   0  0  0  0  0  0  0  0  0  0  0  0
    4.7674    0.8987   21.1759 H   0  0  0  0  0  0  0  0  0  0  0  0
    6.6994   -0.4423   22.1590 H   0  0  0  0  0  0  0  0  0  0  0  0
    7.4186   -2.0530   19.7315 H   0  0  0  0  0  0  0  0  0  0  0  0
    8.8840   -3.3088   21.9675 H   0  0  0  0  0  0  0  0  0  0  0  0
    9.5193   -2.7125   20.4625 H   0  0  0  0  0  0  0  0  0  0  0  0
   10.4966   -1.0727   21.8509 H   0  0  0  0  0  0  0  0  0  0  0  0
    9.2449   -1.2241   23.0905 H   0  0  0  0  0  0  0  0  0  0  0  0
    8.9751    0.0140   20.4021 H   0  0  0  0  0  0  0  0  0  0  0  0
    8.3867    1.1607   23.0931 H   0  0  0  0  0  0  0  0  0  0  0  0
    8.2158    1.9939   21.5346 H   0  0  0  0  0  0  0  0  0  0  0  0
    9.8301    1.5334   22.1326 H   0  0  0  0  0  0  0  0  0  0  0  0
  1  2  1  0
  2  3  1  0
  3  4  1  0
  4  5  1  0
  5  6  1  0
  6  7  1  0
  7  8  1  0
  8  9  1  0
  9 10  1  0
 10 11  1  0
  9 12  1  0
 12 13  1  0
 13 14  2  0
 14 15  1  0
 15 16  2  0
 16 17  1  0
 17 18  2  0
 18 19  1  0
 17 20  1  0
 16 21  1  0
 15 22  1  0
 14 23  1  0
 12 24  1  0
 12 25  1  0
  9 26  1  0
  8 27  1  0
  8 28  1  0
  7 29  1  0
  7 30  1  0
  6 31  1  0
  6 32  1  0
  5 33  1  0
 33 34  1  0
 34 35  2  0
 35 36  1  0
 36 37  2  0
 37 38  1  0
 38 39  2  0
 39 40  1  0
 37 41  1  0
 36 42  1  0
 35 43  1  0
 33 44  1  1
  5 45  1  6
  4 46  1  0
  4 47  1  0
  3 48  1  0
  3 49  1  0
  2 50  1  0
  1 51  1  0
  1 52  1  0
  1 53  1  0
 33  2  1  0
 39 34  1  0
 18 13  1  0
M  CHG  2   2   1   7   1
M  END
>  <plip>  (1) 
-0.13793103448275862

>  <filename>  (1) 
[H][O][C]([H])([C]([H])([H])[c]1[c]([H])[c]([H])[c]([H])[c]([H])[c]1[H])[C]([H])([H])[N+]([H])([H])[C]([H])([H])[C@]1([H])[C]([H])([H])[C]([H])([H])[N+]([H])([C]([H])([H])[H])[C@@]1([H])[c]1[c]([H])[n][c]([H])[c]([H])[c]1[H]

$$$$
