
     RDKit          3D

 46 50  0  0  0  0  0  0  0  0999 V2000
    4.8232    1.3660   18.9548 C   0  0  0  0  0  0  0  0  0  0  0  0
    5.4681    1.4429   17.7172 C   0  0  0  0  0  0  0  0  0  0  0  0
    6.7057    0.9723   17.5019 N   0  0  0  0  0  0  0  0  0  0  0  0
    7.3410    0.4241   18.5430 C   0  0  0  0  0  0  0  0  0  0  0  0
    6.7824    0.2706   19.8341 C   0  0  0  0  0  0  0  0  0  0  0  0
    7.5422   -0.3823   20.9612 C   0  0  0  0  0  0  0  0  0  0  0  0
    6.8138   -0.6120   22.2663 C   0  0  0  0  0  0  0  0  0  0  0  0
    6.6772   -1.7711   22.8512 N   0  0  0  0  0  0  0  0  0  0  0  0
    6.1737   -1.4426   24.1024 O   0  0  0  0  0  0  0  0  0  0  0  0
    6.0579   -0.1102   24.1369 C   0  0  0  0  0  0  0  0  0  0  0  0
    5.6284    0.5111   25.4485 C   0  0  0  0  0  0  0  0  0  0  0  0
    4.9667    1.8877   25.2818 C   0  0  0  0  0  0  0  0  0  0  0  0
    4.6086    2.5222   26.6358 C   0  0  0  0  0  0  0  0  0  0  0  0
    5.8375    2.6358   27.5505 C   0  0  0  0  0  0  0  0  0  0  0  0
    6.5131    1.2859   27.7228 C   0  0  0  0  0  0  0  0  0  0  0  0
    7.9163    1.2726   28.3267 C   0  0  0  0  0  0  0  0  0  0  0  0
    8.6237    0.0430   27.6939 C   0  0  0  0  0  0  0  0  0  0  0  0
    7.6117   -0.5404   26.7102 C   0  0  0  0  0  0  0  0  0  0  0  0
    6.8088    0.6788   26.3675 N   0  0  0  0  0  4  0  0  0  0  0  0
    7.4687    1.3753   25.9172 H   0  0  0  0  0  0  0  0  0  0  0  0
    6.9495   -1.2917   27.1597 H   0  0  0  0  0  0  0  0  0  0  0  0
    8.0666   -0.9987   25.8315 H   0  0  0  0  0  0  0  0  0  0  0  0
    9.5049    0.3400   27.1191 H   0  0  0  0  0  0  0  0  0  0  0  0
    8.9783   -0.6925   28.4148 H   0  0  0  0  0  0  0  0  0  0  0  0
    8.4116    2.2013   28.0205 H   0  0  0  0  0  0  0  0  0  0  0  0
    7.9015    1.2591   29.4159 H   0  0  0  0  0  0  0  0  0  0  0  0
    5.8402    0.5979   28.2564 H   0  0  0  0  0  0  0  0  0  0  0  0
    5.5729    3.0413   28.5311 H   0  0  0  0  0  0  0  0  0  0  0  0
    6.5648    3.3355   27.1187 H   0  0  0  0  0  0  0  0  0  0  0  0
    4.1639    3.5120   26.4809 H   0  0  0  0  0  0  0  0  0  0  0  0
    3.8372    1.9145   27.1296 H   0  0  0  0  0  0  0  0  0  0  0  0
    4.0579    1.7736   24.6812 H   0  0  0  0  0  0  0  0  0  0  0  0
    5.6608    2.5455   24.7390 H   0  0  0  0  0  0  0  0  0  0  0  0
    4.9249   -0.1961   25.9004 H   0  0  0  0  0  0  0  0  0  0  0  0
    6.4050    0.4624   23.0246 N   0  0  0  0  0  0  0  0  0  0  0  0
    8.6931   -1.3123   20.6430 C   0  0  0  0  0  0  0  0  0  0  0  0
    8.9998    0.0403   21.1786 C   0  0  0  0  0  0  0  0  0  0  0  0
    9.3475    0.1369   22.2043 H   0  0  0  0  0  0  0  0  0  0  0  0
    9.4103    0.7949   20.5100 H   0  0  0  0  0  0  0  0  0  0  0  0
    8.8306   -2.1746   21.2915 H   0  0  0  0  0  0  0  0  0  0  0  0
    8.9364   -1.5003   19.6030 H   0  0  0  0  0  0  0  0  0  0  0  0
    5.4823    0.7650   20.0237 C   0  0  0  0  0  0  0  0  0  0  0  0
    5.0227    0.7002   21.0120 H   0  0  0  0  0  0  0  0  0  0  0  0
    8.3558    0.0881   18.3342 H   0  0  0  0  0  0  0  0  0  0  0  0
    4.9758    1.8970   16.8604 H   0  0  0  0  0  0  0  0  0  0  0  0
    3.8358    1.7984   19.0853 H   0  0  0  0  0  0  0  0  0  0  0  0
  1  2  2  0
  2  3  1  0
  3  4  2  0
  4  5  1  0
  5  6  1  0
  6  7  1  0
  7  8  2  0
  8  9  1  0
  9 10  1  0
 10 11  1  0
 11 12  1  0
 12 13  1  0
 13 14  1  0
 14 15  1  0
 15 16  1  0
 16 17  1  0
 17 18  1  0
 18 19  1  0
 19 20  1  0
 18 21  1  0
 18 22  1  0
 17 23  1  0
 17 24  1  0
 16 25  1  0
 16 26  1  0
 15 27  1  0
 14 28  1  0
 14 29  1  0
 13 30  1  0
 13 31  1  0
 12 32  1  0
 12 33  1  0
 11 34  1  0
 10 35  2  0
  6 36  1  0
 36 37  1  0
 37 38  1  0
 37 39  1  0
 36 40  1  0
 36 41  1  0
  5 42  2  0
 42 43  1  0
  4 44  1  0
  2 45  1  0
  1 46  1  0
 42  1  1  0
 37  6  1  0
 35  7  1  0
 19 11  1  0
 19 15  1  0
M  CHG  1  19   1
M  END
>  <plip>  (1) 
-0.07142857142857142

>  <filename>  (1) 
[H][c]1[n][c]([H])[c]([C]2([c]3[n][o][c]([C]4([H])[C]([H])([H])[C]([H])([H])[C]([H])([H])[C]5([H])[C]([H])([H])[C]([H])([H])[C]([H])([H])[N+]45[H])[n]3)[C]([H])([H])[C]2([H])[H])[c]([H])[c]1[H]

$$$$
