
     RDKit          3D

 35 37  0  0  0  0  0  0  0  0999 V2000
    4.9988    1.8948   16.8386 H   0  0  0  0  0  0  0  0  0  0  0  0
    5.4772    1.3594   17.6543 C   0  0  0  0  0  0  0  0  0  0  0  0
    6.6105    0.7154   17.3326 N   0  0  0  0  0  0  0  0  0  0  0  0
    7.2456    0.0551   18.3110 C   0  0  0  0  0  0  0  0  0  0  0  0
    8.1536   -0.4637   18.0042 H   0  0  0  0  0  0  0  0  0  0  0  0
    6.7866   -0.0028   19.6443 C   0  0  0  0  0  0  0  0  0  0  0  0
    7.4833   -0.7462   20.7152 C   0  0  0  0  0  0  0  0  0  0  0  0
    6.9733   -1.3721   21.8262 C   0  0  0  0  0  0  0  0  0  0  0  0
    5.9355   -1.5300   22.0640 H   0  0  0  0  0  0  0  0  0  0  0  0
    8.0855   -1.7972   22.5883 C   0  0  0  0  0  0  0  0  0  0  0  0
    8.0558   -2.3967   23.8498 N   0  0  0  0  0  0  0  0  0  0  0  0
    8.9976   -3.4940   24.1134 C   0  0  0  0  0  0  0  0  0  0  0  0
    9.9839   -3.1934   23.7503 H   0  0  0  0  0  0  0  0  0  0  0  0
    8.6928   -4.3983   23.5615 H   0  0  0  0  0  0  0  0  0  0  0  0
    9.0612   -3.8281   25.6121 C   0  0  0  0  0  0  0  0  0  0  0  0
    9.4979   -2.9581   26.1430 H   0  0  0  0  0  0  0  0  0  0  0  0
    9.7370   -4.6777   25.7518 H   0  0  0  0  0  0  0  0  0  0  0  0
    7.7422   -4.1875   26.1555 N   0  0  0  0  0  0  0  0  0  0  0  0
    7.8364   -4.5400   27.5677 C   0  0  0  0  0  0  0  0  0  0  0  0
    8.4819   -5.4161   27.6996 H   0  0  0  0  0  0  0  0  0  0  0  0
    6.8480   -4.7940   27.9656 H   0  0  0  0  0  0  0  0  0  0  0  0
    8.2543   -3.7217   28.1798 H   0  0  0  0  0  0  0  0  0  0  0  0
    6.8221   -3.0621   25.9284 C   0  0  0  0  0  0  0  0  0  0  0  0
    7.0967   -2.1675   26.5232 H   0  0  0  0  0  0  0  0  0  0  0  0
    5.8186   -3.3693   26.2399 H   0  0  0  0  0  0  0  0  0  0  0  0
    6.7395   -2.6557   24.4451 C   0  0  0  0  0  0  0  0  0  0  0  0
    6.2062   -3.4532   23.8988 H   0  0  0  0  0  0  0  0  0  0  0  0
    6.1484   -1.7372   24.3619 H   0  0  0  0  0  0  0  0  0  0  0  0
    9.2219   -1.4980   21.9613 N   0  0  0  0  0  0  0  0  0  0  0  0
    8.8295   -0.8689   20.8260 N   0  0  0  0  0  0  0  0  0  0  0  0
    9.5156   -0.4656   20.2006 H   0  0  0  0  0  0  0  0  0  0  0  0
    5.5885    0.6712   19.9520 C   0  0  0  0  0  0  0  0  0  0  0  0
    5.2159    0.6594   20.9783 H   0  0  0  0  0  0  0  0  0  0  0  0
    4.9225    1.3627   18.9397 C   0  0  0  0  0  0  0  0  0  0  0  0
    3.9983    1.8985   19.1333 H   0  0  0  0  0  0  0  0  0  0  0  0
  1  2  1  0
  2  3  2  0
  3  4  1  0
  4  5  1  0
  4  6  2  0
  6  7  1  0
  7  8  2  0
  8  9  1  0
  8 10  1  0
 10 11  1  0
 11 12  1  0
 12 13  1  0
 12 14  1  0
 12 15  1  0
 15 16  1  0
 15 17  1  0
 15 18  1  0
 18 19  1  0
 19 20  1  0
 19 21  1  0
 19 22  1  0
 18 23  1  0
 23 24  1  0
 23 25  1  0
 23 26  1  0
 26 27  1  0
 26 28  1  0
 10 29  2  0
 29 30  1  0
 30 31  1  0
  6 32  1  0
 32 33  1  0
 32 34  2  0
 34 35  1  0
 34  2  1  0
 30  7  1  0
 26 11  1  0
M  END
>  <plip>  (1) 
-0.06896551724137931

>  <filename>  (1) 
[H][c]1[n][c]([H])[c](-[c]2[c]([H])[c]([N]3[C]([H])([H])[C]([H])([H])[N]([C]([H])([H])[H])[C]([H])([H])[C]3([H])[H])[n][n]2[H])[c]([H])[c]1[H]

$$$$
