
     RDKit          3D

 30 32  0  0  0  0  0  0  0  0999 V2000
    4.7723    1.3513   19.0604 C   0  0  0  0  0  0  0  0  0  0  0  0
    5.3839    1.3189   17.8036 C   0  0  0  0  0  0  0  0  0  0  0  0
    6.5448    0.6906   17.5577 N   0  0  0  0  0  0  0  0  0  0  0  0
    7.1372    0.0742   18.5897 C   0  0  0  0  0  0  0  0  0  0  0  0
    6.6229    0.0547   19.9069 C   0  0  0  0  0  0  0  0  0  0  0  0
    7.3237   -0.6953   20.9787 C   0  0  0  0  0  0  0  0  0  0  0  0
    7.6683   -2.0269   21.0074 C   0  0  0  0  0  0  0  0  0  0  0  0
    8.4903   -2.1674   22.1470 C   0  0  0  0  0  0  0  0  0  0  0  0
    8.6157   -1.0209   22.7917 N   0  0  0  0  0  0  0  0  0  0  0  0
    7.8620   -0.1341   22.1101 N   0  0  0  0  0  0  0  0  0  0  0  0
    7.5659    1.1535   22.7318 C   0  0  0  0  0  0  0  0  0  0  0  0
    6.4785    1.1301   23.8306 C   0  0  0  0  0  0  0  0  0  0  0  0
    6.8647    0.4063   25.0931 C   0  0  0  0  0  0  0  0  0  0  0  0
    6.5387   -0.8642   25.4773 C   0  0  0  0  0  0  0  0  0  0  0  0
    7.2286   -1.2285   26.6710 C   0  0  0  0  0  0  0  0  0  0  0  0
    8.0005   -0.3151   27.2053 N   0  0  0  0  0  0  0  0  0  0  0  0
    7.9312    1.0541   26.2759 S   0  0  0  0  0  0  0  0  0  0  0  0
    7.1724   -2.1955   27.1696 H   0  0  0  0  0  0  0  0  0  0  0  0
    5.8703   -1.5111   24.9180 H   0  0  0  0  0  0  0  0  0  0  0  0
    6.2286    2.1696   24.0686 H   0  0  0  0  0  0  0  0  0  0  0  0
    5.5640    0.6839   23.4211 H   0  0  0  0  0  0  0  0  0  0  0  0
    7.2634    1.8378   21.9391 H   0  0  0  0  0  0  0  0  0  0  0  0
    8.4997    1.5378   23.1442 H   0  0  0  0  0  0  0  0  0  0  0  0
    9.0061   -3.0418   22.5317 H   0  0  0  0  0  0  0  0  0  0  0  0
    7.3183   -2.7644   20.3030 H   0  0  0  0  0  0  0  0  0  0  0  0
    5.4050    0.7139   20.1282 C   0  0  0  0  0  0  0  0  0  0  0  0
    4.9563    0.6987   21.1234 H   0  0  0  0  0  0  0  0  0  0  0  0
    8.0840   -0.4153   18.3596 H   0  0  0  0  0  0  0  0  0  0  0  0
    4.9211    1.8165   16.9561 H   0  0  0  0  0  0  0  0  0  0  0  0
    3.8276    1.8666   19.1910 H   0  0  0  0  0  0  0  0  0  0  0  0
  1  2  2  0
  2  3  1  0
  3  4  2  0
  4  5  1  0
  5  6  1  0
  6  7  2  0
  7  8  1  0
  8  9  2  0
  9 10  1  0
 10 11  1  0
 11 12  1  0
 12 13  1  0
 13 14  2  0
 14 15  1  0
 15 16  2  0
 16 17  1  0
 15 18  1  0
 14 19  1  0
 12 20  1  0
 12 21  1  0
 11 22  1  0
 11 23  1  0
  8 24  1  0
  7 25  1  0
  5 26  2  0
 26 27  1  0
  4 28  1  0
  2 29  1  0
  1 30  1  0
 26  1  1  0
 10  6  1  0
 17 13  1  0
M  END
>  <plip>  (1) 
-0.03571428571428571

>  <filename>  (1) 
[H][c]1[n][s][c]([C]([H])([H])[C]([H])([H])[n]2[n][c]([H])[c]([H])[c]2-[c]2[c]([H])[n][c]([H])[c]([H])[c]2[H])[c]1[H]

$$$$
