
     RDKit          3D

 27 29  0  0  0  0  0  0  0  0999 V2000
    4.8023    1.3093   19.1100 C   0  0  0  0  0  0  0  0  0  0  0  0
    5.4048    1.2892   17.8429 C   0  0  0  0  0  0  0  0  0  0  0  0
    6.5646    0.6720   17.5802 N   0  0  0  0  0  0  0  0  0  0  0  0
    7.1671    0.0617   18.6011 C   0  0  0  0  0  0  0  0  0  0  0  0
    6.6474    0.0172   19.9031 C   0  0  0  0  0  0  0  0  0  0  0  0
    7.4293   -0.7056   20.9025 C   0  0  0  0  0  0  0  0  0  0  0  0
    8.5542   -1.3272   20.7690 N   0  0  0  0  0  0  0  0  0  0  0  0
    8.8557   -1.8616   22.0160 N   0  0  0  0  0  0  0  0  0  0  0  0
    7.8883   -1.5216   22.8006 C   0  0  0  0  0  0  0  0  0  0  0  0
    7.7817   -1.8213   24.2657 C   0  0  0  0  0  0  0  0  0  0  0  0
    7.9299   -0.5780   25.1735 C   0  0  0  0  0  0  0  0  0  0  0  0
    6.5262   -0.0183   25.4147 C   0  0  0  0  0  0  0  0  0  0  0  0
    5.6117   -1.2059   25.7208 C   0  0  0  0  0  0  0  0  0  0  0  0
    6.1952   -2.6066   24.7208 S   0  0  0  0  0  0  0  0  0  0  0  0
    5.6714   -1.5101   26.7688 H   0  0  0  0  0  0  0  0  0  0  0  0
    4.5635   -1.0065   25.4830 H   0  0  0  0  0  0  0  0  0  0  0  0
    6.5180    0.6959   26.2434 H   0  0  0  0  0  0  0  0  0  0  0  0
    6.1708    0.5112   24.5242 H   0  0  0  0  0  0  0  0  0  0  0  0
    8.6079    0.1639   24.7350 H   0  0  0  0  0  0  0  0  0  0  0  0
    8.3921   -0.8769   26.1234 H   0  0  0  0  0  0  0  0  0  0  0  0
    8.5798   -2.5408   24.4519 H   0  0  0  0  0  0  0  0  0  0  0  0
    6.9548   -0.7758   22.1681 O   0  0  0  0  0  0  0  0  0  0  0  0
    5.4247    0.6568   20.1736 C   0  0  0  0  0  0  0  0  0  0  0  0
    4.9857    0.6455   21.1773 H   0  0  0  0  0  0  0  0  0  0  0  0
    8.1139   -0.4245   18.3845 H   0  0  0  0  0  0  0  0  0  0  0  0
    4.9311    1.7808   16.9963 H   0  0  0  0  0  0  0  0  0  0  0  0
    3.8707    1.8450   19.2506 H   0  0  0  0  0  0  0  0  0  0  0  0
  1  2  2  0
  2  3  1  0
  3  4  2  0
  4  5  1  0
  5  6  1  0
  6  7  2  0
  7  8  1  0
  8  9  2  0
  9 10  1  0
 10 11  1  0
 11 12  1  0
 12 13  1  0
 13 14  1  0
 13 15  1  0
 13 16  1  0
 12 17  1  0
 12 18  1  0
 11 19  1  0
 11 20  1  0
 10 21  1  0
  9 22  1  0
  5 23  2  0
 23 24  1  0
  4 25  1  0
  2 26  1  0
  1 27  1  0
 23  1  1  0
 22  6  1  0
 14 10  1  0
M  END
>  <plip>  (1) 
-0.0

>  <filename>  (1) 
[H][c]1[n][c]([H])[c](-[c]2[n][n][c]([C]3([H])[S][C]([H])([H])[C]([H])([H])[C]3([H])[H])[o]2)[c]([H])[c]1[H]

$$$$
