
     RDKit          3D

 33 35  0  0  0  0  0  0  0  0999 V2000
    8.3844   -2.2526   23.6450 H   0  0  0  0  0  0  0  0  0  0  0  0
    8.4846   -2.2732   22.6774 O   0  0  0  0  0  0  0  0  0  0  0  0
    9.0955   -1.0258   22.3790 N   0  0  0  0  0  0  0  0  0  0  0  0
    8.6466   -0.3568   21.1637 C   0  0  0  0  0  0  0  0  0  0  0  0
    9.3255    0.4840   20.6203 O   0  0  0  0  0  0  0  0  0  0  0  0
    7.4052   -0.7581   20.7238 N   0  0  0  0  0  0  0  0  0  0  0  0
    6.8795   -1.2890   21.3995 H   0  0  0  0  0  0  0  0  0  0  0  0
    6.6913   -0.0617   19.7091 C   0  0  0  0  0  0  0  0  0  0  0  0
    7.1575    0.0416   18.3777 C   0  0  0  0  0  0  0  0  0  0  0  0
    8.1026   -0.4294   18.1092 H   0  0  0  0  0  0  0  0  0  0  0  0
    6.5097    0.7092   17.4137 N   0  0  0  0  0  0  0  0  0  0  0  0
    5.3686    1.3376   17.7461 C   0  0  0  0  0  0  0  0  0  0  0  0
    4.8826    1.8923   16.9456 H   0  0  0  0  0  0  0  0  0  0  0  0
    4.8207    1.2932   19.0341 C   0  0  0  0  0  0  0  0  0  0  0  0
    3.9019    1.8297   19.2404 H   0  0  0  0  0  0  0  0  0  0  0  0
    5.4881    0.5723   20.0320 C   0  0  0  0  0  0  0  0  0  0  0  0
    5.1046    0.5195   21.0537 H   0  0  0  0  0  0  0  0  0  0  0  0
   10.5105   -1.0967   22.5708 C   0  0  0  0  0  0  0  0  0  0  0  0
   11.2096   -2.2623   22.3223 C   0  0  0  0  0  0  0  0  0  0  0  0
   10.6727   -3.2012   22.2226 H   0  0  0  0  0  0  0  0  0  0  0  0
   12.5546   -2.3127   22.1932 N   0  0  0  0  0  0  0  0  0  0  0  0
   13.2346   -1.1907   22.3136 C   0  0  0  0  0  0  0  0  0  0  0  0
   14.3165   -1.2648   22.2065 H   0  0  0  0  0  0  0  0  0  0  0  0
   12.6481    0.0601   22.6634 C   0  0  0  0  0  0  0  0  0  0  0  0
   13.4223    1.2437   22.8253 C   0  0  0  0  0  0  0  0  0  0  0  0
   14.4683    1.2255   22.5265 H   0  0  0  0  0  0  0  0  0  0  0  0
   12.8466    2.3672   23.3735 C   0  0  0  0  0  0  0  0  0  0  0  0
   13.4409    3.2658   23.5073 H   0  0  0  0  0  0  0  0  0  0  0  0
   11.4747    2.3644   23.7428 C   0  0  0  0  0  0  0  0  0  0  0  0
   11.0389    3.2627   24.1722 H   0  0  0  0  0  0  0  0  0  0  0  0
   10.6853    1.2511   23.5378 C   0  0  0  0  0  0  0  0  0  0  0  0
    9.6475    1.2239   23.8555 H   0  0  0  0  0  0  0  0  0  0  0  0
   11.2462    0.0874   22.9266 C   0  0  0  0  0  0  0  0  0  0  0  0
  1  2  1  0
  2  3  1  0
  3  4  1  0
  4  5  2  0
  4  6  1  0
  6  7  1  0
  6  8  1  0
  8  9  2  0
  9 10  1  0
  9 11  1  0
 11 12  2  0
 12 13  1  0
 12 14  1  0
 14 15  1  0
 14 16  2  0
 16 17  1  0
  3 18  1  0
 18 19  2  0
 19 20  1  0
 19 21  1  0
 21 22  2  0
 22 23  1  0
 22 24  1  0
 24 25  2  0
 25 26  1  0
 25 27  1  0
 27 28  1  0
 27 29  2  0
 29 30  1  0
 29 31  1  0
 31 32  1  0
 31 33  2  0
 16  8  1  0
 33 18  1  0
 33 24  1  0
M  END
>  <plip>  (1) 
-0.16666666666666666

>  <filename>  (1) 
[H][O][N]([C](=[O])[N]([H])[c]1[c]([H])[n][c]([H])[c]([H])[c]1[H])[c]1[c]([H])[n][c]([H])[c]2[c]([H])[c]([H])[c]([H])[c]([H])[c]12

$$$$
