
     RDKit          3D

 30 31  0  0  0  0  0  0  0  0999 V2000
   10.3076    0.5101   20.6122 H   0  0  0  0  0  0  0  0  0  0  0  0
    9.5407    0.8587   20.1393 O   0  0  0  0  0  0  0  0  0  0  0  0
    8.8803    1.7740   20.9807 C   0  0  0  0  0  0  0  0  0  0  0  0
    9.5010    2.6626   21.1820 H   0  0  0  0  0  0  0  0  0  0  0  0
    7.9993    2.1316   20.4418 H   0  0  0  0  0  0  0  0  0  0  0  0
    8.4943    1.1280   22.3260 C   0  0  0  0  0  0  0  0  0  0  0  0
    8.0073   -0.2920   22.0949 C   0  0  0  0  0  0  0  0  0  0  0  0
    8.3264   -1.3128   22.8496 N   0  0  0  0  0  0  0  0  0  0  0  0
    7.7974   -2.4470   22.3006 N   0  0  0  0  0  0  0  0  0  0  0  0
    7.1638   -2.0813   21.2251 C   0  0  0  0  0  0  0  0  0  0  0  0
    6.6493   -2.7457   20.5487 H   0  0  0  0  0  0  0  0  0  0  0  0
    7.2383   -0.7253   21.0293 N   0  0  0  0  0  0  0  0  0  0  0  0
    6.6195    0.0152   19.9583 C   0  0  0  0  0  0  0  0  0  0  0  0
    7.1774    0.0278   18.6664 C   0  0  0  0  0  0  0  0  0  0  0  0
    8.1243   -0.4840   18.4953 H   0  0  0  0  0  0  0  0  0  0  0  0
    6.6193    0.6627   17.6254 N   0  0  0  0  0  0  0  0  0  0  0  0
    5.4683    1.3216   17.8371 C   0  0  0  0  0  0  0  0  0  0  0  0
    5.0444    1.8344   16.9733 H   0  0  0  0  0  0  0  0  0  0  0  0
    4.8304    1.3627   19.0791 C   0  0  0  0  0  0  0  0  0  0  0  0
    3.9006    1.9062   19.1929 H   0  0  0  0  0  0  0  0  0  0  0  0
    5.4198    0.6965   20.1642 C   0  0  0  0  0  0  0  0  0  0  0  0
    4.9653    0.6888   21.1539 H   0  0  0  0  0  0  0  0  0  0  0  0
    9.7239    1.0977   23.2709 C   0  0  0  0  0  0  0  0  0  0  0  0
   10.5492    0.4957   22.8703 H   0  0  0  0  0  0  0  0  0  0  0  0
   10.1059    2.1093   23.4568 H   0  0  0  0  0  0  0  0  0  0  0  0
    9.4221    0.6621   24.2262 H   0  0  0  0  0  0  0  0  0  0  0  0
    7.4151    2.0062   22.9860 C   0  0  0  0  0  0  0  0  0  0  0  0
    7.8195    3.0103   23.1623 H   0  0  0  0  0  0  0  0  0  0  0  0
    6.5281    2.1048   22.3515 H   0  0  0  0  0  0  0  0  0  0  0  0
    7.1175    1.5850   23.9510 H   0  0  0  0  0  0  0  0  0  0  0  0
  1  2  1  0
  2  3  1  0
  3  4  1  0
  3  5  1  0
  3  6  1  0
  6  7  1  0
  7  8  2  0
  8  9  1  0
  9 10  2  0
 10 11  1  0
 10 12  1  0
 12 13  1  0
 13 14  2  0
 14 15  1  0
 14 16  1  0
 16 17  2  0
 17 18  1  0
 17 19  1  0
 19 20  1  0
 19 21  2  0
 21 22  1  0
  6 23  1  0
 23 24  1  0
 23 25  1  0
 23 26  1  0
  6 27  1  0
 27 28  1  0
 27 29  1  0
 27 30  1  0
 12  7  1  0
 21 13  1  0
M  END
>  <plip>  (1) 
-0.06666666666666667

>  <filename>  (1) 
[H][O][C]([H])([H])[C]([c]1[n][n][c]([H])[n]1-[c]1[c]([H])[n][c]([H])[c]([H])[c]1[H])([C]([H])([H])[H])[C]([H])([H])[H]

$$$$
