
     RDKit          3D

 50 51  0  0  0  0  0  0  0  0999 V2000
    8.2120   -1.1955   23.2137 C   0  0  0  0  0  0  0  0  0  0  0  0
    7.6137   -0.2599   22.1847 C   0  0  0  0  0  0  0  0  0  0  0  0
    7.4900   -0.5856   20.8881 C   0  0  0  0  0  0  0  0  0  0  0  0
    6.6726    0.0695   19.8363 C   0  0  0  0  0  0  0  0  0  0  0  0
    5.4300    0.6858   20.0578 C   0  0  0  0  0  0  0  0  0  0  0  0
    4.8044    1.3382   18.9893 C   0  0  0  0  0  0  0  0  0  0  0  0
    5.4236    1.3351   17.7362 C   0  0  0  0  0  0  0  0  0  0  0  0
    6.5880    0.7079   17.4894 N   0  0  0  0  0  0  0  0  0  0  0  0
    7.1699    0.0827   18.5138 C   0  0  0  0  0  0  0  0  0  0  0  0
    8.0976   -0.4454   18.2930 H   0  0  0  0  0  0  0  0  0  0  0  0
    4.9741    1.8537   16.8918 H   0  0  0  0  0  0  0  0  0  0  0  0
    3.8577    1.8540   19.1133 H   0  0  0  0  0  0  0  0  0  0  0  0
    4.9613    0.6526   21.0453 H   0  0  0  0  0  0  0  0  0  0  0  0
    8.1154   -1.4016   20.5091 H   0  0  0  0  0  0  0  0  0  0  0  0
    7.2210    1.0922   22.7372 C   0  0  0  0  0  0  0  0  0  0  0  0
    6.8172    1.2168   23.8823 O   0  0  0  0  0  0  0  0  0  0  0  0
    7.4456    2.1566   21.9249 N   0  0  0  0  0  0  0  0  0  0  0  0
    7.0398    3.4889   22.3023 C   0  0  0  0  0  0  0  0  0  0  0  0
    7.9529    4.0614   23.3900 C   0  0  0  0  0  0  0  0  0  0  0  0
    7.5076    5.4740   23.7725 C   0  0  0  0  0  0  0  0  0  0  0  0
    8.0989    6.4731   22.7821 N   0  0  0  0  0  4  0  0  0  0  0  0
    7.1118    7.4429   22.2401 C   0  0  0  0  0  0  0  0  0  0  0  0
    6.2348    6.9212   21.8409 H   0  0  0  0  0  0  0  0  0  0  0  0
    7.5524    8.0399   21.4318 H   0  0  0  0  0  0  0  0  0  0  0  0
    6.7651    8.1291   23.0249 H   0  0  0  0  0  0  0  0  0  0  0  0
    9.3232    7.1661   23.3565 C   0  0  0  0  0  0  0  0  0  0  0  0
   10.5166    6.2469   23.4171 C   0  0  0  0  0  0  0  0  0  0  0  0
   11.1248    5.8360   22.2230 C   0  0  0  0  0  0  0  0  0  0  0  0
   12.2476    5.0058   22.2315 C   0  0  0  0  0  0  0  0  0  0  0  0
   12.8066    4.6044   23.4501 C   0  0  0  0  0  0  0  0  0  0  0  0
   12.2308    5.0432   24.6476 C   0  0  0  0  0  0  0  0  0  0  0  0
   11.0716    5.8261   24.6328 C   0  0  0  0  0  0  0  0  0  0  0  0
   10.5834    6.0950   25.5693 H   0  0  0  0  0  0  0  0  0  0  0  0
   12.6864    4.8007   25.6021 H   0  0  0  0  0  0  0  0  0  0  0  0
   13.6867    3.9627   23.4536 H   0  0  0  0  0  0  0  0  0  0  0  0
   12.6677    4.6529   21.2921 H   0  0  0  0  0  0  0  0  0  0  0  0
   10.7365    6.2214   21.2822 H   0  0  0  0  0  0  0  0  0  0  0  0
    9.5859    8.0116   22.7191 H   0  0  0  0  0  0  0  0  0  0  0  0
    9.0926    7.5594   24.3521 H   0  0  0  0  0  0  0  0  0  0  0  0
    8.4737    5.8771   22.0147 H   0  0  0  0  0  0  0  0  0  0  0  0
    6.4125    5.5551   23.7470 H   0  0  0  0  0  0  0  0  0  0  0  0
    7.8168    5.7500   24.7850 H   0  0  0  0  0  0  0  0  0  0  0  0
    7.9147    3.3931   24.2533 H   0  0  0  0  0  0  0  0  0  0  0  0
    8.9957    4.0875   23.0325 H   0  0  0  0  0  0  0  0  0  0  0  0
    5.9985    3.4635   22.6624 H   0  0  0  0  0  0  0  0  0  0  0  0
    7.0468    4.1208   21.4070 H   0  0  0  0  0  0  0  0  0  0  0  0
    7.6634    1.9311   20.9711 H   0  0  0  0  0  0  0  0  0  0  0  0
    8.9900   -1.8468   22.8010 H   0  0  0  0  0  0  0  0  0  0  0  0
    7.4447   -1.8261   23.6788 H   0  0  0  0  0  0  0  0  0  0  0  0
    8.6597   -0.6107   24.0221 H   0  0  0  0  0  0  0  0  0  0  0  0
  1  2  1  0
  2  3  2  3
  3  4  1  0
  4  5  2  0
  5  6  1  0
  6  7  2  0
  7  8  1  0
  8  9  2  0
  9 10  1  0
  7 11  1  0
  6 12  1  0
  5 13  1  0
  3 14  1  0
  2 15  1  0
 15 16  2  0
 15 17  1  0
 17 18  1  0
 18 19  1  0
 19 20  1  0
 20 21  1  0
 21 22  1  0
 22 23  1  0
 22 24  1  0
 22 25  1  0
 21 26  1  0
 26 27  1  0
 27 28  2  0
 28 29  1  0
 29 30  2  0
 30 31  1  0
 31 32  2  0
 32 33  1  0
 31 34  1  0
 30 35  1  0
 29 36  1  0
 28 37  1  0
 26 38  1  0
 26 39  1  0
 21 40  1  0
 20 41  1  0
 20 42  1  0
 19 43  1  0
 19 44  1  0
 18 45  1  0
 18 46  1  0
 17 47  1  0
  1 48  1  0
  1 49  1  0
  1 50  1  0
  9  4  1  0
 32 27  1  0
M  CHG  1  21   1
M  END
>  <plip>  (1) 
-0.17857142857142858

>  <filename>  (1) 
[H][C](=[C]([C](=[O])[N]([H])[C]([H])([H])[C]([H])([H])[C]([H])([H])[N+]([H])([C]([H])([H])[H])[C]([H])([H])[c]1[c]([H])[c]([H])[c]([H])[c]([H])[c]1[H])[C]([H])([H])[H])[c]1[c]([H])[n][c]([H])[c]([H])[c]1[H]

$$$$
