
     RDKit          3D

 31 33  0  0  0  0  0  0  0  0999 V2000
    9.4220   -0.6612   20.2917 H   0  0  0  0  0  0  0  0  0  0  0  0
    8.6608   -0.9968   20.9906 C   0  0  0  0  0  0  0  0  0  0  0  0
    7.3496   -0.7204   20.9463 C   0  0  0  0  0  0  0  0  0  0  0  0
    6.6301    0.0122   19.8830 C   0  0  0  0  0  0  0  0  0  0  0  0
    7.1472    0.0717   18.5696 C   0  0  0  0  0  0  0  0  0  0  0  0
    8.0830   -0.4284   18.3262 H   0  0  0  0  0  0  0  0  0  0  0  0
    6.5553    0.6944   17.5425 N   0  0  0  0  0  0  0  0  0  0  0  0
    5.3953    1.3238   17.7875 C   0  0  0  0  0  0  0  0  0  0  0  0
    4.9367    1.8373   16.9444 H   0  0  0  0  0  0  0  0  0  0  0  0
    4.7811    1.3347   19.0432 C   0  0  0  0  0  0  0  0  0  0  0  0
    3.8428    1.8635   19.1761 H   0  0  0  0  0  0  0  0  0  0  0  0
    5.4007    0.6701   20.1023 C   0  0  0  0  0  0  0  0  0  0  0  0
    4.9477    0.6765   21.0949 H   0  0  0  0  0  0  0  0  0  0  0  0
    6.6641   -1.2725   22.1896 C   0  0  0  0  0  0  0  0  0  0  0  0
    5.7782   -1.8574   21.9240 H   0  0  0  0  0  0  0  0  0  0  0  0
    6.3335   -0.4514   22.8408 H   0  0  0  0  0  0  0  0  0  0  0  0
    7.7390   -2.1439   22.8840 C   0  0  0  0  0  0  0  0  0  0  0  0
    7.5421   -3.2073   22.7037 H   0  0  0  0  0  0  0  0  0  0  0  0
    7.7510   -2.0095   23.9735 H   0  0  0  0  0  0  0  0  0  0  0  0
    9.0863   -1.7095   22.2481 C   0  0  2  0  0  0  0  0  0  0  0  0
    9.7464   -2.5559   22.0278 H   0  0  0  0  0  0  0  0  0  0  0  0
    9.8740   -0.7905   23.2096 C   0  0  0  0  0  0  0  0  0  0  0  0
    9.2392    0.0561   23.4775 H   0  0  0  0  0  0  0  0  0  0  0  0
   10.1025   -1.3463   24.1241 H   0  0  0  0  0  0  0  0  0  0  0  0
   11.1270   -0.2856   22.6648 N   0  0  0  0  0  0  0  0  0  0  0  0
   12.1958   -1.1002   22.5468 N   0  0  0  0  0  0  0  0  0  0  0  0
   13.1475   -0.2791   22.1537 C   0  0  0  0  0  0  0  0  0  0  0  0
   14.1630   -0.6211   21.9822 H   0  0  0  0  0  0  0  0  0  0  0  0
   12.7530    1.0146   21.9909 N   0  0  0  0  0  0  0  0  0  0  0  0
   11.4792    0.9656   22.3161 C   0  0  0  0  0  0  0  0  0  0  0  0
   10.7782    1.7910   22.3064 H   0  0  0  0  0  0  0  0  0  0  0  0
  1  2  1  0
  2  3  2  0
  3  4  1  0
  4  5  2  0
  5  6  1  0
  5  7  1  0
  7  8  2  0
  8  9  1  0
  8 10  1  0
 10 11  1  0
 10 12  2  0
 12 13  1  0
  3 14  1  0
 14 15  1  0
 14 16  1  0
 14 17  1  0
 17 18  1  0
 17 19  1  0
 17 20  1  0
 20 21  1  6
 20 22  1  0
 22 23  1  0
 22 24  1  0
 22 25  1  0
 25 26  1  0
 26 27  2  0
 27 28  1  0
 27 29  1  0
 29 30  2  0
 30 31  1  0
 20  2  1  0
 30 25  1  0
 12  4  1  0
M  END
>  <plip>  (1) 
-0.03571428571428571

>  <filename>  (1) 
[H][C]1=[C]([c]2[c]([H])[n][c]([H])[c]([H])[c]2[H])[C]([H])([H])[C]([H])([H])[C@]1([H])[C]([H])([H])[n]1[n][c]([H])[n][c]1[H]

$$$$
