
     RDKit          3D

 30 32  0  0  0  0  0  0  0  0999 V2000
    8.7636   -0.0888   21.2870 C   0  0  0  0  0  0  0  0  0  0  0  0
    7.4014   -0.7524   21.0466 C   0  0  2  0  0  0  0  0  0  0  0  0
    7.5406   -2.1666   20.7910 N   0  0  0  0  0  0  0  0  0  0  0  0
    7.8179   -3.0632   21.7246 C   0  0  0  0  0  0  0  0  0  0  0  0
    7.9659   -4.3091   21.2260 N   0  0  0  0  0  0  0  0  0  0  0  0
    8.2131   -5.2548   22.1112 C   0  0  0  0  0  0  0  0  0  0  0  0
    8.3362   -4.9953   23.4902 C   0  0  0  0  0  0  0  0  0  0  0  0
    8.6332   -5.8096   24.6375 C   0  0  0  0  0  0  0  0  0  0  0  0
    8.6185   -5.1140   25.7898 C   0  0  0  0  0  0  0  0  0  0  0  0
    8.2888   -3.4175   25.5608 S   0  0  0  0  0  0  0  0  0  0  0  0
    8.1442   -3.6507   23.8376 C   0  0  0  0  0  0  0  0  0  0  0  0
    7.8981   -2.6638   22.9871 N   0  0  0  0  0  0  0  0  0  0  0  0
    8.7957   -5.5175   26.7787 H   0  0  0  0  0  0  0  0  0  0  0  0
    8.9084   -6.8474   24.6015 H   0  0  0  0  0  0  0  0  0  0  0  0
    8.3364   -6.2699   21.7285 H   0  0  0  0  0  0  0  0  0  0  0  0
    7.5029   -2.6301   19.9042 H   0  0  0  0  0  0  0  0  0  0  0  0
    6.6393   -0.0811   19.9239 C   0  0  0  0  0  0  0  0  0  0  0  0
    5.4363    0.6036   20.1603 C   0  0  0  0  0  0  0  0  0  0  0  0
    4.8170    1.2857   19.1114 C   0  0  0  0  0  0  0  0  0  0  0  0
    5.4231    1.2678   17.8524 C   0  0  0  0  0  0  0  0  0  0  0  0
    6.5753    0.6311   17.6035 N   0  0  0  0  0  0  0  0  0  0  0  0
    7.1619   -0.0170   18.6226 C   0  0  0  0  0  0  0  0  0  0  0  0
    8.1270   -0.4587   18.3670 H   0  0  0  0  0  0  0  0  0  0  0  0
    4.9637    1.7805   17.0082 H   0  0  0  0  0  0  0  0  0  0  0  0
    3.8940    1.8372   19.2567 H   0  0  0  0  0  0  0  0  0  0  0  0
    5.0088    0.6279   21.1648 H   0  0  0  0  0  0  0  0  0  0  0  0
    6.8139   -0.6484   21.9738 H   0  0  0  0  0  0  0  0  0  0  0  0
    9.2578   -0.5168   22.1648 H   0  0  0  0  0  0  0  0  0  0  0  0
    9.4207   -0.2285   20.4214 H   0  0  0  0  0  0  0  0  0  0  0  0
    8.6190    0.9835   21.4447 H   0  0  0  0  0  0  0  0  0  0  0  0
  1  2  1  0
  2  3  1  0
  3  4  1  0
  4  5  2  0
  5  6  1  0
  6  7  2  0
  7  8  1  0
  8  9  2  0
  9 10  1  0
 10 11  1  0
 11 12  2  0
  9 13  1  0
  8 14  1  0
  6 15  1  0
  3 16  1  0
  2 17  1  0
 17 18  2  0
 18 19  1  0
 19 20  2  0
 20 21  1  0
 21 22  2  0
 22 23  1  0
 20 24  1  0
 19 25  1  0
 18 26  1  0
  2 27  1  1
  1 28  1  0
  1 29  1  0
  1 30  1  0
 12  4  1  0
 22 17  1  0
 11  7  1  0
M  END
>  <plip>  (1) 
-0.10344827586206896

>  <filename>  (1) 
[H][c]1[n][c]([H])[c]([C@@]([H])([N]([H])[c]2[n][c]([H])[c]3[c]([H])[c]([H])[s][c]3[n]2)[C]([H])([H])[H])[c]([H])[c]1[H]

$$$$
