
     RDKit          3D

 48 51  0  0  0  0  0  0  0  0999 V2000
    8.3883    2.3366   20.5634 O   0  0  0  0  0  0  0  0  0  0  0  0
    8.2420    1.7375   21.8797 S   0  0  0  0  0  0  0  0  0  0  0  0
    7.0222    1.8100   22.6612 O   0  0  0  0  0  0  0  0  0  0  0  0
    8.6341    0.1471   21.4421 N   0  0  0  0  0  0  0  0  0  0  0  0
    7.4836   -0.6811   20.9806 C   0  0  0  0  0  0  0  0  0  0  0  0
    6.6482   -1.2280   22.1506 C   0  0  0  0  0  0  0  0  0  0  0  0
    7.3941   -2.1382   23.0790 N   0  0  0  0  0  4  0  0  0  0  0  0
    6.6162   -2.5021   24.3091 C   0  0  0  0  0  0  0  0  0  0  0  0
    7.2933   -3.7660   24.8375 C   0  0  0  0  0  0  0  0  0  0  0  0
    7.9691   -4.4301   23.6191 C   0  0  0  0  0  0  0  0  0  0  0  0
    7.8431   -3.4366   22.4589 C   0  0  0  0  0  0  0  0  0  0  0  0
    7.0800   -3.7592   21.7430 H   0  0  0  0  0  0  0  0  0  0  0  0
    8.7820   -3.2935   21.9167 H   0  0  0  0  0  0  0  0  0  0  0  0
    7.4890   -5.3736   23.3468 H   0  0  0  0  0  0  0  0  0  0  0  0
    9.0202   -4.6485   23.8245 H   0  0  0  0  0  0  0  0  0  0  0  0
    8.0360   -3.5042   25.5965 H   0  0  0  0  0  0  0  0  0  0  0  0
    6.5622   -4.4240   25.3148 H   0  0  0  0  0  0  0  0  0  0  0  0
    5.5766   -2.6992   24.0216 H   0  0  0  0  0  0  0  0  0  0  0  0
    6.6197   -1.6698   25.0200 H   0  0  0  0  0  0  0  0  0  0  0  0
    8.2426   -1.5950   23.3780 H   0  0  0  0  0  0  0  0  0  0  0  0
    6.2521   -0.3799   22.7119 H   0  0  0  0  0  0  0  0  0  0  0  0
    5.7907   -1.7608   21.7215 H   0  0  0  0  0  0  0  0  0  0  0  0
    6.6595    0.0166   19.9231 C   0  0  0  0  0  0  0  0  0  0  0  0
    5.4235    0.6496   20.1400 C   0  0  0  0  0  0  0  0  0  0  0  0
    4.7971    1.3015   19.0743 C   0  0  0  0  0  0  0  0  0  0  0  0
    5.4126    1.2853   17.8211 C   0  0  0  0  0  0  0  0  0  0  0  0
    6.5715    0.6559   17.5842 N   0  0  0  0  0  0  0  0  0  0  0  0
    7.1759    0.0620   18.6203 C   0  0  0  0  0  0  0  0  0  0  0  0
    8.1192   -0.4349   18.3831 H   0  0  0  0  0  0  0  0  0  0  0  0
    4.9579    1.7985   16.9751 H   0  0  0  0  0  0  0  0  0  0  0  0
    3.8630    1.8340   19.2103 H   0  0  0  0  0  0  0  0  0  0  0  0
    4.9607    0.6750   21.1302 H   0  0  0  0  0  0  0  0  0  0  0  0
    7.9693   -1.5565   20.5122 H   0  0  0  0  0  0  0  0  0  0  0  0
    9.0468    0.5317   20.5851 H   0  0  0  0  0  0  0  0  0  0  0  0
    9.6238    2.2620   22.8500 C   0  0  0  0  0  0  0  0  0  0  0  0
   10.7409    1.5735   23.2198 C   0  0  0  0  0  0  0  0  0  0  0  0
   11.8964    2.5425   24.0610 S   0  0  0  0  0  0  0  0  0  0  0  0
   10.8796    3.9490   23.9247 C   0  0  0  0  0  0  0  0  0  0  0  0
   11.1510    5.2377   24.4330 C   0  0  0  0  0  0  0  0  0  0  0  0
   10.2194    6.2431   24.2051 C   0  0  0  0  0  0  0  0  0  0  0  0
    9.0415    5.9888   23.4705 C   0  0  0  0  0  0  0  0  0  0  0  0
    8.7764    4.7120   22.9731 C   0  0  0  0  0  0  0  0  0  0  0  0
    9.6934    3.6649   23.2217 C   0  0  0  0  0  0  0  0  0  0  0  0
    7.8748    4.5315   22.3935 H   0  0  0  0  0  0  0  0  0  0  0  0
    8.3341    6.7979   23.2962 H   0  0  0  0  0  0  0  0  0  0  0  0
   10.4029    7.2395   24.6048 H   0  0  0  0  0  0  0  0  0  0  0  0
   12.0629    5.4407   24.9878 H   0  0  0  0  0  0  0  0  0  0  0  0
   10.9962    0.5359   23.0397 H   0  0  0  0  0  0  0  0  0  0  0  0
  1  2  2  0
  2  3  2  0
  2  4  1  0
  4  5  1  0
  5  6  1  0
  6  7  1  0
  7  8  1  0
  8  9  1  0
  9 10  1  0
 10 11  1  0
 11 12  1  0
 11 13  1  0
 10 14  1  0
 10 15  1  0
  9 16  1  0
  9 17  1  0
  8 18  1  0
  8 19  1  0
  7 20  1  0
  6 21  1  0
  6 22  1  0
  5 23  1  0
 23 24  2  0
 24 25  1  0
 25 26  2  0
 26 27  1  0
 27 28  2  0
 28 29  1  0
 26 30  1  0
 25 31  1  0
 24 32  1  0
  5 33  1  0
  4 34  1  0
  2 35  1  0
 35 36  2  0
 36 37  1  0
 37 38  1  0
 38 39  2  0
 39 40  1  0
 40 41  2  0
 41 42  1  0
 42 43  2  0
 42 44  1  0
 41 45  1  0
 40 46  1  0
 39 47  1  0
 36 48  1  0
 11  7  1  0
 28 23  1  0
 43 35  1  0
 43 38  1  0
M  CHG  1   7   1
M  END
>  <plip>  (1) 
-0.10714285714285714

>  <filename>  (1) 
[H][c]1[n][c]([H])[c]([C]([H])([N]([H])[S](=[O])(=[O])[c]2[c]([H])[s][c]3[c]([H])[c]([H])[c]([H])[c]([H])[c]23)[C]([H])([H])[N+]2([H])[C]([H])([H])[C]([H])([H])[C]([H])([H])[C]2([H])[H])[c]([H])[c]1[H]

$$$$
