
     RDKit          3D

 33 35  0  0  0  0  0  0  0  0999 V2000
    7.4438    0.6126   22.7901 O   0  0  0  0  0  0  0  0  0  0  0  0
    7.8801    0.0505   21.8104 C   0  0  0  0  0  0  0  0  0  0  0  0
    9.1514    0.2452   21.3509 N   0  0  0  0  0  0  0  0  0  0  0  0
   10.1063    1.1100   21.8177 C   0  0  0  0  0  0  0  0  0  0  0  0
   11.2621    1.1158   21.2199 N   0  0  0  0  0  0  0  0  0  0  0  0
   12.0648    2.1142   21.6763 N   0  0  0  0  0  0  0  0  0  0  0  0
   11.5129    2.8234   22.6138 C   0  0  0  0  0  0  0  0  0  0  0  0
   12.1149    4.0635   23.1788 C   0  0  0  0  0  0  0  0  0  0  0  0
   13.1808    4.7162   22.5285 C   0  0  0  0  0  0  0  0  0  0  0  0
   13.5509    5.9867   22.9726 C   0  0  0  0  0  0  0  0  0  0  0  0
   12.8995    6.5130   24.0936 C   0  0  0  0  0  0  0  0  0  0  0  0
   11.9265    5.7447   24.7377 C   0  0  0  0  0  0  0  0  0  0  0  0
   11.5303    4.5535   24.2868 N   0  0  0  0  0  0  0  0  0  0  0  0
   11.4408    6.0923   25.6511 H   0  0  0  0  0  0  0  0  0  0  0  0
   13.1236    7.5044   24.4578 H   0  0  0  0  0  0  0  0  0  0  0  0
   14.3287    6.5457   22.4499 H   0  0  0  0  0  0  0  0  0  0  0  0
   13.6612    4.2268   21.6893 H   0  0  0  0  0  0  0  0  0  0  0  0
    9.9146    2.2716   23.0728 S   0  0  0  0  0  0  0  0  0  0  0  0
    9.4727   -0.2605   20.5459 H   0  0  0  0  0  0  0  0  0  0  0  0
    7.0030   -0.9558   20.9456 C   0  0  0  0  0  0  0  0  0  0  0  0
    7.7150   -2.0598   20.4167 O   0  0  0  0  0  0  0  0  0  0  0  0
    7.8596   -2.7307   21.0962 H   0  0  0  0  0  0  0  0  0  0  0  0
    6.3570   -0.2471   19.7677 C   0  0  0  0  0  0  0  0  0  0  0  0
    5.2676    0.5982   20.0060 C   0  0  0  0  0  0  0  0  0  0  0  0
    4.7746    1.3764   18.9578 C   0  0  0  0  0  0  0  0  0  0  0  0
    5.3905    1.2762   17.7059 C   0  0  0  0  0  0  0  0  0  0  0  0
    6.4187    0.4535   17.4467 N   0  0  0  0  0  0  0  0  0  0  0  0
    6.8777   -0.2961   18.4588 C   0  0  0  0  0  0  0  0  0  0  0  0
    7.7013   -0.9662   18.2171 H   0  0  0  0  0  0  0  0  0  0  0  0
    5.0476    1.8957   16.8775 H   0  0  0  0  0  0  0  0  0  0  0  0
    3.9477    2.0647   19.1038 H   0  0  0  0  0  0  0  0  0  0  0  0
    4.8347    0.6419   21.0077 H   0  0  0  0  0  0  0  0  0  0  0  0
    6.2196   -1.2726   21.6529 H   0  0  0  0  0  0  0  0  0  0  0  0
  1  2  2  0
  2  3  1  0
  3  4  1  0
  4  5  2  0
  5  6  1  0
  6  7  2  0
  7  8  1  0
  8  9  2  0
  9 10  1  0
 10 11  2  0
 11 12  1  0
 12 13  2  0
 12 14  1  0
 11 15  1  0
 10 16  1  0
  9 17  1  0
  7 18  1  0
  3 19  1  0
  2 20  1  0
 20 21  1  0
 21 22  1  0
 20 23  1  0
 23 24  2  0
 24 25  1  0
 25 26  2  0
 26 27  1  0
 27 28  2  0
 28 29  1  0
 26 30  1  0
 25 31  1  0
 24 32  1  0
 20 33  1  0
 18  4  1  0
 28 23  1  0
 13  8  1  0
M  END
>  <plip>  (1) 
-0.13793103448275862

>  <filename>  (1) 
[H][O][C]([H])([C](=[O])[N]([H])[c]1[n][n][c](-[c]2[n][c]([H])[c]([H])[c]([H])[c]2[H])[s]1)[c]1[c]([H])[n][c]([H])[c]([H])[c]1[H]

$$$$
