
     RDKit          3D

 32 34  0  0  0  0  0  0  0  0999 V2000
   10.2531   -1.6771   23.8406 C   0  0  0  0  0  0  0  0  0  0  0  0
   10.1810   -2.9060   22.9147 C   0  0  2  0  0  0  0  0  0  0  0  0
    9.6202   -2.5129   21.6134 N   0  0  0  0  0  0  0  0  0  0  0  0
    8.3907   -1.9289   21.4529 C   0  0  0  0  0  0  0  0  0  0  0  0
    8.2691   -1.0542   20.4914 N   0  0  0  0  0  0  0  0  0  0  0  0
    6.9923   -0.5355   20.5092 C   0  0  0  0  0  0  0  0  0  0  0  0
    6.4679    0.3473   19.4512 C   0  0  0  0  0  0  0  0  0  0  0  0
    5.2773    1.0911   19.5981 C   0  0  0  0  0  0  0  0  0  0  0  0
    4.7252    1.6979   18.4742 C   0  0  0  0  0  0  0  0  0  0  0  0
    5.3941    1.5773   17.2509 C   0  0  0  0  0  0  0  0  0  0  0  0
    6.5534    0.9173   17.1047 N   0  0  0  0  0  0  0  0  0  0  0  0
    7.0745    0.3346   18.1898 C   0  0  0  0  0  0  0  0  0  0  0  0
    8.0142   -0.1956   18.0569 H   0  0  0  0  0  0  0  0  0  0  0  0
    4.9804    2.0246   16.3499 H   0  0  0  0  0  0  0  0  0  0  0  0
    3.7841    2.2382   18.5291 H   0  0  0  0  0  0  0  0  0  0  0  0
    4.7894    1.1977   20.5699 H   0  0  0  0  0  0  0  0  0  0  0  0
    6.1777   -1.0136   21.4759 C   0  0  0  0  0  0  0  0  0  0  0  0
    6.9479   -2.2552   22.3830 S   0  0  0  0  0  0  0  0  0  0  0  0
    5.1760   -0.6685   21.6501 H   0  0  0  0  0  0  0  0  0  0  0  0
   10.2139   -1.9232   21.0348 H   0  0  0  0  0  0  0  0  0  0  0  0
    9.5680   -4.1326   23.6093 C   0  0  0  0  0  0  0  0  0  0  0  0
   10.0698   -4.9038   24.6197 C   0  0  0  0  0  0  0  0  0  0  0  0
    9.1236   -5.9503   24.8546 C   0  0  0  0  0  0  0  0  0  0  0  0
    8.1194   -5.7373   23.9733 C   0  0  0  0  0  0  0  0  0  0  0  0
    8.3659   -4.6412   23.2228 O   0  0  0  0  0  0  0  0  0  0  0  0
    7.1964   -6.2590   23.7476 H   0  0  0  0  0  0  0  0  0  0  0  0
    9.1725   -6.7386   25.5902 H   0  0  0  0  0  0  0  0  0  0  0  0
   11.0207   -4.8076   25.1279 H   0  0  0  0  0  0  0  0  0  0  0  0
   11.2146   -3.2316   22.7176 H   0  0  0  0  0  0  0  0  0  0  0  0
   10.5660   -1.9677   24.8416 H   0  0  0  0  0  0  0  0  0  0  0  0
    9.2755   -1.1997   23.9225 H   0  0  0  0  0  0  0  0  0  0  0  0
   10.9611   -0.9308   23.4649 H   0  0  0  0  0  0  0  0  0  0  0  0
  1  2  1  0
  2  3  1  0
  3  4  1  0
  4  5  2  0
  5  6  1  0
  6  7  1  0
  7  8  2  0
  8  9  1  0
  9 10  2  0
 10 11  1  0
 11 12  2  0
 12 13  1  0
 10 14  1  0
  9 15  1  0
  8 16  1  0
  6 17  2  0
 17 18  1  0
 17 19  1  0
  3 20  1  0
  2 21  1  0
 21 22  2  0
 22 23  1  0
 23 24  2  0
 24 25  1  0
 24 26  1  0
 23 27  1  0
 22 28  1  0
  2 29  1  6
  1 30  1  0
  1 31  1  0
  1 32  1  0
 18  4  1  0
 25 21  1  0
 12  7  1  0
M  END
>  <plip>  (1) 
-0.1

>  <filename>  (1) 
[H][c]1[n][c]([H])[c](-[c]2[n][c]([N]([H])[C@]([H])([c]3[o][c]([H])[c]([H])[c]3[H])[C]([H])([H])[H])[s][c]2[H])[c]([H])[c]1[H]

$$$$
