
     RDKit          3D

 27 29  0  0  0  0  0  0  0  0999 V2000
    5.0832    1.8251   16.8284 H   0  0  0  0  0  0  0  0  0  0  0  0
    5.4487    1.3174   17.7218 C   0  0  0  0  0  0  0  0  0  0  0  0
    6.5933    0.6324   17.5826 N   0  0  0  0  0  0  0  0  0  0  0  0
    7.0871    0.0205   18.6616 C   0  0  0  0  0  0  0  0  0  0  0  0
    8.0306   -0.5070   18.5117 H   0  0  0  0  0  0  0  0  0  0  0  0
    6.4584    0.0255   19.9185 C   0  0  0  0  0  0  0  0  0  0  0  0
    7.1523   -0.6678   21.0068 C   0  0  0  0  0  0  0  0  0  0  0  0
    8.4381   -0.9376   21.0127 N   0  0  0  0  0  0  0  0  0  0  0  0
    8.6435   -1.5138   22.2190 C   0  0  0  0  0  0  0  0  0  0  0  0
    9.9243   -1.9022   22.5939 N   0  0  0  0  0  0  0  0  0  0  0  0
   10.2061   -2.8742   23.5358 C   0  0  0  0  0  0  0  0  0  0  0  0
    9.2840   -3.3070   24.6268 C   0  0  0  0  0  0  0  0  0  0  0  0
    9.8433   -3.9758   25.2834 H   0  0  0  0  0  0  0  0  0  0  0  0
    8.4027   -3.8216   24.2404 H   0  0  0  0  0  0  0  0  0  0  0  0
    8.9176   -2.4339   25.1760 H   0  0  0  0  0  0  0  0  0  0  0  0
   11.4281   -3.2942   23.4030 N   0  0  0  0  0  0  0  0  0  0  0  0
   12.0084   -2.5409   22.4003 C   0  0  0  0  0  0  0  0  0  0  0  0
   13.0386   -2.7060   22.1177 H   0  0  0  0  0  0  0  0  0  0  0  0
   11.1089   -1.6696   21.8797 C   0  0  0  0  0  0  0  0  0  0  0  0
   11.1769   -0.9065   21.1133 H   0  0  0  0  0  0  0  0  0  0  0  0
    7.5561   -1.6581   22.9622 N   0  0  0  0  0  0  0  0  0  0  0  0
    6.6051   -1.1035   22.1542 N   0  0  0  0  0  0  0  0  0  0  0  0
    5.6440   -1.0178   22.4504 H   0  0  0  0  0  0  0  0  0  0  0  0
    5.2563    0.7429   20.0528 C   0  0  0  0  0  0  0  0  0  0  0  0
    4.7219    0.8250   21.0029 H   0  0  0  0  0  0  0  0  0  0  0  0
    4.7511    1.3966   18.9303 C   0  0  0  0  0  0  0  0  0  0  0  0
    3.8423    1.9839   18.9783 H   0  0  0  0  0  0  0  0  0  0  0  0
  1  2  1  0
  2  3  2  0
  3  4  1  0
  4  5  1  0
  4  6  2  0
  6  7  1  0
  7  8  2  0
  8  9  1  0
  9 10  1  0
 10 11  1  0
 11 12  1  0
 12 13  1  0
 12 14  1  0
 12 15  1  0
 11 16  2  0
 16 17  1  0
 17 18  1  0
 17 19  2  0
 19 20  1  0
  9 21  2  0
 21 22  1  0
 22 23  1  0
  6 24  1  0
 24 25  1  0
 24 26  2  0
 26 27  1  0
 26  2  1  0
 22  7  1  0
 19 10  1  0
M  END
>  <plip>  (1) 
-0.10714285714285714

>  <filename>  (1) 
[H][c]1[n][c]([H])[c](-[c]2[n][c](-[n]3[c]([C]([H])([H])[H])[n][c]([H])[c]3[H])[n][n]2[H])[c]([H])[c]1[H]

$$$$
