
     RDKit          3D

 40 42  0  0  0  0  0  0  0  0999 V2000
    5.0067    1.9823   16.8079 H   0  0  0  0  0  0  0  0  0  0  0  0
    5.4519    1.4249   17.6264 C   0  0  0  0  0  0  0  0  0  0  0  0
    6.6168    0.8021   17.3616 N   0  0  0  0  0  0  0  0  0  0  0  0
    7.1680    0.0940   18.3540 C   0  0  0  0  0  0  0  0  0  0  0  0
    8.1184   -0.3911   18.1300 H   0  0  0  0  0  0  0  0  0  0  0  0
    6.6058   -0.0850   19.6504 C   0  0  0  0  0  0  0  0  0  0  0  0
    7.2438   -0.9391   20.5660 N   0  0  0  0  0  0  0  0  0  0  0  0
    8.2177   -0.7434   20.7616 H   0  0  0  0  0  0  0  0  0  0  0  0
    6.7342   -1.3841   21.8411 C   0  0  2  0  0  0  0  0  0  0  0  0
    6.0772   -0.6232   22.2930 H   0  0  0  0  0  0  0  0  0  0  0  0
    7.8969   -1.5297   22.6894 N   0  0  0  0  0  0  0  0  0  0  0  0
    8.8526   -2.6069   22.4798 C   0  0  0  0  0  0  0  0  0  0  0  0
    8.6584   -3.1471   21.5421 H   0  0  0  0  0  0  0  0  0  0  0  0
    8.7710   -3.3553   23.2913 H   0  0  0  0  0  0  0  0  0  0  0  0
   10.2322   -1.9244   22.4749 C   0  0  0  0  0  0  0  0  0  0  0  0
   11.0149   -2.5911   22.8592 H   0  0  0  0  0  0  0  0  0  0  0  0
   10.5202   -1.6609   21.4487 H   0  0  0  0  0  0  0  0  0  0  0  0
   10.0414   -0.6712   23.3469 C   0  0  2  0  0  0  0  0  0  0  0  0
   10.6102    0.1865   22.9797 H   0  0  0  0  0  0  0  0  0  0  0  0
   10.3756   -0.8928   24.8278 C   0  0  0  0  0  0  0  0  0  0  0  0
   10.3203   -1.9745   25.0435 H   0  0  0  0  0  0  0  0  0  0  0  0
   11.3893   -0.5539   25.0865 H   0  0  0  0  0  0  0  0  0  0  0  0
    9.3772   -0.1532   25.6037 N   0  0  0  0  0  0  0  0  0  0  0  0
    9.1830   -0.7166   26.9366 C   0  0  0  0  0  0  0  0  0  0  0  0
    8.5262   -0.0816   27.5418 H   0  0  0  0  0  0  0  0  0  0  0  0
   10.1413   -0.8113   27.4566 H   0  0  0  0  0  0  0  0  0  0  0  0
    8.7207   -1.7246   26.8876 H   0  0  0  0  0  0  0  0  0  0  0  0
    8.1291   -0.2076   24.8190 C   0  0  0  0  0  0  0  0  0  0  0  0
    7.5151   -1.0806   25.1026 H   0  0  0  0  0  0  0  0  0  0  0  0
    7.5134    0.6845   24.9995 H   0  0  0  0  0  0  0  0  0  0  0  0
    8.5165   -0.3720   23.3229 C   0  0  2  0  0  0  0  0  0  0  0  0
    8.3020    0.5626   22.7763 H   0  0  0  0  0  0  0  0  0  0  0  0
    5.9808   -2.6989   21.7160 C   0  0  0  0  0  0  0  0  0  0  0  0
    5.0265   -2.5343   21.2288 H   0  0  0  0  0  0  0  0  0  0  0  0
    5.7975   -3.1118   22.7111 H   0  0  0  0  0  0  0  0  0  0  0  0
    6.5464   -3.4124   21.1105 H   0  0  0  0  0  0  0  0  0  0  0  0
    5.4079    0.6064   19.9097 C   0  0  0  0  0  0  0  0  0  0  0  0
    4.9474    0.5711   20.8967 H   0  0  0  0  0  0  0  0  0  0  0  0
    4.8270    1.3589   18.8777 C   0  0  0  0  0  0  0  0  0  0  0  0
    3.9007    1.9009   19.0349 H   0  0  0  0  0  0  0  0  0  0  0  0
  1  2  1  0
  2  3  2  0
  3  4  1  0
  4  5  1  0
  4  6  2  0
  6  7  1  0
  7  8  1  0
  7  9  1  0
  9 10  1  1
  9 11  1  0
 11 12  1  0
 12 13  1  0
 12 14  1  0
 12 15  1  0
 15 16  1  0
 15 17  1  0
 15 18  1  0
 18 19  1  6
 18 20  1  0
 20 21  1  0
 20 22  1  0
 20 23  1  0
 23 24  1  0
 24 25  1  0
 24 26  1  0
 24 27  1  0
 23 28  1  0
 28 29  1  0
 28 30  1  0
 28 31  1  0
 31 32  1  6
  9 33  1  0
 33 34  1  0
 33 35  1  0
 33 36  1  0
  6 37  1  0
 37 38  1  0
 37 39  2  0
 39 40  1  0
 39  2  1  0
 31 11  1  0
 31 18  1  0
M  END
>  <plip>  (1) 
-0.034482758620689655

>  <filename>  (1) 
[H][c]1[n][c]([H])[c]([N]([H])[C@]([H])([N]2[C]([H])([H])[C]([H])([H])[C@]3([H])[C]([H])([H])[N]([C]([H])([H])[H])[C]([H])([H])[C@]23[H])[C]([H])([H])[H])[c]([H])[c]1[H]

$$$$
