
     RDKit          3D

 40 41  0  0  0  0  0  0  0  0999 V2000
    6.9527   -3.3051   23.2198 C   0  0  0  0  0  0  0  0  0  0  0  0
    7.5638   -3.0097   22.0754 C   0  0  0  0  0  0  0  0  0  0  0  0
    6.9718   -2.0419   21.0661 C   0  0  0  0  0  0  0  0  0  0  0  0
    7.2212   -0.5251   21.2412 C   0  0  1  0  0  0  0  0  0  0  0  0
    8.6495   -0.2038   21.1974 N   0  0  0  0  0  0  0  0  0  0  0  0
    9.4745    0.1178   22.5884 S   0  0  0  0  0  0  0  0  0  0  0  0
    8.8614   -0.5548   23.7200 O   0  0  0  0  0  0  0  0  0  0  0  0
   10.8325   -0.1773   22.1701 O   0  0  0  0  0  0  0  0  0  0  0  0
    9.2236    1.9045   22.7466 C   0  0  0  0  0  0  0  0  0  0  0  0
    7.7473    2.3734   22.6205 C   0  0  0  0  0  0  0  0  0  0  0  0
    7.6129    3.8712   22.9194 C   0  0  0  0  0  0  0  0  0  0  0  0
    8.1501    4.2082   24.1863 O   0  0  0  0  0  0  0  0  0  0  0  0
    9.5256    3.8921   24.3085 C   0  0  0  0  0  0  0  0  0  0  0  0
    9.8088    2.4021   24.0879 C   0  0  0  0  0  0  0  0  0  0  0  0
    9.3385    1.8403   24.9054 H   0  0  0  0  0  0  0  0  0  0  0  0
   10.8896    2.2218   24.1341 H   0  0  0  0  0  0  0  0  0  0  0  0
    9.8013    4.1775   25.3252 H   0  0  0  0  0  0  0  0  0  0  0  0
   10.1220    4.5001   23.6081 H   0  0  0  0  0  0  0  0  0  0  0  0
    8.0931    4.4649   22.1222 H   0  0  0  0  0  0  0  0  0  0  0  0
    6.5570    4.1534   22.9551 H   0  0  0  0  0  0  0  0  0  0  0  0
    7.3495    2.1793   21.6141 H   0  0  0  0  0  0  0  0  0  0  0  0
    7.1187    1.8398   23.3474 H   0  0  0  0  0  0  0  0  0  0  0  0
    9.7981    2.2834   21.8909 H   0  0  0  0  0  0  0  0  0  0  0  0
    9.2606   -0.9282   20.8359 H   0  0  0  0  0  0  0  0  0  0  0  0
    6.5684    0.2249   20.0974 C   0  0  0  0  0  0  0  0  0  0  0  0
    5.3001    0.8232   20.1737 C   0  0  0  0  0  0  0  0  0  0  0  0
    4.7414    1.3721   19.0154 C   0  0  0  0  0  0  0  0  0  0  0  0
    5.4660    1.3012   17.8211 C   0  0  0  0  0  0  0  0  0  0  0  0
    6.6740    0.7317   17.7250 N   0  0  0  0  0  0  0  0  0  0  0  0
    7.2043    0.2206   18.8446 C   0  0  0  0  0  0  0  0  0  0  0  0
    8.1829   -0.2404   18.7285 H   0  0  0  0  0  0  0  0  0  0  0  0
    5.0649    1.7201   16.9011 H   0  0  0  0  0  0  0  0  0  0  0  0
    3.7745    1.8633   19.0196 H   0  0  0  0  0  0  0  0  0  0  0  0
    4.7560    0.8762   21.1200 H   0  0  0  0  0  0  0  0  0  0  0  0
    6.7820   -0.1861   22.1880 H   0  0  0  0  0  0  0  0  0  0  0  0
    5.8821   -2.1740   21.0263 H   0  0  0  0  0  0  0  0  0  0  0  0
    7.3405   -2.2765   20.0696 H   0  0  0  0  0  0  0  0  0  0  0  0
    8.5362   -3.4712   21.8424 H   0  0  0  0  0  0  0  0  0  0  0  0
    7.3752   -4.0033   23.9391 H   0  0  0  0  0  0  0  0  0  0  0  0
    6.0100   -2.8299   23.4980 H   0  0  0  0  0  0  0  0  0  0  0  0
  1  2  2  3
  2  3  1  0
  3  4  1  0
  4  5  1  0
  5  6  1  0
  6  7  2  0
  6  8  2  0
  6  9  1  0
  9 10  1  0
 10 11  1  0
 11 12  1  0
 12 13  1  0
 13 14  1  0
 14 15  1  0
 14 16  1  0
 13 17  1  0
 13 18  1  0
 11 19  1  0
 11 20  1  0
 10 21  1  0
 10 22  1  0
  9 23  1  0
  5 24  1  0
  4 25  1  0
 25 26  2  0
 26 27  1  0
 27 28  2  0
 28 29  1  0
 29 30  2  0
 30 31  1  0
 28 32  1  0
 27 33  1  0
 26 34  1  0
  4 35  1  1
  3 36  1  0
  3 37  1  0
  2 38  1  0
  1 39  1  0
  1 40  1  0
 14  9  1  0
 30 25  1  0
M  END
>  <plip>  (1) 
-0.10344827586206896

>  <filename>  (1) 
[H][C]([H])=[C]([H])[C]([H])([H])[C@]([H])([c]1[c]([H])[n][c]([H])[c]([H])[c]1[H])[N]([H])[S](=[O])(=[O])[C]1([H])[C]([H])([H])[C]([H])([H])[O][C]([H])([H])[C]1([H])[H]

$$$$
