
     RDKit          3D

 40 43  0  0  0  0  0  0  0  0999 V2000
    4.9120    1.8142   16.9673 H   0  0  0  0  0  0  0  0  0  0  0  0
    5.3774    1.3068   17.8132 C   0  0  0  0  0  0  0  0  0  0  0  0
    6.5412    0.6871   17.5567 N   0  0  0  0  0  0  0  0  0  0  0  0
    7.1504    0.0774   18.5769 C   0  0  0  0  0  0  0  0  0  0  0  0
    8.1027   -0.3907   18.3322 H   0  0  0  0  0  0  0  0  0  0  0  0
    6.6583    0.0253   19.9017 C   0  0  0  0  0  0  0  0  0  0  0  0
    7.4120   -0.6784   20.9565 C   0  0  0  0  0  0  0  0  0  0  0  0
    8.3246   -1.7061   20.8937 C   0  0  0  0  0  0  0  0  0  0  0  0
    8.7354   -2.1168   19.9951 H   0  0  0  0  0  0  0  0  0  0  0  0
    8.7804   -2.1251   22.1132 N   0  0  0  0  0  0  0  0  0  0  0  0
    8.1713   -1.3123   22.9358 C   0  0  0  0  0  0  0  0  0  0  0  0
    8.2586   -0.9656   24.6282 S   0  0  0  0  0  0  0  0  0  0  0  0
    7.1491    0.3764   24.3074 C   0  0  0  0  0  0  0  0  0  0  0  0
    6.7090    1.2895   25.4053 C   0  0  0  0  0  0  0  0  0  0  0  0
    5.9980    1.9799   24.9212 H   0  0  0  0  0  0  0  0  0  0  0  0
    7.8892    2.0964   25.9932 C   0  0  0  0  0  0  0  0  0  0  0  0
    8.6447    1.4007   26.3888 H   0  0  0  0  0  0  0  0  0  0  0  0
    8.3762    2.6970   25.2153 H   0  0  0  0  0  0  0  0  0  0  0  0
    7.4128    3.0218   27.1052 C   0  0  0  0  0  0  0  0  0  0  0  0
    8.2615    3.5151   27.5787 H   0  0  0  0  0  0  0  0  0  0  0  0
    6.7654    3.8153   26.6957 H   0  0  0  0  0  0  0  0  0  0  0  0
    6.6930    2.2701   28.1411 N   0  0  0  0  0  0  0  0  0  0  0  0
    6.8330    2.6747   29.4493 C   0  0  0  0  0  0  0  0  0  0  0  0
    7.4503    3.6828   29.7514 O   0  0  0  0  0  0  0  0  0  0  0  0
    6.2168    1.8013   30.5231 C   0  0  0  0  0  0  0  0  0  0  0  0
    6.4537    0.7436   30.3762 H   0  0  0  0  0  0  0  0  0  0  0  0
    6.6289    2.1446   31.4717 H   0  0  0  0  0  0  0  0  0  0  0  0
    5.1278    1.9063   30.5525 H   0  0  0  0  0  0  0  0  0  0  0  0
    5.5679    1.4655   27.6608 C   0  0  0  0  0  0  0  0  0  0  0  0
    5.1468    0.8886   28.4886 H   0  0  0  0  0  0  0  0  0  0  0  0
    4.7678    2.1215   27.2753 H   0  0  0  0  0  0  0  0  0  0  0  0
    6.0097    0.5193   26.5477 C   0  0  0  0  0  0  0  0  0  0  0  0
    5.1358   -0.0207   26.1638 H   0  0  0  0  0  0  0  0  0  0  0  0
    6.7086   -0.2280   26.9507 H   0  0  0  0  0  0  0  0  0  0  0  0
    6.7628    0.5301   23.0859 N   0  0  0  0  0  0  0  0  0  0  0  0
    7.3323   -0.4321   22.3206 N   0  0  0  0  0  0  0  0  0  0  0  0
    5.4275    0.6640   20.1392 C   0  0  0  0  0  0  0  0  0  0  0  0
    5.0089    0.6522   21.1430 H   0  0  0  0  0  0  0  0  0  0  0  0
    4.7877    1.3153   19.0814 C   0  0  0  0  0  0  0  0  0  0  0  0
    3.8562    1.8505   19.2278 H   0  0  0  0  0  0  0  0  0  0  0  0
  1  2  1  0
  2  3  2  0
  3  4  1  0
  4  5  1  0
  4  6  2  0
  6  7  1  0
  7  8  2  0
  8  9  1  0
  8 10  1  0
 10 11  2  0
 11 12  1  0
 12 13  1  0
 13 14  1  0
 14 15  1  0
 14 16  1  0
 16 17  1  0
 16 18  1  0
 16 19  1  0
 19 20  1  0
 19 21  1  0
 19 22  1  0
 22 23  1  0
 23 24  2  0
 23 25  1  0
 25 26  1  0
 25 27  1  0
 25 28  1  0
 22 29  1  0
 29 30  1  0
 29 31  1  0
 29 32  1  0
 32 33  1  0
 32 34  1  0
 13 35  2  0
 35 36  1  0
  6 37  1  0
 37 38  1  0
 37 39  2  0
 39 40  1  0
 39  2  1  0
 36  7  1  0
 36 11  1  0
 32 14  1  0
M  END
>  <plip>  (1) 
-0.03571428571428571

>  <filename>  (1) 
[H][c]1[n][c]([H])[c](-[c]2[c]([H])[n][c]3[s][c]([C]4([H])[C]([H])([H])[C]([H])([H])[N]([C](=[O])[C]([H])([H])[H])[C]([H])([H])[C]4([H])[H])[n][n]23)[c]([H])[c]1[H]

$$$$
