
     RDKit          3D

 40 41  0  0  0  0  0  0  0  0999 V2000
    6.1673   -6.7171   27.4808 C   0  0  0  0  0  0  0  0  0  0  0  0
    5.5494   -5.3190   27.3629 C   0  0  0  0  0  0  0  0  0  0  0  0
    5.4727   -4.8291   25.9428 C   0  0  0  0  0  0  0  0  0  0  0  0
    6.4626   -4.2397   25.2563 C   0  0  0  0  0  0  0  0  0  0  0  0
    7.8548   -4.0454   25.7138 C   0  0  0  0  0  0  0  0  0  0  0  0
    8.8189   -3.3715   25.0643 C   0  0  0  0  0  0  0  0  0  0  0  0
    8.6674   -2.3337   24.0022 C   0  0  0  0  0  0  0  0  0  0  0  0
    9.5328   -2.1597   23.1535 O   0  0  0  0  0  0  0  0  0  0  0  0
    7.5247   -1.5932   24.0811 N   0  0  0  0  0  0  0  0  0  0  0  0
    6.9378   -0.8626   22.9758 C   0  0  1  0  0  0  0  0  0  0  0  0
    7.8536    0.0944   22.1869 C   0  0  0  0  0  0  0  0  0  0  0  0
    7.5352   -0.6753   20.8782 C   0  0  2  0  0  0  0  0  0  0  0  0
    8.6842   -1.2623   20.3390 O   0  0  0  0  0  0  0  0  0  0  0  0
    9.1591   -1.6375   21.1008 H   0  0  0  0  0  0  0  0  0  0  0  0
    6.7490    0.0647   19.8314 C   0  0  0  0  0  0  0  0  0  0  0  0
    5.5389    0.7197   20.1211 C   0  0  0  0  0  0  0  0  0  0  0  0
    4.8680    1.3872   19.0974 C   0  0  0  0  0  0  0  0  0  0  0  0
    5.4202    1.3659   17.8115 C   0  0  0  0  0  0  0  0  0  0  0  0
    6.5595    0.7298   17.5045 N   0  0  0  0  0  0  0  0  0  0  0  0
    7.1976    0.1045   18.5022 C   0  0  0  0  0  0  0  0  0  0  0  0
    8.1184   -0.4036   18.2391 H   0  0  0  0  0  0  0  0  0  0  0  0
    4.9135    1.8741   16.9933 H   0  0  0  0  0  0  0  0  0  0  0  0
    3.9393    1.9205   19.2763 H   0  0  0  0  0  0  0  0  0  0  0  0
    5.1220    0.7180   21.1303 H   0  0  0  0  0  0  0  0  0  0  0  0
    6.6902   -1.6877   21.6904 C   0  0  0  0  0  0  0  0  0  0  0  0
    5.6516   -1.8150   21.3762 H   0  0  0  0  0  0  0  0  0  0  0  0
    7.1755   -2.6654   21.7354 H   0  0  0  0  0  0  0  0  0  0  0  0
    7.5949    1.1539   22.1955 H   0  0  0  0  0  0  0  0  0  0  0  0
    8.9013   -0.0021   22.4633 H   0  0  0  0  0  0  0  0  0  0  0  0
    6.0478   -0.3492   23.3517 H   0  0  0  0  0  0  0  0  0  0  0  0
    6.8964   -1.9293   24.7927 H   0  0  0  0  0  0  0  0  0  0  0  0
    9.8652   -3.6086   25.2305 H   0  0  0  0  0  0  0  0  0  0  0  0
    8.1182   -4.5462   26.6475 H   0  0  0  0  0  0  0  0  0  0  0  0
    6.2524   -3.9635   24.2253 H   0  0  0  0  0  0  0  0  0  0  0  0
    4.5349   -4.9987   25.4170 H   0  0  0  0  0  0  0  0  0  0  0  0
    4.5455   -5.3266   27.8049 H   0  0  0  0  0  0  0  0  0  0  0  0
    6.1422   -4.5957   27.9390 H   0  0  0  0  0  0  0  0  0  0  0  0
    7.1704   -6.7103   27.0381 H   0  0  0  0  0  0  0  0  0  0  0  0
    5.5595   -7.4668   26.9578 H   0  0  0  0  0  0  0  0  0  0  0  0
    6.2572   -7.0331   28.5276 H   0  0  0  0  0  0  0  0  0  0  0  0
  1  2  1  0
  2  3  1  0
  3  4  2  3
  4  5  1  0
  5  6  2  3
  6  7  1  0
  7  8  2  0
  7  9  1  0
  9 10  1  0
 10 11  1  0
 11 12  1  0
 12 13  1  6
 13 14  1  0
 12 15  1  0
 15 16  2  0
 16 17  1  0
 17 18  2  0
 18 19  1  0
 19 20  2  0
 20 21  1  0
 18 22  1  0
 17 23  1  0
 16 24  1  0
 12 25  1  0
 25 26  1  0
 25 27  1  0
 11 28  1  0
 11 29  1  0
 10 30  1  1
  9 31  1  0
  6 32  1  0
  5 33  1  0
  4 34  1  0
  3 35  1  0
  2 36  1  0
  2 37  1  0
  1 38  1  0
  1 39  1  0
  1 40  1  0
 25 10  1  0
 20 15  1  0
M  END
>  <plip>  (1) 
-0.07142857142857142

>  <filename>  (1) 
[H][O][C@]1([c]2[c]([H])[n][c]([H])[c]([H])[c]2[H])[C]([H])([H])[C@]([H])([N]([H])[C](=[O])[C]([H])=[C]([H])[C]([H])=[C]([H])[C]([H])([H])[C]([H])([H])[H])[C]1([H])[H]

$$$$
