
     RDKit          3D

 44 46  0  0  0  0  0  0  0  0999 V2000
    4.7829    4.1310   27.7270 C   0  0  0  0  0  0  0  0  0  0  0  0
    5.3133    3.0702   26.9516 O   0  0  0  0  0  0  0  0  0  0  0  0
    6.3701    3.2899   26.1178 C   0  0  0  0  0  0  0  0  0  0  0  0
    7.0136    4.5218   25.9396 C   0  0  0  0  0  0  0  0  0  0  0  0
    8.0920    4.6138   25.0491 C   0  0  0  0  0  0  0  0  0  0  0  0
    8.5441    3.5006   24.3473 C   0  0  0  0  0  0  0  0  0  0  0  0
    7.9071    2.2586   24.5195 C   0  0  0  0  0  0  0  0  0  0  0  0
    8.3252    1.0533   23.7177 C   0  0  0  0  0  0  0  0  0  0  0  0
    8.2743    1.2848   22.1971 C   0  0  0  0  0  0  0  0  0  0  0  0
    8.6193   -0.0126   21.3892 N   0  0  0  0  0  4  0  0  0  0  0  0
    7.3728   -0.7544   20.9633 C   0  0  0  0  0  0  0  0  0  0  0  0
    6.6494    0.0122   19.9017 C   0  0  0  0  0  0  0  0  0  0  0  0
    5.4320    0.6562   20.1551 C   0  0  0  0  0  0  0  0  0  0  0  0
    4.8001    1.3157   19.0995 C   0  0  0  0  0  0  0  0  0  0  0  0
    5.4041    1.2960   17.8375 C   0  0  0  0  0  0  0  0  0  0  0  0
    6.5721    0.6872   17.5840 N   0  0  0  0  0  0  0  0  0  0  0  0
    7.1816    0.0798   18.6068 C   0  0  0  0  0  0  0  0  0  0  0  0
    8.1248   -0.4169   18.3754 H   0  0  0  0  0  0  0  0  0  0  0  0
    4.9232    1.7836   16.9909 H   0  0  0  0  0  0  0  0  0  0  0  0
    3.8693    1.8498   19.2482 H   0  0  0  0  0  0  0  0  0  0  0  0
    4.9983    0.6351   21.1620 H   0  0  0  0  0  0  0  0  0  0  0  0
    7.6575   -1.7545   20.6038 H   0  0  0  0  0  0  0  0  0  0  0  0
    6.7212   -0.8907   21.8369 H   0  0  0  0  0  0  0  0  0  0  0  0
    9.5575   -0.9404   22.1519 C   0  0  0  0  0  0  0  0  0  0  0  0
   10.5254   -0.1816   23.0731 C   0  0  0  0  0  0  0  0  0  0  0  0
    9.7884    0.6139   24.1360 N   0  0  0  0  0  4  0  0  0  0  0  0
    9.6802    0.0655   25.0186 H   0  0  0  0  0  0  0  0  0  0  0  0
   10.2425    1.5257   24.3931 H   0  0  0  0  0  0  0  0  0  0  0  0
   11.1000    0.4954   22.4344 H   0  0  0  0  0  0  0  0  0  0  0  0
   11.2137   -0.9018   23.5240 H   0  0  0  0  0  0  0  0  0  0  0  0
   10.1202   -1.5672   21.4530 H   0  0  0  0  0  0  0  0  0  0  0  0
    8.9418   -1.6052   22.7706 H   0  0  0  0  0  0  0  0  0  0  0  0
    9.0627    0.2882   20.4935 H   0  0  0  0  0  0  0  0  0  0  0  0
    7.2779    1.6296   21.9212 H   0  0  0  0  0  0  0  0  0  0  0  0
    8.9909    2.0663   21.9261 H   0  0  0  0  0  0  0  0  0  0  0  0
    7.6628    0.2163   23.9432 H   0  0  0  0  0  0  0  0  0  0  0  0
    6.8193    2.1668   25.3995 C   0  0  0  0  0  0  0  0  0  0  0  0
    6.3017    1.2228   25.5532 H   0  0  0  0  0  0  0  0  0  0  0  0
    9.3695    3.6139   23.6399 H   0  0  0  0  0  0  0  0  0  0  0  0
    8.5931    5.5674   24.9013 H   0  0  0  0  0  0  0  0  0  0  0  0
    6.6766    5.3952   26.4862 H   0  0  0  0  0  0  0  0  0  0  0  0
    5.5117    4.5482   28.4337 H   0  0  0  0  0  0  0  0  0  0  0  0
    3.9641    3.6962   28.2969 H   0  0  0  0  0  0  0  0  0  0  0  0
    4.3812    4.9470   27.1126 H   0  0  0  0  0  0  0  0  0  0  0  0
  1  2  1  0
  2  3  1  0
  3  4  2  0
  4  5  1  0
  5  6  2  0
  6  7  1  0
  7  8  1  0
  8  9  1  0
  9 10  1  0
 10 11  1  0
 11 12  1  0
 12 13  2  0
 13 14  1  0
 14 15  2  0
 15 16  1  0
 16 17  2  0
 17 18  1  0
 15 19  1  0
 14 20  1  0
 13 21  1  0
 11 22  1  0
 11 23  1  0
 10 24  1  0
 24 25  1  0
 25 26  1  0
 26 27  1  0
 26 28  1  0
 25 29  1  0
 25 30  1  0
 24 31  1  0
 24 32  1  0
 10 33  1  0
  9 34  1  0
  9 35  1  0
  8 36  1  0
  7 37  2  0
 37 38  1  0
  6 39  1  0
  5 40  1  0
  4 41  1  0
  1 42  1  0
  1 43  1  0
  1 44  1  0
 37  3  1  0
 26  8  1  0
 17 12  1  0
M  CHG  2  10   1  26   1
M  END
>  <plip>  (1) 
-0.06896551724137931

>  <filename>  (1) 
[H][c]1[n][c]([H])[c]([C]([H])([H])[N+]2([H])[C]([H])([H])[C]([H])([H])[N+]([H])([H])[C]([H])([c]3[c]([H])[c]([H])[c]([H])[c]([O][C]([H])([H])[H])[c]3[H])[C]2([H])[H])[c]([H])[c]1[H]

$$$$
