
     RDKit          3D

 35 36  0  0  0  0  0  0  0  0999 V2000
    4.9109    1.7947   16.9845 H   0  0  0  0  0  0  0  0  0  0  0  0
    5.3969    1.3015   17.8229 C   0  0  0  0  0  0  0  0  0  0  0  0
    6.5614    0.6858   17.5630 N   0  0  0  0  0  0  0  0  0  0  0  0
    7.1721    0.0593   18.5835 C   0  0  0  0  0  0  0  0  0  0  0  0
    8.1205   -0.4261   18.3536 H   0  0  0  0  0  0  0  0  0  0  0  0
    6.6689   -0.0035   19.9071 C   0  0  0  0  0  0  0  0  0  0  0  0
    7.2714   -0.7027   20.9860 N   0  0  0  0  0  0  0  0  0  0  0  0
    7.6086   -1.6258   20.7489 H   0  0  0  0  0  0  0  0  0  0  0  0
    8.2074   -0.0645   21.9423 C   0  0  0  0  0  0  0  0  0  0  0  0
    8.2584   -0.9945   23.1625 C   0  0  0  0  0  0  0  0  0  0  0  0
    9.4133   -1.1596   23.9375 C   0  0  0  0  0  0  0  0  0  0  0  0
   10.3435   -0.6646   23.6671 H   0  0  0  0  0  0  0  0  0  0  0  0
    9.4704   -1.9072   25.0451 N   0  0  0  0  0  0  0  0  0  0  0  0
    8.3567   -2.5313   25.4483 C   0  0  0  0  0  0  0  0  0  0  0  0
    8.4516   -3.1382   26.3452 H   0  0  0  0  0  0  0  0  0  0  0  0
    7.1252   -2.4286   24.7751 C   0  0  0  0  0  0  0  0  0  0  0  0
    5.9554   -3.0280   25.1270 O   0  0  0  0  0  0  0  0  0  0  0  0
    5.8796   -3.8531   26.2801 C   0  0  0  0  0  0  0  0  0  0  0  0
    6.5340   -4.7305   26.2090 H   0  0  0  0  0  0  0  0  0  0  0  0
    4.8438   -4.1891   26.3247 H   0  0  0  0  0  0  0  0  0  0  0  0
    6.1147   -3.3076   27.2023 H   0  0  0  0  0  0  0  0  0  0  0  0
    7.0947   -1.6359   23.6230 C   0  0  0  0  0  0  0  0  0  0  0  0
    6.1597   -1.5292   23.0794 H   0  0  0  0  0  0  0  0  0  0  0  0
    9.5798    0.1488   21.2668 C   0  0  0  0  0  0  0  0  0  0  0  0
   10.2500    0.7490   21.8948 H   0  0  0  0  0  0  0  0  0  0  0  0
   10.0734   -0.8036   21.0440 H   0  0  0  0  0  0  0  0  0  0  0  0
    9.4517    0.6924   20.3229 H   0  0  0  0  0  0  0  0  0  0  0  0
    7.6584    1.2981   22.3770 C   0  0  0  0  0  0  0  0  0  0  0  0
    6.6578    1.1839   22.7990 H   0  0  0  0  0  0  0  0  0  0  0  0
    7.5829    1.9914   21.5319 H   0  0  0  0  0  0  0  0  0  0  0  0
    8.3014    1.7419   23.1409 H   0  0  0  0  0  0  0  0  0  0  0  0
    5.4480    0.6466   20.1415 C   0  0  0  0  0  0  0  0  0  0  0  0
    5.0414    0.6146   21.1531 H   0  0  0  0  0  0  0  0  0  0  0  0
    4.8090    1.3097   19.0911 C   0  0  0  0  0  0  0  0  0  0  0  0
    3.8804    1.8383   19.2568 H   0  0  0  0  0  0  0  0  0  0  0  0
  1  2  1  0
  2  3  2  0
  3  4  1  0
  4  5  1  0
  4  6  2  0
  6  7  1  0
  7  8  1  0
  7  9  1  0
  9 10  1  0
 10 11  2  0
 11 12  1  0
 11 13  1  0
 13 14  2  0
 14 15  1  0
 14 16  1  0
 16 17  1  0
 17 18  1  0
 18 19  1  0
 18 20  1  0
 18 21  1  0
 16 22  2  0
 22 23  1  0
  9 24  1  0
 24 25  1  0
 24 26  1  0
 24 27  1  0
  9 28  1  0
 28 29  1  0
 28 30  1  0
 28 31  1  0
  6 32  1  0
 32 33  1  0
 32 34  2  0
 34 35  1  0
 34  2  1  0
 22 10  1  0
M  END
>  <plip>  (1) 
-0.03571428571428571

>  <filename>  (1) 
[H][c]1[n][c]([H])[c]([N]([H])[C]([c]2[c]([H])[n][c]([H])[c]([O][C]([H])([H])[H])[c]2[H])([C]([H])([H])[H])[C]([H])([H])[H])[c]([H])[c]1[H]

$$$$
