
     RDKit          3D

 43 45  0  0  0  0  0  0  0  0999 V2000
   10.1309    0.7005   21.0589 C   0  0  0  0  0  0  0  0  0  0  0  0
    8.8619    1.3256   21.4869 N   0  0  0  0  0  4  0  0  0  0  0  0
    9.1428    2.3595   22.5030 C   0  0  0  0  0  0  0  0  0  0  0  0
    9.8139    3.1271   22.0977 H   0  0  0  0  0  0  0  0  0  0  0  0
    9.6210    1.9122   23.3820 H   0  0  0  0  0  0  0  0  0  0  0  0
    8.2182    2.8512   22.8271 H   0  0  0  0  0  0  0  0  0  0  0  0
    7.9285    0.2965   22.0286 C   0  0  0  0  0  0  0  0  0  0  0  0
    7.4266   -0.7087   20.9781 C   0  0  0  0  0  0  0  0  0  0  0  0
    6.5927   -1.6963   21.6473 N   0  0  0  0  0  0  0  0  0  0  0  0
    6.0806   -2.8135   21.0175 C   0  0  0  0  0  0  0  0  0  0  0  0
    6.2247   -2.9201   19.8118 O   0  0  0  0  0  0  0  0  0  0  0  0
    5.2805   -3.7963   21.7541 C   0  0  0  0  0  0  0  0  0  0  0  0
    4.9750   -5.0651   21.3280 C   0  0  0  0  0  0  0  0  0  0  0  0
    5.7194   -5.8813   19.7682 Br  0  0  0  0  0  0  0  0  0  0  0  0
    3.9817   -5.5864   22.2424 C   0  0  0  0  0  0  0  0  0  0  0  0
    3.1262   -6.6983   22.2786 C   0  0  0  0  0  0  0  0  0  0  0  0
    2.2558   -6.8612   23.3676 C   0  0  0  0  0  0  0  0  0  0  0  0
    2.2697   -5.9400   24.4243 C   0  0  0  0  0  0  0  0  0  0  0  0
    3.0821   -4.8007   24.3537 C   0  0  0  0  0  0  0  0  0  0  0  0
    3.9137   -4.6334   23.2491 C   0  0  0  0  0  0  0  0  0  0  0  0
    4.6949   -3.5481   22.9712 O   0  0  0  0  0  0  0  0  0  0  0  0
    3.0551   -4.0394   25.1280 H   0  0  0  0  0  0  0  0  0  0  0  0
    1.6270   -6.0948   25.2862 H   0  0  0  0  0  0  0  0  0  0  0  0
    1.5664   -7.6997   23.3967 H   0  0  0  0  0  0  0  0  0  0  0  0
    3.1009   -7.4131   21.4618 H   0  0  0  0  0  0  0  0  0  0  0  0
    6.1599   -1.4427   22.5284 H   0  0  0  0  0  0  0  0  0  0  0  0
    6.6334   -0.0207   19.9005 C   0  0  0  0  0  0  0  0  0  0  0  0
    5.4285    0.6435   20.1541 C   0  0  0  0  0  0  0  0  0  0  0  0
    4.8098    1.3015   19.0920 C   0  0  0  0  0  0  0  0  0  0  0  0
    5.4059    1.2896   17.8272 C   0  0  0  0  0  0  0  0  0  0  0  0
    6.5612    0.6460   17.5799 N   0  0  0  0  0  0  0  0  0  0  0  0
    7.1534    0.0008   18.5993 C   0  0  0  0  0  0  0  0  0  0  0  0
    8.0981   -0.5005   18.4058 H   0  0  0  0  0  0  0  0  0  0  0  0
    4.9226    1.8311   17.0198 H   0  0  0  0  0  0  0  0  0  0  0  0
    3.8808    1.8417   19.2341 H   0  0  0  0  0  0  0  0  0  0  0  0
    4.9919    0.6559   21.1515 H   0  0  0  0  0  0  0  0  0  0  0  0
    8.3028   -1.2015   20.5393 H   0  0  0  0  0  0  0  0  0  0  0  0
    8.4313   -0.2734   22.8170 H   0  0  0  0  0  0  0  0  0  0  0  0
    7.0540    0.7736   22.4814 H   0  0  0  0  0  0  0  0  0  0  0  0
    8.4165    1.7794   20.6780 H   0  0  0  0  0  0  0  0  0  0  0  0
    9.9671    0.0195   20.2155 H   0  0  0  0  0  0  0  0  0  0  0  0
   10.5714    0.1240   21.8806 H   0  0  0  0  0  0  0  0  0  0  0  0
   10.8549    1.4641   20.7501 H   0  0  0  0  0  0  0  0  0  0  0  0
  1  2  1  0
  2  3  1  0
  3  4  1  0
  3  5  1  0
  3  6  1  0
  2  7  1  0
  7  8  1  0
  8  9  1  0
  9 10  1  0
 10 11  2  0
 10 12  1  0
 12 13  2  0
 13 14  1  0
 13 15  1  0
 15 16  2  0
 16 17  1  0
 17 18  2  0
 18 19  1  0
 19 20  2  0
 20 21  1  0
 19 22  1  0
 18 23  1  0
 17 24  1  0
 16 25  1  0
  9 26  1  0
  8 27  1  0
 27 28  2  0
 28 29  1  0
 29 30  2  0
 30 31  1  0
 31 32  2  0
 32 33  1  0
 30 34  1  0
 29 35  1  0
 28 36  1  0
  8 37  1  0
  7 38  1  0
  7 39  1  0
  2 40  1  0
  1 41  1  0
  1 42  1  0
  1 43  1  0
 21 12  1  0
 32 27  1  0
 20 15  1  0
M  CHG  1   2   1
M  END
>  <plip>  (1) 
-0.2413793103448276

>  <filename>  (1) 
[H][c]1[n][c]([H])[c]([C]([H])([N]([H])[C](=[O])[c]2[o][c]3[c]([H])[c]([H])[c]([H])[c]([H])[c]3[c]2[Br])[C]([H])([H])[N+]([H])([C]([H])([H])[H])[C]([H])([H])[H])[c]([H])[c]1[H]

$$$$
