
     RDKit          3D

 30 31  0  0  0  0  0  0  0  0999 V2000
    7.6885   -6.7963   25.7326 H   0  0  0  0  0  0  0  0  0  0  0  0
    8.2569   -6.0968   25.1296 C   0  0  0  0  0  0  0  0  0  0  0  0
    7.6956   -5.5868   24.0184 N   0  0  0  0  0  0  0  0  0  0  0  0
    8.3772   -4.6615   23.3111 C   0  0  0  0  0  0  0  0  0  0  0  0
    7.7249   -4.0019   22.1104 C   0  0  0  0  0  0  0  0  0  0  0  0
    8.2721   -4.2900   21.2063 H   0  0  0  0  0  0  0  0  0  0  0  0
    6.7067   -4.3883   22.0068 H   0  0  0  0  0  0  0  0  0  0  0  0
    7.6947   -2.5599   22.2352 O   0  0  0  0  0  0  0  0  0  0  0  0
    7.2855   -1.9052   21.0286 C   0  0  0  0  0  0  0  0  0  0  0  0
    6.2961   -2.2746   20.7364 H   0  0  0  0  0  0  0  0  0  0  0  0
    7.9975   -2.1392   20.2392 H   0  0  0  0  0  0  0  0  0  0  0  0
    7.2525   -0.3842   21.1691 C   0  0  1  0  0  0  0  0  0  0  0  0
    6.7212   -0.1291   22.0938 H   0  0  0  0  0  0  0  0  0  0  0  0
    9.1086    0.3286   21.2464 Br  0  0  0  0  0  0  0  0  0  0  0  0
    6.5599    0.2317   19.9743 C   0  0  0  0  0  0  0  0  0  0  0  0
    7.1541    0.1976   18.6972 C   0  0  0  0  0  0  0  0  0  0  0  0
    8.1210   -0.2851   18.5820 H   0  0  0  0  0  0  0  0  0  0  0  0
    6.5844    0.7371   17.6051 N   0  0  0  0  0  0  0  0  0  0  0  0
    5.3952    1.3477   17.7528 C   0  0  0  0  0  0  0  0  0  0  0  0
    4.9250    1.7976   16.8845 H   0  0  0  0  0  0  0  0  0  0  0  0
    4.7376    1.4191   18.9849 C   0  0  0  0  0  0  0  0  0  0  0  0
    3.7831    1.9278   19.0456 H   0  0  0  0  0  0  0  0  0  0  0  0
    5.3204    0.8561   20.1185 C   0  0  0  0  0  0  0  0  0  0  0  0
    4.8339    0.9134   21.0916 H   0  0  0  0  0  0  0  0  0  0  0  0
    9.6799   -4.3004   23.6790 C   0  0  0  0  0  0  0  0  0  0  0  0
   10.2336   -3.5896   23.0767 H   0  0  0  0  0  0  0  0  0  0  0  0
   10.2891   -4.8664   24.7923 C   0  0  0  0  0  0  0  0  0  0  0  0
   11.3093   -4.5955   25.0553 H   0  0  0  0  0  0  0  0  0  0  0  0
    9.5425   -5.7552   25.5521 C   0  0  0  0  0  0  0  0  0  0  0  0
    9.9319   -6.1616   26.4795 H   0  0  0  0  0  0  0  0  0  0  0  0
  1  2  1  0
  2  3  2  0
  3  4  1  0
  4  5  1  0
  5  6  1  0
  5  7  1  0
  5  8  1  0
  8  9  1  0
  9 10  1  0
  9 11  1  0
  9 12  1  0
 12 13  1  1
 12 14  1  0
 12 15  1  0
 15 16  2  0
 16 17  1  0
 16 18  1  0
 18 19  2  0
 19 20  1  0
 19 21  1  0
 21 22  1  0
 21 23  2  0
 23 24  1  0
  4 25  2  0
 25 26  1  0
 25 27  1  0
 27 28  1  0
 27 29  2  0
 29 30  1  0
 29  2  1  0
 23 15  1  0
M  END
>  <plip>  (1) 
-0.10344827586206896

>  <filename>  (1) 
[H][c]1[n][c]([C]([H])([H])[O][C]([H])([H])[C@@]([H])([Br])[c]2[c]([H])[n][c]([H])[c]([H])[c]2[H])[c]([H])[c]([H])[c]1[H]

$$$$
