
     RDKit          3D

 46 48  0  0  0  0  0  0  0  0999 V2000
    7.5130   -4.7526   23.1377 O   0  0  0  0  0  0  0  0  0  0  0  0
    6.1989   -5.3613   23.2599 S   0  0  0  0  0  0  0  0  0  0  0  0
    6.0023   -6.7918   23.0993 O   0  0  0  0  0  0  0  0  0  0  0  0
    5.1445   -4.5697   22.1008 C   0  0  0  0  0  0  0  0  0  0  0  0
    5.8675   -4.4411   20.7235 C   0  0  0  0  0  0  0  0  0  0  0  0
    5.9699   -2.9050   20.9226 N   0  0  0  0  0  4  0  0  0  0  0  0
    7.3310   -2.1942   20.9663 C   0  0  0  0  0  0  0  0  0  0  0  0
    7.3145   -0.6626   21.1249 C   0  0  0  0  0  0  0  0  0  0  0  0
    8.6994   -0.3377   21.0875 O   0  0  0  0  0  0  0  0  0  0  0  0
    8.7571    0.6263   20.9900 H   0  0  0  0  0  0  0  0  0  0  0  0
    6.6039    0.0727   20.0029 C   0  0  0  0  0  0  0  0  0  0  0  0
    5.3629    0.7077   20.1653 C   0  0  0  0  0  0  0  0  0  0  0  0
    4.7816    1.3456   19.0639 C   0  0  0  0  0  0  0  0  0  0  0  0
    5.4581    1.3211   17.8423 C   0  0  0  0  0  0  0  0  0  0  0  0
    6.6433    0.7187   17.6642 N   0  0  0  0  0  0  0  0  0  0  0  0
    7.1963    0.1255   18.7283 C   0  0  0  0  0  0  0  0  0  0  0  0
    8.1682   -0.3379   18.5552 H   0  0  0  0  0  0  0  0  0  0  0  0
    5.0276    1.8072   16.9666 H   0  0  0  0  0  0  0  0  0  0  0  0
    3.8353    1.8703   19.1479 H   0  0  0  0  0  0  0  0  0  0  0  0
    4.8711    0.7084   21.1395 H   0  0  0  0  0  0  0  0  0  0  0  0
    6.8603   -0.3932   22.0978 H   0  0  0  0  0  0  0  0  0  0  0  0
    7.8261   -2.3523   20.0169 H   0  0  0  0  0  0  0  0  0  0  0  0
    7.9346   -2.6248   21.7644 H   0  0  0  0  0  0  0  0  0  0  0  0
    5.1495   -3.0262   22.2207 C   0  0  0  0  0  0  0  0  0  0  0  0
    5.6359   -2.5646   23.0825 H   0  0  0  0  0  0  0  0  0  0  0  0
    4.1807   -2.5595   22.0716 H   0  0  0  0  0  0  0  0  0  0  0  0
    5.4566   -2.4030   20.1676 H   0  0  0  0  0  0  0  0  0  0  0  0
    5.2378   -4.6466   19.8608 H   0  0  0  0  0  0  0  0  0  0  0  0
    6.8428   -4.9122   20.5900 H   0  0  0  0  0  0  0  0  0  0  0  0
    4.1991   -5.1116   22.1220 H   0  0  0  0  0  0  0  0  0  0  0  0
    5.5952   -4.9102   24.7732 N   0  0  0  0  0  0  0  0  0  0  0  0
    6.6110   -5.2006   25.8492 C   0  0  0  0  0  0  0  0  0  0  0  0
    5.9905   -5.2284   27.2645 C   0  0  0  0  0  0  0  0  0  0  0  0
    4.9177   -6.3400   27.3967 N   0  0  0  0  0  4  0  0  0  0  0  0
    4.2287   -6.6173   26.0310 C   0  0  0  0  0  0  0  0  0  0  0  0
    4.2215   -5.3478   25.1524 C   0  0  0  0  0  0  0  0  0  0  0  0
    3.7792   -4.5237   25.7352 H   0  0  0  0  0  0  0  0  0  0  0  0
    3.5747   -5.4995   24.2888 H   0  0  0  0  0  0  0  0  0  0  0  0
    3.2098   -6.9661   26.2072 H   0  0  0  0  0  0  0  0  0  0  0  0
    4.7928   -7.3894   25.4987 H   0  0  0  0  0  0  0  0  0  0  0  0
    4.1900   -6.0637   28.0987 H   0  0  0  0  0  0  0  0  0  0  0  0
    5.3760   -7.2115   27.7584 H   0  0  0  0  0  0  0  0  0  0  0  0
    5.5350   -4.2537   27.4668 H   0  0  0  0  0  0  0  0  0  0  0  0
    6.7829   -5.4022   27.9957 H   0  0  0  0  0  0  0  0  0  0  0  0
    7.1139   -6.1697   25.6940 H   0  0  0  0  0  0  0  0  0  0  0  0
    7.3714   -4.4194   25.8312 H   0  0  0  0  0  0  0  0  0  0  0  0
  1  2  2  0
  2  3  2  0
  2  4  1  0
  4  5  1  0
  5  6  1  0
  6  7  1  0
  7  8  1  0
  8  9  1  0
  9 10  1  0
  8 11  1  0
 11 12  2  0
 12 13  1  0
 13 14  2  0
 14 15  1  0
 15 16  2  0
 16 17  1  0
 14 18  1  0
 13 19  1  0
 12 20  1  0
  8 21  1  0
  7 22  1  0
  7 23  1  0
  6 24  1  0
 24 25  1  0
 24 26  1  0
  6 27  1  0
  5 28  1  0
  5 29  1  0
  4 30  1  0
  2 31  1  0
 31 32  1  0
 32 33  1  0
 33 34  1  0
 34 35  1  0
 35 36  1  0
 36 37  1  0
 36 38  1  0
 35 39  1  0
 35 40  1  0
 34 41  1  0
 34 42  1  0
 33 43  1  0
 33 44  1  0
 32 45  1  0
 32 46  1  0
 24  4  1  0
 36 31  1  0
 16 11  1  0
M  CHG  2   6   1  34   1
M  END
>  <plip>  (1) 
-0.13333333333333333

>  <filename>  (1) 
[H][O][C]([H])([c]1[c]([H])[n][c]([H])[c]([H])[c]1[H])[C]([H])([H])[N+]1([H])[C]([H])([H])[C]([H])([S](=[O])(=[O])[N]2[C]([H])([H])[C]([H])([H])[N+]([H])([H])[C]([H])([H])[C]2([H])[H])[C]1([H])[H]

$$$$
