
     RDKit          3D

 38 40  0  0  0  0  0  0  0  0999 V2000
    6.2885    2.7401   27.3073 C   0  0  0  0  0  0  0  0  0  0  0  0
    7.3803    3.5200   26.6310 C   0  0  0  0  0  0  0  0  0  0  0  0
    7.9576    4.6515   27.1943 C   0  0  0  0  0  0  0  0  0  0  0  0
    8.9913    5.3773   26.5393 C   0  0  0  0  0  0  0  0  0  0  0  0
    9.4423    4.9611   25.3022 C   0  0  0  0  0  0  0  0  0  0  0  0
   10.4197    5.6409   24.6691 F   0  0  0  0  0  0  0  0  0  0  0  0
    8.8752    3.8154   24.7017 C   0  0  0  0  0  0  0  0  0  0  0  0
    7.8498    3.0969   25.3606 C   0  0  0  0  0  0  0  0  0  0  0  0
    7.4971    2.0170   24.5079 C   0  0  0  0  0  0  0  0  0  0  0  0
    8.2803    2.0786   23.3780 C   0  0  0  0  0  0  0  0  0  0  0  0
    8.3304    1.2144   22.1529 C   0  0  0  0  0  0  0  0  0  0  0  0
    9.0365    1.4701   21.1864 O   0  0  0  0  0  0  0  0  0  0  0  0
    7.5515    0.0922   22.1768 N   0  0  0  0  0  0  0  0  0  0  0  0
    7.3979   -0.7329   20.9909 C   0  0  1  0  0  0  0  0  0  0  0  0
    6.6822   -2.0364   21.3108 C   0  0  0  0  0  0  0  0  0  0  0  0
    7.2114   -2.6158   22.0723 H   0  0  0  0  0  0  0  0  0  0  0  0
    6.6208   -2.6440   20.4050 H   0  0  0  0  0  0  0  0  0  0  0  0
    5.6504   -1.8620   21.6360 H   0  0  0  0  0  0  0  0  0  0  0  0
    6.6666    0.0272   19.9046 C   0  0  0  0  0  0  0  0  0  0  0  0
    5.4396    0.6564   20.1514 C   0  0  0  0  0  0  0  0  0  0  0  0
    4.8029    1.3089   19.0978 C   0  0  0  0  0  0  0  0  0  0  0  0
    5.4028    1.2892   17.8312 C   0  0  0  0  0  0  0  0  0  0  0  0
    6.5627    0.6718   17.5685 N   0  0  0  0  0  0  0  0  0  0  0  0
    7.1717    0.0742   18.6046 C   0  0  0  0  0  0  0  0  0  0  0  0
    8.1158   -0.4173   18.3752 H   0  0  0  0  0  0  0  0  0  0  0  0
    4.9183    1.7821   16.9909 H   0  0  0  0  0  0  0  0  0  0  0  0
    3.8730    1.8424   19.2555 H   0  0  0  0  0  0  0  0  0  0  0  0
    5.0039    0.6413   21.1557 H   0  0  0  0  0  0  0  0  0  0  0  0
    8.4088   -0.9574   20.6337 H   0  0  0  0  0  0  0  0  0  0  0  0
    6.9955   -0.0983   22.9869 H   0  0  0  0  0  0  0  0  0  0  0  0
    9.1138    3.1838   23.5129 N   0  0  0  0  0  0  0  0  0  0  0  0
    9.7918    3.5072   22.8392 H   0  0  0  0  0  0  0  0  0  0  0  0
    6.7211    1.2970   24.7461 H   0  0  0  0  0  0  0  0  0  0  0  0
    9.4340    6.2629   26.9914 H   0  0  0  0  0  0  0  0  0  0  0  0
    7.6082    4.9868   28.1692 H   0  0  0  0  0  0  0  0  0  0  0  0
    6.5878    1.6964   27.4562 H   0  0  0  0  0  0  0  0  0  0  0  0
    5.3832    2.7193   26.6900 H   0  0  0  0  0  0  0  0  0  0  0  0
    6.0241    3.1584   28.2813 H   0  0  0  0  0  0  0  0  0  0  0  0
  1  2  1  0
  2  3  2  0
  3  4  1  0
  4  5  2  0
  5  6  1  0
  5  7  1  0
  7  8  2  0
  8  9  1  0
  9 10  2  0
 10 11  1  0
 11 12  2  0
 11 13  1  0
 13 14  1  0
 14 15  1  0
 15 16  1  0
 15 17  1  0
 15 18  1  0
 14 19  1  0
 19 20  2  0
 20 21  1  0
 21 22  2  0
 22 23  1  0
 23 24  2  0
 24 25  1  0
 22 26  1  0
 21 27  1  0
 20 28  1  0
 14 29  1  6
 13 30  1  0
 10 31  1  0
 31 32  1  0
  9 33  1  0
  4 34  1  0
  3 35  1  0
  1 36  1  0
  1 37  1  0
  1 38  1  0
  8  2  1  0
 24 19  1  0
 31  7  1  0
M  END
>  <plip>  (1) 
-0.14285714285714285

>  <filename>  (1) 
[H][c]1[n][c]([H])[c]([C@@]([H])([N]([H])[C](=[O])[c]2[c]([H])[c]3[c]([C]([H])([H])[H])[c]([H])[c]([H])[c]([F])[c]3[n]2[H])[C]([H])([H])[H])[c]([H])[c]1[H]

$$$$
