
     RDKit          3D

 37 38  0  0  0  0  0  0  0  0999 V2000
    4.9210    1.7811   16.9908 H   0  0  0  0  0  0  0  0  0  0  0  0
    5.4012    1.2916   17.8335 C   0  0  0  0  0  0  0  0  0  0  0  0
    6.5614    0.6741   17.5810 N   0  0  0  0  0  0  0  0  0  0  0  0
    7.1710    0.0714   18.6108 C   0  0  0  0  0  0  0  0  0  0  0  0
    8.1112   -0.4144   18.3654 H   0  0  0  0  0  0  0  0  0  0  0  0
    6.6743    0.0264   19.9167 C   0  0  0  0  0  0  0  0  0  0  0  0
    7.3431   -0.7694   21.0316 C   0  0  0  0  0  0  0  0  0  0  0  0
    7.2893    0.0809   22.2422 N   0  0  0  0  0  0  0  0  0  0  0  0
    7.8028    0.9361   22.0228 H   0  0  0  0  0  0  0  0  0  0  0  0
    7.7861   -0.5427   23.4244 N   0  0  0  0  0  0  0  0  0  0  0  0
    6.7022   -0.6046   24.4074 C   0  0  0  0  0  0  0  0  0  0  0  0
    6.3715    0.4122   24.6913 H   0  0  0  0  0  0  0  0  0  0  0  0
    5.8613   -1.0893   23.9286 H   0  0  0  0  0  0  0  0  0  0  0  0
    7.1205   -1.4208   25.6230 C   0  0  0  0  0  0  0  0  0  0  0  0
    7.2891   -2.4577   25.3018 H   0  0  0  0  0  0  0  0  0  0  0  0
    6.2997   -1.4447   26.3494 H   0  0  0  0  0  0  0  0  0  0  0  0
    8.3956   -0.8411   26.2429 C   0  0  0  0  0  0  0  0  0  0  0  0
    8.7475   -1.4818   27.0569 H   0  0  0  0  0  0  0  0  0  0  0  0
    8.1642    0.1392   26.6829 H   0  0  0  0  0  0  0  0  0  0  0  0
    9.4853   -0.6706   25.1732 C   0  0  0  0  0  0  0  0  0  0  0  0
    9.8241   -1.6541   24.8241 H   0  0  0  0  0  0  0  0  0  0  0  0
   10.3572   -0.1601   25.5934 H   0  0  0  0  0  0  0  0  0  0  0  0
    8.9671    0.1211   23.9713 C   0  0  0  0  0  0  0  0  0  0  0  0
    9.7399    0.1790   23.1963 H   0  0  0  0  0  0  0  0  0  0  0  0
    8.7262    1.1596   24.2726 H   0  0  0  0  0  0  0  0  0  0  0  0
    6.5342   -2.0542   21.2725 C   0  0  0  0  0  0  0  0  0  0  0  0
    6.9902   -2.6576   22.0668 H   0  0  0  0  0  0  0  0  0  0  0  0
    6.4776   -2.6374   20.3491 H   0  0  0  0  0  0  0  0  0  0  0  0
    5.5081   -1.8151   21.5694 H   0  0  0  0  0  0  0  0  0  0  0  0
    8.8102   -1.1271   20.7398 C   0  0  0  0  0  0  0  0  0  0  0  0
    8.8857   -1.8224   19.9061 H   0  0  0  0  0  0  0  0  0  0  0  0
    9.4000   -0.2379   20.4848 H   0  0  0  0  0  0  0  0  0  0  0  0
    9.2511   -1.6090   21.6207 H   0  0  0  0  0  0  0  0  0  0  0  0
    5.4401    0.6613   20.1520 C   0  0  0  0  0  0  0  0  0  0  0  0
    5.0173    0.6447   21.1615 H   0  0  0  0  0  0  0  0  0  0  0  0
    4.8051    1.3112   19.0993 C   0  0  0  0  0  0  0  0  0  0  0  0
    3.8730    1.8428   19.2533 H   0  0  0  0  0  0  0  0  0  0  0  0
  1  2  1  0
  2  3  2  0
  3  4  1  0
  4  5  1  0
  4  6  2  0
  6  7  1  0
  7  8  1  0
  8  9  1  0
  8 10  1  0
 10 11  1  0
 11 12  1  0
 11 13  1  0
 11 14  1  0
 14 15  1  0
 14 16  1  0
 14 17  1  0
 17 18  1  0
 17 19  1  0
 17 20  1  0
 20 21  1  0
 20 22  1  0
 20 23  1  0
 23 24  1  0
 23 25  1  0
  7 26  1  0
 26 27  1  0
 26 28  1  0
 26 29  1  0
  7 30  1  0
 30 31  1  0
 30 32  1  0
 30 33  1  0
  6 34  1  0
 34 35  1  0
 34 36  2  0
 36 37  1  0
 36  2  1  0
 23 10  1  0
M  END
>  <plip>  (1) 
-0.03571428571428571

>  <filename>  (1) 
[H][c]1[n][c]([H])[c]([C]([N]([H])[N]2[C]([H])([H])[C]([H])([H])[C]([H])([H])[C]([H])([H])[C]2([H])[H])([C]([H])([H])[H])[C]([H])([H])[H])[c]([H])[c]1[H]

$$$$
