
     RDKit          3D

 30 33  0  0  0  0  0  0  0  0999 V2000
    4.9218    1.7906   16.9871 H   0  0  0  0  0  0  0  0  0  0  0  0
    5.4003    1.2944   17.8305 C   0  0  0  0  0  0  0  0  0  0  0  0
    6.5641    0.6745   17.5753 N   0  0  0  0  0  0  0  0  0  0  0  0
    7.1686    0.0527   18.5937 C   0  0  0  0  0  0  0  0  0  0  0  0
    8.1227   -0.4194   18.3707 H   0  0  0  0  0  0  0  0  0  0  0  0
    6.6501   -0.0001   19.9024 C   0  0  0  0  0  0  0  0  0  0  0  0
    7.3538   -0.6980   20.9450 N   0  0  0  0  0  0  0  0  0  0  0  0
    7.7435   -0.2830   22.2117 C   0  0  0  0  0  0  0  0  0  0  0  0
    7.6144    1.1263   22.5986 C   0  0  0  0  0  0  0  0  0  0  0  0
    7.3660    2.1535   21.8402 N   0  0  0  0  0  0  0  0  0  0  0  0
    7.3991    3.2317   22.7137 C   0  0  0  0  0  0  0  0  0  0  0  0
    7.1888    4.6010   22.4945 C   0  0  0  0  0  0  0  0  0  0  0  0
    6.9578    4.9412   21.4876 H   0  0  0  0  0  0  0  0  0  0  0  0
    7.2863    5.4559   23.5953 C   0  0  0  0  0  0  0  0  0  0  0  0
    7.1313    6.5252   23.4485 H   0  0  0  0  0  0  0  0  0  0  0  0
    7.5834    4.9521   24.8878 C   0  0  0  0  0  0  0  0  0  0  0  0
    7.6537    5.6464   25.7230 H   0  0  0  0  0  0  0  0  0  0  0  0
    7.7866    3.5841   25.1157 C   0  0  0  0  0  0  0  0  0  0  0  0
    8.0152    3.1635   26.0929 H   0  0  0  0  0  0  0  0  0  0  0  0
    7.6796    2.7590   24.0000 C   0  0  0  0  0  0  0  0  0  0  0  0
    7.8146    1.4119   23.9176 O   0  0  0  0  0  0  0  0  0  0  0  0
    8.2721   -1.2735   22.9080 N   0  0  0  0  0  0  0  0  0  0  0  0
    8.2370   -2.3579   22.0857 C   0  0  0  0  0  0  0  0  0  0  0  0
    8.6157   -3.3217   22.4012 H   0  0  0  0  0  0  0  0  0  0  0  0
    7.6713   -2.0283   20.8858 C   0  0  0  0  0  0  0  0  0  0  0  0
    7.3257   -2.5927   20.0456 H   0  0  0  0  0  0  0  0  0  0  0  0
    5.4173    0.6151   20.1516 C   0  0  0  0  0  0  0  0  0  0  0  0
    5.0083    0.6372   21.1659 H   0  0  0  0  0  0  0  0  0  0  0  0
    4.7993    1.2931   19.0942 C   0  0  0  0  0  0  0  0  0  0  0  0
    3.8781    1.8401   19.2573 H   0  0  0  0  0  0  0  0  0  0  0  0
  1  2  1  0
  2  3  2  0
  3  4  1  0
  4  5  1  0
  4  6  2  0
  6  7  1  0
  7  8  1  0
  8  9  1  0
  9 10  2  0
 10 11  1  0
 11 12  2  0
 12 13  1  0
 12 14  1  0
 14 15  1  0
 14 16  2  0
 16 17  1  0
 16 18  1  0
 18 19  1  0
 18 20  2  0
 20 21  1  0
  8 22  2  0
 22 23  1  0
 23 24  1  0
 23 25  2  0
 25 26  1  0
  6 27  1  0
 27 28  1  0
 27 29  2  0
 29 30  1  0
 29  2  1  0
 25  7  1  0
 21  9  1  0
 20 11  1  0
M  END
>  <plip>  (1) 
-0.07142857142857142

>  <filename>  (1) 
[H][c]1[n][c]([H])[c](-[n]2[c](-[c]3[n][c]4[c]([H])[c]([H])[c]([H])[c]([H])[c]4[o]3)[n][c]([H])[c]2[H])[c]([H])[c]1[H]

$$$$
