
     RDKit          3D

 50 53  0  0  0  0  0  0  0  0999 V2000
    6.5997   -3.0437   20.7212 C   0  0  0  0  0  0  0  0  0  0  0  0
    6.6569   -1.8374   21.5806 N   0  0  0  0  0  4  0  0  0  0  0  0
    7.2154   -2.0993   22.9527 C   0  0  0  0  0  0  0  0  0  0  0  0
    7.9309   -0.7970   23.3653 C   0  0  0  0  0  0  0  0  0  0  0  0
    7.8246    0.1757   22.1684 C   0  0  1  0  0  0  0  0  0  0  0  0
    9.0915    1.0123   21.9036 C   0  0  0  0  0  0  0  0  0  0  0  0
    9.4164    1.9069   23.0047 N   0  0  0  0  0  0  0  0  0  0  0  0
    8.6759    3.0235   23.2284 C   0  0  0  0  0  0  0  0  0  0  0  0
    7.7725    3.3605   22.4747 O   0  0  0  0  0  0  0  0  0  0  0  0
    9.0183    3.7991   24.4721 C   0  0  2  0  0  0  0  0  0  0  0  0
    7.9062    4.6002   25.1399 C   0  0  0  0  0  0  0  0  0  0  0  0
    8.9788    5.3192   24.3863 C   0  0  1  0  0  0  0  0  0  0  0  0
    9.9807    6.1426   25.1398 C   0  0  0  0  0  0  0  0  0  0  0  0
   11.3566    5.9236   25.0153 C   0  0  0  0  0  0  0  0  0  0  0  0
   12.2409    6.6888   25.7775 C   0  0  0  0  0  0  0  0  0  0  0  0
   11.8465    7.6489   26.6240 N   0  0  0  0  0  0  0  0  0  0  0  0
   10.5305    7.8860   26.7145 C   0  0  0  0  0  0  0  0  0  0  0  0
    9.5697    7.1739   25.9954 C   0  0  0  0  0  0  0  0  0  0  0  0
    8.5150    7.3852   26.1259 H   0  0  0  0  0  0  0  0  0  0  0  0
   10.2370    8.6708   27.4132 H   0  0  0  0  0  0  0  0  0  0  0  0
   13.3163    6.5149   25.7234 H   0  0  0  0  0  0  0  0  0  0  0  0
   11.7155    5.1399   24.3597 H   0  0  0  0  0  0  0  0  0  0  0  0
    8.7122    5.7281   23.4098 H   0  0  0  0  0  0  0  0  0  0  0  0
    6.9140    4.5490   24.6947 H   0  0  0  0  0  0  0  0  0  0  0  0
    7.9117    4.6972   26.2264 H   0  0  0  0  0  0  0  0  0  0  0  0
    9.7829    3.3481   25.1090 H   0  0  0  0  0  0  0  0  0  0  0  0
   10.1613    1.7002   23.6459 H   0  0  0  0  0  0  0  0  0  0  0  0
    8.9448    1.6168   20.9972 H   0  0  0  0  0  0  0  0  0  0  0  0
    9.9467    0.3454   21.7393 H   0  0  0  0  0  0  0  0  0  0  0  0
    7.4618   -0.6990   20.9660 C   0  0  2  0  0  0  0  0  0  0  0  0
    6.6633   -0.0030   19.8967 C   0  0  0  0  0  0  0  0  0  0  0  0
    5.4353    0.6367   20.1465 C   0  0  0  0  0  0  0  0  0  0  0  0
    4.8006    1.3016   19.0963 C   0  0  0  0  0  0  0  0  0  0  0  0
    5.3965    1.2914   17.8298 C   0  0  0  0  0  0  0  0  0  0  0  0
    6.5536    0.6702   17.5694 N   0  0  0  0  0  0  0  0  0  0  0  0
    7.1614    0.0521   18.5880 C   0  0  0  0  0  0  0  0  0  0  0  0
    8.1126   -0.4231   18.3482 H   0  0  0  0  0  0  0  0  0  0  0  0
    4.9277    1.8037   16.9887 H   0  0  0  0  0  0  0  0  0  0  0  0
    3.8741    1.8443   19.2435 H   0  0  0  0  0  0  0  0  0  0  0  0
    4.9960    0.6435   21.1484 H   0  0  0  0  0  0  0  0  0  0  0  0
    8.3686   -1.1376   20.5255 H   0  0  0  0  0  0  0  0  0  0  0  0
    6.9988    0.8850   22.3387 H   0  0  0  0  0  0  0  0  0  0  0  0
    7.4993   -0.3579   24.2710 H   0  0  0  0  0  0  0  0  0  0  0  0
    8.9793   -1.0195   23.5989 H   0  0  0  0  0  0  0  0  0  0  0  0
    7.9200   -2.9350   22.8834 H   0  0  0  0  0  0  0  0  0  0  0  0
    6.4207   -2.4041   23.6408 H   0  0  0  0  0  0  0  0  0  0  0  0
    5.7083   -1.3994   21.6804 H   0  0  0  0  0  0  0  0  0  0  0  0
    6.1769   -2.8050   19.7411 H   0  0  0  0  0  0  0  0  0  0  0  0
    7.6238   -3.4119   20.5589 H   0  0  0  0  0  0  0  0  0  0  0  0
    6.0369   -3.8657   21.1781 H   0  0  0  0  0  0  0  0  0  0  0  0
  1  2  1  0
  2  3  1  0
  3  4  1  0
  4  5  1  0
  5  6  1  0
  6  7  1  0
  7  8  1  0
  8  9  2  0
  8 10  1  0
 10 11  1  0
 11 12  1  0
 12 13  1  0
 13 14  2  0
 14 15  1  0
 15 16  2  0
 16 17  1  0
 17 18  2  0
 18 19  1  0
 17 20  1  0
 15 21  1  0
 14 22  1  0
 12 23  1  6
 11 24  1  0
 11 25  1  0
 10 26  1  1
  7 27  1  0
  6 28  1  0
  6 29  1  0
  5 30  1  0
 30 31  1  0
 31 32  2  0
 32 33  1  0
 33 34  2  0
 34 35  1  0
 35 36  2  0
 36 37  1  0
 34 38  1  0
 33 39  1  0
 32 40  1  0
 30 41  1  6
  5 42  1  1
  4 43  1  0
  4 44  1  0
  3 45  1  0
  3 46  1  0
  2 47  1  0
  1 48  1  0
  1 49  1  0
  1 50  1  0
 30  2  1  0
 36 31  1  0
 12 10  1  0
 18 13  1  0
M  CHG  1   2   1
M  END
>  <plip>  (1) 
-0.07142857142857142

>  <filename>  (1) 
[H][c]1[n][c]([H])[c]([C@@]2([H])[C@]([H])([C]([H])([H])[N]([H])[C](=[O])[C@]3([H])[C]([H])([H])[C@@]3([H])[c]3[c]([H])[c]([H])[n][c]([H])[c]3[H])[C]([H])([H])[C]([H])([H])[N+]2([H])[C]([H])([H])[H])[c]([H])[c]1[H]

$$$$
