
     RDKit          3D

 44 46  0  0  0  0  0  0  0  0999 V2000
    4.9270    1.8061   16.9656 H   0  0  0  0  0  0  0  0  0  0  0  0
    5.3870    1.3030   17.8168 C   0  0  0  0  0  0  0  0  0  0  0  0
    6.5528    0.6839   17.5764 N   0  0  0  0  0  0  0  0  0  0  0  0
    7.1593    0.0829   18.6059 C   0  0  0  0  0  0  0  0  0  0  0  0
    8.1130   -0.3892   18.3668 H   0  0  0  0  0  0  0  0  0  0  0  0
    6.6435    0.0459   19.9128 C   0  0  0  0  0  0  0  0  0  0  0  0
    7.3554   -0.6752   21.0333 C   0  0  2  0  0  0  0  0  0  0  0  0
    6.8445   -0.4969   21.9903 H   0  0  0  0  0  0  0  0  0  0  0  0
    9.0118    0.0502   21.2308 Cl  0  0  0  0  0  0  0  0  0  0  0  0
    7.4932   -2.1980   20.7809 C   0  0  0  0  0  0  0  0  0  0  0  0
    8.4619   -2.3210   20.2876 H   0  0  0  0  0  0  0  0  0  0  0  0
    6.7179   -2.5111   20.0718 H   0  0  0  0  0  0  0  0  0  0  0  0
    7.4619   -3.0930   21.9186 N   0  0  0  0  0  0  0  0  0  0  0  0
    8.5786   -2.8712   22.8312 C   0  0  0  0  0  0  0  0  0  0  0  0
    8.4801   -1.9053   23.3710 H   0  0  0  0  0  0  0  0  0  0  0  0
    9.4933   -2.8093   22.2271 H   0  0  0  0  0  0  0  0  0  0  0  0
    8.6819   -4.0082   23.8342 C   0  0  0  0  0  0  0  0  0  0  0  0
    8.9297   -4.9500   23.3276 H   0  0  0  0  0  0  0  0  0  0  0  0
    9.4921   -3.7799   24.5380 H   0  0  0  0  0  0  0  0  0  0  0  0
    7.3541   -4.1744   24.5883 C   0  0  0  0  0  0  0  0  0  0  0  0
    7.1724   -3.2295   25.1547 H   0  0  0  0  0  0  0  0  0  0  0  0
    7.4138   -5.2868   25.5256 N   0  0  0  0  0  0  0  0  0  0  0  0
    8.5013   -5.1787   26.5018 C   0  0  0  0  0  0  0  0  0  0  0  0
    9.4585   -5.4940   26.0602 H   0  0  0  0  0  0  0  0  0  0  0  0
    8.6516   -4.1318   26.8310 H   0  0  0  0  0  0  0  0  0  0  0  0
    8.0790   -6.0637   27.6796 C   0  0  0  0  0  0  0  0  0  0  0  0
    8.5577   -7.0370   27.6168 H   0  0  0  0  0  0  0  0  0  0  0  0
    8.3844   -5.6071   28.6244 H   0  0  0  0  0  0  0  0  0  0  0  0
    6.5557   -6.2569   27.5455 C   0  0  0  0  0  0  0  0  0  0  0  0
    5.9959   -5.8821   28.4084 H   0  0  0  0  0  0  0  0  0  0  0  0
    6.3055   -7.3182   27.4551 H   0  0  0  0  0  0  0  0  0  0  0  0
    6.1694   -5.4965   26.2723 C   0  0  0  0  0  0  0  0  0  0  0  0
    5.6955   -4.5343   26.5406 H   0  0  0  0  0  0  0  0  0  0  0  0
    5.4425   -6.0461   25.6581 H   0  0  0  0  0  0  0  0  0  0  0  0
    6.1944   -4.3453   23.5951 C   0  0  0  0  0  0  0  0  0  0  0  0
    6.3135   -5.3048   23.0766 H   0  0  0  0  0  0  0  0  0  0  0  0
    5.2414   -4.3780   24.1385 H   0  0  0  0  0  0  0  0  0  0  0  0
    6.1717   -3.1935   22.5955 C   0  0  0  0  0  0  0  0  0  0  0  0
    5.9104   -2.2559   23.1290 H   0  0  0  0  0  0  0  0  0  0  0  0
    5.3892   -3.3665   21.8445 H   0  0  0  0  0  0  0  0  0  0  0  0
    5.4170    0.6791   20.1391 C   0  0  0  0  0  0  0  0  0  0  0  0
    4.9896    0.6636   21.1407 H   0  0  0  0  0  0  0  0  0  0  0  0
    4.7764    1.3251   19.0743 C   0  0  0  0  0  0  0  0  0  0  0  0
    3.8406    1.8581   19.2133 H   0  0  0  0  0  0  0  0  0  0  0  0
  1  2  1  0
  2  3  2  0
  3  4  1  0
  4  5  1  0
  4  6  2  0
  6  7  1  0
  7  8  1  1
  7  9  1  0
  7 10  1  0
 10 11  1  0
 10 12  1  0
 10 13  1  0
 13 14  1  0
 14 15  1  0
 14 16  1  0
 14 17  1  0
 17 18  1  0
 17 19  1  0
 17 20  1  0
 20 21  1  0
 20 22  1  0
 22 23  1  0
 23 24  1  0
 23 25  1  0
 23 26  1  0
 26 27  1  0
 26 28  1  0
 26 29  1  0
 29 30  1  0
 29 31  1  0
 29 32  1  0
 32 33  1  0
 32 34  1  0
 20 35  1  0
 35 36  1  0
 35 37  1  0
 35 38  1  0
 38 39  1  0
 38 40  1  0
  6 41  1  0
 41 42  1  0
 41 43  2  0
 43 44  1  0
 43  2  1  0
 38 13  1  0
 32 22  1  0
M  END
>  <plip>  (1) 
-0.0

>  <filename>  (1) 
[H][c]1[n][c]([H])[c]([C@]([H])([Cl])[C]([H])([H])[N]2[C]([H])([H])[C]([H])([H])[C]([H])([N]3[C]([H])([H])[C]([H])([H])[C]([H])([H])[C]3([H])[H])[C]([H])([H])[C]2([H])[H])[c]([H])[c]1[H]

$$$$
