
     RDKit          3D

 29 31  0  0  0  0  0  0  0  0999 V2000
   13.0031    5.3438   22.5449 O   0  0  0  0  0  0  0  0  0  0  0  0
   11.9869    4.6973   22.5094 C   0  0  0  0  0  0  0  0  0  0  0  0
   11.9036    3.4328   21.9964 N   0  0  0  0  0  0  0  0  0  0  0  0
   10.6741    2.8123   22.0166 C   0  0  0  0  0  0  0  0  0  0  0  0
   10.3691    1.5556   21.5261 C   0  0  0  0  0  0  0  0  0  0  0  0
    9.0430    1.0941   21.6355 C   0  0  0  0  0  0  0  0  0  0  0  0
    8.7520   -0.1698   21.1771 N   0  0  0  0  0  0  0  0  0  0  0  0
    7.4214   -0.7085   20.9884 C   0  0  0  0  0  0  0  0  0  0  0  0
    6.6369   -0.0022   19.9035 C   0  0  0  0  0  0  0  0  0  0  0  0
    5.4213    0.6494   20.1471 C   0  0  0  0  0  0  0  0  0  0  0  0
    4.7908    1.3127   19.0927 C   0  0  0  0  0  0  0  0  0  0  0  0
    5.3943    1.2967   17.8331 C   0  0  0  0  0  0  0  0  0  0  0  0
    6.5589    0.6817   17.5803 N   0  0  0  0  0  0  0  0  0  0  0  0
    7.1619    0.0667   18.6043 C   0  0  0  0  0  0  0  0  0  0  0  0
    8.1114   -0.4143   18.3668 H   0  0  0  0  0  0  0  0  0  0  0  0
    4.9267    1.7924   16.9852 H   0  0  0  0  0  0  0  0  0  0  0  0
    3.8643    1.8510   19.2394 H   0  0  0  0  0  0  0  0  0  0  0  0
    4.9829    0.6444   21.1501 H   0  0  0  0  0  0  0  0  0  0  0  0
    7.5305   -1.7746   20.7470 H   0  0  0  0  0  0  0  0  0  0  0  0
    6.8547   -0.6689   21.9324 H   0  0  0  0  0  0  0  0  0  0  0  0
    9.5449   -0.6856   20.8391 H   0  0  0  0  0  0  0  0  0  0  0  0
    8.0569    1.9101   22.2324 C   0  0  0  0  0  0  0  0  0  0  0  0
    8.3816    3.1781   22.7153 C   0  0  0  0  0  0  0  0  0  0  0  0
    9.6942    3.6288   22.6139 C   0  0  0  0  0  0  0  0  0  0  0  0
   10.3651    5.1735   23.1119 S   0  0  0  0  0  0  0  0  0  0  0  0
    7.6208    3.8093   23.1637 H   0  0  0  0  0  0  0  0  0  0  0  0
    7.0399    1.5374   22.3093 H   0  0  0  0  0  0  0  0  0  0  0  0
   11.1291    0.9233   21.0759 H   0  0  0  0  0  0  0  0  0  0  0  0
   12.7561    3.0738   21.6129 H   0  0  0  0  0  0  0  0  0  0  0  0
  1  2  2  0
  2  3  1  0
  3  4  1  0
  4  5  2  0
  5  6  1  0
  6  7  1  0
  7  8  1  0
  8  9  1  0
  9 10  2  0
 10 11  1  0
 11 12  2  0
 12 13  1  0
 13 14  2  0
 14 15  1  0
 12 16  1  0
 11 17  1  0
 10 18  1  0
  8 19  1  0
  8 20  1  0
  7 21  1  0
  6 22  2  0
 22 23  1  0
 23 24  2  0
 24 25  1  0
 23 26  1  0
 22 27  1  0
  5 28  1  0
  3 29  1  0
 25  2  1  0
 24  4  1  0
 14  9  1  0
M  END
>  <plip>  (1) 
-0.03333333333333333

>  <filename>  (1) 
[H][c]1[n][c]([H])[c]([C]([H])([H])[N]([H])[c]2[c]([H])[c]([H])[c]3[s][c](=[O])[n]([H])[c]3[c]2[H])[c]([H])[c]1[H]

$$$$
