
     RDKit          3D

 21 22  0  0  0  0  0  0  0  0999 V2000
    4.9191    1.7825   16.9947 H   0  0  0  0  0  0  0  0  0  0  0  0
    5.4030    1.2951   17.8369 C   0  0  0  0  0  0  0  0  0  0  0  0
    6.5656    0.6814   17.5683 N   0  0  0  0  0  0  0  0  0  0  0  0
    7.1656    0.0602   18.5887 C   0  0  0  0  0  0  0  0  0  0  0  0
    8.1121   -0.4301   18.3730 H   0  0  0  0  0  0  0  0  0  0  0  0
    6.6390   -0.0055   19.8858 C   0  0  0  0  0  0  0  0  0  0  0  0
    7.4158   -0.6589   20.9979 C   0  0  1  0  0  0  0  0  0  0  0  0
    6.7502   -0.9107   21.8295 H   0  0  0  0  0  0  0  0  0  0  0  0
    7.9983   -1.8280   20.5566 F   0  0  0  0  0  0  0  0  0  0  0  0
    8.4593    0.1943   21.5340 N   0  0  0  0  0  0  0  0  0  0  0  0
    9.7233    0.3424   21.0319 C   0  0  0  0  0  0  0  0  0  0  0  0
   10.1066   -0.2826   20.2294 H   0  0  0  0  0  0  0  0  0  0  0  0
   10.3802    1.2882   21.6414 N   0  0  0  0  0  0  0  0  0  0  0  0
    9.5088    1.8038   22.5724 C   0  0  0  0  0  0  0  0  0  0  0  0
    9.7853    2.6019   23.2491 H   0  0  0  0  0  0  0  0  0  0  0  0
    8.3096    1.1578   22.5171 C   0  0  0  0  0  0  0  0  0  0  0  0
    7.3882    1.3063   23.0740 H   0  0  0  0  0  0  0  0  0  0  0  0
    5.4296    0.6446   20.1524 C   0  0  0  0  0  0  0  0  0  0  0  0
    4.9949    0.6370   21.1597 H   0  0  0  0  0  0  0  0  0  0  0  0
    4.8002    1.3129   19.1021 C   0  0  0  0  0  0  0  0  0  0  0  0
    3.8676    1.8491   19.2552 H   0  0  0  0  0  0  0  0  0  0  0  0
  1  2  1  0
  2  3  2  0
  3  4  1  0
  4  5  1  0
  4  6  2  0
  6  7  1  0
  7  8  1  1
  7  9  1  0
  7 10  1  0
 10 11  1  0
 11 12  1  0
 11 13  2  0
 13 14  1  0
 14 15  1  0
 14 16  2  0
 16 17  1  0
  6 18  1  0
 18 19  1  0
 18 20  2  0
 20 21  1  0
 20  2  1  0
 16 10  1  0
M  END
>  <plip>  (1) 
-0.03571428571428571

>  <filename>  (1) 
[H][c]1[n][c]([H])[c]([C@@]([H])([F])[n]2[c]([H])[n][c]([H])[c]2[H])[c]([H])[c]1[H]

$$$$
