
     RDKit          3D

 44 45  0  0  0  0  0  0  0  0999 V2000
    7.4365    1.2643   22.6650 C   0  0  0  0  0  0  0  0  0  0  0  0
    8.2815    0.2260   21.9061 C   0  0  0  0  0  0  0  0  0  0  0  0
    9.3622    0.9428   21.0880 C   0  0  0  0  0  0  0  0  0  0  0  0
   10.0255    1.5423   21.7227 H   0  0  0  0  0  0  0  0  0  0  0  0
    9.9816    0.2359   20.5236 H   0  0  0  0  0  0  0  0  0  0  0  0
    8.8708    1.6204   20.3819 H   0  0  0  0  0  0  0  0  0  0  0  0
    7.4586   -0.7326   20.9803 C   0  0  0  0  0  0  0  0  0  0  0  0
    6.5198   -1.6977   21.7518 C   0  0  0  0  0  0  0  0  0  0  0  0
    7.2127   -2.6627   22.6564 N   0  0  0  0  0  4  0  0  0  0  0  0
    7.0739   -2.3614   24.1279 C   0  0  0  0  0  0  0  0  0  0  0  0
    7.9614   -3.3314   24.8566 C   0  0  0  0  0  0  0  0  0  0  0  0
    9.3385   -3.0776   24.9417 C   0  0  0  0  0  0  0  0  0  0  0  0
   10.1665   -3.9775   25.6138 C   0  0  0  0  0  0  0  0  0  0  0  0
    9.5788   -5.0695   26.2531 C   0  0  0  0  0  0  0  0  0  0  0  0
    8.2710   -5.3260   26.1769 N   0  0  0  0  0  0  0  0  0  0  0  0
    7.4744   -4.5125   25.4789 C   0  0  0  0  0  0  0  0  0  0  0  0
    5.9788   -4.8864   25.4261 C   0  0  0  0  0  0  0  0  0  0  0  0
    5.2318   -3.9528   26.0605 F   0  0  0  0  0  0  0  0  0  0  0  0
    5.5444   -4.9220   24.1356 F   0  0  0  0  0  0  0  0  0  0  0  0
    5.6731   -6.0616   25.9715 F   0  0  0  0  0  0  0  0  0  0  0  0
   10.1723   -5.7599   26.8468 H   0  0  0  0  0  0  0  0  0  0  0  0
   11.2419   -3.8752   25.6293 H   0  0  0  0  0  0  0  0  0  0  0  0
    9.7581   -2.1642   24.5085 H   0  0  0  0  0  0  0  0  0  0  0  0
    6.0279   -2.4254   24.4330 H   0  0  0  0  0  0  0  0  0  0  0  0
    7.4028   -1.3337   24.3170 H   0  0  0  0  0  0  0  0  0  0  0  0
    8.2446   -2.6552   22.4432 H   0  0  0  0  0  0  0  0  0  0  0  0
    6.8767   -3.6572   22.5626 H   0  0  0  0  0  0  0  0  0  0  0  0
    5.9149   -2.2247   21.0075 H   0  0  0  0  0  0  0  0  0  0  0  0
    5.8299   -1.0924   22.3487 H   0  0  0  0  0  0  0  0  0  0  0  0
    6.6627   -0.0095   19.8877 C   0  0  0  0  0  0  0  0  0  0  0  0
    5.4376    0.6437   20.1248 C   0  0  0  0  0  0  0  0  0  0  0  0
    4.7955    1.3089   19.0748 C   0  0  0  0  0  0  0  0  0  0  0  0
    5.3867    1.3037   17.8095 C   0  0  0  0  0  0  0  0  0  0  0  0
    6.5471    0.6831   17.5501 N   0  0  0  0  0  0  0  0  0  0  0  0
    7.1554    0.0628   18.5691 C   0  0  0  0  0  0  0  0  0  0  0  0
    8.1081   -0.4108   18.3232 H   0  0  0  0  0  0  0  0  0  0  0  0
    4.9207    1.8218   16.9714 H   0  0  0  0  0  0  0  0  0  0  0  0
    3.8648    1.8484   19.2263 H   0  0  0  0  0  0  0  0  0  0  0  0
    4.9930    0.6594   21.1225 H   0  0  0  0  0  0  0  0  0  0  0  0
    8.1953   -1.3723   20.4644 H   0  0  0  0  0  0  0  0  0  0  0  0
    8.7865   -0.4007   22.6599 H   0  0  0  0  0  0  0  0  0  0  0  0
    6.6298    0.8087   23.2533 H   0  0  0  0  0  0  0  0  0  0  0  0
    6.9821    1.9882   21.9743 H   0  0  0  0  0  0  0  0  0  0  0  0
    8.0670    1.8410   23.3545 H   0  0  0  0  0  0  0  0  0  0  0  0
  1  2  1  0
  2  3  1  0
  3  4  1  0
  3  5  1  0
  3  6  1  0
  2  7  1  0
  7  8  1  0
  8  9  1  0
  9 10  1  0
 10 11  1  0
 11 12  2  0
 12 13  1  0
 13 14  2  0
 14 15  1  0
 15 16  2  0
 16 17  1  0
 17 18  1  0
 17 19  1  0
 17 20  1  0
 14 21  1  0
 13 22  1  0
 12 23  1  0
 10 24  1  0
 10 25  1  0
  9 26  1  0
  9 27  1  0
  8 28  1  0
  8 29  1  0
  7 30  1  0
 30 31  2  0
 31 32  1  0
 32 33  2  0
 33 34  1  0
 34 35  2  0
 35 36  1  0
 33 37  1  0
 32 38  1  0
 31 39  1  0
  7 40  1  0
  2 41  1  0
  1 42  1  0
  1 43  1  0
  1 44  1  0
 16 11  1  0
 35 30  1  0
M  CHG  1   9   1
M  END
>  <plip>  (1) 
-0.03571428571428571

>  <filename>  (1) 
[H][c]1[n][c]([H])[c]([C]([H])([C]([H])([C]([H])([H])[H])[C]([H])([H])[H])[C]([H])([H])[N+]([H])([H])[C]([H])([H])[c]2[c]([C]([F])([F])[F])[n][c]([H])[c]([H])[c]2[H])[c]([H])[c]1[H]

$$$$
