
     RDKit          3D

 37 40  0  0  0  0  0  0  0  0999 V2000
    4.9131    1.7858   16.9949 H   0  0  0  0  0  0  0  0  0  0  0  0
    5.3961    1.2970   17.8377 C   0  0  0  0  0  0  0  0  0  0  0  0
    6.5602    0.6812   17.5727 N   0  0  0  0  0  0  0  0  0  0  0  0
    7.1721    0.0591   18.5914 C   0  0  0  0  0  0  0  0  0  0  0  0
    8.1207   -0.4287   18.3738 H   0  0  0  0  0  0  0  0  0  0  0  0
    6.6619   -0.0139   19.9137 C   0  0  0  0  0  0  0  0  0  0  0  0
    7.3261   -0.6957   20.9421 N   0  0  0  0  0  0  0  0  0  0  0  0
    6.7757   -1.1737   21.6466 H   0  0  0  0  0  0  0  0  0  0  0  0
    8.7093   -0.7105   21.1299 C   0  0  0  0  0  0  0  0  0  0  0  0
    9.6905    0.1816   20.6443 C   0  0  0  0  0  0  0  0  0  0  0  0
    9.5205    1.0108   19.9815 H   0  0  0  0  0  0  0  0  0  0  0  0
   10.9088   -0.1090   21.0876 N   0  0  0  0  0  0  0  0  0  0  0  0
   10.7129   -1.1875   21.8542 N   0  0  0  0  0  0  0  0  0  0  0  0
   11.4954   -1.6202   22.3169 H   0  0  0  0  0  0  0  0  0  0  0  0
    9.4156   -1.5943   21.9226 C   0  0  0  0  0  0  0  0  0  0  0  0
    8.9400   -2.7064   22.7551 C   0  0  1  0  0  0  0  0  0  0  0  0
    8.7176   -3.6184   22.2031 H   0  0  0  0  0  0  0  0  0  0  0  0
    9.4059   -2.8292   24.1730 C   0  0  0  0  0  0  0  0  0  0  0  0
    9.5481   -3.8252   24.5754 H   0  0  0  0  0  0  0  0  0  0  0  0
   10.1168   -2.0838   24.5220 H   0  0  0  0  0  0  0  0  0  0  0  0
    7.9948   -2.3842   23.8884 C   0  0  2  0  0  0  0  0  0  0  0  0
    7.8118   -1.3209   24.0427 H   0  0  0  0  0  0  0  0  0  0  0  0
    6.8303   -3.2701   24.1705 C   0  0  0  0  0  0  0  0  0  0  0  0
    5.6187   -2.7134   24.6069 C   0  0  0  0  0  0  0  0  0  0  0  0
    5.5389   -1.6338   24.7241 H   0  0  0  0  0  0  0  0  0  0  0  0
    4.5186   -3.5270   24.8910 C   0  0  0  0  0  0  0  0  0  0  0  0
    3.5881   -3.0738   25.2212 H   0  0  0  0  0  0  0  0  0  0  0  0
    4.6187   -4.9138   24.7515 C   0  0  0  0  0  0  0  0  0  0  0  0
    3.7677   -5.5511   24.9751 H   0  0  0  0  0  0  0  0  0  0  0  0
    5.8236   -5.4791   24.3232 C   0  0  0  0  0  0  0  0  0  0  0  0
    5.9042   -6.5535   24.2102 H   0  0  0  0  0  0  0  0  0  0  0  0
    6.9203   -4.6666   24.0336 C   0  0  0  0  0  0  0  0  0  0  0  0
    7.8507   -5.1322   23.7140 H   0  0  0  0  0  0  0  0  0  0  0  0
    5.4406    0.6301   20.1628 C   0  0  0  0  0  0  0  0  0  0  0  0
    5.0208    0.6212   21.1691 H   0  0  0  0  0  0  0  0  0  0  0  0
    4.8110    1.3054   19.1088 C   0  0  0  0  0  0  0  0  0  0  0  0
    3.8811    1.8383   19.2640 H   0  0  0  0  0  0  0  0  0  0  0  0
  1  2  1  0
  2  3  2  0
  3  4  1  0
  4  5  1  0
  4  6  2  0
  6  7  1  0
  7  8  1  0
  7  9  1  0
  9 10  1  0
 10 11  1  0
 10 12  2  0
 12 13  1  0
 13 14  1  0
 13 15  1  0
 15 16  1  0
 16 17  1  6
 16 18  1  0
 18 19  1  0
 18 20  1  0
 18 21  1  0
 21 22  1  6
 21 23  1  0
 23 24  2  0
 24 25  1  0
 24 26  1  0
 26 27  1  0
 26 28  2  0
 28 29  1  0
 28 30  1  0
 30 31  1  0
 30 32  2  0
 32 33  1  0
  6 34  1  0
 34 35  1  0
 34 36  2  0
 36 37  1  0
 36  2  1  0
 15  9  2  0
 21 16  1  0
 32 23  1  0
M  END
>  <plip>  (1) 
-0.13793103448275862

>  <filename>  (1) 
[H][c]1[n][c]([H])[c]([N]([H])[c]2[c]([H])[n][n]([H])[c]2[C@@]2([H])[C]([H])([H])[C@]2([H])[c]2[c]([H])[c]([H])[c]([H])[c]([H])[c]2[H])[c]([H])[c]1[H]

$$$$
