
     RDKit          3D

 23 24  0  0  0  0  0  0  0  0999 V2000
   11.6038    3.2834   21.3348 H   0  0  0  0  0  0  0  0  0  0  0  0
   11.0003    2.3816   21.3863 C   0  0  0  0  0  0  0  0  0  0  0  0
   11.6627    1.2112   21.4153 N   0  0  0  0  0  0  0  0  0  0  0  0
   10.9085    0.0953   21.4336 C   0  0  0  0  0  0  0  0  0  0  0  0
   11.4233   -0.8575   21.5382 H   0  0  0  0  0  0  0  0  0  0  0  0
    9.4986    0.1552   21.3436 C   0  0  0  0  0  0  0  0  0  0  0  0
    8.7532   -1.1511   21.2013 C   0  0  0  0  0  0  0  0  0  0  0  0
    9.3285   -2.2216   21.2201 O   0  0  0  0  0  0  0  0  0  0  0  0
    7.2423   -1.0710   20.9938 C   0  0  0  0  0  0  0  0  0  0  0  0
    6.2833   -1.9948   21.9190 S   0  0  0  0  0  0  0  0  0  0  0  0
    6.7007   -0.1792   19.9431 C   0  0  0  0  0  0  0  0  0  0  0  0
    7.2890   -0.0710   18.6697 C   0  0  0  0  0  0  0  0  0  0  0  0
    8.2356   -0.5692   18.4596 H   0  0  0  0  0  0  0  0  0  0  0  0
    6.7420    0.6140   17.6613 N   0  0  0  0  0  0  0  0  0  0  0  0
    5.5874    1.2531   17.8981 C   0  0  0  0  0  0  0  0  0  0  0  0
    5.1546    1.7803   17.0498 H   0  0  0  0  0  0  0  0  0  0  0  0
    4.9490    1.2622   19.1459 C   0  0  0  0  0  0  0  0  0  0  0  0
    4.0286    1.8189   19.2866 H   0  0  0  0  0  0  0  0  0  0  0  0
    5.5222    0.5420   20.1878 C   0  0  0  0  0  0  0  0  0  0  0  0
    5.0777    0.5150   21.1860 H   0  0  0  0  0  0  0  0  0  0  0  0
    8.8323    1.3379   21.3576 N   0  0  0  0  0  0  0  0  0  0  0  0
    9.5926    2.4448   21.4227 C   0  0  0  0  0  0  0  0  0  0  0  0
    9.0599    3.3908   21.4793 H   0  0  0  0  0  0  0  0  0  0  0  0
  1  2  1  0
  2  3  2  0
  3  4  1  0
  4  5  1  0
  4  6  2  0
  6  7  1  0
  7  8  2  0
  7  9  1  0
  9 10  2  0
  9 11  1  0
 11 12  2  0
 12 13  1  0
 12 14  1  0
 14 15  2  0
 15 16  1  0
 15 17  1  0
 17 18  1  0
 17 19  2  0
 19 20  1  0
  6 21  1  0
 21 22  2  0
 22 23  1  0
 22  2  1  0
 19 11  1  0
M  END
>  <plip>  (1) 
-0.07142857142857142

>  <filename>  (1) 
[H][c]1[n][c]([H])[c]([C](=[O])[C](=[S])[c]2[c]([H])[n][c]([H])[c]([H])[c]2[H])[n][c]1[H]

$$$$
