
     RDKit          3D

 27 28  0  0  0  0  0  0  0  0999 V2000
    5.1229    1.8935   16.7590 H   0  0  0  0  0  0  0  0  0  0  0  0
    5.4692    1.3951   17.6617 C   0  0  0  0  0  0  0  0  0  0  0  0
    6.6040    0.6876   17.5514 N   0  0  0  0  0  0  0  0  0  0  0  0
    7.0584    0.0804   18.6480 C   0  0  0  0  0  0  0  0  0  0  0  0
    7.9787   -0.4857   18.5008 H   0  0  0  0  0  0  0  0  0  0  0  0
    6.4128    0.1201   19.8880 C   0  0  0  0  0  0  0  0  0  0  0  0
    6.9286   -0.6676   21.0386 C   0  0  0  0  0  0  0  0  0  0  0  0
    6.2625   -0.9553   22.0011 O   0  0  0  0  0  0  0  0  0  0  0  0
    8.2630   -1.0324   20.9126 N   0  0  0  0  0  0  0  0  0  0  0  0
    8.8356   -0.4075   20.3752 H   0  0  0  0  0  0  0  0  0  0  0  0
    8.9754   -1.8601   21.7518 C   0  0  0  0  0  0  0  0  0  0  0  0
    8.4473   -3.3026   22.2942 S   0  0  0  0  0  0  0  0  0  0  0  0
   10.3416   -1.2993   22.0264 C   0  0  0  0  0  0  0  0  0  0  0  0
   11.4509   -2.1484   22.1297 C   0  0  0  0  0  0  0  0  0  0  0  0
   11.2870   -3.2147   22.2191 H   0  0  0  0  0  0  0  0  0  0  0  0
   12.7419   -1.6300   22.1659 C   0  0  0  0  0  0  0  0  0  0  0  0
   13.6068   -2.2834   22.1500 H   0  0  0  0  0  0  0  0  0  0  0  0
   12.9542   -0.2503   22.2234 C   0  0  0  0  0  0  0  0  0  0  0  0
   14.5773    0.3275   22.3059 Cl  0  0  0  0  0  0  0  0  0  0  0  0
   11.8478    0.6138   22.2274 C   0  0  0  0  0  0  0  0  0  0  0  0
   12.0260    2.3275   22.3691 Cl  0  0  0  0  0  0  0  0  0  0  0  0
   10.5588    0.0912   22.1140 C   0  0  0  0  0  0  0  0  0  0  0  0
    9.7244    0.7853   22.1215 H   0  0  0  0  0  0  0  0  0  0  0  0
    5.2200    0.8623   19.9928 C   0  0  0  0  0  0  0  0  0  0  0  0
    4.6774    0.9172   20.9383 H   0  0  0  0  0  0  0  0  0  0  0  0
    4.7512    1.5115   18.8554 C   0  0  0  0  0  0  0  0  0  0  0  0
    3.8404    2.1024   18.8739 H   0  0  0  0  0  0  0  0  0  0  0  0
  1  2  1  0
  2  3  2  0
  3  4  1  0
  4  5  1  0
  4  6  2  0
  6  7  1  0
  7  8  2  0
  7  9  1  0
  9 10  1  0
  9 11  1  0
 11 12  2  0
 11 13  1  0
 13 14  2  0
 14 15  1  0
 14 16  1  0
 16 17  1  0
 16 18  2  0
 18 19  1  0
 18 20  1  0
 20 21  1  0
 20 22  2  0
 22 23  1  0
  6 24  1  0
 24 25  1  0
 24 26  2  0
 26 27  1  0
 26  2  1  0
 22 13  1  0
M  END
>  <plip>  (1) 
-0.03333333333333333

>  <filename>  (1) 
[H][c]1[n][c]([H])[c]([C](=[O])[N]([H])[C](=[S])[c]2[c]([H])[c]([H])[c]([Cl])[c]([Cl])[c]2[H])[c]([H])[c]1[H]

$$$$
