
     RDKit          3D

 35 36  0  0  0  0  0  0  0  0999 V2000
    8.8670   -0.2960   23.2693 H   0  0  0  0  0  0  0  0  0  0  0  0
    9.3309   -0.5505   22.4511 O   0  0  0  0  0  0  0  0  0  0  0  0
    8.4937    0.1993   21.6084 C   0  0  2  0  0  0  0  0  0  0  0  0
    9.0924    0.6892   20.8160 H   0  0  0  0  0  0  0  0  0  0  0  0
    7.8975    1.1450   22.5319 N   0  0  0  0  0  0  0  0  0  0  0  0
    7.0705    1.5875   22.1414 H   0  0  0  0  0  0  0  0  0  0  0  0
    8.7554    2.1936   23.0932 C   0  0  0  0  0  0  0  0  0  0  0  0
    9.2655    2.7737   22.3061 H   0  0  0  0  0  0  0  0  0  0  0  0
    9.5608    1.7249   23.6780 H   0  0  0  0  0  0  0  0  0  0  0  0
    7.9890    3.1412   24.0159 C   0  0  0  0  0  0  0  0  0  0  0  0
    7.7460    2.8167   25.3607 C   0  0  0  0  0  0  0  0  0  0  0  0
    8.0907    1.8788   25.7841 H   0  0  0  0  0  0  0  0  0  0  0  0
    7.0268    3.7047   26.1692 C   0  0  0  0  0  0  0  0  0  0  0  0
    6.8371    3.4505   27.2072 H   0  0  0  0  0  0  0  0  0  0  0  0
    6.5457    4.8817   25.7456 N   0  0  0  0  0  0  0  0  0  0  0  0
    6.7853    5.1978   24.4657 C   0  0  0  0  0  0  0  0  0  0  0  0
    6.3918    6.1499   24.1240 H   0  0  0  0  0  0  0  0  0  0  0  0
    7.4997    4.3828   23.5787 C   0  0  0  0  0  0  0  0  0  0  0  0
    7.6476    4.7232   22.5579 H   0  0  0  0  0  0  0  0  0  0  0  0
    7.4596   -0.7370   20.9220 C   0  0  2  0  0  0  0  0  0  0  0  0
    8.0859   -1.4930   20.4320 H   0  0  0  0  0  0  0  0  0  0  0  0
    6.6568   -0.0249   19.8392 C   0  0  0  0  0  0  0  0  0  0  0  0
    7.1455    0.0402   18.5162 C   0  0  0  0  0  0  0  0  0  0  0  0
    8.0851   -0.4567   18.2641 H   0  0  0  0  0  0  0  0  0  0  0  0
    6.5422    0.6818   17.5107 N   0  0  0  0  0  0  0  0  0  0  0  0
    5.3928    1.3108   17.7954 C   0  0  0  0  0  0  0  0  0  0  0  0
    4.9207    1.8410   16.9726 H   0  0  0  0  0  0  0  0  0  0  0  0
    4.8018    1.3124   19.0607 C   0  0  0  0  0  0  0  0  0  0  0  0
    3.8748    1.8498   19.2238 H   0  0  0  0  0  0  0  0  0  0  0  0
    5.4470    0.6386   20.1012 C   0  0  0  0  0  0  0  0  0  0  0  0
    5.0035    0.6223   21.1006 H   0  0  0  0  0  0  0  0  0  0  0  0
    6.5964   -1.4682   21.9661 C   0  0  0  0  0  0  0  0  0  0  0  0
    6.1643   -0.7647   22.6851 H   0  0  0  0  0  0  0  0  0  0  0  0
    7.1947   -2.1857   22.5429 H   0  0  0  0  0  0  0  0  0  0  0  0
    5.7852   -2.0177   21.4830 H   0  0  0  0  0  0  0  0  0  0  0  0
  1  2  1  0
  2  3  1  0
  3  4  1  6
  3  5  1  0
  5  6  1  0
  5  7  1  0
  7  8  1  0
  7  9  1  0
  7 10  1  0
 10 11  2  0
 11 12  1  0
 11 13  1  0
 13 14  1  0
 13 15  2  0
 15 16  1  0
 16 17  1  0
 16 18  2  0
 18 19  1  0
  3 20  1  0
 20 21  1  6
 20 22  1  0
 22 23  2  0
 23 24  1  0
 23 25  1  0
 25 26  2  0
 26 27  1  0
 26 28  1  0
 28 29  1  0
 28 30  2  0
 30 31  1  0
 20 32  1  0
 32 33  1  0
 32 34  1  0
 32 35  1  0
 18 10  1  0
 30 22  1  0
M  END
>  <plip>  (1) 
-0.03571428571428571

>  <filename>  (1) 
[H][O][C@]([H])([N]([H])[C]([H])([H])[c]1[c]([H])[c]([H])[n][c]([H])[c]1[H])[C@]([H])([c]1[c]([H])[n][c]([H])[c]([H])[c]1[H])[C]([H])([H])[H]

$$$$
