
     RDKit          3D

 33 34  0  0  0  0  0  0  0  0999 V2000
    6.8585   -3.9951   22.8703 C   0  0  0  0  0  0  0  0  0  0  0  0
    7.4546   -2.6846   22.4150 C   0  0  0  0  0  0  0  0  0  0  0  0
    8.6085   -2.1671   23.0258 C   0  0  0  0  0  0  0  0  0  0  0  0
    9.1455   -0.9449   22.6120 C   0  0  0  0  0  0  0  0  0  0  0  0
    8.5559   -0.2109   21.5757 C   0  0  0  0  0  0  0  0  0  0  0  0
    9.0948    1.1588   21.2359 C   0  0  0  0  0  0  0  0  0  0  0  0
    8.3504    2.2308   22.0435 C   0  0  0  0  0  0  0  0  0  0  0  0
    8.8703    3.6050   21.7199 N   0  0  0  0  0  4  0  0  0  0  0  0
    8.7651    3.8077   20.7044 H   0  0  0  0  0  0  0  0  0  0  0  0
    8.4268    4.3837   22.2303 H   0  0  0  0  0  0  0  0  0  0  0  0
    9.8983    3.6596   21.8735 H   0  0  0  0  0  0  0  0  0  0  0  0
    7.2841    2.1627   21.8057 H   0  0  0  0  0  0  0  0  0  0  0  0
    8.4704    2.0222   23.1105 H   0  0  0  0  0  0  0  0  0  0  0  0
    8.9375    1.3225   20.1688 H   0  0  0  0  0  0  0  0  0  0  0  0
   10.1722    1.2017   21.4376 H   0  0  0  0  0  0  0  0  0  0  0  0
    7.3803   -0.7123   20.9704 C   0  0  0  0  0  0  0  0  0  0  0  0
    6.6548    0.0247   19.8970 C   0  0  0  0  0  0  0  0  0  0  0  0
    5.4315    0.6613   20.1441 C   0  0  0  0  0  0  0  0  0  0  0  0
    4.7974    1.3225   19.0910 C   0  0  0  0  0  0  0  0  0  0  0  0
    5.3892    1.3021   17.8240 C   0  0  0  0  0  0  0  0  0  0  0  0
    6.5495    0.6808   17.5632 N   0  0  0  0  0  0  0  0  0  0  0  0
    7.1593    0.0676   18.5881 C   0  0  0  0  0  0  0  0  0  0  0  0
    8.1096   -0.4196   18.3572 H   0  0  0  0  0  0  0  0  0  0  0  0
    4.9205    1.8010   16.9764 H   0  0  0  0  0  0  0  0  0  0  0  0
    3.8657    1.8496   19.2345 H   0  0  0  0  0  0  0  0  0  0  0  0
    5.0068    0.6301   21.1514 H   0  0  0  0  0  0  0  0  0  0  0  0
    6.8508   -1.9347   21.3956 C   0  0  0  0  0  0  0  0  0  0  0  0
    5.9501   -2.3024   20.9096 H   0  0  0  0  0  0  0  0  0  0  0  0
   10.0258   -0.5341   23.1093 H   0  0  0  0  0  0  0  0  0  0  0  0
    9.0801   -2.7246   23.8324 H   0  0  0  0  0  0  0  0  0  0  0  0
    6.3499   -4.5169   22.0510 H   0  0  0  0  0  0  0  0  0  0  0  0
    7.6252   -4.6671   23.2727 H   0  0  0  0  0  0  0  0  0  0  0  0
    6.1158   -3.8330   23.6625 H   0  0  0  0  0  0  0  0  0  0  0  0
  1  2  1  0
  2  3  2  0
  3  4  1  0
  4  5  2  0
  5  6  1  0
  6  7  1  0
  7  8  1  0
  8  9  1  0
  8 10  1  0
  8 11  1  0
  7 12  1  0
  7 13  1  0
  6 14  1  0
  6 15  1  0
  5 16  1  0
 16 17  1  0
 17 18  2  0
 18 19  1  0
 19 20  2  0
 20 21  1  0
 21 22  2  0
 22 23  1  0
 20 24  1  0
 19 25  1  0
 18 26  1  0
 16 27  2  0
 27 28  1  0
  4 29  1  0
  3 30  1  0
  1 31  1  0
  1 32  1  0
  1 33  1  0
 27  2  1  0
 22 17  1  0
M  CHG  1   8   1
M  END
>  <plip>  (1) 
-0.10714285714285714

>  <filename>  (1) 
[H][c]1[n][c]([H])[c](-[c]2[c]([H])[c]([C]([H])([H])[H])[c]([H])[c]([H])[c]2[C]([H])([H])[C]([H])([H])[N+]([H])([H])[H])[c]([H])[c]1[H]

$$$$
