
     RDKit          3D

 29 30  0  0  0  0  0  0  0  0999 V2000
    4.9895    1.9100   16.4188 H   0  0  0  0  0  0  0  0  0  0  0  0
    5.3953    1.5218   17.3505 C   0  0  0  0  0  0  0  0  0  0  0  0
    6.5540    0.8556   17.2496 N   0  0  0  0  0  0  0  0  0  0  0  0
    7.0678    0.3484   18.3703 C   0  0  0  0  0  0  0  0  0  0  0  0
    7.9995   -0.2117   18.2850 H   0  0  0  0  0  0  0  0  0  0  0  0
    6.4717    0.4664   19.6343 C   0  0  0  0  0  0  0  0  0  0  0  0
    7.2266   -0.2322   20.7126 C   0  0  0  0  0  0  0  0  0  0  0  0
    8.3858   -0.5625   20.5995 O   0  0  0  0  0  0  0  0  0  0  0  0
    6.5014   -0.5610   21.8530 N   0  0  0  0  0  0  0  0  0  0  0  0
    5.8048    0.1019   22.1666 H   0  0  0  0  0  0  0  0  0  0  0  0
    6.8601   -1.4963   22.8035 C   0  0  0  0  0  0  0  0  0  0  0  0
    6.4631   -1.2632   24.3753 S   0  0  0  0  0  0  0  0  0  0  0  0
    7.5789   -2.8187   22.3830 C   0  0  0  0  0  0  0  0  0  0  0  0
    7.4993   -3.2428   21.2502 O   0  0  0  0  0  0  0  0  0  0  0  0
    8.3282   -3.5951   23.4458 C   0  0  0  0  0  0  0  0  0  0  0  0
    7.6743   -4.5993   24.1758 C   0  0  0  0  0  0  0  0  0  0  0  0
    6.6076   -4.7734   24.0436 H   0  0  0  0  0  0  0  0  0  0  0  0
    8.3908   -5.4080   25.0603 C   0  0  0  0  0  0  0  0  0  0  0  0
    7.9022   -6.2086   25.6069 H   0  0  0  0  0  0  0  0  0  0  0  0
    9.7586   -5.1854   25.2219 C   0  0  0  0  0  0  0  0  0  0  0  0
   10.6552   -6.1904   26.2998 Cl  0  0  0  0  0  0  0  0  0  0  0  0
   10.4203   -4.1757   24.5239 C   0  0  0  0  0  0  0  0  0  0  0  0
   11.4886   -4.0448   24.6568 H   0  0  0  0  0  0  0  0  0  0  0  0
    9.6962   -3.3602   23.6497 C   0  0  0  0  0  0  0  0  0  0  0  0
   10.1950   -2.5557   23.1084 H   0  0  0  0  0  0  0  0  0  0  0  0
    5.2454    1.1479   19.7239 C   0  0  0  0  0  0  0  0  0  0  0  0
    4.6858    1.2634   20.6566 H   0  0  0  0  0  0  0  0  0  0  0  0
    4.7078    1.6913   18.5565 C   0  0  0  0  0  0  0  0  0  0  0  0
    3.7703    2.2372   18.5627 H   0  0  0  0  0  0  0  0  0  0  0  0
  1  2  1  0
  2  3  2  0
  3  4  1  0
  4  5  1  0
  4  6  2  0
  6  7  1  0
  7  8  2  0
  7  9  1  0
  9 10  1  0
  9 11  1  0
 11 12  2  0
 11 13  1  0
 13 14  2  0
 13 15  1  0
 15 16  2  0
 16 17  1  0
 16 18  1  0
 18 19  1  0
 18 20  2  0
 20 21  1  0
 20 22  1  0
 22 23  1  0
 22 24  2  0
 24 25  1  0
  6 26  1  0
 26 27  1  0
 26 28  2  0
 28 29  1  0
 28  2  1  0
 24 15  1  0
M  END
>  <plip>  (1) 
-0.16666666666666666

>  <filename>  (1) 
[H][c]1[n][c]([H])[c]([C](=[O])[N]([H])[C](=[S])[C](=[O])[c]2[c]([H])[c]([H])[c]([Cl])[c]([H])[c]2[H])[c]([H])[c]1[H]

$$$$
