
     RDKit          3D

 37 39  0  0  0  0  0  0  0  0999 V2000
    4.9335    1.8246   16.9634 H   0  0  0  0  0  0  0  0  0  0  0  0
    5.3902    1.3043   17.8026 C   0  0  0  0  0  0  0  0  0  0  0  0
    6.5506    0.6810   17.5531 N   0  0  0  0  0  0  0  0  0  0  0  0
    7.1461    0.0519   18.5744 C   0  0  0  0  0  0  0  0  0  0  0  0
    8.1090   -0.4066   18.3432 H   0  0  0  0  0  0  0  0  0  0  0  0
    6.6102   -0.0215   19.8735 C   0  0  0  0  0  0  0  0  0  0  0  0
    7.3096   -0.7732   20.9934 C   0  0  0  0  0  0  0  0  0  0  0  0
    6.7819   -0.5855   21.9357 H   0  0  0  0  0  0  0  0  0  0  0  0
    7.2742   -1.8561   20.8460 H   0  0  0  0  0  0  0  0  0  0  0  0
    8.7161   -0.4244   21.1520 N   0  0  0  0  0  0  0  0  0  0  0  0
    9.8157   -1.1250   20.7101 C   0  0  0  0  0  0  0  0  0  0  0  0
    9.7001   -2.0697   20.1922 H   0  0  0  0  0  0  0  0  0  0  0  0
   10.9311   -0.4947   20.9736 N   0  0  0  0  0  0  0  0  0  0  0  0
   10.5828    0.6717   21.5849 C   0  0  0  0  0  0  0  0  0  0  0  0
   11.3276    1.4015   21.8891 H   0  0  0  0  0  0  0  0  0  0  0  0
    9.2289    0.7389   21.6924 C   0  0  0  0  0  0  0  0  0  0  0  0
    8.5151    2.0090   22.6571 S   0  0  0  0  0  0  0  0  0  0  0  0
    7.1016    2.1215   22.3847 O   0  0  0  0  0  0  0  0  0  0  0  0
    9.4316    3.1255   22.5832 O   0  0  0  0  0  0  0  0  0  0  0  0
    8.6642    1.3507   24.1723 N   0  0  0  0  0  0  0  0  0  0  0  0
    7.8350    0.1593   24.4700 C   0  0  0  0  0  0  0  0  0  0  0  0
    8.1811   -0.7315   23.9214 H   0  0  0  0  0  0  0  0  0  0  0  0
    6.7979    0.3669   24.1862 H   0  0  0  0  0  0  0  0  0  0  0  0
    7.8877   -0.1601   25.9746 C   0  0  0  0  0  0  0  0  0  0  0  0
    7.4183   -1.1292   26.1706 H   0  0  0  0  0  0  0  0  0  0  0  0
    7.3220    0.6033   26.5298 H   0  0  0  0  0  0  0  0  0  0  0  0
    9.2231   -0.2353   26.4599 O   0  0  0  0  0  0  0  0  0  0  0  0
    9.9098    0.9891   26.2302 C   0  0  0  0  0  0  0  0  0  0  0  0
   10.9034    0.8990   26.6729 H   0  0  0  0  0  0  0  0  0  0  0  0
    9.3717    1.8192   26.7090 H   0  0  0  0  0  0  0  0  0  0  0  0
   10.0219    1.3445   24.7513 C   0  0  0  0  0  0  0  0  0  0  0  0
   10.7004    0.6361   24.2541 H   0  0  0  0  0  0  0  0  0  0  0  0
   10.4453    2.3496   24.6541 H   0  0  0  0  0  0  0  0  0  0  0  0
    5.4022    0.6458   20.1094 C   0  0  0  0  0  0  0  0  0  0  0  0
    4.9896    0.6905   21.1173 H   0  0  0  0  0  0  0  0  0  0  0  0
    4.7767    1.3145   19.0557 C   0  0  0  0  0  0  0  0  0  0  0  0
    3.8495    1.8562   19.1995 H   0  0  0  0  0  0  0  0  0  0  0  0
  1  2  1  0
  2  3  2  0
  3  4  1  0
  4  5  1  0
  4  6  2  0
  6  7  1  0
  7  8  1  0
  7  9  1  0
  7 10  1  0
 10 11  1  0
 11 12  1  0
 11 13  2  0
 13 14  1  0
 14 15  1  0
 14 16  2  0
 16 17  1  0
 17 18  2  0
 17 19  2  0
 17 20  1  0
 20 21  1  0
 21 22  1  0
 21 23  1  0
 21 24  1  0
 24 25  1  0
 24 26  1  0
 24 27  1  0
 27 28  1  0
 28 29  1  0
 28 30  1  0
 28 31  1  0
 31 32  1  0
 31 33  1  0
  6 34  1  0
 34 35  1  0
 34 36  2  0
 36 37  1  0
 36  2  1  0
 16 10  1  0
 31 20  1  0
M  END
>  <plip>  (1) 
-0.03571428571428571

>  <filename>  (1) 
[H][c]1[n][c]([H])[c]([C]([H])([H])[n]2[c]([H])[n][c]([H])[c]2[S](=[O])(=[O])[N]2[C]([H])([H])[C]([H])([H])[O][C]([H])([H])[C]2([H])[H])[c]([H])[c]1[H]

$$$$
