
     RDKit          3D

 25 26  0  0  0  0  0  0  0  0999 V2000
    4.9172    1.8000   16.9754 H   0  0  0  0  0  0  0  0  0  0  0  0
    5.3903    1.3007   17.8186 C   0  0  0  0  0  0  0  0  0  0  0  0
    6.5547    0.6816   17.5600 N   0  0  0  0  0  0  0  0  0  0  0  0
    7.1638    0.0558   18.5759 C   0  0  0  0  0  0  0  0  0  0  0  0
    8.1224   -0.4007   18.3270 H   0  0  0  0  0  0  0  0  0  0  0  0
    6.6589   -0.0059   19.8952 C   0  0  0  0  0  0  0  0  0  0  0  0
    7.3513   -0.6813   20.9984 C   0  0  0  0  0  0  0  0  0  0  0  0
    7.2819   -0.5109   22.3543 C   0  0  0  0  0  0  0  0  0  0  0  0
    6.6981    0.2346   22.8709 H   0  0  0  0  0  0  0  0  0  0  0  0
    8.1105   -1.3770   23.0303 N   0  0  0  0  0  0  0  0  0  0  0  0
    8.6801   -2.0589   22.0820 C   0  0  0  0  0  0  0  0  0  0  0  0
    9.5573   -3.0566   22.2027 O   0  0  0  0  0  0  0  0  0  0  0  0
    9.9252   -3.4385   23.5411 C   0  0  0  0  0  0  0  0  0  0  0  0
   10.8567   -3.9935   23.4368 H   0  0  0  0  0  0  0  0  0  0  0  0
   10.1241   -2.5613   24.1673 H   0  0  0  0  0  0  0  0  0  0  0  0
    8.8506   -4.3159   24.1744 C   0  0  0  0  0  0  0  0  0  0  0  0
    7.9301   -3.7358   24.3223 H   0  0  0  0  0  0  0  0  0  0  0  0
    8.6452   -5.1908   23.5463 H   0  0  0  0  0  0  0  0  0  0  0  0
    9.3292   -4.7438   25.4007 F   0  0  0  0  0  0  0  0  0  0  0  0
    8.2998   -1.6943   20.8355 N   0  0  0  0  0  0  0  0  0  0  0  0
    8.5807   -2.1759   20.0040 H   0  0  0  0  0  0  0  0  0  0  0  0
    5.4377    0.6540   20.1331 C   0  0  0  0  0  0  0  0  0  0  0  0
    5.0043    0.6350   21.1342 H   0  0  0  0  0  0  0  0  0  0  0  0
    4.8027    1.3159   19.0861 C   0  0  0  0  0  0  0  0  0  0  0  0
    3.8730    1.8458   19.2405 H   0  0  0  0  0  0  0  0  0  0  0  0
  1  2  1  0
  2  3  2  0
  3  4  1  0
  4  5  1  0
  4  6  2  0
  6  7  1  0
  7  8  2  0
  8  9  1  0
  8 10  1  0
 10 11  2  0
 11 12  1  0
 12 13  1  0
 13 14  1  0
 13 15  1  0
 13 16  1  0
 16 17  1  0
 16 18  1  0
 16 19  1  0
 11 20  1  0
 20 21  1  0
  6 22  1  0
 22 23  1  0
 22 24  2  0
 24 25  1  0
 24  2  1  0
 20  7  1  0
M  END
>  <plip>  (1) 
-0.03333333333333333

>  <filename>  (1) 
[H][c]1[n][c]([H])[c](-[c]2[c]([H])[n][c]([O][C]([H])([H])[C]([H])([H])[F])[n]2[H])[c]([H])[c]1[H]

$$$$
