
     RDKit          3D

 34 36  0  0  0  0  0  0  0  0999 V2000
   14.2431    4.9124   24.1268 F   0  0  0  0  0  0  0  0  0  0  0  0
   13.3569    5.1980   23.1553 C   0  0  0  0  0  0  0  0  0  0  0  0
   13.6339    6.4366   22.6936 F   0  0  0  0  0  0  0  0  0  0  0  0
   13.6089    4.3500   22.1443 F   0  0  0  0  0  0  0  0  0  0  0  0
   11.9320    5.0967   23.6589 C   0  0  0  0  0  0  0  0  0  0  0  0
   11.4131    6.0813   24.5163 C   0  0  0  0  0  0  0  0  0  0  0  0
   10.0612    6.0601   24.8752 C   0  0  0  0  0  0  0  0  0  0  0  0
    9.2135    5.0684   24.3946 C   0  0  0  0  0  0  0  0  0  0  0  0
    9.7438    4.0597   23.5735 C   0  0  0  0  0  0  0  0  0  0  0  0
    8.8667    2.9986   23.0863 C   0  0  0  0  0  0  0  0  0  0  0  0
    7.5925    2.8779   23.2424 N   0  0  0  0  0  0  0  0  0  0  0  0
    7.2184    1.7069   22.5802 N   0  0  0  0  0  0  0  0  0  0  0  0
    8.3163    1.2486   22.0698 C   0  0  0  0  0  0  0  0  0  0  0  0
    8.5377    0.1696   21.3093 N   0  0  0  0  0  0  0  0  0  0  0  0
    7.4364   -0.7024   20.9581 C   0  0  0  0  0  0  0  0  0  0  0  0
    6.6429   -0.0489   19.8673 C   0  0  0  0  0  0  0  0  0  0  0  0
    5.4413    0.6210   20.1160 C   0  0  0  0  0  0  0  0  0  0  0  0
    4.8230    1.2836   19.0540 C   0  0  0  0  0  0  0  0  0  0  0  0
    5.4498    1.2823   17.8050 C   0  0  0  0  0  0  0  0  0  0  0  0
    6.6213    0.6728   17.5626 N   0  0  0  0  0  0  0  0  0  0  0  0
    7.2015    0.0407   18.5884 C   0  0  0  0  0  0  0  0  0  0  0  0
    8.1625   -0.4303   18.3730 H   0  0  0  0  0  0  0  0  0  0  0  0
    4.9941    1.7973   16.9612 H   0  0  0  0  0  0  0  0  0  0  0  0
    3.8880    1.8148   19.1905 H   0  0  0  0  0  0  0  0  0  0  0  0
    5.0431    0.6679   21.1324 H   0  0  0  0  0  0  0  0  0  0  0  0
    6.7990   -0.8823   21.8367 H   0  0  0  0  0  0  0  0  0  0  0  0
    7.8246   -1.6741   20.6324 H   0  0  0  0  0  0  0  0  0  0  0  0
    9.5048   -0.0378   21.1587 H   0  0  0  0  0  0  0  0  0  0  0  0
    9.4095    1.9738   22.3595 O   0  0  0  0  0  0  0  0  0  0  0  0
   11.1057    4.0553   23.2296 C   0  0  0  0  0  0  0  0  0  0  0  0
   11.5236    3.2268   22.6544 H   0  0  0  0  0  0  0  0  0  0  0  0
    8.1443    5.0764   24.6277 H   0  0  0  0  0  0  0  0  0  0  0  0
    9.6731    6.8220   25.5399 H   0  0  0  0  0  0  0  0  0  0  0  0
   12.0503    6.8779   24.8836 H   0  0  0  0  0  0  0  0  0  0  0  0
  1  2  1  0
  2  3  1  0
  2  4  1  0
  2  5  1  0
  5  6  2  0
  6  7  1  0
  7  8  2  0
  8  9  1  0
  9 10  1  0
 10 11  2  0
 11 12  1  0
 12 13  2  0
 13 14  1  0
 14 15  1  0
 15 16  1  0
 16 17  2  0
 17 18  1  0
 18 19  2  0
 19 20  1  0
 20 21  2  0
 21 22  1  0
 19 23  1  0
 18 24  1  0
 17 25  1  0
 15 26  1  0
 15 27  1  0
 14 28  1  0
 13 29  1  0
  9 30  2  0
 30 31  1  0
  8 32  1  0
  7 33  1  0
  6 34  1  0
 30  5  1  0
 29 10  1  0
 21 16  1  0
M  END
>  <plip>  (1) 
-0.14285714285714285

>  <filename>  (1) 
[H][c]1[n][c]([H])[c]([C]([H])([H])[N]([H])[c]2[n][n][c](-[c]3[c]([H])[c]([H])[c]([H])[c]([C]([F])([F])[F])[c]3[H])[o]2)[c]([H])[c]1[H]

$$$$
