
     RDKit          3D

 19 20  0  0  0  0  0  0  0  0999 V2000
    4.9526    1.7668   17.0247 H   0  0  0  0  0  0  0  0  0  0  0  0
    5.4393    1.2619   17.8514 C   0  0  0  0  0  0  0  0  0  0  0  0
    6.5910    0.6342   17.5725 N   0  0  0  0  0  0  0  0  0  0  0  0
    7.2425    0.0193   18.5725 C   0  0  0  0  0  0  0  0  0  0  0  0
    8.1772   -0.4709   18.3013 H   0  0  0  0  0  0  0  0  0  0  0  0
    6.7477    0.0234   19.8896 C   0  0  0  0  0  0  0  0  0  0  0  0
    7.3034   -0.5860   21.0183 O   0  0  0  0  0  0  0  0  0  0  0  0
    8.6621   -0.7811   21.0645 N   0  0  0  0  0  0  0  0  0  0  0  0
    9.5291    0.0962   20.5747 N   0  0  0  0  0  0  0  0  0  0  0  0
   10.6940   -0.3437   21.0413 C   0  0  0  0  0  0  0  0  0  0  0  0
   11.5910    0.2106   20.8099 H   0  0  0  0  0  0  0  0  0  0  0  0
   10.5569   -1.4834   21.8491 C   0  0  0  0  0  0  0  0  0  0  0  0
   11.3606   -2.0069   22.3490 H   0  0  0  0  0  0  0  0  0  0  0  0
    9.1950   -1.7285   21.8679 C   0  0  0  0  0  0  0  0  0  0  0  0
    8.5431   -2.4185   22.3928 H   0  0  0  0  0  0  0  0  0  0  0  0
    5.5284    0.6432   20.1614 C   0  0  0  0  0  0  0  0  0  0  0  0
    5.1446    0.6000   21.1807 H   0  0  0  0  0  0  0  0  0  0  0  0
    4.8528    1.2871   19.1271 C   0  0  0  0  0  0  0  0  0  0  0  0
    3.9044    1.7976   19.2931 H   0  0  0  0  0  0  0  0  0  0  0  0
  1  2  1  0
  2  3  2  0
  3  4  1  0
  4  5  1  0
  4  6  2  0
  6  7  1  0
  7  8  1  0
  8  9  1  0
  9 10  2  0
 10 11  1  0
 10 12  1  0
 12 13  1  0
 12 14  2  0
 14 15  1  0
  6 16  1  0
 16 17  1  0
 16 18  2  0
 18 19  1  0
 18  2  1  0
 14  8  1  0
M  END
>  <plip>  (1) 
-0.07142857142857142

>  <filename>  (1) 
[H][c]1[n][c]([H])[c]([O][n]2[n][c]([H])[c]([H])[c]2[H])[c]([H])[c]1[H]

$$$$
