
     RDKit          3D

 57 61  0  0  0  0  0  0  0  0999 V2000
    8.0291   -4.0590   24.5095 O   0  0  0  0  0  0  0  0  0  0  0  0
    7.1069   -3.3204   24.1907 C   0  0  0  0  0  0  0  0  0  0  0  0
    7.3281   -2.3069   23.2523 N   0  0  0  0  0  0  0  0  0  0  0  0
    7.0486   -0.8618   23.4861 C   0  0  0  0  0  0  0  0  0  0  0  0
    7.5808    0.0218   22.3234 C   0  0  0  0  0  0  0  0  0  0  0  0
    7.3274   -0.5763   21.0126 N   0  0  0  0  0  0  0  0  0  0  0  0
    6.6609    0.0541   19.9365 C   0  0  0  0  0  0  0  0  0  0  0  0
    5.4432    0.7401   20.1324 C   0  0  0  0  0  0  0  0  0  0  0  0
    4.8066    1.3601   19.0468 C   0  0  0  0  0  0  0  0  0  0  0  0
    5.4061    1.3133   17.7822 C   0  0  0  0  0  0  0  0  0  0  0  0
    6.5502    0.6512   17.5473 N   0  0  0  0  0  0  0  0  0  0  0  0
    7.1391    0.0400   18.5918 C   0  0  0  0  0  0  0  0  0  0  0  0
    8.0550   -0.4915   18.3498 H   0  0  0  0  0  0  0  0  0  0  0  0
    4.9477    1.8199   16.9318 H   0  0  0  0  0  0  0  0  0  0  0  0
    3.8650    1.8865   19.1756 H   0  0  0  0  0  0  0  0  0  0  0  0
    5.0034    0.7626   21.1284 H   0  0  0  0  0  0  0  0  0  0  0  0
    7.8846   -1.9171   20.8392 C   0  0  0  0  0  0  0  0  0  0  0  0
    8.2967   -2.5874   22.1697 C   0  0  0  0  0  0  0  0  0  0  0  0
    8.3434   -3.6679   22.0199 H   0  0  0  0  0  0  0  0  0  0  0  0
    9.3118   -2.2753   22.4533 H   0  0  0  0  0  0  0  0  0  0  0  0
    8.7685   -1.9064   20.1769 H   0  0  0  0  0  0  0  0  0  0  0  0
    7.1126   -2.5439   20.3714 H   0  0  0  0  0  0  0  0  0  0  0  0
    7.1687    1.0338   22.3760 H   0  0  0  0  0  0  0  0  0  0  0  0
    8.6742    0.1104   22.4654 H   0  0  0  0  0  0  0  0  0  0  0  0
    7.5391   -0.4960   24.4032 H   0  0  0  0  0  0  0  0  0  0  0  0
    5.9780   -0.7030   23.6326 H   0  0  0  0  0  0  0  0  0  0  0  0
    5.6692   -3.5291   24.7760 C   0  0  0  0  0  0  0  0  0  0  0  0
    5.5467   -2.5779   26.0195 C   0  0  0  0  0  0  0  0  0  0  0  0
    4.2769   -2.6522   26.8509 C   0  0  0  0  0  0  0  0  0  0  0  0
    4.1819   -3.5625   27.9194 C   0  0  0  0  0  0  0  0  0  0  0  0
    3.0049   -3.6865   28.6642 C   0  0  0  0  0  0  0  0  0  0  0  0
    1.9027   -2.8754   28.3738 C   0  0  0  0  0  0  0  0  0  0  0  0
    1.9909   -1.9346   27.3436 C   0  0  0  0  0  0  0  0  0  0  0  0
    3.1679   -1.8225   26.5933 C   0  0  0  0  0  0  0  0  0  0  0  0
    3.2221   -1.0758   25.8018 H   0  0  0  0  0  0  0  0  0  0  0  0
    1.1432   -1.2936   27.1152 H   0  0  0  0  0  0  0  0  0  0  0  0
    0.9865   -2.9711   28.9503 H   0  0  0  0  0  0  0  0  0  0  0  0
    2.9494   -4.4149   29.4683 H   0  0  0  0  0  0  0  0  0  0  0  0
    5.0387   -4.1918   28.1585 H   0  0  0  0  0  0  0  0  0  0  0  0
    5.6753   -1.5426   25.6714 H   0  0  0  0  0  0  0  0  0  0  0  0
    6.4010   -2.7757   26.6788 H   0  0  0  0  0  0  0  0  0  0  0  0
    4.5364   -3.3014   23.7143 C   0  0  0  0  0  0  0  0  0  0  0  0
    3.9168   -4.6824   23.4667 C   0  0  0  0  0  0  0  0  0  0  0  0
    4.9730   -5.5503   22.7501 C   0  0  0  0  0  0  0  0  0  0  0  0
    5.8962   -5.9589   23.9273 C   0  0  0  0  0  0  0  0  0  0  0  0
    5.4129   -5.0582   25.0997 C   0  0  0  0  0  0  0  0  0  0  0  0
    3.8913   -5.2082   24.9095 C   0  0  0  0  0  0  0  0  0  0  0  0
    3.2849   -4.5815   25.5741 H   0  0  0  0  0  0  0  0  0  0  0  0
    3.5518   -6.2469   25.0044 H   0  0  0  0  0  0  0  0  0  0  0  0
    5.8196   -5.3900   26.0633 H   0  0  0  0  0  0  0  0  0  0  0  0
    6.9665   -5.8815   23.7216 H   0  0  0  0  0  0  0  0  0  0  0  0
    5.6589   -6.9922   24.1848 H   0  0  0  0  0  0  0  0  0  0  0  0
    5.5067   -4.9809   21.9746 H   0  0  0  0  0  0  0  0  0  0  0  0
    4.5312   -6.4366   22.2798 H   0  0  0  0  0  0  0  0  0  0  0  0
    2.9516   -4.6413   22.9540 H   0  0  0  0  0  0  0  0  0  0  0  0
    3.7549   -2.6631   24.1349 H   0  0  0  0  0  0  0  0  0  0  0  0
    4.9189   -2.8739   22.7835 H   0  0  0  0  0  0  0  0  0  0  0  0
  1  2  2  0
  2  3  1  0
  3  4  1  0
  4  5  1  0
  5  6  1  0
  6  7  1  0
  7  8  2  0
  8  9  1  0
  9 10  2  0
 10 11  1  0
 11 12  2  0
 12 13  1  0
 10 14  1  0
  9 15  1  0
  8 16  1  0
  6 17  1  0
 17 18  1  0
 18 19  1  0
 18 20  1  0
 17 21  1  0
 17 22  1  0
  5 23  1  0
  5 24  1  0
  4 25  1  0
  4 26  1  0
  2 27  1  0
 27 28  1  0
 28 29  1  0
 29 30  2  0
 30 31  1  0
 31 32  2  0
 32 33  1  0
 33 34  2  0
 34 35  1  0
 33 36  1  0
 32 37  1  0
 31 38  1  0
 30 39  1  0
 28 40  1  0
 28 41  1  0
 27 42  1  0
 42 43  1  0
 43 44  1  0
 44 45  1  0
 45 46  1  0
 46 47  1  0
 47 48  1  0
 47 49  1  0
 46 50  1  0
 45 51  1  0
 45 52  1  0
 44 53  1  0
 44 54  1  0
 43 55  1  0
 42 56  1  0
 42 57  1  0
 18  3  1  0
 46 27  1  0
 12  7  1  0
 34 29  1  0
 47 43  1  0
M  END
>  <plip>  (1) 
-0.06896551724137931

>  <filename>  (1) 
[H][c]1[n][c]([H])[c]([N]2[C]([H])([H])[C]([H])([H])[N]([C](=[O])[C]3([C]([H])([H])[c]4[c]([H])[c]([H])[c]([H])[c]([H])[c]4[H])[C]([H])([H])[C]4([H])[C]([H])([H])[C]([H])([H])[C]3([H])[C]4([H])[H])[C]([H])([H])[C]2([H])[H])[c]([H])[c]1[H]

$$$$
