
     RDKit          3D

 41 43  0  0  0  0  0  0  0  0999 V2000
    6.1043   -0.8474   22.3959 H   0  0  0  0  0  0  0  0  0  0  0  0
    6.5724   -1.4746   21.8264 O   0  0  0  0  0  0  0  0  0  0  0  0
    7.4258   -0.7033   20.9973 C   0  0  1  0  0  0  0  0  0  0  0  0
    8.0876   -1.4434   20.5262 H   0  0  0  0  0  0  0  0  0  0  0  0
    6.6521   -0.0000   19.9026 C   0  0  0  0  0  0  0  0  0  0  0  0
    7.1621    0.0610   18.5991 C   0  0  0  0  0  0  0  0  0  0  0  0
    8.1100   -0.4260   18.3594 H   0  0  0  0  0  0  0  0  0  0  0  0
    6.5623    0.6804   17.5743 N   0  0  0  0  0  0  0  0  0  0  0  0
    5.3985    1.2947   17.8314 C   0  0  0  0  0  0  0  0  0  0  0  0
    4.9192    1.7884   16.9905 H   0  0  0  0  0  0  0  0  0  0  0  0
    4.8004    1.3055   19.0956 C   0  0  0  0  0  0  0  0  0  0  0  0
    3.8726    1.8409   19.2500 H   0  0  0  0  0  0  0  0  0  0  0  0
    5.4249    0.6381   20.1459 C   0  0  0  0  0  0  0  0  0  0  0  0
    5.0040    0.6516   21.1557 H   0  0  0  0  0  0  0  0  0  0  0  0
    8.3298    0.2711   21.8418 C   0  0  0  0  0  0  0  0  0  0  0  0
    7.5597    1.4668   22.4202 C   0  0  0  0  0  0  0  0  0  0  0  0
    7.4470    2.6462   21.6685 C   0  0  0  0  0  0  0  0  0  0  0  0
    7.9248    2.6372   20.6924 H   0  0  0  0  0  0  0  0  0  0  0  0
    6.7081    3.7340   22.1380 C   0  0  0  0  0  0  0  0  0  0  0  0
    6.6194    4.6359   21.5337 H   0  0  0  0  0  0  0  0  0  0  0  0
    6.0720    3.6709   23.3813 C   0  0  0  0  0  0  0  0  0  0  0  0
    5.5175    4.5378   23.7439 H   0  0  0  0  0  0  0  0  0  0  0  0
    6.1719    2.4913   24.1379 C   0  0  0  0  0  0  0  0  0  0  0  0
    5.3961    2.3869   25.7469 S   0  0  0  0  0  0  0  0  0  0  0  0
    6.1902    1.4985   26.5850 O   0  0  0  0  0  0  0  0  0  0  0  0
    5.0330    3.7326   26.1626 O   0  0  0  0  0  0  0  0  0  0  0  0
    3.8698    1.5412   25.4555 C   0  0  0  0  0  0  0  0  0  0  0  0
    3.2632    2.1276   24.7721 H   0  0  0  0  0  0  0  0  0  0  0  0
    4.0795    0.5473   25.0685 H   0  0  0  0  0  0  0  0  0  0  0  0
    3.3828    1.4697   26.4279 H   0  0  0  0  0  0  0  0  0  0  0  0
    6.9046    1.3936   23.6556 C   0  0  0  0  0  0  0  0  0  0  0  0
    7.0229    0.4750   24.2294 H   0  0  0  0  0  0  0  0  0  0  0  0
    9.6505    0.6461   21.0900 C   0  0  0  0  0  0  0  0  0  0  0  0
    9.6916    0.2934   20.0553 H   0  0  0  0  0  0  0  0  0  0  0  0
    9.8884    1.7138   21.0894 H   0  0  0  0  0  0  0  0  0  0  0  0
   10.4840   -0.1803   22.0967 C   0  0  0  0  0  0  0  0  0  0  0  0
   10.9966   -1.0513   21.6697 H   0  0  0  0  0  0  0  0  0  0  0  0
   11.2217    0.3973   22.6617 H   0  0  0  0  0  0  0  0  0  0  0  0
    9.1940   -0.5073   22.8809 C   0  0  0  0  0  0  0  0  0  0  0  0
    8.9458   -1.5698   22.9504 H   0  0  0  0  0  0  0  0  0  0  0  0
    9.1544   -0.0832   23.8882 H   0  0  0  0  0  0  0  0  0  0  0  0
  1  2  1  0
  2  3  1  0
  3  4  1  6
  3  5  1  0
  5  6  2  0
  6  7  1  0
  6  8  1  0
  8  9  2  0
  9 10  1  0
  9 11  1  0
 11 12  1  0
 11 13  2  0
 13 14  1  0
  3 15  1  0
 15 16  1  0
 16 17  2  0
 17 18  1  0
 17 19  1  0
 19 20  1  0
 19 21  2  0
 21 22  1  0
 21 23  1  0
 23 24  1  0
 24 25  2  0
 24 26  2  0
 24 27  1  0
 27 28  1  0
 27 29  1  0
 27 30  1  0
 23 31  2  0
 31 32  1  0
 15 33  1  0
 33 34  1  0
 33 35  1  0
 33 36  1  0
 36 37  1  0
 36 38  1  0
 36 39  1  0
 39 40  1  0
 39 41  1  0
 13  5  1  0
 39 15  1  0
 31 16  1  0
M  END
>  <plip>  (1) 
-0.07142857142857142

>  <filename>  (1) 
[H][O][C@@]([H])([c]1[c]([H])[n][c]([H])[c]([H])[c]1[H])[C]1([c]2[c]([H])[c]([H])[c]([H])[c]([S](=[O])(=[O])[C]([H])([H])[H])[c]2[H])[C]([H])([H])[C]([H])([H])[C]1([H])[H]

$$$$
