
     RDKit          3D

 43 45  0  0  0  0  0  0  0  0999 V2000
   12.0393    2.5606   21.9253 C   0  0  0  0  0  0  0  0  0  0  0  0
   10.5530    2.8122   21.9475 C   0  0  1  0  0  0  0  0  0  0  0  0
    9.6614    1.6803   22.4607 C   0  0  0  0  0  0  0  0  0  0  0  0
    8.1635    2.0720   22.2378 N   0  0  0  0  0  4  0  0  0  0  0  0
    7.2099    1.2001   23.0344 C   0  0  0  0  0  0  0  0  0  0  0  0
    7.3441   -0.1892   22.5112 C   0  0  0  0  0  0  0  0  0  0  0  0
    7.9150   -1.2688   23.1401 C   0  0  0  0  0  0  0  0  0  0  0  0
    8.2313   -2.1672   22.1827 N   0  0  0  0  0  0  0  0  0  0  0  0
    9.0719   -3.3344   22.3256 C   0  0  0  0  0  0  0  0  0  0  0  0
    8.7248   -4.0726   21.5992 H   0  0  0  0  0  0  0  0  0  0  0  0
    8.9542   -3.7274   23.3371 H   0  0  0  0  0  0  0  0  0  0  0  0
   10.1267   -3.0762   22.1566 H   0  0  0  0  0  0  0  0  0  0  0  0
    7.8563   -1.7570   20.9657 N   0  0  0  0  0  0  0  0  0  0  0  0
    7.2606   -0.5823   21.1540 C   0  0  0  0  0  0  0  0  0  0  0  0
    6.6077    0.1461   20.0515 C   0  0  0  0  0  0  0  0  0  0  0  0
    5.3793    0.8205   20.1692 C   0  0  0  0  0  0  0  0  0  0  0  0
    4.8340    1.4185   19.0302 C   0  0  0  0  0  0  0  0  0  0  0  0
    5.5291    1.3310   17.8198 C   0  0  0  0  0  0  0  0  0  0  0  0
    6.7048    0.6975   17.6989 N   0  0  0  0  0  0  0  0  0  0  0  0
    7.2150    0.1201   18.7895 C   0  0  0  0  0  0  0  0  0  0  0  0
    8.1684   -0.3867   18.6537 H   0  0  0  0  0  0  0  0  0  0  0  0
    5.1283    1.7903   16.9147 H   0  0  0  0  0  0  0  0  0  0  0  0
    3.8963    1.9578   19.0652 H   0  0  0  0  0  0  0  0  0  0  0  0
    4.8542    0.8843   21.1234 H   0  0  0  0  0  0  0  0  0  0  0  0
    8.0953   -1.4573   24.1916 H   0  0  0  0  0  0  0  0  0  0  0  0
    7.4591    1.2312   24.1044 H   0  0  0  0  0  0  0  0  0  0  0  0
    6.1847    1.5812   22.9368 H   0  0  0  0  0  0  0  0  0  0  0  0
    7.9593    3.5735   22.4320 C   0  0  0  0  0  0  0  0  0  0  0  0
    8.9761    4.1678   23.4355 C   0  0  0  0  0  0  0  0  0  0  0  0
   10.3567    4.0361   22.8601 N   0  0  0  0  0  4  0  0  0  0  0  0
   11.1001    3.9346   23.5845 H   0  0  0  0  0  0  0  0  0  0  0  0
   10.5933    4.8953   22.3073 H   0  0  0  0  0  0  0  0  0  0  0  0
    8.9091    3.5817   24.3615 H   0  0  0  0  0  0  0  0  0  0  0  0
    8.7235    5.2040   23.6781 H   0  0  0  0  0  0  0  0  0  0  0  0
    8.1040    4.0731   21.4674 H   0  0  0  0  0  0  0  0  0  0  0  0
    6.9349    3.7784   22.7423 H   0  0  0  0  0  0  0  0  0  0  0  0
    7.9273    1.8093   21.2527 H   0  0  0  0  0  0  0  0  0  0  0  0
    9.8419    1.5598   23.5372 H   0  0  0  0  0  0  0  0  0  0  0  0
    9.8779    0.7390   21.9545 H   0  0  0  0  0  0  0  0  0  0  0  0
   10.1754    3.0410   20.9466 H   0  0  0  0  0  0  0  0  0  0  0  0
   12.5619    3.4864   21.6545 H   0  0  0  0  0  0  0  0  0  0  0  0
   12.3701    2.2630   22.9237 H   0  0  0  0  0  0  0  0  0  0  0  0
   12.3324    1.7846   21.2165 H   0  0  0  0  0  0  0  0  0  0  0  0
  1  2  1  0
  2  3  1  0
  3  4  1  0
  4  5  1  0
  5  6  1  0
  6  7  2  0
  7  8  1  0
  8  9  1  0
  9 10  1  0
  9 11  1  0
  9 12  1  0
  8 13  1  0
 13 14  2  0
 14 15  1  0
 15 16  2  0
 16 17  1  0
 17 18  2  0
 18 19  1  0
 19 20  2  0
 20 21  1  0
 18 22  1  0
 17 23  1  0
 16 24  1  0
  7 25  1  0
  5 26  1  0
  5 27  1  0
  4 28  1  0
 28 29  1  0
 29 30  1  0
 30 31  1  0
 30 32  1  0
 29 33  1  0
 29 34  1  0
 28 35  1  0
 28 36  1  0
  4 37  1  0
  3 38  1  0
  3 39  1  0
  2 40  1  6
  1 41  1  0
  1 42  1  0
  1 43  1  0
 30  2  1  0
 14  6  1  0
 20 15  1  0
M  CHG  2   4   1  30   1
M  END
>  <plip>  (1) 
-0.14285714285714285

>  <filename>  (1) 
[H][c]1[n][c]([H])[c](-[c]2[n][n]([C]([H])([H])[H])[c]([H])[c]2[C]([H])([H])[N+]2([H])[C]([H])([H])[C]([H])([H])[N+]([H])([H])[C@@]([H])([C]([H])([H])[H])[C]2([H])[H])[c]([H])[c]1[H]

$$$$
