
     RDKit          3D

 40 42  0  0  0  0  0  0  0  0999 V2000
    6.2870   -2.8977   20.1891 C   0  0  0  0  0  0  0  0  0  0  0  0
    6.5241   -1.9948   21.3181 N   0  0  0  0  0  0  0  0  0  0  0  0
    6.1065   -2.4784   22.5623 C   0  0  0  0  0  0  0  0  0  0  0  0
    5.2598   -3.3538   22.6371 O   0  0  0  0  0  0  0  0  0  0  0  0
    6.7818   -1.8669   23.7946 C   0  0  0  0  0  0  0  0  0  0  0  0
    6.7397   -2.7558   25.0006 C   0  0  0  0  0  0  0  0  0  0  0  0
    5.8568   -2.6697   26.0297 C   0  0  0  0  0  0  0  0  0  0  0  0
    6.0148   -3.7330   26.8913 N   0  0  0  0  0  0  0  0  0  0  0  0
    7.0105   -4.5544   26.4139 C   0  0  0  0  0  0  0  0  0  0  0  0
    7.4940   -3.9638   25.2122 C   0  0  0  0  0  0  0  0  0  0  0  0
    8.5181   -4.6340   24.5113 C   0  0  0  0  0  0  0  0  0  0  0  0
    9.1433   -3.9889   23.0197 Cl  0  0  0  0  0  0  0  0  0  0  0  0
    9.0440   -5.8216   25.0041 C   0  0  0  0  0  0  0  0  0  0  0  0
    8.5488   -6.3610   26.2113 C   0  0  0  0  0  0  0  0  0  0  0  0
    7.5249   -5.7547   26.9249 C   0  0  0  0  0  0  0  0  0  0  0  0
    7.1352   -6.1984   27.8379 H   0  0  0  0  0  0  0  0  0  0  0  0
    8.9983   -7.2726   26.5849 H   0  0  0  0  0  0  0  0  0  0  0  0
    9.8316   -6.3351   24.4649 H   0  0  0  0  0  0  0  0  0  0  0  0
    5.4685   -3.9149   27.7149 H   0  0  0  0  0  0  0  0  0  0  0  0
    5.1048   -1.9084   26.1847 H   0  0  0  0  0  0  0  0  0  0  0  0
    6.2839   -0.9072   23.9872 H   0  0  0  0  0  0  0  0  0  0  0  0
    7.8179   -1.6511   23.5122 H   0  0  0  0  0  0  0  0  0  0  0  0
    7.2975   -0.7653   21.0687 C   0  0  0  0  0  0  0  0  0  0  0  0
    9.0011   -0.9131   20.8228 C   0  0  0  0  0  0  0  0  0  0  0  0
    9.4233   -2.0143   20.4616 O   0  0  0  0  0  0  0  0  0  0  0  0
    9.5350    0.1711   21.0944 O   0  0  0  0  0  1  0  0  0  0  0  0
    6.6471    0.0407   19.9450 C   0  0  0  0  0  0  0  0  0  0  0  0
    5.4201    0.6893   20.1597 C   0  0  0  0  0  0  0  0  0  0  0  0
    4.8033    1.3309   19.0841 C   0  0  0  0  0  0  0  0  0  0  0  0
    5.4273    1.2969   17.8322 C   0  0  0  0  0  0  0  0  0  0  0  0
    6.5942    0.6787   17.6013 N   0  0  0  0  0  0  0  0  0  0  0  0
    7.1792    0.0696   18.6469 C   0  0  0  0  0  0  0  0  0  0  0  0
    8.1270   -0.4307   18.4428 H   0  0  0  0  0  0  0  0  0  0  0  0
    4.9709    1.7878   16.9771 H   0  0  0  0  0  0  0  0  0  0  0  0
    3.8593    1.8503   19.1999 H   0  0  0  0  0  0  0  0  0  0  0  0
    4.9601    0.6723   21.1484 H   0  0  0  0  0  0  0  0  0  0  0  0
    7.2984   -0.1603   21.9768 H   0  0  0  0  0  0  0  0  0  0  0  0
    5.2271   -3.1617   20.1501 H   0  0  0  0  0  0  0  0  0  0  0  0
    6.8854   -3.8106   20.2991 H   0  0  0  0  0  0  0  0  0  0  0  0
    6.5368   -2.4202   19.2406 H   0  0  0  0  0  0  0  0  0  0  0  0
  1  2  1  0
  2  3  1  0
  3  4  2  0
  3  5  1  0
  5  6  1  0
  6  7  2  0
  7  8  1  0
  8  9  1  0
  9 10  2  0
 10 11  1  0
 11 12  1  0
 11 13  2  0
 13 14  1  0
 14 15  2  0
 15 16  1  0
 14 17  1  0
 13 18  1  0
  8 19  1  0
  7 20  1  0
  5 21  1  0
  5 22  1  0
  2 23  1  0
 23 24  1  0
 24 25  2  0
 24 26  1  0
 23 27  1  0
 27 28  2  0
 28 29  1  0
 29 30  2  0
 30 31  1  0
 31 32  2  0
 32 33  1  0
 30 34  1  0
 29 35  1  0
 28 36  1  0
 23 37  1  0
  1 38  1  0
  1 39  1  0
  1 40  1  0
 10  6  1  0
 32 27  1  0
 15  9  1  0
M  CHG  1  26  -1
M  END
>  <plip>  (1) 
-0.14285714285714285

>  <filename>  (1) 
[H][c]1[n][c]([H])[c]([C]([H])([C](=[O])[O-])[N]([C](=[O])[C]([H])([H])[c]2[c]([H])[n]([H])[c]3[c]([H])[c]([H])[c]([H])[c]([Cl])[c]23)[C]([H])([H])[H])[c]([H])[c]1[H]

$$$$
