
     RDKit          3D

 44 48  0  0  0  0  0  0  0  0999 V2000
    4.9635    1.8739   16.9105 H   0  0  0  0  0  0  0  0  0  0  0  0
    5.4226    1.3456   17.7444 C   0  0  0  0  0  0  0  0  0  0  0  0
    6.5712    0.7097   17.4735 N   0  0  0  0  0  0  0  0  0  0  0  0
    7.1623    0.0562   18.4769 C   0  0  0  0  0  0  0  0  0  0  0  0
    8.1006   -0.4432   18.2463 H   0  0  0  0  0  0  0  0  0  0  0  0
    6.6387   -0.0111   19.7755 C   0  0  0  0  0  0  0  0  0  0  0  0
    7.3732   -0.7900   20.7634 C   0  0  0  0  0  0  0  0  0  0  0  0
    8.5005   -1.4220   20.6389 N   0  0  0  0  0  0  0  0  0  0  0  0
    8.7638   -2.0013   21.8714 N   0  0  0  0  0  0  0  0  0  0  0  0
    7.7883   -1.6678   22.6547 C   0  0  0  0  0  0  0  0  0  0  0  0
    7.6665   -1.9283   24.1313 C   0  0  0  0  0  0  0  0  0  0  0  0
    8.2455   -0.9533   25.0405 N   0  0  0  0  0  0  0  0  0  0  0  0
    9.6933   -0.7441   24.8783 C   0  0  0  0  0  0  0  0  0  0  0  0
   10.2358   -1.6247   25.2254 H   0  0  0  0  0  0  0  0  0  0  0  0
    9.9825   -0.5897   23.8221 H   0  0  0  0  0  0  0  0  0  0  0  0
    9.9463    0.4922   25.7328 C   0  0  0  0  0  0  0  0  0  0  0  0
    9.8851    0.1951   26.7826 H   0  0  0  0  0  0  0  0  0  0  0  0
   10.9258    0.9581   25.5816 H   0  0  0  0  0  0  0  0  0  0  0  0
    8.7527    1.3887   25.3641 C   0  0  2  0  0  0  0  0  0  0  0  0
    9.0062    1.9820   24.4774 H   0  0  0  0  0  0  0  0  0  0  0  0
    8.1772    2.2865   26.4744 C   0  0  0  0  0  0  0  0  0  0  0  0
    8.9432    2.7043   27.1262 H   0  0  0  0  0  0  0  0  0  0  0  0
    7.6566    3.1581   26.0514 H   0  0  0  0  0  0  0  0  0  0  0  0
    7.2025    1.4829   27.2333 N   0  0  0  0  0  0  0  0  0  0  0  0
    7.7606    0.7284   28.3536 C   0  0  0  0  0  0  0  0  0  0  0  0
    8.3142    1.3967   29.0202 H   0  0  0  0  0  0  0  0  0  0  0  0
    8.4421   -0.0969   28.0876 H   0  0  0  0  0  0  0  0  0  0  0  0
    6.9465    0.3041   28.9521 H   0  0  0  0  0  0  0  0  0  0  0  0
    6.5759    0.6342   26.1935 C   0  0  0  0  0  0  0  0  0  0  0  0
    5.7370    1.1985   25.7631 H   0  0  0  0  0  0  0  0  0  0  0  0
    6.1751   -0.2985   26.6130 H   0  0  0  0  0  0  0  0  0  0  0  0
    7.6117    0.3793   25.0624 C   0  0  2  0  0  0  0  0  0  0  0  0
    7.1432    0.5836   24.0940 H   0  0  0  0  0  0  0  0  0  0  0  0
    6.4636   -2.6520   24.6688 C   0  0  0  0  0  0  0  0  0  0  0  0
    6.1131   -2.3226   25.6417 H   0  0  0  0  0  0  0  0  0  0  0  0
    5.6810   -2.9538   23.9822 H   0  0  0  0  0  0  0  0  0  0  0  0
    7.7864   -3.3500   24.6145 C   0  0  0  0  0  0  0  0  0  0  0  0
    7.9402   -4.1315   23.8756 H   0  0  0  0  0  0  0  0  0  0  0  0
    8.3308   -3.4741   25.5480 H   0  0  0  0  0  0  0  0  0  0  0  0
    6.8573   -0.9180   22.0084 O   0  0  0  0  0  0  0  0  0  0  0  0
    5.4388    0.6666   20.0531 C   0  0  0  0  0  0  0  0  0  0  0  0
    5.0047    0.6613   21.0533 H   0  0  0  0  0  0  0  0  0  0  0  0
    4.8228    1.3517   19.0085 C   0  0  0  0  0  0  0  0  0  0  0  0
    3.8989    1.8987   19.1577 H   0  0  0  0  0  0  0  0  0  0  0  0
  1  2  1  0
  2  3  2  0
  3  4  1  0
  4  5  1  0
  4  6  2  0
  6  7  1  0
  7  8  2  0
  8  9  1  0
  9 10  2  0
 10 11  1  0
 11 12  1  0
 12 13  1  0
 13 14  1  0
 13 15  1  0
 13 16  1  0
 16 17  1  0
 16 18  1  0
 16 19  1  0
 19 20  1  6
 19 21  1  0
 21 22  1  0
 21 23  1  0
 21 24  1  0
 24 25  1  0
 25 26  1  0
 25 27  1  0
 25 28  1  0
 24 29  1  0
 29 30  1  0
 29 31  1  0
 29 32  1  0
 32 33  1  6
 11 34  1  0
 34 35  1  0
 34 36  1  0
 34 37  1  0
 37 38  1  0
 37 39  1  0
 10 40  1  0
  6 41  1  0
 41 42  1  0
 41 43  2  0
 43 44  1  0
 43  2  1  0
 40  7  1  0
 37 11  1  0
 32 12  1  0
 32 19  1  0
M  END
>  <plip>  (1) 
-0.06666666666666667

>  <filename>  (1) 
[H][c]1[n][c]([H])[c](-[c]2[n][n][c]([C]3([N]4[C]([H])([H])[C]([H])([H])[C@]5([H])[C]([H])([H])[N]([C]([H])([H])[H])[C]([H])([H])[C@]45[H])[C]([H])([H])[C]3([H])[H])[o]2)[c]([H])[c]1[H]

$$$$
