
     RDKit          3D

 31 33  0  0  0  0  0  0  0  0999 V2000
    6.4250   -0.7266   25.1551 C   0  0  0  0  0  0  0  0  0  0  0  0
    7.6901   -1.3530   24.6085 C   0  0  0  0  0  0  0  0  0  0  0  0
    8.3886   -2.2867   25.4234 C   0  0  0  0  0  0  0  0  0  0  0  0
    9.5400   -2.9352   25.0164 C   0  0  0  0  0  0  0  0  0  0  0  0
   10.0554   -2.5771   23.7568 C   0  0  0  0  0  0  0  0  0  0  0  0
   11.1960   -2.9635   23.1363 N   0  0  0  0  0  0  0  0  0  0  0  0
   11.3992   -2.3336   21.9702 N   0  0  0  0  0  0  0  0  0  0  0  0
   10.3377   -1.5717   21.7943 C   0  0  0  0  0  0  0  0  0  0  0  0
    9.4237   -1.6556   22.9002 C   0  0  0  0  0  0  0  0  0  0  0  0
    8.1790   -1.0647   23.3185 C   0  0  0  0  0  0  0  0  0  0  0  0
    7.3794   -0.1585   22.4167 C   0  0  0  0  0  0  0  0  0  0  0  0
    6.7289    0.7871   22.8238 O   0  0  0  0  0  0  0  0  0  0  0  0
    7.4247   -0.5304   21.0905 N   0  0  0  0  0  0  0  0  0  0  0  0
    6.7181    0.0403   20.0042 C   0  0  0  0  0  0  0  0  0  0  0  0
    5.4896    0.6891   20.1951 C   0  0  0  0  0  0  0  0  0  0  0  0
    4.8674    1.2773   19.0878 C   0  0  0  0  0  0  0  0  0  0  0  0
    5.4873    1.2070   17.8368 C   0  0  0  0  0  0  0  0  0  0  0  0
    6.6424    0.5511   17.6288 N   0  0  0  0  0  0  0  0  0  0  0  0
    7.2248   -0.0279   18.6877 C   0  0  0  0  0  0  0  0  0  0  0  0
    8.1476   -0.5781   18.4995 H   0  0  0  0  0  0  0  0  0  0  0  0
    5.0439    1.6850   16.9656 H   0  0  0  0  0  0  0  0  0  0  0  0
    3.9199    1.7978   19.1939 H   0  0  0  0  0  0  0  0  0  0  0  0
    5.0587    0.7261   21.1902 H   0  0  0  0  0  0  0  0  0  0  0  0
    7.9687   -1.3628   20.9317 H   0  0  0  0  0  0  0  0  0  0  0  0
   10.2987   -0.9702   20.8980 H   0  0  0  0  0  0  0  0  0  0  0  0
   11.8651   -3.6280   23.4899 H   0  0  0  0  0  0  0  0  0  0  0  0
   10.0495   -3.6709   25.6326 H   0  0  0  0  0  0  0  0  0  0  0  0
    7.9907   -2.4741   26.4183 H   0  0  0  0  0  0  0  0  0  0  0  0
    5.5938   -0.8259   24.4550 H   0  0  0  0  0  0  0  0  0  0  0  0
    6.1336   -1.1708   26.1105 H   0  0  0  0  0  0  0  0  0  0  0  0
    6.5573    0.3461   25.3107 H   0  0  0  0  0  0  0  0  0  0  0  0
  1  2  1  0
  2  3  2  0
  3  4  1  0
  4  5  2  0
  5  6  1  0
  6  7  1  0
  7  8  2  0
  8  9  1  0
  9 10  2  0
 10 11  1  0
 11 12  2  0
 11 13  1  0
 13 14  1  0
 14 15  2  0
 15 16  1  0
 16 17  2  0
 17 18  1  0
 18 19  2  0
 19 20  1  0
 17 21  1  0
 16 22  1  0
 15 23  1  0
 13 24  1  0
  8 25  1  0
  6 26  1  0
  4 27  1  0
  3 28  1  0
  1 29  1  0
  1 30  1  0
  1 31  1  0
 10  2  1  0
 19 14  1  0
  9  5  1  0
M  END
>  <plip>  (1) 
-0.03571428571428571

>  <filename>  (1) 
[H][c]1[n][c]([H])[c]([N]([H])[C](=[O])[c]2[c]([C]([H])([H])[H])[c]([H])[c]([H])[c]3[c]2[c]([H])[n][n]3[H])[c]([H])[c]1[H]

$$$$
