
     RDKit          3D

 36 38  0  0  0  0  0  0  0  0999 V2000
    6.7864    5.6359   23.6705 H   0  0  0  0  0  0  0  0  0  0  0  0
    6.2077    5.0674   24.1950 O   0  0  0  0  0  0  0  0  0  0  0  0
    6.7774    3.7642   24.2201 C   0  0  2  0  0  0  0  0  0  0  0  0
    7.8514    3.8038   24.4560 H   0  0  0  0  0  0  0  0  0  0  0  0
    6.6449    3.0539   22.8551 C   0  0  0  0  0  0  0  0  0  0  0  0
    7.2239    3.5944   22.1036 H   0  0  0  0  0  0  0  0  0  0  0  0
    5.5890    3.0997   22.5536 H   0  0  0  0  0  0  0  0  0  0  0  0
    7.0887    1.6535   22.8753 N   0  0  0  0  0  0  0  0  0  0  0  0
    8.3076    1.3285   22.3140 C   0  0  0  0  0  0  0  0  0  0  0  0
    9.4206    2.0184   22.3618 N   0  0  0  0  0  0  0  0  0  0  0  0
   10.3529    1.3561   21.5833 N   0  0  0  0  0  0  0  0  0  0  0  0
    9.7588    0.3101   21.0885 C   0  0  0  0  0  0  0  0  0  0  0  0
   10.1966   -0.3995   20.4008 H   0  0  0  0  0  0  0  0  0  0  0  0
    8.4723    0.1960   21.5419 N   0  0  0  0  0  0  0  0  0  0  0  0
    7.4218   -0.6690   21.0016 C   0  0  0  0  0  0  0  0  0  0  0  0
    6.7512   -0.9652   21.8175 H   0  0  0  0  0  0  0  0  0  0  0  0
    7.8994   -1.5869   20.6415 H   0  0  0  0  0  0  0  0  0  0  0  0
    6.6461    0.0103   19.9004 C   0  0  0  0  0  0  0  0  0  0  0  0
    7.1594    0.0677   18.5954 C   0  0  0  0  0  0  0  0  0  0  0  0
    8.1090   -0.4167   18.3698 H   0  0  0  0  0  0  0  0  0  0  0  0
    6.5579    0.6810   17.5717 N   0  0  0  0  0  0  0  0  0  0  0  0
    5.3953    1.2969   17.8324 C   0  0  0  0  0  0  0  0  0  0  0  0
    4.9170    1.7885   16.9885 H   0  0  0  0  0  0  0  0  0  0  0  0
    4.7975    1.3152   19.0955 C   0  0  0  0  0  0  0  0  0  0  0  0
    3.8682    1.8487   19.2483 H   0  0  0  0  0  0  0  0  0  0  0  0
    5.4276    0.6501   20.1494 C   0  0  0  0  0  0  0  0  0  0  0  0
    5.0003    0.6378   21.1581 H   0  0  0  0  0  0  0  0  0  0  0  0
    6.4926    0.8379   23.9376 C   0  0  0  0  0  0  0  0  0  0  0  0
    5.4263    0.6938   23.7063 H   0  0  0  0  0  0  0  0  0  0  0  0
    6.9651   -0.1503   23.9602 H   0  0  0  0  0  0  0  0  0  0  0  0
    6.5977    1.5065   25.3211 C   0  0  0  0  0  0  0  0  0  0  0  0
    7.6479    1.4987   25.6374 H   0  0  0  0  0  0  0  0  0  0  0  0
    6.0502    0.9057   26.0562 H   0  0  0  0  0  0  0  0  0  0  0  0
    6.0675    2.9500   25.3007 C   0  0  0  0  0  0  0  0  0  0  0  0
    4.9862    2.9600   25.1003 H   0  0  0  0  0  0  0  0  0  0  0  0
    6.2030    3.4362   26.2735 H   0  0  0  0  0  0  0  0  0  0  0  0
  1  2  1  0
  2  3  1  0
  3  4  1  1
  3  5  1  0
  5  6  1  0
  5  7  1  0
  5  8  1  0
  8  9  1  0
  9 10  2  0
 10 11  1  0
 11 12  2  0
 12 13  1  0
 12 14  1  0
 14 15  1  0
 15 16  1  0
 15 17  1  0
 15 18  1  0
 18 19  2  0
 19 20  1  0
 19 21  1  0
 21 22  2  0
 22 23  1  0
 22 24  1  0
 24 25  1  0
 24 26  2  0
 26 27  1  0
  8 28  1  0
 28 29  1  0
 28 30  1  0
 28 31  1  0
 31 32  1  0
 31 33  1  0
 31 34  1  0
 34 35  1  0
 34 36  1  0
 34  3  1  0
 14  9  1  0
 26 18  1  0
M  END
>  <plip>  (1) 
-0.07142857142857142

>  <filename>  (1) 
[H][O][C@]1([H])[C]([H])([H])[N]([c]2[n][n][c]([H])[n]2[C]([H])([H])[c]2[c]([H])[n][c]([H])[c]([H])[c]2[H])[C]([H])([H])[C]([H])([H])[C]1([H])[H]

$$$$
