
     RDKit          3D

 43 45  0  0  0  0  0  0  0  0999 V2000
    7.4281    0.5961   22.9259 C   0  0  0  0  0  0  0  0  0  0  0  0
    7.0818   -0.7310   22.2431 C   0  0  0  0  0  0  0  0  0  0  0  0
    7.3964   -0.6978   20.8423 O   0  0  0  0  0  0  0  0  0  0  0  0
    6.6603    0.0056   19.9371 C   0  0  0  0  0  0  0  0  0  0  0  0
    5.4418    0.6488   20.1810 C   0  0  0  0  0  0  0  0  0  0  0  0
    4.8126    1.3046   19.1103 C   0  0  0  0  0  0  0  0  0  0  0  0
    5.3994    1.2911   17.8450 C   0  0  0  0  0  0  0  0  0  0  0  0
    6.5667    0.6711   17.6002 N   0  0  0  0  0  0  0  0  0  0  0  0
    7.1761    0.0556   18.6175 C   0  0  0  0  0  0  0  0  0  0  0  0
    8.1201   -0.4344   18.3944 H   0  0  0  0  0  0  0  0  0  0  0  0
    4.9188    1.7798   16.9985 H   0  0  0  0  0  0  0  0  0  0  0  0
    3.8811    1.8367   19.2600 H   0  0  0  0  0  0  0  0  0  0  0  0
    4.9989    0.6365   21.1771 H   0  0  0  0  0  0  0  0  0  0  0  0
    7.9240   -1.8962   22.8491 C   0  0  0  0  0  0  0  0  0  0  0  0
    9.1031   -2.0321   22.5676 O   0  0  0  0  0  0  0  0  0  0  0  0
    7.3130   -2.7581   23.7552 N   0  0  0  0  0  0  0  0  0  0  0  0
    7.7299   -4.1748   23.7776 C   0  0  0  0  0  0  0  0  0  0  0  0
    7.8219   -4.7317   25.2039 C   0  0  0  0  0  0  0  0  0  0  0  0
    6.5774   -4.4678   25.9158 N   0  0  0  0  0  0  0  0  0  0  0  0
    5.9949   -5.4033   26.7624 C   0  0  0  0  0  0  0  0  0  0  0  0
    4.6121   -5.6241   26.6923 C   0  0  0  0  0  0  0  0  0  0  0  0
    4.0311   -6.5936   27.4961 C   0  0  0  0  0  0  0  0  0  0  0  0
    4.7175   -7.3343   28.3730 N   0  0  0  0  0  0  0  0  0  0  0  0
    6.0367   -7.1223   28.4547 C   0  0  0  0  0  0  0  0  0  0  0  0
    6.7104   -6.1835   27.6830 C   0  0  0  0  0  0  0  0  0  0  0  0
    8.0413   -6.0178   27.8386 F   0  0  0  0  0  0  0  0  0  0  0  0
    6.5993   -7.7208   29.1658 H   0  0  0  0  0  0  0  0  0  0  0  0
    2.9632   -6.7756   27.4402 H   0  0  0  0  0  0  0  0  0  0  0  0
    4.0300   -5.0561   25.9817 H   0  0  0  0  0  0  0  0  0  0  0  0
    6.2131   -3.0584   25.9690 C   0  0  0  0  0  0  0  0  0  0  0  0
    6.1082   -2.4741   24.5497 C   0  0  0  0  0  0  0  0  0  0  0  0
    5.2181   -2.8975   24.0642 H   0  0  0  0  0  0  0  0  0  0  0  0
    5.9613   -1.3955   24.6378 H   0  0  0  0  0  0  0  0  0  0  0  0
    6.9412   -2.4712   26.5552 H   0  0  0  0  0  0  0  0  0  0  0  0
    5.2515   -2.9501   26.4813 H   0  0  0  0  0  0  0  0  0  0  0  0
    7.9792   -5.8150   25.1572 H   0  0  0  0  0  0  0  0  0  0  0  0
    8.6974   -4.3029   25.7171 H   0  0  0  0  0  0  0  0  0  0  0  0
    8.6996   -4.2678   23.2849 H   0  0  0  0  0  0  0  0  0  0  0  0
    7.0087   -4.7805   23.2100 H   0  0  0  0  0  0  0  0  0  0  0  0
    6.0184   -0.9670   22.3499 H   0  0  0  0  0  0  0  0  0  0  0  0
    8.4858    0.8232   22.7567 H   0  0  0  0  0  0  0  0  0  0  0  0
    6.8335    1.4243   22.5229 H   0  0  0  0  0  0  0  0  0  0  0  0
    7.2540    0.5404   24.0075 H   0  0  0  0  0  0  0  0  0  0  0  0
  1  2  1  0
  2  3  1  0
  3  4  1  0
  4  5  2  0
  5  6  1  0
  6  7  2  0
  7  8  1  0
  8  9  2  0
  9 10  1  0
  7 11  1  0
  6 12  1  0
  5 13  1  0
  2 14  1  0
 14 15  2  0
 14 16  1  0
 16 17  1  0
 17 18  1  0
 18 19  1  0
 19 20  1  0
 20 21  2  0
 21 22  1  0
 22 23  2  0
 23 24  1  0
 24 25  2  0
 25 26  1  0
 24 27  1  0
 22 28  1  0
 21 29  1  0
 19 30  1  0
 30 31  1  0
 31 32  1  0
 31 33  1  0
 30 34  1  0
 30 35  1  0
 18 36  1  0
 18 37  1  0
 17 38  1  0
 17 39  1  0
  2 40  1  0
  1 41  1  0
  1 42  1  0
  1 43  1  0
  9  4  1  0
 31 16  1  0
 25 20  1  0
M  END
>  <plip>  (1) 
-0.034482758620689655

>  <filename>  (1) 
[H][c]1[n][c]([H])[c]([O][C]([H])([C](=[O])[N]2[C]([H])([H])[C]([H])([H])[N]([c]3[c]([H])[c]([H])[n][c]([H])[c]3[F])[C]([H])([H])[C]2([H])[H])[C]([H])([H])[H])[c]([H])[c]1[H]

$$$$
