
     RDKit          3D

 34 36  0  0  0  0  0  0  0  0999 V2000
    6.9846   -0.5679   23.2957 H   0  0  0  0  0  0  0  0  0  0  0  0
    7.2872    0.0258   22.4350 C   0  0  0  0  0  0  0  0  0  0  0  0
    7.7483    1.2777   22.6379 C   0  0  0  0  0  0  0  0  0  0  0  0
    7.7855    2.1770   24.1769 S   0  0  0  0  0  0  0  0  0  0  0  0
    8.5613    3.5941   23.4385 C   0  0  0  0  0  0  0  0  0  0  0  0
    8.8680    5.0387   24.1317 S   0  0  0  0  0  0  0  0  0  0  0  0
    8.8343    3.2981   22.1477 N   0  0  0  0  0  0  0  0  0  0  0  0
    9.2315    3.9651   21.5035 H   0  0  0  0  0  0  0  0  0  0  0  0
    8.4099    2.1087   21.6052 C   0  0  0  0  0  0  0  0  0  0  0  0
    8.6079    1.8482   20.4457 O   0  0  0  0  0  0  0  0  0  0  0  0
    7.3009   -0.7428   21.1075 C   0  0  0  0  0  0  0  0  0  0  0  0
    6.6480    0.0379   19.9465 C   0  0  0  0  0  0  0  0  0  0  0  0
    7.1593    0.0438   18.6359 C   0  0  0  0  0  0  0  0  0  0  0  0
    8.1094   -0.4362   18.3972 H   0  0  0  0  0  0  0  0  0  0  0  0
    6.5601    0.6302   17.5861 N   0  0  0  0  0  0  0  0  0  0  0  0
    5.4043    1.2691   17.8146 C   0  0  0  0  0  0  0  0  0  0  0  0
    4.9425    1.7613   16.9618 H   0  0  0  0  0  0  0  0  0  0  0  0
    4.7977    1.3285   19.0718 C   0  0  0  0  0  0  0  0  0  0  0  0
    3.8661    1.8665   19.1972 H   0  0  0  0  0  0  0  0  0  0  0  0
    5.4310    0.7024   20.1507 C   0  0  0  0  0  0  0  0  0  0  0  0
    4.9823    0.7281   21.1448 H   0  0  0  0  0  0  0  0  0  0  0  0
    8.7639   -1.1784   20.8095 C   0  0  0  0  0  0  0  0  0  0  0  0
    8.7713   -1.7584   19.8858 H   0  0  0  0  0  0  0  0  0  0  0  0
    9.4000   -0.3086   20.6496 H   0  0  0  0  0  0  0  0  0  0  0  0
    9.3474   -2.0588   21.9290 C   0  0  0  0  0  0  0  0  0  0  0  0
   10.0278   -2.8138   21.4978 H   0  0  0  0  0  0  0  0  0  0  0  0
    9.9348   -1.4420   22.6154 H   0  0  0  0  0  0  0  0  0  0  0  0
    8.3571   -2.6741   22.7411 O   0  0  0  0  0  0  0  0  0  0  0  0
    7.2354   -3.1712   22.0387 C   0  0  0  0  0  0  0  0  0  0  0  0
    6.5899   -3.6303   22.7932 H   0  0  0  0  0  0  0  0  0  0  0  0
    7.5390   -3.9709   21.3413 H   0  0  0  0  0  0  0  0  0  0  0  0
    6.4715   -2.0604   21.2828 C   0  0  0  0  0  0  0  0  0  0  0  0
    5.5317   -1.8203   21.7914 H   0  0  0  0  0  0  0  0  0  0  0  0
    6.1940   -2.4469   20.2976 H   0  0  0  0  0  0  0  0  0  0  0  0
  1  2  1  0
  2  3  2  3
  3  4  1  0
  4  5  1  0
  5  6  2  0
  5  7  1  0
  7  8  1  0
  7  9  1  0
  9 10  2  0
  2 11  1  0
 11 12  1  0
 12 13  2  0
 13 14  1  0
 13 15  1  0
 15 16  2  0
 16 17  1  0
 16 18  1  0
 18 19  1  0
 18 20  2  0
 20 21  1  0
 11 22  1  0
 22 23  1  0
 22 24  1  0
 22 25  1  0
 25 26  1  0
 25 27  1  0
 25 28  1  0
 28 29  1  0
 29 30  1  0
 29 31  1  0
 29 32  1  0
 32 33  1  0
 32 34  1  0
  9  3  1  0
 32 11  1  0
 20 12  1  0
M  END
>  <plip>  (1) 
-0.10344827586206896

>  <filename>  (1) 
[H][C](=[C]1[S][C](=[S])[N]([H])[C]1=[O])[C]1([c]2[c]([H])[n][c]([H])[c]([H])[c]2[H])[C]([H])([H])[C]([H])([H])[O][C]([H])([H])[C]1([H])[H]

$$$$
