
     RDKit          3D

 32 33  0  0  0  0  0  0  0  0999 V2000
    7.0642    0.8396   22.4467 H   0  0  0  0  0  0  0  0  0  0  0  0
    7.5365   -0.1176   22.2347 C   0  0  0  0  0  0  0  0  0  0  0  0
    7.3893   -0.6419   21.0176 C   0  0  0  0  0  0  0  0  0  0  0  0
    8.0459   -2.2241   20.6973 Cl  0  0  0  0  0  0  0  0  0  0  0  0
    6.6509   -0.0036   19.8985 C   0  0  0  0  0  0  0  0  0  0  0  0
    7.1592    0.0344   18.5849 C   0  0  0  0  0  0  0  0  0  0  0  0
    8.1090   -0.4343   18.3474 H   0  0  0  0  0  0  0  0  0  0  0  0
    6.5522    0.6584   17.5674 N   0  0  0  0  0  0  0  0  0  0  0  0
    5.3971    1.2939   17.8175 C   0  0  0  0  0  0  0  0  0  0  0  0
    4.9414    1.8114   16.9723 H   0  0  0  0  0  0  0  0  0  0  0  0
    4.7920    1.3093   19.0817 C   0  0  0  0  0  0  0  0  0  0  0  0
    3.8638    1.8533   19.2256 H   0  0  0  0  0  0  0  0  0  0  0  0
    5.4336    0.6509   20.1351 C   0  0  0  0  0  0  0  0  0  0  0  0
    5.0050    0.6346   21.1368 H   0  0  0  0  0  0  0  0  0  0  0  0
    8.1926   -0.7855   23.4143 C   0  0  0  0  0  0  0  0  0  0  0  0
    8.9046   -0.1164   23.9042 H   0  0  0  0  0  0  0  0  0  0  0  0
    8.7441   -1.6863   23.1175 H   0  0  0  0  0  0  0  0  0  0  0  0
    7.2096   -1.0837   24.3922 O   0  0  0  0  0  0  0  0  0  0  0  0
    6.5375   -2.3333   24.2064 C   0  0  0  0  0  0  0  0  0  0  0  0
    6.2967   -2.5122   23.1483 H   0  0  0  0  0  0  0  0  0  0  0  0
    5.5901   -2.1986   24.7426 H   0  0  0  0  0  0  0  0  0  0  0  0
    7.3383   -3.5035   24.7658 C   0  0  0  0  0  0  0  0  0  0  0  0
    7.9124   -4.4880   23.9426 C   0  0  0  0  0  0  0  0  0  0  0  0
    7.7882   -4.4180   22.8619 H   0  0  0  0  0  0  0  0  0  0  0  0
    8.6744   -5.5270   24.4955 C   0  0  0  0  0  0  0  0  0  0  0  0
    9.1088   -6.2885   23.8524 H   0  0  0  0  0  0  0  0  0  0  0  0
    8.8817   -5.5845   25.8768 C   0  0  0  0  0  0  0  0  0  0  0  0
    9.4727   -6.3892   26.3130 H   0  0  0  0  0  0  0  0  0  0  0  0
    8.3281   -4.6004   26.7051 C   0  0  0  0  0  0  0  0  0  0  0  0
    8.4872   -4.6341   27.7803 H   0  0  0  0  0  0  0  0  0  0  0  0
    7.5684   -3.5674   26.1483 C   0  0  0  0  0  0  0  0  0  0  0  0
    7.1578   -2.7770   26.7726 H   0  0  0  0  0  0  0  0  0  0  0  0
  1  2  1  0
  2  3  2  3
  3  4  1  0
  3  5  1  0
  5  6  2  0
  6  7  1  0
  6  8  1  0
  8  9  2  0
  9 10  1  0
  9 11  1  0
 11 12  1  0
 11 13  2  0
 13 14  1  0
  2 15  1  0
 15 16  1  0
 15 17  1  0
 15 18  1  0
 18 19  1  0
 19 20  1  0
 19 21  1  0
 19 22  1  0
 22 23  2  0
 23 24  1  0
 23 25  1  0
 25 26  1  0
 25 27  2  0
 27 28  1  0
 27 29  1  0
 29 30  1  0
 29 31  2  0
 31 32  1  0
 13  5  1  0
 31 22  1  0
M  END
>  <plip>  (1) 
-0.03571428571428571

>  <filename>  (1) 
[H][C](=[C]([Cl])[c]1[c]([H])[n][c]([H])[c]([H])[c]1[H])[C]([H])([H])[O][C]([H])([H])[c]1[c]([H])[c]([H])[c]([H])[c]([H])[c]1[H]

$$$$
