
     RDKit          3D

 41 44  0  0  0  0  0  0  0  0999 V2000
    5.0323    1.7318   16.9210 H   0  0  0  0  0  0  0  0  0  0  0  0
    5.4651    1.3023   17.8237 C   0  0  0  0  0  0  0  0  0  0  0  0
    6.6185    0.6392   17.6652 N   0  0  0  0  0  0  0  0  0  0  0  0
    7.1575    0.0818   18.7589 C   0  0  0  0  0  0  0  0  0  0  0  0
    8.0984   -0.4441   18.6007 H   0  0  0  0  0  0  0  0  0  0  0  0
    6.5995    0.1388   20.0531 C   0  0  0  0  0  0  0  0  0  0  0  0
    7.2587   -0.5640   21.2270 C   0  0  0  0  0  0  0  0  0  0  0  0
    8.1758    0.2261   22.1018 C   0  0  0  0  0  0  0  0  0  0  0  0
    7.8543    0.9607   23.1112 N   0  0  0  0  0  0  0  0  0  0  0  0
    9.0432    1.3817   23.6979 N   0  0  0  0  0  0  0  0  0  0  0  0
    9.9913    0.8849   22.9617 C   0  0  0  0  0  0  0  0  0  0  0  0
   11.3367    1.0056   23.1225 N   0  0  0  0  0  0  0  0  0  0  0  0
   12.1694    0.8188   21.9338 C   0  0  0  0  0  0  0  0  0  0  0  0
   11.9838   -0.1643   21.4924 H   0  0  0  0  0  0  0  0  0  0  0  0
   13.2268    0.8416   22.2146 H   0  0  0  0  0  0  0  0  0  0  0  0
   11.9783    1.5875   21.1687 H   0  0  0  0  0  0  0  0  0  0  0  0
   11.7768    2.0048   24.1151 C   0  0  0  0  0  0  0  0  0  0  0  0
   12.8540    1.8624   24.2780 H   0  0  0  0  0  0  0  0  0  0  0  0
   11.2868    1.7973   25.0732 H   0  0  0  0  0  0  0  0  0  0  0  0
   11.4878    3.4321   23.6812 C   0  0  0  0  0  0  0  0  0  0  0  0
   10.2983    4.0682   24.0794 C   0  0  0  0  0  0  0  0  0  0  0  0
    9.6404    3.5519   24.7774 H   0  0  0  0  0  0  0  0  0  0  0  0
    9.9259    5.2823   23.5033 C   0  0  0  0  0  0  0  0  0  0  0  0
    8.9719    5.7315   23.7634 H   0  0  0  0  0  0  0  0  0  0  0  0
   10.7455    5.8809   22.5425 C   0  0  0  0  0  0  0  0  0  0  0  0
   10.4211    6.8020   22.0772 H   0  0  0  0  0  0  0  0  0  0  0  0
   11.9530    5.2820   22.1754 C   0  0  0  0  0  0  0  0  0  0  0  0
   12.5615    5.7347   21.3970 H   0  0  0  0  0  0  0  0  0  0  0  0
   12.3391    4.0808   22.7724 C   0  0  0  0  0  0  0  0  0  0  0  0
   13.2971    3.6361   22.5052 H   0  0  0  0  0  0  0  0  0  0  0  0
    9.5292    0.1429   21.9315 O   0  0  0  0  0  0  0  0  0  0  0  0
    7.5465   -2.0428   21.0518 C   0  0  0  0  0  0  0  0  0  0  0  0
    8.4751   -2.4612   21.4385 H   0  0  0  0  0  0  0  0  0  0  0  0
    7.2073   -2.4599   20.1106 H   0  0  0  0  0  0  0  0  0  0  0  0
    6.4523   -1.6132   21.9754 C   0  0  0  0  0  0  0  0  0  0  0  0
    5.4283   -1.7665   21.6440 H   0  0  0  0  0  0  0  0  0  0  0  0
    6.6058   -1.6883   23.0524 H   0  0  0  0  0  0  0  0  0  0  0  0
    5.3998    0.8532   20.1905 C   0  0  0  0  0  0  0  0  0  0  0  0
    4.9165    0.9385   21.1658 H   0  0  0  0  0  0  0  0  0  0  0  0
    4.8233    1.4400   19.0579 C   0  0  0  0  0  0  0  0  0  0  0  0
    3.8918    1.9914   19.1105 H   0  0  0  0  0  0  0  0  0  0  0  0
  1  2  1  0
  2  3  2  0
  3  4  1  0
  4  5  1  0
  4  6  2  0
  6  7  1  0
  7  8  1  0
  8  9  2  0
  9 10  1  0
 10 11  2  0
 11 12  1  0
 12 13  1  0
 13 14  1  0
 13 15  1  0
 13 16  1  0
 12 17  1  0
 17 18  1  0
 17 19  1  0
 17 20  1  0
 20 21  2  0
 21 22  1  0
 21 23  1  0
 23 24  1  0
 23 25  2  0
 25 26  1  0
 25 27  1  0
 27 28  1  0
 27 29  2  0
 29 30  1  0
 11 31  1  0
  7 32  1  0
 32 33  1  0
 32 34  1  0
 32 35  1  0
 35 36  1  0
 35 37  1  0
  6 38  1  0
 38 39  1  0
 38 40  2  0
 40 41  1  0
 40  2  1  0
 35  7  1  0
 31  8  1  0
 29 20  1  0
M  END
>  <plip>  (1) 
-0.10714285714285714

>  <filename>  (1) 
[H][c]1[n][c]([H])[c]([C]2([c]3[n][n][c]([N]([C]([H])([H])[H])[C]([H])([H])[c]4[c]([H])[c]([H])[c]([H])[c]([H])[c]4[H])[o]3)[C]([H])([H])[C]2([H])[H])[c]([H])[c]1[H]

$$$$
