
     RDKit          3D

 35 37  0  0  0  0  0  0  0  0999 V2000
   13.9160   -0.1642   25.3237 H   0  0  0  0  0  0  0  0  0  0  0  0
   14.1258    0.3310   24.5194 O   0  0  0  0  0  0  0  0  0  0  0  0
   12.9261    0.8894   24.0154 C   0  0  2  0  0  0  0  0  0  0  0  0
   12.4463    1.5436   24.7604 H   0  0  0  0  0  0  0  0  0  0  0  0
   11.9349   -0.1515   23.4988 C   0  0  0  0  0  0  0  0  0  0  0  0
   11.3294   -0.5904   24.3073 H   0  0  0  0  0  0  0  0  0  0  0  0
   12.5215   -0.9608   23.0108 H   0  0  0  0  0  0  0  0  0  0  0  0
   11.1098    0.5719   22.5306 N   0  0  0  0  0  0  0  0  0  0  0  0
   10.4872   -0.3340   21.5847 C   0  0  0  0  0  0  0  0  0  0  0  0
   11.2515   -0.8884   21.0116 H   0  0  0  0  0  0  0  0  0  0  0  0
    9.4175   -1.3186   22.1162 C   0  0  0  0  0  0  0  0  0  0  0  0
    9.0417   -1.0564   23.1121 H   0  0  0  0  0  0  0  0  0  0  0  0
    9.7031   -2.3743   22.1039 H   0  0  0  0  0  0  0  0  0  0  0  0
    8.5173   -0.9160   21.0212 N   0  0  0  0  0  0  0  0  0  0  0  0
    7.1426   -0.9159   21.0927 C   0  0  0  0  0  0  0  0  0  0  0  0
    6.5371   -1.4793   21.9856 O   0  0  0  0  0  0  0  0  0  0  0  0
    6.4627   -0.1598   19.9972 C   0  0  0  0  0  0  0  0  0  0  0  0
    7.0399   -0.1838   18.7228 C   0  0  0  0  0  0  0  0  0  0  0  0
    7.9252   -0.7899   18.5380 H   0  0  0  0  0  0  0  0  0  0  0  0
    6.5831    0.5118   17.6807 N   0  0  0  0  0  0  0  0  0  0  0  0
    5.4973    1.2711   17.8856 C   0  0  0  0  0  0  0  0  0  0  0  0
    5.1452    1.8428   17.0300 H   0  0  0  0  0  0  0  0  0  0  0  0
    4.8198    1.3363   19.1097 C   0  0  0  0  0  0  0  0  0  0  0  0
    3.9401    1.9640   19.2007 H   0  0  0  0  0  0  0  0  0  0  0  0
    5.2996    0.5987   20.1927 C   0  0  0  0  0  0  0  0  0  0  0  0
    4.7938    0.6172   21.1613 H   0  0  0  0  0  0  0  0  0  0  0  0
    9.4083    0.2009   20.6203 C   0  0  0  0  0  0  0  0  0  0  0  0
    9.6598    0.1671   19.5584 H   0  0  0  0  0  0  0  0  0  0  0  0
    9.0460    1.2019   20.8847 H   0  0  0  0  0  0  0  0  0  0  0  0
   11.9128    1.6771   21.9577 C   0  0  0  0  0  0  0  0  0  0  0  0
   12.0924    1.5299   20.8850 H   0  0  0  0  0  0  0  0  0  0  0  0
   11.3845    2.6388   22.0368 H   0  0  0  0  0  0  0  0  0  0  0  0
   13.2317    1.6816   22.7522 C   0  0  0  0  0  0  0  0  0  0  0  0
   13.6029    2.6910   22.9605 H   0  0  0  0  0  0  0  0  0  0  0  0
   14.0121    1.1284   22.2163 H   0  0  0  0  0  0  0  0  0  0  0  0
  1  2  1  0
  2  3  1  0
  3  4  1  1
  3  5  1  0
  5  6  1  0
  5  7  1  0
  5  8  1  0
  8  9  1  0
  9 10  1  0
  9 11  1  0
 11 12  1  0
 11 13  1  0
 11 14  1  0
 14 15  1  0
 15 16  2  0
 15 17  1  0
 17 18  2  0
 18 19  1  0
 18 20  1  0
 20 21  2  0
 21 22  1  0
 21 23  1  0
 23 24  1  0
 23 25  2  0
 25 26  1  0
 14 27  1  0
 27 28  1  0
 27 29  1  0
  8 30  1  0
 30 31  1  0
 30 32  1  0
 30 33  1  0
 33 34  1  0
 33 35  1  0
 33  3  1  0
 27  9  1  0
 25 17  1  0
M  END
>  <plip>  (1) 
-0.06896551724137931

>  <filename>  (1) 
[H][O][C@]1([H])[C]([H])([H])[N]([C]2([H])[C]([H])([H])[N]([C](=[O])[c]3[c]([H])[n][c]([H])[c]([H])[c]3[H])[C]2([H])[H])[C]([H])([H])[C]1([H])[H]

$$$$
