
     RDKit          3D

 46 48  0  0  0  0  0  0  0  0999 V2000
    9.5980   -2.6200   21.8614 C   0  0  0  0  0  0  0  0  0  0  0  0
    8.6914   -1.5410   22.0813 O   0  0  0  0  0  0  0  0  0  0  0  0
    7.5181   -1.5622   21.4308 C   0  0  0  0  0  0  0  0  0  0  0  0
    7.0019   -2.5624   20.9919 O   0  0  0  0  0  0  0  0  0  0  0  0
    6.8347   -0.1514   21.3881 C   0  0  0  0  0  0  0  0  0  0  0  0
    7.6121    0.9902   21.8649 N   0  0  0  0  0  0  0  0  0  0  0  0
    8.7881    1.3926   21.2886 C   0  0  0  0  0  0  0  0  0  0  0  0
    9.2789    0.8336   20.3216 O   0  0  0  0  0  0  0  0  0  0  0  0
    9.4759    2.5459   21.9270 C   0  0  0  0  0  0  0  0  0  0  0  0
    9.0465    3.2221   22.9982 C   0  0  0  0  0  0  0  0  0  0  0  0
    9.6291    4.3491   23.7390 C   0  0  0  0  0  0  0  0  0  0  0  0
   10.6760    5.1723   23.2924 C   0  0  0  0  0  0  0  0  0  0  0  0
   11.1071    6.2391   24.0893 C   0  0  0  0  0  0  0  0  0  0  0  0
   10.5094    6.5141   25.3287 C   0  0  0  0  0  0  0  0  0  0  0  0
   10.9746    7.6606   26.2043 C   0  0  0  0  0  0  0  0  0  0  0  0
    9.9282    8.0307   27.2603 C   0  0  0  0  0  0  0  0  0  0  0  0
    9.4815    6.8689   27.9370 O   0  0  0  0  0  0  0  0  0  0  0  0
    8.7458    6.0062   27.0900 C   0  0  0  0  0  0  0  0  0  0  0  0
    9.4611    5.6860   25.7833 C   0  0  0  0  0  0  0  0  0  0  0  0
    9.0411    4.6274   24.9886 C   0  0  0  0  0  0  0  0  0  0  0  0
    8.2269    3.9878   25.3267 H   0  0  0  0  0  0  0  0  0  0  0  0
    8.5702    5.0985   27.6728 H   0  0  0  0  0  0  0  0  0  0  0  0
    7.7522    6.4378   26.8692 H   0  0  0  0  0  0  0  0  0  0  0  0
   10.3499    8.6910   28.0243 H   0  0  0  0  0  0  0  0  0  0  0  0
    9.0774    8.5580   26.7904 H   0  0  0  0  0  0  0  0  0  0  0  0
   11.8987    7.3566   26.7123 H   0  0  0  0  0  0  0  0  0  0  0  0
   11.2194    8.5434   25.6045 H   0  0  0  0  0  0  0  0  0  0  0  0
   11.9190    6.8746   23.7449 H   0  0  0  0  0  0  0  0  0  0  0  0
   11.1406    4.9911   22.3244 H   0  0  0  0  0  0  0  0  0  0  0  0
    8.0961    2.9297   23.4601 H   0  0  0  0  0  0  0  0  0  0  0  0
   10.3999    2.7808   21.4067 H   0  0  0  0  0  0  0  0  0  0  0  0
    7.4273    1.3417   22.7844 H   0  0  0  0  0  0  0  0  0  0  0  0
    6.2248    0.2347   20.0477 C   0  0  0  0  0  0  0  0  0  0  0  0
    4.9910    0.8900   20.0150 C   0  0  0  0  0  0  0  0  0  0  0  0
    4.5506    1.4462   18.8147 C   0  0  0  0  0  0  0  0  0  0  0  0
    5.3516    1.3057   17.6787 C   0  0  0  0  0  0  0  0  0  0  0  0
    6.5157    0.6460   17.6772 N   0  0  0  0  0  0  0  0  0  0  0  0
    6.9364    0.1267   18.8412 C   0  0  0  0  0  0  0  0  0  0  0  0
    7.9110   -0.3567   18.8159 H   0  0  0  0  0  0  0  0  0  0  0  0
    5.0488    1.7389   16.7282 H   0  0  0  0  0  0  0  0  0  0  0  0
    3.6391    2.0288   18.7573 H   0  0  0  0  0  0  0  0  0  0  0  0
    4.3939    0.9999   20.9215 H   0  0  0  0  0  0  0  0  0  0  0  0
    6.0083   -0.2908   22.1000 H   0  0  0  0  0  0  0  0  0  0  0  0
   10.6043   -2.2085   21.9485 H   0  0  0  0  0  0  0  0  0  0  0  0
    9.4600   -3.0439   20.8643 H   0  0  0  0  0  0  0  0  0  0  0  0
    9.4389   -3.3898   22.6171 H   0  0  0  0  0  0  0  0  0  0  0  0
  1  2  1  0
  2  3  1  0
  3  4  2  0
  3  5  1  0
  5  6  1  0
  6  7  1  0
  7  8  2  0
  7  9  1  0
  9 10  2  3
 10 11  1  0
 11 12  2  0
 12 13  1  0
 13 14  2  0
 14 15  1  0
 15 16  1  0
 16 17  1  0
 17 18  1  0
 18 19  1  0
 19 20  2  0
 20 21  1  0
 18 22  1  0
 18 23  1  0
 16 24  1  0
 16 25  1  0
 15 26  1  0
 15 27  1  0
 13 28  1  0
 12 29  1  0
 10 30  1  0
  9 31  1  0
  6 32  1  0
  5 33  1  0
 33 34  2  0
 34 35  1  0
 35 36  2  0
 36 37  1  0
 37 38  2  0
 38 39  1  0
 36 40  1  0
 35 41  1  0
 34 42  1  0
  5 43  1  0
  1 44  1  0
  1 45  1  0
  1 46  1  0
 20 11  1  0
 38 33  1  0
 19 14  1  0
M  END
>  <plip>  (1) 
-0.17857142857142858

>  <filename>  (1) 
[H][C]([C](=[O])[N]([H])[C]([H])([C](=[O])[O][C]([H])([H])[H])[c]1[c]([H])[n][c]([H])[c]([H])[c]1[H])=[C]([H])[c]1[c]([H])[c]([H])[c]2[c]([c]1[H])[C]([H])([H])[O][C]([H])([H])[C]2([H])[H]

$$$$
