
     RDKit          3D

 33 34  0  0  0  0  0  0  0  0999 V2000
    6.5113   -1.0718   21.9365 H   0  0  0  0  0  0  0  0  0  0  0  0
    7.1561   -0.5660   21.2097 C   0  0  0  0  0  0  0  0  0  0  0  0
    8.4576   -0.3369   21.4853 C   0  0  0  0  0  0  0  0  0  0  0  0
    9.2605   -0.9315   22.5442 C   0  0  0  0  0  0  0  0  0  0  0  0
    8.3849   -2.1323   23.7052 S   0  0  0  0  0  0  0  0  0  0  0  0
    7.4731   -1.3732   24.5467 O   0  0  0  0  0  0  0  0  0  0  0  0
    7.8408   -3.2257   22.9042 O   0  0  0  0  0  0  0  0  0  0  0  0
    9.5270   -2.8300   24.7465 N   0  0  0  0  0  0  0  0  0  0  0  0
    8.9197   -3.6541   25.8011 C   0  0  0  0  0  0  0  0  0  0  0  0
    8.1691   -3.0731   26.3446 H   0  0  0  0  0  0  0  0  0  0  0  0
    8.4749   -4.5960   25.4417 H   0  0  0  0  0  0  0  0  0  0  0  0
    9.7108   -3.9109   26.5140 H   0  0  0  0  0  0  0  0  0  0  0  0
   10.6163   -3.4632   24.0005 C   0  0  0  0  0  0  0  0  0  0  0  0
   11.1790   -2.6918   23.4663 H   0  0  0  0  0  0  0  0  0  0  0  0
   10.2425   -4.2050   23.2904 H   0  0  0  0  0  0  0  0  0  0  0  0
   11.2924   -3.9656   24.6992 H   0  0  0  0  0  0  0  0  0  0  0  0
   10.4893   -0.5386   22.5915 N   0  0  0  0  0  0  0  0  0  0  0  0
   10.6619    0.5659   21.6590 C   0  0  0  0  0  0  0  0  0  0  0  0
   11.5520    0.3841   21.0558 H   0  0  0  0  0  0  0  0  0  0  0  0
   10.8355    1.4824   22.2298 H   0  0  0  0  0  0  0  0  0  0  0  0
    9.3693    0.6767   20.8189 C   0  0  0  0  0  0  0  0  0  0  0  0
    8.9231    1.6746   20.8467 H   0  0  0  0  0  0  0  0  0  0  0  0
    9.5484    0.4356   19.7701 H   0  0  0  0  0  0  0  0  0  0  0  0
    6.4813   -0.0650   19.9995 C   0  0  0  0  0  0  0  0  0  0  0  0
    7.0815   -0.0672   18.7209 C   0  0  0  0  0  0  0  0  0  0  0  0
    7.9972   -0.6301   18.5532 H   0  0  0  0  0  0  0  0  0  0  0  0
    6.6046    0.5921   17.6582 N   0  0  0  0  0  0  0  0  0  0  0  0
    5.4577    1.2666   17.8199 C   0  0  0  0  0  0  0  0  0  0  0  0
    5.1058    1.8280   16.9568 H   0  0  0  0  0  0  0  0  0  0  0  0
    4.7206    1.2491   19.0110 C   0  0  0  0  0  0  0  0  0  0  0  0
    3.7941    1.8075   19.0686 H   0  0  0  0  0  0  0  0  0  0  0  0
    5.2267    0.5532   20.1082 C   0  0  0  0  0  0  0  0  0  0  0  0
    4.6916    0.5266   21.0591 H   0  0  0  0  0  0  0  0  0  0  0  0
  1  2  1  0
  2  3  2  3
  3  4  1  0
  4  5  1  0
  5  6  2  0
  5  7  2  0
  5  8  1  0
  8  9  1  0
  9 10  1  0
  9 11  1  0
  9 12  1  0
  8 13  1  0
 13 14  1  0
 13 15  1  0
 13 16  1  0
  4 17  2  0
 17 18  1  0
 18 19  1  0
 18 20  1  0
 18 21  1  0
 21 22  1  0
 21 23  1  0
  2 24  1  0
 24 25  2  0
 25 26  1  0
 25 27  1  0
 27 28  2  0
 28 29  1  0
 28 30  1  0
 30 31  1  0
 30 32  2  0
 32 33  1  0
 21  3  1  0
 32 24  1  0
M  END
>  <plip>  (1) 
-0.0

>  <filename>  (1) 
[H][C](=[C]1[C]([S](=[O])(=[O])[N]([C]([H])([H])[H])[C]([H])([H])[H])=[N][C]([H])([H])[C]1([H])[H])[c]1[c]([H])[n][c]([H])[c]([H])[c]1[H]

$$$$
