
     RDKit          3D

 27 29  0  0  0  0  0  0  0  0999 V2000
    9.1942   -0.0749   20.1965 O   0  0  0  0  0  0  0  0  0  0  0  0
    8.2924   -0.6219   20.8126 C   0  0  0  0  0  0  0  0  0  0  0  0
    6.9656   -0.4115   20.5195 N   0  0  0  0  0  0  0  0  0  0  0  0
    6.4068    0.3255   19.4492 C   0  0  0  0  0  0  0  0  0  0  0  0
    5.1727    0.9503   19.6666 C   0  0  0  0  0  0  0  0  0  0  0  0
    4.5876    1.6675   18.6187 C   0  0  0  0  0  0  0  0  0  0  0  0
    5.2545    1.7384   17.3906 C   0  0  0  0  0  0  0  0  0  0  0  0
    6.4247    1.1221   17.1504 N   0  0  0  0  0  0  0  0  0  0  0  0
    6.9832    0.4377   18.1592 C   0  0  0  0  0  0  0  0  0  0  0  0
    7.9227   -0.0685   17.9513 H   0  0  0  0  0  0  0  0  0  0  0  0
    4.8317    2.3051   16.5661 H   0  0  0  0  0  0  0  0  0  0  0  0
    3.6318    2.1656   18.7425 H   0  0  0  0  0  0  0  0  0  0  0  0
    4.7014    0.8917   20.6473 H   0  0  0  0  0  0  0  0  0  0  0  0
    6.3118   -0.8164   21.1809 H   0  0  0  0  0  0  0  0  0  0  0  0
    8.5756   -1.6179   21.9698 C   0  0  0  0  0  0  0  0  0  0  0  0
    9.8995   -1.9789   22.2195 C   0  0  0  0  0  0  0  0  0  0  0  0
   10.1249   -2.9086   23.2335 C   0  0  0  0  0  0  0  0  0  0  0  0
    9.0473   -3.4866   23.9232 C   0  0  0  0  0  0  0  0  0  0  0  0
    7.7393   -3.0451   23.6303 C   0  0  0  0  0  0  0  0  0  0  0  0
    7.5318   -2.1361   22.6819 N   0  0  0  0  0  0  0  0  0  0  0  0
    6.8478   -3.4174   24.1354 H   0  0  0  0  0  0  0  0  0  0  0  0
    9.6404   -4.4105   24.7704 N   0  0  0  0  0  0  0  0  0  0  0  0
   10.9952   -4.3242   24.5593 C   0  0  0  0  0  0  0  0  0  0  0  0
   11.3156   -3.4534   23.6499 N   0  0  0  0  0  0  0  0  0  0  0  0
   11.7128   -4.9368   25.0954 H   0  0  0  0  0  0  0  0  0  0  0  0
    9.1626   -5.1034   25.3220 H   0  0  0  0  0  0  0  0  0  0  0  0
   10.7209   -1.5731   21.6448 H   0  0  0  0  0  0  0  0  0  0  0  0
  1  2  2  0
  2  3  1  0
  3  4  1  0
  4  5  2  0
  5  6  1  0
  6  7  2  0
  7  8  1  0
  8  9  2  0
  9 10  1  0
  7 11  1  0
  6 12  1  0
  5 13  1  0
  3 14  1  0
  2 15  1  0
 15 16  2  0
 16 17  1  0
 17 18  2  0
 18 19  1  0
 19 20  2  0
 19 21  1  0
 18 22  1  0
 22 23  1  0
 23 24  2  0
 23 25  1  0
 22 26  1  0
 16 27  1  0
  9  4  1  0
 20 15  1  0
 24 17  1  0
M  END
>  <plip>  (1) 
-0.13793103448275862

>  <filename>  (1) 
[H][c]1[n][c]([H])[c]([N]([H])[C](=[O])[c]2[n][c]([H])[c]3[c]([n][c]([H])[n]3[H])[c]2[H])[c]([H])[c]1[H]

$$$$
