
     RDKit          3D

 25 26  0  0  0  0  0  0  0  0999 V2000
    5.7438   -1.4144   21.9779 H   0  0  0  0  0  0  0  0  0  0  0  0
    6.8207   -1.3438   21.9770 C   0  0  0  0  0  0  0  0  0  0  0  0
    7.3907   -0.7078   20.9578 C   0  0  0  0  0  0  0  0  0  0  0  0
    8.7380   -0.7515   20.7884 F   0  0  0  0  0  0  0  0  0  0  0  0
    6.6788    0.0243   19.9057 C   0  0  0  0  0  0  0  0  0  0  0  0
    7.1919    0.0735   18.5932 C   0  0  0  0  0  0  0  0  0  0  0  0
    8.1290   -0.4290   18.3719 H   0  0  0  0  0  0  0  0  0  0  0  0
    6.5695    0.6757   17.5749 N   0  0  0  0  0  0  0  0  0  0  0  0
    5.4048    1.2898   17.8431 C   0  0  0  0  0  0  0  0  0  0  0  0
    4.9127    1.7742   17.0030 H   0  0  0  0  0  0  0  0  0  0  0  0
    4.8064    1.3095   19.1111 C   0  0  0  0  0  0  0  0  0  0  0  0
    3.8715    1.8439   19.2644 H   0  0  0  0  0  0  0  0  0  0  0  0
    5.4434    0.6473   20.1586 C   0  0  0  0  0  0  0  0  0  0  0  0
    5.0101    0.6348   21.1603 H   0  0  0  0  0  0  0  0  0  0  0  0
    7.5094   -2.0121   23.0000 N   0  0  0  0  0  0  0  0  0  0  0  0
    8.5519   -1.5621   23.7862 C   0  0  0  0  0  0  0  0  0  0  0  0
    9.1352   -0.1932   23.7072 C   0  0  0  0  0  0  0  0  0  0  0  0
    9.9778   -0.1786   23.0125 H   0  0  0  0  0  0  0  0  0  0  0  0
    9.4926    0.0848   24.6999 H   0  0  0  0  0  0  0  0  0  0  0  0
    8.3950    0.5312   23.3656 H   0  0  0  0  0  0  0  0  0  0  0  0
    8.9337   -2.4826   24.6314 N   0  0  0  0  0  0  0  0  0  0  0  0
    8.1192   -3.5672   24.4019 C   0  0  0  0  0  0  0  0  0  0  0  0
    8.1940   -4.4797   24.9755 H   0  0  0  0  0  0  0  0  0  0  0  0
    7.2337   -3.3030   23.4063 C   0  0  0  0  0  0  0  0  0  0  0  0
    6.4446   -3.8994   22.9673 H   0  0  0  0  0  0  0  0  0  0  0  0
  1  2  1  0
  2  3  2  3
  3  4  1  0
  3  5  1  0
  5  6  2  0
  6  7  1  0
  6  8  1  0
  8  9  2  0
  9 10  1  0
  9 11  1  0
 11 12  1  0
 11 13  2  0
 13 14  1  0
  2 15  1  0
 15 16  1  0
 16 17  1  0
 17 18  1  0
 17 19  1  0
 17 20  1  0
 16 21  2  0
 21 22  1  0
 22 23  1  0
 22 24  2  0
 24 25  1  0
 13  5  1  0
 24 15  1  0
M  END
>  <plip>  (1) 
-0.034482758620689655

>  <filename>  (1) 
[H][C](=[C]([F])[c]1[c]([H])[n][c]([H])[c]([H])[c]1[H])[n]1[c]([C]([H])([H])[H])[n][c]([H])[c]1[H]

$$$$
