
     RDKit          3D

 45 47  0  0  0  0  0  0  0  0999 V2000
    4.5678   -4.8875   23.3807 C   0  0  0  0  0  0  0  0  0  0  0  0
    5.7865   -5.6702   23.8765 C   0  0  0  0  0  0  0  0  0  0  0  0
    6.2129   -5.2953   25.2166 N   0  0  0  0  0  0  0  0  0  0  0  0
    7.1948   -4.3699   25.5653 C   0  0  0  0  0  0  0  0  0  0  0  0
    8.0397   -3.6560   24.5603 C   0  0  0  0  0  0  0  0  0  0  0  0
    7.3049   -2.5971   23.8638 N   0  0  0  0  0  0  0  0  0  0  0  0
    7.9181   -1.9126   22.8429 C   0  0  0  0  0  0  0  0  0  0  0  0
    9.0496   -2.2058   22.5026 O   0  0  0  0  0  0  0  0  0  0  0  0
    7.0979   -0.7429   22.2317 C   0  0  0  0  0  0  0  0  0  0  0  0
    7.4245    0.5887   22.9253 C   0  0  0  0  0  0  0  0  0  0  0  0
    6.8551    1.4250   22.5035 H   0  0  0  0  0  0  0  0  0  0  0  0
    8.4884    0.8093   22.8008 H   0  0  0  0  0  0  0  0  0  0  0  0
    7.1956    0.5373   23.9952 H   0  0  0  0  0  0  0  0  0  0  0  0
    7.4021   -0.7012   20.8391 O   0  0  0  0  0  0  0  0  0  0  0  0
    6.6513    0.0019   19.9464 C   0  0  0  0  0  0  0  0  0  0  0  0
    5.4348    0.6496   20.1929 C   0  0  0  0  0  0  0  0  0  0  0  0
    4.8107    1.3019   19.1156 C   0  0  0  0  0  0  0  0  0  0  0  0
    5.4043    1.2859   17.8532 C   0  0  0  0  0  0  0  0  0  0  0  0
    6.5711    0.6621   17.6037 N   0  0  0  0  0  0  0  0  0  0  0  0
    7.1698    0.0479   18.6271 C   0  0  0  0  0  0  0  0  0  0  0  0
    8.1185   -0.4438   18.4182 H   0  0  0  0  0  0  0  0  0  0  0  0
    4.9434    1.7858   17.0053 H   0  0  0  0  0  0  0  0  0  0  0  0
    3.8755    1.8345   19.2519 H   0  0  0  0  0  0  0  0  0  0  0  0
    4.9881    0.6510   21.1847 H   0  0  0  0  0  0  0  0  0  0  0  0
    6.0384   -0.9913   22.3474 H   0  0  0  0  0  0  0  0  0  0  0  0
    6.4706   -2.2328   24.2975 H   0  0  0  0  0  0  0  0  0  0  0  0
    8.4520   -4.3363   23.8002 H   0  0  0  0  0  0  0  0  0  0  0  0
    8.9196   -3.2362   25.0673 H   0  0  0  0  0  0  0  0  0  0  0  0
    7.2117   -4.2211   26.9226 C   0  0  0  0  0  0  0  0  0  0  0  0
    6.1888   -5.0580   27.4700 C   0  0  0  0  0  0  0  0  0  0  0  0
    5.7205   -5.2968   28.7757 C   0  0  0  0  0  0  0  0  0  0  0  0
    4.6606   -6.1702   28.9644 C   0  0  0  0  0  0  0  0  0  0  0  0
    4.0479   -6.8162   27.8645 C   0  0  0  0  0  0  0  0  0  0  0  0
    4.4881   -6.5977   26.5633 C   0  0  0  0  0  0  0  0  0  0  0  0
    5.5732   -5.7149   26.3767 C   0  0  0  0  0  0  0  0  0  0  0  0
    4.0046   -7.0814   25.7195 H   0  0  0  0  0  0  0  0  0  0  0  0
    3.2216   -7.4979   28.0475 H   0  0  0  0  0  0  0  0  0  0  0  0
    4.2985   -6.3599   29.9686 H   0  0  0  0  0  0  0  0  0  0  0  0
    6.1936   -4.7912   29.6126 H   0  0  0  0  0  0  0  0  0  0  0  0
    7.8825   -3.5761   27.4774 H   0  0  0  0  0  0  0  0  0  0  0  0
    5.5722   -6.7467   23.8992 H   0  0  0  0  0  0  0  0  0  0  0  0
    6.6404   -5.5431   23.2005 H   0  0  0  0  0  0  0  0  0  0  0  0
    4.2731   -5.2339   22.3859 H   0  0  0  0  0  0  0  0  0  0  0  0
    3.7136   -5.0224   24.0543 H   0  0  0  0  0  0  0  0  0  0  0  0
    4.7848   -3.8168   23.3135 H   0  0  0  0  0  0  0  0  0  0  0  0
  1  2  1  0
  2  3  1  0
  3  4  1  0
  4  5  1  0
  5  6  1  0
  6  7  1  0
  7  8  2  0
  7  9  1  0
  9 10  1  0
 10 11  1  0
 10 12  1  0
 10 13  1  0
  9 14  1  0
 14 15  1  0
 15 16  2  0
 16 17  1  0
 17 18  2  0
 18 19  1  0
 19 20  2  0
 20 21  1  0
 18 22  1  0
 17 23  1  0
 16 24  1  0
  9 25  1  0
  6 26  1  0
  5 27  1  0
  5 28  1  0
  4 29  2  0
 29 30  1  0
 30 31  2  0
 31 32  1  0
 32 33  2  0
 33 34  1  0
 34 35  2  0
 34 36  1  0
 33 37  1  0
 32 38  1  0
 31 39  1  0
 29 40  1  0
  2 41  1  0
  2 42  1  0
  1 43  1  0
  1 44  1  0
  1 45  1  0
 35  3  1  0
 20 15  1  0
 35 30  1  0
M  END
>  <plip>  (1) 
-0.03571428571428571

>  <filename>  (1) 
[H][c]1[n][c]([H])[c]([O][C]([H])([C](=[O])[N]([H])[C]([H])([H])[c]2[c]([H])[c]3[c]([H])[c]([H])[c]([H])[c]([H])[c]3[n]2[C]([H])([H])[C]([H])([H])[H])[C]([H])([H])[H])[c]([H])[c]1[H]

$$$$
