
     RDKit          3D

 27 28  0  0  0  0  0  0  0  0999 V2000
    5.0561    1.7064   16.9517 H   0  0  0  0  0  0  0  0  0  0  0  0
    5.4739    1.2324   17.8404 C   0  0  0  0  0  0  0  0  0  0  0  0
    6.6222    0.5548   17.6677 N   0  0  0  0  0  0  0  0  0  0  0  0
    7.1606   -0.0370   18.7404 C   0  0  0  0  0  0  0  0  0  0  0  0
    8.0919   -0.5758   18.5837 H   0  0  0  0  0  0  0  0  0  0  0  0
    6.5867    0.0437   20.0052 C   0  0  0  0  0  0  0  0  0  0  0  0
    7.5251   -0.7227   21.3165 S   0  0  0  0  0  4  0  0  0  0  0  0
    8.9612   -0.4256   21.0876 O   0  0  0  0  0  0  0  0  0  0  0  0
    7.4732   -2.2632   20.6349 N   0  0  0  0  0  0  0  0  0  0  0  0
    8.4069   -2.6208   20.7871 H   0  0  0  0  0  0  0  0  0  0  0  0
    6.3207   -3.1454   20.7298 C   0  0  1  0  0  0  0  0  0  0  0  0
    5.4714   -2.6427   20.2426 H   0  0  0  0  0  0  0  0  0  0  0  0
    6.5192   -4.5363   20.0772 C   0  0  0  0  0  0  0  0  0  0  0  0
    6.4680   -4.5113   18.9871 H   0  0  0  0  0  0  0  0  0  0  0  0
    7.5188   -4.9090   20.3672 H   0  0  0  0  0  0  0  0  0  0  0  0
    5.4869   -5.4206   20.6236 N   0  0  0  0  0  0  0  0  0  0  0  0
    4.6570   -5.4234   20.0379 H   0  0  0  0  0  0  0  0  0  0  0  0
    5.1858   -4.9224   21.9797 C   0  0  0  0  0  0  0  0  0  0  0  0
    5.5463   -5.6358   22.7340 H   0  0  0  0  0  0  0  0  0  0  0  0
    4.1006   -4.8239   22.1228 H   0  0  0  0  0  0  0  0  0  0  0  0
    5.9366   -3.5776   22.1536 C   0  0  0  0  0  0  0  0  0  0  0  0
    6.8546   -3.7483   22.7349 H   0  0  0  0  0  0  0  0  0  0  0  0
    5.3571   -2.8164   22.6789 H   0  0  0  0  0  0  0  0  0  0  0  0
    5.3711    0.6964   20.1920 C   0  0  0  0  0  0  0  0  0  0  0  0
    4.8808    0.7200   21.1661 H   0  0  0  0  0  0  0  0  0  0  0  0
    4.8076    1.3091   19.0689 C   0  0  0  0  0  0  0  0  0  0  0  0
    3.8629    1.8368   19.1337 H   0  0  0  0  0  0  0  0  0  0  0  0
  1  2  1  0
  2  3  2  0
  3  4  1  0
  4  5  1  0
  4  6  2  0
  6  7  1  0
  7  8  2  0
  7  9  1  6
  9 10  1  0
  9 11  1  0
 11 12  1  6
 11 13  1  0
 13 14  1  0
 13 15  1  0
 13 16  1  0
 16 17  1  0
 16 18  1  0
 18 19  1  0
 18 20  1  0
 18 21  1  0
 21 22  1  0
 21 23  1  0
  6 24  1  0
 24 25  1  0
 24 26  2  0
 26 27  1  0
 26  2  1  0
 21 11  1  0
M  END
>  <plip>  (1) 
-0.13793103448275862

>  <filename>  (1) 
[H][c]1[n][c]([H])[c]([S@](=[O])[N]([H])[C@@]2([H])[C]([H])([H])[N]([H])[C]([H])([H])[C]2([H])[H])[c]([H])[c]1[H]

$$$$
