
     RDKit          3D

 32 32  0  0  0  0  0  0  0  0999 V2000
    7.7049   -6.9889   22.1561 H   0  0  0  0  0  0  0  0  0  0  0  0
    7.7611   -6.5609   23.0247 O   0  0  0  0  0  0  0  0  0  0  0  0
    6.6681   -5.7882   22.9424 C   0  0  0  0  0  0  0  0  0  0  0  0
    6.0051   -5.8226   21.9309 O   0  0  0  0  0  0  0  0  0  0  0  0
    6.4507   -4.9419   24.1645 C   0  0  0  0  0  0  0  0  0  0  0  0
    5.4025   -4.6352   24.1501 H   0  0  0  0  0  0  0  0  0  0  0  0
    6.6176   -5.5725   25.0450 H   0  0  0  0  0  0  0  0  0  0  0  0
    7.3767   -3.7047   24.1963 C   0  0  0  0  0  0  0  0  0  0  0  0
    7.2427   -3.2076   25.1662 H   0  0  0  0  0  0  0  0  0  0  0  0
    8.4271   -4.0307   24.1602 H   0  0  0  0  0  0  0  0  0  0  0  0
    7.0717   -2.7124   23.0647 C   0  0  0  0  0  0  0  0  0  0  0  0
    7.2650   -3.1826   22.0906 H   0  0  0  0  0  0  0  0  0  0  0  0
    5.9954   -2.4844   23.0820 H   0  0  0  0  0  0  0  0  0  0  0  0
    7.8753   -1.3950   23.1680 C   0  0  2  0  0  0  0  0  0  0  0  0
    7.7151   -0.9641   24.1664 H   0  0  0  0  0  0  0  0  0  0  0  0
    7.3377   -0.3087   22.2347 C   0  0  0  0  0  0  0  0  0  0  0  0
    6.9835    0.7795   22.6102 O   0  0  0  0  0  0  0  0  0  0  0  0
    7.3483   -0.6986   20.9135 O   0  0  0  0  0  0  0  0  0  0  0  0
    6.6640    0.0226   19.9321 C   0  0  0  0  0  0  0  0  0  0  0  0
    7.1875    0.0459   18.6233 C   0  0  0  0  0  0  0  0  0  0  0  0
    8.1320   -0.4460   18.3962 H   0  0  0  0  0  0  0  0  0  0  0  0
    6.5750    0.6628   17.6029 N   0  0  0  0  0  0  0  0  0  0  0  0
    5.4072    1.2825   17.8481 C   0  0  0  0  0  0  0  0  0  0  0  0
    4.9347    1.7784   17.0019 H   0  0  0  0  0  0  0  0  0  0  0  0
    4.8127    1.2968   19.1112 C   0  0  0  0  0  0  0  0  0  0  0  0
    3.8824    1.8299   19.2578 H   0  0  0  0  0  0  0  0  0  0  0  0
    5.4433    0.6525   20.1793 C   0  0  0  0  0  0  0  0  0  0  0  0
    5.0181    0.6371   21.1780 H   0  0  0  0  0  0  0  0  0  0  0  0
    9.3914   -1.6081   22.9638 C   0  0  0  0  0  0  0  0  0  0  0  0
    9.8081   -2.2391   23.7584 H   0  0  0  0  0  0  0  0  0  0  0  0
    9.9303   -0.6552   22.9876 H   0  0  0  0  0  0  0  0  0  0  0  0
    9.5951   -2.0950   22.0031 H   0  0  0  0  0  0  0  0  0  0  0  0
  1  2  1  0
  2  3  1  0
  3  4  2  0
  3  5  1  0
  5  6  1  0
  5  7  1  0
  5  8  1  0
  8  9  1  0
  8 10  1  0
  8 11  1  0
 11 12  1  0
 11 13  1  0
 11 14  1  0
 14 15  1  1
 14 16  1  0
 16 17  2  0
 16 18  1  0
 18 19  1  0
 19 20  2  0
 20 21  1  0
 20 22  1  0
 22 23  2  0
 23 24  1  0
 23 25  1  0
 25 26  1  0
 25 27  2  0
 27 28  1  0
 14 29  1  0
 29 30  1  0
 29 31  1  0
 29 32  1  0
 27 19  1  0
M  END
>  <plip>  (1) 
-0.03571428571428571

>  <filename>  (1) 
[H][O][C](=[O])[C]([H])([H])[C]([H])([H])[C]([H])([H])[C@]([H])([C](=[O])[O][c]1[c]([H])[n][c]([H])[c]([H])[c]1[H])[C]([H])([H])[H]

$$$$
