
     RDKit          3D

 31 32  0  0  0  0  0  0  0  0999 V2000
    4.9958    1.6537   17.1199 H   0  0  0  0  0  0  0  0  0  0  0  0
    5.5093    1.1850   17.9587 C   0  0  0  0  0  0  0  0  0  0  0  0
    6.6801    0.5914   17.6740 N   0  0  0  0  0  0  0  0  0  0  0  0
    7.3634    0.0240   18.6795 C   0  0  0  0  0  0  0  0  0  0  0  0
    8.3086   -0.4531   18.4188 H   0  0  0  0  0  0  0  0  0  0  0  0
    6.8931    0.0173   20.0127 C   0  0  0  0  0  0  0  0  0  0  0  0
    7.7004   -0.5578   21.0263 O   0  0  0  0  0  0  0  0  0  0  0  0
    6.9653   -1.1235   22.3759 S   0  0  0  0  0  0  0  0  0  0  0  0
    6.7432   -0.0479   23.3050 O   0  0  0  0  0  0  0  0  0  0  0  0
    5.9191   -2.0205   21.9685 O   0  0  0  0  0  0  0  0  0  0  0  0
    8.2280   -1.9091   23.0391 N   0  0  0  0  0  0  0  0  0  0  0  0
    8.1524   -1.5584   23.9926 H   0  0  0  0  0  0  0  0  0  0  0  0
    8.3010   -3.2954   22.9740 C   0  0  0  0  0  0  0  0  0  0  0  0
    7.9547   -3.9757   21.8067 C   0  0  0  0  0  0  0  0  0  0  0  0
    7.6504   -3.3847   20.9548 H   0  0  0  0  0  0  0  0  0  0  0  0
    7.9959   -5.3691   21.7756 C   0  0  0  0  0  0  0  0  0  0  0  0
    7.6493   -5.8941   20.8905 H   0  0  0  0  0  0  0  0  0  0  0  0
    8.4334   -6.0862   22.8997 C   0  0  0  0  0  0  0  0  0  0  0  0
    8.4531   -7.1749   22.8876 H   0  0  0  0  0  0  0  0  0  0  0  0
    8.8194   -5.3955   24.0444 C   0  0  0  0  0  0  0  0  0  0  0  0
    9.1504   -5.9471   24.9217 H   0  0  0  0  0  0  0  0  0  0  0  0
    8.7606   -3.9896   24.0967 C   0  0  0  0  0  0  0  0  0  0  0  0
    9.0964   -3.2222   25.3114 C   0  0  0  0  0  0  0  0  0  0  0  0
    8.6681   -2.1142   25.6096 O   0  0  0  0  0  0  0  0  0  0  0  0
    9.9155   -3.8353   26.2040 N   0  0  0  0  0  0  0  0  0  0  0  0
   10.6660   -4.3928   25.8385 H   0  0  0  0  0  0  0  0  0  0  0  0
   10.1267   -3.1706   26.9301 H   0  0  0  0  0  0  0  0  0  0  0  0
    5.6526    0.5970   20.2985 C   0  0  0  0  0  0  0  0  0  0  0  0
    5.2340    0.5779   21.3049 H   0  0  0  0  0  0  0  0  0  0  0  0
    4.9571    1.2012   19.2424 C   0  0  0  0  0  0  0  0  0  0  0  0
    4.0005    1.6868   19.4011 H   0  0  0  0  0  0  0  0  0  0  0  0
  1  2  1  0
  2  3  2  0
  3  4  1  0
  4  5  1  0
  4  6  2  0
  6  7  1  0
  7  8  1  0
  8  9  2  0
  8 10  2  0
  8 11  1  0
 11 12  1  0
 11 13  1  0
 13 14  2  0
 14 15  1  0
 14 16  1  0
 16 17  1  0
 16 18  2  0
 18 19  1  0
 18 20  1  0
 20 21  1  0
 20 22  2  0
 22 23  1  0
 23 24  2  0
 23 25  1  0
 25 26  1  0
 25 27  1  0
  6 28  1  0
 28 29  1  0
 28 30  2  0
 30 31  1  0
 30  2  1  0
 22 13  1  0
M  END
>  <plip>  (1) 
-0.13793103448275862

>  <filename>  (1) 
[H][c]1[n][c]([H])[c]([O][S](=[O])(=[O])[N]([H])[c]2[c]([H])[c]([H])[c]([H])[c]([H])[c]2[C](=[O])[N]([H])[H])[c]([H])[c]1[H]

$$$$
