
     RDKit          3D

 44 46  0  0  0  0  0  0  0  0999 V2000
    7.9173    0.3336   25.7755 C   0  0  0  0  0  0  0  0  0  0  0  0
    8.4365    0.0979   24.3536 C   0  0  0  0  0  0  0  0  0  0  0  0
    7.4434    0.5438   23.2761 C   0  0  0  0  0  0  0  0  0  0  0  0
    7.9647    0.2798   21.9336 N   0  0  0  0  0  0  0  0  0  0  0  0
    7.3583   -0.7068   21.0280 C   0  0  0  0  0  0  0  0  0  0  0  0
    6.6397   -0.0220   19.8927 C   0  0  0  0  0  0  0  0  0  0  0  0
    5.4084    0.6108   20.0924 C   0  0  0  0  0  0  0  0  0  0  0  0
    4.8155    1.2774   19.0209 C   0  0  0  0  0  0  0  0  0  0  0  0
    5.4809    1.2875   17.7894 C   0  0  0  0  0  0  0  0  0  0  0  0
    6.6650    0.6953   17.5804 N   0  0  0  0  0  0  0  0  0  0  0  0
    7.2336    0.0768   18.6251 C   0  0  0  0  0  0  0  0  0  0  0  0
    8.2071   -0.3813   18.4422 H   0  0  0  0  0  0  0  0  0  0  0  0
    5.0376    1.7804   16.9271 H   0  0  0  0  0  0  0  0  0  0  0  0
    3.8666    1.7897   19.1271 H   0  0  0  0  0  0  0  0  0  0  0  0
    4.9316    0.5826   21.0765 H   0  0  0  0  0  0  0  0  0  0  0  0
    6.6726   -1.3453   21.5965 H   0  0  0  0  0  0  0  0  0  0  0  0
    8.1580   -1.3437   20.6362 H   0  0  0  0  0  0  0  0  0  0  0  0
    9.0436    0.9718   21.4281 C   0  0  0  0  0  0  0  0  0  0  0  0
    9.7501    0.4435   20.5592 O   0  0  0  0  0  0  0  0  0  0  0  0
    9.4200    2.3598   21.9829 C   0  0  0  0  0  0  0  0  0  0  0  0
   10.7810    2.5191   22.2877 C   0  0  0  0  0  0  0  0  0  0  0  0
   11.6575    1.4467   22.1521 N   0  0  0  0  0  0  0  0  0  0  0  0
   12.6388    1.6818   22.1571 H   0  0  0  0  0  0  0  0  0  0  0  0
   11.4017    0.8298   21.3809 H   0  0  0  0  0  0  0  0  0  0  0  0
   11.2064    3.8010   22.8227 C   0  0  0  0  0  0  0  0  0  0  0  0
   12.5372    4.1077   23.2570 C   0  0  0  0  0  0  0  0  0  0  0  0
   12.8534    5.3672   23.7305 C   0  0  0  0  0  0  0  0  0  0  0  0
   11.8723    6.3901   23.7949 C   0  0  0  0  0  0  0  0  0  0  0  0
   10.5805    6.1256   23.3982 C   0  0  0  0  0  0  0  0  0  0  0  0
   10.2153    4.8330   22.9145 C   0  0  0  0  0  0  0  0  0  0  0  0
    8.8695    4.5393   22.5171 C   0  0  0  0  0  0  0  0  0  0  0  0
    8.4646    3.3499   22.1186 N   0  0  0  0  0  0  0  0  0  0  0  0
    8.1297    5.3338   22.5328 H   0  0  0  0  0  0  0  0  0  0  0  0
    9.8123    6.8924   23.4567 H   0  0  0  0  0  0  0  0  0  0  0  0
   12.1625    7.3733   24.1623 H   0  0  0  0  0  0  0  0  0  0  0  0
   13.8680    5.5873   24.0398 H   0  0  0  0  0  0  0  0  0  0  0  0
   13.3047    3.3393   23.2254 H   0  0  0  0  0  0  0  0  0  0  0  0
    7.2414    1.6193   23.3641 H   0  0  0  0  0  0  0  0  0  0  0  0
    6.4817    0.0217   23.3977 H   0  0  0  0  0  0  0  0  0  0  0  0
    8.6656   -0.9680   24.2089 H   0  0  0  0  0  0  0  0  0  0  0  0
    9.3789    0.6458   24.2066 H   0  0  0  0  0  0  0  0  0  0  0  0
    8.6383   -0.0272   26.5188 H   0  0  0  0  0  0  0  0  0  0  0  0
    7.7492    1.4021   25.9691 H   0  0  0  0  0  0  0  0  0  0  0  0
    6.9688   -0.1938   25.9454 H   0  0  0  0  0  0  0  0  0  0  0  0
  1  2  1  0
  2  3  1  0
  3  4  1  0
  4  5  1  0
  5  6  1  0
  6  7  2  0
  7  8  1  0
  8  9  2  0
  9 10  1  0
 10 11  2  0
 11 12  1  0
  9 13  1  0
  8 14  1  0
  7 15  1  0
  5 16  1  0
  5 17  1  0
  4 18  1  0
 18 19  2  0
 18 20  1  0
 20 21  2  0
 21 22  1  0
 22 23  1  0
 22 24  1  0
 21 25  1  0
 25 26  2  0
 26 27  1  0
 27 28  2  0
 28 29  1  0
 29 30  2  0
 30 31  1  0
 31 32  2  0
 31 33  1  0
 29 34  1  0
 28 35  1  0
 27 36  1  0
 26 37  1  0
  3 38  1  0
  3 39  1  0
  2 40  1  0
  2 41  1  0
  1 42  1  0
  1 43  1  0
  1 44  1  0
 11  6  1  0
 32 20  1  0
 30 25  1  0
M  END
>  <plip>  (1) 
-0.07142857142857142

>  <filename>  (1) 
[H][c]1[n][c]([H])[c]([C]([H])([H])[N]([C](=[O])[c]2[n][c]([H])[c]3[c]([H])[c]([H])[c]([H])[c]([H])[c]3[c]2[N]([H])[H])[C]([H])([H])[C]([H])([H])[C]([H])([H])[H])[c]([H])[c]1[H]

$$$$
