
     RDKit          3D

 48 50  0  0  0  0  0  0  0  0999 V2000
   10.1622    1.6224   21.7198 C   0  0  0  0  0  0  0  0  0  0  0  0
    9.2048    0.8407   21.0243 O   0  0  0  0  0  0  0  0  0  0  0  0
    8.2378    0.2587   21.8453 C   0  0  0  0  0  0  0  0  0  0  0  0
    7.4318    1.2511   22.4427 O   0  0  0  0  0  0  0  0  0  0  0  0
    7.5149    1.3513   23.8482 C   0  0  0  0  0  0  0  0  0  0  0  0
    7.2012    0.4222   24.3505 H   0  0  0  0  0  0  0  0  0  0  0  0
    6.8313    2.1534   24.1280 H   0  0  0  0  0  0  0  0  0  0  0  0
    8.5284    1.5950   24.1998 H   0  0  0  0  0  0  0  0  0  0  0  0
    7.4004   -0.7397   20.9873 C   0  0  0  0  0  0  0  0  0  0  0  0
    6.5705   -1.6154   21.8397 N   0  0  0  0  0  0  0  0  0  0  0  0
    5.9001   -2.6836   21.3013 C   0  0  0  0  0  0  0  0  0  0  0  0
    6.0352   -3.0277   20.1422 O   0  0  0  0  0  0  0  0  0  0  0  0
    4.9616   -3.4791   22.2312 C   0  0  0  0  0  0  0  0  0  0  0  0
    5.6816   -3.9797   23.3513 O   0  0  0  0  0  0  0  0  0  0  0  0
    5.0714   -4.6929   24.3359 C   0  0  0  0  0  0  0  0  0  0  0  0
    3.7197   -4.9787   24.3775 C   0  0  0  0  0  0  0  0  0  0  0  0
    3.1711   -5.7332   25.4471 C   0  0  0  0  0  0  0  0  0  0  0  0
    3.9694   -6.1942   26.4652 C   0  0  0  0  0  0  0  0  0  0  0  0
    3.2541   -7.1134   27.7534 Cl  0  0  0  0  0  0  0  0  0  0  0  0
    5.3704   -5.9294   26.4820 C   0  0  0  0  0  0  0  0  0  0  0  0
    6.2527   -6.3763   27.5099 C   0  0  0  0  0  0  0  0  0  0  0  0
    7.5896   -6.0610   27.4256 C   0  0  0  0  0  0  0  0  0  0  0  0
    8.0500   -5.3063   26.3161 C   0  0  0  0  0  0  0  0  0  0  0  0
    7.2698   -4.8795   25.3522 N   0  0  0  0  0  0  0  0  0  0  0  0
    5.9381   -5.1690   25.4059 C   0  0  0  0  0  0  0  0  0  0  0  0
    9.1033   -5.0447   26.2215 H   0  0  0  0  0  0  0  0  0  0  0  0
    8.3070   -6.3803   28.1714 H   0  0  0  0  0  0  0  0  0  0  0  0
    5.8485   -6.9599   28.3330 H   0  0  0  0  0  0  0  0  0  0  0  0
    2.1096   -5.9563   25.4797 H   0  0  0  0  0  0  0  0  0  0  0  0
    3.0605   -4.6327   23.5856 H   0  0  0  0  0  0  0  0  0  0  0  0
    4.1243   -2.8833   22.5934 H   0  0  0  0  0  0  0  0  0  0  0  0
    4.5709   -4.2912   21.6138 H   0  0  0  0  0  0  0  0  0  0  0  0
    6.2066   -1.2573   22.7113 H   0  0  0  0  0  0  0  0  0  0  0  0
    6.6046   -0.0494   19.8810 C   0  0  0  0  0  0  0  0  0  0  0  0
    5.4073    0.6340   20.1283 C   0  0  0  0  0  0  0  0  0  0  0  0
    4.7881    1.3123   19.0760 C   0  0  0  0  0  0  0  0  0  0  0  0
    5.3923    1.3004   17.8126 C   0  0  0  0  0  0  0  0  0  0  0  0
    6.5493    0.6716   17.5576 N   0  0  0  0  0  0  0  0  0  0  0  0
    7.1294    0.0264   18.5818 C   0  0  0  0  0  0  0  0  0  0  0  0
    8.0970   -0.4259   18.3568 H   0  0  0  0  0  0  0  0  0  0  0  0
    4.9370    1.8156   16.9664 H   0  0  0  0  0  0  0  0  0  0  0  0
    3.8653    1.8617   19.2253 H   0  0  0  0  0  0  0  0  0  0  0  0
    4.9960    0.6757   21.1383 H   0  0  0  0  0  0  0  0  0  0  0  0
    8.1379   -1.3867   20.4989 H   0  0  0  0  0  0  0  0  0  0  0  0
    8.7344   -0.3421   22.6262 H   0  0  0  0  0  0  0  0  0  0  0  0
   10.6775    1.0353   22.4971 H   0  0  0  0  0  0  0  0  0  0  0  0
    9.7167    2.5034   22.1981 H   0  0  0  0  0  0  0  0  0  0  0  0
   10.8915    1.9488   20.9775 H   0  0  0  0  0  0  0  0  0  0  0  0
  1  2  1  0
  2  3  1  0
  3  4  1  0
  4  5  1  0
  5  6  1  0
  5  7  1  0
  5  8  1  0
  3  9  1  0
  9 10  1  0
 10 11  1  0
 11 12  2  0
 11 13  1  0
 13 14  1  0
 14 15  1  0
 15 16  2  0
 16 17  1  0
 17 18  2  0
 18 19  1  0
 18 20  1  0
 20 21  2  0
 21 22  1  0
 22 23  2  0
 23 24  1  0
 24 25  2  0
 23 26  1  0
 22 27  1  0
 21 28  1  0
 17 29  1  0
 16 30  1  0
 13 31  1  0
 13 32  1  0
 10 33  1  0
  9 34  1  0
 34 35  2  0
 35 36  1  0
 36 37  2  0
 37 38  1  0
 38 39  2  0
 39 40  1  0
 37 41  1  0
 36 42  1  0
 35 43  1  0
  9 44  1  0
  3 45  1  0
  1 46  1  0
  1 47  1  0
  1 48  1  0
 25 15  1  0
 39 34  1  0
 25 20  1  0
M  END
>  <plip>  (1) 
-0.17857142857142858

>  <filename>  (1) 
[H][c]1[n][c]([H])[c]([C]([H])([N]([H])[C](=[O])[C]([H])([H])[O][c]2[c]([H])[c]([H])[c]([Cl])[c]3[c]([H])[c]([H])[c]([H])[n][c]23)[C]([H])([O][C]([H])([H])[H])[O][C]([H])([H])[H])[c]([H])[c]1[H]

$$$$
