
     RDKit          3D

 28 29  0  0  0  0  0  0  0  0999 V2000
   10.0042   -2.1205   21.6382 O   0  0  0  0  0  0  0  0  0  0  0  0
    9.3646   -2.9450   22.2977 C   0  0  0  0  0  0  0  0  0  0  0  0
    9.6789   -3.8830   23.0298 O   0  0  0  0  0  1  0  0  0  0  0  0
    7.7807   -2.9382   22.2873 C   0  0  0  0  0  0  0  0  0  0  0  0
    6.7265   -2.0676   20.8959 N   0  0  0  0  0  4  0  0  0  0  0  0
    7.2729   -0.6707   20.8817 C   0  0  0  0  0  0  0  0  0  0  0  0
    6.6028    0.1459   19.8183 C   0  0  0  0  0  0  0  0  0  0  0  0
    5.4045    0.8343   20.0422 C   0  0  0  0  0  0  0  0  0  0  0  0
    4.7686    1.4436   18.9592 C   0  0  0  0  0  0  0  0  0  0  0  0
    5.3685    1.3586   17.6990 C   0  0  0  0  0  0  0  0  0  0  0  0
    6.5218    0.7140   17.4679 N   0  0  0  0  0  0  0  0  0  0  0  0
    7.1111    0.1228   18.5137 C   0  0  0  0  0  0  0  0  0  0  0  0
    8.0444   -0.4054   18.3016 H   0  0  0  0  0  0  0  0  0  0  0  0
    4.8967    1.8162   16.8317 H   0  0  0  0  0  0  0  0  0  0  0  0
    3.8245    1.9670   19.0775 H   0  0  0  0  0  0  0  0  0  0  0  0
    4.9688    0.8813   21.0433 H   0  0  0  0  0  0  0  0  0  0  0  0
    7.1414   -0.2349   21.8819 H   0  0  0  0  0  0  0  0  0  0  0  0
    8.3599   -0.7371   20.7281 H   0  0  0  0  0  0  0  0  0  0  0  0
    5.7114   -1.9876   21.0469 H   0  0  0  0  0  0  0  0  0  0  0  0
    6.8170   -2.4292   19.9357 H   0  0  0  0  0  0  0  0  0  0  0  0
    7.4698   -2.4001   23.6425 C   0  0  0  0  0  0  0  0  0  0  0  0
    6.4743   -2.8036   24.4824 C   0  0  0  0  0  0  0  0  0  0  0  0
    6.5562   -1.9422   25.9644 S   0  0  0  0  0  0  0  0  0  0  0  0
    7.9189   -1.0772   25.3520 C   0  0  0  0  0  0  0  0  0  0  0  0
    8.2772   -1.4077   24.1569 N   0  0  0  0  0  0  0  0  0  0  0  0
    8.4254   -0.3280   25.9504 H   0  0  0  0  0  0  0  0  0  0  0  0
    5.7153   -3.5536   24.3224 H   0  0  0  0  0  0  0  0  0  0  0  0
    7.4393   -3.9569   22.1482 H   0  0  0  0  0  0  0  0  0  0  0  0
  1  2  2  0
  2  3  1  0
  2  4  1  0
  4  5  1  0
  5  6  1  0
  6  7  1  0
  7  8  2  0
  8  9  1  0
  9 10  2  0
 10 11  1  0
 11 12  2  0
 12 13  1  0
 10 14  1  0
  9 15  1  0
  8 16  1  0
  6 17  1  0
  6 18  1  0
  5 19  1  0
  5 20  1  0
  4 21  1  0
 21 22  2  0
 22 23  1  0
 23 24  1  0
 24 25  2  0
 24 26  1  0
 22 27  1  0
  4 28  1  0
 12  7  1  0
 25 21  1  0
M  CHG  2   3  -1   5   1
M  END
>  <plip>  (1) 
-0.07142857142857142

>  <filename>  (1) 
[H][c]1[n][c]([C]([H])([C](=[O])[O-])[N+]([H])([H])[C]([H])([H])[c]2[c]([H])[n][c]([H])[c]([H])[c]2[H])[c]([H])[s]1

$$$$
