
     RDKit          3D

 39 41  0  0  0  0  0  0  0  0999 V2000
    9.7073    0.8635   20.4276 O   0  0  0  0  0  0  0  0  0  0  0  0
    9.1823    1.1180   21.5074 C   0  0  0  0  0  0  0  0  0  0  0  0
    8.0683    0.4783   21.9418 N   0  0  0  0  0  0  0  0  0  0  0  0
    7.2982   -0.5002   21.2070 C   0  0  2  0  0  0  0  0  0  0  0  0
    8.1162   -1.7367   20.8205 C   0  0  0  0  0  0  0  0  0  0  0  0
    8.6703   -2.5623   21.9688 C   0  0  0  0  0  0  0  0  0  0  0  0
    9.5370   -1.8267   22.8053 O   0  0  0  0  0  0  0  0  0  0  0  0
   10.2784   -1.5209   22.2630 H   0  0  0  0  0  0  0  0  0  0  0  0
    9.1837   -3.4388   21.5501 H   0  0  0  0  0  0  0  0  0  0  0  0
    7.8588   -2.9340   22.6085 H   0  0  0  0  0  0  0  0  0  0  0  0
    8.9522   -1.4078   20.1990 H   0  0  0  0  0  0  0  0  0  0  0  0
    7.4590   -2.3699   20.2200 H   0  0  0  0  0  0  0  0  0  0  0  0
    6.6056    0.1410   20.0126 C   0  0  0  0  0  0  0  0  0  0  0  0
    5.3609    0.7703   20.1625 C   0  0  0  0  0  0  0  0  0  0  0  0
    4.7605    1.3503   19.0437 C   0  0  0  0  0  0  0  0  0  0  0  0
    5.4260    1.2895   17.8151 C   0  0  0  0  0  0  0  0  0  0  0  0
    6.6120    0.6919   17.6468 N   0  0  0  0  0  0  0  0  0  0  0  0
    7.1789    0.1457   18.7332 C   0  0  0  0  0  0  0  0  0  0  0  0
    8.1367   -0.3448   18.5572 H   0  0  0  0  0  0  0  0  0  0  0  0
    4.9853    1.7339   16.9254 H   0  0  0  0  0  0  0  0  0  0  0  0
    3.8027    1.8537   19.1114 H   0  0  0  0  0  0  0  0  0  0  0  0
    4.8739    0.8033   21.1401 H   0  0  0  0  0  0  0  0  0  0  0  0
    6.5135   -0.8174   21.9073 H   0  0  0  0  0  0  0  0  0  0  0  0
    7.9750    0.4966   22.9390 H   0  0  0  0  0  0  0  0  0  0  0  0
    9.6754    2.1368   22.4506 C   0  0  0  0  0  0  0  0  0  0  0  0
   10.8318    2.8991   22.2239 C   0  0  0  0  0  0  0  0  0  0  0  0
   11.7333    3.0246   21.1312 C   0  0  0  0  0  0  0  0  0  0  0  0
   12.7396    3.9660   21.1858 C   0  0  0  0  0  0  0  0  0  0  0  0
   12.9052    4.7715   22.3604 C   0  0  0  0  0  0  0  0  0  0  0  0
   12.0356    4.6435   23.4086 C   0  0  0  0  0  0  0  0  0  0  0  0
   10.9801    3.7519   23.3157 N   0  0  0  0  0  0  0  0  0  0  0  0
    9.9132    3.5802   24.1711 C   0  0  0  0  0  0  0  0  0  0  0  0
    9.0969    2.6100   23.6661 C   0  0  0  0  0  0  0  0  0  0  0  0
    8.1376    2.3406   24.0946 H   0  0  0  0  0  0  0  0  0  0  0  0
    9.8165    4.2048   25.0445 H   0  0  0  0  0  0  0  0  0  0  0  0
   12.1121    5.1938   24.3407 H   0  0  0  0  0  0  0  0  0  0  0  0
   13.7080    5.4999   22.4021 H   0  0  0  0  0  0  0  0  0  0  0  0
   13.4083    4.0998   20.3367 H   0  0  0  0  0  0  0  0  0  0  0  0
   11.5441    2.3957   20.2757 H   0  0  0  0  0  0  0  0  0  0  0  0
  1  2  2  0
  2  3  1  0
  3  4  1  0
  4  5  1  0
  5  6  1  0
  6  7  1  0
  7  8  1  0
  6  9  1  0
  6 10  1  0
  5 11  1  0
  5 12  1  0
  4 13  1  0
 13 14  2  0
 14 15  1  0
 15 16  2  0
 16 17  1  0
 17 18  2  0
 18 19  1  0
 16 20  1  0
 15 21  1  0
 14 22  1  0
  4 23  1  1
  3 24  1  0
  2 25  1  0
 25 26  2  0
 26 27  1  0
 27 28  2  0
 28 29  1  0
 29 30  2  0
 30 31  1  0
 31 32  1  0
 32 33  2  0
 33 34  1  0
 32 35  1  0
 30 36  1  0
 29 37  1  0
 28 38  1  0
 27 39  1  0
 18 13  1  0
 33 25  1  0
 31 26  1  0
M  END
>  <plip>  (1) 
-0.10344827586206896

>  <filename>  (1) 
[H][O][C]([H])([H])[C]([H])([H])[C@]([H])([c]1[c]([H])[n][c]([H])[c]([H])[c]1[H])[N]([H])[C](=[O])[c]1[c]([H])[c]([H])[n]2[c]([H])[c]([H])[c]([H])[c]([H])[c]12

$$$$
