
     RDKit          3D

 35 37  0  0  0  0  0  0  0  0999 V2000
    8.8669    4.6883   22.4094 C   0  0  0  0  0  0  0  0  0  0  0  0
    8.3548    3.3441   22.8107 C   0  0  0  0  0  0  0  0  0  0  0  0
    7.9749    3.1613   24.0589 N   0  0  0  0  0  0  0  0  0  0  0  0
    7.5255    1.8630   24.1161 N   0  0  0  0  0  0  0  0  0  0  0  0
    7.0761    1.2918   25.3389 C   0  0  0  0  0  0  0  0  0  0  0  0
    7.4938    0.0202   25.7692 C   0  0  0  0  0  0  0  0  0  0  0  0
    7.0784   -0.4242   27.0263 C   0  0  0  0  0  0  0  0  0  0  0  0
    6.2805    0.4181   27.8019 C   0  0  0  0  0  0  0  0  0  0  0  0
    5.9227    1.6595   27.2807 C   0  0  0  0  0  0  0  0  0  0  0  0
    6.2959    2.0856   26.0797 N   0  0  0  0  0  0  0  0  0  0  0  0
    5.3404    2.3739   27.8572 H   0  0  0  0  0  0  0  0  0  0  0  0
    5.9541    0.1448   28.7940 H   0  0  0  0  0  0  0  0  0  0  0  0
    7.3885   -1.3982   27.4005 H   0  0  0  0  0  0  0  0  0  0  0  0
    8.1484   -0.5761   25.1467 H   0  0  0  0  0  0  0  0  0  0  0  0
    7.6469    1.2672   22.8936 C   0  0  0  0  0  0  0  0  0  0  0  0
    7.2068   -0.0026   22.6124 N   0  0  0  0  0  0  0  0  0  0  0  0
    7.5261   -0.8001   21.2267 S   0  0  0  0  0  0  0  0  0  0  0  0
    6.9389   -2.0890   21.5316 O   0  0  0  0  0  0  0  0  0  0  0  0
    8.9158   -0.6531   20.8589 O   0  0  0  0  0  0  0  0  0  0  0  0
    6.5843    0.0684   20.0559 C   0  0  0  0  0  0  0  0  0  0  0  0
    5.3728    0.7334   20.2601 C   0  0  0  0  0  0  0  0  0  0  0  0
    4.8080    1.3278   19.1314 C   0  0  0  0  0  0  0  0  0  0  0  0
    5.4719    1.2514   17.9035 C   0  0  0  0  0  0  0  0  0  0  0  0
    6.6442    0.6215   17.7415 N   0  0  0  0  0  0  0  0  0  0  0  0
    7.1865    0.0448   18.8081 C   0  0  0  0  0  0  0  0  0  0  0  0
    8.1362   -0.4616   18.6604 H   0  0  0  0  0  0  0  0  0  0  0  0
    5.0516    1.7167   17.0117 H   0  0  0  0  0  0  0  0  0  0  0  0
    3.8619    1.8510   19.1841 H   0  0  0  0  0  0  0  0  0  0  0  0
    4.8746    0.8091   21.2300 H   0  0  0  0  0  0  0  0  0  0  0  0
    6.6548   -0.6533   23.1457 H   0  0  0  0  0  0  0  0  0  0  0  0
    8.1979    2.1782   22.0344 C   0  0  0  0  0  0  0  0  0  0  0  0
    8.4683    2.0101   21.0073 H   0  0  0  0  0  0  0  0  0  0  0  0
    8.5438    5.4126   23.1565 H   0  0  0  0  0  0  0  0  0  0  0  0
    8.4717    4.9992   21.4351 H   0  0  0  0  0  0  0  0  0  0  0  0
    9.9643    4.6853   22.3908 H   0  0  0  0  0  0  0  0  0  0  0  0
  1  2  1  0
  2  3  2  0
  3  4  1  0
  4  5  1  0
  5  6  2  0
  6  7  1  0
  7  8  2  0
  8  9  1  0
  9 10  2  0
  9 11  1  0
  8 12  1  0
  7 13  1  0
  6 14  1  0
  4 15  1  0
 15 16  1  0
 16 17  1  0
 17 18  2  0
 17 19  2  0
 17 20  1  0
 20 21  2  0
 21 22  1  0
 22 23  2  0
 23 24  1  0
 24 25  2  0
 25 26  1  0
 23 27  1  0
 22 28  1  0
 21 29  1  0
 16 30  1  0
 15 31  2  0
 31 32  1  0
  1 33  1  0
  1 34  1  0
  1 35  1  0
 31  2  1  0
 10  5  1  0
 25 20  1  0
M  END
>  <plip>  (1) 
-0.07142857142857142

>  <filename>  (1) 
[H][c]1[n][c](-[n]2[n][c]([C]([H])([H])[H])[c]([H])[c]2[N]([H])[S](=[O])(=[O])[c]2[c]([H])[n][c]([H])[c]([H])[c]2[H])[c]([H])[c]([H])[c]1[H]

$$$$
