
     RDKit          3D

 34 35  0  0  0  0  0  0  0  0999 V2000
    8.3464   -1.1885   20.6767 H   0  0  0  0  0  0  0  0  0  0  0  0
    7.4034   -0.7214   20.9765 C   0  0  0  0  0  0  0  0  0  0  0  0
    6.9458   -0.7801   22.1805 N   0  0  0  0  0  0  0  0  0  0  0  0
    7.5874   -1.3687   23.2103 N   0  0  0  0  0  0  0  0  0  0  0  0
    6.9245   -1.2710   24.5032 C   0  0  0  0  0  0  0  0  0  0  0  0
    6.1821   -0.4705   24.4349 H   0  0  0  0  0  0  0  0  0  0  0  0
    7.6639   -0.9604   25.2458 H   0  0  0  0  0  0  0  0  0  0  0  0
    6.2619   -2.5629   24.9901 C   0  0  0  0  0  0  0  0  0  0  0  0
    5.4719   -2.2934   25.7009 H   0  0  0  0  0  0  0  0  0  0  0  0
    5.7584   -3.0334   24.1280 H   0  0  0  0  0  0  0  0  0  0  0  0
    7.1894   -3.4900   25.6546 N   0  0  0  0  0  0  0  0  0  0  0  0
    6.4631   -4.5315   26.3653 C   0  0  0  0  0  0  0  0  0  0  0  0
    5.7905   -4.0835   27.1054 H   0  0  0  0  0  0  0  0  0  0  0  0
    5.8575   -5.1733   25.6941 H   0  0  0  0  0  0  0  0  0  0  0  0
    7.1624   -5.1741   26.9127 H   0  0  0  0  0  0  0  0  0  0  0  0
    8.1617   -4.0685   24.7249 C   0  0  0  0  0  0  0  0  0  0  0  0
    7.6545   -4.5427   23.8593 H   0  0  0  0  0  0  0  0  0  0  0  0
    8.6864   -4.8843   25.2396 H   0  0  0  0  0  0  0  0  0  0  0  0
    9.1859   -3.0539   24.2237 C   0  0  0  0  0  0  0  0  0  0  0  0
    9.4732   -2.3949   25.0453 H   0  0  0  0  0  0  0  0  0  0  0  0
   10.0954   -3.5886   23.9331 H   0  0  0  0  0  0  0  0  0  0  0  0
    8.7431   -2.2364   23.0111 C   0  0  0  0  0  0  0  0  0  0  0  0
    9.5746   -1.6092   22.6594 H   0  0  0  0  0  0  0  0  0  0  0  0
    8.5289   -2.9343   22.1861 H   0  0  0  0  0  0  0  0  0  0  0  0
    6.6586    0.0008   19.9278 C   0  0  0  0  0  0  0  0  0  0  0  0
    7.1718    0.0552   18.6234 C   0  0  0  0  0  0  0  0  0  0  0  0
    8.1192   -0.4254   18.3745 H   0  0  0  0  0  0  0  0  0  0  0  0
    6.5749    0.6661   17.5971 N   0  0  0  0  0  0  0  0  0  0  0  0
    5.4082    1.2858   17.8470 C   0  0  0  0  0  0  0  0  0  0  0  0
    4.9260    1.7753   17.0002 H   0  0  0  0  0  0  0  0  0  0  0  0
    4.8107    1.3058   19.1104 C   0  0  0  0  0  0  0  0  0  0  0  0
    3.8772    1.8412   19.2562 H   0  0  0  0  0  0  0  0  0  0  0  0
    5.4338    0.6514   20.1730 C   0  0  0  0  0  0  0  0  0  0  0  0
    5.0069    0.6305   21.1750 H   0  0  0  0  0  0  0  0  0  0  0  0
  1  2  1  0
  2  3  2  3
  3  4  1  0
  4  5  1  0
  5  6  1  0
  5  7  1  0
  5  8  1  0
  8  9  1  0
  8 10  1  0
  8 11  1  0
 11 12  1  0
 12 13  1  0
 12 14  1  0
 12 15  1  0
 11 16  1  0
 16 17  1  0
 16 18  1  0
 16 19  1  0
 19 20  1  0
 19 21  1  0
 19 22  1  0
 22 23  1  0
 22 24  1  0
  2 25  1  0
 25 26  2  0
 26 27  1  0
 26 28  1  0
 28 29  2  0
 29 30  1  0
 29 31  1  0
 31 32  1  0
 31 33  2  0
 33 34  1  0
 22  4  1  0
 33 25  1  0
M  END
>  <plip>  (1) 
-0.03571428571428571

>  <filename>  (1) 
[H][C](=[N][N]1[C]([H])([H])[C]([H])([H])[N]([C]([H])([H])[H])[C]([H])([H])[C]([H])([H])[C]1([H])[H])[c]1[c]([H])[n][c]([H])[c]([H])[c]1[H]

$$$$
