
     RDKit          3D

 40 41  0  0  0  0  0  0  0  0999 V2000
    4.9212    1.8189   16.9522 H   0  0  0  0  0  0  0  0  0  0  0  0
    5.3757    1.3072   17.7993 C   0  0  0  0  0  0  0  0  0  0  0  0
    6.5325    0.6769   17.5524 N   0  0  0  0  0  0  0  0  0  0  0  0
    7.1415    0.0827   18.5903 C   0  0  0  0  0  0  0  0  0  0  0  0
    8.0801   -0.4104   18.3371 H   0  0  0  0  0  0  0  0  0  0  0  0
    6.6506    0.0592   19.9200 C   0  0  0  0  0  0  0  0  0  0  0  0
    7.4264   -0.5693   21.1058 C   0  0  2  0  0  0  0  0  0  0  0  0
    8.2316    0.4880   21.8744 C   0  0  0  0  0  0  0  0  0  0  0  0
    7.5184    1.2164   22.3066 H   0  0  0  0  0  0  0  0  0  0  0  0
    8.7402    0.0175   22.7315 H   0  0  0  0  0  0  0  0  0  0  0  0
    9.2273    1.0969   20.9951 N   0  0  0  0  0  0  0  0  0  0  0  0
    8.7404    1.7462   20.3778 H   0  0  0  0  0  0  0  0  0  0  0  0
   10.2968    1.7905   21.6890 C   0  0  0  0  0  0  0  0  0  0  0  0
   11.0467    2.0825   20.9394 H   0  0  0  0  0  0  0  0  0  0  0  0
   10.8024    1.0657   22.3515 H   0  0  0  0  0  0  0  0  0  0  0  0
    9.8173    2.9952   22.4995 C   0  0  0  0  0  0  0  0  0  0  0  0
    9.1043    2.6446   23.2608 H   0  0  0  0  0  0  0  0  0  0  0  0
    9.2285    3.6540   21.8407 H   0  0  0  0  0  0  0  0  0  0  0  0
   10.9547    3.7658   23.1696 C   0  0  0  0  0  0  0  0  0  0  0  0
   11.4958    3.0814   23.8406 H   0  0  0  0  0  0  0  0  0  0  0  0
   11.6830    4.0675   22.4014 H   0  0  0  0  0  0  0  0  0  0  0  0
   10.4634    4.9891   23.9439 C   0  0  0  0  0  0  0  0  0  0  0  0
   11.2857    5.5265   24.4282 H   0  0  0  0  0  0  0  0  0  0  0  0
    9.9519    5.6942   23.2771 H   0  0  0  0  0  0  0  0  0  0  0  0
    9.7489    4.7021   24.7254 H   0  0  0  0  0  0  0  0  0  0  0  0
    8.3216   -1.7342   20.6521 C   0  0  0  0  0  0  0  0  0  0  0  0
    7.6741   -2.2172   19.9239 H   0  0  0  0  0  0  0  0  0  0  0  0
    9.2574   -1.4287   20.1702 H   0  0  0  0  0  0  0  0  0  0  0  0
    8.5284   -2.6587   21.7651 N   0  0  0  0  0  0  0  0  0  0  0  0
    9.3791   -2.4340   22.2669 H   0  0  0  0  0  0  0  0  0  0  0  0
    7.3573   -2.5358   22.6455 C   0  0  0  0  0  0  0  0  0  0  0  0
    7.6589   -2.3652   23.6883 H   0  0  0  0  0  0  0  0  0  0  0  0
    6.7965   -3.4787   22.6461 H   0  0  0  0  0  0  0  0  0  0  0  0
    6.5114   -1.3695   22.0754 C   0  0  0  0  0  0  0  0  0  0  0  0
    5.6872   -1.7849   21.4802 H   0  0  0  0  0  0  0  0  0  0  0  0
    6.1047   -0.7326   22.8654 H   0  0  0  0  0  0  0  0  0  0  0  0
    5.4216    0.7016   20.1311 C   0  0  0  0  0  0  0  0  0  0  0  0
    4.9620    0.6863   21.1202 H   0  0  0  0  0  0  0  0  0  0  0  0
    4.7777    1.3367   19.0624 C   0  0  0  0  0  0  0  0  0  0  0  0
    3.8391    1.8600   19.2047 H   0  0  0  0  0  0  0  0  0  0  0  0
  1  2  1  0
  2  3  2  0
  3  4  1  0
  4  5  1  0
  4  6  2  0
  6  7  1  0
  7  8  1  1
  8  9  1  0
  8 10  1  0
  8 11  1  0
 11 12  1  0
 11 13  1  0
 13 14  1  0
 13 15  1  0
 13 16  1  0
 16 17  1  0
 16 18  1  0
 16 19  1  0
 19 20  1  0
 19 21  1  0
 19 22  1  0
 22 23  1  0
 22 24  1  0
 22 25  1  0
  7 26  1  0
 26 27  1  0
 26 28  1  0
 26 29  1  0
 29 30  1  0
 29 31  1  0
 31 32  1  0
 31 33  1  0
 31 34  1  0
 34 35  1  0
 34 36  1  0
  6 37  1  0
 37 38  1  0
 37 39  2  0
 39 40  1  0
 39  2  1  0
 34  7  1  0
M  END
>  <plip>  (1) 
-0.13793103448275862

>  <filename>  (1) 
[H][c]1[n][c]([H])[c]([C@]2([C]([H])([H])[N]([H])[C]([H])([H])[C]([H])([H])[C]([H])([H])[C]([H])([H])[H])[C]([H])([H])[N]([H])[C]([H])([H])[C]2([H])[H])[c]([H])[c]1[H]

$$$$
