
     RDKit          3D

 30 31  0  0  0  0  0  0  0  0999 V2000
    7.6097    0.3099   24.5117 H   0  0  0  0  0  0  0  0  0  0  0  0
    7.5947   -0.1236   23.5092 C   0  0  0  0  0  0  0  0  0  0  0  0
    8.2365   -1.2825   23.3658 N   0  0  0  0  0  0  0  0  0  0  0  0
    8.1962   -1.8524   22.1545 C   0  0  0  0  0  0  0  0  0  0  0  0
    8.8585   -3.2285   21.9547 C   0  0  0  0  0  0  0  0  0  0  0  0
    9.2943   -3.1868   20.9514 H   0  0  0  0  0  0  0  0  0  0  0  0
    9.6928   -3.2990   22.6597 H   0  0  0  0  0  0  0  0  0  0  0  0
    8.1033   -4.5071   22.0487 N   0  0  0  0  0  0  0  0  0  0  0  0
    7.8484   -4.6817   23.0232 H   0  0  0  0  0  0  0  0  0  0  0  0
    6.9050   -4.6227   21.2134 C   0  0  0  0  0  0  0  0  0  0  0  0
    6.1229   -3.8716   21.4367 H   0  0  0  0  0  0  0  0  0  0  0  0
    7.1977   -4.4559   20.1686 H   0  0  0  0  0  0  0  0  0  0  0  0
    6.3195   -6.0131   21.4028 C   0  0  0  0  0  0  0  0  0  0  0  0
    7.0743   -6.7892   21.2322 H   0  0  0  0  0  0  0  0  0  0  0  0
    5.4719   -6.1893   20.7326 H   0  0  0  0  0  0  0  0  0  0  0  0
    5.9513   -6.1225   22.4313 H   0  0  0  0  0  0  0  0  0  0  0  0
    7.6652   -1.2973   21.0597 N   0  0  0  0  0  0  0  0  0  0  0  0
    6.9978   -0.1589   21.2289 C   0  0  0  0  0  0  0  0  0  0  0  0
    6.3446    0.3883   20.0305 C   0  0  0  0  0  0  0  0  0  0  0  0
    7.0102    0.2660   18.8029 C   0  0  0  0  0  0  0  0  0  0  0  0
    7.9732   -0.2396   18.7501 H   0  0  0  0  0  0  0  0  0  0  0  0
    6.5379    0.7579   17.6536 N   0  0  0  0  0  0  0  0  0  0  0  0
    5.3482    1.3754   17.6928 C   0  0  0  0  0  0  0  0  0  0  0  0
    4.9797    1.7624   16.7459 H   0  0  0  0  0  0  0  0  0  0  0  0
    4.5913    1.5285   18.8597 C   0  0  0  0  0  0  0  0  0  0  0  0
    3.6384    2.0433   18.8216 H   0  0  0  0  0  0  0  0  0  0  0  0
    5.1067    1.0468   20.0602 C   0  0  0  0  0  0  0  0  0  0  0  0
    4.5615    1.1876   20.9971 H   0  0  0  0  0  0  0  0  0  0  0  0
    6.9478    0.4927   22.4540 C   0  0  0  0  0  0  0  0  0  0  0  0
    6.4680    1.4546   22.5461 H   0  0  0  0  0  0  0  0  0  0  0  0
  1  2  1  0
  2  3  2  0
  3  4  1  0
  4  5  1  0
  5  6  1  0
  5  7  1  0
  5  8  1  0
  8  9  1  0
  8 10  1  0
 10 11  1  0
 10 12  1  0
 10 13  1  0
 13 14  1  0
 13 15  1  0
 13 16  1  0
  4 17  2  0
 17 18  1  0
 18 19  1  0
 19 20  2  0
 20 21  1  0
 20 22  1  0
 22 23  2  0
 23 24  1  0
 23 25  1  0
 25 26  1  0
 25 27  2  0
 27 28  1  0
 18 29  2  0
 29 30  1  0
 29  2  1  0
 27 19  1  0
M  END
>  <plip>  (1) 
-0.0

>  <filename>  (1) 
[H][c]1[n][c]([C]([H])([H])[N]([H])[C]([H])([H])[C]([H])([H])[H])[n][c](-[c]2[c]([H])[n][c]([H])[c]([H])[c]2[H])[c]1[H]

$$$$
