
     RDKit          3D

 37 38  0  0  0  0  0  0  0  0999 V2000
    5.2508   -3.1176   24.1253 C   0  0  0  0  0  0  0  0  0  0  0  0
    6.6413   -2.5402   24.2836 C   0  0  0  0  0  0  0  0  0  0  0  0
    7.3087   -2.6516   25.4515 C   0  0  0  0  0  0  0  0  0  0  0  0
    6.7343   -3.1689   26.7148 C   0  0  0  0  0  0  0  0  0  0  0  0
    5.5579   -2.6120   27.2470 C   0  0  0  0  0  0  0  0  0  0  0  0
    4.9928   -3.1030   28.4266 C   0  0  0  0  0  0  0  0  0  0  0  0
    5.5963   -4.1796   29.0891 C   0  0  0  0  0  0  0  0  0  0  0  0
    6.7639   -4.7506   28.5673 C   0  0  0  0  0  0  0  0  0  0  0  0
    7.3397   -4.2465   27.3915 C   0  0  0  0  0  0  0  0  0  0  0  0
    8.6020   -4.8532   26.8208 C   0  0  0  0  0  0  0  0  0  0  0  0
    9.6449   -3.9942   26.8814 F   0  0  0  0  0  0  0  0  0  0  0  0
    8.9622   -5.9599   27.4799 F   0  0  0  0  0  0  0  0  0  0  0  0
    8.4746   -5.1889   25.5220 F   0  0  0  0  0  0  0  0  0  0  0  0
    7.2549   -5.5629   29.0975 H   0  0  0  0  0  0  0  0  0  0  0  0
    5.1921   -4.5341   30.0355 H   0  0  0  0  0  0  0  0  0  0  0  0
    4.0956   -2.6351   28.8307 H   0  0  0  0  0  0  0  0  0  0  0  0
    5.1051   -1.7873   26.7024 H   0  0  0  0  0  0  0  0  0  0  0  0
    8.3617   -2.3712   25.5010 H   0  0  0  0  0  0  0  0  0  0  0  0
    7.3107   -1.8584   23.1574 C   0  0  0  0  0  0  0  0  0  0  0  0
    6.7358   -1.3761   22.0356 C   0  0  0  0  0  0  0  0  0  0  0  0
    7.4722   -0.7124   20.9327 C   0  0  0  0  0  0  0  0  0  0  0  0
    8.6852   -0.7596   20.8201 O   0  0  0  0  0  0  0  0  0  0  0  0
    6.6411    0.0000   19.9107 C   0  0  0  0  0  0  0  0  0  0  0  0
    5.4186    0.6461   20.1598 C   0  0  0  0  0  0  0  0  0  0  0  0
    4.7963    1.3063   19.1017 C   0  0  0  0  0  0  0  0  0  0  0  0
    5.4011    1.2843   17.8414 C   0  0  0  0  0  0  0  0  0  0  0  0
    6.5622    0.6620   17.5919 N   0  0  0  0  0  0  0  0  0  0  0  0
    7.1669    0.0545   18.6143 C   0  0  0  0  0  0  0  0  0  0  0  0
    8.1262   -0.4129   18.3990 H   0  0  0  0  0  0  0  0  0  0  0  0
    4.9453    1.7885   16.9902 H   0  0  0  0  0  0  0  0  0  0  0  0
    3.8683    1.8486   19.2351 H   0  0  0  0  0  0  0  0  0  0  0  0
    4.9715    0.6765   21.1569 H   0  0  0  0  0  0  0  0  0  0  0  0
    5.6707   -1.4361   21.8479 H   0  0  0  0  0  0  0  0  0  0  0  0
    8.3907   -1.7226   23.2774 H   0  0  0  0  0  0  0  0  0  0  0  0
    5.0483   -3.3898   23.0889 H   0  0  0  0  0  0  0  0  0  0  0  0
    4.4878   -2.4070   24.4581 H   0  0  0  0  0  0  0  0  0  0  0  0
    5.1224   -3.9982   24.7653 H   0  0  0  0  0  0  0  0  0  0  0  0
  1  2  1  0
  2  3  2  3
  3  4  1  0
  4  5  2  0
  5  6  1  0
  6  7  2  0
  7  8  1  0
  8  9  2  0
  9 10  1  0
 10 11  1  0
 10 12  1  0
 10 13  1  0
  8 14  1  0
  7 15  1  0
  6 16  1  0
  5 17  1  0
  3 18  1  0
  2 19  1  0
 19 20  2  3
 20 21  1  0
 21 22  2  0
 21 23  1  0
 23 24  2  0
 24 25  1  0
 25 26  2  0
 26 27  1  0
 27 28  2  0
 28 29  1  0
 26 30  1  0
 25 31  1  0
 24 32  1  0
 20 33  1  0
 19 34  1  0
  1 35  1  0
  1 36  1  0
  1 37  1  0
  9  4  1  0
 28 23  1  0
M  END
>  <plip>  (1) 
-0.0

>  <filename>  (1) 
[H][C]([C](=[O])[c]1[c]([H])[n][c]([H])[c]([H])[c]1[H])=[C]([H])[C](=[C]([H])[c]1[c]([H])[c]([H])[c]([H])[c]([H])[c]1[C]([F])([F])[F])[C]([H])([H])[H]

$$$$
