
     RDKit          3D

 31 33  0  0  0  0  0  0  0  0999 V2000
    4.9397    1.7972   16.9884 H   0  0  0  0  0  0  0  0  0  0  0  0
    5.3994    1.2705   17.8199 C   0  0  0  0  0  0  0  0  0  0  0  0
    6.5562    0.6358   17.5576 N   0  0  0  0  0  0  0  0  0  0  0  0
    7.1756    0.0390   18.5853 C   0  0  0  0  0  0  0  0  0  0  0  0
    8.1304   -0.4475   18.3736 H   0  0  0  0  0  0  0  0  0  0  0  0
    6.6885    0.0287   19.9094 C   0  0  0  0  0  0  0  0  0  0  0  0
    7.5285   -0.4921   20.9382 N   0  0  0  0  0  0  0  0  0  0  0  0
    7.7156   -1.4913   20.8589 H   0  0  0  0  0  0  0  0  0  0  0  0
    7.0422   -0.2937   22.2490 O   0  0  0  0  0  0  0  0  0  0  0  0
    7.2436    0.9696   22.7866 C   0  0  0  0  0  0  0  0  0  0  0  0
    7.6599    1.9208   22.1834 O   0  0  0  0  0  0  0  0  0  0  0  0
    6.8194    1.0095   24.2019 C   0  0  0  0  0  0  0  0  0  0  0  0
    6.8388    2.3112   24.7849 C   0  0  0  0  0  0  0  0  0  0  0  0
    7.1551    3.1452   24.1652 H   0  0  0  0  0  0  0  0  0  0  0  0
    6.4963    2.5707   26.0202 N   0  0  0  0  0  0  0  0  0  0  0  0
    6.1005    1.5050   26.7909 C   0  0  0  0  0  0  0  0  0  0  0  0
    5.7285    1.7662   28.1354 C   0  0  0  0  0  0  0  0  0  0  0  0
    5.7931    2.8023   28.4423 H   0  0  0  0  0  0  0  0  0  0  0  0
    5.3243    0.7453   28.9668 C   0  0  0  0  0  0  0  0  0  0  0  0
    5.0461    0.9497   30.0003 H   0  0  0  0  0  0  0  0  0  0  0  0
    5.2688   -0.5958   28.4804 C   0  0  0  0  0  0  0  0  0  0  0  0
    4.9498   -1.3863   29.1549 H   0  0  0  0  0  0  0  0  0  0  0  0
    5.6160   -0.8916   27.1821 C   0  0  0  0  0  0  0  0  0  0  0  0
    5.5711   -1.9163   26.8053 H   0  0  0  0  0  0  0  0  0  0  0  0
    6.0443    0.1550   26.3061 C   0  0  0  0  0  0  0  0  0  0  0  0
    6.4192   -0.0720   24.9571 C   0  0  0  0  0  0  0  0  0  0  0  0
    6.3765   -1.0820   24.5515 H   0  0  0  0  0  0  0  0  0  0  0  0
    5.4397    0.6297   20.1401 C   0  0  0  0  0  0  0  0  0  0  0  0
    4.9958    0.6025   21.1327 H   0  0  0  0  0  0  0  0  0  0  0  0
    4.7975    1.2789   19.0814 C   0  0  0  0  0  0  0  0  0  0  0  0
    3.8687    1.8200   19.2413 H   0  0  0  0  0  0  0  0  0  0  0  0
  1  2  1  0
  2  3  2  0
  3  4  1  0
  4  5  1  0
  4  6  2  0
  6  7  1  0
  7  8  1  0
  7  9  1  0
  9 10  1  0
 10 11  2  0
 10 12  1  0
 12 13  2  0
 13 14  1  0
 13 15  1  0
 15 16  2  0
 16 17  1  0
 17 18  1  0
 17 19  2  0
 19 20  1  0
 19 21  1  0
 21 22  1  0
 21 23  2  0
 23 24  1  0
 23 25  1  0
 25 26  2  0
 26 27  1  0
  6 28  1  0
 28 29  1  0
 28 30  2  0
 30 31  1  0
 30  2  1  0
 26 12  1  0
 25 16  1  0
M  END
>  <plip>  (1) 
-0.0

>  <filename>  (1) 
[H][c]1[n][c]([H])[c]([N]([H])[O][C](=[O])[c]2[c]([H])[n][c]3[c]([H])[c]([H])[c]([H])[c]([H])[c]3[c]2[H])[c]([H])[c]1[H]

$$$$
