
     RDKit          3D

 34 35  0  0  0  0  0  0  0  0999 V2000
    5.8287   -2.2718   21.5075 O   0  0  0  0  0  0  0  0  0  0  0  0
    6.8093   -1.6131   21.7835 C   0  0  0  0  0  0  0  0  0  0  0  0
    7.5463   -1.7405   23.1424 C   0  0  0  0  0  0  0  0  0  0  0  0
    7.1123   -0.8357   24.1859 O   0  0  0  0  0  0  0  0  0  0  0  0
    7.6119    0.4204   24.2504 C   0  0  0  0  0  0  0  0  0  0  0  0
    8.3407    0.9049   23.4058 O   0  0  0  0  0  0  0  0  0  0  0  0
    7.1189    1.0737   25.4957 C   0  0  0  0  0  0  0  0  0  0  0  0
    7.2830    2.3748   25.7793 C   0  0  0  0  0  0  0  0  0  0  0  0
    6.8444    3.1378   26.9782 C   0  0  0  0  0  0  0  0  0  0  0  0
    6.3891    2.5656   28.1850 C   0  0  0  0  0  0  0  0  0  0  0  0
    5.9806    3.4116   29.2205 C   0  0  0  0  0  0  0  0  0  0  0  0
    6.0367    4.7927   29.0188 C   0  0  0  0  0  0  0  0  0  0  0  0
    6.5160    5.2687   27.7942 C   0  0  0  0  0  0  0  0  0  0  0  0
    6.9183    4.4745   26.8030 N   0  0  0  0  0  0  0  0  0  0  0  0
    6.5789    6.3397   27.6021 H   0  0  0  0  0  0  0  0  0  0  0  0
    5.7247    5.4922   29.7843 H   0  0  0  0  0  0  0  0  0  0  0  0
    5.6218    3.0013   30.1657 H   0  0  0  0  0  0  0  0  0  0  0  0
    6.3642    1.4877   28.3135 H   0  0  0  0  0  0  0  0  0  0  0  0
    7.7625    3.0325   25.0494 H   0  0  0  0  0  0  0  0  0  0  0  0
    6.5891    0.3837   26.1492 H   0  0  0  0  0  0  0  0  0  0  0  0
    8.6253   -1.6498   22.9884 H   0  0  0  0  0  0  0  0  0  0  0  0
    7.3220   -2.7211   23.5468 H   0  0  0  0  0  0  0  0  0  0  0  0
    7.4159   -0.7257   20.9097 N   0  0  0  0  0  0  0  0  0  0  0  0
    6.7128   -0.0488   19.8534 C   0  0  0  0  0  0  0  0  0  0  0  0
    5.4982    0.5954   20.1189 C   0  0  0  0  0  0  0  0  0  0  0  0
    4.8546    1.2813   19.0797 C   0  0  0  0  0  0  0  0  0  0  0  0
    5.4487    1.3013   17.8130 C   0  0  0  0  0  0  0  0  0  0  0  0
    6.6148    0.6912   17.5383 N   0  0  0  0  0  0  0  0  0  0  0  0
    7.2261    0.0435   18.5402 C   0  0  0  0  0  0  0  0  0  0  0  0
    8.1774   -0.4290   18.3055 H   0  0  0  0  0  0  0  0  0  0  0  0
    4.9695    1.8132   16.9797 H   0  0  0  0  0  0  0  0  0  0  0  0
    3.9189    1.8079   19.2394 H   0  0  0  0  0  0  0  0  0  0  0  0
    5.0806    0.5683   21.1266 H   0  0  0  0  0  0  0  0  0  0  0  0
    8.1539   -0.1749   21.3346 H   0  0  0  0  0  0  0  0  0  0  0  0
  1  2  2  0
  2  3  1  0
  3  4  1  0
  4  5  1  0
  5  6  2  0
  5  7  1  0
  7  8  2  3
  8  9  1  0
  9 10  2  0
 10 11  1  0
 11 12  2  0
 12 13  1  0
 13 14  2  0
 13 15  1  0
 12 16  1  0
 11 17  1  0
 10 18  1  0
  8 19  1  0
  7 20  1  0
  3 21  1  0
  3 22  1  0
  2 23  1  0
 23 24  1  0
 24 25  2  0
 25 26  1  0
 26 27  2  0
 27 28  1  0
 28 29  2  0
 29 30  1  0
 27 31  1  0
 26 32  1  0
 25 33  1  0
 23 34  1  0
 14  9  1  0
 29 24  1  0
M  END
>  <plip>  (1) 
-0.07142857142857142

>  <filename>  (1) 
[H][C]([C](=[O])[O][C]([H])([H])[C](=[O])[N]([H])[c]1[c]([H])[n][c]([H])[c]([H])[c]1[H])=[C]([H])[c]1[n][c]([H])[c]([H])[c]([H])[c]1[H]

$$$$
