
     RDKit          3D

 39 42  0  0  0  0  0  0  0  0999 V2000
    4.9956    1.8296   16.8251 H   0  0  0  0  0  0  0  0  0  0  0  0
    5.3891    1.3622   17.7248 C   0  0  0  0  0  0  0  0  0  0  0  0
    6.5424    0.6910   17.5756 N   0  0  0  0  0  0  0  0  0  0  0  0
    7.0519    0.1108   18.6661 C   0  0  0  0  0  0  0  0  0  0  0  0
    7.9847   -0.4346   18.5184 H   0  0  0  0  0  0  0  0  0  0  0  0
    6.4874    0.1747   19.9629 C   0  0  0  0  0  0  0  0  0  0  0  0
    7.1551   -0.5079   21.0957 C   0  0  0  0  0  0  0  0  0  0  0  0
    7.3472   -0.0842   22.3662 C   0  0  0  0  0  0  0  0  0  0  0  0
    7.2183    1.2399   22.8056 N   0  0  0  0  0  0  0  0  0  0  0  0
    7.3104    1.9467   22.0923 H   0  0  0  0  0  0  0  0  0  0  0  0
    7.3196    1.6813   24.1037 C   0  0  0  0  0  0  0  0  0  0  0  0
    7.1753    0.9504   25.0670 O   0  0  0  0  0  0  0  0  0  0  0  0
    7.6016    3.1764   24.2720 C   0  0  0  0  0  0  0  0  0  0  0  0
    8.3011    3.9859   23.3507 C   0  0  0  0  0  0  0  0  0  0  0  0
    8.6970    3.6232   22.4061 H   0  0  0  0  0  0  0  0  0  0  0  0
    8.5506    5.3276   23.6590 C   0  0  0  0  0  0  0  0  0  0  0  0
    9.0866    5.9583   22.9519 H   0  0  0  0  0  0  0  0  0  0  0  0
    8.1600    5.9171   24.7967 N   0  0  0  0  0  0  0  0  0  0  0  0
    7.4947    5.1578   25.6749 C   0  0  0  0  0  0  0  0  0  0  0  0
    7.1777    5.6495   26.5939 H   0  0  0  0  0  0  0  0  0  0  0  0
    7.2019    3.8077   25.4668 C   0  0  0  0  0  0  0  0  0  0  0  0
    6.6763    3.2551   26.2368 H   0  0  0  0  0  0  0  0  0  0  0  0
    7.8918   -1.1511   23.2806 C   0  0  0  0  0  0  0  0  0  0  0  0
    7.1280   -1.4502   24.0117 H   0  0  0  0  0  0  0  0  0  0  0  0
    8.7157   -0.7468   23.8836 H   0  0  0  0  0  0  0  0  0  0  0  0
    8.3525   -2.2467   22.2993 C   0  0  0  0  0  0  0  0  0  0  0  0
    7.8196   -1.8531   20.9145 C   0  0  0  0  0  0  0  0  0  0  0  0
    8.6627   -1.7810   20.2078 H   0  0  0  0  0  0  0  0  0  0  0  0
    7.1149   -2.5954   20.5097 H   0  0  0  0  0  0  0  0  0  0  0  0
    8.5413   -3.6996   22.6188 C   0  0  0  0  0  0  0  0  0  0  0  0
    8.2852   -4.4434   21.8669 H   0  0  0  0  0  0  0  0  0  0  0  0
    8.3218   -4.0123   23.6312 H   0  0  0  0  0  0  0  0  0  0  0  0
    9.7427   -2.8220   22.4145 C   0  0  0  0  0  0  0  0  0  0  0  0
   10.3193   -2.8702   21.4976 H   0  0  0  0  0  0  0  0  0  0  0  0
   10.3538   -2.5786   23.2812 H   0  0  0  0  0  0  0  0  0  0  0  0
    5.2726    0.8813   20.0843 C   0  0  0  0  0  0  0  0  0  0  0  0
    4.7731    0.9493   21.0522 H   0  0  0  0  0  0  0  0  0  0  0  0
    4.7187    1.4728   18.9463 C   0  0  0  0  0  0  0  0  0  0  0  0
    3.7813    2.0148   18.9869 H   0  0  0  0  0  0  0  0  0  0  0  0
  1  2  1  0
  2  3  2  0
  3  4  1  0
  4  5  1  0
  4  6  2  0
  6  7  1  0
  7  8  2  0
  8  9  1  0
  9 10  1  0
  9 11  1  0
 11 12  2  0
 11 13  1  0
 13 14  2  0
 14 15  1  0
 14 16  1  0
 16 17  1  0
 16 18  2  0
 18 19  1  0
 19 20  1  0
 19 21  2  0
 21 22  1  0
  8 23  1  0
 23 24  1  0
 23 25  1  0
 23 26  1  0
 26 27  1  0
 27 28  1  0
 27 29  1  0
 26 30  1  0
 30 31  1  0
 30 32  1  0
 30 33  1  0
 33 34  1  0
 33 35  1  0
  6 36  1  0
 36 37  1  0
 36 38  2  0
 38 39  1  0
 38  2  1  0
 27  7  1  0
 21 13  1  0
 33 26  1  0
M  END
>  <plip>  (1) 
-0.03571428571428571

>  <filename>  (1) 
[H][c]1[n][c]([H])[c]([C]2=[C]([N]([H])[C](=[O])[c]3[c]([H])[c]([H])[n][c]([H])[c]3[H])[C]([H])([H])[C]3([C]2([H])[H])[C]([H])([H])[C]3([H])[H])[c]([H])[c]1[H]

$$$$
