
     RDKit          3D

 37 38  0  0  0  0  0  0  0  0999 V2000
    6.5966   -2.4960   24.1579 C   0  0  0  0  0  0  0  0  0  0  0  0
    7.3003   -2.4279   22.8093 C   0  0  1  0  0  0  0  0  0  0  0  0
    7.3273   -3.7775   22.0566 C   0  0  0  0  0  0  0  0  0  0  0  0
    8.1630   -4.7610   22.6419 O   0  0  0  0  0  0  0  0  0  0  0  0
    7.7219   -5.1842   23.3923 H   0  0  0  0  0  0  0  0  0  0  0  0
    7.7577   -3.5959   21.0646 H   0  0  0  0  0  0  0  0  0  0  0  0
    6.2887   -4.1297   21.9259 H   0  0  0  0  0  0  0  0  0  0  0  0
    6.6249   -1.3651   21.9777 N   0  0  0  0  0  4  0  0  0  0  0  0
    7.4785   -0.6779   20.9615 C   0  0  0  0  0  0  0  0  0  0  0  0
    8.4461    0.3045   21.6228 C   0  0  0  0  0  0  0  0  0  0  0  0
    7.9804    1.4351   22.3160 C   0  0  0  0  0  0  0  0  0  0  0  0
    8.8797    2.3244   22.9096 C   0  0  0  0  0  0  0  0  0  0  0  0
   10.2452    2.0768   22.8039 C   0  0  0  0  0  0  0  0  0  0  0  0
   11.1106    2.9342   23.3742 F   0  0  0  0  0  0  0  0  0  0  0  0
   10.7380    0.9701   22.1227 C   0  0  0  0  0  0  0  0  0  0  0  0
    9.8310    0.0828   21.5347 C   0  0  0  0  0  0  0  0  0  0  0  0
   10.2036   -0.7930   21.0021 H   0  0  0  0  0  0  0  0  0  0  0  0
   11.8116    0.8332   22.0677 H   0  0  0  0  0  0  0  0  0  0  0  0
    8.5547    3.2075   23.4445 H   0  0  0  0  0  0  0  0  0  0  0  0
    6.9098    1.6412   22.3710 H   0  0  0  0  0  0  0  0  0  0  0  0
    6.5952   -0.0424   19.9135 C   0  0  0  0  0  0  0  0  0  0  0  0
    5.3760    0.6197   20.1438 C   0  0  0  0  0  0  0  0  0  0  0  0
    4.7636    1.3033   19.0870 C   0  0  0  0  0  0  0  0  0  0  0  0
    5.3845    1.2971   17.8354 C   0  0  0  0  0  0  0  0  0  0  0  0
    6.5419    0.6644   17.5904 N   0  0  0  0  0  0  0  0  0  0  0  0
    7.1235    0.0364   18.6176 C   0  0  0  0  0  0  0  0  0  0  0  0
    8.0841   -0.4304   18.3890 H   0  0  0  0  0  0  0  0  0  0  0  0
    4.9454    1.8236   16.9888 H   0  0  0  0  0  0  0  0  0  0  0  0
    3.8434    1.8688   19.2188 H   0  0  0  0  0  0  0  0  0  0  0  0
    4.9049    0.6370   21.1302 H   0  0  0  0  0  0  0  0  0  0  0  0
    8.1143   -1.4311   20.4806 H   0  0  0  0  0  0  0  0  0  0  0  0
    5.7622   -1.6989   21.4762 H   0  0  0  0  0  0  0  0  0  0  0  0
    6.3049   -0.5964   22.6156 H   0  0  0  0  0  0  0  0  0  0  0  0
    8.3498   -2.1402   22.9637 H   0  0  0  0  0  0  0  0  0  0  0  0
    6.6205   -1.5186   24.6497 H   0  0  0  0  0  0  0  0  0  0  0  0
    7.1004   -3.2067   24.8201 H   0  0  0  0  0  0  0  0  0  0  0  0
    5.5482   -2.8018   24.0559 H   0  0  0  0  0  0  0  0  0  0  0  0
  1  2  1  0
  2  3  1  0
  3  4  1  0
  4  5  1  0
  3  6  1  0
  3  7  1  0
  2  8  1  0
  8  9  1  0
  9 10  1  0
 10 11  2  0
 11 12  1  0
 12 13  2  0
 13 14  1  0
 13 15  1  0
 15 16  2  0
 16 17  1  0
 15 18  1  0
 12 19  1  0
 11 20  1  0
  9 21  1  0
 21 22  2  0
 22 23  1  0
 23 24  2  0
 24 25  1  0
 25 26  2  0
 26 27  1  0
 24 28  1  0
 23 29  1  0
 22 30  1  0
  9 31  1  0
  8 32  1  0
  8 33  1  0
  2 34  1  1
  1 35  1  0
  1 36  1  0
  1 37  1  0
 16 10  1  0
 26 21  1  0
M  CHG  1   8   1
M  END
>  <plip>  (1) 
-0.034482758620689655

>  <filename>  (1) 
[H][O][C]([H])([H])[C@]([H])([C]([H])([H])[H])[N+]([H])([H])[C]([H])([c]1[c]([H])[n][c]([H])[c]([H])[c]1[H])[c]1[c]([H])[c]([H])[c]([F])[c]([H])[c]1[H]

$$$$
