
     RDKit          3D

 47 49  0  0  0  0  0  0  0  0999 V2000
    8.1966   -3.8005   21.7018 C   0  0  0  0  0  0  0  0  0  0  0  0
    7.3044   -2.8604   22.2570 O   0  0  0  0  0  0  0  0  0  0  0  0
    6.6571   -2.0342   21.3127 C   0  0  0  0  0  0  0  0  0  0  0  0
    7.3915   -0.7097   21.0152 C   0  0  2  0  0  0  0  0  0  0  0  0
    7.5118    0.1282   22.2013 N   0  0  0  0  0  0  0  0  0  0  0  0
    8.3039    1.2379   22.1991 C   0  0  0  0  0  0  0  0  0  0  0  0
    8.9198    1.5899   21.2051 O   0  0  0  0  0  0  0  0  0  0  0  0
    8.4198    1.9678   23.5303 C   0  0  0  0  0  0  0  0  0  0  0  0
    9.6680    1.5115   24.3344 C   0  0  0  0  0  0  0  0  0  0  0  0
    9.6321    0.0317   24.6528 C   0  0  0  0  0  0  0  0  0  0  0  0
   10.3689   -0.8891   23.8841 C   0  0  0  0  0  0  0  0  0  0  0  0
   10.2649   -2.2637   24.1143 C   0  0  0  0  0  0  0  0  0  0  0  0
    9.4315   -2.7359   25.1228 C   0  0  0  0  0  0  0  0  0  0  0  0
    9.3571   -4.0940   25.3102 O   0  0  0  0  0  0  0  0  0  0  0  0
    8.7635   -4.5670   26.5297 C   0  0  0  0  0  0  0  0  0  0  0  0
    7.6901   -3.6747   27.1432 C   0  0  0  0  0  0  0  0  0  0  0  0
    6.8179   -4.1018   27.8678 O   0  0  0  0  0  0  0  0  0  0  0  0
    7.8193   -2.3447   26.8899 N   0  0  0  0  0  0  0  0  0  0  0  0
    8.6740   -1.8257   25.8965 C   0  0  0  0  0  0  0  0  0  0  0  0
    8.7791   -0.4580   25.6535 C   0  0  0  0  0  0  0  0  0  0  0  0
    8.1808    0.2240   26.2503 H   0  0  0  0  0  0  0  0  0  0  0  0
    7.1197   -1.7977   27.3683 H   0  0  0  0  0  0  0  0  0  0  0  0
    8.2817   -5.5159   26.2978 H   0  0  0  0  0  0  0  0  0  0  0  0
    9.5345   -4.7014   27.3005 H   0  0  0  0  0  0  0  0  0  0  0  0
   10.8158   -3.0069   23.5396 H   0  0  0  0  0  0  0  0  0  0  0  0
   11.0025   -0.5179   23.0835 H   0  0  0  0  0  0  0  0  0  0  0  0
   10.5683    1.7428   23.7518 H   0  0  0  0  0  0  0  0  0  0  0  0
    9.7522    2.1036   25.2563 H   0  0  0  0  0  0  0  0  0  0  0  0
    8.5007    3.0300   23.2879 H   0  0  0  0  0  0  0  0  0  0  0  0
    7.5176    1.8405   24.1418 H   0  0  0  0  0  0  0  0  0  0  0  0
    7.0778   -0.1453   23.0667 H   0  0  0  0  0  0  0  0  0  0  0  0
    6.6699    0.0457   19.9093 C   0  0  0  0  0  0  0  0  0  0  0  0
    5.4383    0.6753   20.1422 C   0  0  0  0  0  0  0  0  0  0  0  0
    4.7954    1.3142   19.0828 C   0  0  0  0  0  0  0  0  0  0  0  0
    5.3928    1.2901   17.8177 C   0  0  0  0  0  0  0  0  0  0  0  0
    6.5562    0.6739   17.5632 N   0  0  0  0  0  0  0  0  0  0  0  0
    7.1704    0.0849   18.6040 C   0  0  0  0  0  0  0  0  0  0  0  0
    8.1185   -0.4022   18.3674 H   0  0  0  0  0  0  0  0  0  0  0  0
    4.9261    1.7936   16.9715 H   0  0  0  0  0  0  0  0  0  0  0  0
    3.8632    1.8427   19.2324 H   0  0  0  0  0  0  0  0  0  0  0  0
    4.9977    0.6658   21.1434 H   0  0  0  0  0  0  0  0  0  0  0  0
    8.4073   -0.9614   20.6637 H   0  0  0  0  0  0  0  0  0  0  0  0
    5.6582   -1.8033   21.7046 H   0  0  0  0  0  0  0  0  0  0  0  0
    6.5207   -2.5591   20.3545 H   0  0  0  0  0  0  0  0  0  0  0  0
    7.6609   -4.5722   21.1205 H   0  0  0  0  0  0  0  0  0  0  0  0
    8.9349   -3.3332   21.0304 H   0  0  0  0  0  0  0  0  0  0  0  0
    8.7139   -4.2696   22.5404 H   0  0  0  0  0  0  0  0  0  0  0  0
  1  2  1  0
  2  3  1  0
  3  4  1  0
  4  5  1  0
  5  6  1  0
  6  7  2  0
  6  8  1  0
  8  9  1  0
  9 10  1  0
 10 11  2  0
 11 12  1  0
 12 13  2  0
 13 14  1  0
 14 15  1  0
 15 16  1  0
 16 17  2  0
 16 18  1  0
 18 19  1  0
 19 20  2  0
 20 21  1  0
 18 22  1  0
 15 23  1  0
 15 24  1  0
 12 25  1  0
 11 26  1  0
  9 27  1  0
  9 28  1  0
  8 29  1  0
  8 30  1  0
  5 31  1  0
  4 32  1  0
 32 33  2  0
 33 34  1  0
 34 35  2  0
 35 36  1  0
 36 37  2  0
 37 38  1  0
 35 39  1  0
 34 40  1  0
 33 41  1  0
  4 42  1  6
  3 43  1  0
  3 44  1  0
  1 45  1  0
  1 46  1  0
  1 47  1  0
 20 10  1  0
 37 32  1  0
 19 13  1  0
M  END
>  <plip>  (1) 
-0.1

>  <filename>  (1) 
[H][c]1[n][c]([H])[c]([C@@]([H])([N]([H])[C](=[O])[C]([H])([H])[C]([H])([H])[c]2[c]([H])[c]([H])[c]3[c]([c]2[H])[N]([H])[C](=[O])[C]([H])([H])[O]3)[C]([H])([H])[O][C]([H])([H])[H])[c]([H])[c]1[H]

$$$$
