
     RDKit          3D

 27 29  0  0  0  0  0  0  0  0999 V2000
    8.4984   -5.9368   22.0194 H   0  0  0  0  0  0  0  0  0  0  0  0
    8.5811   -5.0009   22.5601 C   0  0  0  0  0  0  0  0  0  0  0  0
    9.2218   -4.8905   23.7575 N   0  0  0  0  0  0  0  0  0  0  0  0
    9.0849   -3.6202   24.0295 C   0  0  0  0  0  0  0  0  0  0  0  0
    9.4634   -3.1381   24.9213 H   0  0  0  0  0  0  0  0  0  0  0  0
    8.3838   -2.9842   23.0473 N   0  0  0  0  0  0  0  0  0  0  0  0
    7.7620   -1.6754   23.0496 C   0  0  0  0  0  0  0  0  0  0  0  0
    6.8702   -1.4364   21.8253 C   0  0  0  0  0  0  0  0  0  0  0  0
    5.8038   -1.9494   21.6289 O   0  0  0  0  0  0  0  0  0  0  0  0
    7.4519   -0.5315   20.9663 O   0  0  0  0  0  0  0  0  0  0  0  0
    6.6959    0.0266   19.9336 C   0  0  0  0  0  0  0  0  0  0  0  0
    7.2345    0.0472   18.6367 C   0  0  0  0  0  0  0  0  0  0  0  0
    8.1813   -0.4491   18.4428 H   0  0  0  0  0  0  0  0  0  0  0  0
    6.6255    0.6453   17.6039 N   0  0  0  0  0  0  0  0  0  0  0  0
    5.4565    1.2624   17.8451 C   0  0  0  0  0  0  0  0  0  0  0  0
    4.9909    1.7474   16.9920 H   0  0  0  0  0  0  0  0  0  0  0  0
    4.8438    1.2844   19.1032 C   0  0  0  0  0  0  0  0  0  0  0  0
    3.9017    1.8047   19.2337 H   0  0  0  0  0  0  0  0  0  0  0  0
    5.4669    0.6415   20.1776 C   0  0  0  0  0  0  0  0  0  0  0  0
    5.0336    0.6181   21.1772 H   0  0  0  0  0  0  0  0  0  0  0  0
    7.2852   -1.1154   24.3846 C   0  0  0  0  0  0  0  0  0  0  0  0
    6.3715   -0.5294   24.4036 H   0  0  0  0  0  0  0  0  0  0  0  0
    7.4378   -1.7315   25.2700 H   0  0  0  0  0  0  0  0  0  0  0  0
    8.4759   -0.5239   23.7127 C   0  0  0  0  0  0  0  0  0  0  0  0
    9.4607   -0.7166   24.1314 H   0  0  0  0  0  0  0  0  0  0  0  0
    8.3497    0.4545   23.2579 H   0  0  0  0  0  0  0  0  0  0  0  0
    8.0789   -3.8861   22.0874 N   0  0  0  0  0  0  0  0  0  0  0  0
  1  2  1  0
  2  3  1  0
  3  4  2  0
  4  5  1  0
  4  6  1  0
  6  7  1  0
  7  8  1  0
  8  9  2  0
  8 10  1  0
 10 11  1  0
 11 12  2  0
 12 13  1  0
 12 14  1  0
 14 15  2  0
 15 16  1  0
 15 17  1  0
 17 18  1  0
 17 19  2  0
 19 20  1  0
  7 21  1  0
 21 22  1  0
 21 23  1  0
 21 24  1  0
 24 25  1  0
 24 26  1  0
  6 27  1  0
 27  2  2  0
 24  7  1  0
 19 11  1  0
M  END
>  <plip>  (1) 
-0.10344827586206896

>  <filename>  (1) 
[H][c]1[n][c]([H])[n]([C]2([C](=[O])[O][c]3[c]([H])[n][c]([H])[c]([H])[c]3[H])[C]([H])([H])[C]2([H])[H])[n]1

$$$$
