
     RDKit          3D

 41 43  0  0  0  0  0  0  0  0999 V2000
    9.7014    0.0115   21.2796 N   0  0  0  0  0  0  0  0  0  0  0  0
    8.4128    0.0919   21.5701 C   0  0  0  0  0  0  0  0  0  0  0  0
    7.9170    0.9430   22.5043 N   0  0  0  0  0  4  0  0  0  0  0  0
    8.7691    2.0604   22.7934 O   0  0  0  0  0  0  0  0  0  0  0  0
    8.2143    2.7481   23.9098 C   0  0  0  0  0  0  0  0  0  0  0  0
    9.1705    3.8679   24.3084 C   0  0  0  0  0  0  0  0  0  0  0  0
    8.6195    4.6743   25.4505 C   0  0  0  0  0  0  0  0  0  0  0  0
    8.5319    4.2693   26.7488 C   0  0  0  0  0  0  0  0  0  0  0  0
    7.9982    5.2761   27.5313 N   0  0  0  0  0  0  0  0  0  0  0  0
    7.7024    6.3562   26.7291 C   0  0  0  0  0  0  0  0  0  0  0  0
    7.1260    7.6060   27.0281 C   0  0  0  0  0  0  0  0  0  0  0  0
    6.9212    8.4934   25.9728 C   0  0  0  0  0  0  0  0  0  0  0  0
    7.2603    8.1459   24.6387 C   0  0  0  0  0  0  0  0  0  0  0  0
    7.8176    6.9067   24.3535 C   0  0  0  0  0  0  0  0  0  0  0  0
    8.0636    6.0023   25.4044 C   0  0  0  0  0  0  0  0  0  0  0  0
    8.0567    6.6058   23.3345 H   0  0  0  0  0  0  0  0  0  0  0  0
    7.0797    8.8497   23.8288 H   0  0  0  0  0  0  0  0  0  0  0  0
    6.4941    9.4744   26.1654 H   0  0  0  0  0  0  0  0  0  0  0  0
    6.8447    7.8669   28.0457 H   0  0  0  0  0  0  0  0  0  0  0  0
    7.7446    5.2007   28.5014 H   0  0  0  0  0  0  0  0  0  0  0  0
    8.8028    3.3000   27.1551 H   0  0  0  0  0  0  0  0  0  0  0  0
   10.1411    3.4277   24.5746 H   0  0  0  0  0  0  0  0  0  0  0  0
    9.3563    4.5142   23.4378 H   0  0  0  0  0  0  0  0  0  0  0  0
    8.0595    2.0417   24.7411 H   0  0  0  0  0  0  0  0  0  0  0  0
    7.2373    3.1802   23.6391 H   0  0  0  0  0  0  0  0  0  0  0  0
    7.0615    1.3203   22.0906 H   0  0  0  0  0  0  0  0  0  0  0  0
    7.4320   -0.7977   20.9107 C   0  0  0  0  0  0  0  0  0  0  0  0
    6.6651   -0.0802   19.7969 C   0  0  0  0  0  0  0  0  0  0  0  0
    5.4931    0.6351   20.0770 C   0  0  0  0  0  0  0  0  0  0  0  0
    4.8764    1.3586   19.0516 C   0  0  0  0  0  0  0  0  0  0  0  0
    5.4549    1.3398   17.7796 C   0  0  0  0  0  0  0  0  0  0  0  0
    6.5675    0.6522   17.4848 N   0  0  0  0  0  0  0  0  0  0  0  0
    7.1507   -0.0298   18.4782 C   0  0  0  0  0  0  0  0  0  0  0  0
    8.0585   -0.5729   18.2094 H   0  0  0  0  0  0  0  0  0  0  0  0
    5.0148    1.9105   16.9632 H   0  0  0  0  0  0  0  0  0  0  0  0
    3.9871    1.9544   19.2290 H   0  0  0  0  0  0  0  0  0  0  0  0
    5.0522    0.6168   21.0784 H   0  0  0  0  0  0  0  0  0  0  0  0
    6.7231   -1.1850   21.6564 H   0  0  0  0  0  0  0  0  0  0  0  0
    7.9609   -1.6764   20.5235 H   0  0  0  0  0  0  0  0  0  0  0  0
   10.2712    0.7709   21.6351 H   0  0  0  0  0  0  0  0  0  0  0  0
    9.9388   -0.3527   20.3652 H   0  0  0  0  0  0  0  0  0  0  0  0
  1  2  1  0
  2  3  2  3
  3  4  1  0
  4  5  1  0
  5  6  1  0
  6  7  1  0
  7  8  2  0
  8  9  1  0
  9 10  1  0
 10 11  2  0
 11 12  1  0
 12 13  2  0
 13 14  1  0
 14 15  2  0
 14 16  1  0
 13 17  1  0
 12 18  1  0
 11 19  1  0
  9 20  1  0
  8 21  1  0
  6 22  1  0
  6 23  1  0
  5 24  1  0
  5 25  1  0
  3 26  1  0
  2 27  1  0
 27 28  1  0
 28 29  2  0
 29 30  1  0
 30 31  2  0
 31 32  1  0
 32 33  2  0
 33 34  1  0
 31 35  1  0
 30 36  1  0
 29 37  1  0
 27 38  1  0
 27 39  1  0
  1 40  1  0
  1 41  1  0
 15  7  1  0
 33 28  1  0
 15 10  1  0
M  CHG  1   3   1
M  END
>  <plip>  (1) 
-0.13793103448275862

>  <filename>  (1) 
[H][c]1[n][c]([H])[c]([C]([H])([H])[C]([N]([H])[H])=[N+]([H])[O][C]([H])([H])[C]([H])([H])[c]2[c]([H])[n]([H])[c]3[c]([H])[c]([H])[c]([H])[c]([H])[c]23)[c]([H])[c]1[H]

$$$$
