
     RDKit          3D

 56 58  0  0  0  0  0  0  0  0999 V2000
    9.8862    0.6071   21.7855 O   0  0  0  0  0  0  0  0  0  0  0  0
    8.8519    0.8732   22.3742 C   0  0  0  0  0  0  0  0  0  0  0  0
    8.7681    1.9615   23.4231 C   0  0  0  0  0  0  0  0  0  0  0  0
    9.1310    1.4617   24.8245 C   0  0  0  0  0  0  0  0  0  0  0  0
    8.9871    2.5171   25.7990 N   0  0  0  0  0  0  0  0  0  0  0  0
    7.8024    2.8548   26.3602 C   0  0  0  0  0  0  0  0  0  0  0  0
    6.7147    2.3767   26.1254 O   0  0  0  0  0  0  0  0  0  0  0  0
    8.0415    3.8546   27.2395 O   0  0  0  0  0  0  0  0  0  0  0  0
    6.9832    4.2501   28.1292 C   0  0  0  0  0  0  0  0  0  0  0  0
    7.6427    5.0814   29.2165 C   0  0  0  0  0  0  0  0  0  0  0  0
    7.8594    4.5698   30.5092 C   0  0  0  0  0  0  0  0  0  0  0  0
    8.6380    5.2739   31.4376 C   0  0  0  0  0  0  0  0  0  0  0  0
    9.2045    6.5038   31.0880 C   0  0  0  0  0  0  0  0  0  0  0  0
    8.9717    7.0397   29.8168 C   0  0  0  0  0  0  0  0  0  0  0  0
    8.1876    6.3394   28.8968 C   0  0  0  0  0  0  0  0  0  0  0  0
    8.0372    6.7539   27.9005 H   0  0  0  0  0  0  0  0  0  0  0  0
    9.4079    7.9954   29.5312 H   0  0  0  0  0  0  0  0  0  0  0  0
    9.8306    7.0404   31.7969 H   0  0  0  0  0  0  0  0  0  0  0  0
    8.8146    4.8586   32.4282 H   0  0  0  0  0  0  0  0  0  0  0  0
    7.4488    3.5979   30.7882 H   0  0  0  0  0  0  0  0  0  0  0  0
    6.2319    4.8158   27.5621 H   0  0  0  0  0  0  0  0  0  0  0  0
    6.4923    3.3629   28.5430 H   0  0  0  0  0  0  0  0  0  0  0  0
    9.7273    3.1283   26.0883 H   0  0  0  0  0  0  0  0  0  0  0  0
    8.4723    0.6324   25.1126 H   0  0  0  0  0  0  0  0  0  0  0  0
   10.1612    1.0822   24.8511 H   0  0  0  0  0  0  0  0  0  0  0  0
    9.4619    2.7507   23.1227 H   0  0  0  0  0  0  0  0  0  0  0  0
    7.7607    2.3920   23.4564 H   0  0  0  0  0  0  0  0  0  0  0  0
    7.6855    0.2121   22.1545 N   0  0  0  0  0  0  0  0  0  0  0  0
    7.4458   -0.6924   21.0487 C   0  0  0  0  0  0  0  0  0  0  0  0
    6.6503   -1.9226   21.5108 C   0  0  0  0  0  0  0  0  0  0  0  0
    7.3133   -2.9159   22.4923 C   0  0  0  0  0  0  0  0  0  0  0  0
    8.6651   -3.4698   22.0113 C   0  0  0  0  0  0  0  0  0  0  0  0
    9.7133   -2.5688   22.6940 C   0  0  0  0  0  0  0  0  0  0  0  0
    9.0434   -1.8771   23.7380 O   0  0  0  0  0  0  0  0  0  0  0  0
    7.7201   -2.3619   23.8691 C   0  0  0  0  0  0  0  0  0  0  0  0
    7.0944   -1.5404   24.2345 H   0  0  0  0  0  0  0  0  0  0  0  0
    7.6880   -3.1646   24.6261 H   0  0  0  0  0  0  0  0  0  0  0  0
   10.1325   -1.8153   22.0187 H   0  0  0  0  0  0  0  0  0  0  0  0
   10.5487   -3.1530   23.1086 H   0  0  0  0  0  0  0  0  0  0  0  0
    8.7744   -3.4761   20.9229 H   0  0  0  0  0  0  0  0  0  0  0  0
    8.7780   -4.5057   22.3525 H   0  0  0  0  0  0  0  0  0  0  0  0
    6.5847   -3.7248   22.6375 H   0  0  0  0  0  0  0  0  0  0  0  0
    6.3560   -2.4782   20.6123 H   0  0  0  0  0  0  0  0  0  0  0  0
    5.7178   -1.5613   21.9535 H   0  0  0  0  0  0  0  0  0  0  0  0
    6.7259    0.0401   19.9136 C   0  0  0  0  0  0  0  0  0  0  0  0
    5.4928    0.6885   20.0948 C   0  0  0  0  0  0  0  0  0  0  0  0
    4.8884    1.3187   19.0050 C   0  0  0  0  0  0  0  0  0  0  0  0
    5.5265    1.2706   17.7613 C   0  0  0  0  0  0  0  0  0  0  0  0
    6.6941    0.6453   17.5560 N   0  0  0  0  0  0  0  0  0  0  0  0
    7.2687    0.0613   18.6194 C   0  0  0  0  0  0  0  0  0  0  0  0
    8.2253   -0.4254   18.4228 H   0  0  0  0  0  0  0  0  0  0  0  0
    5.0768    1.7510   16.8939 H   0  0  0  0  0  0  0  0  0  0  0  0
    3.9500    1.8532   19.1103 H   0  0  0  0  0  0  0  0  0  0  0  0
    5.0082    0.7160   21.0742 H   0  0  0  0  0  0  0  0  0  0  0  0
    8.4350   -1.0018   20.6855 H   0  0  0  0  0  0  0  0  0  0  0  0
    6.9584    0.3150   22.8379 H   0  0  0  0  0  0  0  0  0  0  0  0
  1  2  2  0
  2  3  1  0
  3  4  1  0
  4  5  1  0
  5  6  1  0
  6  7  2  0
  6  8  1  0
  8  9  1  0
  9 10  1  0
 10 11  2  0
 11 12  1  0
 12 13  2  0
 13 14  1  0
 14 15  2  0
 15 16  1  0
 14 17  1  0
 13 18  1  0
 12 19  1  0
 11 20  1  0
  9 21  1  0
  9 22  1  0
  5 23  1  0
  4 24  1  0
  4 25  1  0
  3 26  1  0
  3 27  1  0
  2 28  1  0
 28 29  1  0
 29 30  1  0
 30 31  1  0
 31 32  1  0
 32 33  1  0
 33 34  1  0
 34 35  1  0
 35 36  1  0
 35 37  1  0
 33 38  1  0
 33 39  1  0
 32 40  1  0
 32 41  1  0
 31 42  1  0
 30 43  1  0
 30 44  1  0
 29 45  1  0
 45 46  2  0
 46 47  1  0
 47 48  2  0
 48 49  1  0
 49 50  2  0
 50 51  1  0
 48 52  1  0
 47 53  1  0
 46 54  1  0
 29 55  1  0
 28 56  1  0
 15 10  1  0
 35 31  1  0
 50 45  1  0
M  END
>  <plip>  (1) 
-0.10714285714285714

>  <filename>  (1) 
[H][c]1[n][c]([H])[c]([C]([H])([N]([H])[C](=[O])[C]([H])([H])[C]([H])([H])[N]([H])[C](=[O])[O][C]([H])([H])[c]2[c]([H])[c]([H])[c]([H])[c]([H])[c]2[H])[C]([H])([H])[C]2([H])[C]([H])([H])[O][C]([H])([H])[C]2([H])[H])[c]([H])[c]1[H]

$$$$
