
     RDKit          3D

 36 36  0  0  0  0  0  0  0  0999 V2000
    4.9161    1.7646   16.8237 H   0  0  0  0  0  0  0  0  0  0  0  0
    5.3946    1.2778   17.6724 C   0  0  0  0  0  0  0  0  0  0  0  0
    6.4782    0.5354   17.3911 N   0  0  0  0  0  0  0  0  0  0  0  0
    7.1062   -0.0680   18.4135 C   0  0  0  0  0  0  0  0  0  0  0  0
    7.9921   -0.6528   18.1678 H   0  0  0  0  0  0  0  0  0  0  0  0
    6.6889    0.0292   19.7703 C   0  0  0  0  0  0  0  0  0  0  0  0
    7.2876   -0.6006   20.9310 N   0  0  0  0  0  0  0  0  0  0  0  0
    6.4519   -1.5060   21.7311 C   0  0  0  0  0  0  0  0  0  0  0  0
    6.7735   -2.5458   21.6409 H   0  0  0  0  0  0  0  0  0  0  0  0
    6.4432   -1.2024   22.7831 H   0  0  0  0  0  0  0  0  0  0  0  0
    5.4282   -1.4429   21.3635 H   0  0  0  0  0  0  0  0  0  0  0  0
    8.9425   -0.4266   21.1469 S   0  0  0  0  0  0  0  0  0  0  0  0
    9.6161   -1.4475   20.3938 O   0  0  0  0  0  0  0  0  0  0  0  0
    9.2451    0.9794   21.0292 O   0  0  0  0  0  0  0  0  0  0  0  0
    9.2041   -0.6920   22.7239 N   0  0  0  0  0  0  0  0  0  0  0  0
    8.9039    0.1078   23.2457 H   0  0  0  0  0  0  0  0  0  0  0  0
    8.9061   -1.9247   23.2142 C   0  0  0  0  0  0  0  0  0  0  0  0
    8.7865   -2.9268   22.5581 O   0  0  0  0  0  0  0  0  0  0  0  0
    8.7675   -1.8095   24.5317 O   0  0  0  0  0  0  0  0  0  0  0  0
    8.9547   -2.9770   25.3912 C   0  0  0  0  0  0  0  0  0  0  0  0
   10.2039   -3.7693   24.9680 C   0  0  0  0  0  0  0  0  0  0  0  0
   10.0453   -4.3173   24.0375 H   0  0  0  0  0  0  0  0  0  0  0  0
   11.0497   -3.0957   24.8119 H   0  0  0  0  0  0  0  0  0  0  0  0
   10.4813   -4.4922   25.7396 H   0  0  0  0  0  0  0  0  0  0  0  0
    9.1337   -2.4057   26.8018 C   0  0  0  0  0  0  0  0  0  0  0  0
    9.7554   -1.5039   26.8008 H   0  0  0  0  0  0  0  0  0  0  0  0
    8.1818   -2.1417   27.2785 H   0  0  0  0  0  0  0  0  0  0  0  0
    9.6269   -3.1654   27.4135 H   0  0  0  0  0  0  0  0  0  0  0  0
    7.6779   -3.7996   25.2870 C   0  0  0  0  0  0  0  0  0  0  0  0
    6.8224   -3.1504   25.4997 H   0  0  0  0  0  0  0  0  0  0  0  0
    7.5715   -4.1895   24.2718 H   0  0  0  0  0  0  0  0  0  0  0  0
    7.6901   -4.6272   26.0017 H   0  0  0  0  0  0  0  0  0  0  0  0
    5.5509    0.7977   20.0235 C   0  0  0  0  0  0  0  0  0  0  0  0
    5.2191    0.8783   21.0580 H   0  0  0  0  0  0  0  0  0  0  0  0
    4.8930    1.4381   18.9680 C   0  0  0  0  0  0  0  0  0  0  0  0
    4.0154    2.0527   19.1383 H   0  0  0  0  0  0  0  0  0  0  0  0
  1  2  1  0
  2  3  2  0
  3  4  1  0
  4  5  1  0
  4  6  2  0
  6  7  1  0
  7  8  1  0
  8  9  1  0
  8 10  1  0
  8 11  1  0
  7 12  1  0
 12 13  2  0
 12 14  2  0
 12 15  1  0
 15 16  1  0
 15 17  1  0
 17 18  2  0
 17 19  1  0
 19 20  1  0
 20 21  1  0
 21 22  1  0
 21 23  1  0
 21 24  1  0
 20 25  1  0
 25 26  1  0
 25 27  1  0
 25 28  1  0
 20 29  1  0
 29 30  1  0
 29 31  1  0
 29 32  1  0
  6 33  1  0
 33 34  1  0
 33 35  2  0
 35 36  1  0
 35  2  1  0
M  END
>  <plip>  (1) 
-0.10344827586206896

>  <filename>  (1) 
[H][c]1[n][c]([H])[c]([N]([C]([H])([H])[H])[S](=[O])(=[O])[N]([H])[C](=[O])[O][C]([C]([H])([H])[H])([C]([H])([H])[H])[C]([H])([H])[H])[c]([H])[c]1[H]

$$$$
