
     RDKit          3D

 33 34  0  0  0  0  0  0  0  0999 V2000
    4.9168    1.7955   16.9813 H   0  0  0  0  0  0  0  0  0  0  0  0
    5.3911    1.3019   17.8246 C   0  0  0  0  0  0  0  0  0  0  0  0
    6.5515    0.6825   17.5596 N   0  0  0  0  0  0  0  0  0  0  0  0
    7.1511    0.0639   18.5835 C   0  0  0  0  0  0  0  0  0  0  0  0
    8.1055   -0.4128   18.3683 H   0  0  0  0  0  0  0  0  0  0  0  0
    6.6510    0.0255   19.8991 C   0  0  0  0  0  0  0  0  0  0  0  0
    7.3886   -0.6920   20.9595 C   0  0  0  0  0  0  0  0  0  0  0  0
    7.9096   -0.1119   22.0825 C   0  0  0  0  0  0  0  0  0  0  0  0
    7.9332    1.3510   22.4530 C   0  0  0  0  0  0  0  0  0  0  0  0
    8.9633    1.7096   22.3431 H   0  0  0  0  0  0  0  0  0  0  0  0
    7.3576    1.9260   21.7181 H   0  0  0  0  0  0  0  0  0  0  0  0
    7.4260    1.6679   23.8672 C   0  0  0  0  0  0  0  0  0  0  0  0
    7.6585    2.7125   24.1109 H   0  0  0  0  0  0  0  0  0  0  0  0
    7.9983    1.0575   24.5731 H   0  0  0  0  0  0  0  0  0  0  0  0
    5.9199    1.4352   24.0760 C   0  0  0  0  0  0  0  0  0  0  0  0
    5.6552    0.4997   23.5624 H   0  0  0  0  0  0  0  0  0  0  0  0
    5.0757    2.5655   23.4767 C   0  0  0  0  0  0  0  0  0  0  0  0
    5.2928    3.5159   23.9790 H   0  0  0  0  0  0  0  0  0  0  0  0
    4.0040    2.3751   23.6027 H   0  0  0  0  0  0  0  0  0  0  0  0
    5.2653    2.7235   22.4094 H   0  0  0  0  0  0  0  0  0  0  0  0
    5.5953    1.2568   25.5643 C   0  0  0  0  0  0  0  0  0  0  0  0
    5.8763    2.1491   26.1379 H   0  0  0  0  0  0  0  0  0  0  0  0
    4.5244    1.0882   25.7244 H   0  0  0  0  0  0  0  0  0  0  0  0
    6.1357    0.4054   25.9948 H   0  0  0  0  0  0  0  0  0  0  0  0
    8.6706   -1.3024   23.0891 S   0  0  0  0  0  0  0  0  0  0  0  0
    8.3261   -2.5672   21.9695 C   0  0  0  0  0  0  0  0  0  0  0  0
    8.6549   -3.5789   22.1538 H   0  0  0  0  0  0  0  0  0  0  0  0
    7.6203   -2.0993   20.9049 C   0  0  0  0  0  0  0  0  0  0  0  0
    7.1651   -2.6766   20.1133 H   0  0  0  0  0  0  0  0  0  0  0  0
    5.4318    0.6702   20.1482 C   0  0  0  0  0  0  0  0  0  0  0  0
    5.0032    0.6322   21.1550 H   0  0  0  0  0  0  0  0  0  0  0  0
    4.7932    1.3211   19.0903 C   0  0  0  0  0  0  0  0  0  0  0  0
    3.8622    1.8491   19.2437 H   0  0  0  0  0  0  0  0  0  0  0  0
  1  2  1  0
  2  3  2  0
  3  4  1  0
  4  5  1  0
  4  6  2  0
  6  7  1  0
  7  8  2  0
  8  9  1  0
  9 10  1  0
  9 11  1  0
  9 12  1  0
 12 13  1  0
 12 14  1  0
 12 15  1  0
 15 16  1  0
 15 17  1  0
 17 18  1  0
 17 19  1  0
 17 20  1  0
 15 21  1  0
 21 22  1  0
 21 23  1  0
 21 24  1  0
  8 25  1  0
 25 26  1  0
 26 27  1  0
 26 28  2  0
 28 29  1  0
  6 30  1  0
 30 31  1  0
 30 32  2  0
 32 33  1  0
 32  2  1  0
 28  7  1  0
M  END
>  <plip>  (1) 
-0.03571428571428571

>  <filename>  (1) 
[H][c]1[n][c]([H])[c](-[c]2[c]([C]([H])([H])[C]([H])([H])[C]([H])([C]([H])([H])[H])[C]([H])([H])[H])[s][c]([H])[c]2[H])[c]([H])[c]1[H]

$$$$
