
     RDKit          3D

 30 33  0  0  0  0  0  0  0  0999 V2000
    5.0531   -2.0139   21.2976 H   0  0  0  0  0  0  0  0  0  0  0  0
    5.8775   -2.5760   21.7238 C   0  0  0  0  0  0  0  0  0  0  0  0
    5.6212   -3.8449   22.1512 C   0  0  0  0  0  0  0  0  0  0  0  0
    3.9561   -4.3187   22.4742 S   0  0  0  0  0  0  0  0  0  0  0  0
    4.4355   -5.9814   22.8797 C   0  0  0  0  0  0  0  0  0  0  0  0
    3.7076   -6.8979   23.1256 O   0  0  0  0  0  0  0  0  0  0  0  0
    5.7952   -6.0772   22.8480 N   0  0  0  0  0  0  0  0  0  0  0  0
    6.1826   -7.0059   22.8597 H   0  0  0  0  0  0  0  0  0  0  0  0
    6.5152   -5.0565   22.2777 C   0  0  0  0  0  0  0  0  0  0  0  0
    7.6461   -5.2160   21.8951 O   0  0  0  0  0  0  0  0  0  0  0  0
    7.0841   -1.8113   21.7912 C   0  0  0  0  0  0  0  0  0  0  0  0
    8.1091   -2.1392   22.6547 N   0  0  0  0  0  0  0  0  0  0  0  0
    9.0355   -1.2786   22.3649 C   0  0  0  0  0  0  0  0  0  0  0  0
   10.6744   -1.0141   22.8904 S   0  0  0  0  0  0  0  0  0  0  0  0
   10.8561    0.2478   21.6880 C   0  0  0  0  0  0  0  0  0  0  0  0
   11.8030    0.7628   21.6032 H   0  0  0  0  0  0  0  0  0  0  0  0
    9.7328    0.4314   20.9724 C   0  0  0  0  0  0  0  0  0  0  0  0
    9.5528    1.1300   20.1740 H   0  0  0  0  0  0  0  0  0  0  0  0
    8.7044   -0.4083   21.3587 N   0  0  0  0  0  0  0  0  0  0  0  0
    7.3987   -0.6889   20.9976 C   0  0  0  0  0  0  0  0  0  0  0  0
    6.6760    0.0170   19.9184 C   0  0  0  0  0  0  0  0  0  0  0  0
    7.1990    0.0942   18.6031 C   0  0  0  0  0  0  0  0  0  0  0  0
    8.1402   -0.4007   18.3726 H   0  0  0  0  0  0  0  0  0  0  0  0
    6.6083    0.7133   17.5713 N   0  0  0  0  0  0  0  0  0  0  0  0
    5.4345    1.3210   17.8048 C   0  0  0  0  0  0  0  0  0  0  0  0
    4.9700    1.8240   16.9522 H   0  0  0  0  0  0  0  0  0  0  0  0
    4.8165    1.3098   19.0583 C   0  0  0  0  0  0  0  0  0  0  0  0
    3.8715    1.8259   19.1762 H   0  0  0  0  0  0  0  0  0  0  0  0
    5.4338    0.6463   20.1261 C   0  0  0  0  0  0  0  0  0  0  0  0
    4.9718    0.6453   21.1161 H   0  0  0  0  0  0  0  0  0  0  0  0
  1  2  1  0
  2  3  2  3
  3  4  1  0
  4  5  1  0
  5  6  2  0
  5  7  1  0
  7  8  1  0
  7  9  1  0
  9 10  2  0
  2 11  1  0
 11 12  1  0
 12 13  2  0
 13 14  1  0
 14 15  1  0
 15 16  1  0
 15 17  2  0
 17 18  1  0
 17 19  1  0
 19 20  1  0
 20 21  1  0
 21 22  2  0
 22 23  1  0
 22 24  1  0
 24 25  2  0
 25 26  1  0
 25 27  1  0
 27 28  1  0
 27 29  2  0
 29 30  1  0
  9  3  1  0
 20 11  2  0
 29 21  1  0
 19 13  1  0
M  END
>  <plip>  (1) 
-0.03125

>  <filename>  (1) 
[H][C](=[C]1[S][C](=[O])[N]([H])[C]1=[O])[c]1[n][c]2[s][c]([H])[c]([H])[n]2[c]1-[c]1[c]([H])[n][c]([H])[c]([H])[c]1[H]

$$$$
