
     RDKit          3D

 23 24  0  0  0  0  0  0  0  0999 V2000
    6.6736   -2.5624   20.9555 H   0  0  0  0  0  0  0  0  0  0  0  0
    6.2098   -1.8893   21.5973 N   0  0  0  0  0  0  0  0  0  0  0  0
    7.4747   -0.8540   21.2095 S   0  0  2  0  0  6  0  0  0  0  0  0
    8.4211   -1.7553   20.5059 O   0  0  0  0  0  0  0  0  0  0  0  0
    8.2536    0.4152   22.3664 C   0  0  0  0  0  0  0  0  0  0  0  0
    9.3432    1.0881   22.2380 N   0  0  0  0  0  0  0  0  0  0  0  0
    9.3797    1.9492   23.3322 N   0  0  0  0  0  0  0  0  0  0  0  0
    8.3135    1.7340   24.0215 C   0  0  0  0  0  0  0  0  0  0  0  0
    7.8393    2.3630   25.2808 C   0  0  0  0  0  0  0  0  0  0  0  0
    6.7507    2.3617   25.3350 H   0  0  0  0  0  0  0  0  0  0  0  0
    8.2115    3.3847   25.3249 H   0  0  0  0  0  0  0  0  0  0  0  0
    8.2375    1.8104   26.1349 H   0  0  0  0  0  0  0  0  0  0  0  0
    7.5473    0.7556   23.4710 O   0  0  0  0  0  0  0  0  0  0  0  0
    6.5718    0.0334   19.9590 C   0  0  0  0  0  0  0  0  0  0  0  0
    7.1545   -0.0083   18.7030 C   0  0  0  0  0  0  0  0  0  0  0  0
    8.0811   -0.5583   18.5419 H   0  0  0  0  0  0  0  0  0  0  0  0
    6.6028    0.6111   17.6596 N   0  0  0  0  0  0  0  0  0  0  0  0
    5.4500    1.2737   17.8508 C   0  0  0  0  0  0  0  0  0  0  0  0
    5.0366    1.7909   16.9845 H   0  0  0  0  0  0  0  0  0  0  0  0
    4.7907    1.3172   19.0871 C   0  0  0  0  0  0  0  0  0  0  0  0
    3.8599    1.8659   19.1808 H   0  0  0  0  0  0  0  0  0  0  0  0
    5.3456    0.6604   20.1800 C   0  0  0  0  0  0  0  0  0  0  0  0
    4.8219    0.6149   21.1381 H   0  0  0  0  0  0  0  0  0  0  0  0
  1  2  1  0
  2  3  2  0
  3  4  2  0
  3  5  1  1
  5  6  2  0
  6  7  1  0
  7  8  2  0
  8  9  1  0
  9 10  1  0
  9 11  1  0
  9 12  1  0
  8 13  1  0
  3 14  1  0
 14 15  2  0
 15 16  1  0
 15 17  1  0
 17 18  2  0
 18 19  1  0
 18 20  1  0
 20 21  1  0
 20 22  2  0
 22 23  1  0
 13  5  1  0
 22 14  1  0
M  END
>  <plip>  (1) 
-0.034482758620689655

>  <filename>  (1) 
[H][N]=[S@](=[O])([c]1[n][n][c]([C]([H])([H])[H])[o]1)[c]1[c]([H])[n][c]([H])[c]([H])[c]1[H]

$$$$
