
     RDKit          3D

 32 34  0  0  0  0  0  0  0  0999 V2000
    4.9345    1.8136   16.9705 H   0  0  0  0  0  0  0  0  0  0  0  0
    5.3960    1.3020   17.8128 C   0  0  0  0  0  0  0  0  0  0  0  0
    6.5604    0.6781   17.5669 N   0  0  0  0  0  0  0  0  0  0  0  0
    7.1505    0.0576   18.5940 C   0  0  0  0  0  0  0  0  0  0  0  0
    8.1083   -0.4154   18.3700 H   0  0  0  0  0  0  0  0  0  0  0  0
    6.6329    0.0139   19.9047 C   0  0  0  0  0  0  0  0  0  0  0  0
    7.3282   -0.6865   20.9838 C   0  0  0  0  0  0  0  0  0  0  0  0
    7.5587   -0.2557   22.2619 C   0  0  0  0  0  0  0  0  0  0  0  0
    7.3515    1.0589   22.8298 C   0  0  0  0  0  0  0  0  0  0  0  0
    6.9307    1.1268   24.1045 N   0  0  0  0  0  0  0  0  0  0  0  0
    6.6500    2.3195   24.6200 C   0  0  0  0  0  0  0  0  0  0  0  0
    6.1553    2.3541   26.0415 C   0  0  0  0  0  0  0  0  0  0  0  0
    5.2121    2.9107   26.1049 H   0  0  0  0  0  0  0  0  0  0  0  0
    6.8961    2.8690   26.6646 H   0  0  0  0  0  0  0  0  0  0  0  0
    6.0089    1.3388   26.4196 H   0  0  0  0  0  0  0  0  0  0  0  0
    6.8243    3.5143   23.9020 C   0  0  0  0  0  0  0  0  0  0  0  0
    6.5966    4.4501   24.3961 H   0  0  0  0  0  0  0  0  0  0  0  0
    7.2976    3.4617   22.5915 C   0  0  0  0  0  0  0  0  0  0  0  0
    7.4412    4.3705   22.0058 H   0  0  0  0  0  0  0  0  0  0  0  0
    7.5637    2.2111   22.0401 C   0  0  0  0  0  0  0  0  0  0  0  0
    7.8983    2.0819   21.0151 H   0  0  0  0  0  0  0  0  0  0  0  0
    8.1539   -1.3510   23.0453 C   0  0  0  0  0  0  0  0  0  0  0  0
    8.5539   -1.4447   24.1877 O   0  0  0  0  0  0  0  0  0  0  0  0
    8.2493   -2.3959   22.1691 N   0  0  0  0  0  0  0  0  0  0  0  0
    8.7217   -3.2022   22.5292 H   0  0  0  0  0  0  0  0  0  0  0  0
    7.8671   -2.0758   20.8236 C   0  0  0  0  0  0  0  0  0  0  0  0
    8.7215   -2.0467   20.1325 H   0  0  0  0  0  0  0  0  0  0  0  0
    7.1123   -2.7688   20.4288 H   0  0  0  0  0  0  0  0  0  0  0  0
    5.4025    0.6568   20.1265 C   0  0  0  0  0  0  0  0  0  0  0  0
    4.9726    0.6489   21.1302 H   0  0  0  0  0  0  0  0  0  0  0  0
    4.7799    1.3157   19.0692 C   0  0  0  0  0  0  0  0  0  0  0  0
    3.8497    1.8542   19.2190 H   0  0  0  0  0  0  0  0  0  0  0  0
  1  2  1  0
  2  3  2  0
  3  4  1  0
  4  5  1  0
  4  6  2  0
  6  7  1  0
  7  8  2  0
  8  9  1  0
  9 10  2  0
 10 11  1  0
 11 12  1  0
 12 13  1  0
 12 14  1  0
 12 15  1  0
 11 16  2  0
 16 17  1  0
 16 18  1  0
 18 19  1  0
 18 20  2  0
 20 21  1  0
  8 22  1  0
 22 23  2  0
 22 24  1  0
 24 25  1  0
 24 26  1  0
 26 27  1  0
 26 28  1  0
  6 29  1  0
 29 30  1  0
 29 31  2  0
 31 32  1  0
 31  2  1  0
 26  7  1  0
 20  9  1  0
M  END
>  <plip>  (1) 
-0.034482758620689655

>  <filename>  (1) 
[H][c]1[n][c]([H])[c]([C]2=[C]([c]3[n][c]([C]([H])([H])[H])[c]([H])[c]([H])[c]3[H])[C](=[O])[N]([H])[C]2([H])[H])[c]([H])[c]1[H]

$$$$
