
     RDKit          3D

 38 39  0  0  0  0  0  0  0  0999 V2000
    6.8668    8.0473   24.1977 C   0  0  0  0  0  0  0  0  0  0  0  0
    7.2200    6.8950   24.9592 O   0  0  0  0  0  0  0  0  0  0  0  0
    7.7031    5.8000   24.3472 C   0  0  0  0  0  0  0  0  0  0  0  0
    8.0096    4.7251   25.2026 C   0  0  0  0  0  0  0  0  0  0  0  0
    8.5131    3.5676   24.6417 C   0  0  0  0  0  0  0  0  0  0  0  0
    8.6853    3.5077   23.2382 C   0  0  0  0  0  0  0  0  0  0  0  0
    9.2359    2.2893   22.5599 C   0  0  0  0  0  0  0  0  0  0  0  0
    8.1183    1.4144   22.1648 N   0  0  0  0  0  4  0  0  0  0  0  0
    8.6039    0.1214   21.5024 C   0  0  0  0  0  0  0  0  0  0  0  0
    7.4117   -0.6937   21.0090 C   0  0  0  0  0  0  0  0  0  0  0  0
    6.6463   -0.0056   19.8964 C   0  0  0  0  0  0  0  0  0  0  0  0
    5.4341    0.6558   20.1376 C   0  0  0  0  0  0  0  0  0  0  0  0
    4.7924    1.3192   19.0861 C   0  0  0  0  0  0  0  0  0  0  0  0
    5.3905    1.3046   17.8222 C   0  0  0  0  0  0  0  0  0  0  0  0
    6.5521    0.6849   17.5658 N   0  0  0  0  0  0  0  0  0  0  0  0
    7.1564    0.0620   18.5857 C   0  0  0  0  0  0  0  0  0  0  0  0
    8.1054   -0.4182   18.3476 H   0  0  0  0  0  0  0  0  0  0  0  0
    4.9217    1.8076   16.9765 H   0  0  0  0  0  0  0  0  0  0  0  0
    3.8619    1.8534   19.2358 H   0  0  0  0  0  0  0  0  0  0  0  0
    5.0125    0.6490   21.1463 H   0  0  0  0  0  0  0  0  0  0  0  0
    6.7573   -0.9207   21.8614 H   0  0  0  0  0  0  0  0  0  0  0  0
    7.8041   -1.6543   20.6600 H   0  0  0  0  0  0  0  0  0  0  0  0
    9.5816   -0.8600   22.4659 C   0  0  0  0  0  0  0  0  0  0  0  0
    9.0359   -1.2080   23.5312 O   0  0  0  0  0  0  0  0  0  0  0  0
   10.6880   -1.1114   21.9667 O   0  0  0  0  0  1  0  0  0  0  0  0
    9.2459    0.3754   20.6642 H   0  0  0  0  0  0  0  0  0  0  0  0
    7.4270    1.9596   21.5732 H   0  0  0  0  0  0  0  0  0  0  0  0
    7.6057    1.1537   23.0508 H   0  0  0  0  0  0  0  0  0  0  0  0
    9.8962    1.7204   23.2214 H   0  0  0  0  0  0  0  0  0  0  0  0
    9.8379    2.5543   21.6800 H   0  0  0  0  0  0  0  0  0  0  0  0
    8.3425    4.6376   22.5018 C   0  0  0  0  0  0  0  0  0  0  0  0
    7.8639    5.7732   23.0372 N   0  0  0  0  0  0  0  0  0  0  0  0
    8.4555    4.6543   21.4192 H   0  0  0  0  0  0  0  0  0  0  0  0
    8.7690    2.7065   25.2668 H   0  0  0  0  0  0  0  0  0  0  0  0
    7.8222    4.8722   26.2585 H   0  0  0  0  0  0  0  0  0  0  0  0
    7.7305    8.4641   23.6661 H   0  0  0  0  0  0  0  0  0  0  0  0
    6.5062    8.7472   24.9517 H   0  0  0  0  0  0  0  0  0  0  0  0
    6.0800    7.8306   23.4646 H   0  0  0  0  0  0  0  0  0  0  0  0
  1  2  1  0
  2  3  1  0
  3  4  2  0
  4  5  1  0
  5  6  2  0
  6  7  1  0
  7  8  1  0
  8  9  1  0
  9 10  1  0
 10 11  1  0
 11 12  2  0
 12 13  1  0
 13 14  2  0
 14 15  1  0
 15 16  2  0
 16 17  1  0
 14 18  1  0
 13 19  1  0
 12 20  1  0
 10 21  1  0
 10 22  1  0
  9 23  1  0
 23 24  2  0
 23 25  1  0
  9 26  1  0
  8 27  1  0
  8 28  1  0
  7 29  1  0
  7 30  1  0
  6 31  1  0
 31 32  2  0
 31 33  1  0
  5 34  1  0
  4 35  1  0
  1 36  1  0
  1 37  1  0
  1 38  1  0
 32  3  1  0
 16 11  1  0
M  CHG  2   8   1  25  -1
M  END
>  <plip>  (1) 
-0.0

>  <filename>  (1) 
[H][c]1[n][c]([H])[c]([C]([H])([H])[C]([H])([C](=[O])[O-])[N+]([H])([H])[C]([H])([H])[c]2[c]([H])[n][c]([O][C]([H])([H])[H])[c]([H])[c]2[H])[c]([H])[c]1[H]

$$$$
