
     RDKit          3D

 37 39  0  0  0  0  0  0  0  0999 V2000
    2.4124   -4.9389   23.4114 C   0  0  0  0  0  0  0  0  0  0  0  0
    3.6457   -5.6332   23.7548 N   0  0  0  0  0  0  0  0  0  0  0  0
    3.7599   -6.7642   24.5432 C   0  0  0  0  0  0  0  0  0  0  0  0
    4.9762   -7.0720   24.8900 N   0  0  0  0  0  0  0  0  0  0  0  0
    5.7405   -6.0672   24.2964 C   0  0  0  0  0  0  0  0  0  0  0  0
    7.0986   -5.6914   24.3110 C   0  0  0  0  0  0  0  0  0  0  0  0
    7.5425   -4.6413   23.6399 N   0  0  0  0  0  0  0  0  0  0  0  0
    6.6355   -3.9657   22.8949 C   0  0  0  0  0  0  0  0  0  0  0  0
    7.2332   -2.9923   22.1854 N   0  0  0  0  0  0  0  0  0  0  0  0
    6.5034   -1.9156   21.5393 C   0  0  0  0  0  0  0  0  0  0  0  0
    7.4106   -0.7977   20.9718 C   0  0  0  0  0  0  0  0  0  0  0  0
    7.8886    0.1713   22.0749 C   0  0  0  0  0  0  0  0  0  0  0  0
    8.7632   -0.4417   23.0063 O   0  0  0  0  0  0  0  0  0  0  0  0
    9.6473   -0.4522   22.6202 H   0  0  0  0  0  0  0  0  0  0  0  0
    8.3412    1.0651   21.6190 H   0  0  0  0  0  0  0  0  0  0  0  0
    7.0244    0.5261   22.6524 H   0  0  0  0  0  0  0  0  0  0  0  0
    6.6790   -0.0316   19.8684 C   0  0  0  0  0  0  0  0  0  0  0  0
    5.4662    0.6290   20.1176 C   0  0  0  0  0  0  0  0  0  0  0  0
    4.8286    1.3011   19.0722 C   0  0  0  0  0  0  0  0  0  0  0  0
    5.4221    1.3023   17.8072 C   0  0  0  0  0  0  0  0  0  0  0  0
    6.5794    0.6808   17.5400 N   0  0  0  0  0  0  0  0  0  0  0  0
    7.1792    0.0413   18.5543 C   0  0  0  0  0  0  0  0  0  0  0  0
    8.1210   -0.4510   18.3120 H   0  0  0  0  0  0  0  0  0  0  0  0
    4.9488    1.8262   16.9772 H   0  0  0  0  0  0  0  0  0  0  0  0
    3.8946    1.8275   19.2277 H   0  0  0  0  0  0  0  0  0  0  0  0
    5.0190    0.6261   21.1144 H   0  0  0  0  0  0  0  0  0  0  0  0
    8.3012   -1.2846   20.5489 H   0  0  0  0  0  0  0  0  0  0  0  0
    5.7826   -1.4473   22.2170 H   0  0  0  0  0  0  0  0  0  0  0  0
    5.9174   -2.3440   20.7165 H   0  0  0  0  0  0  0  0  0  0  0  0
    8.0986   -2.8391   22.6781 H   0  0  0  0  0  0  0  0  0  0  0  0
    5.3284   -4.1681   22.7992 N   0  0  0  0  0  0  0  0  0  0  0  0
    4.9332   -5.1949   23.5495 C   0  0  0  0  0  0  0  0  0  0  0  0
    7.8357   -6.2645   24.8784 H   0  0  0  0  0  0  0  0  0  0  0  0
    2.8912   -7.3432   24.8465 H   0  0  0  0  0  0  0  0  0  0  0  0
    2.3191   -3.9766   23.9286 H   0  0  0  0  0  0  0  0  0  0  0  0
    1.5620   -5.5642   23.6970 H   0  0  0  0  0  0  0  0  0  0  0  0
    2.3606   -4.7494   22.3394 H   0  0  0  0  0  0  0  0  0  0  0  0
  1  2  1  0
  2  3  1  0
  3  4  2  0
  4  5  1  0
  5  6  2  0
  6  7  1  0
  7  8  2  0
  8  9  1  0
  9 10  1  0
 10 11  1  0
 11 12  1  0
 12 13  1  0
 13 14  1  0
 12 15  1  0
 12 16  1  0
 11 17  1  0
 17 18  2  0
 18 19  1  0
 19 20  2  0
 20 21  1  0
 21 22  2  0
 22 23  1  0
 20 24  1  0
 19 25  1  0
 18 26  1  0
 11 27  1  0
 10 28  1  0
 10 29  1  0
  9 30  1  0
  8 31  1  0
 31 32  2  0
  6 33  1  0
  3 34  1  0
  1 35  1  0
  1 36  1  0
  1 37  1  0
 32  2  1  0
 32  5  1  0
 22 17  1  0
M  END
>  <plip>  (1) 
-0.1

>  <filename>  (1) 
[H][O][C]([H])([H])[C]([H])([c]1[c]([H])[n][c]([H])[c]([H])[c]1[H])[C]([H])([H])[N]([H])[c]1[n][c]([H])[c]2[n][c]([H])[n]([C]([H])([H])[H])[c]2[n]1

$$$$
