
     RDKit          3D

 42 44  0  0  0  0  0  0  0  0999 V2000
    6.8186   -0.7128   22.3459 C   0  0  0  0  0  0  0  0  0  0  0  0
    7.3988   -0.8173   20.9179 C   0  0  0  0  0  0  0  0  0  0  0  0
    7.5542   -2.2381   20.5845 N   0  0  0  0  0  0  0  0  0  0  0  0
    6.5115   -3.1329   20.5329 C   0  0  0  0  0  0  0  0  0  0  0  0
    5.3697   -2.8247   20.2593 O   0  0  0  0  0  0  0  0  0  0  0  0
    6.8825   -4.6401   20.7213 C   0  0  0  0  0  0  0  0  0  0  0  0
    5.7230   -5.5132   21.2162 C   0  0  0  0  0  0  0  0  0  0  0  0
    5.3366   -5.3504   22.6777 C   0  0  0  0  0  0  0  0  0  0  0  0
    6.3223   -5.8852   23.5604 O   0  0  0  0  0  0  0  0  0  0  0  0
    7.4178   -5.0832   23.7835 C   0  0  0  0  0  0  0  0  0  0  0  0
    7.7351   -4.8028   25.1205 C   0  0  0  0  0  0  0  0  0  0  0  0
    8.7744   -3.9280   25.4537 C   0  0  0  0  0  0  0  0  0  0  0  0
    9.5394   -3.3431   24.4401 C   0  0  0  0  0  0  0  0  0  0  0  0
    9.2692   -3.6565   23.1052 C   0  0  0  0  0  0  0  0  0  0  0  0
    8.2249   -4.5276   22.7594 C   0  0  0  0  0  0  0  0  0  0  0  0
    8.1138   -4.8668   21.4232 O   0  0  0  0  0  0  0  0  0  0  0  0
    9.8842   -3.2431   22.3094 H   0  0  0  0  0  0  0  0  0  0  0  0
   10.3225   -2.6218   24.6724 H   0  0  0  0  0  0  0  0  0  0  0  0
    8.9681   -3.6885   26.4974 H   0  0  0  0  0  0  0  0  0  0  0  0
    7.1303   -5.2844   25.8812 H   0  0  0  0  0  0  0  0  0  0  0  0
    4.4203   -5.9141   22.8821 H   0  0  0  0  0  0  0  0  0  0  0  0
    5.1412   -4.2955   22.9349 H   0  0  0  0  0  0  0  0  0  0  0  0
    5.9866   -6.5606   21.0462 H   0  0  0  0  0  0  0  0  0  0  0  0
    4.8589   -5.2982   20.5890 H   0  0  0  0  0  0  0  0  0  0  0  0
    7.0949   -4.9930   19.7146 H   0  0  0  0  0  0  0  0  0  0  0  0
    8.4275   -2.6622   20.8452 H   0  0  0  0  0  0  0  0  0  0  0  0
    9.0961    0.0478   21.0372 C   0  0  0  0  0  0  0  0  0  0  0  0
    9.9416   -0.7110   21.5070 O   0  0  0  0  0  0  0  0  0  0  0  0
    9.1062    1.2088   20.6490 O   0  0  0  0  0  1  0  0  0  0  0  0
    6.5804   -0.1466   19.8317 C   0  0  0  0  0  0  0  0  0  0  0  0
    5.4482    0.6395   20.0863 C   0  0  0  0  0  0  0  0  0  0  0  0
    4.8593    1.3483   19.0345 C   0  0  0  0  0  0  0  0  0  0  0  0
    5.4160    1.2296   17.7567 C   0  0  0  0  0  0  0  0  0  0  0  0
    6.4583    0.4382   17.4676 N   0  0  0  0  0  0  0  0  0  0  0  0
    7.0035   -0.2402   18.4895 C   0  0  0  0  0  0  0  0  0  0  0  0
    7.8499   -0.8793   18.2380 H   0  0  0  0  0  0  0  0  0  0  0  0
    4.9938    1.7789   16.9188 H   0  0  0  0  0  0  0  0  0  0  0  0
    4.0017    1.9897   19.2006 H   0  0  0  0  0  0  0  0  0  0  0  0
    5.0155    0.6631   21.0891 H   0  0  0  0  0  0  0  0  0  0  0  0
    7.5567   -1.0543   23.0815 H   0  0  0  0  0  0  0  0  0  0  0  0
    5.9592   -1.3835   22.4099 H   0  0  0  0  0  0  0  0  0  0  0  0
    6.5096    0.3060   22.6068 H   0  0  0  0  0  0  0  0  0  0  0  0
  1  2  1  0
  2  3  1  0
  3  4  1  0
  4  5  2  0
  4  6  1  0
  6  7  1  0
  7  8  1  0
  8  9  1  0
  9 10  1  0
 10 11  2  0
 11 12  1  0
 12 13  2  0
 13 14  1  0
 14 15  2  0
 15 16  1  0
 14 17  1  0
 13 18  1  0
 12 19  1  0
 11 20  1  0
  8 21  1  0
  8 22  1  0
  7 23  1  0
  7 24  1  0
  6 25  1  0
  3 26  1  0
  2 27  1  0
 27 28  2  0
 27 29  1  0
  2 30  1  0
 30 31  2  0
 31 32  1  0
 32 33  2  0
 33 34  1  0
 34 35  2  0
 35 36  1  0
 33 37  1  0
 32 38  1  0
 31 39  1  0
  1 40  1  0
  1 41  1  0
  1 42  1  0
 16  6  1  0
 35 30  1  0
 15 10  1  0
M  CHG  1  29  -1
M  END
>  <plip>  (1) 
-0.2

>  <filename>  (1) 
[H][c]1[n][c]([H])[c]([C]([C](=[O])[O-])([N]([H])[C](=[O])[C]2([H])[O][c]3[c]([H])[c]([H])[c]([H])[c]([H])[c]3[O][C]([H])([H])[C]2([H])[H])[C]([H])([H])[H])[c]([H])[c]1[H]

$$$$
