
     RDKit          3D

 34 36  0  0  0  0  0  0  0  0999 V2000
    9.4116    0.6977   20.7585 C   0  0  0  0  0  0  0  0  0  0  0  0
    8.6138   -0.3974   21.4177 C   0  0  0  0  0  0  0  0  0  0  0  0
    9.1616   -1.2218   22.4006 C   0  0  0  0  0  0  0  0  0  0  0  0
    8.5023   -2.2202   22.9760 N   0  0  0  0  0  0  0  0  0  0  0  0
    7.2375   -2.4172   22.5873 C   0  0  0  0  0  0  0  0  0  0  0  0
    6.4487   -3.4894   23.2823 C   0  0  0  0  0  0  0  0  0  0  0  0
    5.1114   -3.7379   22.9139 C   0  0  0  0  0  0  0  0  0  0  0  0
    4.3770   -4.7356   23.5504 C   0  0  0  0  0  0  0  0  0  0  0  0
    4.9601   -5.4949   24.5637 C   0  0  0  0  0  0  0  0  0  0  0  0
    4.0136   -6.7413   25.3392 Cl  0  0  0  0  0  0  0  0  0  0  0  0
    6.2952   -5.2683   24.9652 C   0  0  0  0  0  0  0  0  0  0  0  0
    6.9016   -5.9924   25.9510 N   0  0  0  0  0  0  0  0  0  0  0  0
    7.8490   -5.7849   26.2092 H   0  0  0  0  0  0  0  0  0  0  0  0
    6.3837   -6.7084   26.4268 H   0  0  0  0  0  0  0  0  0  0  0  0
    7.0188   -4.2603   24.3125 C   0  0  0  0  0  0  0  0  0  0  0  0
    8.0441   -4.1047   24.6450 H   0  0  0  0  0  0  0  0  0  0  0  0
    3.3470   -4.9406   23.2772 H   0  0  0  0  0  0  0  0  0  0  0  0
    4.6537   -3.1372   22.1310 H   0  0  0  0  0  0  0  0  0  0  0  0
    6.6265   -1.7312   21.6123 N   0  0  0  0  0  0  0  0  0  0  0  0
    7.3111   -0.7534   21.0226 C   0  0  0  0  0  0  0  0  0  0  0  0
    6.6129   -0.0375   19.9285 C   0  0  0  0  0  0  0  0  0  0  0  0
    5.4056    0.6272   20.1661 C   0  0  0  0  0  0  0  0  0  0  0  0
    4.8039    1.3100   19.1106 C   0  0  0  0  0  0  0  0  0  0  0  0
    5.4147    1.2857   17.8519 C   0  0  0  0  0  0  0  0  0  0  0  0
    6.5682    0.6481   17.6100 N   0  0  0  0  0  0  0  0  0  0  0  0
    7.1501    0.0126   18.6339 C   0  0  0  0  0  0  0  0  0  0  0  0
    8.1060   -0.4567   18.3947 H   0  0  0  0  0  0  0  0  0  0  0  0
    4.9650    1.7903   16.9999 H   0  0  0  0  0  0  0  0  0  0  0  0
    3.8762    1.8534   19.2409 H   0  0  0  0  0  0  0  0  0  0  0  0
    4.9617    0.6116   21.1646 H   0  0  0  0  0  0  0  0  0  0  0  0
   10.1979   -1.0776   22.7253 H   0  0  0  0  0  0  0  0  0  0  0  0
    9.7476    0.3163   19.7956 H   0  0  0  0  0  0  0  0  0  0  0  0
   10.2837    0.9959   21.3468 H   0  0  0  0  0  0  0  0  0  0  0  0
    8.7970    1.5820   20.5549 H   0  0  0  0  0  0  0  0  0  0  0  0
  1  2  1  0
  2  3  2  0
  3  4  1  0
  4  5  2  0
  5  6  1  0
  6  7  2  0
  7  8  1  0
  8  9  2  0
  9 10  1  0
  9 11  1  0
 11 12  1  0
 12 13  1  0
 12 14  1  0
 11 15  2  0
 15 16  1  0
  8 17  1  0
  7 18  1  0
  5 19  1  0
 19 20  2  0
 20 21  1  0
 21 22  2  0
 22 23  1  0
 23 24  2  0
 24 25  1  0
 25 26  2  0
 26 27  1  0
 24 28  1  0
 23 29  1  0
 22 30  1  0
  3 31  1  0
  1 32  1  0
  1 33  1  0
  1 34  1  0
 20  2  1  0
 26 21  1  0
 15  6  1  0
M  END
>  <plip>  (1) 
-0.034482758620689655

>  <filename>  (1) 
[H][c]1[n][c]([H])[c](-[c]2[n][c](-[c]3[c]([H])[c]([H])[c]([Cl])[c]([N]([H])[H])[c]3[H])[n][c]([H])[c]2[C]([H])([H])[H])[c]([H])[c]1[H]

$$$$
