
     RDKit          3D

 42 43  0  0  0  0  0  0  0  0999 V2000
    8.7181   -2.0515   20.9738 H   0  0  0  0  0  0  0  0  0  0  0  0
    8.5988   -1.2094   20.4958 O   0  0  0  0  0  0  0  0  0  0  0  0
    7.3901   -0.6513   20.9795 C   0  0  2  0  0  0  0  0  0  0  0  0
    6.7028    0.1051   19.8539 C   0  0  0  0  0  0  0  0  0  0  0  0
    7.2322    0.0853   18.5582 C   0  0  0  0  0  0  0  0  0  0  0  0
    8.1823   -0.4132   18.3789 H   0  0  0  0  0  0  0  0  0  0  0  0
    6.6473    0.6541   17.4940 N   0  0  0  0  0  0  0  0  0  0  0  0
    5.4896    1.2972   17.6994 C   0  0  0  0  0  0  0  0  0  0  0  0
    5.0266    1.7538   16.8251 H   0  0  0  0  0  0  0  0  0  0  0  0
    4.8844    1.4063   18.9545 C   0  0  0  0  0  0  0  0  0  0  0  0
    3.9513    1.9475   19.0616 H   0  0  0  0  0  0  0  0  0  0  0  0
    5.5031    0.8083   20.0521 C   0  0  0  0  0  0  0  0  0  0  0  0
    5.0615    0.8966   21.0483 H   0  0  0  0  0  0  0  0  0  0  0  0
    7.7381    0.3119   22.1253 C   0  0  0  0  0  0  0  0  0  0  0  0
    8.3364    1.1354   21.7237 H   0  0  0  0  0  0  0  0  0  0  0  0
    8.3356   -0.1920   22.8928 H   0  0  0  0  0  0  0  0  0  0  0  0
    6.8423    0.7317   22.5969 H   0  0  0  0  0  0  0  0  0  0  0  0
    6.4634   -1.8065   21.4039 C   0  0  0  0  0  0  0  0  0  0  0  0
    6.3002   -2.4126   20.5053 H   0  0  0  0  0  0  0  0  0  0  0  0
    5.4857   -1.4021   21.6587 H   0  0  0  0  0  0  0  0  0  0  0  0
    6.9828   -2.6736   22.5434 C   0  0  0  0  0  0  0  0  0  0  0  0
    7.4121   -2.0310   23.3251 H   0  0  0  0  0  0  0  0  0  0  0  0
    6.1501   -3.1996   23.0458 H   0  0  0  0  0  0  0  0  0  0  0  0
    8.0428   -3.6082   22.0877 N   0  0  0  0  0  0  0  0  0  0  0  0
    8.6770   -4.2281   23.2580 C   0  0  0  0  0  0  0  0  0  0  0  0
    9.3725   -3.5224   23.7189 H   0  0  0  0  0  0  0  0  0  0  0  0
    7.9553   -4.5587   24.0286 H   0  0  0  0  0  0  0  0  0  0  0  0
    9.2495   -5.1160   22.9780 H   0  0  0  0  0  0  0  0  0  0  0  0
    7.5589   -4.6605   21.1602 C   0  0  0  0  0  0  0  0  0  0  0  0
    8.4216   -5.2724   20.8723 H   0  0  0  0  0  0  0  0  0  0  0  0
    7.1887   -4.1940   20.2463 H   0  0  0  0  0  0  0  0  0  0  0  0
    6.4574   -5.5410   21.6953 C   0  0  0  0  0  0  0  0  0  0  0  0
    5.1367   -5.0602   21.6966 C   0  0  0  0  0  0  0  0  0  0  0  0
    4.9237   -4.0508   21.3552 H   0  0  0  0  0  0  0  0  0  0  0  0
    4.1062   -5.8074   22.2597 C   0  0  0  0  0  0  0  0  0  0  0  0
    3.0922   -5.4253   22.2475 H   0  0  0  0  0  0  0  0  0  0  0  0
    4.3873   -7.0431   22.8410 C   0  0  0  0  0  0  0  0  0  0  0  0
    3.5841   -7.6368   23.2614 H   0  0  0  0  0  0  0  0  0  0  0  0
    5.6918   -7.5457   22.8086 C   0  0  0  0  0  0  0  0  0  0  0  0
    5.8969   -8.5346   23.1953 H   0  0  0  0  0  0  0  0  0  0  0  0
    6.7218   -6.8111   22.2252 C   0  0  0  0  0  0  0  0  0  0  0  0
    7.7340   -7.2185   22.2020 H   0  0  0  0  0  0  0  0  0  0  0  0
  1  2  1  0
  3  2  1  6
  3  4  1  0
  4  5  2  0
  5  6  1  0
  5  7  1  0
  7  8  2  0
  8  9  1  0
  8 10  1  0
 10 11  1  0
 10 12  2  0
 12 13  1  0
  3 14  1  0
 14 15  1  0
 14 16  1  0
 14 17  1  0
  3 18  1  0
 18 19  1  0
 18 20  1  0
 18 21  1  0
 21 22  1  0
 21 23  1  0
 21 24  1  0
 24 25  1  0
 25 26  1  0
 25 27  1  0
 25 28  1  0
 24 29  1  0
 29 30  1  0
 29 31  1  0
 29 32  1  0
 32 33  2  0
 33 34  1  0
 33 35  1  0
 35 36  1  0
 35 37  2  0
 37 38  1  0
 37 39  1  0
 39 40  1  0
 39 41  2  0
 41 42  1  0
 12  4  1  0
 41 32  1  0
M  END
>  <plip>  (1) 
-0.06666666666666667

>  <filename>  (1) 
[H][O][C@]([c]1[c]([H])[n][c]([H])[c]([H])[c]1[H])([C]([H])([H])[H])[C]([H])([H])[C]([H])([H])[N]([C]([H])([H])[H])[C]([H])([H])[c]1[c]([H])[c]([H])[c]([H])[c]([H])[c]1[H]

$$$$
