
     RDKit          3D

 39 42  0  0  0  0  0  0  0  0999 V2000
    5.2184    1.5925   17.1396 H   0  0  0  0  0  0  0  0  0  0  0  0
    5.5748    1.0431   18.0081 C   0  0  0  0  0  0  0  0  0  0  0  0
    6.6328    0.2396   17.8156 N   0  0  0  0  0  0  0  0  0  0  0  0
    7.1075   -0.4245   18.8742 C   0  0  0  0  0  0  0  0  0  0  0  0
    7.9769   -1.0553   18.6921 H   0  0  0  0  0  0  0  0  0  0  0  0
    6.5744   -0.3098   20.1631 C   0  0  0  0  0  0  0  0  0  0  0  0
    7.2239   -1.0115   21.2598 C   0  0  0  0  0  0  0  0  0  0  0  0
    6.5888   -2.0277   21.9316 N   0  0  0  0  0  0  0  0  0  0  0  0
    7.4547   -2.4543   22.8047 C   0  0  0  0  0  0  0  0  0  0  0  0
    8.6242   -1.7449   22.7810 N   0  0  0  0  0  0  0  0  0  0  0  0
    8.4823   -0.8442   21.7630 C   0  0  0  0  0  0  0  0  0  0  0  0
    9.5621    0.4186   21.2853 S   0  0  0  0  0  0  0  0  0  0  0  0
   10.8697    0.1177   21.8347 O   0  0  0  0  0  0  0  0  0  0  0  0
    9.3344    0.6519   19.8826 O   0  0  0  0  0  0  0  0  0  0  0  0
    8.9904    1.7307   22.0964 N   0  0  0  0  0  0  0  0  0  0  0  0
    7.6787    2.3053   21.7715 C   0  0  0  0  0  0  0  0  0  0  0  0
    6.8877    1.7679   22.3126 H   0  0  0  0  0  0  0  0  0  0  0  0
    7.4755    2.2556   20.7029 H   0  0  0  0  0  0  0  0  0  0  0  0
    7.6651    3.7733   22.2098 C   0  0  0  0  0  0  0  0  0  0  0  0
    8.4277    4.3178   21.6294 H   0  0  0  0  0  0  0  0  0  0  0  0
    6.6926    4.2336   22.0055 H   0  0  0  0  0  0  0  0  0  0  0  0
    7.9137    3.8893   23.6083 O   0  0  0  0  0  0  0  0  0  0  0  0
    9.1816    3.3441   23.9587 C   0  0  0  0  0  0  0  0  0  0  0  0
    9.2497    3.3822   25.0499 H   0  0  0  0  0  0  0  0  0  0  0  0
    9.9842    3.9673   23.5335 H   0  0  0  0  0  0  0  0  0  0  0  0
    9.3566    1.8822   23.5079 C   0  0  0  0  0  0  0  0  0  0  0  0
    8.7373    1.2304   24.1397 H   0  0  0  0  0  0  0  0  0  0  0  0
   10.4016    1.5912   23.6318 H   0  0  0  0  0  0  0  0  0  0  0  0
    9.7229   -2.1329   23.6416 C   0  0  0  0  0  0  0  0  0  0  0  0
   10.5026   -2.6379   23.0596 H   0  0  0  0  0  0  0  0  0  0  0  0
   10.1773   -1.2529   24.1064 H   0  0  0  0  0  0  0  0  0  0  0  0
    9.0856   -3.0705   24.6908 C   0  0  0  0  0  0  0  0  0  0  0  0
    9.7409   -3.9013   24.9588 H   0  0  0  0  0  0  0  0  0  0  0  0
    8.8237   -2.5311   25.6040 H   0  0  0  0  0  0  0  0  0  0  0  0
    7.5306   -3.7539   23.9734 S   0  0  0  0  0  0  0  0  0  0  0  0
    5.4297    0.4811   20.3385 C   0  0  0  0  0  0  0  0  0  0  0  0
    4.9603    0.5541   21.3215 H   0  0  0  0  0  0  0  0  0  0  0  0
    4.9436    1.1933   19.2446 C   0  0  0  0  0  0  0  0  0  0  0  0
    4.1028    1.8685   19.3490 H   0  0  0  0  0  0  0  0  0  0  0  0
  1  2  1  0
  2  3  2  0
  3  4  1  0
  4  5  1  0
  4  6  2  0
  6  7  1  0
  7  8  1  0
  8  9  2  0
  9 10  1  0
 10 11  1  0
 11 12  1  0
 12 13  2  0
 12 14  2  0
 12 15  1  0
 15 16  1  0
 16 17  1  0
 16 18  1  0
 16 19  1  0
 19 20  1  0
 19 21  1  0
 19 22  1  0
 22 23  1  0
 23 24  1  0
 23 25  1  0
 23 26  1  0
 26 27  1  0
 26 28  1  0
 10 29  1  0
 29 30  1  0
 29 31  1  0
 29 32  1  0
 32 33  1  0
 32 34  1  0
 32 35  1  0
  6 36  1  0
 36 37  1  0
 36 38  2  0
 38 39  1  0
 38  2  1  0
 11  7  2  0
 26 15  1  0
 35  9  1  0
M  END
>  <plip>  (1) 
-0.07142857142857142

>  <filename>  (1) 
[H][c]1[n][c]([H])[c](-[c]2[n][c]3[n]([c]2[S](=[O])(=[O])[N]2[C]([H])([H])[C]([H])([H])[O][C]([H])([H])[C]2([H])[H])[C]([H])([H])[C]([H])([H])[S]3)[c]([H])[c]1[H]

$$$$
