
     RDKit          3D

 43 45  0  0  0  0  0  0  0  0999 V2000
    7.7741    5.6726   21.7493 C   0  0  0  0  0  0  0  0  0  0  0  0
    7.9716    4.2782   21.9255 O   0  0  0  0  0  0  0  0  0  0  0  0
    9.0217    3.8157   22.6571 C   0  0  0  0  0  0  0  0  0  0  0  0
    9.9378    4.6507   23.3106 C   0  0  0  0  0  0  0  0  0  0  0  0
   10.9706    4.0848   24.0653 C   0  0  0  0  0  0  0  0  0  0  0  0
   11.8193    4.9419   24.6814 O   0  0  0  0  0  0  0  0  0  0  0  0
   12.4736    4.3999   25.1355 H   0  0  0  0  0  0  0  0  0  0  0  0
   11.1142    2.7038   24.1824 C   0  0  0  0  0  0  0  0  0  0  0  0
   10.2118    1.8718   23.5147 C   0  0  0  0  0  0  0  0  0  0  0  0
    9.1712    2.3976   22.7512 C   0  0  0  0  0  0  0  0  0  0  0  0
    8.2776    1.4882   22.1278 N   0  0  0  0  0  0  0  0  0  0  0  0
    8.6602    0.3231   21.4992 C   0  0  0  0  0  0  0  0  0  0  0  0
    9.8268    0.0344   21.2914 O   0  0  0  0  0  0  0  0  0  0  0  0
    7.4773   -0.5991   21.0574 C   0  0  0  0  0  0  0  0  0  0  0  0
    6.6686    0.0599   19.9205 C   0  0  0  0  0  0  0  0  0  0  0  0
    5.4321    0.6863   20.1384 C   0  0  0  0  0  0  0  0  0  0  0  0
    4.7859    1.3290   19.0789 C   0  0  0  0  0  0  0  0  0  0  0  0
    5.3785    1.3038   17.8153 C   0  0  0  0  0  0  0  0  0  0  0  0
    6.5364    0.6728   17.5650 N   0  0  0  0  0  0  0  0  0  0  0  0
    7.1512    0.0749   18.5923 C   0  0  0  0  0  0  0  0  0  0  0  0
    8.0930   -0.4204   18.3447 H   0  0  0  0  0  0  0  0  0  0  0  0
    4.9136    1.8070   16.9691 H   0  0  0  0  0  0  0  0  0  0  0  0
    3.8512    1.8579   19.2265 H   0  0  0  0  0  0  0  0  0  0  0  0
    4.9729    0.6573   21.1252 H   0  0  0  0  0  0  0  0  0  0  0  0
    6.6073   -1.0793   22.2613 C   0  0  0  0  0  0  0  0  0  0  0  0
    7.3959   -2.2068   22.9562 C   0  0  0  0  0  0  0  0  0  0  0  0
    8.2640   -2.8441   21.8453 C   0  0  0  0  0  0  0  0  0  0  0  0
    8.0070   -1.9779   20.6006 C   0  0  0  0  0  0  0  0  0  0  0  0
    8.8977   -1.8565   19.9770 H   0  0  0  0  0  0  0  0  0  0  0  0
    7.1899   -2.4274   20.0203 H   0  0  0  0  0  0  0  0  0  0  0  0
    9.3261   -2.8447   22.1147 H   0  0  0  0  0  0  0  0  0  0  0  0
    7.9989   -3.8907   21.6433 H   0  0  0  0  0  0  0  0  0  0  0  0
    8.0343   -1.7982   23.7489 H   0  0  0  0  0  0  0  0  0  0  0  0
    6.7207   -2.9290   23.4357 H   0  0  0  0  0  0  0  0  0  0  0  0
    6.3177   -0.2733   22.9474 H   0  0  0  0  0  0  0  0  0  0  0  0
    5.6945   -1.5052   21.8222 H   0  0  0  0  0  0  0  0  0  0  0  0
    7.3576    1.8369   21.8999 H   0  0  0  0  0  0  0  0  0  0  0  0
   10.2904    0.7919   23.5680 H   0  0  0  0  0  0  0  0  0  0  0  0
   11.9209    2.2722   24.7709 H   0  0  0  0  0  0  0  0  0  0  0  0
    9.8832    5.7321   23.2618 H   0  0  0  0  0  0  0  0  0  0  0  0
    7.5739    6.1773   22.7069 H   0  0  0  0  0  0  0  0  0  0  0  0
    6.8966    5.7300   21.1036 H   0  0  0  0  0  0  0  0  0  0  0  0
    8.6333    6.1559   21.2594 H   0  0  0  0  0  0  0  0  0  0  0  0
  1  2  1  0
  2  3  1  0
  3  4  2  0
  4  5  1  0
  5  6  1  0
  6  7  1  0
  5  8  2  0
  8  9  1  0
  9 10  2  0
 10 11  1  0
 11 12  1  0
 12 13  2  0
 12 14  1  0
 14 15  1  0
 15 16  2  0
 16 17  1  0
 17 18  2  0
 18 19  1  0
 19 20  2  0
 20 21  1  0
 18 22  1  0
 17 23  1  0
 16 24  1  0
 14 25  1  0
 25 26  1  0
 26 27  1  0
 27 28  1  0
 28 29  1  0
 28 30  1  0
 27 31  1  0
 27 32  1  0
 26 33  1  0
 26 34  1  0
 25 35  1  0
 25 36  1  0
 11 37  1  0
  9 38  1  0
  8 39  1  0
  4 40  1  0
  1 41  1  0
  1 42  1  0
  1 43  1  0
 10  3  1  0
 28 14  1  0
 20 15  1  0
M  END
>  <plip>  (1) 
-0.14285714285714285

>  <filename>  (1) 
[H][O][c]1[c]([H])[c]([H])[c]([N]([H])[C](=[O])[C]2([c]3[c]([H])[n][c]([H])[c]([H])[c]3[H])[C]([H])([H])[C]([H])([H])[C]([H])([H])[C]2([H])[H])[c]([O][C]([H])([H])[H])[c]1[H]

$$$$
