
     RDKit          3D

 37 40  0  0  0  0  0  0  0  0999 V2000
    5.0038    1.7501   17.0394 H   0  0  0  0  0  0  0  0  0  0  0  0
    5.4604    1.2686   17.8993 C   0  0  0  0  0  0  0  0  0  0  0  0
    6.6222    0.6345   17.6797 N   0  0  0  0  0  0  0  0  0  0  0  0
    7.1840    0.0118   18.7194 C   0  0  0  0  0  0  0  0  0  0  0  0
    8.1269   -0.5033   18.5324 H   0  0  0  0  0  0  0  0  0  0  0  0
    6.6367    0.0034   20.0069 C   0  0  0  0  0  0  0  0  0  0  0  0
    7.4181   -0.7764   21.0047 C   0  0  0  0  0  0  0  0  0  0  0  0
    8.1559   -1.6898   20.6661 O   0  0  0  0  0  0  0  0  0  0  0  0
    7.3091   -0.3437   22.2901 N   0  0  0  0  0  0  0  0  0  0  0  0
    6.6678    0.4162   22.4089 H   0  0  0  0  0  0  0  0  0  0  0  0
    7.6023   -1.1399   23.4542 C   0  0  0  0  0  0  0  0  0  0  0  0
    6.5004   -1.9918   23.9943 C   0  0  0  0  0  0  0  0  0  0  0  0
    5.6249   -1.4386   24.9006 C   0  0  0  0  0  0  0  0  0  0  0  0
    5.7553   -0.4022   25.2055 H   0  0  0  0  0  0  0  0  0  0  0  0
    4.5610   -2.0727   25.4633 N   0  0  0  0  0  0  0  0  0  0  0  0
    4.3602   -3.3263   25.1231 C   0  0  0  0  0  0  0  0  0  0  0  0
    3.5026   -3.8331   25.5713 H   0  0  0  0  0  0  0  0  0  0  0  0
    5.1896   -4.0522   24.2143 C   0  0  0  0  0  0  0  0  0  0  0  0
    4.9591   -5.4272   23.8985 C   0  0  0  0  0  0  0  0  0  0  0  0
    4.1222   -5.9501   24.3569 H   0  0  0  0  0  0  0  0  0  0  0  0
    5.7914   -6.0954   23.0347 C   0  0  0  0  0  0  0  0  0  0  0  0
    5.6169   -7.1445   22.8018 H   0  0  0  0  0  0  0  0  0  0  0  0
    6.8852   -5.4195   22.4317 C   0  0  0  0  0  0  0  0  0  0  0  0
    7.5414   -5.9685   21.7604 H   0  0  0  0  0  0  0  0  0  0  0  0
    7.1184   -4.0855   22.6981 C   0  0  0  0  0  0  0  0  0  0  0  0
    7.9275   -3.5636   22.1957 H   0  0  0  0  0  0  0  0  0  0  0  0
    6.2895   -3.3638   23.6148 C   0  0  0  0  0  0  0  0  0  0  0  0
    8.4884   -0.4520   24.4614 C   0  0  0  0  0  0  0  0  0  0  0  0
    8.7847    0.5683   24.2412 H   0  0  0  0  0  0  0  0  0  0  0  0
    8.2842   -0.6585   25.5104 H   0  0  0  0  0  0  0  0  0  0  0  0
    9.0311   -1.5593   23.6072 C   0  0  0  0  0  0  0  0  0  0  0  0
    9.2135   -2.5301   24.0595 H   0  0  0  0  0  0  0  0  0  0  0  0
    9.6496   -1.3015   22.7567 H   0  0  0  0  0  0  0  0  0  0  0  0
    5.4207    0.6754   20.2269 C   0  0  0  0  0  0  0  0  0  0  0  0
    4.9252    0.6930   21.2031 H   0  0  0  0  0  0  0  0  0  0  0  0
    4.8207    1.3104   19.1429 C   0  0  0  0  0  0  0  0  0  0  0  0
    3.8772    1.8349   19.2504 H   0  0  0  0  0  0  0  0  0  0  0  0
  1  2  1  0
  2  3  2  0
  3  4  1  0
  4  5  1  0
  4  6  2  0
  6  7  1  0
  7  8  2  0
  7  9  1  0
  9 10  1  0
  9 11  1  0
 11 12  1  0
 12 13  2  0
 13 14  1  0
 13 15  1  0
 15 16  2  0
 16 17  1  0
 16 18  1  0
 18 19  2  0
 19 20  1  0
 19 21  1  0
 21 22  1  0
 21 23  2  0
 23 24  1  0
 23 25  1  0
 25 26  1  0
 25 27  2  0
 11 28  1  0
 28 29  1  0
 28 30  1  0
 28 31  1  0
 31 32  1  0
 31 33  1  0
  6 34  1  0
 34 35  1  0
 34 36  2  0
 36 37  1  0
 36  2  1  0
 31 11  1  0
 27 12  1  0
 27 18  1  0
M  END
>  <plip>  (1) 
-0.06896551724137931

>  <filename>  (1) 
[H][c]1[n][c]([H])[c]([C](=[O])[N]([H])[C]2([c]3[c]([H])[n][c]([H])[c]4[c]([H])[c]([H])[c]([H])[c]([H])[c]34)[C]([H])([H])[C]2([H])[H])[c]([H])[c]1[H]

$$$$
