
     RDKit          3D

 28 29  0  0  0  0  0  0  0  0999 V2000
    4.9131    1.8099   16.9945 H   0  0  0  0  0  0  0  0  0  0  0  0
    5.3883    1.3140   17.8375 C   0  0  0  0  0  0  0  0  0  0  0  0
    6.5503    0.6976   17.5759 N   0  0  0  0  0  0  0  0  0  0  0  0
    7.1584    0.0898   18.6038 C   0  0  0  0  0  0  0  0  0  0  0  0
    8.1046   -0.3960   18.3651 H   0  0  0  0  0  0  0  0  0  0  0  0
    6.6604    0.0573   19.9317 C   0  0  0  0  0  0  0  0  0  0  0  0
    7.3649   -0.6904   21.0196 C   0  0  0  0  0  0  0  0  0  0  0  0
    7.8257   -1.9924   21.1125 C   0  0  0  0  0  0  0  0  0  0  0  0
    7.6978   -2.8267   20.4485 H   0  0  0  0  0  0  0  0  0  0  0  0
    8.4556   -2.1662   22.3015 N   0  0  0  0  0  0  0  0  0  0  0  0
    8.4005   -1.0657   22.9734 N   0  0  0  0  0  0  0  0  0  0  0  0
    7.7333   -0.1621   22.2291 N   0  0  0  0  0  0  0  0  0  0  0  0
    7.3314    1.0931   22.8395 C   0  0  0  0  0  0  0  0  0  0  0  0
    8.1482    1.4267   23.4970 H   0  0  0  0  0  0  0  0  0  0  0  0
    7.2461    1.8221   22.0297 H   0  0  0  0  0  0  0  0  0  0  0  0
    6.0475    0.9768   23.5207 N   0  0  0  0  0  0  0  0  0  0  0  0
    6.0834    0.2497   24.2305 H   0  0  0  0  0  0  0  0  0  0  0  0
    5.4703    2.2162   24.0116 C   0  0  0  0  0  0  0  0  0  0  0  0
    4.4636    1.9900   24.3844 H   0  0  0  0  0  0  0  0  0  0  0  0
    5.3184    2.8729   23.1440 H   0  0  0  0  0  0  0  0  0  0  0  0
    6.2865    2.9387   25.0824 C   0  0  0  0  0  0  0  0  0  0  0  0
    7.2718    3.2144   24.6924 H   0  0  0  0  0  0  0  0  0  0  0  0
    6.4359    2.2889   25.9518 H   0  0  0  0  0  0  0  0  0  0  0  0
    5.7942    3.8582   25.4181 H   0  0  0  0  0  0  0  0  0  0  0  0
    5.4382    0.7154   20.1667 C   0  0  0  0  0  0  0  0  0  0  0  0
    5.0178    0.7236   21.1753 H   0  0  0  0  0  0  0  0  0  0  0  0
    4.7879    1.3419   19.0981 C   0  0  0  0  0  0  0  0  0  0  0  0
    3.8364    1.8498   19.2258 H   0  0  0  0  0  0  0  0  0  0  0  0
  1  2  1  0
  2  3  2  0
  3  4  1  0
  4  5  1  0
  4  6  2  0
  6  7  1  0
  7  8  2  0
  8  9  1  0
  8 10  1  0
 10 11  2  0
 11 12  1  0
 12 13  1  0
 13 14  1  0
 13 15  1  0
 13 16  1  0
 16 17  1  0
 16 18  1  0
 18 19  1  0
 18 20  1  0
 18 21  1  0
 21 22  1  0
 21 23  1  0
 21 24  1  0
  6 25  1  0
 25 26  1  0
 25 27  2  0
 27 28  1  0
 27  2  1  0
 12  7  1  0
M  END
>  <plip>  (1) 
-0.06896551724137931

>  <filename>  (1) 
[H][c]1[n][c]([H])[c](-[c]2[c]([H])[n][n][n]2[C]([H])([H])[N]([H])[C]([H])([H])[C]([H])([H])[H])[c]([H])[c]1[H]

$$$$
