
     RDKit          3D

 44 46  0  0  0  0  0  0  0  0999 V2000
    4.6195    2.9440   23.5070 C   0  0  0  0  0  0  0  0  0  0  0  0
    5.6269    2.8012   24.4666 C   0  0  0  0  0  0  0  0  0  0  0  0
    6.9350    3.2184   24.1827 C   0  0  0  0  0  0  0  0  0  0  0  0
    7.2472    3.7782   22.9331 C   0  0  0  0  0  0  0  0  0  0  0  0
    8.6688    4.1397   22.5435 C   0  0  0  0  0  0  0  0  0  0  0  0
    9.1968    3.1699   21.6521 O   0  0  0  0  0  0  0  0  0  0  0  0
    9.7855    2.0047   22.1919 C   0  0  2  0  0  0  0  0  0  0  0  0
   11.3086    2.0184   22.0504 C   0  0  0  0  0  0  0  0  0  0  0  0
   11.6709    0.5299   22.1872 C   0  0  0  0  0  0  0  0  0  0  0  0
   10.5162   -0.2248   21.4677 C   0  0  0  0  0  0  0  0  0  0  0  0
    9.3473    0.7791   21.3851 C   0  0  1  0  0  0  0  0  0  0  0  0
    7.9789    0.2390   21.8775 N   0  0  0  0  0  4  0  0  0  0  0  0
    7.3113   -0.7719   21.0131 C   0  0  0  0  0  0  0  0  0  0  0  0
    6.5797   -0.0221   19.9254 C   0  0  0  0  0  0  0  0  0  0  0  0
    5.3789    0.6653   20.1495 C   0  0  0  0  0  0  0  0  0  0  0  0
    4.7838    1.3358   19.0784 C   0  0  0  0  0  0  0  0  0  0  0  0
    5.4247    1.3284   17.8345 C   0  0  0  0  0  0  0  0  0  0  0  0
    6.5879    0.7059   17.6082 N   0  0  0  0  0  0  0  0  0  0  0  0
    7.1442    0.0663   18.6446 C   0  0  0  0  0  0  0  0  0  0  0  0
    8.1038   -0.4135   18.4495 H   0  0  0  0  0  0  0  0  0  0  0  0
    4.9855    1.8450   16.9837 H   0  0  0  0  0  0  0  0  0  0  0  0
    3.8550    1.8865   19.1868 H   0  0  0  0  0  0  0  0  0  0  0  0
    4.9207    0.6866   21.1451 H   0  0  0  0  0  0  0  0  0  0  0  0
    6.6296   -1.3860   21.6108 H   0  0  0  0  0  0  0  0  0  0  0  0
    8.0610   -1.4434   20.5764 H   0  0  0  0  0  0  0  0  0  0  0  0
    8.1344   -0.0919   22.8527 H   0  0  0  0  0  0  0  0  0  0  0  0
    7.3252    1.0699   21.9133 H   0  0  0  0  0  0  0  0  0  0  0  0
    9.2175    1.1262   20.3627 H   0  0  0  0  0  0  0  0  0  0  0  0
   10.7932   -0.5867   20.4729 H   0  0  0  0  0  0  0  0  0  0  0  0
   10.2253   -1.1072   22.0412 H   0  0  0  0  0  0  0  0  0  0  0  0
   11.6472    0.2617   23.2522 H   0  0  0  0  0  0  0  0  0  0  0  0
   12.6673    0.2639   21.8276 H   0  0  0  0  0  0  0  0  0  0  0  0
   11.7800    2.6671   22.7979 H   0  0  0  0  0  0  0  0  0  0  0  0
   11.5583    2.4218   21.0571 H   0  0  0  0  0  0  0  0  0  0  0  0
    9.5020    1.8363   23.2475 H   0  0  0  0  0  0  0  0  0  0  0  0
    8.6880    5.0688   21.9605 H   0  0  0  0  0  0  0  0  0  0  0  0
    9.3090    4.2852   23.4301 H   0  0  0  0  0  0  0  0  0  0  0  0
    6.2271    3.9138   21.9755 C   0  0  0  0  0  0  0  0  0  0  0  0
    4.9240    3.4995   22.2579 C   0  0  0  0  0  0  0  0  0  0  0  0
    4.1567    3.6144   21.4951 H   0  0  0  0  0  0  0  0  0  0  0  0
    6.4508    4.3630   21.0100 H   0  0  0  0  0  0  0  0  0  0  0  0
    7.7075    3.1188   24.9448 H   0  0  0  0  0  0  0  0  0  0  0  0
    5.4005    2.3676   25.4366 H   0  0  0  0  0  0  0  0  0  0  0  0
    3.6052    2.6294   23.7340 H   0  0  0  0  0  0  0  0  0  0  0  0
  1  2  2  0
  2  3  1  0
  3  4  2  0
  4  5  1  0
  5  6  1  0
  6  7  1  0
  7  8  1  0
  8  9  1  0
  9 10  1  0
 10 11  1  0
 11 12  1  0
 12 13  1  0
 13 14  1  0
 14 15  2  0
 15 16  1  0
 16 17  2  0
 17 18  1  0
 18 19  2  0
 19 20  1  0
 17 21  1  0
 16 22  1  0
 15 23  1  0
 13 24  1  0
 13 25  1  0
 12 26  1  0
 12 27  1  0
 11 28  1  6
 10 29  1  0
 10 30  1  0
  9 31  1  0
  9 32  1  0
  8 33  1  0
  8 34  1  0
  7 35  1  1
  5 36  1  0
  5 37  1  0
  4 38  1  0
 38 39  2  0
 39 40  1  0
 38 41  1  0
  3 42  1  0
  2 43  1  0
  1 44  1  0
 39  1  1  0
 11  7  1  0
 19 14  1  0
M  CHG  1  12   1
M  END
>  <plip>  (1) 
-0.03571428571428571

>  <filename>  (1) 
[H][c]1[n][c]([H])[c]([C]([H])([H])[N+]([H])([H])[C@]2([H])[C]([H])([H])[C]([H])([H])[C]([H])([H])[C@@]2([H])[O][C]([H])([H])[c]2[c]([H])[c]([H])[c]([H])[c]([H])[c]2[H])[c]([H])[c]1[H]

$$$$
