
     RDKit          3D

 34 36  0  0  0  0  0  0  0  0999 V2000
    8.2059    5.7263   24.7336 H   0  0  0  0  0  0  0  0  0  0  0  0
    7.9868    6.2390   23.9441 O   0  0  0  0  0  0  0  0  0  0  0  0
    6.8814    5.5898   23.3241 C   0  0  0  0  0  0  0  0  0  0  0  0
    5.9522    5.7408   23.8992 H   0  0  0  0  0  0  0  0  0  0  0  0
    6.7494    6.1069   22.3667 H   0  0  0  0  0  0  0  0  0  0  0  0
    7.1113    4.1114   23.0756 C   0  0  0  0  0  0  0  0  0  0  0  0
    6.6562    3.1198   23.9654 C   0  0  0  0  0  0  0  0  0  0  0  0
    6.0974    3.3944   24.8594 H   0  0  0  0  0  0  0  0  0  0  0  0
    6.9014    1.7702   23.7170 C   0  0  0  0  0  0  0  0  0  0  0  0
    6.5785    1.0119   24.4279 H   0  0  0  0  0  0  0  0  0  0  0  0
    7.5510    1.3633   22.5409 C   0  0  0  0  0  0  0  0  0  0  0  0
    7.7450   -0.0923   22.2590 C   0  0  0  0  0  0  0  0  0  0  0  0
    8.3113   -0.8131   23.2467 N   0  0  0  0  0  0  0  0  0  0  0  0
    8.5675   -2.1025   23.0251 C   0  0  0  0  0  0  0  0  0  0  0  0
    9.0472   -2.6426   23.8344 H   0  0  0  0  0  0  0  0  0  0  0  0
    8.2218   -2.7683   21.8476 C   0  0  0  0  0  0  0  0  0  0  0  0
    8.4846   -3.8099   21.7198 H   0  0  0  0  0  0  0  0  0  0  0  0
    7.5563   -2.0503   20.8609 C   0  0  0  0  0  0  0  0  0  0  0  0
    7.1240   -2.5316   19.9883 H   0  0  0  0  0  0  0  0  0  0  0  0
    7.3504   -0.6761   21.0190 C   0  0  0  0  0  0  0  0  0  0  0  0
    6.6528    0.0515   19.8970 C   0  0  0  0  0  0  0  0  0  0  0  0
    7.1503    0.0650   18.5753 C   0  0  0  0  0  0  0  0  0  0  0  0
    8.0912   -0.4338   18.3375 H   0  0  0  0  0  0  0  0  0  0  0  0
    6.5455    0.6719   17.5459 N   0  0  0  0  0  0  0  0  0  0  0  0
    5.3879    1.3007   17.8064 C   0  0  0  0  0  0  0  0  0  0  0  0
    4.9291    1.8162   16.9673 H   0  0  0  0  0  0  0  0  0  0  0  0
    4.7832    1.3266   19.0675 C   0  0  0  0  0  0  0  0  0  0  0  0
    3.8398    1.8513   19.2041 H   0  0  0  0  0  0  0  0  0  0  0  0
    5.4300    0.6974   20.1332 C   0  0  0  0  0  0  0  0  0  0  0  0
    5.0130    0.6881   21.1424 H   0  0  0  0  0  0  0  0  0  0  0  0
    7.9887    2.3482   21.6359 C   0  0  0  0  0  0  0  0  0  0  0  0
    8.4103    2.0519   20.6773 H   0  0  0  0  0  0  0  0  0  0  0  0
    7.8177    3.6994   21.9326 C   0  0  0  0  0  0  0  0  0  0  0  0
    8.2264    4.4584   21.2682 H   0  0  0  0  0  0  0  0  0  0  0  0
  1  2  1  0
  2  3  1  0
  3  4  1  0
  3  5  1  0
  3  6  1  0
  6  7  2  0
  7  8  1  0
  7  9  1  0
  9 10  1  0
  9 11  2  0
 11 12  1  0
 12 13  2  0
 13 14  1  0
 14 15  1  0
 14 16  2  0
 16 17  1  0
 16 18  1  0
 18 19  1  0
 18 20  2  0
 20 21  1  0
 21 22  2  0
 22 23  1  0
 22 24  1  0
 24 25  2  0
 25 26  1  0
 25 27  1  0
 27 28  1  0
 27 29  2  0
 29 30  1  0
 11 31  1  0
 31 32  1  0
 31 33  2  0
 33 34  1  0
 33  6  1  0
 20 12  1  0
 29 21  1  0
M  END
>  <plip>  (1) 
-0.03571428571428571

>  <filename>  (1) 
[H][O][C]([H])([H])[c]1[c]([H])[c]([H])[c](-[c]2[n][c]([H])[c]([H])[c]([H])[c]2-[c]2[c]([H])[n][c]([H])[c]([H])[c]2[H])[c]([H])[c]1[H]

$$$$
