
     RDKit          3D

 35 36  0  0  0  0  0  0  0  0999 V2000
   13.1627    2.9448   22.5237 C   0  0  0  0  0  0  0  0  0  0  0  0
   12.0726    3.7714   23.1004 C   0  0  0  0  0  0  0  0  0  0  0  0
   11.8744    3.8177   24.4489 C   0  0  0  0  0  0  0  0  0  0  0  0
   11.3557    1.6909   25.0684 I   0  0  0  0  0  0  0  0  0  0  0  0
   11.1972    4.9488   24.9545 C   0  0  0  0  0  0  0  0  0  0  0  0
   10.3083    5.6226   24.1092 C   0  0  0  0  0  0  0  0  0  0  0  0
   10.0334    4.9947   22.8903 C   0  0  0  0  0  0  0  0  0  0  0  0
   10.8924    3.9860   22.4289 C   0  0  0  0  0  0  0  0  0  0  0  0
   10.4596    2.9469   21.6072 N   0  0  0  0  0  0  0  0  0  0  0  0
    9.2467    2.2905   21.8685 C   0  0  0  0  0  0  0  0  0  0  0  0
    8.5105    2.7972   22.7191 O   0  0  0  0  0  0  0  0  0  0  0  0
    8.8526    0.9709   21.2258 C   0  0  0  0  0  0  0  0  0  0  0  0
    9.4084    0.5877   20.1967 O   0  0  0  0  0  0  0  0  0  0  0  0
    7.8430    0.1394   21.7256 N   0  0  0  0  0  0  0  0  0  0  0  0
    7.2344   -0.9071   20.9197 C   0  0  0  0  0  0  0  0  0  0  0  0
    6.5415   -0.1727   19.8231 C   0  0  0  0  0  0  0  0  0  0  0  0
    5.3407    0.4925   20.0659 C   0  0  0  0  0  0  0  0  0  0  0  0
    4.8180    1.2666   19.0354 C   0  0  0  0  0  0  0  0  0  0  0  0
    5.4791    1.3265   17.8029 C   0  0  0  0  0  0  0  0  0  0  0  0
    6.6255    0.6626   17.5650 N   0  0  0  0  0  0  0  0  0  0  0  0
    7.1531   -0.0573   18.5695 C   0  0  0  0  0  0  0  0  0  0  0  0
    8.1002   -0.5615   18.4023 H   0  0  0  0  0  0  0  0  0  0  0  0
    5.0512    1.9380   17.0142 H   0  0  0  0  0  0  0  0  0  0  0  0
    3.9147    1.8456   19.1838 H   0  0  0  0  0  0  0  0  0  0  0  0
    4.8562    0.4399   21.0413 H   0  0  0  0  0  0  0  0  0  0  0  0
    6.5168   -1.4884   21.5085 H   0  0  0  0  0  0  0  0  0  0  0  0
    7.9868   -1.6025   20.5306 H   0  0  0  0  0  0  0  0  0  0  0  0
    7.3078    0.4800   22.5209 H   0  0  0  0  0  0  0  0  0  0  0  0
   11.1894    2.4409   21.1183 H   0  0  0  0  0  0  0  0  0  0  0  0
    9.1169    5.2072   22.3549 H   0  0  0  0  0  0  0  0  0  0  0  0
    9.7179    6.4661   24.4680 H   0  0  0  0  0  0  0  0  0  0  0  0
   11.2212    5.2149   26.0037 H   0  0  0  0  0  0  0  0  0  0  0  0
   12.8127    1.9408   22.2755 H   0  0  0  0  0  0  0  0  0  0  0  0
   13.4984    3.4568   21.6266 H   0  0  0  0  0  0  0  0  0  0  0  0
   13.9896    2.8778   23.2290 H   0  0  0  0  0  0  0  0  0  0  0  0
  1  2  1  0
  2  3  2  0
  3  4  1  0
  3  5  1  0
  5  6  2  0
  6  7  1  0
  7  8  2  0
  8  9  1  0
  9 10  1  0
 10 11  2  0
 10 12  1  0
 12 13  2  0
 12 14  1  0
 14 15  1  0
 15 16  1  0
 16 17  2  0
 17 18  1  0
 18 19  2  0
 19 20  1  0
 20 21  2  0
 21 22  1  0
 19 23  1  0
 18 24  1  0
 17 25  1  0
 15 26  1  0
 15 27  1  0
 14 28  1  0
  9 29  1  0
  7 30  1  0
  6 31  1  0
  5 32  1  0
  1 33  1  0
  1 34  1  0
  1 35  1  0
  8  2  1  0
 21 16  1  0
M  END
>  <plip>  (1) 
-0.10714285714285714

>  <filename>  (1) 
[H][c]1[n][c]([H])[c]([C]([H])([H])[N]([H])[C](=[O])[C](=[O])[N]([H])[c]2[c]([H])[c]([H])[c]([H])[c]([I])[c]2[C]([H])([H])[H])[c]([H])[c]1[H]

$$$$
