
     RDKit          3D

 24 25  0  0  0  0  0  0  0  0999 V2000
    9.4016    0.9274   19.9848 H   0  0  0  0  0  0  0  0  0  0  0  0
    9.7210    1.0668   21.0096 C   0  0  0  0  0  0  0  0  0  0  0  0
   10.3825    2.1997   21.2809 N   0  0  0  0  0  0  0  0  0  0  0  0
   10.7915    2.3564   22.5492 C   0  0  0  0  0  0  0  0  0  0  0  0
   11.4412    3.5729   22.7146 N   0  0  0  0  0  0  0  0  0  0  0  0
   11.0076    4.1661   23.4124 H   0  0  0  0  0  0  0  0  0  0  0  0
   11.3060    3.9639   21.7838 H   0  0  0  0  0  0  0  0  0  0  0  0
   10.6087    1.3300   23.5242 C   0  0  0  0  0  0  0  0  0  0  0  0
   11.0404    1.4255   24.5177 H   0  0  0  0  0  0  0  0  0  0  0  0
    9.9714    0.1822   23.2293 N   0  0  0  0  0  0  0  0  0  0  0  0
    9.4954    0.0617   21.9723 C   0  0  0  0  0  0  0  0  0  0  0  0
    8.6393   -1.4244   21.4101 S   0  0  0  0  0  0  0  0  0  0  0  0
    7.0692   -0.8802   21.0346 N   0  0  0  0  0  0  0  0  0  0  0  0
    6.4199   -0.8940   21.8142 H   0  0  0  0  0  0  0  0  0  0  0  0
    6.6249   -0.1401   19.9255 C   0  0  0  0  0  0  0  0  0  0  0  0
    7.2251   -0.0898   18.6349 C   0  0  0  0  0  0  0  0  0  0  0  0
    8.1309   -0.6603   18.4313 H   0  0  0  0  0  0  0  0  0  0  0  0
    6.7255    0.6067   17.5983 N   0  0  0  0  0  0  0  0  0  0  0  0
    5.5939    1.3018   17.7934 C   0  0  0  0  0  0  0  0  0  0  0  0
    5.2082    1.8594   16.9416 H   0  0  0  0  0  0  0  0  0  0  0  0
    4.9202    1.3111   19.0193 C   0  0  0  0  0  0  0  0  0  0  0  0
    4.0132    1.8896   19.1303 H   0  0  0  0  0  0  0  0  0  0  0  0
    5.4346    0.5809   20.0892 C   0  0  0  0  0  0  0  0  0  0  0  0
    4.9453    0.5446   21.0638 H   0  0  0  0  0  0  0  0  0  0  0  0
  1  2  1  0
  2  3  2  0
  3  4  1  0
  4  5  1  0
  5  6  1  0
  5  7  1  0
  4  8  2  0
  8  9  1  0
  8 10  1  0
 10 11  2  0
 11 12  1  0
 12 13  1  0
 13 14  1  0
 13 15  1  0
 15 16  2  0
 16 17  1  0
 16 18  1  0
 18 19  2  0
 19 20  1  0
 19 21  1  0
 21 22  1  0
 21 23  2  0
 23 24  1  0
 11  2  1  0
 23 15  1  0
M  END
>  <plip>  (1) 
-0.14285714285714285

>  <filename>  (1) 
[H][c]1[n][c]([N]([H])[H])[c]([H])[n][c]1[S][N]([H])[c]1[c]([H])[n][c]([H])[c]([H])[c]1[H]

$$$$
