
     RDKit          3D

 22 23  0  0  0  0  0  0  0  0999 V2000
    4.9594    1.8312   16.9727 H   0  0  0  0  0  0  0  0  0  0  0  0
    5.4250    1.2936   17.7991 C   0  0  0  0  0  0  0  0  0  0  0  0
    6.5840    0.6673   17.5325 N   0  0  0  0  0  0  0  0  0  0  0  0
    7.1847    0.0335   18.5481 C   0  0  0  0  0  0  0  0  0  0  0  0
    8.1037   -0.4978   18.3154 H   0  0  0  0  0  0  0  0  0  0  0  0
    6.6900   -0.0096   19.8781 C   0  0  0  0  0  0  0  0  0  0  0  0
    7.3306   -0.6759   20.9130 N   0  0  0  0  0  0  0  0  0  0  0  0
    6.9258   -0.6289   21.8411 H   0  0  0  0  0  0  0  0  0  0  0  0
    8.6787   -0.9901   20.8068 N   0  0  0  0  0  0  0  0  0  0  0  0
    9.3108   -0.1960   20.7142 H   0  0  0  0  0  0  0  0  0  0  0  0
    9.2338   -1.8474   21.7596 C   0  0  0  0  0  0  0  0  0  0  0  0
    8.6243   -2.7310   22.6047 C   0  0  0  0  0  0  0  0  0  0  0  0
    7.5633   -2.9086   22.7306 H   0  0  0  0  0  0  0  0  0  0  0  0
    9.7768   -3.6034   23.5422 S   0  0  0  0  0  0  0  0  0  0  0  0
   11.0899   -2.7819   22.7921 C   0  0  0  0  0  0  0  0  0  0  0  0
   12.1094   -3.0752   23.0091 H   0  0  0  0  0  0  0  0  0  0  0  0
   10.6585   -1.8604   21.8959 C   0  0  0  0  0  0  0  0  0  0  0  0
   11.3228   -1.2063   21.3325 H   0  0  0  0  0  0  0  0  0  0  0  0
    5.4599    0.6281   20.1244 C   0  0  0  0  0  0  0  0  0  0  0  0
    5.0219    0.6056   21.1255 H   0  0  0  0  0  0  0  0  0  0  0  0
    4.8264    1.2858   19.0674 C   0  0  0  0  0  0  0  0  0  0  0  0
    3.8895    1.8125   19.2218 H   0  0  0  0  0  0  0  0  0  0  0  0
  1  2  1  0
  2  3  2  0
  3  4  1  0
  4  5  1  0
  4  6  2  0
  6  7  1  0
  7  8  1  0
  7  9  1  0
  9 10  1  0
  9 11  1  0
 11 12  2  0
 12 13  1  0
 12 14  1  0
 14 15  1  0
 15 16  1  0
 15 17  2  0
 17 18  1  0
  6 19  1  0
 19 20  1  0
 19 21  2  0
 21 22  1  0
 21  2  1  0
 17 11  1  0
M  END
>  <plip>  (1) 
-0.10714285714285714

>  <filename>  (1) 
[H][c]1[n][c]([H])[c]([N]([H])[N]([H])[c]2[c]([H])[s][c]([H])[c]2[H])[c]([H])[c]1[H]

$$$$
