
     RDKit          3D

 48 50  0  0  0  0  0  0  0  0999 V2000
    5.1145   -3.4803   22.2497 C   0  0  0  0  0  0  0  0  0  0  0  0
    5.6574   -2.2490   21.7620 O   0  0  0  0  0  0  0  0  0  0  0  0
    6.9119   -2.2269   21.2778 C   0  0  0  0  0  0  0  0  0  0  0  0
    7.5913   -3.2153   21.1180 O   0  0  0  0  0  0  0  0  0  0  0  0
    7.4098   -0.7559   20.9947 C   0  0  0  0  0  0  0  0  0  0  0  0
    7.5346    0.0704   22.1977 N   0  0  0  0  0  0  0  0  0  0  0  0
    8.4969    1.0328   22.3030 C   0  0  0  0  0  0  0  0  0  0  0  0
    9.2212    1.3450   21.3729 O   0  0  0  0  0  0  0  0  0  0  0  0
    8.6471    1.5873   23.7074 C   0  0  0  0  0  0  0  0  0  0  0  0
    9.6839    0.7628   24.5294 C   0  0  0  0  0  0  0  0  0  0  0  0
    9.3368   -0.7194   24.5903 C   0  0  0  0  0  0  0  0  0  0  0  0
    9.9861   -1.6488   23.7545 C   0  0  0  0  0  0  0  0  0  0  0  0
    9.5590   -2.9742   23.6824 C   0  0  0  0  0  0  0  0  0  0  0  0
    8.4733   -3.4245   24.4513 C   0  0  0  0  0  0  0  0  0  0  0  0
    7.9827   -4.8633   24.3405 C   0  0  0  0  0  0  0  0  0  0  0  0
    7.0073   -5.2253   25.4644 C   0  0  0  0  0  0  0  0  0  0  0  0
    6.0518   -4.1912   25.6375 O   0  0  0  0  0  0  0  0  0  0  0  0
    6.6346   -2.9933   26.1338 C   0  0  0  0  0  0  0  0  0  0  0  0
    7.8183   -2.5102   25.3012 C   0  0  0  0  0  0  0  0  0  0  0  0
    8.2698   -1.1798   25.3791 C   0  0  0  0  0  0  0  0  0  0  0  0
    7.7746   -0.4775   26.0521 H   0  0  0  0  0  0  0  0  0  0  0  0
    5.8253   -2.2562   26.1223 H   0  0  0  0  0  0  0  0  0  0  0  0
    6.9383   -3.1222   27.1896 H   0  0  0  0  0  0  0  0  0  0  0  0
    7.5682   -5.3976   26.4003 H   0  0  0  0  0  0  0  0  0  0  0  0
    6.4404   -6.1352   25.2419 H   0  0  0  0  0  0  0  0  0  0  0  0
    7.5073   -4.9969   23.3583 H   0  0  0  0  0  0  0  0  0  0  0  0
    8.8244   -5.5635   24.3512 H   0  0  0  0  0  0  0  0  0  0  0  0
   10.0491   -3.6612   22.9955 H   0  0  0  0  0  0  0  0  0  0  0  0
   10.8137   -1.3147   23.1290 H   0  0  0  0  0  0  0  0  0  0  0  0
    9.7509    1.1819   25.5425 H   0  0  0  0  0  0  0  0  0  0  0  0
   10.6767    0.8964   24.0784 H   0  0  0  0  0  0  0  0  0  0  0  0
    7.6758    1.5709   24.2203 H   0  0  0  0  0  0  0  0  0  0  0  0
    8.9640    2.6296   23.6212 H   0  0  0  0  0  0  0  0  0  0  0  0
    6.9442   -0.0945   22.9980 H   0  0  0  0  0  0  0  0  0  0  0  0
    6.6402    0.0203   19.9214 C   0  0  0  0  0  0  0  0  0  0  0  0
    5.4239    0.6850   20.1377 C   0  0  0  0  0  0  0  0  0  0  0  0
    4.8108    1.3208   19.0549 C   0  0  0  0  0  0  0  0  0  0  0  0
    5.4352    1.3010   17.8051 C   0  0  0  0  0  0  0  0  0  0  0  0
    6.6084    0.6934   17.5844 N   0  0  0  0  0  0  0  0  0  0  0  0
    7.1866    0.0925   18.6307 C   0  0  0  0  0  0  0  0  0  0  0  0
    8.1458   -0.3821   18.4214 H   0  0  0  0  0  0  0  0  0  0  0  0
    4.9783    1.7988   16.9494 H   0  0  0  0  0  0  0  0  0  0  0  0
    3.8737    1.8503   19.1687 H   0  0  0  0  0  0  0  0  0  0  0  0
    4.9661    0.7332   21.1291 H   0  0  0  0  0  0  0  0  0  0  0  0
    8.4335   -0.9022   20.6247 H   0  0  0  0  0  0  0  0  0  0  0  0
    5.7797   -3.9373   22.9866 H   0  0  0  0  0  0  0  0  0  0  0  0
    4.1883   -3.2015   22.7487 H   0  0  0  0  0  0  0  0  0  0  0  0
    4.9053   -4.1660   21.4232 H   0  0  0  0  0  0  0  0  0  0  0  0
  1  2  1  0
  2  3  1  0
  3  4  2  0
  3  5  1  0
  5  6  1  0
  6  7  1  0
  7  8  2  0
  7  9  1  0
  9 10  1  0
 10 11  1  0
 11 12  2  0
 12 13  1  0
 13 14  2  0
 14 15  1  0
 15 16  1  0
 16 17  1  0
 17 18  1  0
 18 19  1  0
 19 20  2  0
 20 21  1  0
 18 22  1  0
 18 23  1  0
 16 24  1  0
 16 25  1  0
 15 26  1  0
 15 27  1  0
 13 28  1  0
 12 29  1  0
 10 30  1  0
 10 31  1  0
  9 32  1  0
  9 33  1  0
  6 34  1  0
  5 35  1  0
 35 36  2  0
 36 37  1  0
 37 38  2  0
 38 39  1  0
 39 40  2  0
 40 41  1  0
 38 42  1  0
 37 43  1  0
 36 44  1  0
  5 45  1  0
  1 46  1  0
  1 47  1  0
  1 48  1  0
 20 11  1  0
 40 35  1  0
 19 14  1  0
M  END
>  <plip>  (1) 
-0.14285714285714285

>  <filename>  (1) 
[H][c]1[n][c]([H])[c]([C]([H])([C](=[O])[O][C]([H])([H])[H])[N]([H])[C](=[O])[C]([H])([H])[C]([H])([H])[c]2[c]([H])[c]([H])[c]3[c]([c]2[H])[C]([H])([H])[O][C]([H])([H])[C]3([H])[H])[c]([H])[c]1[H]

$$$$
