
     RDKit          3D

 25 26  0  0  0  0  0  0  0  0999 V2000
    4.9174    1.7890   16.9901 H   0  0  0  0  0  0  0  0  0  0  0  0
    5.3946    1.2932   17.8323 C   0  0  0  0  0  0  0  0  0  0  0  0
    6.5582    0.6752   17.5701 N   0  0  0  0  0  0  0  0  0  0  0  0
    7.1656    0.0594   18.5897 C   0  0  0  0  0  0  0  0  0  0  0  0
    8.1124   -0.4277   18.3631 H   0  0  0  0  0  0  0  0  0  0  0  0
    6.6584   -0.0008   19.9018 C   0  0  0  0  0  0  0  0  0  0  0  0
    7.3924   -0.7138   20.9756 C   0  0  0  0  0  0  0  0  0  0  0  0
    9.0242   -0.3326   21.3873 S   0  0  0  0  0  0  0  0  0  0  0  0
    9.0760   -1.5695   22.5758 C   0  0  0  0  0  0  0  0  0  0  0  0
    9.9789   -1.7266   23.1462 H   0  0  0  0  0  0  0  0  0  0  0  0
    7.9051   -2.2518   22.6522 C   0  0  0  0  0  0  0  0  0  0  0  0
    7.7070   -3.0891   23.3201 H   0  0  0  0  0  0  0  0  0  0  0  0
    6.9411   -1.7665   21.7280 C   0  0  0  0  0  0  0  0  0  0  0  0
    5.6220   -2.4362   21.5074 C   0  0  0  0  0  0  0  0  0  0  0  0
    5.3395   -3.0419   22.3681 H   0  0  0  0  0  0  0  0  0  0  0  0
    4.8749   -1.6553   21.3895 H   0  0  0  0  0  0  0  0  0  0  0  0
    5.6675   -3.3933   20.3232 C   0  0  0  0  0  0  0  0  0  0  0  0
    6.1228   -4.5188   20.3755 O   0  0  0  0  0  0  0  0  0  0  0  0
    5.1313   -2.9611   19.1595 N   0  0  0  0  0  0  0  0  0  0  0  0
    5.2622   -3.6230   18.4100 H   0  0  0  0  0  0  0  0  0  0  0  0
    4.7577   -2.0428   19.0095 H   0  0  0  0  0  0  0  0  0  0  0  0
    5.4345    0.6399   20.1494 C   0  0  0  0  0  0  0  0  0  0  0  0
    5.0152    0.6352   21.1583 H   0  0  0  0  0  0  0  0  0  0  0  0
    4.8019    1.3073   19.0991 C   0  0  0  0  0  0  0  0  0  0  0  0
    3.8731    1.8451   19.2549 H   0  0  0  0  0  0  0  0  0  0  0  0
  1  2  1  0
  2  3  2  0
  3  4  1  0
  4  5  1  0
  4  6  2  0
  6  7  1  0
  7  8  1  0
  8  9  1  0
  9 10  1  0
  9 11  2  0
 11 12  1  0
 11 13  1  0
 13 14  1  0
 14 15  1  0
 14 16  1  0
 14 17  1  0
 17 18  2  0
 17 19  1  0
 19 20  1  0
 19 21  1  0
  6 22  1  0
 22 23  1  0
 22 24  2  0
 24 25  1  0
 24  2  1  0
 13  7  2  0
M  END
>  <plip>  (1) 
-0.1

>  <filename>  (1) 
[H][c]1[n][c]([H])[c](-[c]2[s][c]([H])[c]([H])[c]2[C]([H])([H])[C](=[O])[N]([H])[H])[c]([H])[c]1[H]

$$$$
