
     RDKit          3D

 23 25  0  0  0  0  0  0  0  0999 V2000
    4.9657    1.2339   19.1727 C   0  0  0  0  0  0  0  0  0  0  0  0
    5.5397    1.2258   17.8966 C   0  0  0  0  0  0  0  0  0  0  0  0
    6.7042    0.6218   17.6159 N   0  0  0  0  0  0  0  0  0  0  0  0
    7.3355    0.0162   18.6305 C   0  0  0  0  0  0  0  0  0  0  0  0
    6.8648   -0.0280   19.9533 C   0  0  0  0  0  0  0  0  0  0  0  0
    7.6595   -0.7116   20.9933 C   0  0  0  0  0  0  0  0  0  0  0  0
    9.0024   -0.3782   21.2000 C   0  0  0  0  0  0  0  0  0  0  0  0
    9.7792   -0.9915   22.2022 C   0  0  0  0  0  0  0  0  0  0  0  0
    9.2427   -2.0120   22.9801 C   0  0  0  0  0  0  0  0  0  0  0  0
    7.9169   -2.3684   22.7318 C   0  0  0  0  0  0  0  0  0  0  0  0
    7.1015   -1.7346   21.7980 C   0  0  0  0  0  0  0  0  0  0  0  0
    5.8658   -2.4611   21.9537 C   0  0  0  0  0  0  0  0  0  0  0  0
    5.9644   -3.4015   22.8477 N   0  0  0  0  0  0  0  0  0  0  0  0
    7.2545   -3.3608   23.3480 O   0  0  0  0  0  0  0  0  0  0  0  0
    4.8982   -2.3286   21.4932 H   0  0  0  0  0  0  0  0  0  0  0  0
    9.7962   -2.5303   23.7498 H   0  0  0  0  0  0  0  0  0  0  0  0
   10.8015   -0.6647   22.3706 H   0  0  0  0  0  0  0  0  0  0  0  0
    9.4429    0.4039   20.5885 H   0  0  0  0  0  0  0  0  0  0  0  0
    5.6377    0.5939   20.2177 C   0  0  0  0  0  0  0  0  0  0  0  0
    5.2289    0.5672   21.2284 H   0  0  0  0  0  0  0  0  0  0  0  0
    8.2560   -0.5004   18.3678 H   0  0  0  0  0  0  0  0  0  0  0  0
    5.0418    1.7200   17.0629 H   0  0  0  0  0  0  0  0  0  0  0  0
    4.0186    1.7384   19.3335 H   0  0  0  0  0  0  0  0  0  0  0  0
  1  2  2  0
  2  3  1  0
  3  4  2  0
  4  5  1  0
  5  6  1  0
  6  7  2  0
  7  8  1  0
  8  9  2  0
  9 10  1  0
 10 11  2  0
 11 12  1  0
 12 13  2  0
 13 14  1  0
 12 15  1  0
  9 16  1  0
  8 17  1  0
  7 18  1  0
  5 19  2  0
 19 20  1  0
  4 21  1  0
  2 22  1  0
  1 23  1  0
 19  1  1  0
 11  6  1  0
 14 10  1  0
M  END
>  <plip>  (1) 
-0.03571428571428571

>  <filename>  (1) 
[H][c]1[n][c]([H])[c](-[c]2[c]([H])[c]([H])[c]([H])[c]3[o][n][c]([H])[c]23)[c]([H])[c]1[H]

$$$$
