
     RDKit          3D

 31 34  0  0  0  0  0  0  0  0999 V2000
    9.1147   -5.1082   27.8945 Cl  0  0  0  0  0  0  0  0  0  0  0  0
    8.9268   -4.7625   26.2082 C   0  0  0  0  0  0  0  0  0  0  0  0
    9.1046   -5.7760   25.2952 C   0  0  0  0  0  0  0  0  0  0  0  0
    8.9231   -5.5283   23.9168 C   0  0  0  0  0  0  0  0  0  0  0  0
    8.5696   -4.2735   23.4740 C   0  0  0  0  0  0  0  0  0  0  0  0
    8.3952   -3.2087   24.3998 C   0  0  0  0  0  0  0  0  0  0  0  0
    7.9813   -1.8910   24.0176 C   0  0  0  0  0  0  0  0  0  0  0  0
    7.9465   -1.4147   22.6546 C   0  0  0  0  0  0  0  0  0  0  0  0
    7.0848   -0.5874   22.1424 N   0  0  0  0  0  0  0  0  0  0  0  0
    7.4269   -0.6085   20.8177 C   0  0  0  0  0  0  0  0  0  0  0  0
    6.6543    0.0853   19.7981 C   0  0  0  0  0  0  0  0  0  0  0  0
    5.4322    0.7296   20.0497 C   0  0  0  0  0  0  0  0  0  0  0  0
    4.8155    1.3680   18.9742 C   0  0  0  0  0  0  0  0  0  0  0  0
    5.4310    1.3372   17.7166 C   0  0  0  0  0  0  0  0  0  0  0  0
    6.5809    0.6973   17.4711 N   0  0  0  0  0  0  0  0  0  0  0  0
    7.1671    0.0805   18.4956 C   0  0  0  0  0  0  0  0  0  0  0  0
    8.0889   -0.4572   18.2830 H   0  0  0  0  0  0  0  0  0  0  0  0
    4.9762    1.8404   16.8643 H   0  0  0  0  0  0  0  0  0  0  0  0
    3.8742    1.8904   19.0902 H   0  0  0  0  0  0  0  0  0  0  0  0
    4.9785    0.7341   21.0441 H   0  0  0  0  0  0  0  0  0  0  0  0
    8.4724   -1.3393   20.5322 N   0  0  0  0  0  0  0  0  0  0  0  0
    8.8290   -1.8710   21.7578 O   0  0  0  0  0  0  0  0  0  0  0  0
    7.5013   -1.0394   24.9866 C   0  0  0  0  0  0  0  0  0  0  0  0
    7.6536   -1.2630   26.3082 N   0  0  0  0  0  0  0  0  0  0  0  0
    8.2054   -2.3980   26.6938 C   0  0  0  0  0  0  0  0  0  0  0  0
    8.5421   -3.4527   25.7986 C   0  0  0  0  0  0  0  0  0  0  0  0
    8.3645   -2.5186   27.7619 H   0  0  0  0  0  0  0  0  0  0  0  0
    6.9776   -0.1218   24.7265 H   0  0  0  0  0  0  0  0  0  0  0  0
    8.4074   -4.0833   22.4221 H   0  0  0  0  0  0  0  0  0  0  0  0
    9.0745   -6.3318   23.2010 H   0  0  0  0  0  0  0  0  0  0  0  0
    9.3676   -6.7746   25.6297 H   0  0  0  0  0  0  0  0  0  0  0  0
  1  2  1  0
  2  3  2  0
  3  4  1  0
  4  5  2  0
  5  6  1  0
  6  7  2  0
  7  8  1  0
  8  9  2  0
  9 10  1  0
 10 11  1  0
 11 12  2  0
 12 13  1  0
 13 14  2  0
 14 15  1  0
 15 16  2  0
 16 17  1  0
 14 18  1  0
 13 19  1  0
 12 20  1  0
 10 21  2  0
 21 22  1  0
  7 23  1  0
 23 24  2  0
 24 25  1  0
 25 26  2  0
 25 27  1  0
 23 28  1  0
  5 29  1  0
  4 30  1  0
  3 31  1  0
 26  2  1  0
 26  6  1  0
 22  8  1  0
 16 11  1  0
M  END
>  <plip>  (1) 
-0.07142857142857142

>  <filename>  (1) 
[H][c]1[n][c]([H])[c](-[c]2[n][o][c](-[c]3[c]([H])[n][c]([H])[c]4[c]([Cl])[c]([H])[c]([H])[c]([H])[c]34)[n]2)[c]([H])[c]1[H]

$$$$
