
     RDKit          3D

 43 44  0  0  0  0  0  0  0  0999 V2000
    8.7190    1.0849   21.5995 H   0  0  0  0  0  0  0  0  0  0  0  0
    8.0079    0.3529   21.9341 C   0  0  0  0  0  0  0  0  0  0  0  0
    7.4453    0.3750   23.1599 C   0  0  0  0  0  0  0  0  0  0  0  0
    7.4589    1.3124   24.1083 O   0  0  0  0  0  0  0  0  0  0  0  0
    8.2916    2.4647   23.9344 C   0  0  0  0  0  0  0  0  0  0  0  0
    9.2800    2.1656   23.5550 H   0  0  0  0  0  0  0  0  0  0  0  0
    8.4254    2.8669   24.9414 H   0  0  0  0  0  0  0  0  0  0  0  0
    7.6497    3.5167   23.0050 C   0  0  0  0  0  0  0  0  0  0  0  0
    7.6500    3.1108   21.9776 H   0  0  0  0  0  0  0  0  0  0  0  0
    6.5961    3.6268   23.2941 H   0  0  0  0  0  0  0  0  0  0  0  0
    8.2688    4.8356   23.0199 N   0  0  0  0  0  0  0  0  0  0  0  0
    9.7188    4.8911   22.8890 C   0  0  0  0  0  0  0  0  0  0  0  0
   10.2491    4.7863   23.8586 H   0  0  0  0  0  0  0  0  0  0  0  0
   10.0463    4.0319   22.2874 H   0  0  0  0  0  0  0  0  0  0  0  0
   10.1313    6.1945   22.2084 C   0  0  0  0  0  0  0  0  0  0  0  0
    9.4237    6.4164   21.4020 H   0  0  0  0  0  0  0  0  0  0  0  0
   11.1322    6.1158   21.7793 H   0  0  0  0  0  0  0  0  0  0  0  0
   10.1161    7.0382   22.9039 H   0  0  0  0  0  0  0  0  0  0  0  0
    7.6855    5.8291   23.9131 C   0  0  0  0  0  0  0  0  0  0  0  0
    6.6085    5.8917   23.7042 H   0  0  0  0  0  0  0  0  0  0  0  0
    8.0867    6.8114   23.6394 H   0  0  0  0  0  0  0  0  0  0  0  0
    7.9154    5.5872   25.4044 C   0  0  0  0  0  0  0  0  0  0  0  0
    7.3700    4.7046   25.7497 H   0  0  0  0  0  0  0  0  0  0  0  0
    8.9812    5.4315   25.6070 H   0  0  0  0  0  0  0  0  0  0  0  0
    7.5755    6.4468   25.9891 H   0  0  0  0  0  0  0  0  0  0  0  0
    6.7150   -0.7035   23.6043 N   0  0  0  0  0  0  0  0  0  0  0  0
    6.4447   -0.7443   24.5701 H   0  0  0  0  0  0  0  0  0  0  0  0
    6.4999   -1.8316   22.8788 C   0  0  0  0  0  0  0  0  0  0  0  0
    5.7961   -3.1790   23.5343 S   0  0  0  0  0  0  0  0  0  0  0  0
    6.8824   -1.7825   21.5914 N   0  0  0  0  0  0  0  0  0  0  0  0
    6.5081   -2.5360   21.0409 H   0  0  0  0  0  0  0  0  0  0  0  0
    7.5545   -0.6597   20.9431 C   0  0  1  0  0  0  0  0  0  0  0  0
    8.4310   -1.0851   20.4188 H   0  0  0  0  0  0  0  0  0  0  0  0
    6.6727   -0.0303   19.8533 C   0  0  0  0  0  0  0  0  0  0  0  0
    7.1635    0.0262   18.5432 C   0  0  0  0  0  0  0  0  0  0  0  0
    8.1052   -0.4674   18.3039 H   0  0  0  0  0  0  0  0  0  0  0  0
    6.5657    0.6614   17.5270 N   0  0  0  0  0  0  0  0  0  0  0  0
    5.4120    1.2856   17.8062 C   0  0  0  0  0  0  0  0  0  0  0  0
    4.9405    1.8089   16.9760 H   0  0  0  0  0  0  0  0  0  0  0  0
    4.8123    1.2725   19.0737 C   0  0  0  0  0  0  0  0  0  0  0  0
    3.8775    1.8026   19.2253 H   0  0  0  0  0  0  0  0  0  0  0  0
    5.4480    0.5995   20.1215 C   0  0  0  0  0  0  0  0  0  0  0  0
    5.0024    0.5839   21.1210 H   0  0  0  0  0  0  0  0  0  0  0  0
  1  2  1  0
  2  3  2  0
  3  4  1  0
  4  5  1  0
  5  6  1  0
  5  7  1  0
  5  8  1  0
  8  9  1  0
  8 10  1  0
  8 11  1  0
 11 12  1  0
 12 13  1  0
 12 14  1  0
 12 15  1  0
 15 16  1  0
 15 17  1  0
 15 18  1  0
 11 19  1  0
 19 20  1  0
 19 21  1  0
 19 22  1  0
 22 23  1  0
 22 24  1  0
 22 25  1  0
  3 26  1  0
 26 27  1  0
 26 28  1  0
 28 29  2  0
 28 30  1  0
 30 31  1  0
 30 32  1  0
 32 33  1  6
 32 34  1  0
 34 35  2  0
 35 36  1  0
 35 37  1  0
 37 38  2  0
 38 39  1  0
 38 40  1  0
 40 41  1  0
 40 42  2  0
 42 43  1  0
 32  2  1  0
 42 34  1  0
M  END
>  <plip>  (1) 
-0.03571428571428571

>  <filename>  (1) 
[H][C]1=[C]([O][C]([H])([H])[C]([H])([H])[N]([C]([H])([H])[C]([H])([H])[H])[C]([H])([H])[C]([H])([H])[H])[N]([H])[C](=[S])[N]([H])[C@@]1([H])[c]1[c]([H])[n][c]([H])[c]([H])[c]1[H]

$$$$
