
     RDKit          3D

 47 49  0  0  0  0  0  0  0  0999 V2000
    8.9350    0.3913   24.2245 C   0  0  0  0  0  0  0  0  0  0  0  0
    8.6168   -0.3928   23.0872 O   0  0  0  0  0  0  0  0  0  0  0  0
    7.9231    0.2928   22.0808 C   0  0  0  0  0  0  0  0  0  0  0  0
    8.7399    1.2535   21.4495 O   0  0  0  0  0  0  0  0  0  0  0  0
   10.0453    0.8436   21.0812 C   0  0  0  0  0  0  0  0  0  0  0  0
   10.0251   -0.0113   20.3922 H   0  0  0  0  0  0  0  0  0  0  0  0
   10.5050    1.7011   20.5874 H   0  0  0  0  0  0  0  0  0  0  0  0
   10.6486    0.5618   21.9524 H   0  0  0  0  0  0  0  0  0  0  0  0
    7.3297   -0.7475   21.0634 C   0  0  0  0  0  0  0  0  0  0  0  0
    6.5098   -1.7762   21.7071 N   0  0  0  0  0  0  0  0  0  0  0  0
    6.1276   -2.9072   21.0456 C   0  0  0  0  0  0  0  0  0  0  0  0
    6.2919   -3.0723   19.8552 O   0  0  0  0  0  0  0  0  0  0  0  0
    5.4670   -4.0280   21.8853 C   0  0  0  0  0  0  0  0  0  0  0  0
    6.1537   -4.4824   23.1845 C   0  0  0  0  0  0  0  0  0  0  0  0
    5.1541   -4.0143   24.2239 C   0  0  0  0  0  0  0  0  0  0  0  0
    4.0766   -3.5702   23.6899 N   0  0  0  0  0  0  0  0  0  0  0  0
    4.1602   -3.6194   22.3196 O   0  0  0  0  0  0  0  0  0  0  0  0
    5.3153   -4.1853   25.6841 C   0  0  0  0  0  0  0  0  0  0  0  0
    6.3300   -5.0094   26.2221 C   0  0  0  0  0  0  0  0  0  0  0  0
    6.4475   -5.1707   27.5984 C   0  0  0  0  0  0  0  0  0  0  0  0
    7.4184   -5.9604   28.0867 F   0  0  0  0  0  0  0  0  0  0  0  0
    5.5799   -4.5432   28.4880 C   0  0  0  0  0  0  0  0  0  0  0  0
    4.5613   -3.7382   27.9729 C   0  0  0  0  0  0  0  0  0  0  0  0
    4.4342   -3.5695   26.5929 C   0  0  0  0  0  0  0  0  0  0  0  0
    3.4370   -2.7975   26.1530 F   0  0  0  0  0  0  0  0  0  0  0  0
    3.8475   -3.2368   28.6182 H   0  0  0  0  0  0  0  0  0  0  0  0
    5.7041   -4.7037   29.5547 H   0  0  0  0  0  0  0  0  0  0  0  0
    7.0340   -5.5503   25.5955 H   0  0  0  0  0  0  0  0  0  0  0  0
    7.1652   -4.0835   23.3221 H   0  0  0  0  0  0  0  0  0  0  0  0
    6.2153   -5.5776   23.2421 H   0  0  0  0  0  0  0  0  0  0  0  0
    5.3271   -4.8331   21.1566 H   0  0  0  0  0  0  0  0  0  0  0  0
    6.0317   -1.5683   22.5694 H   0  0  0  0  0  0  0  0  0  0  0  0
    6.5747   -0.0742   19.9266 C   0  0  0  0  0  0  0  0  0  0  0  0
    5.3659    0.6064   20.1215 C   0  0  0  0  0  0  0  0  0  0  0  0
    4.7995    1.2986   19.0488 C   0  0  0  0  0  0  0  0  0  0  0  0
    5.4521    1.2708   17.8101 C   0  0  0  0  0  0  0  0  0  0  0  0
    6.5907    0.5981   17.5904 N   0  0  0  0  0  0  0  0  0  0  0  0
    7.1156   -0.0621   18.6345 C   0  0  0  0  0  0  0  0  0  0  0  0
    8.0262   -0.6280   18.4268 H   0  0  0  0  0  0  0  0  0  0  0  0
    5.0428    1.8090   16.9557 H   0  0  0  0  0  0  0  0  0  0  0  0
    3.8779    1.8593   19.1605 H   0  0  0  0  0  0  0  0  0  0  0  0
    4.8651    0.5876   21.0928 H   0  0  0  0  0  0  0  0  0  0  0  0
    8.2052   -1.2489   20.6322 H   0  0  0  0  0  0  0  0  0  0  0  0
    7.0960    0.8830   22.5015 H   0  0  0  0  0  0  0  0  0  0  0  0
    9.4243    1.3409   23.9633 H   0  0  0  0  0  0  0  0  0  0  0  0
    9.6225   -0.2120   24.8209 H   0  0  0  0  0  0  0  0  0  0  0  0
    8.0382    0.6056   24.8257 H   0  0  0  0  0  0  0  0  0  0  0  0
  1  2  1  0
  2  3  1  0
  3  4  1  0
  4  5  1  0
  5  6  1  0
  5  7  1  0
  5  8  1  0
  3  9  1  0
  9 10  1  0
 10 11  1  0
 11 12  2  0
 11 13  1  0
 13 14  1  0
 14 15  1  0
 15 16  2  0
 16 17  1  0
 15 18  1  0
 18 19  2  0
 19 20  1  0
 20 21  1  0
 20 22  2  0
 22 23  1  0
 23 24  2  0
 24 25  1  0
 23 26  1  0
 22 27  1  0
 19 28  1  0
 14 29  1  0
 14 30  1  0
 13 31  1  0
 10 32  1  0
  9 33  1  0
 33 34  2  0
 34 35  1  0
 35 36  2  0
 36 37  1  0
 37 38  2  0
 38 39  1  0
 36 40  1  0
 35 41  1  0
 34 42  1  0
  9 43  1  0
  3 44  1  0
  1 45  1  0
  1 46  1  0
  1 47  1  0
 17 13  1  0
 24 18  1  0
 38 33  1  0
M  END
>  <plip>  (1) 
-0.1724137931034483

>  <filename>  (1) 
[H][c]1[n][c]([H])[c]([C]([H])([N]([H])[C](=[O])[C]2([H])[O][N]=[C]([c]3[c]([H])[c]([F])[c]([H])[c]([H])[c]3[F])[C]2([H])[H])[C]([H])([O][C]([H])([H])[H])[O][C]([H])([H])[H])[c]([H])[c]1[H]

$$$$
