
     RDKit          3D

 36 37  0  0  0  0  0  0  0  0999 V2000
    9.8717    5.7167   26.1670 C   0  0  0  0  0  0  0  0  0  0  0  0
   10.3852    5.9363   24.7268 C   0  0  0  0  0  0  0  0  0  0  0  0
    9.6573    5.0941   23.7036 C   0  0  0  0  0  0  0  0  0  0  0  0
    8.4445    5.5798   23.1952 C   0  0  0  0  0  0  0  0  0  0  0  0
    7.7810    4.7627   22.3035 C   0  0  0  0  0  0  0  0  0  0  0  0
    8.2291    3.5690   21.9431 N   0  0  0  0  0  0  0  0  0  0  0  0
    9.3958    3.2256   22.4724 C   0  0  0  0  0  0  0  0  0  0  0  0
    9.9233    2.0482   22.1300 N   0  0  0  0  0  0  0  0  0  0  0  0
    9.2845    1.0697   21.2681 C   0  0  0  0  0  0  0  0  0  0  0  0
    8.1335    0.3036   21.9437 C   0  0  0  0  0  0  0  0  0  0  0  0
    7.4062   -0.6976   21.0192 C   0  0  0  0  0  0  0  0  0  0  0  0
    6.6505   -0.0214   19.8909 C   0  0  0  0  0  0  0  0  0  0  0  0
    5.4349    0.6409   20.1342 C   0  0  0  0  0  0  0  0  0  0  0  0
    4.7969    1.3086   19.0870 C   0  0  0  0  0  0  0  0  0  0  0  0
    5.3940    1.2998   17.8224 C   0  0  0  0  0  0  0  0  0  0  0  0
    6.5545    0.6795   17.5610 N   0  0  0  0  0  0  0  0  0  0  0  0
    7.1557    0.0500   18.5802 C   0  0  0  0  0  0  0  0  0  0  0  0
    8.1095   -0.4243   18.3411 H   0  0  0  0  0  0  0  0  0  0  0  0
    4.9216    1.8070   16.9819 H   0  0  0  0  0  0  0  0  0  0  0  0
    3.8675    1.8503   19.2397 H   0  0  0  0  0  0  0  0  0  0  0  0
    5.0102    0.6386   21.1407 H   0  0  0  0  0  0  0  0  0  0  0  0
    6.6978   -1.2827   21.6231 H   0  0  0  0  0  0  0  0  0  0  0  0
    8.1141   -1.4286   20.6019 H   0  0  0  0  0  0  0  0  0  0  0  0
    7.3987    1.0309   22.3170 H   0  0  0  0  0  0  0  0  0  0  0  0
    8.5297   -0.2235   22.8183 H   0  0  0  0  0  0  0  0  0  0  0  0
    8.8714    1.5827   20.3871 H   0  0  0  0  0  0  0  0  0  0  0  0
   10.0606    0.3709   20.9239 H   0  0  0  0  0  0  0  0  0  0  0  0
   10.7887    1.9656   22.6334 H   0  0  0  0  0  0  0  0  0  0  0  0
   10.1503    3.9149   23.3476 N   0  0  0  0  0  0  0  0  0  0  0  0
    6.8301    5.0619   21.8592 H   0  0  0  0  0  0  0  0  0  0  0  0
    8.0481    6.5361   23.4955 H   0  0  0  0  0  0  0  0  0  0  0  0
   10.2481    6.9947   24.4627 H   0  0  0  0  0  0  0  0  0  0  0  0
   11.4588    5.7299   24.6549 H   0  0  0  0  0  0  0  0  0  0  0  0
   10.4566    6.3004   26.8892 H   0  0  0  0  0  0  0  0  0  0  0  0
    9.9310    4.6618   26.4451 H   0  0  0  0  0  0  0  0  0  0  0  0
    8.8195    6.0115   26.2787 H   0  0  0  0  0  0  0  0  0  0  0  0
  1  2  1  0
  2  3  1  0
  3  4  2  0
  4  5  1  0
  5  6  2  0
  6  7  1  0
  7  8  1  0
  8  9  1  0
  9 10  1  0
 10 11  1  0
 11 12  1  0
 12 13  2  0
 13 14  1  0
 14 15  2  0
 15 16  1  0
 16 17  2  0
 17 18  1  0
 15 19  1  0
 14 20  1  0
 13 21  1  0
 11 22  1  0
 11 23  1  0
 10 24  1  0
 10 25  1  0
  9 26  1  0
  9 27  1  0
  8 28  1  0
  7 29  2  0
  5 30  1  0
  4 31  1  0
  2 32  1  0
  2 33  1  0
  1 34  1  0
  1 35  1  0
  1 36  1  0
 29  3  1  0
 17 12  1  0
M  END
>  <plip>  (1) 
-0.07142857142857142

>  <filename>  (1) 
[H][c]1[n][c]([N]([H])[C]([H])([H])[C]([H])([H])[C]([H])([H])[c]2[c]([H])[n][c]([H])[c]([H])[c]2[H])[n][c]([C]([H])([H])[C]([H])([H])[H])[c]1[H]

$$$$
