
     RDKit          3D

 40 42  0  0  0  0  0  0  0  0999 V2000
    9.2113    1.1177   21.1728 C   0  0  0  0  0  0  0  0  0  0  0  0
    8.2003    0.2592   21.9511 C   0  0  0  0  0  0  0  0  0  0  0  0
    7.2798    1.1514   22.7993 C   0  0  0  0  0  0  0  0  0  0  0  0
    6.5033    0.5707   23.3114 H   0  0  0  0  0  0  0  0  0  0  0  0
    7.8624    1.6785   23.5640 H   0  0  0  0  0  0  0  0  0  0  0  0
    6.7829    1.9162   22.1874 H   0  0  0  0  0  0  0  0  0  0  0  0
    7.4361   -0.7296   21.0023 C   0  0  0  0  0  0  0  0  0  0  0  0
    6.5993   -1.6681   21.7465 N   0  0  0  0  0  0  0  0  0  0  0  0
    7.1416   -2.6635   22.4936 C   0  0  0  0  0  0  0  0  0  0  0  0
    8.3515   -2.8808   22.4940 O   0  0  0  0  0  0  0  0  0  0  0  0
    6.1999   -3.5098   23.3189 C   0  0  0  0  0  0  0  0  0  0  0  0
    6.6074   -4.5543   24.1266 C   0  0  0  0  0  0  0  0  0  0  0  0
    5.4727   -5.0471   24.7164 N   0  0  0  0  0  0  0  0  0  0  0  0
    5.2806   -6.0942   25.6047 C   0  0  0  0  0  0  0  0  0  0  0  0
    4.0235   -6.3837   26.0463 C   0  0  0  0  0  0  0  0  0  0  0  0
    2.9275   -5.5831   25.5794 C   0  0  0  0  0  0  0  0  0  0  0  0
    1.7076   -5.8883   26.0338 F   0  0  0  0  0  0  0  0  0  0  0  0
    3.0909   -4.5500   24.7070 C   0  0  0  0  0  0  0  0  0  0  0  0
    4.4109   -4.2606   24.2320 C   0  0  0  0  0  0  0  0  0  0  0  0
    4.8384   -3.3475   23.3855 N   0  0  0  0  0  0  0  0  0  0  0  0
    2.2579   -3.9485   24.3685 H   0  0  0  0  0  0  0  0  0  0  0  0
    3.8198   -7.1918   26.7429 H   0  0  0  0  0  0  0  0  0  0  0  0
    6.1754   -6.6330   25.9032 H   0  0  0  0  0  0  0  0  0  0  0  0
    7.5873   -4.9684   24.3149 H   0  0  0  0  0  0  0  0  0  0  0  0
    5.5939   -1.5726   21.7600 H   0  0  0  0  0  0  0  0  0  0  0  0
    6.6276   -0.0471   19.9220 C   0  0  0  0  0  0  0  0  0  0  0  0
    5.4138    0.6187   20.1601 C   0  0  0  0  0  0  0  0  0  0  0  0
    4.7994    1.2967   19.1036 C   0  0  0  0  0  0  0  0  0  0  0  0
    5.4019    1.2876   17.8429 C   0  0  0  0  0  0  0  0  0  0  0  0
    6.5598    0.6643   17.5924 N   0  0  0  0  0  0  0  0  0  0  0  0
    7.1435    0.0292   18.6168 C   0  0  0  0  0  0  0  0  0  0  0  0
    8.0994   -0.4368   18.3738 H   0  0  0  0  0  0  0  0  0  0  0  0
    4.9413    1.7930   16.9959 H   0  0  0  0  0  0  0  0  0  0  0  0
    3.8760    1.8406   19.2450 H   0  0  0  0  0  0  0  0  0  0  0  0
    4.9816    0.6508   21.1655 H   0  0  0  0  0  0  0  0  0  0  0  0
    8.2303   -1.3273   20.5258 H   0  0  0  0  0  0  0  0  0  0  0  0
    8.7533   -0.4076   22.6265 H   0  0  0  0  0  0  0  0  0  0  0  0
    9.8234    1.7151   21.8581 H   0  0  0  0  0  0  0  0  0  0  0  0
    9.8899    0.5043   20.5689 H   0  0  0  0  0  0  0  0  0  0  0  0
    8.6966    1.8165   20.5006 H   0  0  0  0  0  0  0  0  0  0  0  0
  1  2  1  0
  2  3  1  0
  3  4  1  0
  3  5  1  0
  3  6  1  0
  2  7  1  0
  7  8  1  0
  8  9  1  0
  9 10  2  0
  9 11  1  0
 11 12  2  0
 12 13  1  0
 13 14  1  0
 14 15  2  0
 15 16  1  0
 16 17  1  0
 16 18  2  0
 18 19  1  0
 19 20  2  0
 18 21  1  0
 15 22  1  0
 14 23  1  0
 12 24  1  0
  8 25  1  0
  7 26  1  0
 26 27  2  0
 27 28  1  0
 28 29  2  0
 29 30  1  0
 30 31  2  0
 31 32  1  0
 29 33  1  0
 28 34  1  0
 27 35  1  0
  7 36  1  0
  2 37  1  0
  1 38  1  0
  1 39  1  0
  1 40  1  0
 20 11  1  0
 31 26  1  0
 19 13  1  0
M  END
>  <plip>  (1) 
-0.06666666666666667

>  <filename>  (1) 
[H][c]1[n][c]([H])[c]([C]([H])([N]([H])[C](=[O])[c]2[n][c]3[c]([H])[c]([F])[c]([H])[c]([H])[n]3[c]2[H])[C]([H])([C]([H])([H])[H])[C]([H])([H])[H])[c]([H])[c]1[H]

$$$$
