
     RDKit          3D

 51 54  0  0  0  0  0  0  0  0999 V2000
   12.2133    2.3634   22.5492 N   0  0  0  0  0  0  0  0  0  0  0  0
   10.9270    2.2935   22.2059 C   0  0  0  0  0  0  0  0  0  0  0  0
   10.5477    1.1920   21.6332 N   0  0  0  0  0  0  0  0  0  0  0  0
    9.2324    1.1438   21.4295 C   0  0  0  0  0  0  0  0  0  0  0  0
    8.8878   -0.0479   20.9291 N   0  0  0  0  0  0  0  0  0  0  0  0
    7.5737   -0.6627   20.9278 C   0  0  0  0  0  0  0  0  0  0  0  0
    6.9208   -0.8026   22.3163 C   0  0  0  0  0  0  0  0  0  0  0  0
    7.6549   -1.6793   23.3367 C   0  0  0  0  0  0  0  0  0  0  0  0
    6.9744   -1.7553   24.7147 C   0  0  0  0  0  0  0  0  0  0  0  0
    7.4790   -3.0863   25.2813 C   0  0  0  0  0  0  0  0  0  0  0  0
    7.8272   -3.8969   24.1667 O   0  0  0  0  0  0  0  0  0  0  0  0
    7.7110   -3.1657   22.9598 C   0  0  0  0  0  0  0  0  0  0  0  0
    6.7861   -3.4606   22.4335 H   0  0  0  0  0  0  0  0  0  0  0  0
    8.5608   -3.4257   22.3164 H   0  0  0  0  0  0  0  0  0  0  0  0
    8.3671   -2.9474   25.9134 H   0  0  0  0  0  0  0  0  0  0  0  0
    6.7235   -3.6077   25.8840 H   0  0  0  0  0  0  0  0  0  0  0  0
    7.2224   -0.9121   25.3676 H   0  0  0  0  0  0  0  0  0  0  0  0
    5.8817   -1.7748   24.6082 H   0  0  0  0  0  0  0  0  0  0  0  0
    8.6836   -1.3181   23.4847 H   0  0  0  0  0  0  0  0  0  0  0  0
    6.7628    0.1954   22.7421 H   0  0  0  0  0  0  0  0  0  0  0  0
    5.9322   -1.2441   22.1422 H   0  0  0  0  0  0  0  0  0  0  0  0
    6.7028    0.0482   19.9054 C   0  0  0  0  0  0  0  0  0  0  0  0
    5.4648    0.6627   20.1359 C   0  0  0  0  0  0  0  0  0  0  0  0
    4.8180    1.3013   19.0702 C   0  0  0  0  0  0  0  0  0  0  0  0
    5.4240    1.2972   17.8114 C   0  0  0  0  0  0  0  0  0  0  0  0
    6.6008    0.7015   17.5648 N   0  0  0  0  0  0  0  0  0  0  0  0
    7.2117    0.1102   18.5968 C   0  0  0  0  0  0  0  0  0  0  0  0
    8.1676   -0.3582   18.3653 H   0  0  0  0  0  0  0  0  0  0  0  0
    4.9465    1.7860   16.9649 H   0  0  0  0  0  0  0  0  0  0  0  0
    3.8710    1.8122   19.2097 H   0  0  0  0  0  0  0  0  0  0  0  0
    5.0126    0.6788   21.1312 H   0  0  0  0  0  0  0  0  0  0  0  0
    7.7368   -1.6807   20.5352 H   0  0  0  0  0  0  0  0  0  0  0  0
    9.7156   -0.6051   21.0461 H   0  0  0  0  0  0  0  0  0  0  0  0
    8.3633    2.1711   21.6817 C   0  0  0  0  0  0  0  0  0  0  0  0
    8.9813    3.2871   22.2087 C   0  0  0  0  0  0  0  0  0  0  0  0
    8.1547    4.3204   22.4133 O   0  0  0  0  0  0  0  0  0  0  0  0
    8.4493    5.4421   23.1665 C   0  0  0  0  0  0  0  0  0  0  0  0
    7.7662    6.5923   22.7612 C   0  0  0  0  0  0  0  0  0  0  0  0
    7.9110    7.7699   23.4936 C   0  0  0  0  0  0  0  0  0  0  0  0
    8.7555    7.8030   24.6120 C   0  0  0  0  0  0  0  0  0  0  0  0
    9.4198    6.6407   25.0129 C   0  0  0  0  0  0  0  0  0  0  0  0
    9.2676    5.4451   24.3007 C   0  0  0  0  0  0  0  0  0  0  0  0
    9.7787    4.5377   24.6023 H   0  0  0  0  0  0  0  0  0  0  0  0
   10.0667    6.6567   25.8872 H   0  0  0  0  0  0  0  0  0  0  0  0
    8.8966    8.7288   25.1618 H   0  0  0  0  0  0  0  0  0  0  0  0
    7.3623    8.6602   23.1915 H   0  0  0  0  0  0  0  0  0  0  0  0
    7.1320    6.5240   21.8824 H   0  0  0  0  0  0  0  0  0  0  0  0
   10.2524    3.3878   22.5022 N   0  0  0  0  0  0  0  0  0  0  0  0
    7.3024    2.1439   21.5217 H   0  0  0  0  0  0  0  0  0  0  0  0
   12.7202    1.7659   21.9222 H   0  0  0  0  0  0  0  0  0  0  0  0
   12.4196    3.3415   22.5421 H   0  0  0  0  0  0  0  0  0  0  0  0
  1  2  1  0
  2  3  2  0
  3  4  1  0
  4  5  1  0
  5  6  1  0
  6  7  1  0
  7  8  1  0
  8  9  1  0
  9 10  1  0
 10 11  1  0
 11 12  1  0
 12 13  1  0
 12 14  1  0
 10 15  1  0
 10 16  1  0
  9 17  1  0
  9 18  1  0
  8 19  1  0
  7 20  1  0
  7 21  1  0
  6 22  1  0
 22 23  2  0
 23 24  1  0
 24 25  2  0
 25 26  1  0
 26 27  2  0
 27 28  1  0
 25 29  1  0
 24 30  1  0
 23 31  1  0
  6 32  1  0
  5 33  1  0
  4 34  2  0
 34 35  1  0
 35 36  1  0
 36 37  1  0
 37 38  2  0
 38 39  1  0
 39 40  2  0
 40 41  1  0
 41 42  2  0
 42 43  1  0
 41 44  1  0
 40 45  1  0
 39 46  1  0
 38 47  1  0
 35 48  2  0
 34 49  1  0
  1 50  1  0
  1 51  1  0
 48  2  1  0
 12  8  1  0
 27 22  1  0
 42 37  1  0
M  END
>  <plip>  (1) 
-0.1

>  <filename>  (1) 
[H][c]1[n][c]([H])[c]([C]([H])([N]([H])[c]2[n][c]([N]([H])[H])[n][c]([O][c]3[c]([H])[c]([H])[c]([H])[c]([H])[c]3[H])[c]2[H])[C]([H])([H])[C]2([H])[C]([H])([H])[O][C]([H])([H])[C]2([H])[H])[c]([H])[c]1[H]

$$$$
