
     RDKit          3D

 36 36  0  0  0  0  0  0  0  0999 V2000
    5.6311   -1.4878   21.7915 H   0  0  0  0  0  0  0  0  0  0  0  0
    6.7115   -1.4486   21.8575 C   0  0  0  0  0  0  0  0  0  0  0  0
    7.4012   -0.7259   20.9111 C   0  0  0  0  0  0  0  0  0  0  0  0
    9.3142   -0.6512   20.9565 Br  0  0  0  0  0  0  0  0  0  0  0  0
    6.6783   -0.0099   19.8587 C   0  0  0  0  0  0  0  0  0  0  0  0
    7.2229    0.0835   18.5678 C   0  0  0  0  0  0  0  0  0  0  0  0
    8.1765   -0.3963   18.3694 H   0  0  0  0  0  0  0  0  0  0  0  0
    6.6147    0.7189   17.5487 N   0  0  0  0  0  0  0  0  0  0  0  0
    5.4332    1.3128   17.7989 C   0  0  0  0  0  0  0  0  0  0  0  0
    4.9354    1.8379   16.9901 H   0  0  0  0  0  0  0  0  0  0  0  0
    4.8232    1.2750   19.0585 C   0  0  0  0  0  0  0  0  0  0  0  0
    3.8774    1.7866   19.2069 H   0  0  0  0  0  0  0  0  0  0  0  0
    5.4441    0.5994   20.1100 C   0  0  0  0  0  0  0  0  0  0  0  0
    4.9961    0.5726   21.1027 H   0  0  0  0  0  0  0  0  0  0  0  0
    7.3941   -2.2145   22.9529 C   0  0  0  0  0  0  0  0  0  0  0  0
    6.7692   -3.0616   23.2498 H   0  0  0  0  0  0  0  0  0  0  0  0
    8.3507   -2.6081   22.5976 H   0  0  0  0  0  0  0  0  0  0  0  0
    7.6357   -1.3044   24.1492 C   0  0  0  0  0  0  0  0  0  0  0  0
    6.6850   -0.8894   24.4973 H   0  0  0  0  0  0  0  0  0  0  0  0
    8.2844   -0.4691   23.8605 H   0  0  0  0  0  0  0  0  0  0  0  0
    8.3022   -2.0938   25.2712 C   0  0  0  0  0  0  0  0  0  0  0  0
    7.6511   -2.9115   25.5976 H   0  0  0  0  0  0  0  0  0  0  0  0
    9.2395   -2.5283   24.9142 H   0  0  0  0  0  0  0  0  0  0  0  0
    8.6108   -1.1741   26.4418 C   0  0  0  0  0  0  0  0  0  0  0  0
    9.1893   -1.7240   27.1905 H   0  0  0  0  0  0  0  0  0  0  0  0
    9.2074   -0.3258   26.0867 H   0  0  0  0  0  0  0  0  0  0  0  0
    7.3461   -0.6638   27.1225 C   0  0  0  0  0  0  0  0  0  0  0  0
    6.6725   -0.1613   26.4238 H   0  0  0  0  0  0  0  0  0  0  0  0
    6.8081   -1.5241   27.5387 H   0  0  0  0  0  0  0  0  0  0  0  0
    7.7339    0.3025   28.2443 C   0  0  0  0  0  0  0  0  0  0  0  0
    6.9892    0.2138   29.0356 H   0  0  0  0  0  0  0  0  0  0  0  0
    8.7059    0.0126   28.6674 H   0  0  0  0  0  0  0  0  0  0  0  0
    7.8094    1.7722   27.8086 C   0  0  0  0  0  0  0  0  0  0  0  0
    8.0873    2.3819   28.6727 H   0  0  0  0  0  0  0  0  0  0  0  0
    6.8436    2.1492   27.4478 H   0  0  0  0  0  0  0  0  0  0  0  0
    8.5660    1.8930   27.0231 H   0  0  0  0  0  0  0  0  0  0  0  0
  1  2  1  0
  2  3  2  3
  3  4  1  0
  3  5  1  0
  5  6  2  0
  6  7  1  0
  6  8  1  0
  8  9  2  0
  9 10  1  0
  9 11  1  0
 11 12  1  0
 11 13  2  0
 13 14  1  0
  2 15  1  0
 15 16  1  0
 15 17  1  0
 15 18  1  0
 18 19  1  0
 18 20  1  0
 18 21  1  0
 21 22  1  0
 21 23  1  0
 21 24  1  0
 24 25  1  0
 24 26  1  0
 24 27  1  0
 27 28  1  0
 27 29  1  0
 27 30  1  0
 30 31  1  0
 30 32  1  0
 30 33  1  0
 33 34  1  0
 33 35  1  0
 33 36  1  0
 13  5  1  0
M  END
>  <plip>  (1) 
-0.0

>  <filename>  (1) 
[H][C](=[C]([Br])[c]1[c]([H])[n][c]([H])[c]([H])[c]1[H])[C]([H])([H])[C]([H])([H])[C]([H])([H])[C]([H])([H])[C]([H])([H])[C]([H])([H])[C]([H])([H])[H]

$$$$
