
     RDKit          3D

 28 29  0  0  0  0  0  0  0  0999 V2000
    5.0312    1.7534   16.9748 H   0  0  0  0  0  0  0  0  0  0  0  0
    5.4696    1.2553   17.8380 C   0  0  0  0  0  0  0  0  0  0  0  0
    6.6204    0.5974   17.6228 N   0  0  0  0  0  0  0  0  0  0  0  0
    7.1712   -0.0332   18.6692 C   0  0  0  0  0  0  0  0  0  0  0  0
    8.0954   -0.5758   18.4696 H   0  0  0  0  0  0  0  0  0  0  0  0
    6.6336   -0.0303   19.9637 C   0  0  0  0  0  0  0  0  0  0  0  0
    7.3919   -0.6639   21.1071 C   0  0  1  0  0  0  0  0  0  0  0  0
    6.7100   -0.7639   21.9592 H   0  0  0  0  0  0  0  0  0  0  0  0
    7.7948   -1.9760   20.6880 O   0  0  0  0  0  0  0  0  0  0  0  0
    7.9488   -2.9486   21.6048 C   0  0  0  0  0  0  0  0  0  0  0  0
    8.2416   -2.7662   22.8809 N   0  0  0  0  0  0  0  0  0  0  0  0
    8.3551   -4.0161   23.3908 N   0  0  0  0  0  0  0  0  0  0  0  0
    8.7270   -4.2253   24.7764 C   0  0  0  0  0  0  0  0  0  0  0  0
    9.6812   -4.7574   24.8536 H   0  0  0  0  0  0  0  0  0  0  0  0
    8.8186   -3.2458   25.2487 H   0  0  0  0  0  0  0  0  0  0  0  0
    7.9707   -4.8256   25.2941 H   0  0  0  0  0  0  0  0  0  0  0  0
    8.1016   -4.9684   22.4656 C   0  0  0  0  0  0  0  0  0  0  0  0
    8.1066   -6.0200   22.7357 H   0  0  0  0  0  0  0  0  0  0  0  0
    7.8464   -4.3219   21.2813 C   0  0  0  0  0  0  0  0  0  0  0  0
    7.5919   -4.7316   20.3191 H   0  0  0  0  0  0  0  0  0  0  0  0
    8.6036    0.1644   21.5180 C   0  0  0  0  0  0  0  0  0  0  0  0
    9.1248   -0.3106   22.3534 H   0  0  0  0  0  0  0  0  0  0  0  0
    8.2541    1.1550   21.8259 H   0  0  0  0  0  0  0  0  0  0  0  0
    9.3062    0.3031   20.6872 H   0  0  0  0  0  0  0  0  0  0  0  0
    5.4226    0.6483   20.1614 C   0  0  0  0  0  0  0  0  0  0  0  0
    4.9495    0.6600   21.1451 H   0  0  0  0  0  0  0  0  0  0  0  0
    4.8307    1.3006   19.0789 C   0  0  0  0  0  0  0  0  0  0  0  0
    3.8946    1.8385   19.1841 H   0  0  0  0  0  0  0  0  0  0  0  0
  1  2  1  0
  2  3  2  0
  3  4  1  0
  4  5  1  0
  4  6  2  0
  6  7  1  0
  7  8  1  1
  7  9  1  0
  9 10  1  0
 10 11  2  0
 11 12  1  0
 12 13  1  0
 13 14  1  0
 13 15  1  0
 13 16  1  0
 12 17  1  0
 17 18  1  0
 17 19  2  0
 19 20  1  0
  7 21  1  0
 21 22  1  0
 21 23  1  0
 21 24  1  0
  6 25  1  0
 25 26  1  0
 25 27  2  0
 27 28  1  0
 27  2  1  0
 19 10  1  0
M  END
>  <plip>  (1) 
-0.06896551724137931

>  <filename>  (1) 
[H][c]1[n][c]([H])[c]([C@@]([H])([O][c]2[n][n]([C]([H])([H])[H])[c]([H])[c]2[H])[C]([H])([H])[H])[c]([H])[c]1[H]

$$$$
