
     RDKit          3D

 46 48  0  0  0  0  0  0  0  0999 V2000
    4.9410    1.8360   16.9262 H   0  0  0  0  0  0  0  0  0  0  0  0
    5.3901    1.3639   17.7991 C   0  0  0  0  0  0  0  0  0  0  0  0
    6.5668    0.7574   17.5956 N   0  0  0  0  0  0  0  0  0  0  0  0
    7.1361    0.1815   18.6617 C   0  0  0  0  0  0  0  0  0  0  0  0
    8.0726   -0.3316   18.4491 H   0  0  0  0  0  0  0  0  0  0  0  0
    6.6033    0.1591   19.9709 C   0  0  0  0  0  0  0  0  0  0  0  0
    7.4199   -0.5198   21.0989 C   0  0  0  0  0  0  0  0  0  0  0  0
    8.5908    0.4558   21.3852 C   0  0  0  0  0  0  0  0  0  0  0  0
    9.0959    0.6726   20.4337 H   0  0  0  0  0  0  0  0  0  0  0  0
    8.1450    1.4090   21.7043 H   0  0  0  0  0  0  0  0  0  0  0  0
    9.6566    0.0167   22.3768 C   0  0  0  0  0  0  0  0  0  0  0  0
   10.1329   -0.9064   22.0193 H   0  0  0  0  0  0  0  0  0  0  0  0
    9.1796   -0.2263   23.3389 H   0  0  0  0  0  0  0  0  0  0  0  0
   10.6952    1.0276   22.5469 N   0  0  0  0  0  0  0  0  0  0  0  0
   10.2721    2.3083   23.1245 C   0  0  0  0  0  0  0  0  0  0  0  0
    9.8042    2.9522   22.3712 H   0  0  0  0  0  0  0  0  0  0  0  0
    9.5260    2.1759   23.9319 H   0  0  0  0  0  0  0  0  0  0  0  0
   11.5608    2.9420   23.6922 C   0  0  0  0  0  0  0  0  0  0  0  0
   11.4448    3.1170   24.7638 H   0  0  0  0  0  0  0  0  0  0  0  0
   11.7841    3.9109   23.2362 H   0  0  0  0  0  0  0  0  0  0  0  0
   12.6574    1.8995   23.4173 C   0  0  0  0  0  0  0  0  0  0  0  0
   13.4276    1.8828   24.1969 H   0  0  0  0  0  0  0  0  0  0  0  0
   13.1418    2.0991   22.4554 H   0  0  0  0  0  0  0  0  0  0  0  0
   11.8689    0.5845   23.3096 C   0  0  1  0  0  0  0  0  0  0  0  0
   12.4286   -0.1623   22.7185 H   0  0  0  0  0  0  0  0  0  0  0  0
   11.5048   -0.0055   24.6917 C   0  0  0  0  0  0  0  0  0  0  0  0
   12.3936   -0.2298   25.2870 H   0  0  0  0  0  0  0  0  0  0  0  0
   10.9000    0.7001   25.2758 H   0  0  0  0  0  0  0  0  0  0  0  0
   10.9183   -0.9275   24.5968 H   0  0  0  0  0  0  0  0  0  0  0  0
    6.5422   -0.8615   22.3273 C   0  0  0  0  0  0  0  0  0  0  0  0
    5.6676   -1.3691   21.9010 H   0  0  0  0  0  0  0  0  0  0  0  0
    6.1855    0.0391   22.8374 H   0  0  0  0  0  0  0  0  0  0  0  0
    7.1589   -1.8269   23.3670 C   0  0  0  0  0  0  0  0  0  0  0  0
    6.3903   -2.5410   23.7140 H   0  0  0  0  0  0  0  0  0  0  0  0
    7.5343   -1.2879   24.2443 H   0  0  0  0  0  0  0  0  0  0  0  0
    8.2770   -2.5500   22.8864 O   0  0  0  0  0  0  0  0  0  0  0  0
    8.1107   -3.0260   21.5688 C   0  0  0  0  0  0  0  0  0  0  0  0
    9.0233   -3.5780   21.3314 H   0  0  0  0  0  0  0  0  0  0  0  0
    7.2701   -3.7415   21.5163 H   0  0  0  0  0  0  0  0  0  0  0  0
    7.8920   -1.8924   20.5459 C   0  0  0  0  0  0  0  0  0  0  0  0
    8.8110   -1.7475   19.9662 H   0  0  0  0  0  0  0  0  0  0  0  0
    7.1204   -2.2333   19.8416 H   0  0  0  0  0  0  0  0  0  0  0  0
    5.3760    0.8106   20.1514 C   0  0  0  0  0  0  0  0  0  0  0  0
    4.9037    0.8471   21.1348 H   0  0  0  0  0  0  0  0  0  0  0  0
    4.7580    1.4084   19.0421 C   0  0  0  0  0  0  0  0  0  0  0  0
    3.8061    1.9159   19.1378 H   0  0  0  0  0  0  0  0  0  0  0  0
  1  2  1  0
  2  3  2  0
  3  4  1  0
  4  5  1  0
  4  6  2  0
  6  7  1  0
  7  8  1  0
  8  9  1  0
  8 10  1  0
  8 11  1  0
 11 12  1  0
 11 13  1  0
 11 14  1  0
 14 15  1  0
 15 16  1  0
 15 17  1  0
 15 18  1  0
 18 19  1  0
 18 20  1  0
 18 21  1  0
 21 22  1  0
 21 23  1  0
 21 24  1  0
 24 25  1  6
 24 26  1  0
 26 27  1  0
 26 28  1  0
 26 29  1  0
  7 30  1  0
 30 31  1  0
 30 32  1  0
 30 33  1  0
 33 34  1  0
 33 35  1  0
 33 36  1  0
 36 37  1  0
 37 38  1  0
 37 39  1  0
 37 40  1  0
 40 41  1  0
 40 42  1  0
  6 43  1  0
 43 44  1  0
 43 45  2  0
 45 46  1  0
 45  2  1  0
 40  7  1  0
 24 14  1  0
M  END
>  <plip>  (1) 
-0.06666666666666667

>  <filename>  (1) 
[H][c]1[n][c]([H])[c]([C]2([C]([H])([H])[C]([H])([H])[N]3[C]([H])([H])[C]([H])([H])[C]([H])([H])[C@@]3([H])[C]([H])([H])[H])[C]([H])([H])[C]([H])([H])[O][C]([H])([H])[C]2([H])[H])[c]([H])[c]1[H]

$$$$
