
     RDKit          3D

 43 45  0  0  0  0  0  0  0  0999 V2000
    7.2318    1.8524   22.7863 C   0  0  0  0  0  0  0  0  0  0  0  0
    8.4395    1.0374   22.7045 N   0  0  0  0  0  0  0  0  0  0  0  0
    9.4910    1.1929   23.7317 C   0  0  0  0  0  0  0  0  0  0  0  0
   10.6994    1.9992   23.2915 C   0  0  0  0  0  0  0  0  0  0  0  0
   10.6426    3.3987   23.2119 C   0  0  0  0  0  0  0  0  0  0  0  0
   11.7553    4.1591   22.8351 C   0  0  0  0  0  0  0  0  0  0  0  0
   12.9740    3.5197   22.5988 C   0  0  0  0  0  0  0  0  0  0  0  0
   13.0568    2.1259   22.6995 C   0  0  0  0  0  0  0  0  0  0  0  0
   11.9222    1.3589   22.9815 C   0  0  0  0  0  0  0  0  0  0  0  0
   11.9961   -0.0388   22.9782 N   0  0  0  0  0  0  0  0  0  0  0  0
   11.2280   -0.3821   22.3997 H   0  0  0  0  0  0  0  0  0  0  0  0
   12.8788   -0.3473   22.5973 H   0  0  0  0  0  0  0  0  0  0  0  0
   13.9981    1.6053   22.5475 H   0  0  0  0  0  0  0  0  0  0  0  0
   13.8548    4.0995   22.3256 H   0  0  0  0  0  0  0  0  0  0  0  0
   11.6647    5.2393   22.7273 H   0  0  0  0  0  0  0  0  0  0  0  0
    9.7135    3.9129   23.4573 H   0  0  0  0  0  0  0  0  0  0  0  0
    9.0244    1.6931   24.5915 H   0  0  0  0  0  0  0  0  0  0  0  0
    9.8143    0.2070   24.0898 H   0  0  0  0  0  0  0  0  0  0  0  0
    8.6237    0.1176   21.6998 C   0  0  0  0  0  0  0  0  0  0  0  0
    9.7489   -0.2245   21.3380 O   0  0  0  0  0  0  0  0  0  0  0  0
    7.3701   -0.5562   21.0617 C   0  0  0  0  0  0  0  0  0  0  0  0
    6.6817    0.2565   19.9586 C   0  0  0  0  0  0  0  0  0  0  0  0
    5.4391    0.8807   20.1379 C   0  0  0  0  0  0  0  0  0  0  0  0
    4.7913    1.4496   19.0355 C   0  0  0  0  0  0  0  0  0  0  0  0
    5.4092    1.3950   17.7823 C   0  0  0  0  0  0  0  0  0  0  0  0
    6.6072    0.8270   17.5814 N   0  0  0  0  0  0  0  0  0  0  0  0
    7.2153    0.2930   18.6487 C   0  0  0  0  0  0  0  0  0  0  0  0
    8.1840   -0.1612   18.4424 H   0  0  0  0  0  0  0  0  0  0  0  0
    4.9249    1.8163   16.9034 H   0  0  0  0  0  0  0  0  0  0  0  0
    3.8195    1.9158   19.1328 H   0  0  0  0  0  0  0  0  0  0  0  0
    4.9695    0.9000   21.1241 H   0  0  0  0  0  0  0  0  0  0  0  0
    7.7368   -2.0034   20.6092 C   0  0  0  0  0  0  0  0  0  0  0  0
    7.2374   -2.5611   21.9495 C   0  0  0  0  0  0  0  0  0  0  0  0
    6.4494   -1.2486   22.1273 C   0  0  0  0  0  0  0  0  0  0  0  0
    6.3888   -0.8412   23.1406 H   0  0  0  0  0  0  0  0  0  0  0  0
    5.4496   -1.3345   21.6962 H   0  0  0  0  0  0  0  0  0  0  0  0
    8.0516   -2.6726   22.6730 H   0  0  0  0  0  0  0  0  0  0  0  0
    6.6733   -3.4994   21.9268 H   0  0  0  0  0  0  0  0  0  0  0  0
    8.7870   -2.1500   20.3408 H   0  0  0  0  0  0  0  0  0  0  0  0
    7.0600   -2.2770   19.7947 H   0  0  0  0  0  0  0  0  0  0  0  0
    7.3797    2.6584   23.5137 H   0  0  0  0  0  0  0  0  0  0  0  0
    7.0140    2.3153   21.8177 H   0  0  0  0  0  0  0  0  0  0  0  0
    6.3512    1.2812   23.1104 H   0  0  0  0  0  0  0  0  0  0  0  0
  1  2  1  0
  2  3  1  0
  3  4  1  0
  4  5  2  0
  5  6  1  0
  6  7  2  0
  7  8  1  0
  8  9  2  0
  9 10  1  0
 10 11  1  0
 10 12  1  0
  8 13  1  0
  7 14  1  0
  6 15  1  0
  5 16  1  0
  3 17  1  0
  3 18  1  0
  2 19  1  0
 19 20  2  0
 19 21  1  0
 21 22  1  0
 22 23  2  0
 23 24  1  0
 24 25  2  0
 25 26  1  0
 26 27  2  0
 27 28  1  0
 25 29  1  0
 24 30  1  0
 23 31  1  0
 21 32  1  0
 32 33  1  0
 33 34  1  0
 34 35  1  0
 34 36  1  0
 33 37  1  0
 33 38  1  0
 32 39  1  0
 32 40  1  0
  1 41  1  0
  1 42  1  0
  1 43  1  0
  9  4  1  0
 34 21  1  0
 27 22  1  0
M  END
>  <plip>  (1) 
-0.07142857142857142

>  <filename>  (1) 
[H][c]1[n][c]([H])[c]([C]2([C](=[O])[N]([C]([H])([H])[H])[C]([H])([H])[c]3[c]([H])[c]([H])[c]([H])[c]([H])[c]3[N]([H])[H])[C]([H])([H])[C]([H])([H])[C]2([H])[H])[c]([H])[c]1[H]

$$$$
