
     RDKit          3D

 40 42  0  0  0  0  0  0  0  0999 V2000
    6.9039    0.8669   29.5683 C   0  0  0  0  0  0  0  0  0  0  0  0
    8.1247    0.6690   29.0669 C   0  0  0  0  0  0  0  0  0  0  0  0
    8.3444    0.0404   27.7063 C   0  0  0  0  0  0  0  0  0  0  0  0
    7.1280    0.2618   26.7753 C   0  0  0  0  0  0  0  0  0  0  0  0
    7.3016   -0.4707   25.4973 N   0  0  0  0  0  4  0  0  0  0  0  0
    8.4704   -0.0955   24.6690 C   0  0  0  0  0  0  0  0  0  0  0  0
    8.1900   -0.6545   23.3076 C   0  0  0  0  0  0  0  0  0  0  0  0
    8.5447   -1.9830   23.0476 C   0  0  0  0  0  0  0  0  0  0  0  0
    8.2184   -2.6378   21.9271 N   0  0  0  0  0  0  0  0  0  0  0  0
    7.5502   -1.9457   20.9990 C   0  0  0  0  0  0  0  0  0  0  0  0
    7.2102   -0.5812   21.0943 C   0  0  0  0  0  0  0  0  0  0  0  0
    6.5579    0.1494   19.9581 C   0  0  0  0  0  0  0  0  0  0  0  0
    5.3348    0.8189   20.1255 C   0  0  0  0  0  0  0  0  0  0  0  0
    4.7299    1.4136   19.0156 C   0  0  0  0  0  0  0  0  0  0  0  0
    5.3888    1.3559   17.7851 C   0  0  0  0  0  0  0  0  0  0  0  0
    6.5738    0.7535   17.6030 N   0  0  0  0  0  0  0  0  0  0  0  0
    7.1359    0.1718   18.6687 C   0  0  0  0  0  0  0  0  0  0  0  0
    8.1000   -0.3099   18.4901 H   0  0  0  0  0  0  0  0  0  0  0  0
    4.9585    1.8195   16.9022 H   0  0  0  0  0  0  0  0  0  0  0  0
    3.7835    1.9386   19.0924 H   0  0  0  0  0  0  0  0  0  0  0  0
    4.8687    0.8609   21.1118 H   0  0  0  0  0  0  0  0  0  0  0  0
    7.5177    0.0571   22.3023 C   0  0  0  0  0  0  0  0  0  0  0  0
    7.2343    1.1037   22.4208 H   0  0  0  0  0  0  0  0  0  0  0  0
    7.2323   -2.5029   20.1218 H   0  0  0  0  0  0  0  0  0  0  0  0
    9.1123   -2.5567   23.7762 H   0  0  0  0  0  0  0  0  0  0  0  0
    9.3908   -0.5382   25.0696 H   0  0  0  0  0  0  0  0  0  0  0  0
    8.5903    0.9962   24.6394 H   0  0  0  0  0  0  0  0  0  0  0  0
    7.3643   -1.5022   25.6904 H   0  0  0  0  0  0  0  0  0  0  0  0
    6.4663   -0.3819   24.8745 H   0  0  0  0  0  0  0  0  0  0  0  0
    5.8451   -0.1785   27.4852 C   0  0  0  0  0  0  0  0  0  0  0  0
    5.6243    0.6154   28.7973 C   0  0  0  0  0  0  0  0  0  0  0  0
    5.1799    1.5983   28.5779 H   0  0  0  0  0  0  0  0  0  0  0  0
    4.8791    0.1149   29.4340 H   0  0  0  0  0  0  0  0  0  0  0  0
    4.9743   -0.0555   26.8291 H   0  0  0  0  0  0  0  0  0  0  0  0
    5.9300   -1.2507   27.7118 H   0  0  0  0  0  0  0  0  0  0  0  0
    7.0535    1.3407   26.5605 H   0  0  0  0  0  0  0  0  0  0  0  0
    9.2572    0.4116   27.2267 H   0  0  0  0  0  0  0  0  0  0  0  0
    8.4896   -1.0502   27.8090 H   0  0  0  0  0  0  0  0  0  0  0  0
    8.9967    0.9545   29.6553 H   0  0  0  0  0  0  0  0  0  0  0  0
    6.8027    1.2966   30.5646 H   0  0  0  0  0  0  0  0  0  0  0  0
  1  2  2  0
  2  3  1  0
  3  4  1  0
  4  5  1  0
  5  6  1  0
  6  7  1  0
  7  8  2  0
  8  9  1  0
  9 10  2  0
 10 11  1  0
 11 12  1  0
 12 13  2  0
 13 14  1  0
 14 15  2  0
 15 16  1  0
 16 17  2  0
 17 18  1  0
 15 19  1  0
 14 20  1  0
 13 21  1  0
 11 22  2  0
 22 23  1  0
 10 24  1  0
  8 25  1  0
  6 26  1  0
  6 27  1  0
  5 28  1  0
  5 29  1  0
  4 30  1  0
 30 31  1  0
 31 32  1  0
 31 33  1  0
 30 34  1  0
 30 35  1  0
  4 36  1  0
  3 37  1  0
  3 38  1  0
  2 39  1  0
  1 40  1  0
 31  1  1  0
 22  7  1  0
 17 12  1  0
M  CHG  1   5   1
M  END
>  <plip>  (1) 
-0.06896551724137931

>  <filename>  (1) 
[H][C]1=[C]([H])[C]([H])([H])[C]([H])([N+]([H])([H])[C]([H])([H])[c]2[c]([H])[n][c]([H])[c](-[c]3[c]([H])[n][c]([H])[c]([H])[c]3[H])[c]2[H])[C]([H])([H])[C]1([H])[H]

$$$$
