
     RDKit          3D

 31 33  0  0  0  0  0  0  0  0999 V2000
    4.9258    1.7842   17.0021 H   0  0  0  0  0  0  0  0  0  0  0  0
    5.4091    1.2863   17.8427 C   0  0  0  0  0  0  0  0  0  0  0  0
    6.5705    0.6726   17.5895 N   0  0  0  0  0  0  0  0  0  0  0  0
    7.1930    0.0490   18.6028 C   0  0  0  0  0  0  0  0  0  0  0  0
    8.1380   -0.4226   18.3441 H   0  0  0  0  0  0  0  0  0  0  0  0
    6.6805   -0.0135   19.9191 C   0  0  0  0  0  0  0  0  0  0  0  0
    7.2470   -0.6624   20.9990 O   0  0  0  0  0  0  0  0  0  0  0  0
    8.4949   -1.3398   20.8863 C   0  0  2  0  0  0  0  0  0  0  0  0
    8.4689   -1.9959   20.0114 H   0  0  0  0  0  0  0  0  0  0  0  0
    8.7548   -2.0951   22.0987 N   0  0  0  0  0  0  0  0  0  0  0  0
    8.0973   -3.3158   22.4296 C   0  0  0  0  0  0  0  0  0  0  0  0
    6.7548   -3.5717   22.0516 C   0  0  0  0  0  0  0  0  0  0  0  0
    6.1913   -2.8291   21.4965 H   0  0  0  0  0  0  0  0  0  0  0  0
    6.1023   -4.7021   22.3461 N   0  0  0  0  0  0  0  0  0  0  0  0
    6.7481   -5.6411   23.0432 C   0  0  0  0  0  0  0  0  0  0  0  0
    6.1829   -6.5437   23.2690 H   0  0  0  0  0  0  0  0  0  0  0  0
    8.0713   -5.4907   23.4621 C   0  0  0  0  0  0  0  0  0  0  0  0
    8.5438   -6.2792   24.0285 H   0  0  0  0  0  0  0  0  0  0  0  0
    8.7615   -4.3159   23.1609 C   0  0  0  0  0  0  0  0  0  0  0  0
    9.7868   -4.1522   23.4895 H   0  0  0  0  0  0  0  0  0  0  0  0
    9.8381   -1.5404   22.8109 C   0  0  0  0  0  0  0  0  0  0  0  0
   10.2684   -1.8297   23.9057 O   0  0  0  0  0  0  0  0  0  0  0  0
   10.3534   -0.5566   22.0324 N   0  0  0  0  0  0  0  0  0  0  0  0
   11.1678   -0.0923   22.3824 H   0  0  0  0  0  0  0  0  0  0  0  0
    9.6808   -0.3585   20.7782 C   0  0  0  0  0  0  0  0  0  0  0  0
    9.3433    0.6750   20.6319 H   0  0  0  0  0  0  0  0  0  0  0  0
   10.3055   -0.6281   19.9262 H   0  0  0  0  0  0  0  0  0  0  0  0
    5.4611    0.6327   20.1684 C   0  0  0  0  0  0  0  0  0  0  0  0
    5.0446    0.6030   21.1752 H   0  0  0  0  0  0  0  0  0  0  0  0
    4.8278    1.2939   19.1160 C   0  0  0  0  0  0  0  0  0  0  0  0
    3.8971    1.8231   19.2681 H   0  0  0  0  0  0  0  0  0  0  0  0
  1  2  1  0
  2  3  2  0
  3  4  1  0
  4  5  1  0
  4  6  2  0
  6  7  1  0
  7  8  1  0
  8  9  1  6
  8 10  1  0
 10 11  1  0
 11 12  2  0
 12 13  1  0
 12 14  1  0
 14 15  2  0
 15 16  1  0
 15 17  1  0
 17 18  1  0
 17 19  2  0
 19 20  1  0
 10 21  1  0
 21 22  2  0
 21 23  1  0
 23 24  1  0
 23 25  1  0
 25 26  1  0
 25 27  1  0
  6 28  1  0
 28 29  1  0
 28 30  2  0
 30 31  1  0
 30  2  1  0
 25  8  1  0
 19 11  1  0
M  END
>  <plip>  (1) 
-0.10714285714285714

>  <filename>  (1) 
[H][c]1[n][c]([H])[c]([O][C@]2([H])[N]([c]3[c]([H])[n][c]([H])[c]([H])[c]3[H])[C](=[O])[N]([H])[C]2([H])[H])[c]([H])[c]1[H]

$$$$
