
     RDKit          3D

 38 39  0  0  0  0  0  0  0  0999 V2000
    5.7891   -0.0235   24.9179 C   0  0  0  0  0  0  0  0  0  0  0  0
    6.5347   -1.2868   24.4946 C   0  0  0  0  0  0  0  0  0  0  0  0
    7.3401   -1.0887   23.2826 N   0  0  0  0  0  0  0  0  0  0  0  0
    8.7633   -0.7903   23.4571 C   0  0  0  0  0  0  0  0  0  0  0  0
    9.6349   -2.0255   23.1897 C   0  0  0  0  0  0  0  0  0  0  0  0
    9.3143   -3.1649   24.1288 C   0  0  0  0  0  0  0  0  0  0  0  0
    8.4551   -4.2196   23.7850 C   0  0  0  0  0  0  0  0  0  0  0  0
    8.2314   -5.2452   24.7067 C   0  0  0  0  0  0  0  0  0  0  0  0
    8.8807   -5.1815   25.9406 C   0  0  0  0  0  0  0  0  0  0  0  0
    9.6978   -4.0825   26.2022 C   0  0  0  0  0  0  0  0  0  0  0  0
    9.8947   -3.0858   25.3317 N   0  0  0  0  0  0  0  0  0  0  0  0
   10.2082   -4.0043   27.1577 H   0  0  0  0  0  0  0  0  0  0  0  0
    8.7654   -5.9514   26.6930 H   0  0  0  0  0  0  0  0  0  0  0  0
    7.5664   -6.0743   24.4736 H   0  0  0  0  0  0  0  0  0  0  0  0
    7.9651   -4.2122   22.8174 H   0  0  0  0  0  0  0  0  0  0  0  0
    9.5295   -2.3500   22.1489 H   0  0  0  0  0  0  0  0  0  0  0  0
   10.6824   -1.7604   23.3538 H   0  0  0  0  0  0  0  0  0  0  0  0
    9.0655    0.0554   22.8223 H   0  0  0  0  0  0  0  0  0  0  0  0
    8.9102   -0.4464   24.4864 H   0  0  0  0  0  0  0  0  0  0  0  0
    6.8312   -1.3692   22.0381 C   0  0  0  0  0  0  0  0  0  0  0  0
    5.7342   -2.5678   21.6945 S   0  0  0  0  0  0  0  0  0  0  0  0
    7.3699   -0.5672   21.0410 N   0  0  0  0  0  0  0  0  0  0  0  0
    6.6788    0.0107   19.9468 C   0  0  0  0  0  0  0  0  0  0  0  0
    5.4427    0.6360   20.1637 C   0  0  0  0  0  0  0  0  0  0  0  0
    4.8217    1.2822   19.0926 C   0  0  0  0  0  0  0  0  0  0  0  0
    5.4389    1.2593   17.8385 C   0  0  0  0  0  0  0  0  0  0  0  0
    6.6076    0.6376   17.6060 N   0  0  0  0  0  0  0  0  0  0  0  0
    7.2124    0.0378   18.6404 C   0  0  0  0  0  0  0  0  0  0  0  0
    8.1619   -0.4594   18.4335 H   0  0  0  0  0  0  0  0  0  0  0  0
    4.9839    1.7650   16.9886 H   0  0  0  0  0  0  0  0  0  0  0  0
    3.8809    1.8081   19.2243 H   0  0  0  0  0  0  0  0  0  0  0  0
    5.0177    0.6083   21.1678 H   0  0  0  0  0  0  0  0  0  0  0  0
    8.3727   -0.6436   20.9931 H   0  0  0  0  0  0  0  0  0  0  0  0
    5.8387   -2.1093   24.2971 H   0  0  0  0  0  0  0  0  0  0  0  0
    7.2172   -1.6086   25.2919 H   0  0  0  0  0  0  0  0  0  0  0  0
    6.4852    0.7626   25.2445 H   0  0  0  0  0  0  0  0  0  0  0  0
    5.1285   -0.2821   25.7536 H   0  0  0  0  0  0  0  0  0  0  0  0
    5.1850    0.3770   24.0962 H   0  0  0  0  0  0  0  0  0  0  0  0
  1  2  1  0
  2  3  1  0
  3  4  1  0
  4  5  1  0
  5  6  1  0
  6  7  2  0
  7  8  1  0
  8  9  2  0
  9 10  1  0
 10 11  2  0
 10 12  1  0
  9 13  1  0
  8 14  1  0
  7 15  1  0
  5 16  1  0
  5 17  1  0
  4 18  1  0
  4 19  1  0
  3 20  1  0
 20 21  2  0
 20 22  1  0
 22 23  1  0
 23 24  2  0
 24 25  1  0
 25 26  2  0
 26 27  1  0
 27 28  2  0
 28 29  1  0
 26 30  1  0
 25 31  1  0
 24 32  1  0
 22 33  1  0
  2 34  1  0
  2 35  1  0
  1 36  1  0
  1 37  1  0
  1 38  1  0
 11  6  1  0
 28 23  1  0
M  END
>  <plip>  (1) 
-0.03571428571428571

>  <filename>  (1) 
[H][c]1[n][c]([C]([H])([H])[C]([H])([H])[N]([C](=[S])[N]([H])[c]2[c]([H])[n][c]([H])[c]([H])[c]2[H])[C]([H])([H])[C]([H])([H])[H])[c]([H])[c]([H])[c]1[H]

$$$$
