
     RDKit          3D

 44 47  0  0  0  0  0  0  0  0999 V2000
    6.0228   -2.9870   19.7639 O   0  0  0  0  0  0  0  0  0  0  0  0
    6.0074   -2.9440   20.9890 C   0  0  0  0  0  0  0  0  0  0  0  0
    6.4633   -1.8899   21.7092 N   0  0  0  0  0  0  0  0  0  0  0  0
    7.2492   -0.8261   21.1137 C   0  0  0  0  0  0  0  0  0  0  0  0
    7.7175    0.1323   22.2279 C   0  0  0  0  0  0  0  0  0  0  0  0
    8.6575    1.2713   21.7908 C   0  0  0  0  0  0  0  0  0  0  0  0
   10.0166    0.8252   21.2917 C   0  0  0  0  0  0  0  0  0  0  0  0
   11.1908    1.7565   21.3772 C   0  0  0  0  0  0  0  0  0  0  0  0
   11.1507    0.5116   22.2285 C   0  0  0  0  0  0  0  0  0  0  0  0
   11.8208   -0.3067   21.9756 H   0  0  0  0  0  0  0  0  0  0  0  0
   10.9928    0.6301   23.3001 H   0  0  0  0  0  0  0  0  0  0  0  0
   11.8896    1.8093   20.5461 H   0  0  0  0  0  0  0  0  0  0  0  0
   11.0531    2.7079   21.8883 H   0  0  0  0  0  0  0  0  0  0  0  0
    9.9811    0.1924   20.4076 H   0  0  0  0  0  0  0  0  0  0  0  0
    8.1829    1.8728   21.0028 H   0  0  0  0  0  0  0  0  0  0  0  0
    8.7964    1.9481   22.6454 H   0  0  0  0  0  0  0  0  0  0  0  0
    6.8262    0.5656   22.7017 H   0  0  0  0  0  0  0  0  0  0  0  0
    8.2076   -0.4678   23.0079 H   0  0  0  0  0  0  0  0  0  0  0  0
    6.5065   -0.1210   19.9804 C   0  0  0  0  0  0  0  0  0  0  0  0
    5.3030    0.5807   20.1491 C   0  0  0  0  0  0  0  0  0  0  0  0
    4.7790    1.2848   19.0592 C   0  0  0  0  0  0  0  0  0  0  0  0
    5.4626    1.2515   17.8384 C   0  0  0  0  0  0  0  0  0  0  0  0
    6.5866    0.5481   17.6380 N   0  0  0  0  0  0  0  0  0  0  0  0
    7.0678   -0.1220   18.6945 C   0  0  0  0  0  0  0  0  0  0  0  0
    7.9625   -0.7161   18.5028 H   0  0  0  0  0  0  0  0  0  0  0  0
    5.0859    1.8045   16.9806 H   0  0  0  0  0  0  0  0  0  0  0  0
    3.8747    1.8775   19.1485 H   0  0  0  0  0  0  0  0  0  0  0  0
    4.7847    0.5790   21.1118 H   0  0  0  0  0  0  0  0  0  0  0  0
    8.1475   -1.2775   20.6595 H   0  0  0  0  0  0  0  0  0  0  0  0
    6.3363   -1.9500   22.7154 H   0  0  0  0  0  0  0  0  0  0  0  0
    5.4771   -4.0714   21.7539 C   0  0  0  0  0  0  0  0  0  0  0  0
    5.0740   -5.2948   21.2709 C   0  0  0  0  0  0  0  0  0  0  0  0
    4.5141   -6.0165   22.2856 N   0  0  0  0  0  0  0  0  0  0  0  0
    4.5513   -5.2807   23.4556 C   0  0  0  0  0  0  0  0  0  0  0  0
    4.0392   -5.4892   24.7447 C   0  0  0  0  0  0  0  0  0  0  0  0
    4.2733   -4.4667   25.6622 C   0  0  0  0  0  0  0  0  0  0  0  0
    5.0049   -3.3127   25.2850 C   0  0  0  0  0  0  0  0  0  0  0  0
    5.4701   -3.0907   24.0611 N   0  0  0  0  0  0  0  0  0  0  0  0
    5.2005   -4.0571   23.1495 C   0  0  0  0  0  0  0  0  0  0  0  0
    5.2069   -2.5477   26.0317 H   0  0  0  0  0  0  0  0  0  0  0  0
    3.8915   -4.5330   26.6726 H   0  0  0  0  0  0  0  0  0  0  0  0
    3.4899   -6.3914   25.0129 H   0  0  0  0  0  0  0  0  0  0  0  0
    4.2418   -6.9843   22.2172 H   0  0  0  0  0  0  0  0  0  0  0  0
    5.0957   -5.6767   20.2530 H   0  0  0  0  0  0  0  0  0  0  0  0
  1  2  2  0
  2  3  1  0
  3  4  1  0
  4  5  1  0
  5  6  1  0
  6  7  1  0
  7  8  1  0
  8  9  1  0
  9 10  1  0
  9 11  1  0
  8 12  1  0
  8 13  1  0
  7 14  1  0
  6 15  1  0
  6 16  1  0
  5 17  1  0
  5 18  1  0
  4 19  1  0
 19 20  2  0
 20 21  1  0
 21 22  2  0
 22 23  1  0
 23 24  2  0
 24 25  1  0
 22 26  1  0
 21 27  1  0
 20 28  1  0
  4 29  1  0
  3 30  1  0
  2 31  1  0
 31 32  2  0
 32 33  1  0
 33 34  1  0
 34 35  2  0
 35 36  1  0
 36 37  2  0
 37 38  1  0
 38 39  2  0
 37 40  1  0
 36 41  1  0
 35 42  1  0
 33 43  1  0
 32 44  1  0
  9  7  1  0
 24 19  1  0
 39 31  1  0
 39 34  1  0
M  END
>  <plip>  (1) 
-0.2

>  <filename>  (1) 
[H][c]1[n][c]([H])[c]([C]([H])([N]([H])[C](=[O])[c]2[c]([H])[n]([H])[c]3[c]([H])[c]([H])[c]([H])[n][c]23)[C]([H])([H])[C]([H])([H])[C]2([H])[C]([H])([H])[C]2([H])[H])[c]([H])[c]1[H]

$$$$
