
     RDKit          3D

 31 32  0  0  0  0  0  0  0  0999 V2000
    4.9848    1.8079   16.9903 H   0  0  0  0  0  0  0  0  0  0  0  0
    5.4323    1.2664   17.8155 C   0  0  0  0  0  0  0  0  0  0  0  0
    6.5678    0.5795   17.5873 N   0  0  0  0  0  0  0  0  0  0  0  0
    7.1386   -0.0529   18.6246 C   0  0  0  0  0  0  0  0  0  0  0  0
    8.0609   -0.6010   18.4453 H   0  0  0  0  0  0  0  0  0  0  0  0
    6.6182   -0.0056   19.9233 C   0  0  0  0  0  0  0  0  0  0  0  0
    7.3919   -0.6770   21.0106 C   0  0  0  0  0  0  0  0  0  0  0  0
    7.1044   -0.2831   21.9922 H   0  0  0  0  0  0  0  0  0  0  0  0
    8.4655   -0.5021   20.8685 H   0  0  0  0  0  0  0  0  0  0  0  0
    7.0962   -2.1062   20.9095 N   0  0  0  0  0  0  0  0  0  0  0  0
    6.0923   -2.2547   20.9434 H   0  0  0  0  0  0  0  0  0  0  0  0
    7.7811   -3.0231   21.8319 C   0  0  2  0  0  0  0  0  0  0  0  0
    8.8524   -2.7960   21.8740 H   0  0  0  0  0  0  0  0  0  0  0  0
    7.5573   -4.8769   21.1528 Br  0  0  0  0  0  0  0  0  0  0  0  0
    7.1825   -2.9282   23.2396 C   0  0  0  0  0  0  0  0  0  0  0  0
    6.1465   -3.2876   23.2166 H   0  0  0  0  0  0  0  0  0  0  0  0
    7.1448   -1.8857   23.5715 H   0  0  0  0  0  0  0  0  0  0  0  0
    8.0605   -3.7395   24.1739 C   0  0  0  0  0  0  0  0  0  0  0  0
    7.6421   -4.9696   24.7196 C   0  0  0  0  0  0  0  0  0  0  0  0
    6.6420   -5.3247   24.4852 H   0  0  0  0  0  0  0  0  0  0  0  0
    8.4289   -5.7334   25.4970 N   0  0  0  0  0  0  0  0  0  0  0  0
    9.6693   -5.2910   25.7565 C   0  0  0  0  0  0  0  0  0  0  0  0
   10.3168   -5.8991   26.3772 H   0  0  0  0  0  0  0  0  0  0  0  0
   10.1578   -4.0809   25.2431 C   0  0  0  0  0  0  0  0  0  0  0  0
   11.1705   -3.7645   25.4228 H   0  0  0  0  0  0  0  0  0  0  0  0
    9.3477   -3.2804   24.4456 C   0  0  0  0  0  0  0  0  0  0  0  0
    9.7140   -2.3441   24.0237 H   0  0  0  0  0  0  0  0  0  0  0  0
    5.4074    0.6632   20.1576 C   0  0  0  0  0  0  0  0  0  0  0  0
    4.9506    0.6919   21.1486 H   0  0  0  0  0  0  0  0  0  0  0  0
    4.8134    1.3070   19.0718 C   0  0  0  0  0  0  0  0  0  0  0  0
    3.8866    1.8611   19.1876 H   0  0  0  0  0  0  0  0  0  0  0  0
  1  2  1  0
  2  3  2  0
  3  4  1  0
  4  5  1  0
  4  6  2  0
  6  7  1  0
  7  8  1  0
  7  9  1  0
  7 10  1  0
 10 11  1  0
 10 12  1  0
 12 13  1  1
 12 14  1  0
 12 15  1  0
 15 16  1  0
 15 17  1  0
 15 18  1  0
 18 19  2  0
 19 20  1  0
 19 21  1  0
 21 22  2  0
 22 23  1  0
 22 24  1  0
 24 25  1  0
 24 26  2  0
 26 27  1  0
  6 28  1  0
 28 29  1  0
 28 30  2  0
 30 31  1  0
 30  2  1  0
 26 18  1  0
M  END
>  <plip>  (1) 
-0.14285714285714285

>  <filename>  (1) 
[H][c]1[n][c]([H])[c]([C]([H])([H])[N]([H])[C@]([H])([Br])[C]([H])([H])[c]2[c]([H])[n][c]([H])[c]([H])[c]2[H])[c]([H])[c]1[H]

$$$$
