
     RDKit          3D

 36 39  0  0  0  0  0  0  0  0999 V2000
    8.6415    0.1185   24.3924 H   0  0  0  0  0  0  0  0  0  0  0  0
    8.7966   -0.8555   24.1854 N   0  0  0  0  0  0  0  0  0  0  0  0
    8.3721   -1.0629   23.0087 C   0  0  0  0  0  0  0  0  0  0  0  0
    8.3384   -2.6786   22.2851 S   0  0  0  0  0  0  0  0  0  0  0  0
    7.4774   -2.0671   20.9134 C   0  0  0  0  0  0  0  0  0  0  0  0
    7.0714   -2.7313   20.1675 H   0  0  0  0  0  0  0  0  0  0  0  0
    7.3153   -0.7372   20.9484 C   0  0  0  0  0  0  0  0  0  0  0  0
    6.6132    0.0271   19.9003 C   0  0  0  0  0  0  0  0  0  0  0  0
    7.1444    0.0618   18.6012 C   0  0  0  0  0  0  0  0  0  0  0  0
    8.0946   -0.4248   18.3853 H   0  0  0  0  0  0  0  0  0  0  0  0
    6.5662    0.6897   17.5690 N   0  0  0  0  0  0  0  0  0  0  0  0
    5.4030    1.3168   17.8000 C   0  0  0  0  0  0  0  0  0  0  0  0
    4.9439    1.8156   16.9468 H   0  0  0  0  0  0  0  0  0  0  0  0
    4.7792    1.3372   19.0524 C   0  0  0  0  0  0  0  0  0  0  0  0
    3.8387    1.8599   19.1756 H   0  0  0  0  0  0  0  0  0  0  0  0
    5.3961    0.6922   20.1237 C   0  0  0  0  0  0  0  0  0  0  0  0
    4.9681    0.6995   21.1276 H   0  0  0  0  0  0  0  0  0  0  0  0
    7.8457   -0.1369   22.0962 N   0  0  0  0  0  0  0  0  0  0  0  0
    7.7808    1.2811   22.3526 C   0  0  1  0  0  0  0  0  0  0  0  0
    7.4866    1.8657   21.4819 H   0  0  0  0  0  0  0  0  0  0  0  0
    7.3460    1.8041   23.6815 C   0  0  0  0  0  0  0  0  0  0  0  0
    7.1176    1.1302   24.5052 H   0  0  0  0  0  0  0  0  0  0  0  0
    6.6814    2.6559   23.6403 H   0  0  0  0  0  0  0  0  0  0  0  0
    8.7684    2.0237   23.2094 C   0  0  2  0  0  0  0  0  0  0  0  0
    9.5634    1.4390   23.6626 H   0  0  0  0  0  0  0  0  0  0  0  0
    9.2180    3.3870   22.8098 C   0  0  0  0  0  0  0  0  0  0  0  0
   10.5615    3.7412   23.0123 C   0  0  0  0  0  0  0  0  0  0  0  0
   11.2589    2.9903   23.3778 H   0  0  0  0  0  0  0  0  0  0  0  0
   11.0045    5.0467   22.7809 C   0  0  0  0  0  0  0  0  0  0  0  0
   12.0537    5.2958   22.9370 H   0  0  0  0  0  0  0  0  0  0  0  0
   10.0960    6.0185   22.3450 C   0  0  0  0  0  0  0  0  0  0  0  0
   10.4159    7.0385   22.1858 H   0  0  0  0  0  0  0  0  0  0  0  0
    8.7650    5.6707   22.0857 C   0  0  0  0  0  0  0  0  0  0  0  0
    8.0700    6.4086   21.6844 H   0  0  0  0  0  0  0  0  0  0  0  0
    8.3345    4.3614   22.3073 C   0  0  0  0  0  0  0  0  0  0  0  0
    7.3001    4.1051   22.0876 H   0  0  0  0  0  0  0  0  0  0  0  0
  1  2  1  0
  2  3  2  3
  3  4  1  0
  4  5  1  0
  5  6  1  0
  5  7  2  0
  7  8  1  0
  8  9  2  0
  9 10  1  0
  9 11  1  0
 11 12  2  0
 12 13  1  0
 12 14  1  0
 14 15  1  0
 14 16  2  0
 16 17  1  0
  7 18  1  0
 18 19  1  0
 19 20  1  6
 19 21  1  0
 21 22  1  0
 21 23  1  0
 21 24  1  0
 24 25  1  1
 24 26  1  0
 26 27  2  0
 27 28  1  0
 27 29  1  0
 29 30  1  0
 29 31  2  0
 31 32  1  0
 31 33  1  0
 33 34  1  0
 33 35  2  0
 35 36  1  0
 18  3  1  0
 24 19  1  0
 35 26  1  0
 16  8  1  0
M  END
>  <plip>  (1) 
-0.07142857142857142

>  <filename>  (1) 
[H][N]=[c]1[s][c]([H])[c](-[c]2[c]([H])[n][c]([H])[c]([H])[c]2[H])[n]1[C@@]1([H])[C]([H])([H])[C@]1([H])[c]1[c]([H])[c]([H])[c]([H])[c]([H])[c]1[H]

$$$$
