
     RDKit          3D

 47 48  0  0  0  0  0  0  0  0999 V2000
    7.0741    0.0799   22.5986 C   0  0  0  0  0  0  0  0  0  0  0  0
    7.4965   -0.3837   21.1766 C   0  0  0  0  0  0  0  0  0  0  0  0
    7.1177   -1.8808   21.0000 C   0  0  0  0  0  0  0  0  0  0  0  0
    6.1056   -2.0517   21.3809 H   0  0  0  0  0  0  0  0  0  0  0  0
    7.1302   -2.1810   19.9480 H   0  0  0  0  0  0  0  0  0  0  0  0
    7.8054   -2.5289   21.5450 H   0  0  0  0  0  0  0  0  0  0  0  0
    9.0522   -0.2357   21.1787 C   0  0  0  0  0  0  0  0  0  0  0  0
    9.8163   -1.1319   21.4562 O   0  0  0  0  0  0  0  0  0  0  0  0
    9.4679    1.0500   20.9598 O   0  0  0  0  0  0  0  0  0  0  0  0
   10.8177    1.4142   21.3457 C   0  0  0  0  0  0  0  0  0  0  0  0
   11.0723    1.8074   22.8154 C   0  0  0  0  0  0  0  0  0  0  0  0
   12.1894    1.6569   23.2537 O   0  0  0  0  0  0  0  0  0  0  0  0
    9.9603    2.4379   23.6370 C   0  0  0  0  0  0  0  0  0  0  0  0
    9.5067    3.7930   23.0724 C   0  0  0  0  0  0  0  0  0  0  0  0
    8.4080    4.4581   23.9096 C   0  0  0  0  0  0  0  0  0  0  0  0
    7.1032    3.6905   23.9046 C   0  0  0  0  0  0  0  0  0  0  0  0
    6.1932    3.8600   22.8471 C   0  0  0  0  0  0  0  0  0  0  0  0
    4.9502    3.2238   22.8637 C   0  0  0  0  0  0  0  0  0  0  0  0
    4.6060    2.3861   23.9283 C   0  0  0  0  0  0  0  0  0  0  0  0
    5.5233    2.1625   24.9599 C   0  0  0  0  0  0  0  0  0  0  0  0
    6.7686    2.7973   24.9343 C   0  0  0  0  0  0  0  0  0  0  0  0
    7.4930    2.6025   25.7230 H   0  0  0  0  0  0  0  0  0  0  0  0
    5.2653    1.5097   25.7865 H   0  0  0  0  0  0  0  0  0  0  0  0
    3.6284    1.9262   23.9828 H   0  0  0  0  0  0  0  0  0  0  0  0
    4.2602    3.3929   22.0402 H   0  0  0  0  0  0  0  0  0  0  0  0
    6.4580    4.5055   22.0141 H   0  0  0  0  0  0  0  0  0  0  0  0
    8.2271    5.4703   23.5257 H   0  0  0  0  0  0  0  0  0  0  0  0
    8.7615    4.5830   24.9420 H   0  0  0  0  0  0  0  0  0  0  0  0
   10.3661    4.4745   23.0050 H   0  0  0  0  0  0  0  0  0  0  0  0
    9.1364    3.6541   22.0490 H   0  0  0  0  0  0  0  0  0  0  0  0
    9.1135    1.7392   23.6805 H   0  0  0  0  0  0  0  0  0  0  0  0
   10.3479    2.5505   24.6542 H   0  0  0  0  0  0  0  0  0  0  0  0
   11.0721    2.2907   20.7400 H   0  0  0  0  0  0  0  0  0  0  0  0
   11.5156    0.6051   21.1127 H   0  0  0  0  0  0  0  0  0  0  0  0
    6.7684    0.3951   20.0565 C   0  0  0  0  0  0  0  0  0  0  0  0
    5.5204    1.0041   20.2516 C   0  0  0  0  0  0  0  0  0  0  0  0
    4.8191    1.4938   19.1478 C   0  0  0  0  0  0  0  0  0  0  0  0
    5.3898    1.3779   17.8779 C   0  0  0  0  0  0  0  0  0  0  0  0
    6.5906    0.8229   17.6582 N   0  0  0  0  0  0  0  0  0  0  0  0
    7.2529    0.3694   18.7316 C   0  0  0  0  0  0  0  0  0  0  0  0
    8.2440   -0.0348   18.5280 H   0  0  0  0  0  0  0  0  0  0  0  0
    4.8705    1.7606   17.0045 H   0  0  0  0  0  0  0  0  0  0  0  0
    3.8511    1.9716   19.2629 H   0  0  0  0  0  0  0  0  0  0  0  0
    5.1021    1.1032   21.2508 H   0  0  0  0  0  0  0  0  0  0  0  0
    7.1393    1.1667   22.7126 H   0  0  0  0  0  0  0  0  0  0  0  0
    6.0397   -0.2040   22.8102 H   0  0  0  0  0  0  0  0  0  0  0  0
    7.6882   -0.4006   23.3692 H   0  0  0  0  0  0  0  0  0  0  0  0
  1  2  1  0
  2  3  1  0
  3  4  1  0
  3  5  1  0
  3  6  1  0
  2  7  1  0
  7  8  2  0
  7  9  1  0
  9 10  1  0
 10 11  1  0
 11 12  2  0
 11 13  1  0
 13 14  1  0
 14 15  1  0
 15 16  1  0
 16 17  2  0
 17 18  1  0
 18 19  2  0
 19 20  1  0
 20 21  2  0
 21 22  1  0
 20 23  1  0
 19 24  1  0
 18 25  1  0
 17 26  1  0
 15 27  1  0
 15 28  1  0
 14 29  1  0
 14 30  1  0
 13 31  1  0
 13 32  1  0
 10 33  1  0
 10 34  1  0
  2 35  1  0
 35 36  2  0
 36 37  1  0
 37 38  2  0
 38 39  1  0
 39 40  2  0
 40 41  1  0
 38 42  1  0
 37 43  1  0
 36 44  1  0
  1 45  1  0
  1 46  1  0
  1 47  1  0
 21 16  1  0
 40 35  1  0
M  END
>  <plip>  (1) 
-0.0

>  <filename>  (1) 
[H][c]1[n][c]([H])[c]([C]([C](=[O])[O][C]([H])([H])[C](=[O])[C]([H])([H])[C]([H])([H])[C]([H])([H])[c]2[c]([H])[c]([H])[c]([H])[c]([H])[c]2[H])([C]([H])([H])[H])[C]([H])([H])[H])[c]([H])[c]1[H]

$$$$
