
     RDKit          3D

 46 49  0  0  0  0  0  0  0  0999 V2000
   10.6558    6.0999   23.6448 C   0  0  0  0  0  0  0  0  0  0  0  0
   11.2590    4.8145   23.1260 C   0  0  0  0  0  0  0  0  0  0  0  0
   10.4518    3.7866   22.7369 C   0  0  0  0  0  0  0  0  0  0  0  0
   11.0118    2.5691   22.3851 N   0  0  0  0  0  0  0  0  0  0  0  0
   10.4581    1.3731   22.0039 C   0  0  0  0  0  0  0  0  0  0  0  0
    8.9683    1.1691   21.8209 C   0  0  0  0  0  0  0  0  0  0  0  0
    8.1360    2.0430   22.0459 O   0  0  0  0  0  0  0  0  0  0  0  0
    8.6172   -0.0620   21.3907 N   0  0  0  0  0  0  0  0  0  0  0  0
    7.2255   -0.4689   21.2750 C   0  0  0  0  0  0  0  0  0  0  0  0
    7.1502   -1.9894   21.0988 C   0  0  0  0  0  0  0  0  0  0  0  0
    7.7604   -2.8773   22.1889 C   0  0  0  0  0  0  0  0  0  0  0  0
    7.6020   -4.3474   21.8461 C   0  0  0  0  0  0  0  0  0  0  0  0
    6.3440   -5.1096   22.1630 C   0  0  0  0  0  0  0  0  0  0  0  0
    7.6152   -5.4071   22.9093 C   0  0  0  0  0  0  0  0  0  0  0  0
    7.6788   -5.0869   23.9467 H   0  0  0  0  0  0  0  0  0  0  0  0
    8.1408   -6.3369   22.7115 H   0  0  0  0  0  0  0  0  0  0  0  0
    5.9868   -5.8317   21.4349 H   0  0  0  0  0  0  0  0  0  0  0  0
    5.5466   -4.5984   22.6984 H   0  0  0  0  0  0  0  0  0  0  0  0
    8.0744   -4.6185   20.9008 H   0  0  0  0  0  0  0  0  0  0  0  0
    8.8311   -2.6642   22.3066 H   0  0  0  0  0  0  0  0  0  0  0  0
    7.3093   -2.6454   23.1634 H   0  0  0  0  0  0  0  0  0  0  0  0
    6.0988   -2.2597   20.9614 H   0  0  0  0  0  0  0  0  0  0  0  0
    7.6354   -2.2112   20.1485 H   0  0  0  0  0  0  0  0  0  0  0  0
    6.5679    0.2341   20.0936 C   0  0  0  0  0  0  0  0  0  0  0  0
    5.3146    0.8578   20.1769 C   0  0  0  0  0  0  0  0  0  0  0  0
    4.7375    1.3852   19.0154 C   0  0  0  0  0  0  0  0  0  0  0  0
    5.4364    1.2791   17.8113 C   0  0  0  0  0  0  0  0  0  0  0  0
    6.6383    0.6933   17.7081 N   0  0  0  0  0  0  0  0  0  0  0  0
    7.1827    0.2058   18.8326 C   0  0  0  0  0  0  0  0  0  0  0  0
    8.1669   -0.2454   18.7013 H   0  0  0  0  0  0  0  0  0  0  0  0
    5.0176    1.6827   16.8891 H   0  0  0  0  0  0  0  0  0  0  0  0
    3.7788    1.8904   19.0372 H   0  0  0  0  0  0  0  0  0  0  0  0
    4.7986    0.9326   21.1351 H   0  0  0  0  0  0  0  0  0  0  0  0
    6.6984   -0.1633   22.1920 H   0  0  0  0  0  0  0  0  0  0  0  0
    9.3493   -0.7505   21.3086 H   0  0  0  0  0  0  0  0  0  0  0  0
   11.4178    0.4807   21.8368 N   0  0  0  0  0  0  0  0  0  0  0  0
   12.6095    1.0615   22.0958 N   0  0  0  0  0  0  0  0  0  0  0  0
   12.3784    2.3249   22.4172 C   0  0  0  0  0  0  0  0  0  0  0  0
   13.2516    3.4257   22.7292 C   0  0  0  0  0  0  0  0  0  0  0  0
   12.6910    4.6294   23.0538 C   0  0  0  0  0  0  0  0  0  0  0  0
   13.3226    5.4941   23.2366 H   0  0  0  0  0  0  0  0  0  0  0  0
   14.3252    3.2847   22.6772 H   0  0  0  0  0  0  0  0  0  0  0  0
    9.3786    3.8497   22.6247 H   0  0  0  0  0  0  0  0  0  0  0  0
   10.5433    6.0764   24.7374 H   0  0  0  0  0  0  0  0  0  0  0  0
    9.6590    6.2847   23.2211 H   0  0  0  0  0  0  0  0  0  0  0  0
   11.2855    6.9592   23.4087 H   0  0  0  0  0  0  0  0  0  0  0  0
  1  2  1  0
  2  3  2  0
  3  4  1  0
  4  5  1  0
  5  6  1  0
  6  7  2  0
  6  8  1  0
  8  9  1  0
  9 10  1  0
 10 11  1  0
 11 12  1  0
 12 13  1  0
 13 14  1  0
 14 15  1  0
 14 16  1  0
 13 17  1  0
 13 18  1  0
 12 19  1  0
 11 20  1  0
 11 21  1  0
 10 22  1  0
 10 23  1  0
  9 24  1  0
 24 25  2  0
 25 26  1  0
 26 27  2  0
 27 28  1  0
 28 29  2  0
 29 30  1  0
 27 31  1  0
 26 32  1  0
 25 33  1  0
  9 34  1  0
  8 35  1  0
  5 36  2  0
 36 37  1  0
 37 38  2  0
 38 39  1  0
 39 40  2  0
 40 41  1  0
 39 42  1  0
  3 43  1  0
  1 44  1  0
  1 45  1  0
  1 46  1  0
 40  2  1  0
 38  4  1  0
 14 12  1  0
 29 24  1  0
M  END
>  <plip>  (1) 
-0.13793103448275862

>  <filename>  (1) 
[H][c]1[n][c]([H])[c]([C]([H])([N]([H])[C](=[O])[c]2[n][n][c]3[c]([H])[c]([H])[c]([C]([H])([H])[H])[c]([H])[n]23)[C]([H])([H])[C]([H])([H])[C]2([H])[C]([H])([H])[C]2([H])[H])[c]([H])[c]1[H]

$$$$
