
     RDKit          3D

 32 33  0  0  0  0  0  0  0  0999 V2000
    7.5252    6.1828   23.7936 H   0  0  0  0  0  0  0  0  0  0  0  0
    6.9024    5.5984   23.3473 O   0  0  0  0  0  0  0  0  0  0  0  0
    7.3592    4.2585   23.4497 C   0  0  0  0  0  0  0  0  0  0  0  0
    8.3555    4.1238   22.9954 H   0  0  0  0  0  0  0  0  0  0  0  0
    7.4279    3.9310   24.5032 H   0  0  0  0  0  0  0  0  0  0  0  0
    6.3736    3.3307   22.7338 C   0  0  0  0  0  0  0  0  0  0  0  0
    6.3314    3.5742   21.6609 H   0  0  0  0  0  0  0  0  0  0  0  0
    5.3647    3.5083   23.1282 H   0  0  0  0  0  0  0  0  0  0  0  0
    6.6833    1.9059   22.8855 N   0  0  0  0  0  0  0  0  0  0  0  0
    6.7050    1.6602   23.8781 H   0  0  0  0  0  0  0  0  0  0  0  0
    7.9267    1.4433   22.2230 C   0  0  0  0  0  0  0  0  0  0  0  0
    8.8508    1.7530   22.7408 H   0  0  0  0  0  0  0  0  0  0  0  0
    7.9459    1.8692   21.2113 H   0  0  0  0  0  0  0  0  0  0  0  0
    8.0012   -0.0750   22.0743 C   0  0  0  0  0  0  0  0  0  0  0  0
    8.6782   -0.7522   23.0196 N   0  0  0  0  0  0  0  0  0  0  0  0
    8.7219   -2.0878   22.9499 C   0  0  0  0  0  0  0  0  0  0  0  0
    9.2287   -2.5810   23.7775 H   0  0  0  0  0  0  0  0  0  0  0  0
    8.1448   -2.8136   21.9072 C   0  0  0  0  0  0  0  0  0  0  0  0
    8.2302   -3.8922   21.8967 H   0  0  0  0  0  0  0  0  0  0  0  0
    7.4733   -2.1140   20.9018 C   0  0  0  0  0  0  0  0  0  0  0  0
    6.9717   -2.6063   20.0726 H   0  0  0  0  0  0  0  0  0  0  0  0
    7.3899   -0.7218   20.9718 C   0  0  0  0  0  0  0  0  0  0  0  0
    6.6595    0.0176   19.8883 C   0  0  0  0  0  0  0  0  0  0  0  0
    7.1528    0.0555   18.5691 C   0  0  0  0  0  0  0  0  0  0  0  0
    8.1024   -0.4253   18.3385 H   0  0  0  0  0  0  0  0  0  0  0  0
    6.5456    0.6780   17.5497 N   0  0  0  0  0  0  0  0  0  0  0  0
    5.3887    1.3021   17.8187 C   0  0  0  0  0  0  0  0  0  0  0  0
    4.9194    1.8109   16.9788 H   0  0  0  0  0  0  0  0  0  0  0  0
    4.7972    1.3200   19.0876 C   0  0  0  0  0  0  0  0  0  0  0  0
    3.8620    1.8502   19.2295 H   0  0  0  0  0  0  0  0  0  0  0  0
    5.4483    0.6718   20.1430 C   0  0  0  0  0  0  0  0  0  0  0  0
    5.0576    0.6695   21.1612 H   0  0  0  0  0  0  0  0  0  0  0  0
  1  2  1  0
  2  3  1  0
  3  4  1  0
  3  5  1  0
  3  6  1  0
  6  7  1  0
  6  8  1  0
  6  9  1  0
  9 10  1  0
  9 11  1  0
 11 12  1  0
 11 13  1  0
 11 14  1  0
 14 15  2  0
 15 16  1  0
 16 17  1  0
 16 18  2  0
 18 19  1  0
 18 20  1  0
 20 21  1  0
 20 22  2  0
 22 23  1  0
 23 24  2  0
 24 25  1  0
 24 26  1  0
 26 27  2  0
 27 28  1  0
 27 29  1  0
 29 30  1  0
 29 31  2  0
 31 32  1  0
 22 14  1  0
 31 23  1  0
M  END
>  <plip>  (1) 
-0.03571428571428571

>  <filename>  (1) 
[H][O][C]([H])([H])[C]([H])([H])[N]([H])[C]([H])([H])[c]1[n][c]([H])[c]([H])[c]([H])[c]1-[c]1[c]([H])[n][c]([H])[c]([H])[c]1[H]

$$$$
