
     RDKit          3D

 47 49  0  0  0  0  0  0  0  0999 V2000
   10.0178    1.6077   22.2773 C   0  0  0  0  0  0  0  0  0  0  0  0
    9.2708    0.6186   21.5570 O   0  0  0  0  0  0  0  0  0  0  0  0
    8.0202    0.3427   21.9942 C   0  0  0  0  0  0  0  0  0  0  0  0
    7.4999    0.8883   22.9338 O   0  0  0  0  0  0  0  0  0  0  0  0
    7.3959   -0.7196   21.0487 C   0  0  0  0  0  0  0  0  0  0  0  0
    6.5612   -1.5857   21.8543 O   0  0  0  0  0  0  0  0  0  0  0  0
    5.9748   -2.6687   21.2629 C   0  0  0  0  0  0  0  0  0  0  0  0
    6.1285   -2.9245   20.0971 O   0  0  0  0  0  0  0  0  0  0  0  0
    5.1237   -3.4697   22.2420 C   0  0  0  0  0  0  0  0  0  0  0  0
    4.8566   -3.1910   23.5546 C   0  0  0  0  0  0  0  0  0  0  0  0
    3.8359   -4.0442   23.9484 N   0  0  0  0  0  0  0  0  0  0  0  0
    3.0921   -3.9955   25.1808 C   0  0  0  0  0  0  0  0  0  0  0  0
    1.7272   -4.3054   25.2209 C   0  0  0  0  0  0  0  0  0  0  0  0
    0.9961   -4.3066   26.4252 C   0  0  0  0  0  0  0  0  0  0  0  0
   -0.4597   -4.7186   26.4571 C   0  0  0  0  0  0  0  0  0  0  0  0
   -1.0000   -4.2399   27.2819 H   0  0  0  0  0  0  0  0  0  0  0  0
   -0.9822   -4.4583   25.5296 H   0  0  0  0  0  0  0  0  0  0  0  0
   -0.5659   -5.8023   26.5965 H   0  0  0  0  0  0  0  0  0  0  0  0
    1.6609   -3.9412   27.6022 C   0  0  0  0  0  0  0  0  0  0  0  0
    3.0140   -3.5859   27.5816 C   0  0  0  0  0  0  0  0  0  0  0  0
    3.7381   -3.6040   26.3826 C   0  0  0  0  0  0  0  0  0  0  0  0
    5.0501   -3.2524   26.2895 O   0  0  0  0  0  0  0  0  0  0  0  0
    5.7957   -2.8837   27.4264 C   0  0  0  0  0  0  0  0  0  0  0  0
    6.8029   -2.6861   27.0583 H   0  0  0  0  0  0  0  0  0  0  0  0
    5.4005   -1.9727   27.8948 H   0  0  0  0  0  0  0  0  0  0  0  0
    5.8332   -3.6957   28.1635 H   0  0  0  0  0  0  0  0  0  0  0  0
    3.5163   -3.2930   28.4979 H   0  0  0  0  0  0  0  0  0  0  0  0
    1.1169   -3.9318   28.5460 H   0  0  0  0  0  0  0  0  0  0  0  0
    1.2131   -4.5207   24.2878 H   0  0  0  0  0  0  0  0  0  0  0  0
    3.6249   -4.8755   22.8691 C   0  0  0  0  0  0  0  0  0  0  0  0
    4.3793   -4.5749   21.8600 N   0  0  0  0  0  0  0  0  0  0  0  0
    2.8919   -5.6781   22.8881 H   0  0  0  0  0  0  0  0  0  0  0  0
    5.2586   -2.4400   24.2206 H   0  0  0  0  0  0  0  0  0  0  0  0
    6.6316   -0.0416   19.9064 C   0  0  0  0  0  0  0  0  0  0  0  0
    5.4247    0.6291   20.1501 C   0  0  0  0  0  0  0  0  0  0  0  0
    4.8040    1.2953   19.0907 C   0  0  0  0  0  0  0  0  0  0  0  0
    5.4125    1.2780   17.8326 C   0  0  0  0  0  0  0  0  0  0  0  0
    6.5647    0.6403   17.5771 N   0  0  0  0  0  0  0  0  0  0  0  0
    7.1454   -0.0015   18.6025 C   0  0  0  0  0  0  0  0  0  0  0  0
    8.0939   -0.4911   18.3680 H   0  0  0  0  0  0  0  0  0  0  0  0
    4.9606    1.8056   16.9933 H   0  0  0  0  0  0  0  0  0  0  0  0
    3.8770    1.8410   19.2311 H   0  0  0  0  0  0  0  0  0  0  0  0
    4.9977    0.6451   21.1532 H   0  0  0  0  0  0  0  0  0  0  0  0
    8.2398   -1.2917   20.6439 H   0  0  0  0  0  0  0  0  0  0  0  0
    9.5114    2.5758   22.2364 H   0  0  0  0  0  0  0  0  0  0  0  0
   10.1500    1.3139   23.3229 H   0  0  0  0  0  0  0  0  0  0  0  0
   10.9890    1.6759   21.7854 H   0  0  0  0  0  0  0  0  0  0  0  0
  1  2  1  0
  2  3  1  0
  3  4  2  0
  3  5  1  0
  5  6  1  0
  6  7  1  0
  7  8  2  0
  7  9  1  0
  9 10  2  0
 10 11  1  0
 11 12  1  0
 12 13  2  0
 13 14  1  0
 14 15  1  0
 15 16  1  0
 15 17  1  0
 15 18  1  0
 14 19  2  0
 19 20  1  0
 20 21  2  0
 21 22  1  0
 22 23  1  0
 23 24  1  0
 23 25  1  0
 23 26  1  0
 20 27  1  0
 19 28  1  0
 13 29  1  0
 11 30  1  0
 30 31  2  0
 30 32  1  0
 10 33  1  0
  5 34  1  0
 34 35  2  0
 35 36  1  0
 36 37  2  0
 37 38  1  0
 38 39  2  0
 39 40  1  0
 37 41  1  0
 36 42  1  0
 35 43  1  0
  5 44  1  0
  1 45  1  0
  1 46  1  0
  1 47  1  0
 31  9  1  0
 39 34  1  0
 21 12  1  0
M  END
>  <plip>  (1) 
-0.07142857142857142

>  <filename>  (1) 
[H][c]1[n][c]([H])[c]([C]([H])([O][C](=[O])[c]2[n][c]([H])[n](-[c]3[c]([H])[c]([C]([H])([H])[H])[c]([H])[c]([H])[c]3[O][C]([H])([H])[H])[c]2[H])[C](=[O])[O][C]([H])([H])[H])[c]([H])[c]1[H]

$$$$
