
     RDKit          3D

 46 49  0  0  0  0  0  0  0  0999 V2000
   11.7143   -0.7803   20.5236 O   0  0  0  0  0  0  0  0  0  0  0  0
   11.7163   -0.6706   21.7282 C   0  0  0  0  0  0  0  0  0  0  0  0
   12.8087    0.0945   22.4190 C   0  0  0  0  0  0  0  0  0  0  0  0
   12.4282    1.5478   22.8133 C   0  0  0  0  0  0  0  0  0  0  0  0
   11.3281    1.5615   23.8715 C   0  0  0  0  0  0  0  0  0  0  0  0
   11.5571    0.9136   25.0989 C   0  0  0  0  0  0  0  0  0  0  0  0
   10.5442    0.8153   26.0571 C   0  0  0  0  0  0  0  0  0  0  0  0
    9.2961    1.3976   25.8271 C   0  0  0  0  0  0  0  0  0  0  0  0
    9.0592    2.0641   24.6212 C   0  0  0  0  0  0  0  0  0  0  0  0
   10.0581    2.1271   23.6486 C   0  0  0  0  0  0  0  0  0  0  0  0
    9.8519    2.6216   22.7046 H   0  0  0  0  0  0  0  0  0  0  0  0
    8.0927    2.5181   24.4168 H   0  0  0  0  0  0  0  0  0  0  0  0
    8.5257    1.3410   26.5894 H   0  0  0  0  0  0  0  0  0  0  0  0
   10.7359    0.2881   26.9861 H   0  0  0  0  0  0  0  0  0  0  0  0
   12.5311    0.4818   25.3238 H   0  0  0  0  0  0  0  0  0  0  0  0
   12.2922    2.6311   21.7120 C   0  0  0  0  0  0  0  0  0  0  0  0
   13.3744    3.4000   22.2710 O   0  0  0  0  0  0  0  0  0  0  0  0
   13.7167    2.3225   23.1419 C   0  0  0  0  0  0  0  0  0  0  0  0
   13.8521    2.5990   24.1804 H   0  0  0  0  0  0  0  0  0  0  0  0
   14.6353    1.8198   22.7964 H   0  0  0  0  0  0  0  0  0  0  0  0
   12.4878    2.2246   20.7117 H   0  0  0  0  0  0  0  0  0  0  0  0
   11.3755    3.2275   21.6807 H   0  0  0  0  0  0  0  0  0  0  0  0
   13.6676    0.0954   21.7420 H   0  0  0  0  0  0  0  0  0  0  0  0
   13.1239   -0.4278   23.3260 H   0  0  0  0  0  0  0  0  0  0  0  0
   10.7450   -1.2212   22.5222 N   0  0  0  0  0  0  0  0  0  0  0  0
    9.5093   -1.7112   21.9191 C   0  0  0  0  0  0  0  0  0  0  0  0
    8.6246   -0.5839   21.4218 C   0  0  2  0  0  0  0  0  0  0  0  0
    7.5861    0.0384   22.3256 C   0  0  0  0  0  0  0  0  0  0  0  0
    7.1679   -0.7609   21.1133 C   0  0  1  0  0  0  0  0  0  0  0  0
    6.5815   -0.0281   19.9408 C   0  0  0  0  0  0  0  0  0  0  0  0
    5.3690    0.6637   20.0802 C   0  0  0  0  0  0  0  0  0  0  0  0
    4.8245    1.3187   18.9764 C   0  0  0  0  0  0  0  0  0  0  0  0
    5.5159    1.2677   17.7618 C   0  0  0  0  0  0  0  0  0  0  0  0
    6.6826    0.6258   17.6013 N   0  0  0  0  0  0  0  0  0  0  0  0
    7.1971    0.0114   18.6778 C   0  0  0  0  0  0  0  0  0  0  0  0
    8.1585   -0.4829   18.5329 H   0  0  0  0  0  0  0  0  0  0  0  0
    5.1126    1.7615   16.8801 H   0  0  0  0  0  0  0  0  0  0  0  0
    3.8932    1.8706   19.0457 H   0  0  0  0  0  0  0  0  0  0  0  0
    4.8883    0.7003   21.0585 H   0  0  0  0  0  0  0  0  0  0  0  0
    6.7173   -1.7382   21.3134 H   0  0  0  0  0  0  0  0  0  0  0  0
    7.4462    1.1195   22.2923 H   0  0  0  0  0  0  0  0  0  0  0  0
    7.4627   -0.4115   23.3108 H   0  0  0  0  0  0  0  0  0  0  0  0
    9.1517    0.0755   20.7322 H   0  0  0  0  0  0  0  0  0  0  0  0
    9.7682   -2.3792   21.0925 H   0  0  0  0  0  0  0  0  0  0  0  0
    8.9820   -2.3170   22.6682 H   0  0  0  0  0  0  0  0  0  0  0  0
   10.6536   -0.8187   23.4414 H   0  0  0  0  0  0  0  0  0  0  0  0
  1  2  2  0
  2  3  1  0
  3  4  1  0
  4  5  1  0
  5  6  2  0
  6  7  1  0
  7  8  2  0
  8  9  1  0
  9 10  2  0
 10 11  1  0
  9 12  1  0
  8 13  1  0
  7 14  1  0
  6 15  1  0
  4 16  1  0
 16 17  1  0
 17 18  1  0
 18 19  1  0
 18 20  1  0
 16 21  1  0
 16 22  1  0
  3 23  1  0
  3 24  1  0
  2 25  1  0
 25 26  1  0
 26 27  1  0
 27 28  1  0
 28 29  1  0
 29 30  1  0
 30 31  2  0
 31 32  1  0
 32 33  2  0
 33 34  1  0
 34 35  2  0
 35 36  1  0
 33 37  1  0
 32 38  1  0
 31 39  1  0
 29 40  1  1
 28 41  1  0
 28 42  1  0
 27 43  1  6
 26 44  1  0
 26 45  1  0
 25 46  1  0
 18  4  1  0
 29 27  1  0
 35 30  1  0
 10  5  1  0
M  END
>  <plip>  (1) 
-0.06451612903225806

>  <filename>  (1) 
[H][c]1[n][c]([H])[c]([C@]2([H])[C]([H])([H])[C@@]2([H])[C]([H])([H])[N]([H])[C](=[O])[C]([H])([H])[C]2([c]3[c]([H])[c]([H])[c]([H])[c]([H])[c]3[H])[C]([H])([H])[O][C]2([H])[H])[c]([H])[c]1[H]

$$$$
