
     RDKit          3D

 32 34  0  0  0  0  0  0  0  0999 V2000
    4.9699    1.7947   16.9677 H   0  0  0  0  0  0  0  0  0  0  0  0
    5.4165    1.2940   17.8249 C   0  0  0  0  0  0  0  0  0  0  0  0
    6.5782    0.6636   17.5959 N   0  0  0  0  0  0  0  0  0  0  0  0
    7.1506    0.0429   18.6368 C   0  0  0  0  0  0  0  0  0  0  0  0
    8.1111   -0.4307   18.4358 H   0  0  0  0  0  0  0  0  0  0  0  0
    6.6006   -0.0020   19.9166 C   0  0  0  0  0  0  0  0  0  0  0  0
    7.4500   -0.7034   20.9469 C   0  0  0  0  0  0  0  0  0  0  0  0
    8.7611   -0.1336   21.0237 N   0  0  0  0  0  0  0  0  0  0  0  0
    9.2577   -0.8329   21.5609 H   0  0  0  0  0  0  0  0  0  0  0  0
    8.8194    1.1809   21.6407 C   0  0  0  0  0  0  0  0  0  0  0  0
    8.1587    1.8432   21.0653 H   0  0  0  0  0  0  0  0  0  0  0  0
    8.4308    1.1804   22.6752 H   0  0  0  0  0  0  0  0  0  0  0  0
   10.2161    1.7387   21.6025 C   0  0  0  0  0  0  0  0  0  0  0  0
   10.6489    1.7786   20.6102 H   0  0  0  0  0  0  0  0  0  0  0  0
   10.5911    2.8688   22.5163 C   0  0  0  0  0  0  0  0  0  0  0  0
   11.2239    3.6665   22.1353 H   0  0  0  0  0  0  0  0  0  0  0  0
    9.8466    3.2066   23.2338 H   0  0  0  0  0  0  0  0  0  0  0  0
   11.1956    1.5047   22.7146 C   0  0  0  0  0  0  0  0  0  0  0  0
   12.2399    1.3681   22.4463 H   0  0  0  0  0  0  0  0  0  0  0  0
   10.8740    0.9133   23.5691 H   0  0  0  0  0  0  0  0  0  0  0  0
    7.6881   -2.0435   20.5723 O   0  0  0  0  0  0  0  0  0  0  0  0
    7.3352   -2.9255   21.6247 C   0  0  0  0  0  0  0  0  0  0  0  0
    8.2328   -3.2715   22.1564 H   0  0  0  0  0  0  0  0  0  0  0  0
    6.8344   -3.7995   21.1898 H   0  0  0  0  0  0  0  0  0  0  0  0
    6.3980   -2.0633   22.4680 C   0  0  0  0  0  0  0  0  0  0  0  0
    5.3801   -2.1992   22.0902 H   0  0  0  0  0  0  0  0  0  0  0  0
    6.4295   -2.2268   23.5512 H   0  0  0  0  0  0  0  0  0  0  0  0
    6.8395   -0.7337   22.2213 O   0  0  0  0  0  0  0  0  0  0  0  0
    5.3837    0.6570   20.1458 C   0  0  0  0  0  0  0  0  0  0  0  0
    4.9496    0.6893   21.1464 H   0  0  0  0  0  0  0  0  0  0  0  0
    4.7818    1.3153   19.0707 C   0  0  0  0  0  0  0  0  0  0  0  0
    3.8474    1.8544   19.1861 H   0  0  0  0  0  0  0  0  0  0  0  0
  1  2  1  0
  2  3  2  0
  3  4  1  0
  4  5  1  0
  4  6  2  0
  6  7  1  0
  7  8  1  0
  8  9  1  0
  8 10  1  0
 10 11  1  0
 10 12  1  0
 10 13  1  0
 13 14  1  0
 13 15  1  0
 15 16  1  0
 15 17  1  0
 15 18  1  0
 18 19  1  0
 18 20  1  0
  7 21  1  0
 21 22  1  0
 22 23  1  0
 22 24  1  0
 22 25  1  0
 25 26  1  0
 25 27  1  0
 25 28  1  0
  6 29  1  0
 29 30  1  0
 29 31  2  0
 31 32  1  0
 31  2  1  0
 28  7  1  0
 18 13  1  0
M  END
>  <plip>  (1) 
-0.03571428571428571

>  <filename>  (1) 
[H][c]1[n][c]([H])[c]([C]2([N]([H])[C]([H])([H])[C]3([H])[C]([H])([H])[C]3([H])[H])[O][C]([H])([H])[C]([H])([H])[O]2)[c]([H])[c]1[H]

$$$$
