
     RDKit          3D

 34 36  0  0  0  0  0  0  0  0999 V2000
    9.0195    0.1052   24.2952 H   0  0  0  0  0  0  0  0  0  0  0  0
    9.1825   -0.8788   24.0620 N   0  0  0  0  0  0  0  0  0  0  0  0
    8.5239   -1.1131   23.0058 C   0  0  0  0  0  0  0  0  0  0  0  0
    8.4568   -2.7123   22.2521 S   0  0  0  0  0  0  0  0  0  0  0  0
    7.5082   -2.1004   20.9443 C   0  0  0  0  0  0  0  0  0  0  0  0
    7.1390   -2.7539   20.1707 H   0  0  0  0  0  0  0  0  0  0  0  0
    7.2587   -0.7847   21.0352 C   0  0  0  0  0  0  0  0  0  0  0  0
    6.6102    0.0191   19.9812 C   0  0  0  0  0  0  0  0  0  0  0  0
    7.1834    0.0648   18.6941 C   0  0  0  0  0  0  0  0  0  0  0  0
    8.1570   -0.3842   18.5013 H   0  0  0  0  0  0  0  0  0  0  0  0
    6.6203    0.6661   17.6405 N   0  0  0  0  0  0  0  0  0  0  0  0
    5.4510    1.2900   17.8430 C   0  0  0  0  0  0  0  0  0  0  0  0
    5.0156    1.7772   16.9753 H   0  0  0  0  0  0  0  0  0  0  0  0
    4.8061    1.3361   19.0817 C   0  0  0  0  0  0  0  0  0  0  0  0
    3.8796    1.8868   19.1890 H   0  0  0  0  0  0  0  0  0  0  0  0
    5.3982    0.7034   20.1757 C   0  0  0  0  0  0  0  0  0  0  0  0
    4.9279    0.7393   21.1610 H   0  0  0  0  0  0  0  0  0  0  0  0
    7.7270   -0.2270   22.2337 N   0  0  0  0  0  0  0  0  0  0  0  0
    7.3525    1.1498   22.7163 N   0  0  0  0  0  0  0  0  0  0  0  0
    6.9593    1.6856   21.9378 H   0  0  0  0  0  0  0  0  0  0  0  0
    6.0861    1.6327   23.8220 S   0  0  0  0  0  0  0  0  0  0  0  0
    5.4911    0.4750   24.4416 O   0  0  0  0  0  0  0  0  0  0  0  0
    5.3350    2.5779   23.0083 O   0  0  0  0  0  0  0  0  0  0  0  0
    7.0379    2.5262   25.0278 C   0  0  0  0  0  0  0  0  0  0  0  0
    7.9888    3.4787   24.6271 C   0  0  0  0  0  0  0  0  0  0  0  0
    8.3171    3.5650   23.5922 H   0  0  0  0  0  0  0  0  0  0  0  0
    8.5517    4.3299   25.5808 C   0  0  0  0  0  0  0  0  0  0  0  0
    9.2619    5.0824   25.2508 H   0  0  0  0  0  0  0  0  0  0  0  0
    8.1963    4.2157   26.9294 C   0  0  0  0  0  0  0  0  0  0  0  0
    8.6147    4.8871   27.6745 H   0  0  0  0  0  0  0  0  0  0  0  0
    7.2935    3.2227   27.3230 C   0  0  0  0  0  0  0  0  0  0  0  0
    7.0235    3.1161   28.3673 H   0  0  0  0  0  0  0  0  0  0  0  0
    6.7156    2.3686   26.3830 C   0  0  0  0  0  0  0  0  0  0  0  0
    6.0215    1.5959   26.7087 H   0  0  0  0  0  0  0  0  0  0  0  0
  1  2  1  0
  2  3  2  3
  3  4  1  0
  4  5  1  0
  5  6  1  0
  5  7  2  0
  7  8  1  0
  8  9  2  0
  9 10  1  0
  9 11  1  0
 11 12  2  0
 12 13  1  0
 12 14  1  0
 14 15  1  0
 14 16  2  0
 16 17  1  0
  7 18  1  0
 18 19  1  0
 19 20  1  0
 19 21  1  0
 21 22  2  0
 21 23  2  0
 21 24  1  0
 24 25  2  0
 25 26  1  0
 25 27  1  0
 27 28  1  0
 27 29  2  0
 29 30  1  0
 29 31  1  0
 31 32  1  0
 31 33  2  0
 33 34  1  0
 18  3  1  0
 33 24  1  0
 16  8  1  0
M  END
>  <plip>  (1) 
-0.10714285714285714

>  <filename>  (1) 
[H][N]=[c]1[s][c]([H])[c](-[c]2[c]([H])[n][c]([H])[c]([H])[c]2[H])[n]1[N]([H])[S](=[O])(=[O])[c]1[c]([H])[c]([H])[c]([H])[c]([H])[c]1[H]

$$$$
