
     RDKit          3D

 47 49  0  0  0  0  0  0  0  0999 V2000
    3.9411   -5.5712   25.6204 C   0  0  0  0  0  0  0  0  0  0  0  0
    4.8259   -5.9169   26.7949 C   0  0  0  0  0  0  0  0  0  0  0  0
    4.3686   -6.7909   27.7897 C   0  0  0  0  0  0  0  0  0  0  0  0
    5.1674   -7.1306   28.8863 C   0  0  0  0  0  0  0  0  0  0  0  0
    6.4506   -6.5903   29.0016 C   0  0  0  0  0  0  0  0  0  0  0  0
    6.9278   -5.7106   28.0212 C   0  0  0  0  0  0  0  0  0  0  0  0
    6.1251   -5.3645   26.9251 C   0  0  0  0  0  0  0  0  0  0  0  0
    6.5829   -4.4676   25.9153 N   0  0  0  0  0  0  0  0  0  0  0  0
    6.2152   -3.0580   25.9793 C   0  0  0  0  0  0  0  0  0  0  0  0
    6.1156   -2.4678   24.5580 C   0  0  0  0  0  0  0  0  0  0  0  0
    7.3165   -2.7526   23.7590 N   0  0  0  0  0  0  0  0  0  0  0  0
    7.9230   -1.8934   22.8489 C   0  0  0  0  0  0  0  0  0  0  0  0
    9.1011   -2.0298   22.5726 O   0  0  0  0  0  0  0  0  0  0  0  0
    7.0811   -0.7271   22.2458 C   0  0  0  0  0  0  0  0  0  0  0  0
    7.4291    0.5992   22.9249 C   0  0  0  0  0  0  0  0  0  0  0  0
    6.8353    1.4251   22.5221 H   0  0  0  0  0  0  0  0  0  0  0  0
    7.2578    0.5432   24.0052 H   0  0  0  0  0  0  0  0  0  0  0  0
    8.4857    0.8246   22.7546 H   0  0  0  0  0  0  0  0  0  0  0  0
    7.3967   -0.6996   20.8462 O   0  0  0  0  0  0  0  0  0  0  0  0
    6.6609    0.0063   19.9374 C   0  0  0  0  0  0  0  0  0  0  0  0
    5.4431    0.6478   20.1804 C   0  0  0  0  0  0  0  0  0  0  0  0
    4.8115    1.3049   19.1096 C   0  0  0  0  0  0  0  0  0  0  0  0
    5.4001    1.2925   17.8432 C   0  0  0  0  0  0  0  0  0  0  0  0
    6.5693    0.6714   17.5942 N   0  0  0  0  0  0  0  0  0  0  0  0
    7.1746    0.0579   18.6165 C   0  0  0  0  0  0  0  0  0  0  0  0
    8.1213   -0.4350   18.3949 H   0  0  0  0  0  0  0  0  0  0  0  0
    4.9146    1.7800   16.9970 H   0  0  0  0  0  0  0  0  0  0  0  0
    3.8778    1.8391   19.2626 H   0  0  0  0  0  0  0  0  0  0  0  0
    4.9979    0.6356   21.1765 H   0  0  0  0  0  0  0  0  0  0  0  0
    6.0179   -0.9664   22.3548 H   0  0  0  0  0  0  0  0  0  0  0  0
    7.7360   -4.1684   23.7858 C   0  0  0  0  0  0  0  0  0  0  0  0
    7.8295   -4.7210   25.2151 C   0  0  0  0  0  0  0  0  0  0  0  0
    7.9861   -5.8036   25.1681 H   0  0  0  0  0  0  0  0  0  0  0  0
    8.7186   -4.2938   25.7147 H   0  0  0  0  0  0  0  0  0  0  0  0
    7.0136   -4.7795   23.2232 H   0  0  0  0  0  0  0  0  0  0  0  0
    8.7021   -4.2670   23.2881 H   0  0  0  0  0  0  0  0  0  0  0  0
    5.9637   -1.3899   24.6397 H   0  0  0  0  0  0  0  0  0  0  0  0
    5.2234   -2.8895   24.0718 H   0  0  0  0  0  0  0  0  0  0  0  0
    6.9252   -2.4522   26.5719 H   0  0  0  0  0  0  0  0  0  0  0  0
    5.2446   -2.9566   26.4751 H   0  0  0  0  0  0  0  0  0  0  0  0
    7.9235   -5.2781   28.0948 H   0  0  0  0  0  0  0  0  0  0  0  0
    7.0807   -6.8576   29.8451 H   0  0  0  0  0  0  0  0  0  0  0  0
    4.7875   -7.8144   29.6404 H   0  0  0  0  0  0  0  0  0  0  0  0
    3.3679   -7.2080   27.6956 H   0  0  0  0  0  0  0  0  0  0  0  0
    3.1593   -6.3197   25.4724 H   0  0  0  0  0  0  0  0  0  0  0  0
    3.4457   -4.6051   25.7727 H   0  0  0  0  0  0  0  0  0  0  0  0
    4.5252   -5.4919   24.6980 H   0  0  0  0  0  0  0  0  0  0  0  0
  1  2  1  0
  2  3  2  0
  3  4  1  0
  4  5  2  0
  5  6  1  0
  6  7  2  0
  7  8  1  0
  8  9  1  0
  9 10  1  0
 10 11  1  0
 11 12  1  0
 12 13  2  0
 12 14  1  0
 14 15  1  0
 15 16  1  0
 15 17  1  0
 15 18  1  0
 14 19  1  0
 19 20  1  0
 20 21  2  0
 21 22  1  0
 22 23  2  0
 23 24  1  0
 24 25  2  0
 25 26  1  0
 23 27  1  0
 22 28  1  0
 21 29  1  0
 14 30  1  0
 11 31  1  0
 31 32  1  0
 32 33  1  0
 32 34  1  0
 31 35  1  0
 31 36  1  0
 10 37  1  0
 10 38  1  0
  9 39  1  0
  9 40  1  0
  6 41  1  0
  5 42  1  0
  4 43  1  0
  3 44  1  0
  1 45  1  0
  1 46  1  0
  1 47  1  0
  7  2  1  0
 32  8  1  0
 25 20  1  0
M  END
>  <plip>  (1) 
-0.03571428571428571

>  <filename>  (1) 
[H][c]1[n][c]([H])[c]([O][C]([H])([C](=[O])[N]2[C]([H])([H])[C]([H])([H])[N]([c]3[c]([H])[c]([H])[c]([H])[c]([H])[c]3[C]([H])([H])[H])[C]([H])([H])[C]2([H])[H])[C]([H])([H])[H])[c]([H])[c]1[H]

$$$$
