
     RDKit          3D

 42 44  0  0  0  0  0  0  0  0999 V2000
    7.3163   -2.6691   23.8889 C   0  0  0  0  0  0  0  0  0  0  0  0
    7.6698   -1.8652   22.7363 N   0  0  0  0  0  0  0  0  0  0  0  0
    8.8601   -1.2676   22.5046 C   0  0  0  0  0  0  0  0  0  0  0  0
    8.7122   -0.4788   21.3849 C   0  0  0  0  0  0  0  0  0  0  0  0
    9.7276    0.4418   20.7984 C   0  0  0  0  0  0  0  0  0  0  0  0
    9.3451    1.8947   21.0127 N   0  0  0  0  0  4  0  0  0  0  0  0
    9.2862    2.2947   22.4928 C   0  0  0  0  0  0  0  0  0  0  0  0
    7.8585    2.3988   23.0584 C   0  0  0  0  0  0  0  0  0  0  0  0
    7.0642    3.6087   22.5430 C   0  0  0  0  0  0  0  0  0  0  0  0
    7.6027    4.9282   23.1262 C   0  0  0  0  0  0  0  0  0  0  0  0
    7.8603    4.7731   24.6060 C   0  0  0  0  0  0  0  0  0  0  0  0
    8.0048    3.5680   25.1591 C   0  0  0  0  0  0  0  0  0  0  0  0
    7.9350    2.3780   24.4955 O   0  0  0  0  0  0  0  0  0  0  0  0
    8.1772    3.3958   26.2183 H   0  0  0  0  0  0  0  0  0  0  0  0
    7.9286    5.6521   25.2406 H   0  0  0  0  0  0  0  0  0  0  0  0
    8.5370    5.2193   22.6187 H   0  0  0  0  0  0  0  0  0  0  0  0
    6.8948    5.7441   22.9320 H   0  0  0  0  0  0  0  0  0  0  0  0
    7.0820    3.6444   21.4512 H   0  0  0  0  0  0  0  0  0  0  0  0
    6.0151    3.4696   22.8264 H   0  0  0  0  0  0  0  0  0  0  0  0
    7.3294    1.4742   22.8171 H   0  0  0  0  0  0  0  0  0  0  0  0
    9.8048    1.5382   23.0805 H   0  0  0  0  0  0  0  0  0  0  0  0
    9.7947    3.2515   22.6353 H   0  0  0  0  0  0  0  0  0  0  0  0
   10.0149    2.5448   20.5437 H   0  0  0  0  0  0  0  0  0  0  0  0
    8.3751    1.9687   20.6036 H   0  0  0  0  0  0  0  0  0  0  0  0
    9.8361    0.2629   19.7300 H   0  0  0  0  0  0  0  0  0  0  0  0
   10.6897    0.2371   21.2771 H   0  0  0  0  0  0  0  0  0  0  0  0
    7.3589   -0.6643   21.0070 C   0  0  0  0  0  0  0  0  0  0  0  0
    6.6403    0.0113   19.9219 C   0  0  0  0  0  0  0  0  0  0  0  0
    5.4214    0.6587   20.1591 C   0  0  0  0  0  0  0  0  0  0  0  0
    4.8040    1.3201   19.1022 C   0  0  0  0  0  0  0  0  0  0  0  0
    5.4091    1.2952   17.8412 C   0  0  0  0  0  0  0  0  0  0  0  0
    6.5744    0.6766   17.5975 N   0  0  0  0  0  0  0  0  0  0  0  0
    7.1683    0.0544   18.6252 C   0  0  0  0  0  0  0  0  0  0  0  0
    8.1155   -0.4284   18.3917 H   0  0  0  0  0  0  0  0  0  0  0  0
    4.9342    1.7819   16.9914 H   0  0  0  0  0  0  0  0  0  0  0  0
    3.8713    1.8459   19.2453 H   0  0  0  0  0  0  0  0  0  0  0  0
    4.9833    0.6315   21.1622 H   0  0  0  0  0  0  0  0  0  0  0  0
    6.7421   -1.4976   21.8419 N   0  0  0  0  0  0  0  0  0  0  0  0
    9.7046   -1.4099   23.1750 H   0  0  0  0  0  0  0  0  0  0  0  0
    7.0497   -2.0406   24.7468 H   0  0  0  0  0  0  0  0  0  0  0  0
    6.4705   -3.3066   23.6309 H   0  0  0  0  0  0  0  0  0  0  0  0
    8.1764   -3.2872   24.1514 H   0  0  0  0  0  0  0  0  0  0  0  0
  1  2  1  0
  2  3  1  0
  3  4  2  0
  4  5  1  0
  5  6  1  0
  6  7  1  0
  7  8  1  0
  8  9  1  0
  9 10  1  0
 10 11  1  0
 11 12  2  0
 12 13  1  0
 12 14  1  0
 11 15  1  0
 10 16  1  0
 10 17  1  0
  9 18  1  0
  9 19  1  0
  8 20  1  0
  7 21  1  0
  7 22  1  0
  6 23  1  0
  6 24  1  0
  5 25  1  0
  5 26  1  0
  4 27  1  0
 27 28  1  0
 28 29  2  0
 29 30  1  0
 30 31  2  0
 31 32  1  0
 32 33  2  0
 33 34  1  0
 31 35  1  0
 30 36  1  0
 29 37  1  0
 27 38  2  0
  3 39  1  0
  1 40  1  0
  1 41  1  0
  1 42  1  0
 38  2  1  0
 13  8  1  0
 33 28  1  0
M  CHG  1   6   1
M  END
>  <plip>  (1) 
-0.07142857142857142

>  <filename>  (1) 
[H][C]1=[C]([H])[C]([H])([H])[C]([H])([H])[C]([H])([C]([H])([H])[N+]([H])([H])[C]([H])([H])[c]2[c](-[c]3[c]([H])[n][c]([H])[c]([H])[c]3[H])[n][n]([C]([H])([H])[H])[c]2[H])[O]1

$$$$
