
     RDKit          3D

 34 36  0  0  0  0  0  0  0  0999 V2000
    8.7645   -0.0836   21.2847 C   0  0  0  0  0  0  0  0  0  0  0  0
    7.4017   -0.7530   21.0453 C   0  0  2  0  0  0  0  0  0  0  0  0
    7.5459   -2.1679   20.7934 N   0  0  0  0  0  0  0  0  0  0  0  0
    7.8223   -3.0801   21.7298 C   0  0  0  0  0  0  0  0  0  0  0  0
    7.9682   -4.3251   21.2383 N   0  0  0  0  0  0  0  0  0  0  0  0
    8.2301   -5.2620   22.1422 C   0  0  0  0  0  0  0  0  0  0  0  0
    8.3671   -5.0000   23.5017 C   0  0  0  0  0  0  0  0  0  0  0  0
    8.6712   -5.8525   24.7053 C   0  0  0  0  0  0  0  0  0  0  0  0
    8.6267   -4.8765   25.9090 C   0  0  0  0  0  0  0  0  0  0  0  0
    8.2994   -3.4654   25.3429 C   0  0  0  0  0  0  0  0  0  0  0  0
    8.1682   -3.6708   23.8604 C   0  0  0  0  0  0  0  0  0  0  0  0
    7.9042   -2.6928   22.9986 N   0  0  0  0  0  0  0  0  0  0  0  0
    7.3729   -3.0478   25.7608 H   0  0  0  0  0  0  0  0  0  0  0  0
    9.0928   -2.7412   25.5626 H   0  0  0  0  0  0  0  0  0  0  0  0
    7.8597   -5.1994   26.6179 H   0  0  0  0  0  0  0  0  0  0  0  0
    9.5687   -4.8902   26.4616 H   0  0  0  0  0  0  0  0  0  0  0  0
    9.6235   -6.3893   24.6237 H   0  0  0  0  0  0  0  0  0  0  0  0
    7.9131   -6.6088   24.8677 H   0  0  0  0  0  0  0  0  0  0  0  0
    8.3474   -6.2850   21.7639 H   0  0  0  0  0  0  0  0  0  0  0  0
    7.4991   -2.6249   19.8994 H   0  0  0  0  0  0  0  0  0  0  0  0
    6.6384   -0.0789   19.9227 C   0  0  0  0  0  0  0  0  0  0  0  0
    5.4358    0.6075   20.1593 C   0  0  0  0  0  0  0  0  0  0  0  0
    4.8170    1.2894   19.1109 C   0  0  0  0  0  0  0  0  0  0  0  0
    5.4200    1.2710   17.8513 C   0  0  0  0  0  0  0  0  0  0  0  0
    6.5736    0.6364   17.6026 N   0  0  0  0  0  0  0  0  0  0  0  0
    7.1612   -0.0132   18.6210 C   0  0  0  0  0  0  0  0  0  0  0  0
    8.1273   -0.4531   18.3650 H   0  0  0  0  0  0  0  0  0  0  0  0
    4.9594    1.7804   17.0062 H   0  0  0  0  0  0  0  0  0  0  0  0
    3.8934    1.8371   19.2555 H   0  0  0  0  0  0  0  0  0  0  0  0
    5.0077    0.6321   21.1625 H   0  0  0  0  0  0  0  0  0  0  0  0
    6.8128   -0.6446   21.9735 H   0  0  0  0  0  0  0  0  0  0  0  0
    9.2559   -0.5119   22.1651 H   0  0  0  0  0  0  0  0  0  0  0  0
    8.6177    0.9885   21.4423 H   0  0  0  0  0  0  0  0  0  0  0  0
    9.4242   -0.2201   20.4195 H   0  0  0  0  0  0  0  0  0  0  0  0
  1  2  1  0
  2  3  1  0
  3  4  1  0
  4  5  2  0
  5  6  1  0
  6  7  2  0
  7  8  1  0
  8  9  1  0
  9 10  1  0
 10 11  1  0
 11 12  2  0
 10 13  1  0
 10 14  1  0
  9 15  1  0
  9 16  1  0
  8 17  1  0
  8 18  1  0
  6 19  1  0
  3 20  1  0
  2 21  1  0
 21 22  2  0
 22 23  1  0
 23 24  2  0
 24 25  1  0
 25 26  2  0
 26 27  1  0
 24 28  1  0
 23 29  1  0
 22 30  1  0
  2 31  1  1
  1 32  1  0
  1 33  1  0
  1 34  1  0
 12  4  1  0
 26 21  1  0
 11  7  1  0
M  END
>  <plip>  (1) 
-0.06896551724137931

>  <filename>  (1) 
[H][c]1[n][c]([H])[c]([C@@]([H])([N]([H])[c]2[n][c]([H])[c]3[c]([n]2)[C]([H])([H])[C]([H])([H])[C]3([H])[H])[C]([H])([H])[H])[c]([H])[c]1[H]

$$$$
