
     RDKit          3D

 23 24  0  0  0  0  0  0  0  0999 V2000
    4.5201   -3.8422   24.2732 H   0  0  0  0  0  0  0  0  0  0  0  0
    4.5055   -3.4492   23.3296 N   0  0  0  0  0  0  0  0  0  0  0  0
    5.6306   -2.9409   23.1063 N   0  0  0  0  0  4  0  0  0  0  0  0
    5.8498   -2.2644   22.0093 N   0  0  0  0  0  0  0  0  0  0  0  0
    7.1153   -1.7179   21.9753 C   0  0  0  0  0  0  0  0  0  0  0  0
    8.0790   -1.9558   22.7982 N   0  0  0  0  0  0  0  0  0  0  0  0
    9.2499   -1.2149   22.3782 C   0  0  0  0  0  0  0  0  0  0  0  0
    9.5103   -0.4307   23.1103 H   0  0  0  0  0  0  0  0  0  0  0  0
   10.1253   -1.8756   22.2886 H   0  0  0  0  0  0  0  0  0  0  0  0
    8.9003   -0.5728   21.0182 C   0  0  0  0  0  0  0  0  0  0  0  0
    9.0727    0.5151   20.9944 H   0  0  0  0  0  0  0  0  0  0  0  0
    9.4535   -0.9987   20.1667 H   0  0  0  0  0  0  0  0  0  0  0  0
    7.4808   -0.8747   20.9007 N   0  0  0  0  0  0  0  0  0  0  0  0
    6.7000   -0.2200   19.9204 C   0  0  0  0  0  0  0  0  0  0  0  0
    7.2035   -0.0530   18.5999 C   0  0  0  0  0  0  0  0  0  0  0  0
    8.1538   -0.5056   18.3196 H   0  0  0  0  0  0  0  0  0  0  0  0
    6.5959    0.6410   17.6336 N   0  0  0  0  0  0  0  0  0  0  0  0
    5.4369    1.2473   17.9331 C   0  0  0  0  0  0  0  0  0  0  0  0
    4.9676    1.8216   17.1330 H   0  0  0  0  0  0  0  0  0  0  0  0
    4.8482    1.1525   19.1971 C   0  0  0  0  0  0  0  0  0  0  0  0
    3.9230    1.6835   19.3851 H   0  0  0  0  0  0  0  0  0  0  0  0
    5.4722    0.4011   20.2061 C   0  0  0  0  0  0  0  0  0  0  0  0
    5.0348    0.3218   21.1998 H   0  0  0  0  0  0  0  0  0  0  0  0
  1  2  1  0
  2  3  2  0
  3  4  2  0
  4  5  1  0
  5  6  2  0
  6  7  1  0
  7  8  1  0
  7  9  1  0
  7 10  1  0
 10 11  1  0
 10 12  1  0
 10 13  1  0
 13 14  1  0
 14 15  2  0
 15 16  1  0
 15 17  1  0
 17 18  2  0
 18 19  1  0
 18 20  1  0
 20 21  1  0
 20 22  2  0
 22 23  1  0
 13  5  1  0
 22 14  1  0
M  CHG  1   3   1
M  END
>  <plip>  (1) 
-0.03571428571428571

>  <filename>  (1) 
[H][N]=[N+]=[N][C]1=[N][C]([H])([H])[C]([H])([H])[N]1[c]1[c]([H])[n][c]([H])[c]([H])[c]1[H]

$$$$
