
     RDKit          3D

 20 20  0  0  0  0  0  0  0  0999 V2000
    5.0208    1.7824   16.9770 H   0  0  0  0  0  0  0  0  0  0  0  0
    5.4521    1.2641   17.8332 C   0  0  0  0  0  0  0  0  0  0  0  0
    6.6053    0.6210   17.6023 N   0  0  0  0  0  0  0  0  0  0  0  0
    7.1807    0.0014   18.6332 C   0  0  0  0  0  0  0  0  0  0  0  0
    8.1227   -0.5104   18.4365 H   0  0  0  0  0  0  0  0  0  0  0  0
    6.6383   -0.0153   19.9281 C   0  0  0  0  0  0  0  0  0  0  0  0
    7.3527   -0.6792   21.0264 C   0  0  0  0  0  0  0  0  0  0  0  0
    6.9254   -0.5414   22.5999 S   0  0  0  0  0  0  0  0  0  0  0  0
    8.4005   -1.3879   20.5632 O   0  0  0  0  0  0  0  0  0  0  0  0
    9.2820   -2.1059   21.4209 C   0  0  0  0  0  0  0  0  0  0  0  0
    8.7723   -2.4781   22.3157 H   0  0  0  0  0  0  0  0  0  0  0  0
    9.6700   -2.9216   20.8145 H   0  0  0  0  0  0  0  0  0  0  0  0
   10.5101   -1.3277   21.8800 C   0  0  0  0  0  0  0  0  0  0  0  0
   11.2874   -2.2258   22.5160 F   0  0  0  0  0  0  0  0  0  0  0  0
   11.2080   -0.8013   20.8694 F   0  0  0  0  0  0  0  0  0  0  0  0
   10.2234   -0.3476   22.7425 F   0  0  0  0  0  0  0  0  0  0  0  0
    5.4206    0.6450   20.1494 C   0  0  0  0  0  0  0  0  0  0  0  0
    4.9807    0.6466   21.1515 H   0  0  0  0  0  0  0  0  0  0  0  0
    4.8182    1.2946   19.0804 C   0  0  0  0  0  0  0  0  0  0  0  0
    3.8901    1.8394   19.2042 H   0  0  0  0  0  0  0  0  0  0  0  0
  1  2  1  0
  2  3  2  0
  3  4  1  0
  4  5  1  0
  4  6  2  0
  6  7  1  0
  7  8  2  0
  7  9  1  0
  9 10  1  0
 10 11  1  0
 10 12  1  0
 10 13  1  0
 13 14  1  0
 13 15  1  0
 13 16  1  0
  6 17  1  0
 17 18  1  0
 17 19  2  0
 19 20  1  0
 19  2  1  0
M  END
>  <plip>  (1) 
-0.03571428571428571

>  <filename>  (1) 
[H][c]1[n][c]([H])[c]([C](=[S])[O][C]([H])([H])[C]([F])([F])[F])[c]([H])[c]1[H]

$$$$
