
     RDKit          3D

 30 32  0  0  0  0  0  0  0  0999 V2000
    4.9632    1.7848   17.0094 H   0  0  0  0  0  0  0  0  0  0  0  0
    5.4061    1.2755   17.8625 C   0  0  0  0  0  0  0  0  0  0  0  0
    6.5635    0.6427   17.6212 N   0  0  0  0  0  0  0  0  0  0  0  0
    7.1443    0.0054   18.6378 C   0  0  0  0  0  0  0  0  0  0  0  0
    8.1106   -0.4504   18.4256 H   0  0  0  0  0  0  0  0  0  0  0  0
    6.6047   -0.0684   19.9302 C   0  0  0  0  0  0  0  0  0  0  0  0
    7.4148   -0.7327   20.9858 C   0  0  0  0  0  0  0  0  0  0  0  0
    9.0617   -0.7328   20.9484 S   0  0  0  0  0  0  0  0  0  0  0  0
    6.6759   -1.3463   21.9468 N   0  0  0  0  0  0  0  0  0  0  0  0
    5.7108   -1.5141   21.7133 H   0  0  0  0  0  0  0  0  0  0  0  0
    7.0796   -1.6494   23.2766 C   0  0  0  0  0  0  0  0  0  0  0  0
    7.6844   -0.6791   24.0409 C   0  0  0  0  0  0  0  0  0  0  0  0
    7.8343    0.2937   23.5880 H   0  0  0  0  0  0  0  0  0  0  0  0
    8.1214   -0.9357   25.3689 C   0  0  0  0  0  0  0  0  0  0  0  0
    8.6182   -0.1436   25.9296 H   0  0  0  0  0  0  0  0  0  0  0  0
    7.9291   -2.1837   25.9149 C   0  0  0  0  0  0  0  0  0  0  0  0
    8.2463   -2.4598   26.9152 H   0  0  0  0  0  0  0  0  0  0  0  0
    7.2891   -3.2079   25.1602 C   0  0  0  0  0  0  0  0  0  0  0  0
    7.1367   -4.4206   25.7794 N   0  0  0  0  0  0  0  0  0  0  0  0
    6.5658   -5.3873   25.1045 C   0  0  0  0  0  0  0  0  0  0  0  0
    6.4562   -6.3363   25.6311 H   0  0  0  0  0  0  0  0  0  0  0  0
    6.1014   -5.2565   23.7659 C   0  0  0  0  0  0  0  0  0  0  0  0
    5.6458   -6.1139   23.2863 H   0  0  0  0  0  0  0  0  0  0  0  0
    6.2460   -4.0469   23.1233 C   0  0  0  0  0  0  0  0  0  0  0  0
    5.9283   -3.9101   22.0918 H   0  0  0  0  0  0  0  0  0  0  0  0
    6.8490   -2.9565   23.8188 C   0  0  0  0  0  0  0  0  0  0  0  0
    5.3936    0.6080   20.1736 C   0  0  0  0  0  0  0  0  0  0  0  0
    4.9611    0.6606   21.1748 H   0  0  0  0  0  0  0  0  0  0  0  0
    4.7909    1.2924   19.1185 C   0  0  0  0  0  0  0  0  0  0  0  0
    3.8720    1.8549   19.2484 H   0  0  0  0  0  0  0  0  0  0  0  0
  1  2  1  0
  2  3  2  0
  3  4  1  0
  4  5  1  0
  4  6  2  0
  6  7  1  0
  7  8  2  0
  7  9  1  0
  9 10  1  0
  9 11  1  0
 11 12  2  0
 12 13  1  0
 12 14  1  0
 14 15  1  0
 14 16  2  0
 16 17  1  0
 16 18  1  0
 18 19  2  0
 19 20  1  0
 20 21  1  0
 20 22  2  0
 22 23  1  0
 22 24  1  0
 24 25  1  0
 24 26  2  0
  6 27  1  0
 27 28  1  0
 27 29  2  0
 29 30  1  0
 29  2  1  0
 26 11  1  0
 26 18  1  0
M  END
>  <plip>  (1) 
-0.07142857142857142

>  <filename>  (1) 
[H][c]1[n][c]([H])[c]([C](=[S])[N]([H])[c]2[c]([H])[c]([H])[c]([H])[c]3[n][c]([H])[c]([H])[c]([H])[c]23)[c]([H])[c]1[H]

$$$$
