
     RDKit          3D

 42 43  0  0  0  0  0  0  0  0999 V2000
    4.9421    1.8862   16.9254 H   0  0  0  0  0  0  0  0  0  0  0  0
    5.3950    1.4245   17.8000 C   0  0  0  0  0  0  0  0  0  0  0  0
    6.5768    0.8233   17.6118 N   0  0  0  0  0  0  0  0  0  0  0  0
    7.1603    0.2646   18.6806 C   0  0  0  0  0  0  0  0  0  0  0  0
    8.1337   -0.1876   18.5043 H   0  0  0  0  0  0  0  0  0  0  0  0
    6.5939    0.2324   19.9739 C   0  0  0  0  0  0  0  0  0  0  0  0
    7.2662   -0.5776   21.0827 C   0  0  0  0  0  0  0  0  0  0  0  0
    8.7328   -0.4096   20.8650 N   0  0  0  0  0  0  0  0  0  0  0  0
    8.8635    0.5853   20.6672 H   0  0  0  0  0  0  0  0  0  0  0  0
    9.5618   -0.8083   21.9580 N   0  0  0  0  0  0  0  0  0  0  0  0
   10.4793   -1.8936   21.5860 C   0  0  0  0  0  0  0  0  0  0  0  0
   10.5410   -2.6164   22.4126 H   0  0  0  0  0  0  0  0  0  0  0  0
   10.0158   -2.4083   20.7364 H   0  0  0  0  0  0  0  0  0  0  0  0
   11.9082   -1.4905   21.1862 C   0  0  0  0  0  0  0  0  0  0  0  0
   12.3246   -2.2844   20.5573 H   0  0  0  0  0  0  0  0  0  0  0  0
   11.8355   -0.5991   20.5374 H   0  0  0  0  0  0  0  0  0  0  0  0
   12.8232   -1.2959   22.3168 N   0  0  0  0  0  0  0  0  0  0  0  0
   14.2087   -1.3895   21.8915 C   0  0  0  0  0  0  0  0  0  0  0  0
   14.4262   -2.4027   21.5367 H   0  0  0  0  0  0  0  0  0  0  0  0
   14.4562   -0.6770   21.0821 H   0  0  0  0  0  0  0  0  0  0  0  0
   14.8665   -1.1753   22.7384 H   0  0  0  0  0  0  0  0  0  0  0  0
   12.5914   -0.0594   23.0602 C   0  0  0  0  0  0  0  0  0  0  0  0
   12.7204    0.8458   22.4164 H   0  0  0  0  0  0  0  0  0  0  0  0
   13.3583   -0.0112   23.8491 H   0  0  0  0  0  0  0  0  0  0  0  0
   11.2125    0.0230   23.7141 C   0  0  0  0  0  0  0  0  0  0  0  0
   11.2425    0.8489   24.4363 H   0  0  0  0  0  0  0  0  0  0  0  0
   10.9896   -0.8810   24.2887 H   0  0  0  0  0  0  0  0  0  0  0  0
   10.0785    0.3276   22.7343 C   0  0  0  0  0  0  0  0  0  0  0  0
   10.4058    1.1426   22.0565 H   0  0  0  0  0  0  0  0  0  0  0  0
    9.2277    0.7338   23.2985 H   0  0  0  0  0  0  0  0  0  0  0  0
    6.9007   -0.0597   22.4904 C   0  0  0  0  0  0  0  0  0  0  0  0
    7.1839    0.9944   22.6048 H   0  0  0  0  0  0  0  0  0  0  0  0
    5.8342   -0.1242   22.6877 H   0  0  0  0  0  0  0  0  0  0  0  0
    7.4244   -0.6555   23.2430 H   0  0  0  0  0  0  0  0  0  0  0  0
    6.8925   -2.0706   20.9499 C   0  0  0  0  0  0  0  0  0  0  0  0
    5.9280   -2.2672   21.4286 H   0  0  0  0  0  0  0  0  0  0  0  0
    6.8066   -2.3708   19.9003 H   0  0  0  0  0  0  0  0  0  0  0  0
    7.6546   -2.6964   21.4281 H   0  0  0  0  0  0  0  0  0  0  0  0
    5.3593    0.8721   20.1400 C   0  0  0  0  0  0  0  0  0  0  0  0
    4.8857    0.9182   21.1208 H   0  0  0  0  0  0  0  0  0  0  0  0
    4.7502    1.4801   19.0405 C   0  0  0  0  0  0  0  0  0  0  0  0
    3.8064    1.9998   19.1396 H   0  0  0  0  0  0  0  0  0  0  0  0
  1  2  1  0
  2  3  2  0
  3  4  1  0
  4  5  1  0
  4  6  2  0
  6  7  1  0
  7  8  1  0
  8  9  1  0
  8 10  1  0
 10 11  1  0
 11 12  1  0
 11 13  1  0
 11 14  1  0
 14 15  1  0
 14 16  1  0
 14 17  1  0
 17 18  1  0
 18 19  1  0
 18 20  1  0
 18 21  1  0
 17 22  1  0
 22 23  1  0
 22 24  1  0
 22 25  1  0
 25 26  1  0
 25 27  1  0
 25 28  1  0
 28 29  1  0
 28 30  1  0
  7 31  1  0
 31 32  1  0
 31 33  1  0
 31 34  1  0
  7 35  1  0
 35 36  1  0
 35 37  1  0
 35 38  1  0
  6 39  1  0
 39 40  1  0
 39 41  2  0
 41 42  1  0
 41  2  1  0
 28 10  1  0
M  END
>  <plip>  (1) 
-0.07142857142857142

>  <filename>  (1) 
[H][c]1[n][c]([H])[c]([C]([N]([H])[N]2[C]([H])([H])[C]([H])([H])[N]([C]([H])([H])[H])[C]([H])([H])[C]([H])([H])[C]2([H])[H])([C]([H])([H])[H])[C]([H])([H])[H])[c]([H])[c]1[H]

$$$$
