
     RDKit          3D

 33 35  0  0  0  0  0  0  0  0999 V2000
    4.9357    1.7888   16.9875 H   0  0  0  0  0  0  0  0  0  0  0  0
    5.4022    1.2871   17.8339 C   0  0  0  0  0  0  0  0  0  0  0  0
    6.5632    0.6678   17.5773 N   0  0  0  0  0  0  0  0  0  0  0  0
    7.1736    0.0612   18.6060 C   0  0  0  0  0  0  0  0  0  0  0  0
    8.1237   -0.4162   18.3639 H   0  0  0  0  0  0  0  0  0  0  0  0
    6.6765    0.0192   19.9120 C   0  0  0  0  0  0  0  0  0  0  0  0
    7.3942   -0.7715   20.9874 C   0  0  1  0  0  0  0  0  0  0  0  0
    8.4429   -0.9055   20.6823 H   0  0  0  0  0  0  0  0  0  0  0  0
    7.3562    0.0403   22.1693 O   0  0  0  0  0  0  0  0  0  0  0  0
    8.1275   -0.1921   23.2654 C   0  0  0  0  0  0  0  0  0  0  0  0
    9.1406   -1.1381   23.3117 C   0  0  0  0  0  0  0  0  0  0  0  0
    9.3613   -1.7563   22.4492 H   0  0  0  0  0  0  0  0  0  0  0  0
    9.9159   -1.3170   24.4891 C   0  0  0  0  0  0  0  0  0  0  0  0
   10.6908   -2.0795   24.4923 H   0  0  0  0  0  0  0  0  0  0  0  0
    9.6798   -0.5637   25.6119 C   0  0  0  0  0  0  0  0  0  0  0  0
   10.2648   -0.6812   26.5204 H   0  0  0  0  0  0  0  0  0  0  0  0
    8.6368    0.4063   25.6133 C   0  0  0  0  0  0  0  0  0  0  0  0
    8.3093    1.1621   26.7757 C   0  0  0  0  0  0  0  0  0  0  0  0
    8.7827    0.8920   27.7165 H   0  0  0  0  0  0  0  0  0  0  0  0
    7.3572    2.1478   26.6915 C   0  0  0  0  0  0  0  0  0  0  0  0
    7.1269    2.7868   27.5340 H   0  0  0  0  0  0  0  0  0  0  0  0
    6.6449    2.3091   25.4701 C   0  0  0  0  0  0  0  0  0  0  0  0
    5.8434    3.0451   25.4006 H   0  0  0  0  0  0  0  0  0  0  0  0
    6.8663    1.5846   24.3966 N   0  0  0  0  0  0  0  0  0  0  0  0
    7.8558    0.6390   24.4344 C   0  0  0  0  0  0  0  0  0  0  0  0
    6.7145   -2.1185   21.2200 C   0  0  0  0  0  0  0  0  0  0  0  0
    5.6821   -1.9500   21.5426 H   0  0  0  0  0  0  0  0  0  0  0  0
    7.2142   -2.7184   21.9853 H   0  0  0  0  0  0  0  0  0  0  0  0
    6.7033   -2.6828   20.2844 H   0  0  0  0  0  0  0  0  0  0  0  0
    5.4536    0.6697   20.1577 C   0  0  0  0  0  0  0  0  0  0  0  0
    5.0312    0.6745   21.1654 H   0  0  0  0  0  0  0  0  0  0  0  0
    4.8076    1.3134   19.1011 C   0  0  0  0  0  0  0  0  0  0  0  0
    3.8672    1.8400   19.2417 H   0  0  0  0  0  0  0  0  0  0  0  0
  1  2  1  0
  2  3  2  0
  3  4  1  0
  4  5  1  0
  4  6  2  0
  6  7  1  0
  7  8  1  6
  7  9  1  0
  9 10  1  0
 10 11  2  0
 11 12  1  0
 11 13  1  0
 13 14  1  0
 13 15  2  0
 15 16  1  0
 15 17  1  0
 17 18  2  0
 18 19  1  0
 18 20  1  0
 20 21  1  0
 20 22  2  0
 22 23  1  0
 22 24  1  0
 24 25  2  0
  7 26  1  0
 26 27  1  0
 26 28  1  0
 26 29  1  0
  6 30  1  0
 30 31  1  0
 30 32  2  0
 32 33  1  0
 32  2  1  0
 25 10  1  0
 25 17  1  0
M  END
>  <plip>  (1) 
-0.034482758620689655

>  <filename>  (1) 
[H][c]1[n][c]([H])[c]([C@@]([H])([O][c]2[c]([H])[c]([H])[c]([H])[c]3[c]([H])[c]([H])[c]([H])[n][c]23)[C]([H])([H])[H])[c]([H])[c]1[H]

$$$$
