
     RDKit          3D

 29 30  0  0  0  0  0  0  0  0999 V2000
    4.9556    1.8522   16.9584 H   0  0  0  0  0  0  0  0  0  0  0  0
    5.4181    1.3246   17.7908 C   0  0  0  0  0  0  0  0  0  0  0  0
    6.5868    0.7093   17.5287 N   0  0  0  0  0  0  0  0  0  0  0  0
    7.1906    0.0604   18.5293 C   0  0  0  0  0  0  0  0  0  0  0  0
    8.1256   -0.4465   18.2980 H   0  0  0  0  0  0  0  0  0  0  0  0
    6.6945   -0.0043   19.8613 C   0  0  0  0  0  0  0  0  0  0  0  0
    7.3840   -0.7733   20.8245 N   0  0  0  0  0  0  0  0  0  0  0  0
    7.6306   -0.4013   22.0151 C   0  0  0  0  0  0  0  0  0  0  0  0
    7.2549    0.8030   22.5576 N   0  0  0  0  0  0  0  0  0  0  0  0
    7.8773    1.1171   23.2836 H   0  0  0  0  0  0  0  0  0  0  0  0
    7.0978    1.4847   21.8273 H   0  0  0  0  0  0  0  0  0  0  0  0
    8.4177   -1.2881   22.9463 C   0  0  0  0  0  0  0  0  0  0  0  0
    8.0287   -1.1573   23.9621 H   0  0  0  0  0  0  0  0  0  0  0  0
    8.2406   -2.3174   22.6325 H   0  0  0  0  0  0  0  0  0  0  0  0
    9.9006   -0.9872   22.8990 C   0  0  0  0  0  0  0  0  0  0  0  0
   10.4949   -0.1839   23.8776 C   0  0  0  0  0  0  0  0  0  0  0  0
    9.9039    0.1871   24.7101 H   0  0  0  0  0  0  0  0  0  0  0  0
   11.8509    0.1414   23.8138 C   0  0  0  0  0  0  0  0  0  0  0  0
   12.3093    0.7623   24.5734 H   0  0  0  0  0  0  0  0  0  0  0  0
   12.6469   -0.3574   22.7776 C   0  0  0  0  0  0  0  0  0  0  0  0
   14.3334    0.0444   22.7420 Cl  0  0  0  0  0  0  0  0  0  0  0  0
   12.0606   -1.1714   21.7938 C   0  0  0  0  0  0  0  0  0  0  0  0
   13.0019   -1.8563   20.5157 Cl  0  0  0  0  0  0  0  0  0  0  0  0
   10.6933   -1.4612   21.8449 C   0  0  0  0  0  0  0  0  0  0  0  0
   10.2508   -2.0670   21.0601 H   0  0  0  0  0  0  0  0  0  0  0  0
    5.4707    0.6411   20.1035 C   0  0  0  0  0  0  0  0  0  0  0  0
    5.0442    0.6003   21.1034 H   0  0  0  0  0  0  0  0  0  0  0  0
    4.8182    1.3039   19.0529 C   0  0  0  0  0  0  0  0  0  0  0  0
    3.8781    1.8239   19.2088 H   0  0  0  0  0  0  0  0  0  0  0  0
  1  2  1  0
  2  3  2  0
  3  4  1  0
  4  5  1  0
  4  6  2  0
  6  7  1  0
  7  8  2  3
  8  9  1  0
  9 10  1  0
  9 11  1  0
  8 12  1  0
 12 13  1  0
 12 14  1  0
 12 15  1  0
 15 16  2  0
 16 17  1  0
 16 18  1  0
 18 19  1  0
 18 20  2  0
 20 21  1  0
 20 22  1  0
 22 23  1  0
 22 24  2  0
 24 25  1  0
  6 26  1  0
 26 27  1  0
 26 28  2  0
 28 29  1  0
 28  2  1  0
 24 15  1  0
M  END
>  <plip>  (1) 
-0.06896551724137931

>  <filename>  (1) 
[H][c]1[n][c]([H])[c]([N]=[C]([N]([H])[H])[C]([H])([H])[c]2[c]([H])[c]([H])[c]([Cl])[c]([Cl])[c]2[H])[c]([H])[c]1[H]

$$$$
