
     RDKit          3D

 52 55  0  0  0  0  0  0  0  0999 V2000
    9.1221    0.3466   24.0642 C   0  0  0  0  0  0  0  0  0  0  0  0
    8.5834   -0.5291   23.0866 O   0  0  0  0  0  0  0  0  0  0  0  0
    7.9082    0.1224   22.0557 C   0  0  0  0  0  0  0  0  0  0  0  0
    8.8169    0.9075   21.3185 O   0  0  0  0  0  0  0  0  0  0  0  0
    8.4861    2.2773   21.2404 C   0  0  0  0  0  0  0  0  0  0  0  0
    7.5073    2.4307   20.7593 H   0  0  0  0  0  0  0  0  0  0  0  0
    9.2753    2.7399   20.6505 H   0  0  0  0  0  0  0  0  0  0  0  0
    8.4652    2.7646   22.2281 H   0  0  0  0  0  0  0  0  0  0  0  0
    7.2442   -0.9067   21.0921 C   0  0  0  0  0  0  0  0  0  0  0  0
    6.3361   -1.8318   21.7793 N   0  0  0  0  0  0  0  0  0  0  0  0
    5.9539   -3.0284   21.2469 C   0  0  0  0  0  0  0  0  0  0  0  0
    6.2462   -3.3613   20.1132 O   0  0  0  0  0  0  0  0  0  0  0  0
    5.1271   -3.8943   22.1506 C   0  0  0  0  0  0  0  0  0  0  0  0
    4.4881   -3.6539   23.3451 C   0  0  0  0  0  0  0  0  0  0  0  0
    3.5534   -4.6616   23.6749 C   0  0  0  0  0  0  0  0  0  0  0  0
    3.5352   -5.7293   22.8085 C   0  0  0  0  0  0  0  0  0  0  0  0
    2.6021   -6.8761   22.8630 C   0  0  0  0  0  0  0  0  0  0  0  0
    2.3664   -7.7534   21.7822 C   0  0  0  0  0  0  0  0  0  0  0  0
    1.4002   -8.7581   21.8558 C   0  0  0  0  0  0  0  0  0  0  0  0
    0.6884   -8.9666   23.0382 C   0  0  0  0  0  0  0  0  0  0  0  0
   -0.1547  -10.0422   23.1412 O   0  0  0  0  0  0  0  0  0  0  0  0
   -1.0041  -10.0337   24.3018 C   0  0  0  0  0  0  0  0  0  0  0  0
   -0.2269   -9.5723   25.5344 C   0  0  0  0  0  0  0  0  0  0  0  0
    0.2522   -8.2442   25.3227 O   0  0  0  0  0  0  0  0  0  0  0  0
    0.9275   -8.1056   24.1363 C   0  0  0  0  0  0  0  0  0  0  0  0
    1.8611   -7.0891   24.0408 C   0  0  0  0  0  0  0  0  0  0  0  0
    1.9904   -6.4835   24.9313 H   0  0  0  0  0  0  0  0  0  0  0  0
    0.6236  -10.2460   25.7138 H   0  0  0  0  0  0  0  0  0  0  0  0
   -0.8567   -9.5373   26.4262 H   0  0  0  0  0  0  0  0  0  0  0  0
   -1.3794  -11.0545   24.4173 H   0  0  0  0  0  0  0  0  0  0  0  0
   -1.8485   -9.3493   24.1402 H   0  0  0  0  0  0  0  0  0  0  0  0
    1.2008   -9.3974   21.0048 H   0  0  0  0  0  0  0  0  0  0  0  0
    2.9771   -7.7169   20.8923 H   0  0  0  0  0  0  0  0  0  0  0  0
    4.7501   -5.4926   21.5934 S   0  0  0  0  0  0  0  0  0  0  0  0
    2.9024   -4.5741   24.5370 H   0  0  0  0  0  0  0  0  0  0  0  0
    4.6747   -2.8214   24.0225 H   0  0  0  0  0  0  0  0  0  0  0  0
    6.1340   -1.6828   22.7524 H   0  0  0  0  0  0  0  0  0  0  0  0
    6.5289   -0.1799   19.9554 C   0  0  0  0  0  0  0  0  0  0  0  0
    5.3479    0.5537   20.1510 C   0  0  0  0  0  0  0  0  0  0  0  0
    4.8260    1.2914   19.0848 C   0  0  0  0  0  0  0  0  0  0  0  0
    5.4998    1.2724   17.8566 C   0  0  0  0  0  0  0  0  0  0  0  0
    6.6247    0.5746   17.6420 N   0  0  0  0  0  0  0  0  0  0  0  0
    7.1111   -0.1240   18.6798 C   0  0  0  0  0  0  0  0  0  0  0  0
    8.0363   -0.6688   18.4864 H   0  0  0  0  0  0  0  0  0  0  0  0
    5.1199    1.8392   17.0077 H   0  0  0  0  0  0  0  0  0  0  0  0
    3.9209    1.8826   19.1895 H   0  0  0  0  0  0  0  0  0  0  0  0
    4.8428    0.5481   21.1212 H   0  0  0  0  0  0  0  0  0  0  0  0
    8.0883   -1.4672   20.6708 H   0  0  0  0  0  0  0  0  0  0  0  0
    7.1062    0.7579   22.4808 H   0  0  0  0  0  0  0  0  0  0  0  0
    8.3338    0.9089   24.5913 H   0  0  0  0  0  0  0  0  0  0  0  0
    9.6503   -0.2812   24.7849 H   0  0  0  0  0  0  0  0  0  0  0  0
    9.8264    1.0657   23.6253 H   0  0  0  0  0  0  0  0  0  0  0  0
  1  2  1  0
  2  3  1  0
  3  4  1  0
  4  5  1  0
  5  6  1  0
  5  7  1  0
  5  8  1  0
  3  9  1  0
  9 10  1  0
 10 11  1  0
 11 12  2  0
 11 13  1  0
 13 14  2  0
 14 15  1  0
 15 16  2  0
 16 17  1  0
 17 18  2  0
 18 19  1  0
 19 20  2  0
 20 21  1  0
 21 22  1  0
 22 23  1  0
 23 24  1  0
 24 25  1  0
 25 26  2  0
 26 27  1  0
 23 28  1  0
 23 29  1  0
 22 30  1  0
 22 31  1  0
 19 32  1  0
 18 33  1  0
 16 34  1  0
 15 35  1  0
 14 36  1  0
 10 37  1  0
  9 38  1  0
 38 39  2  0
 39 40  1  0
 40 41  2  0
 41 42  1  0
 42 43  2  0
 43 44  1  0
 41 45  1  0
 40 46  1  0
 39 47  1  0
  9 48  1  0
  3 49  1  0
  1 50  1  0
  1 51  1  0
  1 52  1  0
 34 13  1  0
 43 38  1  0
 26 17  1  0
 25 20  1  0
M  END
>  <plip>  (1) 
-0.1875

>  <filename>  (1) 
[H][c]1[n][c]([H])[c]([C]([H])([N]([H])[C](=[O])[c]2[s][c](-[c]3[c]([H])[c]([H])[c]4[c]([c]3[H])[O][C]([H])([H])[C]([H])([H])[O]4)[c]([H])[c]2[H])[C]([H])([O][C]([H])([H])[H])[O][C]([H])([H])[H])[c]([H])[c]1[H]

$$$$
