
     RDKit          3D

 34 37  0  0  0  0  0  0  0  0999 V2000
    4.9663    1.8013   16.9636 H   0  0  0  0  0  0  0  0  0  0  0  0
    5.4181    1.3041   17.8193 C   0  0  0  0  0  0  0  0  0  0  0  0
    6.5840    0.6828   17.5889 N   0  0  0  0  0  0  0  0  0  0  0  0
    7.1593    0.0648   18.6305 C   0  0  0  0  0  0  0  0  0  0  0  0
    8.1148   -0.4236   18.4370 H   0  0  0  0  0  0  0  0  0  0  0  0
    6.6057    0.0193   19.9218 C   0  0  0  0  0  0  0  0  0  0  0  0
    7.3349   -0.6781   21.0292 C   0  0  0  0  0  0  0  0  0  0  0  0
    8.3862    0.1595   21.6938 C   0  0  0  0  0  0  0  0  0  0  0  0
    9.6457    0.2068   21.3784 N   0  0  0  0  0  0  0  0  0  0  0  0
   10.3573    1.0604   22.1813 N   0  0  0  0  0  0  0  0  0  0  0  0
    9.6134    1.6550   23.0662 C   0  0  0  0  0  0  0  0  0  0  0  0
   10.1203    2.5042   24.2161 C   0  0  1  0  0  0  0  0  0  0  0  0
   11.1327    2.8379   23.9610 H   0  0  0  0  0  0  0  0  0  0  0  0
    9.3030    3.6468   24.4177 O   0  0  0  0  0  0  0  0  0  0  0  0
    8.7476    3.6544   25.7302 C   0  0  0  0  0  0  0  0  0  0  0  0
    9.3595    4.2958   26.3849 H   0  0  0  0  0  0  0  0  0  0  0  0
    7.7520    4.1018   25.6574 H   0  0  0  0  0  0  0  0  0  0  0  0
    8.7520    2.1924   26.1592 C   0  0  0  0  0  0  0  0  0  0  0  0
    8.7042    2.0186   27.2342 H   0  0  0  0  0  0  0  0  0  0  0  0
    7.9021    1.6837   25.6891 H   0  0  0  0  0  0  0  0  0  0  0  0
   10.0562    1.6901   25.5416 C   0  0  0  0  0  0  0  0  0  0  0  0
   10.0708    0.6067   25.4052 H   0  0  0  0  0  0  0  0  0  0  0  0
   10.9115    1.9063   26.1788 H   0  0  0  0  0  0  0  0  0  0  0  0
    7.9427    1.2313   22.9683 S   0  0  0  0  0  0  0  0  0  0  0  0
    7.5683   -2.1590   20.8786 C   0  0  0  0  0  0  0  0  0  0  0  0
    7.0618   -2.5982   20.0250 H   0  0  0  0  0  0  0  0  0  0  0  0
    8.5606   -2.5418   21.1243 H   0  0  0  0  0  0  0  0  0  0  0  0
    6.6005   -1.6678   21.9127 C   0  0  0  0  0  0  0  0  0  0  0  0
    6.8698   -1.6957   22.9665 H   0  0  0  0  0  0  0  0  0  0  0  0
    5.5422   -1.8324   21.7074 H   0  0  0  0  0  0  0  0  0  0  0  0
    5.3972    0.6830   20.1437 C   0  0  0  0  0  0  0  0  0  0  0  0
    4.9547    0.6914   21.1419 H   0  0  0  0  0  0  0  0  0  0  0  0
    4.7892    1.3332   19.0689 C   0  0  0  0  0  0  0  0  0  0  0  0
    3.8551    1.8636   19.1909 H   0  0  0  0  0  0  0  0  0  0  0  0
  1  2  1  0
  2  3  2  0
  3  4  1  0
  4  5  1  0
  4  6  2  0
  6  7  1  0
  7  8  1  0
  8  9  2  0
  9 10  1  0
 10 11  2  0
 11 12  1  0
 12 13  1  6
 12 14  1  0
 14 15  1  0
 15 16  1  0
 15 17  1  0
 15 18  1  0
 18 19  1  0
 18 20  1  0
 18 21  1  0
 21 22  1  0
 21 23  1  0
 11 24  1  0
  7 25  1  0
 25 26  1  0
 25 27  1  0
 25 28  1  0
 28 29  1  0
 28 30  1  0
  6 31  1  0
 31 32  1  0
 31 33  2  0
 33 34  1  0
 33  2  1  0
 28  7  1  0
 24  8  1  0
 21 12  1  0
M  END
>  <plip>  (1) 
-0.10714285714285714

>  <filename>  (1) 
[H][c]1[n][c]([H])[c]([C]2([c]3[n][n][c]([C@@]4([H])[O][C]([H])([H])[C]([H])([H])[C]4([H])[H])[s]3)[C]([H])([H])[C]2([H])[H])[c]([H])[c]1[H]

$$$$
