
     RDKit          3D

 34 35  0  0  0  0  0  0  0  0999 V2000
    5.0222    1.9197   16.9520 H   0  0  0  0  0  0  0  0  0  0  0  0
    5.4858    1.3667   17.7671 C   0  0  0  0  0  0  0  0  0  0  0  0
    6.6754    0.8103   17.5069 N   0  0  0  0  0  0  0  0  0  0  0  0
    7.2709    0.1282   18.4964 C   0  0  0  0  0  0  0  0  0  0  0  0
    8.2499   -0.2766   18.2409 H   0  0  0  0  0  0  0  0  0  0  0  0
    6.7156   -0.0751   19.7873 C   0  0  0  0  0  0  0  0  0  0  0  0
    7.3984   -0.8744   20.9303 C   0  0  0  0  0  0  0  0  0  0  0  0
    7.3029   -0.1227   22.2869 C   0  0  0  0  0  0  0  0  0  0  0  0
    7.8499   -0.6707   23.0581 H   0  0  0  0  0  0  0  0  0  0  0  0
    7.7693    0.8673   22.1822 H   0  0  0  0  0  0  0  0  0  0  0  0
    6.2749    0.0145   22.6393 H   0  0  0  0  0  0  0  0  0  0  0  0
    8.9028   -1.0750   20.6488 C   0  0  0  0  0  0  0  0  0  0  0  0
    9.1292   -1.6422   19.7451 H   0  0  0  0  0  0  0  0  0  0  0  0
    9.4021   -1.5499   21.4990 H   0  0  0  0  0  0  0  0  0  0  0  0
    9.3615   -0.0821   20.5477 H   0  0  0  0  0  0  0  0  0  0  0  0
    6.4528   -2.5777   21.1787 S   0  0  0  0  0  0  0  0  0  0  0  0
    6.4934   -3.4004   19.9757 O   0  0  0  0  0  0  0  0  0  0  0  0
    5.1053   -2.3111   21.6729 O   0  0  0  0  0  0  0  0  0  0  0  0
    7.3510   -3.5611   22.5038 C   0  0  1  0  0  0  0  0  0  0  0  0
    8.2814   -3.8153   21.9902 H   0  0  0  0  0  0  0  0  0  0  0  0
    7.6226   -2.8325   23.6727 O   0  0  0  0  0  0  0  0  0  0  0  0
    6.9054   -3.3645   24.7949 C   0  0  0  0  0  0  0  0  0  0  0  0
    7.5967   -3.9536   25.4162 H   0  0  0  0  0  0  0  0  0  0  0  0
    6.5329   -2.5229   25.3891 H   0  0  0  0  0  0  0  0  0  0  0  0
    5.8069   -4.2292   24.1876 C   0  0  0  0  0  0  0  0  0  0  0  0
    4.9713   -3.5922   23.8895 H   0  0  0  0  0  0  0  0  0  0  0  0
    5.4461   -4.9968   24.8767 H   0  0  0  0  0  0  0  0  0  0  0  0
    6.5107   -4.7777   22.9413 C   0  0  0  0  0  0  0  0  0  0  0  0
    7.1845   -5.6081   23.1984 H   0  0  0  0  0  0  0  0  0  0  0  0
    5.8293   -5.1198   22.1562 H   0  0  0  0  0  0  0  0  0  0  0  0
    5.4626    0.5194   20.0135 C   0  0  0  0  0  0  0  0  0  0  0  0
    4.9802    0.4123   20.9849 H   0  0  0  0  0  0  0  0  0  0  0  0
    4.8424    1.2527   19.0008 C   0  0  0  0  0  0  0  0  0  0  0  0
    3.8950    1.7490   19.1688 H   0  0  0  0  0  0  0  0  0  0  0  0
  1  2  1  0
  2  3  2  0
  3  4  1  0
  4  5  1  0
  4  6  2  0
  6  7  1  0
  7  8  1  0
  8  9  1  0
  8 10  1  0
  8 11  1  0
  7 12  1  0
 12 13  1  0
 12 14  1  0
 12 15  1  0
  7 16  1  0
 16 17  2  0
 16 18  2  0
 16 19  1  0
 19 20  1  6
 19 21  1  0
 21 22  1  0
 22 23  1  0
 22 24  1  0
 22 25  1  0
 25 26  1  0
 25 27  1  0
 25 28  1  0
 28 29  1  0
 28 30  1  0
  6 31  1  0
 31 32  1  0
 31 33  2  0
 33 34  1  0
 33  2  1  0
 28 19  1  0
M  END
>  <plip>  (1) 
-0.03571428571428571

>  <filename>  (1) 
[H][c]1[n][c]([H])[c]([C]([C]([H])([H])[H])([C]([H])([H])[H])[S](=[O])(=[O])[C@@]2([H])[O][C]([H])([H])[C]([H])([H])[C]2([H])[H])[c]([H])[c]1[H]

$$$$
