
     RDKit          3D

 39 42  0  0  0  0  0  0  0  0999 V2000
    4.9874    1.7899   16.9099 H   0  0  0  0  0  0  0  0  0  0  0  0
    5.3984    1.3613   17.8216 C   0  0  0  0  0  0  0  0  0  0  0  0
    6.5877    0.7591   17.6882 N   0  0  0  0  0  0  0  0  0  0  0  0
    7.1211    0.2227   18.7930 C   0  0  0  0  0  0  0  0  0  0  0  0
    8.0671   -0.3061   18.6467 H   0  0  0  0  0  0  0  0  0  0  0  0
    6.5439    0.2580   20.0786 C   0  0  0  0  0  0  0  0  0  0  0  0
    7.2498   -0.4625   21.2323 C   0  0  1  0  0  0  0  0  0  0  0  0
    6.7047   -0.2572   22.1685 H   0  0  0  0  0  0  0  0  0  0  0  0
    7.1504   -1.9934   20.9643 C   0  0  0  0  0  0  0  0  0  0  0  0
    6.1283   -2.3259   21.1771 H   0  0  0  0  0  0  0  0  0  0  0  0
    7.2883   -2.1639   19.8925 H   0  0  0  0  0  0  0  0  0  0  0  0
    8.1227   -2.8825   21.7515 C   0  0  1  0  0  0  0  0  0  0  0  0
    7.9705   -3.9326   21.4811 H   0  0  0  0  0  0  0  0  0  0  0  0
    9.8349   -2.4213   21.3398 S   0  0  0  0  0  0  0  0  0  0  0  0
    9.5669   -0.9046   22.2983 C   0  0  2  0  0  0  0  0  0  0  0  0
   10.5432   -0.4573   22.4979 H   0  0  0  0  0  0  0  0  0  0  0  0
    8.9032   -1.3993   23.5973 C   0  0  0  0  0  0  0  0  0  0  0  0
    9.6805   -1.6488   24.3245 H   0  0  0  0  0  0  0  0  0  0  0  0
    8.2968   -0.6109   24.0492 H   0  0  0  0  0  0  0  0  0  0  0  0
    8.0710   -2.6675   23.2723 C   0  0  0  0  0  0  0  0  0  0  0  0
    8.5254   -3.5369   23.7552 H   0  0  0  0  0  0  0  0  0  0  0  0
    7.0399   -2.6072   23.6368 H   0  0  0  0  0  0  0  0  0  0  0  0
    8.7160    0.0563   21.4328 C   0  0  2  0  0  0  0  0  0  0  0  0
    9.2079    0.0714   20.4539 H   0  0  0  0  0  0  0  0  0  0  0  0
    8.7511    1.5112   21.9573 C   0  0  0  0  0  0  0  0  0  0  0  0
    8.2281    2.1445   21.2310 H   0  0  0  0  0  0  0  0  0  0  0  0
    8.1793    1.5858   22.8915 H   0  0  0  0  0  0  0  0  0  0  0  0
   10.1338    2.0716   22.1863 C   0  0  0  0  0  0  0  0  0  0  0  0
   11.2390    2.3035   20.8738 S   0  0  0  0  0  0  0  0  0  0  0  0
   12.4106    3.0343   21.8961 C   0  0  0  0  0  0  0  0  0  0  0  0
   13.3235    3.4291   21.4757 H   0  0  0  0  0  0  0  0  0  0  0  0
   11.9993    3.0643   23.1919 C   0  0  0  0  0  0  0  0  0  0  0  0
   12.5862    3.5001   23.9926 H   0  0  0  0  0  0  0  0  0  0  0  0
   10.7029    2.4905   23.3569 C   0  0  0  0  0  0  0  0  0  0  0  0
   10.2139    2.3450   24.3124 H   0  0  0  0  0  0  0  0  0  0  0  0
    5.2902    0.8861   20.1816 C   0  0  0  0  0  0  0  0  0  0  0  0
    4.7650    0.9422   21.1384 H   0  0  0  0  0  0  0  0  0  0  0  0
    4.7055    1.4407   19.0335 C   0  0  0  0  0  0  0  0  0  0  0  0
    3.7391    1.9377   19.0571 H   0  0  0  0  0  0  0  0  0  0  0  0
  1  2  1  0
  2  3  2  0
  3  4  1  0
  4  5  1  0
  4  6  2  0
  6  7  1  0
  7  8  1  1
  7  9  1  0
  9 10  1  0
  9 11  1  0
  9 12  1  0
 12 13  1  1
 12 14  1  0
 14 15  1  0
 15 16  1  1
 15 17  1  0
 17 18  1  0
 17 19  1  0
 17 20  1  0
 20 21  1  0
 20 22  1  0
 15 23  1  0
 23 24  1  6
 23 25  1  0
 25 26  1  0
 25 27  1  0
 25 28  1  0
 28 29  1  0
 29 30  1  0
 30 31  1  0
 30 32  2  0
 32 33  1  0
 32 34  1  0
 34 35  1  0
  6 36  1  0
 36 37  1  0
 36 38  2  0
 38 39  1  0
 38  2  1  0
 23  7  1  0
 34 28  2  0
 20 12  1  0
M  END
>  <plip>  (1) 
-0.03571428571428571

>  <filename>  (1) 
[H][c]1[n][c]([H])[c]([C@@]2([H])[C]([H])([H])[C@@]3([H])[S][C@]([H])([C]([H])([H])[C]3([H])[H])[C@]2([H])[C]([H])([H])[c]2[s][c]([H])[c]([H])[c]2[H])[c]([H])[c]1[H]

$$$$
