
     RDKit          3D

 30 31  0  0  0  0  0  0  0  0999 V2000
   12.3303    2.1340   21.0190 H   0  0  0  0  0  0  0  0  0  0  0  0
   11.4207    2.2952   20.7290 O   0  0  0  0  0  0  0  0  0  0  0  0
   10.5385    1.6303   21.6143 C   0  0  0  0  0  0  0  0  0  0  0  0
   10.7321    1.9203   22.6632 H   0  0  0  0  0  0  0  0  0  0  0  0
   10.6591    0.5367   21.5376 H   0  0  0  0  0  0  0  0  0  0  0  0
    9.1089    2.0182   21.2590 C   0  0  0  0  0  0  0  0  0  0  0  0
    9.0444    3.1103   21.2204 H   0  0  0  0  0  0  0  0  0  0  0  0
    8.8414    1.6533   20.2612 H   0  0  0  0  0  0  0  0  0  0  0  0
    8.0455    1.4480   22.2123 C   0  0  0  0  0  0  0  0  0  0  0  0
    7.0834    1.8998   21.9390 H   0  0  0  0  0  0  0  0  0  0  0  0
    8.2277    1.7290   23.2626 H   0  0  0  0  0  0  0  0  0  0  0  0
    7.9607   -0.0620   22.0897 C   0  0  0  0  0  0  0  0  0  0  0  0
    8.6162   -0.8931   23.0153 C   0  0  0  0  0  0  0  0  0  0  0  0
    9.1353   -0.4503   23.8695 H   0  0  0  0  0  0  0  0  0  0  0  0
    8.6785   -2.2265   22.9403 N   0  0  0  0  0  0  0  0  0  0  0  0
    8.0769   -2.8207   21.9067 C   0  0  0  0  0  0  0  0  0  0  0  0
    8.1302   -3.9103   21.8927 H   0  0  0  0  0  0  0  0  0  0  0  0
    7.4129   -2.1047   20.9072 C   0  0  0  0  0  0  0  0  0  0  0  0
    6.9083   -2.6136   20.0965 H   0  0  0  0  0  0  0  0  0  0  0  0
    7.3581   -0.7081   20.9856 C   0  0  0  0  0  0  0  0  0  0  0  0
    6.6439    0.0283   19.8977 C   0  0  0  0  0  0  0  0  0  0  0  0
    7.1440    0.0550   18.5856 C   0  0  0  0  0  0  0  0  0  0  0  0
    8.0950   -0.4253   18.3504 H   0  0  0  0  0  0  0  0  0  0  0  0
    6.5406    0.6703   17.5574 N   0  0  0  0  0  0  0  0  0  0  0  0
    5.3843    1.3029   17.8086 C   0  0  0  0  0  0  0  0  0  0  0  0
    4.9310    1.8164   16.9620 H   0  0  0  0  0  0  0  0  0  0  0  0
    4.7841    1.3261   19.0715 C   0  0  0  0  0  0  0  0  0  0  0  0
    3.8500    1.8597   19.2150 H   0  0  0  0  0  0  0  0  0  0  0  0
    5.4241    0.6783   20.1334 C   0  0  0  0  0  0  0  0  0  0  0  0
    5.0033    0.6593   21.1408 H   0  0  0  0  0  0  0  0  0  0  0  0
  1  2  1  0
  2  3  1  0
  3  4  1  0
  3  5  1  0
  3  6  1  0
  6  7  1  0
  6  8  1  0
  6  9  1  0
  9 10  1  0
  9 11  1  0
  9 12  1  0
 12 13  2  0
 13 14  1  0
 13 15  1  0
 15 16  2  0
 16 17  1  0
 16 18  1  0
 18 19  1  0
 18 20  2  0
 20 21  1  0
 21 22  2  0
 22 23  1  0
 22 24  1  0
 24 25  2  0
 25 26  1  0
 25 27  1  0
 27 28  1  0
 27 29  2  0
 29 30  1  0
 20 12  1  0
 29 21  1  0
M  END
>  <plip>  (1) 
-0.07142857142857142

>  <filename>  (1) 
[H][O][C]([H])([H])[C]([H])([H])[C]([H])([H])[c]1[c]([H])[n][c]([H])[c]([H])[c]1-[c]1[c]([H])[n][c]([H])[c]([H])[c]1[H]

$$$$
