
     RDKit          3D

 41 42  0  0  0  0  0  0  0  0999 V2000
    3.5894   -3.9058   26.5778 C   0  0  0  0  0  0  0  0  0  0  0  0
    3.4566   -5.0583   25.6037 C   0  0  0  0  0  0  0  0  0  0  0  0
    2.6009   -6.1464   25.8605 C   0  0  0  0  0  0  0  0  0  0  0  0
    1.6800   -6.2174   27.3414 Cl  0  0  0  0  0  0  0  0  0  0  0  0
    2.4337   -7.2109   24.9704 C   0  0  0  0  0  0  0  0  0  0  0  0
    3.1452   -7.2109   23.7734 C   0  0  0  0  0  0  0  0  0  0  0  0
    4.0035   -6.1570   23.4727 C   0  0  0  0  0  0  0  0  0  0  0  0
    4.1662   -5.1038   24.3796 C   0  0  0  0  0  0  0  0  0  0  0  0
    5.0806   -4.0656   24.0501 N   0  0  0  0  0  0  0  0  0  0  0  0
    5.1688   -3.4960   22.8101 C   0  0  0  0  0  0  0  0  0  0  0  0
    4.3979   -3.8109   21.9148 O   0  0  0  0  0  0  0  0  0  0  0  0
    6.3545   -2.4112   22.6067 C   0  0  0  0  0  0  0  0  0  0  0  0
    6.9703   -1.9758   23.5755 O   0  0  0  0  0  0  0  0  0  0  0  0
    6.6163   -2.0070   21.3174 N   0  0  0  0  0  0  0  0  0  0  0  0
    6.3042   -2.8634   20.1654 C   0  0  0  0  0  0  0  0  0  0  0  0
    5.2331   -3.0499   20.1165 H   0  0  0  0  0  0  0  0  0  0  0  0
    6.5902   -2.3706   19.2379 H   0  0  0  0  0  0  0  0  0  0  0  0
    6.8241   -3.8238   20.2605 H   0  0  0  0  0  0  0  0  0  0  0  0
    7.3220   -0.7229   21.0885 C   0  0  0  0  0  0  0  0  0  0  0  0
    8.8264   -0.9289   20.9246 C   0  0  0  0  0  0  0  0  0  0  0  0
    9.3004    0.0335   20.7019 H   0  0  0  0  0  0  0  0  0  0  0  0
    9.2572   -1.3229   21.8503 H   0  0  0  0  0  0  0  0  0  0  0  0
    9.0565   -1.6309   20.1149 H   0  0  0  0  0  0  0  0  0  0  0  0
    6.6646    0.0412   19.9453 C   0  0  0  0  0  0  0  0  0  0  0  0
    5.4335    0.6793   20.1577 C   0  0  0  0  0  0  0  0  0  0  0  0
    4.8040    1.3217   19.0904 C   0  0  0  0  0  0  0  0  0  0  0  0
    5.4198    1.3004   17.8357 C   0  0  0  0  0  0  0  0  0  0  0  0
    6.5853    0.6828   17.6013 N   0  0  0  0  0  0  0  0  0  0  0  0
    7.1821    0.0755   18.6401 C   0  0  0  0  0  0  0  0  0  0  0  0
    8.1260   -0.4169   18.3987 H   0  0  0  0  0  0  0  0  0  0  0  0
    4.9617    1.8008   16.9849 H   0  0  0  0  0  0  0  0  0  0  0  0
    3.8636    1.8433   19.2215 H   0  0  0  0  0  0  0  0  0  0  0  0
    4.9740    0.6576   21.1481 H   0  0  0  0  0  0  0  0  0  0  0  0
    7.1750   -0.1246   21.9988 H   0  0  0  0  0  0  0  0  0  0  0  0
    5.6473   -3.6792   24.7897 H   0  0  0  0  0  0  0  0  0  0  0  0
    4.5509   -6.1296   22.5401 H   0  0  0  0  0  0  0  0  0  0  0  0
    3.0273   -8.0238   23.0641 H   0  0  0  0  0  0  0  0  0  0  0  0
    1.7504   -8.0137   25.2249 H   0  0  0  0  0  0  0  0  0  0  0  0
    3.7722   -2.9571   26.0618 H   0  0  0  0  0  0  0  0  0  0  0  0
    2.6760   -3.7890   27.1668 H   0  0  0  0  0  0  0  0  0  0  0  0
    4.4084   -4.0749   27.2867 H   0  0  0  0  0  0  0  0  0  0  0  0
  1  2  1  0
  2  3  2  0
  3  4  1  0
  3  5  1  0
  5  6  2  0
  6  7  1  0
  7  8  2  0
  8  9  1  0
  9 10  1  0
 10 11  2  0
 10 12  1  0
 12 13  2  0
 12 14  1  0
 14 15  1  0
 15 16  1  0
 15 17  1  0
 15 18  1  0
 14 19  1  0
 19 20  1  0
 20 21  1  0
 20 22  1  0
 20 23  1  0
 19 24  1  0
 24 25  2  0
 25 26  1  0
 26 27  2  0
 27 28  1  0
 28 29  2  0
 29 30  1  0
 27 31  1  0
 26 32  1  0
 25 33  1  0
 19 34  1  0
  9 35  1  0
  7 36  1  0
  6 37  1  0
  5 38  1  0
  1 39  1  0
  1 40  1  0
  1 41  1  0
  8  2  1  0
 29 24  1  0
M  END
>  <plip>  (1) 
-0.07142857142857142

>  <filename>  (1) 
[H][c]1[n][c]([H])[c]([C]([H])([N]([C](=[O])[C](=[O])[N]([H])[c]2[c]([H])[c]([H])[c]([H])[c]([Cl])[c]2[C]([H])([H])[H])[C]([H])([H])[H])[C]([H])([H])[H])[c]([H])[c]1[H]

$$$$
