
     RDKit          3D

 35 37  0  0  0  0  0  0  0  0999 V2000
    9.3317    0.5415   20.5327 O   0  0  0  0  0  0  0  0  0  0  0  0
    8.7150   -0.3244   21.1299 C   0  0  0  0  0  0  0  0  0  0  0  0
    9.4542   -1.2231   22.1654 C   0  0  0  0  0  0  0  0  0  0  0  0
    8.6286   -2.1134   23.0008 N   0  0  0  0  0  0  0  0  0  0  0  0
    9.0823   -2.8020   24.1014 C   0  0  0  0  0  0  0  0  0  0  0  0
    8.1195   -3.1384   24.9621 N   0  0  0  0  0  0  0  0  0  0  0  0
    8.4963   -3.7777   26.0549 C   0  0  0  0  0  0  0  0  0  0  0  0
    7.4739   -4.0701   27.1658 C   0  0  0  0  0  0  0  0  0  0  0  0
    6.6452   -3.0185   27.4093 F   0  0  0  0  0  0  0  0  0  0  0  0
    6.6747   -5.1285   26.8500 F   0  0  0  0  0  0  0  0  0  0  0  0
    8.0374   -4.3090   28.0700 H   0  0  0  0  0  0  0  0  0  0  0  0
    9.7223   -4.2524   26.2853 N   0  0  0  0  0  0  0  0  0  0  0  0
   10.6419   -3.9973   25.3518 C   0  0  0  0  0  0  0  0  0  0  0  0
   10.4092   -3.2096   24.2467 C   0  0  0  0  0  0  0  0  0  0  0  0
   11.1584   -2.9833   23.5006 H   0  0  0  0  0  0  0  0  0  0  0  0
   11.6218   -4.4214   25.5501 H   0  0  0  0  0  0  0  0  0  0  0  0
    7.4575   -2.6433   22.3098 C   0  0  0  0  0  0  0  0  0  0  0  0
    6.6090   -1.4962   21.7867 C   0  0  0  0  0  0  0  0  0  0  0  0
    7.3796   -0.6324   20.8752 N   0  0  0  0  0  0  0  0  0  0  0  0
    6.6739    0.0345   19.8257 C   0  0  0  0  0  0  0  0  0  0  0  0
    5.4526    0.6651   20.0921 C   0  0  0  0  0  0  0  0  0  0  0  0
    4.7988    1.3305   19.0514 C   0  0  0  0  0  0  0  0  0  0  0  0
    5.3785    1.3210   17.7775 C   0  0  0  0  0  0  0  0  0  0  0  0
    6.5323    0.6943   17.4949 N   0  0  0  0  0  0  0  0  0  0  0  0
    7.1647    0.0775   18.5009 C   0  0  0  0  0  0  0  0  0  0  0  0
    8.1101   -0.4028   18.2597 H   0  0  0  0  0  0  0  0  0  0  0  0
    4.8989    1.8307   16.9471 H   0  0  0  0  0  0  0  0  0  0  0  0
    3.8649    1.8551   19.2192 H   0  0  0  0  0  0  0  0  0  0  0  0
    5.0494    0.6404   21.1061 H   0  0  0  0  0  0  0  0  0  0  0  0
    5.7434   -1.9043   21.2504 H   0  0  0  0  0  0  0  0  0  0  0  0
    6.2440   -0.9212   22.6466 H   0  0  0  0  0  0  0  0  0  0  0  0
    6.8591   -3.2485   22.9939 H   0  0  0  0  0  0  0  0  0  0  0  0
    7.7725   -3.2871   21.4760 H   0  0  0  0  0  0  0  0  0  0  0  0
   10.0349   -0.5260   22.7733 H   0  0  0  0  0  0  0  0  0  0  0  0
   10.1738   -1.7854   21.5512 H   0  0  0  0  0  0  0  0  0  0  0  0
  1  2  2  0
  2  3  1  0
  3  4  1  0
  4  5  1  0
  5  6  2  0
  6  7  1  0
  7  8  1  0
  8  9  1  0
  8 10  1  0
  8 11  1  0
  7 12  2  0
 12 13  1  0
 13 14  2  0
 14 15  1  0
 13 16  1  0
  4 17  1  0
 17 18  1  0
 18 19  1  0
 19 20  1  0
 20 21  2  0
 21 22  1  0
 22 23  2  0
 23 24  1  0
 24 25  2  0
 25 26  1  0
 23 27  1  0
 22 28  1  0
 21 29  1  0
 18 30  1  0
 18 31  1  0
 17 32  1  0
 17 33  1  0
  3 34  1  0
  3 35  1  0
 19  2  1  0
 25 20  1  0
 14  5  1  0
M  END
>  <plip>  (1) 
-0.07142857142857142

>  <filename>  (1) 
[H][c]1[n][c]([C]([H])([F])[F])[n][c]([N]2[C]([H])([H])[C](=[O])[N]([c]3[c]([H])[n][c]([H])[c]([H])[c]3[H])[C]([H])([H])[C]2([H])[H])[c]1[H]

$$$$
