
     RDKit          3D

 25 26  0  0  0  0  0  0  0  0999 V2000
    6.6918   -1.4732   21.5590 H   0  0  0  0  0  0  0  0  0  0  0  0
    7.2777   -0.7393   21.0112 C   0  0  0  0  0  0  0  0  0  0  0  0
    8.5755   -0.5167   21.4210 C   0  0  0  0  0  0  0  0  0  0  0  0
    9.5967    0.8888   20.6381 Br  0  0  0  0  0  0  0  0  0  0  0  0
    9.1879   -1.3228   22.5410 C   0  0  2  0  0  0  0  0  0  0  0  0
    8.4257   -1.9605   23.0077 H   0  0  0  0  0  0  0  0  0  0  0  0
    9.8101   -0.4347   23.5232 N   0  0  0  0  0  0  0  0  0  0  0  0
   11.0727   -0.6668   23.4426 C   0  0  0  0  0  0  0  0  0  0  0  0
   11.8968    0.0598   24.2074 N   0  0  0  0  0  0  0  0  0  0  0  0
   12.7333   -0.4494   24.4459 H   0  0  0  0  0  0  0  0  0  0  0  0
   11.3769    0.4711   24.9678 H   0  0  0  0  0  0  0  0  0  0  0  0
   11.5138   -1.6752   22.6757 O   0  0  0  0  0  0  0  0  0  0  0  0
   10.3527   -2.1652   22.0196 C   0  0  0  0  0  0  0  0  0  0  0  0
   10.1814   -3.2121   22.2702 H   0  0  0  0  0  0  0  0  0  0  0  0
   10.4768   -2.0731   20.9337 H   0  0  0  0  0  0  0  0  0  0  0  0
    6.6322   -0.0148   19.9049 C   0  0  0  0  0  0  0  0  0  0  0  0
    7.2002    0.0688   18.6137 C   0  0  0  0  0  0  0  0  0  0  0  0
    8.1500   -0.4230   18.4276 H   0  0  0  0  0  0  0  0  0  0  0  0
    6.6054    0.6997   17.5821 N   0  0  0  0  0  0  0  0  0  0  0  0
    5.4271    1.3115   17.8205 C   0  0  0  0  0  0  0  0  0  0  0  0
    4.9249    1.8339   17.0135 H   0  0  0  0  0  0  0  0  0  0  0  0
    4.8105    1.2986   19.0771 C   0  0  0  0  0  0  0  0  0  0  0  0
    3.8704    1.8251   19.2176 H   0  0  0  0  0  0  0  0  0  0  0  0
    5.4111    0.6179   20.1355 C   0  0  0  0  0  0  0  0  0  0  0  0
    4.9678    0.6140   21.1314 H   0  0  0  0  0  0  0  0  0  0  0  0
  1  2  1  0
  2  3  2  3
  3  4  1  0
  3  5  1  0
  5  6  1  1
  5  7  1  0
  7  8  2  0
  8  9  1  0
  9 10  1  0
  9 11  1  0
  8 12  1  0
 12 13  1  0
 13 14  1  0
 13 15  1  0
  2 16  1  0
 16 17  2  0
 17 18  1  0
 17 19  1  0
 19 20  2  0
 20 21  1  0
 20 22  1  0
 22 23  1  0
 22 24  2  0
 24 25  1  0
 13  5  1  0
 24 16  1  0
M  END
>  <plip>  (1) 
-0.034482758620689655

>  <filename>  (1) 
[H][C](=[C]([Br])[C@]1([H])[N]=[C]([N]([H])[H])[O][C]1([H])[H])[c]1[c]([H])[n][c]([H])[c]([H])[c]1[H]

$$$$
