
     RDKit          3D

 24 25  0  0  0  0  0  0  0  0999 V2000
    2.7956   -5.0959   23.0029 H   0  0  0  0  0  0  0  0  0  0  0  0
    3.7510   -4.5866   23.0923 C   0  0  0  0  0  0  0  0  0  0  0  0
    4.1506   -3.7811   22.0543 N   0  0  0  0  0  0  0  0  0  0  0  0
    5.2629   -3.1893   22.3747 C   0  0  0  0  0  0  0  0  0  0  0  0
    5.7691   -2.2516   21.5309 N   0  0  0  0  0  0  0  0  0  0  0  0
    5.1123   -2.0987   20.7705 H   0  0  0  0  0  0  0  0  0  0  0  0
    7.0231   -1.6998   21.6792 N   0  0  0  0  0  0  0  0  0  0  0  0
    7.4140   -0.7636   20.9009 C   0  0  0  0  0  0  0  0  0  0  0  0
    6.6378    0.0045   19.9136 C   0  0  0  0  0  0  0  0  0  0  0  0
    7.1902    0.0658   18.6345 C   0  0  0  0  0  0  0  0  0  0  0  0
    8.1439   -0.4218   18.4368 H   0  0  0  0  0  0  0  0  0  0  0  0
    6.5990    0.6696   17.6028 N   0  0  0  0  0  0  0  0  0  0  0  0
    5.4347    1.2935   17.8378 C   0  0  0  0  0  0  0  0  0  0  0  0
    4.9767    1.7827   16.9812 H   0  0  0  0  0  0  0  0  0  0  0  0
    4.8073    1.3083   19.0900 C   0  0  0  0  0  0  0  0  0  0  0  0
    3.8756    1.8485   19.2128 H   0  0  0  0  0  0  0  0  0  0  0  0
    5.4094    0.6418   20.1569 C   0  0  0  0  0  0  0  0  0  0  0  0
    4.9569    0.6586   21.1538 H   0  0  0  0  0  0  0  0  0  0  0  0
    8.7631   -0.4460   20.9835 N   0  0  0  0  0  0  0  0  0  0  0  0
    9.0301   -0.7508   21.9097 H   0  0  0  0  0  0  0  0  0  0  0  0
    8.9239    0.5345   20.8494 H   0  0  0  0  0  0  0  0  0  0  0  0
    5.9542   -3.6219   23.8996 S   0  0  0  0  0  0  0  0  0  0  0  0
    4.5752   -4.6457   24.1652 C   0  0  0  0  0  0  0  0  0  0  0  0
    4.4438   -5.1983   25.0862 H   0  0  0  0  0  0  0  0  0  0  0  0
  1  2  1  0
  2  3  1  0
  3  4  2  0
  4  5  1  0
  5  6  1  0
  5  7  1  0
  7  8  2  3
  8  9  1  0
  9 10  2  0
 10 11  1  0
 10 12  1  0
 12 13  2  0
 13 14  1  0
 13 15  1  0
 15 16  1  0
 15 17  2  0
 17 18  1  0
  8 19  1  0
 19 20  1  0
 19 21  1  0
  4 22  1  0
 22 23  1  0
 23 24  1  0
 23  2  2  0
 17  9  1  0
M  END
>  <plip>  (1) 
-0.10714285714285714

>  <filename>  (1) 
[H][c]1[n][c]([N]([H])[N]=[C]([c]2[c]([H])[n][c]([H])[c]([H])[c]2[H])[N]([H])[H])[s][c]1[H]

$$$$
