
     RDKit          3D

 34 35  0  0  0  0  0  0  0  0999 V2000
   13.2929    2.0750   21.6808 H   0  0  0  0  0  0  0  0  0  0  0  0
   13.0463    2.6019   22.4541 O   0  0  0  0  0  0  0  0  0  0  0  0
   12.2153    1.7988   23.2667 C   0  0  0  0  0  0  0  0  0  0  0  0
   12.1276    2.3144   24.2250 H   0  0  0  0  0  0  0  0  0  0  0  0
   12.6923    0.8200   23.4544 H   0  0  0  0  0  0  0  0  0  0  0  0
   10.8296    1.5997   22.6600 C   0  0  0  0  0  0  0  0  0  0  0  0
   10.4018    2.5684   22.3711 H   0  0  0  0  0  0  0  0  0  0  0  0
   10.1529    1.1638   23.4044 H   0  0  0  0  0  0  0  0  0  0  0  0
   10.8925    0.6859   21.4380 C   0  0  0  0  0  0  0  0  0  0  0  0
   11.3795   -0.2600   21.7090 H   0  0  0  0  0  0  0  0  0  0  0  0
   11.5363    1.1726   20.6991 H   0  0  0  0  0  0  0  0  0  0  0  0
    9.6164    0.3864   20.8149 N   0  0  0  0  0  0  0  0  0  0  0  0
    9.1344    1.1828   20.4259 H   0  0  0  0  0  0  0  0  0  0  0  0
    8.7370   -0.5741   21.2786 C   0  0  0  0  0  0  0  0  0  0  0  0
    7.4508   -0.7285   20.8793 C   0  0  0  0  0  0  0  0  0  0  0  0
    6.7228    0.0076   19.8095 C   0  0  0  0  0  0  0  0  0  0  0  0
    7.1878    0.0893   18.4715 C   0  0  0  0  0  0  0  0  0  0  0  0
    8.1134   -0.4128   18.1908 H   0  0  0  0  0  0  0  0  0  0  0  0
    6.5592    0.7283   17.4730 N   0  0  0  0  0  0  0  0  0  0  0  0
    5.4014    1.3397   17.7690 C   0  0  0  0  0  0  0  0  0  0  0  0
    4.9017    1.8546   16.9517 H   0  0  0  0  0  0  0  0  0  0  0  0
    4.8268    1.3128   19.0445 C   0  0  0  0  0  0  0  0  0  0  0  0
    3.8835    1.8182   19.2119 H   0  0  0  0  0  0  0  0  0  0  0  0
    5.4848    0.6339   20.0704 C   0  0  0  0  0  0  0  0  0  0  0  0
    5.0622    0.6220   21.0772 H   0  0  0  0  0  0  0  0  0  0  0  0
    6.7633   -1.7367   21.7688 C   0  0  0  0  0  0  0  0  0  0  0  0
    6.0387   -1.2301   22.4137 H   0  0  0  0  0  0  0  0  0  0  0  0
    6.2051   -2.4833   21.1939 H   0  0  0  0  0  0  0  0  0  0  0  0
    7.8706   -2.3854   22.6308 C   0  0  0  0  0  0  0  0  0  0  0  0
    7.6074   -2.3873   23.6946 H   0  0  0  0  0  0  0  0  0  0  0  0
    8.0319   -3.4285   22.3456 H   0  0  0  0  0  0  0  0  0  0  0  0
    9.1349   -1.5419   22.3693 C   0  0  0  0  0  0  0  0  0  0  0  0
    9.4271   -0.9737   23.2629 H   0  0  0  0  0  0  0  0  0  0  0  0
    9.9939   -2.1714   22.0941 H   0  0  0  0  0  0  0  0  0  0  0  0
  1  2  1  0
  2  3  1  0
  3  4  1  0
  3  5  1  0
  3  6  1  0
  6  7  1  0
  6  8  1  0
  6  9  1  0
  9 10  1  0
  9 11  1  0
  9 12  1  0
 12 13  1  0
 12 14  1  0
 14 15  2  0
 15 16  1  0
 16 17  2  0
 17 18  1  0
 17 19  1  0
 19 20  2  0
 20 21  1  0
 20 22  1  0
 22 23  1  0
 22 24  2  0
 24 25  1  0
 15 26  1  0
 26 27  1  0
 26 28  1  0
 26 29  1  0
 29 30  1  0
 29 31  1  0
 29 32  1  0
 32 33  1  0
 32 34  1  0
 32 14  1  0
 24 16  1  0
M  END
>  <plip>  (1) 
-0.07142857142857142

>  <filename>  (1) 
[H][O][C]([H])([H])[C]([H])([H])[C]([H])([H])[N]([H])[C]1=[C]([c]2[c]([H])[n][c]([H])[c]([H])[c]2[H])[C]([H])([H])[C]([H])([H])[C]1([H])[H]

$$$$
