
     RDKit          3D

 41 43  0  0  0  0  0  0  0  0999 V2000
   11.9081   -0.9476   21.4713 C   0  0  0  0  0  0  0  0  0  0  0  0
   10.8908    0.1578   21.6547 N   0  0  0  0  0  4  0  0  0  0  0  0
    9.7376   -0.0379   20.6829 C   0  0  0  0  0  0  0  0  0  0  0  0
    8.6317   -0.7759   21.3627 C   0  0  0  0  0  0  0  0  0  0  0  0
    8.7094   -1.5717   22.4851 C   0  0  0  0  0  0  0  0  0  0  0  0
    7.4733   -2.0550   22.7240 N   0  0  0  0  0  0  0  0  0  0  0  0
    7.0955   -2.9868   23.7643 C   0  0  0  0  0  0  0  0  0  0  0  0
    7.7211   -2.8043   24.6429 H   0  0  0  0  0  0  0  0  0  0  0  0
    7.2334   -4.0205   23.4280 H   0  0  0  0  0  0  0  0  0  0  0  0
    6.0487   -2.8133   24.0186 H   0  0  0  0  0  0  0  0  0  0  0  0
    6.5817   -1.6161   21.8336 N   0  0  0  0  0  0  0  0  0  0  0  0
    7.2605   -0.8330   20.9963 C   0  0  0  0  0  0  0  0  0  0  0  0
    6.5862   -0.1060   19.9204 C   0  0  0  0  0  0  0  0  0  0  0  0
    5.3878    0.5997   20.1273 C   0  0  0  0  0  0  0  0  0  0  0  0
    4.8509    1.3181   19.0606 C   0  0  0  0  0  0  0  0  0  0  0  0
    5.5110    1.2957   17.8245 C   0  0  0  0  0  0  0  0  0  0  0  0
    6.6433    0.6074   17.6079 N   0  0  0  0  0  0  0  0  0  0  0  0
    7.1522   -0.0759   18.6378 C   0  0  0  0  0  0  0  0  0  0  0  0
    8.0546   -0.6471   18.4249 H   0  0  0  0  0  0  0  0  0  0  0  0
    5.1141    1.8467   16.9749 H   0  0  0  0  0  0  0  0  0  0  0  0
    3.9412    1.8997   19.1700 H   0  0  0  0  0  0  0  0  0  0  0  0
    4.9085    0.5832   21.1099 H   0  0  0  0  0  0  0  0  0  0  0  0
    9.5407   -1.8162   23.1363 H   0  0  0  0  0  0  0  0  0  0  0  0
    9.3984    0.9354   20.3196 H   0  0  0  0  0  0  0  0  0  0  0  0
   10.1112   -0.5646   19.7996 H   0  0  0  0  0  0  0  0  0  0  0  0
   11.4235    1.5810   21.6623 C   0  0  0  0  0  0  0  0  0  0  0  0
   12.6904    1.8184   22.4867 C   0  0  0  0  0  0  0  0  0  0  0  0
   12.8965    3.3413   22.4218 C   0  0  0  0  0  0  0  0  0  0  0  0
   11.2573    4.0738   22.7445 S   0  0  0  0  0  0  0  0  0  0  0  0
   10.3814    2.5560   22.2344 C   0  0  0  0  0  0  0  0  0  0  0  0
    9.6046    2.8181   21.5171 H   0  0  0  0  0  0  0  0  0  0  0  0
    9.8978    2.1084   23.1072 H   0  0  0  0  0  0  0  0  0  0  0  0
   13.6077    3.7605   23.1394 H   0  0  0  0  0  0  0  0  0  0  0  0
   13.2190    3.6409   21.4160 H   0  0  0  0  0  0  0  0  0  0  0  0
   13.5377    1.2632   22.0745 H   0  0  0  0  0  0  0  0  0  0  0  0
   12.5541    1.4604   23.5167 H   0  0  0  0  0  0  0  0  0  0  0  0
   11.6515    1.8638   20.6269 H   0  0  0  0  0  0  0  0  0  0  0  0
   10.4126    0.0363   22.5670 H   0  0  0  0  0  0  0  0  0  0  0  0
   12.7922   -0.7770   22.0899 H   0  0  0  0  0  0  0  0  0  0  0  0
   12.2403   -0.9871   20.4236 H   0  0  0  0  0  0  0  0  0  0  0  0
   11.4973   -1.9306   21.7428 H   0  0  0  0  0  0  0  0  0  0  0  0
  1  2  1  0
  2  3  1  0
  3  4  1  0
  4  5  2  0
  5  6  1  0
  6  7  1  0
  7  8  1  0
  7  9  1  0
  7 10  1  0
  6 11  1  0
 11 12  2  0
 12 13  1  0
 13 14  2  0
 14 15  1  0
 15 16  2  0
 16 17  1  0
 17 18  2  0
 18 19  1  0
 16 20  1  0
 15 21  1  0
 14 22  1  0
  5 23  1  0
  3 24  1  0
  3 25  1  0
  2 26  1  0
 26 27  1  0
 27 28  1  0
 28 29  1  0
 29 30  1  0
 30 31  1  0
 30 32  1  0
 28 33  1  0
 28 34  1  0
 27 35  1  0
 27 36  1  0
 26 37  1  0
  2 38  1  0
  1 39  1  0
  1 40  1  0
  1 41  1  0
 12  4  1  0
 18 13  1  0
 30 26  1  0
M  CHG  1   2   1
M  END
>  <plip>  (1) 
-0.07142857142857142

>  <filename>  (1) 
[H][c]1[n][c]([H])[c](-[c]2[n][n]([C]([H])([H])[H])[c]([H])[c]2[C]([H])([H])[N+]([H])([C]([H])([H])[H])[C]2([H])[C]([H])([H])[S][C]([H])([H])[C]2([H])[H])[c]([H])[c]1[H]

$$$$
