
     RDKit          3D

 29 31  0  0  0  0  0  0  0  0999 V2000
    4.9148    1.8164   16.9747 H   0  0  0  0  0  0  0  0  0  0  0  0
    5.3893    1.3009   17.8105 C   0  0  0  0  0  0  0  0  0  0  0  0
    6.5469    0.6752   17.5435 N   0  0  0  0  0  0  0  0  0  0  0  0
    7.1658    0.0609   18.5597 C   0  0  0  0  0  0  0  0  0  0  0  0
    8.1120   -0.4169   18.3056 H   0  0  0  0  0  0  0  0  0  0  0  0
    6.6784    0.0162   19.8839 C   0  0  0  0  0  0  0  0  0  0  0  0
    7.4022   -0.7084   21.0179 C   0  0  1  0  0  0  0  0  0  0  0  0
    8.4068   -0.9792   20.6717 H   0  0  0  0  0  0  0  0  0  0  0  0
    7.6494    0.1554   22.2697 C   0  0  0  0  0  0  0  0  0  0  0  0
    8.3145    1.1652   22.3214 O   0  0  0  0  0  0  0  0  0  0  0  0
    7.0545   -0.4408   23.3653 N   0  0  0  0  0  0  0  0  0  0  0  0
    6.9831    0.1291   24.6472 C   0  0  0  0  0  0  0  0  0  0  0  0
    6.0587   -0.0794   25.6326 C   0  0  0  0  0  0  0  0  0  0  0  0
    5.2339   -0.7665   25.5141 H   0  0  0  0  0  0  0  0  0  0  0  0
    6.4588    0.7279   26.7330 C   0  0  0  0  0  0  0  0  0  0  0  0
    5.9764    0.8050   27.7044 H   0  0  0  0  0  0  0  0  0  0  0  0
    7.6100    1.3861   26.3532 C   0  0  0  0  0  0  0  0  0  0  0  0
    8.2377    2.0732   26.9042 H   0  0  0  0  0  0  0  0  0  0  0  0
    7.9234    1.0099   25.0726 N   0  0  0  0  0  0  0  0  0  0  0  0
    8.6099    1.3763   24.4282 H   0  0  0  0  0  0  0  0  0  0  0  0
    6.5162   -1.6786   23.0521 C   0  0  0  0  0  0  0  0  0  0  0  0
    6.0415   -2.4567   23.8412 O   0  0  0  0  0  0  0  0  0  0  0  0
    6.6353   -1.9193   21.5705 C   0  0  0  0  0  0  0  0  0  0  0  0
    5.6223   -2.0231   21.1691 H   0  0  0  0  0  0  0  0  0  0  0  0
    7.1398   -2.8768   21.4369 H   0  0  0  0  0  0  0  0  0  0  0  0
    5.4553    0.6550   20.1256 C   0  0  0  0  0  0  0  0  0  0  0  0
    5.0233    0.6453   21.1279 H   0  0  0  0  0  0  0  0  0  0  0  0
    4.8003    1.3130   19.0790 C   0  0  0  0  0  0  0  0  0  0  0  0
    3.8642    1.8460   19.2333 H   0  0  0  0  0  0  0  0  0  0  0  0
  1  2  1  0
  2  3  2  0
  3  4  1  0
  4  5  1  0
  4  6  2  0
  6  7  1  0
  7  8  1  6
  7  9  1  0
  9 10  2  0
  9 11  1  0
 11 12  1  0
 12 13  2  0
 13 14  1  0
 13 15  1  0
 15 16  1  0
 15 17  2  0
 17 18  1  0
 17 19  1  0
 19 20  1  0
 11 21  1  0
 21 22  2  0
 21 23  1  0
 23 24  1  0
 23 25  1  0
  6 26  1  0
 26 27  1  0
 26 28  2  0
 28 29  1  0
 28  2  1  0
 23  7  1  0
 19 12  1  0
M  END
>  <plip>  (1) 
-0.03571428571428571

>  <filename>  (1) 
[H][c]1[n][c]([H])[c]([C@@]2([H])[C](=[O])[N]([c]3[c]([H])[c]([H])[c]([H])[n]3[H])[C](=[O])[C]2([H])[H])[c]([H])[c]1[H]

$$$$
