
     RDKit          3D

 40 41  0  0  0  0  0  0  0  0999 V2000
    7.3926    0.1540   22.3128 C   0  0  0  0  0  0  0  0  0  0  0  0
    7.3799   -0.6949   21.0596 C   0  0  0  0  0  0  0  0  0  0  0  0
    8.8072   -1.0865   20.7004 C   0  0  0  0  0  0  0  0  0  0  0  0
    9.3793   -0.2112   20.3852 H   0  0  0  0  0  0  0  0  0  0  0  0
    9.2952   -1.5499   21.5630 H   0  0  0  0  0  0  0  0  0  0  0  0
    8.8033   -1.7980   19.8814 H   0  0  0  0  0  0  0  0  0  0  0  0
    6.5726   -1.8700   21.2681 N   0  0  0  0  0  4  0  0  0  0  0  0
    7.0664   -2.7857   22.3180 C   0  0  0  0  0  0  0  0  0  0  0  0
    6.0647   -3.8951   22.5452 C   0  0  0  0  0  0  0  0  0  0  0  0
    6.6069   -4.7028   23.5908 O   0  0  0  0  0  0  0  0  0  0  0  0
    5.7537   -5.6276   24.1312 C   0  0  0  0  0  0  0  0  0  0  0  0
    4.6078   -6.0999   23.4832 C   0  0  0  0  0  0  0  0  0  0  0  0
    3.8137   -7.1047   24.0404 C   0  0  0  0  0  0  0  0  0  0  0  0
    2.3361   -7.7980   23.0307 Br  0  0  0  0  0  0  0  0  0  0  0  0
    4.1470   -7.6041   25.3094 C   0  0  0  0  0  0  0  0  0  0  0  0
    5.2734   -7.1189   25.9874 C   0  0  0  0  0  0  0  0  0  0  0  0
    6.0649   -6.1308   25.3877 C   0  0  0  0  0  0  0  0  0  0  0  0
    6.9458   -5.7281   25.8759 H   0  0  0  0  0  0  0  0  0  0  0  0
    5.5500   -7.5367   26.9549 H   0  0  0  0  0  0  0  0  0  0  0  0
    3.5393   -8.3771   25.7747 H   0  0  0  0  0  0  0  0  0  0  0  0
    4.3326   -5.6720   22.5284 H   0  0  0  0  0  0  0  0  0  0  0  0
    5.9080   -4.4633   21.6235 H   0  0  0  0  0  0  0  0  0  0  0  0
    5.1039   -3.4672   22.8424 H   0  0  0  0  0  0  0  0  0  0  0  0
    7.2091   -2.2551   23.2675 H   0  0  0  0  0  0  0  0  0  0  0  0
    8.0323   -3.2272   22.0456 H   0  0  0  0  0  0  0  0  0  0  0  0
    5.6428   -1.5356   21.5199 H   0  0  0  0  0  0  0  0  0  0  0  0
    6.5161   -2.3564   20.3741 H   0  0  0  0  0  0  0  0  0  0  0  0
    6.6404   -0.0182   19.9558 C   0  0  0  0  0  0  0  0  0  0  0  0
    5.4224    0.6386   20.1796 C   0  0  0  0  0  0  0  0  0  0  0  0
    4.8285    1.2881   19.1034 C   0  0  0  0  0  0  0  0  0  0  0  0
    5.4421    1.2598   17.8482 C   0  0  0  0  0  0  0  0  0  0  0  0
    6.5876    0.5904   17.6266 N   0  0  0  0  0  0  0  0  0  0  0  0
    7.1699   -0.0318   18.6627 C   0  0  0  0  0  0  0  0  0  0  0  0
    8.1104   -0.5478   18.4886 H   0  0  0  0  0  0  0  0  0  0  0  0
    4.9784    1.8034   17.0293 H   0  0  0  0  0  0  0  0  0  0  0  0
    3.9039    1.8368   19.2315 H   0  0  0  0  0  0  0  0  0  0  0  0
    4.9625    0.6569   21.1687 H   0  0  0  0  0  0  0  0  0  0  0  0
    6.3804    0.2359   22.7163 H   0  0  0  0  0  0  0  0  0  0  0  0
    7.7661    1.1548   22.0827 H   0  0  0  0  0  0  0  0  0  0  0  0
    8.0402   -0.3059   23.0640 H   0  0  0  0  0  0  0  0  0  0  0  0
  1  2  1  0
  2  3  1  0
  3  4  1  0
  3  5  1  0
  3  6  1  0
  2  7  1  0
  7  8  1  0
  8  9  1  0
  9 10  1  0
 10 11  1  0
 11 12  2  0
 12 13  1  0
 13 14  1  0
 13 15  2  0
 15 16  1  0
 16 17  2  0
 17 18  1  0
 16 19  1  0
 15 20  1  0
 12 21  1  0
  9 22  1  0
  9 23  1  0
  8 24  1  0
  8 25  1  0
  7 26  1  0
  7 27  1  0
  2 28  1  0
 28 29  2  0
 29 30  1  0
 30 31  2  0
 31 32  1  0
 32 33  2  0
 33 34  1  0
 31 35  1  0
 30 36  1  0
 29 37  1  0
  1 38  1  0
  1 39  1  0
  1 40  1  0
 17 11  1  0
 33 28  1  0
M  CHG  1   7   1
M  END
>  <plip>  (1) 
-0.10714285714285714

>  <filename>  (1) 
[H][c]1[n][c]([H])[c]([C]([C]([H])([H])[H])([C]([H])([H])[H])[N+]([H])([H])[C]([H])([H])[C]([H])([H])[O][c]2[c]([H])[c]([H])[c]([H])[c]([Br])[c]2[H])[c]([H])[c]1[H]

$$$$
