
     RDKit          3D

 29 31  0  0  0  0  0  0  0  0999 V2000
    4.9889    1.7739   17.0127 H   0  0  0  0  0  0  0  0  0  0  0  0
    5.4356    1.2677   17.8659 C   0  0  0  0  0  0  0  0  0  0  0  0
    6.5948    0.6363   17.6303 N   0  0  0  0  0  0  0  0  0  0  0  0
    7.1854    0.0283   18.6611 C   0  0  0  0  0  0  0  0  0  0  0  0
    8.1307   -0.4762   18.4671 H   0  0  0  0  0  0  0  0  0  0  0  0
    6.6520    0.0116   19.9546 C   0  0  0  0  0  0  0  0  0  0  0  0
    7.4165   -0.7051   20.9750 C   0  0  0  0  0  0  0  0  0  0  0  0
    7.0290   -0.7568   22.2755 N   0  0  0  0  0  0  0  0  0  0  0  0
    7.9584   -1.5007   22.8168 C   0  0  0  0  0  0  0  0  0  0  0  0
    8.0205   -1.7727   24.1437 N   0  0  0  0  0  0  0  0  0  0  0  0
    7.2622   -1.2942   24.6021 H   0  0  0  0  0  0  0  0  0  0  0  0
    8.6242   -2.8836   24.7612 C   0  0  0  0  0  0  0  0  0  0  0  0
    9.0194   -2.7460   26.0968 C   0  0  0  0  0  0  0  0  0  0  0  0
    8.8221   -1.7897   26.5748 H   0  0  0  0  0  0  0  0  0  0  0  0
    9.6875   -3.7981   26.7332 C   0  0  0  0  0  0  0  0  0  0  0  0
   10.0099   -3.7478   27.7614 H   0  0  0  0  0  0  0  0  0  0  0  0
    9.9880   -4.9710   26.0434 C   0  0  0  0  0  0  0  0  0  0  0  0
   10.5793   -5.7419   26.5306 H   0  0  0  0  0  0  0  0  0  0  0  0
    9.5442   -5.1252   24.7316 C   0  0  0  0  0  0  0  0  0  0  0  0
    9.7321   -6.0653   24.2298 H   0  0  0  0  0  0  0  0  0  0  0  0
    8.8543   -4.0946   24.0846 C   0  0  0  0  0  0  0  0  0  0  0  0
    8.4759   -4.2200   23.0750 H   0  0  0  0  0  0  0  0  0  0  0  0
    8.8470   -1.9051   21.8996 N   0  0  0  0  0  0  0  0  0  0  0  0
    9.7655   -2.2547   22.1195 H   0  0  0  0  0  0  0  0  0  0  0  0
    8.5351   -1.3490   20.6855 N   0  0  0  0  0  0  0  0  0  0  0  0
    5.4260    0.6563   20.1935 C   0  0  0  0  0  0  0  0  0  0  0  0
    4.9790    0.6593   21.1912 H   0  0  0  0  0  0  0  0  0  0  0  0
    4.8101    1.2964   19.1192 C   0  0  0  0  0  0  0  0  0  0  0  0
    3.8729    1.8317   19.2365 H   0  0  0  0  0  0  0  0  0  0  0  0
  1  2  1  0
  2  3  2  0
  3  4  1  0
  4  5  1  0
  4  6  2  0
  6  7  1  0
  7  8  1  0
  8  9  2  0
  9 10  1  0
 10 11  1  0
 10 12  1  0
 12 13  2  0
 13 14  1  0
 13 15  1  0
 15 16  1  0
 15 17  2  0
 17 18  1  0
 17 19  1  0
 19 20  1  0
 19 21  2  0
 21 22  1  0
  9 23  1  0
 23 24  1  0
 23 25  1  0
  6 26  1  0
 26 27  1  0
 26 28  2  0
 28 29  1  0
 28  2  1  0
 25  7  2  0
 21 12  1  0
M  END
>  <plip>  (1) 
-0.03333333333333333

>  <filename>  (1) 
[H][c]1[n][c]([H])[c](-[c]2[n][c]([N]([H])[c]3[c]([H])[c]([H])[c]([H])[c]([H])[c]3[H])[n]([H])[n]2)[c]([H])[c]1[H]

$$$$
