
     RDKit          3D

 36 39  0  0  0  0  0  0  0  0999 V2000
    5.0453    1.7320   16.9481 H   0  0  0  0  0  0  0  0  0  0  0  0
    5.4452    1.3445   17.8813 C   0  0  0  0  0  0  0  0  0  0  0  0
    6.5307    0.5614   17.7692 N   0  0  0  0  0  0  0  0  0  0  0  0
    7.0295    0.0631   18.9076 C   0  0  0  0  0  0  0  0  0  0  0  0
    7.9330   -0.5377   18.8147 H   0  0  0  0  0  0  0  0  0  0  0  0
    6.4939    0.2873   20.1928 C   0  0  0  0  0  0  0  0  0  0  0  0
    7.0610   -0.3593   21.4344 C   0  0  0  0  0  0  0  0  0  0  0  0
    7.6578    0.5545   22.5414 C   0  0  0  0  0  0  0  0  0  0  0  0
    7.0242    0.8082   23.5452 O   0  0  0  0  0  0  0  0  0  0  0  0
    9.0687    1.0498   22.3281 C   0  0  0  0  0  0  0  0  0  0  0  0
    9.4027    1.6858   21.1409 C   0  0  0  0  0  0  0  0  0  0  0  0
    8.6394    1.8589   20.3877 H   0  0  0  0  0  0  0  0  0  0  0  0
   10.7264    2.1407   20.9086 C   0  0  0  0  0  0  0  0  0  0  0  0
   11.0028    2.7392   20.0538 H   0  0  0  0  0  0  0  0  0  0  0  0
   11.7226    1.8871   21.8098 C   0  0  0  0  0  0  0  0  0  0  0  0
   12.7447    2.1909   21.6150 H   0  0  0  0  0  0  0  0  0  0  0  0
   11.4393    1.2170   23.0256 C   0  0  0  0  0  0  0  0  0  0  0  0
   12.4937    0.9014   23.9231 C   0  0  0  0  0  0  0  0  0  0  0  0
   13.5105    1.1836   23.6524 H   0  0  0  0  0  0  0  0  0  0  0  0
   12.2329    0.2558   25.1022 C   0  0  0  0  0  0  0  0  0  0  0  0
   13.0683   -0.0312   25.7291 H   0  0  0  0  0  0  0  0  0  0  0  0
   10.8873   -0.0401   25.4661 C   0  0  0  0  0  0  0  0  0  0  0  0
   10.6626   -0.5004   26.4222 H   0  0  0  0  0  0  0  0  0  0  0  0
    9.8420    0.2582   24.6172 C   0  0  0  0  0  0  0  0  0  0  0  0
    8.8127    0.0408   24.8963 H   0  0  0  0  0  0  0  0  0  0  0  0
   10.0890    0.8419   23.3350 C   0  0  0  0  0  0  0  0  0  0  0  0
    6.3786   -1.6255   21.9308 C   0  0  0  0  0  0  0  0  0  0  0  0
    5.5207   -1.9780   21.3647 H   0  0  0  0  0  0  0  0  0  0  0  0
    6.2836   -1.7446   23.0078 H   0  0  0  0  0  0  0  0  0  0  0  0
    7.7242   -1.7065   21.2804 C   0  0  0  0  0  0  0  0  0  0  0  0
    8.6025   -1.8956   21.8882 H   0  0  0  0  0  0  0  0  0  0  0  0
    7.7634   -2.1375   20.2862 H   0  0  0  0  0  0  0  0  0  0  0  0
    5.3633    1.1094   20.2780 C   0  0  0  0  0  0  0  0  0  0  0  0
    4.9219    1.2922   21.2587 H   0  0  0  0  0  0  0  0  0  0  0  0
    4.8354    1.6525   19.1034 C   0  0  0  0  0  0  0  0  0  0  0  0
    3.9788    2.3195   19.1219 H   0  0  0  0  0  0  0  0  0  0  0  0
  1  2  1  0
  2  3  2  0
  3  4  1  0
  4  5  1  0
  4  6  2  0
  6  7  1  0
  7  8  1  0
  8  9  2  0
  8 10  1  0
 10 11  2  0
 11 12  1  0
 11 13  1  0
 13 14  1  0
 13 15  2  0
 15 16  1  0
 15 17  1  0
 17 18  2  0
 18 19  1  0
 18 20  1  0
 20 21  1  0
 20 22  2  0
 22 23  1  0
 22 24  1  0
 24 25  1  0
 24 26  2  0
  7 27  1  0
 27 28  1  0
 27 29  1  0
 27 30  1  0
 30 31  1  0
 30 32  1  0
  6 33  1  0
 33 34  1  0
 33 35  2  0
 35 36  1  0
 35  2  1  0
 30  7  1  0
 26 10  1  0
 26 17  1  0
M  END
>  <plip>  (1) 
-0.06896551724137931

>  <filename>  (1) 
[H][c]1[n][c]([H])[c]([C]2([C](=[O])[c]3[c]([H])[c]([H])[c]([H])[c]4[c]([H])[c]([H])[c]([H])[c]([H])[c]34)[C]([H])([H])[C]2([H])[H])[c]([H])[c]1[H]

$$$$
