
     RDKit          3D

 27 28  0  0  0  0  0  0  0  0999 V2000
    6.5857   -1.2708   22.2119 O   0  0  0  0  0  0  0  0  0  0  0  0
    7.5268   -0.8400   21.1886 S   0  0  0  0  0  0  0  0  0  0  0  0
    8.4041   -1.7931   20.5174 O   0  0  0  0  0  0  0  0  0  0  0  0
    8.6920    0.3355   21.8974 C   0  0  0  0  0  0  0  0  0  0  0  0
    8.1416    1.6267   22.4053 C   0  0  0  0  0  0  0  0  0  0  0  0
    7.3157    1.7685   23.4762 C   0  0  0  0  0  0  0  0  0  0  0  0
    6.7233    3.0624   23.5713 C   0  0  0  0  0  0  0  0  0  0  0  0
    7.1271    3.8697   22.5498 C   0  0  0  0  0  0  0  0  0  0  0  0
    6.7219    5.2809   22.2259 C   0  0  0  0  0  0  0  0  0  0  0  0
    5.4879    5.5576   22.6947 F   0  0  0  0  0  0  0  0  0  0  0  0
    7.5698    6.1636   22.7869 F   0  0  0  0  0  0  0  0  0  0  0  0
    6.7187    5.5166   20.9103 F   0  0  0  0  0  0  0  0  0  0  0  0
    8.3205    3.1154   21.5553 S   0  0  0  0  0  0  0  0  0  0  0  0
    6.0446    3.3620   24.3707 H   0  0  0  0  0  0  0  0  0  0  0  0
    7.1237    0.9640   24.1788 H   0  0  0  0  0  0  0  0  0  0  0  0
    9.4444    0.4593   21.1170 H   0  0  0  0  0  0  0  0  0  0  0  0
    9.0934   -0.3049   22.6891 H   0  0  0  0  0  0  0  0  0  0  0  0
    6.6431    0.0339   19.9630 C   0  0  0  0  0  0  0  0  0  0  0  0
    5.4268    0.6735   20.2059 C   0  0  0  0  0  0  0  0  0  0  0  0
    4.8264    1.3105   19.1239 C   0  0  0  0  0  0  0  0  0  0  0  0
    5.4603    1.2701   17.8759 C   0  0  0  0  0  0  0  0  0  0  0  0
    6.6206    0.6319   17.6643 N   0  0  0  0  0  0  0  0  0  0  0  0
    7.2023    0.0185   18.6911 C   0  0  0  0  0  0  0  0  0  0  0  0
    8.1326   -0.5143   18.4956 H   0  0  0  0  0  0  0  0  0  0  0  0
    5.0083    1.7615   17.0123 H   0  0  0  0  0  0  0  0  0  0  0  0
    3.8884    1.8422   19.2359 H   0  0  0  0  0  0  0  0  0  0  0  0
    4.9548    0.6586   21.1917 H   0  0  0  0  0  0  0  0  0  0  0  0
  1  2  2  0
  2  3  2  0
  2  4  1  0
  4  5  1  0
  5  6  2  0
  6  7  1  0
  7  8  2  0
  8  9  1  0
  9 10  1  0
  9 11  1  0
  9 12  1  0
  8 13  1  0
  7 14  1  0
  6 15  1  0
  4 16  1  0
  4 17  1  0
  2 18  1  0
 18 19  2  0
 19 20  1  0
 20 21  2  0
 21 22  1  0
 22 23  2  0
 23 24  1  0
 21 25  1  0
 20 26  1  0
 19 27  1  0
 13  5  1  0
 23 18  1  0
M  END
>  <plip>  (1) 
-0.03571428571428571

>  <filename>  (1) 
[H][c]1[n][c]([H])[c]([S](=[O])(=[O])[C]([H])([H])[c]2[s][c]([C]([F])([F])[F])[c]([H])[c]2[H])[c]([H])[c]1[H]

$$$$
