
     RDKit          3D

 29 31  0  0  0  0  0  0  0  0999 V2000
    4.9189    1.7851   16.9935 H   0  0  0  0  0  0  0  0  0  0  0  0
    5.4009    1.2958   17.8373 C   0  0  0  0  0  0  0  0  0  0  0  0
    6.5669    0.6788   17.5789 N   0  0  0  0  0  0  0  0  0  0  0  0
    7.1708    0.0633   18.5987 C   0  0  0  0  0  0  0  0  0  0  0  0
    8.1147   -0.4288   18.3747 H   0  0  0  0  0  0  0  0  0  0  0  0
    6.6626    0.0137   19.9128 C   0  0  0  0  0  0  0  0  0  0  0  0
    7.3640   -0.6938   20.9980 C   0  0  0  0  0  0  0  0  0  0  0  0
    8.0611   -2.2455   20.8165 S   0  0  0  0  0  0  0  0  0  0  0  0
    8.5009   -2.4419   22.3944 N   0  0  0  0  0  0  0  0  0  0  0  0
    8.1498   -1.3845   23.0662 C   0  0  0  0  0  0  0  0  0  0  0  0
    8.3891   -1.3552   24.1242 H   0  0  0  0  0  0  0  0  0  0  0  0
    7.5103   -0.3446   22.3249 C   0  0  0  0  0  0  0  0  0  0  0  0
    7.1663    0.9287   22.9443 C   0  0  0  0  0  0  0  0  0  0  0  0
    6.6994    0.8849   24.2038 N   0  0  0  0  0  0  0  0  0  0  0  0
    6.3464    2.0419   24.7613 C   0  0  0  0  0  0  0  0  0  0  0  0
    5.9565    1.9751   25.7738 H   0  0  0  0  0  0  0  0  0  0  0  0
    6.4753    3.3068   24.1595 C   0  0  0  0  0  0  0  0  0  0  0  0
    6.1193    4.5798   24.8784 C   0  0  0  0  0  0  0  0  0  0  0  0
    6.9811    4.9773   25.4265 H   0  0  0  0  0  0  0  0  0  0  0  0
    5.8065    5.3561   24.1734 H   0  0  0  0  0  0  0  0  0  0  0  0
    5.3091    4.4413   25.6009 H   0  0  0  0  0  0  0  0  0  0  0  0
    7.0123    3.3373   22.8670 C   0  0  0  0  0  0  0  0  0  0  0  0
    7.1508    4.2888   22.3519 H   0  0  0  0  0  0  0  0  0  0  0  0
    7.3639    2.1391   22.2584 C   0  0  0  0  0  0  0  0  0  0  0  0
    7.7753    2.1114   21.2590 H   0  0  0  0  0  0  0  0  0  0  0  0
    5.4299    0.6455   20.1520 C   0  0  0  0  0  0  0  0  0  0  0  0
    5.0037    0.6302   21.1561 H   0  0  0  0  0  0  0  0  0  0  0  0
    4.8012    1.3078   19.0999 C   0  0  0  0  0  0  0  0  0  0  0  0
    3.8722    1.8423   19.2534 H   0  0  0  0  0  0  0  0  0  0  0  0
  1  2  1  0
  2  3  2  0
  3  4  1  0
  4  5  1  0
  4  6  2  0
  6  7  1  0
  7  8  1  0
  8  9  1  0
  9 10  2  0
 10 11  1  0
 10 12  1  0
 12 13  1  0
 13 14  2  0
 14 15  1  0
 15 16  1  0
 15 17  2  0
 17 18  1  0
 18 19  1  0
 18 20  1  0
 18 21  1  0
 17 22  1  0
 22 23  1  0
 22 24  2  0
 24 25  1  0
  6 26  1  0
 26 27  1  0
 26 28  2  0
 28 29  1  0
 28  2  1  0
 12  7  2  0
 24 13  1  0
M  END
>  <plip>  (1) 
-0.0

>  <filename>  (1) 
[H][c]1[n][c]([H])[c](-[c]2[s][n][c]([H])[c]2-[c]2[n][c]([H])[c]([C]([H])([H])[H])[c]([H])[c]2[H])[c]([H])[c]1[H]

$$$$
