
     RDKit          3D

 47 49  0  0  0  0  0  0  0  0999 V2000
    2.1466   -7.1284   25.4508 C   0  0  0  0  0  0  0  0  0  0  0  0
    3.4002   -7.6068   25.0557 C   0  0  0  0  0  0  0  0  0  0  0  0
    4.4564   -6.7226   24.7692 C   0  0  0  0  0  0  0  0  0  0  0  0
    4.2434   -5.3429   24.8986 C   0  0  0  0  0  0  0  0  0  0  0  0
    5.1770   -4.3823   24.6583 O   0  0  0  0  0  0  0  0  0  0  0  0
    6.5694   -4.6723   24.5685 C   0  0  0  0  0  0  0  0  0  0  0  0
    7.3116   -3.3410   24.7451 C   0  0  0  0  0  0  0  0  0  0  0  0
    8.8471   -3.4838   24.7683 C   0  0  0  0  0  0  0  0  0  0  0  0
    9.4395   -3.7978   23.3824 C   0  0  0  0  0  0  0  0  0  0  0  0
    8.8952   -2.8957   22.2677 C   0  0  0  0  0  0  0  0  0  0  0  0
    7.3739   -2.8374   22.3138 N   0  0  0  0  0  4  0  0  0  0  0  0
    6.7194   -2.1422   21.1504 C   0  0  0  0  0  0  0  0  0  0  0  0
    7.2358   -0.7125   20.9197 C   0  0  0  0  0  0  0  0  0  0  0  0
    6.5501    0.0396   19.7971 C   0  0  0  0  0  0  0  0  0  0  0  0
    5.3431    0.7276   20.0023 C   0  0  0  0  0  0  0  0  0  0  0  0
    4.7554    1.4171   18.9398 C   0  0  0  0  0  0  0  0  0  0  0  0
    5.3907    1.3976   17.6946 C   0  0  0  0  0  0  0  0  0  0  0  0
    6.5404    0.7436   17.4668 N   0  0  0  0  0  0  0  0  0  0  0  0
    7.0984    0.1039   18.5012 C   0  0  0  0  0  0  0  0  0  0  0  0
    8.0567   -0.3738   18.2870 H   0  0  0  0  0  0  0  0  0  0  0  0
    4.9640    1.9264   16.8440 H   0  0  0  0  0  0  0  0  0  0  0  0
    3.8372    1.9851   19.0622 H   0  0  0  0  0  0  0  0  0  0  0  0
    4.8842    0.7512   20.9945 H   0  0  0  0  0  0  0  0  0  0  0  0
    7.1260   -0.1618   21.8636 H   0  0  0  0  0  0  0  0  0  0  0  0
    8.3104   -0.7759   20.7187 H   0  0  0  0  0  0  0  0  0  0  0  0
    6.8774   -2.7373   20.2445 H   0  0  0  0  0  0  0  0  0  0  0  0
    5.6375   -2.1059   21.3326 H   0  0  0  0  0  0  0  0  0  0  0  0
    6.9029   -2.3307   23.6658 C   0  0  0  0  0  0  0  0  0  0  0  0
    7.3561   -1.3489   23.8682 H   0  0  0  0  0  0  0  0  0  0  0  0
    5.8172   -2.2071   23.6441 H   0  0  0  0  0  0  0  0  0  0  0  0
    7.0564   -3.8249   22.2878 H   0  0  0  0  0  0  0  0  0  0  0  0
    9.2935   -1.8835   22.4152 H   0  0  0  0  0  0  0  0  0  0  0  0
    9.2190   -3.2515   21.2786 H   0  0  0  0  0  0  0  0  0  0  0  0
    9.2630   -4.8520   23.1340 H   0  0  0  0  0  0  0  0  0  0  0  0
   10.5253   -3.6519   23.4286 H   0  0  0  0  0  0  0  0  0  0  0  0
    9.1505   -4.2466   25.5009 H   0  0  0  0  0  0  0  0  0  0  0  0
    9.2813   -2.5393   25.1289 H   0  0  0  0  0  0  0  0  0  0  0  0
    6.9820   -2.9356   25.7075 H   0  0  0  0  0  0  0  0  0  0  0  0
    6.7878   -5.1259   23.5894 H   0  0  0  0  0  0  0  0  0  0  0  0
    6.8633   -5.3940   25.3442 H   0  0  0  0  0  0  0  0  0  0  0  0
    2.9764   -4.8549   25.2785 C   0  0  0  0  0  0  0  0  0  0  0  0
    1.9393   -5.7456   25.5527 C   0  0  0  0  0  0  0  0  0  0  0  0
    0.9639   -5.3627   25.8559 H   0  0  0  0  0  0  0  0  0  0  0  0
    2.8519   -3.7769   25.3685 H   0  0  0  0  0  0  0  0  0  0  0  0
    5.4287   -7.0899   24.4569 H   0  0  0  0  0  0  0  0  0  0  0  0
    3.5633   -8.6761   24.9813 H   0  0  0  0  0  0  0  0  0  0  0  0
    1.3422   -7.8238   25.6905 H   0  0  0  0  0  0  0  0  0  0  0  0
  1  2  2  0
  2  3  1  0
  3  4  2  0
  4  5  1  0
  5  6  1  0
  6  7  1  0
  7  8  1  0
  8  9  1  0
  9 10  1  0
 10 11  1  0
 11 12  1  0
 12 13  1  0
 13 14  1  0
 14 15  2  0
 15 16  1  0
 16 17  2  0
 17 18  1  0
 18 19  2  0
 19 20  1  0
 17 21  1  0
 16 22  1  0
 15 23  1  0
 13 24  1  0
 13 25  1  0
 12 26  1  0
 12 27  1  0
 11 28  1  0
 28 29  1  0
 28 30  1  0
 11 31  1  0
 10 32  1  0
 10 33  1  0
  9 34  1  0
  9 35  1  0
  8 36  1  0
  8 37  1  0
  7 38  1  0
  6 39  1  0
  6 40  1  0
  4 41  1  0
 41 42  2  0
 42 43  1  0
 41 44  1  0
  3 45  1  0
  2 46  1  0
  1 47  1  0
 42  1  1  0
 28  7  1  0
 19 14  1  0
M  CHG  1  11   1
M  END
>  <plip>  (1) 
-0.06896551724137931

>  <filename>  (1) 
[H][c]1[n][c]([H])[c]([C]([H])([H])[C]([H])([H])[N+]2([H])[C]([H])([H])[C]([H])([H])[C]([H])([H])[C]([H])([C]([H])([H])[O][c]3[c]([H])[c]([H])[c]([H])[c]([H])[c]3[H])[C]2([H])[H])[c]([H])[c]1[H]

$$$$
