
     RDKit          3D

 28 29  0  0  0  0  0  0  0  0999 V2000
    4.9572    1.7989   17.0023 H   0  0  0  0  0  0  0  0  0  0  0  0
    5.4243    1.2895   17.8399 C   0  0  0  0  0  0  0  0  0  0  0  0
    6.5906    0.6757   17.5798 N   0  0  0  0  0  0  0  0  0  0  0  0
    7.1859    0.0342   18.5951 C   0  0  0  0  0  0  0  0  0  0  0  0
    8.1305   -0.4611   18.3849 H   0  0  0  0  0  0  0  0  0  0  0  0
    6.6560   -0.0456   19.9073 C   0  0  0  0  0  0  0  0  0  0  0  0
    7.2553   -0.7864   20.9181 N   0  0  0  0  0  0  0  0  0  0  0  0
    6.8885   -0.5851   21.8469 H   0  0  0  0  0  0  0  0  0  0  0  0
    8.5907   -1.1668   20.7507 N   0  0  0  0  0  0  0  0  0  0  0  0
    8.7745   -2.0376   21.2480 H   0  0  0  0  0  0  0  0  0  0  0  0
    9.5848   -0.1492   21.1177 C   0  0  0  0  0  0  0  0  0  0  0  0
    9.4321    0.7397   20.4866 H   0  0  0  0  0  0  0  0  0  0  0  0
   10.5565   -0.5766   20.8421 H   0  0  0  0  0  0  0  0  0  0  0  0
    9.5564    0.2526   22.5934 C   0  0  0  0  0  0  0  0  0  0  0  0
   10.1877   -0.5331   23.5765 C   0  0  0  0  0  0  0  0  0  0  0  0
   10.7415   -1.4195   23.2693 H   0  0  0  0  0  0  0  0  0  0  0  0
   10.0817   -0.2065   24.9351 C   0  0  0  0  0  0  0  0  0  0  0  0
   10.5663   -0.8235   25.6881 H   0  0  0  0  0  0  0  0  0  0  0  0
    9.3368    0.9091   25.3375 C   0  0  0  0  0  0  0  0  0  0  0  0
    9.2196    1.2022   26.3747 H   0  0  0  0  0  0  0  0  0  0  0  0
    8.7155    1.6773   24.3601 C   0  0  0  0  0  0  0  0  0  0  0  0
    7.9833    2.7434   24.7316 F   0  0  0  0  0  0  0  0  0  0  0  0
    8.8127    1.3714   23.0070 C   0  0  0  0  0  0  0  0  0  0  0  0
    8.2686    1.9945   22.3036 H   0  0  0  0  0  0  0  0  0  0  0  0
    5.4491    0.6279   20.1623 C   0  0  0  0  0  0  0  0  0  0  0  0
    5.0244    0.6243   21.1684 H   0  0  0  0  0  0  0  0  0  0  0  0
    4.8245    1.2954   19.1078 C   0  0  0  0  0  0  0  0  0  0  0  0
    3.8866    1.8273   19.2535 H   0  0  0  0  0  0  0  0  0  0  0  0
  1  2  1  0
  2  3  2  0
  3  4  1  0
  4  5  1  0
  4  6  2  0
  6  7  1  0
  7  8  1  0
  7  9  1  0
  9 10  1  0
  9 11  1  0
 11 12  1  0
 11 13  1  0
 11 14  1  0
 14 15  2  0
 15 16  1  0
 15 17  1  0
 17 18  1  0
 17 19  2  0
 19 20  1  0
 19 21  1  0
 21 22  1  0
 21 23  2  0
 23 24  1  0
  6 25  1  0
 25 26  1  0
 25 27  2  0
 27 28  1  0
 27  2  1  0
 23 14  1  0
M  END
>  <plip>  (1) 
-0.10714285714285714

>  <filename>  (1) 
[H][c]1[n][c]([H])[c]([N]([H])[N]([H])[C]([H])([H])[c]2[c]([H])[c]([H])[c]([H])[c]([F])[c]2[H])[c]([H])[c]1[H]

$$$$
