
     RDKit          3D

 37 39  0  0  0  0  0  0  0  0999 V2000
   10.0752   -1.1881   22.0434 H   0  0  0  0  0  0  0  0  0  0  0  0
   10.2222   -0.1086   22.0602 C   0  0  0  0  0  0  0  0  0  0  0  0
    9.1584    0.6984   22.0795 C   0  0  0  0  0  0  0  0  0  0  0  0
    9.3039    1.7752   21.9827 H   0  0  0  0  0  0  0  0  0  0  0  0
    7.7475    0.1644   22.1832 C   0  0  2  0  0  0  0  0  0  0  0  0
    7.0807    1.0311   22.2262 H   0  0  0  0  0  0  0  0  0  0  0  0
    7.4843   -0.7331   23.4345 C   0  0  0  0  0  0  0  0  0  0  0  0
    8.3402   -0.7467   24.1211 H   0  0  0  0  0  0  0  0  0  0  0  0
    6.6345   -0.3378   24.0084 H   0  0  0  0  0  0  0  0  0  0  0  0
    7.1774   -2.0857   22.9577 N   0  0  0  0  0  0  0  0  0  0  0  0
    8.0517   -2.5965   22.8607 H   0  0  0  0  0  0  0  0  0  0  0  0
    6.5925   -1.9016   21.6306 C   0  0  0  0  0  0  0  0  0  0  0  0
    6.6361   -2.8347   21.0566 H   0  0  0  0  0  0  0  0  0  0  0  0
    5.5322   -1.6384   21.7271 H   0  0  0  0  0  0  0  0  0  0  0  0
    7.3705   -0.7473   20.9663 C   0  0  1  0  0  0  0  0  0  0  0  0
    8.2888   -1.1813   20.5443 H   0  0  0  0  0  0  0  0  0  0  0  0
    6.6516   -0.0132   19.8479 C   0  0  0  0  0  0  0  0  0  0  0  0
    7.1610    0.0602   18.5363 C   0  0  0  0  0  0  0  0  0  0  0  0
    8.1076   -0.4224   18.2897 H   0  0  0  0  0  0  0  0  0  0  0  0
    6.5679    0.6963   17.5176 N   0  0  0  0  0  0  0  0  0  0  0  0
    5.4058    1.3172   17.7765 C   0  0  0  0  0  0  0  0  0  0  0  0
    4.9363    1.8363   16.9407 H   0  0  0  0  0  0  0  0  0  0  0  0
    4.8043    1.3148   19.0371 C   0  0  0  0  0  0  0  0  0  0  0  0
    3.8731    1.8481   19.1913 H   0  0  0  0  0  0  0  0  0  0  0  0
    5.4356    0.6454   20.0871 C   0  0  0  0  0  0  0  0  0  0  0  0
    5.0003    0.6471   21.0887 H   0  0  0  0  0  0  0  0  0  0  0  0
   11.6417    0.2629   22.1519 C   0  0  0  0  0  0  0  0  0  0  0  0
   12.0644    1.5535   22.5150 C   0  0  0  0  0  0  0  0  0  0  0  0
   11.3384    2.3458   22.6799 H   0  0  0  0  0  0  0  0  0  0  0  0
   13.4189    1.8200   22.7096 C   0  0  0  0  0  0  0  0  0  0  0  0
   13.7486    2.7976   23.0490 H   0  0  0  0  0  0  0  0  0  0  0  0
   14.3649    0.8174   22.4892 C   0  0  0  0  0  0  0  0  0  0  0  0
   15.4097    1.0933   22.5371 H   0  0  0  0  0  0  0  0  0  0  0  0
   13.9652   -0.4594   22.0952 C   0  0  0  0  0  0  0  0  0  0  0  0
   14.7014   -1.2394   21.9240 H   0  0  0  0  0  0  0  0  0  0  0  0
   12.6109   -0.7318   21.9192 C   0  0  0  0  0  0  0  0  0  0  0  0
   12.2851   -1.7194   21.5933 H   0  0  0  0  0  0  0  0  0  0  0  0
  1  2  1  0
  2  3  2  3
  3  4  1  0
  3  5  1  0
  5  6  1  1
  5  7  1  0
  7  8  1  0
  7  9  1  0
  7 10  1  0
 10 11  1  0
 10 12  1  0
 12 13  1  0
 12 14  1  0
 12 15  1  0
 15 16  1  6
 15 17  1  0
 17 18  2  0
 18 19  1  0
 18 20  1  0
 20 21  2  0
 21 22  1  0
 21 23  1  0
 23 24  1  0
 23 25  2  0
 25 26  1  0
  2 27  1  0
 27 28  2  0
 28 29  1  0
 28 30  1  0
 30 31  1  0
 30 32  2  0
 32 33  1  0
 32 34  1  0
 34 35  1  0
 34 36  2  0
 36 37  1  0
 15  5  1  0
 25 17  1  0
 36 27  1  0
M  END
>  <plip>  (1) 
-0.07142857142857142

>  <filename>  (1) 
[H][C](=[C]([H])[C@]1([H])[C]([H])([H])[N]([H])[C]([H])([H])[C@@]1([H])[c]1[c]([H])[n][c]([H])[c]([H])[c]1[H])[c]1[c]([H])[c]([H])[c]([H])[c]([H])[c]1[H]

$$$$
