
     RDKit          3D

 49 51  0  0  0  0  0  0  0  0999 V2000
   12.6022    2.2102   22.7194 C   0  0  0  0  0  0  0  0  0  0  0  0
   12.2023    3.4733   23.4569 C   0  0  0  0  0  0  0  0  0  0  0  0
   13.1759    4.3810   23.8827 C   0  0  0  0  0  0  0  0  0  0  0  0
   12.8607    5.4339   24.7465 C   0  0  0  0  0  0  0  0  0  0  0  0
   11.5341    5.6472   25.1214 C   0  0  0  0  0  0  0  0  0  0  0  0
   10.5277    4.8202   24.6255 C   0  0  0  0  0  0  0  0  0  0  0  0
   10.8475    3.7310   23.7927 C   0  0  0  0  0  0  0  0  0  0  0  0
    9.7956    2.8724   23.3143 C   0  0  0  0  0  0  0  0  0  0  0  0
    8.9364    2.1296   22.9005 C   0  0  0  0  0  0  0  0  0  0  0  0
    7.8374    1.3146   22.4063 C   0  0  0  0  0  0  0  0  0  0  0  0
    8.4044    0.1459   21.6624 N   0  0  0  0  0  4  0  0  0  0  0  0
    7.4242   -0.7615   20.9838 C   0  0  0  0  0  0  0  0  0  0  0  0
    6.4512   -1.4454   21.9700 C   0  0  0  0  0  0  0  0  0  0  0  0
    6.9747   -2.6029   22.8533 C   0  0  0  0  0  0  0  0  0  0  0  0
    7.7796   -3.6490   22.0540 C   0  0  0  0  0  0  0  0  0  0  0  0
    9.2501   -3.2515   22.3341 C   0  0  0  0  0  0  0  0  0  0  0  0
    9.2101   -2.0146   23.0438 O   0  0  0  0  0  0  0  0  0  0  0  0
    8.0326   -2.1083   23.8450 C   0  0  0  0  0  0  0  0  0  0  0  0
    7.8003   -1.1341   24.2822 H   0  0  0  0  0  0  0  0  0  0  0  0
    8.2063   -2.8259   24.6627 H   0  0  0  0  0  0  0  0  0  0  0  0
    9.7489   -4.0055   22.9589 H   0  0  0  0  0  0  0  0  0  0  0  0
    9.8238   -3.0686   21.4246 H   0  0  0  0  0  0  0  0  0  0  0  0
    7.5298   -3.6132   20.9890 H   0  0  0  0  0  0  0  0  0  0  0  0
    7.5689   -4.6753   22.3777 H   0  0  0  0  0  0  0  0  0  0  0  0
    6.1106   -3.0362   23.3741 H   0  0  0  0  0  0  0  0  0  0  0  0
    5.6002   -1.8128   21.3862 H   0  0  0  0  0  0  0  0  0  0  0  0
    6.0633   -0.6555   22.6222 H   0  0  0  0  0  0  0  0  0  0  0  0
    6.6731   -0.0026   19.9111 C   0  0  0  0  0  0  0  0  0  0  0  0
    5.4534    0.6565   20.1415 C   0  0  0  0  0  0  0  0  0  0  0  0
    4.8278    1.3138   19.0841 C   0  0  0  0  0  0  0  0  0  0  0  0
    5.4392    1.3019   17.8293 C   0  0  0  0  0  0  0  0  0  0  0  0
    6.6065    0.6862   17.5880 N   0  0  0  0  0  0  0  0  0  0  0  0
    7.1981    0.0623   18.6127 C   0  0  0  0  0  0  0  0  0  0  0  0
    8.1404   -0.4307   18.3686 H   0  0  0  0  0  0  0  0  0  0  0  0
    4.9695    1.8097   16.9894 H   0  0  0  0  0  0  0  0  0  0  0  0
    3.8886    1.8332   19.2270 H   0  0  0  0  0  0  0  0  0  0  0  0
    5.0093    0.6650   21.1404 H   0  0  0  0  0  0  0  0  0  0  0  0
    8.0194   -1.5319   20.4830 H   0  0  0  0  0  0  0  0  0  0  0  0
    9.0147   -0.4015   22.3099 H   0  0  0  0  0  0  0  0  0  0  0  0
    9.0142    0.5738   20.9373 H   0  0  0  0  0  0  0  0  0  0  0  0
    7.1989    1.9165   21.7494 H   0  0  0  0  0  0  0  0  0  0  0  0
    7.2003    1.0057   23.2435 H   0  0  0  0  0  0  0  0  0  0  0  0
    9.4895    5.0117   24.8818 H   0  0  0  0  0  0  0  0  0  0  0  0
   11.2808    6.4655   25.7883 H   0  0  0  0  0  0  0  0  0  0  0  0
   13.6471    6.0669   25.1482 H   0  0  0  0  0  0  0  0  0  0  0  0
   14.2143    4.2121   23.5935 H   0  0  0  0  0  0  0  0  0  0  0  0
   13.6890    2.1035   22.6636 H   0  0  0  0  0  0  0  0  0  0  0  0
   12.2039    2.2094   21.7022 H   0  0  0  0  0  0  0  0  0  0  0  0
   12.1970    1.3277   23.2271 H   0  0  0  0  0  0  0  0  0  0  0  0
  1  2  1  0
  2  3  2  0
  3  4  1  0
  4  5  2  0
  5  6  1  0
  6  7  2  0
  7  8  1  0
  8  9  3  0
  9 10  1  0
 10 11  1  0
 11 12  1  0
 12 13  1  0
 13 14  1  0
 14 15  1  0
 15 16  1  0
 16 17  1  0
 17 18  1  0
 18 19  1  0
 18 20  1  0
 16 21  1  0
 16 22  1  0
 15 23  1  0
 15 24  1  0
 14 25  1  0
 13 26  1  0
 13 27  1  0
 12 28  1  0
 28 29  2  0
 29 30  1  0
 30 31  2  0
 31 32  1  0
 32 33  2  0
 33 34  1  0
 31 35  1  0
 30 36  1  0
 29 37  1  0
 12 38  1  0
 11 39  1  0
 11 40  1  0
 10 41  1  0
 10 42  1  0
  6 43  1  0
  5 44  1  0
  4 45  1  0
  3 46  1  0
  1 47  1  0
  1 48  1  0
  1 49  1  0
  7  2  1  0
 18 14  1  0
 33 28  1  0
M  CHG  1  11   1
M  END
>  <plip>  (1) 
-0.06896551724137931

>  <filename>  (1) 
[H][c]1[n][c]([H])[c]([C]([H])([C]([H])([H])[C]2([H])[C]([H])([H])[O][C]([H])([H])[C]2([H])[H])[N+]([H])([H])[C]([H])([H])[C]#[C][c]2[c]([H])[c]([H])[c]([H])[c]([H])[c]2[C]([H])([H])[H])[c]([H])[c]1[H]

$$$$
