
     RDKit          3D

 44 48  0  0  0  0  0  0  0  0999 V2000
    4.8594    1.8347   17.1151 H   0  0  0  0  0  0  0  0  0  0  0  0
    5.3770    1.4215   17.9794 C   0  0  0  0  0  0  0  0  0  0  0  0
    6.6207    0.9632   17.7712 N   0  0  0  0  0  0  0  0  0  0  0  0
    7.2742    0.4594   18.8240 C   0  0  0  0  0  0  0  0  0  0  0  0
    8.2995    0.1504   18.6197 H   0  0  0  0  0  0  0  0  0  0  0  0
    6.7318    0.3213   20.1257 C   0  0  0  0  0  0  0  0  0  0  0  0
    7.5028   -0.3564   21.2265 C   0  0  0  0  0  0  0  0  0  0  0  0
    6.8960   -0.5197   22.6009 C   0  0  0  0  0  0  0  0  0  0  0  0
    6.8727   -1.6309   23.2712 N   0  0  0  0  0  0  0  0  0  0  0  0
    6.4462   -1.4957   24.5664 N   0  0  0  0  0  0  0  0  0  0  0  0
    6.2148   -0.2488   24.8783 C   0  0  0  0  0  0  0  0  0  0  0  0
    5.7913    0.1879   26.1036 N   0  0  0  0  0  0  0  0  0  0  0  0
    5.0023   -0.6414   27.0131 C   0  0  0  0  0  0  0  0  0  0  0  0
    4.1794   -1.1248   26.4748 H   0  0  0  0  0  0  0  0  0  0  0  0
    5.6186   -1.4398   27.4523 H   0  0  0  0  0  0  0  0  0  0  0  0
    4.4931    0.3661   28.0576 C   0  0  0  0  0  0  0  0  0  0  0  0
    3.5477    0.7986   27.7022 H   0  0  0  0  0  0  0  0  0  0  0  0
    4.2838   -0.0950   29.0273 H   0  0  0  0  0  0  0  0  0  0  0  0
    5.5876    1.4491   28.1143 C   0  0  2  0  0  0  0  0  0  0  0  0
    6.3867    1.1333   28.7938 H   0  0  0  0  0  0  0  0  0  0  0  0
    5.1337    2.8936   28.4240 C   0  0  0  0  0  0  0  0  0  0  0  0
    5.7289    3.3516   29.2254 H   0  0  0  0  0  0  0  0  0  0  0  0
    4.0844    2.9068   28.7692 H   0  0  0  0  0  0  0  0  0  0  0  0
    5.3180    3.6567   27.1780 N   0  0  0  0  0  0  0  0  0  0  0  0
    4.3795    4.7381   26.9561 C   0  0  0  0  0  0  0  0  0  0  0  0
    3.3358    4.3847   26.8331 H   0  0  0  0  0  0  0  0  0  0  0  0
    4.4038    5.4492   27.7887 H   0  0  0  0  0  0  0  0  0  0  0  0
    4.6604    5.2875   26.0496 H   0  0  0  0  0  0  0  0  0  0  0  0
    5.3478    2.6952   26.0807 C   0  0  0  0  0  0  0  0  0  0  0  0
    4.3311    2.3596   25.7931 H   0  0  0  0  0  0  0  0  0  0  0  0
    5.8259    3.1007   25.1816 H   0  0  0  0  0  0  0  0  0  0  0  0
    6.1101    1.4980   26.6652 C   0  0  2  0  0  0  0  0  0  0  0  0
    7.1895    1.6951   26.6344 H   0  0  0  0  0  0  0  0  0  0  0  0
    6.4240    0.8652   23.5539 S   0  0  0  0  0  0  0  0  0  0  0  0
    8.4566   -1.4669   20.8277 C   0  0  0  0  0  0  0  0  0  0  0  0
    8.5109   -1.6833   19.7676 H   0  0  0  0  0  0  0  0  0  0  0  0
    8.4840   -2.3213   21.5026 H   0  0  0  0  0  0  0  0  0  0  0  0
    9.0271   -0.1671   21.2592 C   0  0  0  0  0  0  0  0  0  0  0  0
    9.4762   -0.0830   22.2462 H   0  0  0  0  0  0  0  0  0  0  0  0
    9.4621    0.4757   20.4938 H   0  0  0  0  0  0  0  0  0  0  0  0
    5.4374    0.8220   20.3148 C   0  0  0  0  0  0  0  0  0  0  0  0
    4.9681    0.7908   21.2964 H   0  0  0  0  0  0  0  0  0  0  0  0
    4.7584    1.3833   19.2315 C   0  0  0  0  0  0  0  0  0  0  0  0
    3.7643    1.7914   19.3531 H   0  0  0  0  0  0  0  0  0  0  0  0
  1  2  1  0
  2  3  2  0
  3  4  1  0
  4  5  1  0
  4  6  2  0
  6  7  1  0
  7  8  1  0
  8  9  2  0
  9 10  1  0
 10 11  2  0
 11 12  1  0
 12 13  1  0
 13 14  1  0
 13 15  1  0
 13 16  1  0
 16 17  1  0
 16 18  1  0
 16 19  1  0
 19 20  1  1
 19 21  1  0
 21 22  1  0
 21 23  1  0
 21 24  1  0
 24 25  1  0
 25 26  1  0
 25 27  1  0
 25 28  1  0
 24 29  1  0
 29 30  1  0
 29 31  1  0
 29 32  1  0
 32 33  1  1
 11 34  1  0
  7 35  1  0
 35 36  1  0
 35 37  1  0
 35 38  1  0
 38 39  1  0
 38 40  1  0
  6 41  1  0
 41 42  1  0
 41 43  2  0
 43 44  1  0
 43  2  1  0
 38  7  1  0
 34  8  1  0
 32 12  1  0
 32 19  1  0
M  END
>  <plip>  (1) 
-0.0

>  <filename>  (1) 
[H][c]1[n][c]([H])[c]([C]2([c]3[n][n][c]([N]4[C]([H])([H])[C]([H])([H])[C@]5([H])[C]([H])([H])[N]([C]([H])([H])[H])[C]([H])([H])[C@]45[H])[s]3)[C]([H])([H])[C]2([H])[H])[c]([H])[c]1[H]

$$$$
