
     RDKit          3D

 31 33  0  0  0  0  0  0  0  0999 V2000
    5.0611    1.8117   16.8534 H   0  0  0  0  0  0  0  0  0  0  0  0
    5.4879    1.3016   17.7134 C   0  0  0  0  0  0  0  0  0  0  0  0
    6.6438    0.6432   17.5067 N   0  0  0  0  0  0  0  0  0  0  0  0
    7.2052    0.0106   18.5459 C   0  0  0  0  0  0  0  0  0  0  0  0
    8.1420   -0.5054   18.3391 H   0  0  0  0  0  0  0  0  0  0  0  0
    6.6461   -0.0122   19.8444 C   0  0  0  0  0  0  0  0  0  0  0  0
    7.2697   -0.6670   20.9079 N   0  0  0  0  0  0  0  0  0  0  0  0
    8.5186   -1.1910   20.7980 N   0  0  0  0  0  0  0  0  0  0  0  0
    8.8328   -1.6962   21.9445 C   0  0  0  0  0  0  0  0  0  0  0  0
   10.4232   -2.3420   22.3107 S   0  0  0  0  0  0  0  0  0  0  0  0
   11.1057   -0.7748   22.8171 C   0  0  0  0  0  0  0  0  0  0  0  0
   11.4615    0.1506   21.8293 C   0  0  0  0  0  0  0  0  0  0  0  0
   11.1597   -0.0518   20.8076 H   0  0  0  0  0  0  0  0  0  0  0  0
   12.1562    1.3069   22.1875 C   0  0  0  0  0  0  0  0  0  0  0  0
   12.4893    1.9833   21.4088 H   0  0  0  0  0  0  0  0  0  0  0  0
   12.4066    1.5932   23.5344 C   0  0  0  0  0  0  0  0  0  0  0  0
   12.9920    2.4704   23.8040 H   0  0  0  0  0  0  0  0  0  0  0  0
   11.9042    0.7329   24.5174 C   0  0  0  0  0  0  0  0  0  0  0  0
   11.9625    0.9894   25.5633 H   0  0  0  0  0  0  0  0  0  0  0  0
   11.2465   -0.4450   24.1665 C   0  0  0  0  0  0  0  0  0  0  0  0
   10.8544   -1.1113   24.9361 H   0  0  0  0  0  0  0  0  0  0  0  0
    7.8010   -1.5195   23.0159 C   0  0  0  0  0  0  0  0  0  0  0  0
    7.4864   -2.4746   23.4501 H   0  0  0  0  0  0  0  0  0  0  0  0
    8.2013   -0.9063   23.8364 H   0  0  0  0  0  0  0  0  0  0  0  0
    6.6891   -0.8088   22.2272 C   0  0  0  0  0  0  0  0  0  0  0  0
    6.4189    0.1709   22.6564 H   0  0  0  0  0  0  0  0  0  0  0  0
    5.7811   -1.4178   22.1572 H   0  0  0  0  0  0  0  0  0  0  0  0
    5.4204    0.6666   20.0340 C   0  0  0  0  0  0  0  0  0  0  0  0
    4.9387    0.6672   21.0103 H   0  0  0  0  0  0  0  0  0  0  0  0
    4.8490    1.3367   18.9538 C   0  0  0  0  0  0  0  0  0  0  0  0
    3.9259    1.8968   19.0693 H   0  0  0  0  0  0  0  0  0  0  0  0
  1  2  1  0
  2  3  2  0
  3  4  1  0
  4  5  1  0
  4  6  2  0
  6  7  1  0
  7  8  1  0
  8  9  2  0
  9 10  1  0
 10 11  1  0
 11 12  2  0
 12 13  1  0
 12 14  1  0
 14 15  1  0
 14 16  2  0
 16 17  1  0
 16 18  1  0
 18 19  1  0
 18 20  2  0
 20 21  1  0
  9 22  1  0
 22 23  1  0
 22 24  1  0
 22 25  1  0
 25 26  1  0
 25 27  1  0
  6 28  1  0
 28 29  1  0
 28 30  2  0
 30 31  1  0
 30  2  1  0
 25  7  1  0
 20 11  1  0
M  END
>  <plip>  (1) 
-0.10714285714285714

>  <filename>  (1) 
[H][c]1[n][c]([H])[c]([N]2[N]=[C]([S][c]3[c]([H])[c]([H])[c]([H])[c]([H])[c]3[H])[C]([H])([H])[C]2([H])[H])[c]([H])[c]1[H]

$$$$
