
     RDKit          3D

 28 29  0  0  0  0  0  0  0  0999 V2000
    5.0532    1.7598   16.9423 H   0  0  0  0  0  0  0  0  0  0  0  0
    5.4586    1.2567   17.8189 C   0  0  0  0  0  0  0  0  0  0  0  0
    6.6063    0.5842   17.6383 N   0  0  0  0  0  0  0  0  0  0  0  0
    7.1255   -0.0224   18.7075 C   0  0  0  0  0  0  0  0  0  0  0  0
    8.0602   -0.5589   18.5472 H   0  0  0  0  0  0  0  0  0  0  0  0
    6.5598    0.0052   19.9834 C   0  0  0  0  0  0  0  0  0  0  0  0
    7.2773   -0.7530   21.0562 C   0  0  2  0  0  0  0  0  0  0  0  0
    6.8443   -0.5009   22.0426 H   0  0  0  0  0  0  0  0  0  0  0  0
    8.6918   -0.5308   20.9122 N   0  0  0  0  0  0  0  0  0  0  0  0
    8.8954    0.4168   21.2031 H   0  0  0  0  0  0  0  0  0  0  0  0
    9.1776   -1.1900   21.5019 H   0  0  0  0  0  0  0  0  0  0  0  0
    7.1646   -2.1481   20.7687 N   0  0  0  0  0  0  0  0  0  0  0  0
    7.7803   -2.2485   19.9776 H   0  0  0  0  0  0  0  0  0  0  0  0
    7.4781   -3.1119   21.7388 C   0  0  0  0  0  0  0  0  0  0  0  0
    7.4404   -4.4568   21.3441 C   0  0  0  0  0  0  0  0  0  0  0  0
    7.1983   -4.6802   20.3082 H   0  0  0  0  0  0  0  0  0  0  0  0
    7.6836   -5.4819   22.2608 C   0  0  0  0  0  0  0  0  0  0  0  0
    7.6350   -6.5287   21.9720 H   0  0  0  0  0  0  0  0  0  0  0  0
    7.9742   -5.1393   23.5848 C   0  0  0  0  0  0  0  0  0  0  0  0
    8.1984   -6.1186   24.4773 F   0  0  0  0  0  0  0  0  0  0  0  0
    8.0220   -3.8139   24.0060 C   0  0  0  0  0  0  0  0  0  0  0  0
    8.2358   -3.5943   25.0513 H   0  0  0  0  0  0  0  0  0  0  0  0
    7.7805   -2.7985   23.0746 C   0  0  0  0  0  0  0  0  0  0  0  0
    7.8384   -1.7605   23.3876 H   0  0  0  0  0  0  0  0  0  0  0  0
    5.3479    0.6745   20.1554 C   0  0  0  0  0  0  0  0  0  0  0  0
    4.8374    0.6802   21.1201 H   0  0  0  0  0  0  0  0  0  0  0  0
    4.7884    1.3176   19.0461 C   0  0  0  0  0  0  0  0  0  0  0  0
    3.8564    1.8711   19.1215 H   0  0  0  0  0  0  0  0  0  0  0  0
  1  2  1  0
  2  3  2  0
  3  4  1  0
  4  5  1  0
  4  6  2  0
  6  7  1  0
  7  8  1  1
  7  9  1  0
  9 10  1  0
  9 11  1  0
  7 12  1  0
 12 13  1  0
 12 14  1  0
 14 15  2  0
 15 16  1  0
 15 17  1  0
 17 18  1  0
 17 19  2  0
 19 20  1  0
 19 21  1  0
 21 22  1  0
 21 23  2  0
 23 24  1  0
  6 25  1  0
 25 26  1  0
 25 27  2  0
 27 28  1  0
 27  2  1  0
 23 14  1  0
M  END
>  <plip>  (1) 
-0.10344827586206896

>  <filename>  (1) 
[H][c]1[n][c]([H])[c]([C@]([H])([N]([H])[H])[N]([H])[c]2[c]([H])[c]([H])[c]([F])[c]([H])[c]2[H])[c]([H])[c]1[H]

$$$$
