
     RDKit          3D

 41 42  0  0  0  0  0  0  0  0999 V2000
   10.2392    5.2667   25.3526 C   0  0  0  0  0  0  0  0  0  0  0  0
    9.7871    4.7923   24.0172 N   0  0  0  0  0  4  0  0  0  0  0  0
    8.2924    4.5741   23.9066 C   0  0  0  0  0  0  0  0  0  0  0  0
    7.8351    3.2953   24.6393 C   0  0  0  0  0  0  0  0  0  0  0  0
    8.4867    2.0871   24.0989 N   0  0  0  0  0  0  0  0  0  0  0  0
    9.3431    1.2488   24.9464 C   0  0  0  0  0  0  0  0  0  0  0  0
   10.4048    1.3347   24.6736 H   0  0  0  0  0  0  0  0  0  0  0  0
    9.0588    0.1918   24.8547 H   0  0  0  0  0  0  0  0  0  0  0  0
    9.2424    1.5341   26.0000 H   0  0  0  0  0  0  0  0  0  0  0  0
    8.1132    1.6980   22.8130 C   0  0  0  0  0  0  0  0  0  0  0  0
    7.0402    2.0582   22.3470 O   0  0  0  0  0  0  0  0  0  0  0  0
    9.0951    0.8551   22.0554 C   0  0  0  0  0  0  0  0  0  0  0  0
   10.4849    0.8886   22.0188 C   0  0  0  0  0  0  0  0  0  0  0  0
   10.9168   -0.2248   21.2664 C   0  0  0  0  0  0  0  0  0  0  0  0
    9.7843   -0.8729   20.8323 C   0  0  0  0  0  0  0  0  0  0  0  0
    8.6760   -0.2146   21.2891 N   0  0  0  0  0  0  0  0  0  0  0  0
    7.2995   -0.6551   21.0305 C   0  0  0  0  0  0  0  0  0  0  0  0
    6.5863    0.0345   19.8767 C   0  0  0  0  0  0  0  0  0  0  0  0
    5.3692    0.6952   20.0838 C   0  0  0  0  0  0  0  0  0  0  0  0
    4.7587    1.3394   19.0062 C   0  0  0  0  0  0  0  0  0  0  0  0
    5.3906    1.3158   17.7606 C   0  0  0  0  0  0  0  0  0  0  0  0
    6.5440    0.6705   17.5362 N   0  0  0  0  0  0  0  0  0  0  0  0
    7.1137    0.0460   18.5734 C   0  0  0  0  0  0  0  0  0  0  0  0
    8.0476   -0.4733   18.3545 H   0  0  0  0  0  0  0  0  0  0  0  0
    4.9558    1.8337   16.9060 H   0  0  0  0  0  0  0  0  0  0  0  0
    3.8234    1.8720   19.1220 H   0  0  0  0  0  0  0  0  0  0  0  0
    4.9322    0.7450   21.0840 H   0  0  0  0  0  0  0  0  0  0  0  0
    6.7129   -0.5041   21.9392 H   0  0  0  0  0  0  0  0  0  0  0  0
    7.3375   -1.7381   20.8621 H   0  0  0  0  0  0  0  0  0  0  0  0
    9.6642   -1.7543   20.2212 H   0  0  0  0  0  0  0  0  0  0  0  0
   11.9363   -0.5643   21.1244 H   0  0  0  0  0  0  0  0  0  0  0  0
   11.1437    1.6384   22.4550 H   0  0  0  0  0  0  0  0  0  0  0  0
    6.7476    3.2042   24.5501 H   0  0  0  0  0  0  0  0  0  0  0  0
    8.0733    3.3771   25.7063 H   0  0  0  0  0  0  0  0  0  0  0  0
    7.7724    5.4379   24.3252 H   0  0  0  0  0  0  0  0  0  0  0  0
    8.0320    4.4827   22.8506 H   0  0  0  0  0  0  0  0  0  0  0  0
   10.0951    5.4618   23.2778 H   0  0  0  0  0  0  0  0  0  0  0  0
   10.2370    3.8706   23.7889 H   0  0  0  0  0  0  0  0  0  0  0  0
    9.8082    4.6655   26.1581 H   0  0  0  0  0  0  0  0  0  0  0  0
    9.9435    6.3046   25.5300 H   0  0  0  0  0  0  0  0  0  0  0  0
   11.3234    5.1911   25.4424 H   0  0  0  0  0  0  0  0  0  0  0  0
  1  2  1  0
  2  3  1  0
  3  4  1  0
  4  5  1  0
  5  6  1  0
  6  7  1  0
  6  8  1  0
  6  9  1  0
  5 10  1  0
 10 11  2  0
 10 12  1  0
 12 13  2  0
 13 14  1  0
 14 15  2  0
 15 16  1  0
 16 17  1  0
 17 18  1  0
 18 19  2  0
 19 20  1  0
 20 21  2  0
 21 22  1  0
 22 23  2  0
 23 24  1  0
 21 25  1  0
 20 26  1  0
 19 27  1  0
 17 28  1  0
 17 29  1  0
 15 30  1  0
 14 31  1  0
 13 32  1  0
  4 33  1  0
  4 34  1  0
  3 35  1  0
  3 36  1  0
  2 37  1  0
  2 38  1  0
  1 39  1  0
  1 40  1  0
  1 41  1  0
 16 12  1  0
 23 18  1  0
M  CHG  1   2   1
M  END
>  <plip>  (1) 
-0.07142857142857142

>  <filename>  (1) 
[H][c]1[n][c]([H])[c]([C]([H])([H])[n]2[c]([H])[c]([H])[c]([H])[c]2[C](=[O])[N]([C]([H])([H])[H])[C]([H])([H])[C]([H])([H])[N+]([H])([H])[C]([H])([H])[H])[c]([H])[c]1[H]

$$$$
