
     RDKit          3D

 30 32  0  0  0  0  0  0  0  0999 V2000
    9.2474   -3.5867   22.9119 O   0  0  0  0  0  0  0  0  0  0  0  0
    9.2980   -2.1787   23.1027 C   0  0  0  0  0  0  0  0  0  0  0  0
   10.6582   -1.5440   22.7755 C   0  0  0  0  0  0  0  0  0  0  0  0
   11.1577   -0.4389   23.4802 C   0  0  0  0  0  0  0  0  0  0  0  0
   12.3893    0.1078   23.0966 C   0  0  0  0  0  0  0  0  0  0  0  0
   13.0651   -0.4744   22.0228 C   0  0  0  0  0  0  0  0  0  0  0  0
   12.4790   -1.5574   21.3640 C   0  0  0  0  0  0  0  0  0  0  0  0
   11.3002   -2.0774   21.7259 N   0  0  0  0  0  0  0  0  0  0  0  0
   12.9662   -2.0287   20.5114 H   0  0  0  0  0  0  0  0  0  0  0  0
   14.0351   -0.1172   21.6878 H   0  0  0  0  0  0  0  0  0  0  0  0
   12.8196    0.9710   23.6081 H   0  0  0  0  0  0  0  0  0  0  0  0
   10.6193   -0.0570   24.3419 H   0  0  0  0  0  0  0  0  0  0  0  0
    8.2518   -1.4050   22.3332 C   0  0  0  0  0  0  0  0  0  0  0  0
    8.0158   -1.2693   20.9882 C   0  0  0  0  0  0  0  0  0  0  0  0
    7.0254   -0.3354   20.9114 N   0  0  0  0  0  0  0  0  0  0  0  0
    6.4268    0.2816   19.7796 C   0  0  0  0  0  0  0  0  0  0  0  0
    5.1960    0.9429   19.8986 C   0  0  0  0  0  0  0  0  0  0  0  0
    4.6514    1.5278   18.7577 C   0  0  0  0  0  0  0  0  0  0  0  0
    5.3487    1.4405   17.5480 C   0  0  0  0  0  0  0  0  0  0  0  0
    6.5428    0.8386   17.4375 N   0  0  0  0  0  0  0  0  0  0  0  0
    7.0718    0.2860   18.5356 C   0  0  0  0  0  0  0  0  0  0  0  0
    8.0647   -0.1461   18.4317 H   0  0  0  0  0  0  0  0  0  0  0  0
    4.9361    1.8736   16.6384 H   0  0  0  0  0  0  0  0  0  0  0  0
    3.7020    2.0482   18.8022 H   0  0  0  0  0  0  0  0  0  0  0  0
    4.7113    1.0015   20.8724 H   0  0  0  0  0  0  0  0  0  0  0  0
    6.6625    0.0524   22.1473 N   0  0  0  0  0  0  0  0  0  0  0  0
    7.3858   -0.5856   22.9983 N   0  0  0  0  0  0  0  0  0  0  0  0
    8.4455   -1.7521   20.1257 H   0  0  0  0  0  0  0  0  0  0  0  0
    9.0638   -1.9887   24.1591 H   0  0  0  0  0  0  0  0  0  0  0  0
   10.0042   -3.8300   22.3446 H   0  0  0  0  0  0  0  0  0  0  0  0
  1  2  1  0
  2  3  1  0
  3  4  2  0
  4  5  1  0
  5  6  2  0
  6  7  1  0
  7  8  2  0
  7  9  1  0
  6 10  1  0
  5 11  1  0
  4 12  1  0
  2 13  1  0
 13 14  2  0
 14 15  1  0
 15 16  1  0
 16 17  2  0
 17 18  1  0
 18 19  2  0
 19 20  1  0
 20 21  2  0
 21 22  1  0
 19 23  1  0
 18 24  1  0
 17 25  1  0
 15 26  1  0
 26 27  2  0
 14 28  1  0
  2 29  1  0
  1 30  1  0
  8  3  1  0
 27 13  1  0
 21 16  1  0
M  END
>  <plip>  (1) 
-0.06896551724137931

>  <filename>  (1) 
[H][O][C]([H])([c]1[n][c]([H])[c]([H])[c]([H])[c]1[H])[c]1[n][n][n](-[c]2[c]([H])[n][c]([H])[c]([H])[c]2[H])[c]1[H]

$$$$
