
     RDKit          3D

 28 29  0  0  0  0  0  0  0  0999 V2000
    8.8450   -4.8075   27.8099 H   0  0  0  0  0  0  0  0  0  0  0  0
    9.3913   -4.4603   27.0835 O   0  0  0  0  0  0  0  0  0  0  0  0
    8.4392   -3.7649   26.4419 C   0  0  0  0  0  0  0  0  0  0  0  0
    7.3257   -3.7419   26.9206 O   0  0  0  0  0  0  0  0  0  0  0  0
    8.8624   -3.1088   25.1786 C   0  0  0  0  0  0  0  0  0  0  0  0
   10.1605   -3.2423   24.6633 C   0  0  0  0  0  0  0  0  0  0  0  0
   10.9019   -3.8327   25.2029 H   0  0  0  0  0  0  0  0  0  0  0  0
   10.4869   -2.6002   23.4669 C   0  0  0  0  0  0  0  0  0  0  0  0
   11.4858   -2.7195   23.0614 H   0  0  0  0  0  0  0  0  0  0  0  0
    9.5438   -1.8423   22.7592 C   0  0  0  0  0  0  0  0  0  0  0  0
    9.8647   -1.3182   21.8587 H   0  0  0  0  0  0  0  0  0  0  0  0
    8.2276   -1.7789   23.2489 C   0  0  0  0  0  0  0  0  0  0  0  0
    6.8414   -1.0932   22.3721 S   0  0  0  0  0  0  0  0  0  0  0  0
    5.9486   -2.1632   21.9724 O   0  0  0  0  0  0  0  0  0  0  0  0
    6.3457    0.0652   23.0960 O   0  0  0  0  0  0  0  0  0  0  0  0
    7.5904   -0.5421   21.0087 O   0  0  0  0  0  0  0  0  0  0  0  0
    6.8054    0.0277   19.9772 C   0  0  0  0  0  0  0  0  0  0  0  0
    7.3020    0.0325   18.6555 C   0  0  0  0  0  0  0  0  0  0  0  0
    8.2400   -0.4579   18.4068 H   0  0  0  0  0  0  0  0  0  0  0  0
    6.6513    0.6144   17.6357 N   0  0  0  0  0  0  0  0  0  0  0  0
    5.4812    1.2219   17.8942 C   0  0  0  0  0  0  0  0  0  0  0  0
    4.9783    1.7078   17.0573 H   0  0  0  0  0  0  0  0  0  0  0  0
    4.9085    1.2408   19.1670 C   0  0  0  0  0  0  0  0  0  0  0  0
    3.9583    1.7334   19.3285 H   0  0  0  0  0  0  0  0  0  0  0  0
    5.5781    0.6350   20.2367 C   0  0  0  0  0  0  0  0  0  0  0  0
    5.1691    0.6396   21.2423 H   0  0  0  0  0  0  0  0  0  0  0  0
    7.8950   -2.3854   24.4688 C   0  0  0  0  0  0  0  0  0  0  0  0
    6.8919   -2.3312   24.8924 H   0  0  0  0  0  0  0  0  0  0  0  0
  1  2  1  0
  2  3  1  0
  3  4  2  0
  3  5  1  0
  5  6  2  0
  6  7  1  0
  6  8  1  0
  8  9  1  0
  8 10  2  0
 10 11  1  0
 10 12  1  0
 12 13  1  0
 13 14  2  0
 13 15  2  0
 13 16  1  0
 16 17  1  0
 17 18  2  0
 18 19  1  0
 18 20  1  0
 20 21  2  0
 21 22  1  0
 21 23  1  0
 23 24  1  0
 23 25  2  0
 25 26  1  0
 12 27  2  0
 27 28  1  0
 27  5  1  0
 25 17  1  0
M  END
>  <plip>  (1) 
-0.03571428571428571

>  <filename>  (1) 
[H][O][C](=[O])[c]1[c]([H])[c]([H])[c]([H])[c]([S](=[O])(=[O])[O][c]2[c]([H])[n][c]([H])[c]([H])[c]2[H])[c]1[H]

$$$$
