
     RDKit          3D

 28 30  0  0  0  0  0  0  0  0999 V2000
    5.2528   -7.0410   20.7366 H   0  0  0  0  0  0  0  0  0  0  0  0
    5.6513   -6.2005   21.2946 C   0  0  0  0  0  0  0  0  0  0  0  0
    5.5550   -4.9479   20.7482 N   0  0  0  0  0  0  0  0  0  0  0  0
    6.1495   -4.0915   21.5153 C   0  0  0  0  0  0  0  0  0  0  0  0
    6.1782   -2.7971   21.0501 N   0  0  0  0  0  0  0  0  0  0  0  0
    5.5909   -2.7339   20.2208 H   0  0  0  0  0  0  0  0  0  0  0  0
    6.5405   -1.6335   21.7541 N   0  0  0  0  0  0  0  0  0  0  0  0
    6.4203   -1.4638   23.0704 C   0  0  0  0  0  0  0  0  0  0  0  0
    7.7366   -3.2955   24.2800 O   0  0  0  0  0  0  0  0  0  0  0  0
    7.0477   -0.2011   23.5336 C   0  0  0  0  0  0  0  0  0  0  0  0
    6.2470    0.5375   23.7055 H   0  0  0  0  0  0  0  0  0  0  0  0
    7.5771   -0.3420   24.4931 H   0  0  0  0  0  0  0  0  0  0  0  0
    8.1789    0.3840   22.2015 S   0  0  0  0  0  0  0  0  0  0  0  0
    7.4207   -0.7273   20.9462 C   0  0  2  0  0  0  0  0  0  0  0  0
    8.1876   -1.3762   20.5096 H   0  0  0  0  0  0  0  0  0  0  0  0
    6.6684   -0.0038   19.8458 C   0  0  0  0  0  0  0  0  0  0  0  0
    7.1849    0.0460   18.5465 C   0  0  0  0  0  0  0  0  0  0  0  0
    8.1210   -0.4600   18.2978 H   0  0  0  0  0  0  0  0  0  0  0  0
    6.5928    0.6815   17.5285 N   0  0  0  0  0  0  0  0  0  0  0  0
    5.4336    1.3130   17.7774 C   0  0  0  0  0  0  0  0  0  0  0  0
    4.9752    1.8341   16.9358 H   0  0  0  0  0  0  0  0  0  0  0  0
    4.8236    1.3133   19.0345 C   0  0  0  0  0  0  0  0  0  0  0  0
    3.8865    1.8403   19.1796 H   0  0  0  0  0  0  0  0  0  0  0  0
    5.4468    0.6411   20.0818 C   0  0  0  0  0  0  0  0  0  0  0  0
    4.9967    0.5989   21.0719 H   0  0  0  0  0  0  0  0  0  0  0  0
    6.8203   -4.7292   23.0027 S   0  0  0  0  0  0  0  0  0  0  0  0
    6.2779   -6.3092   22.4809 C   0  0  0  0  0  0  0  0  0  0  0  0
    6.4613   -7.2241   23.0333 H   0  0  0  0  0  0  0  0  0  0  0  0
  1  2  1  0
  2  3  1  0
  3  4  2  0
  4  5  1  0
  5  6  1  0
  5  7  1  0
  7  8  1  0
  8  9  2  0
  8 10  1  0
 10 11  1  0
 10 12  1  0
 10 13  1  0
 13 14  1  0
 14 15  1  6
 14 16  1  0
 16 17  2  0
 17 18  1  0
 17 19  1  0
 19 20  2  0
 20 21  1  0
 20 22  1  0
 22 23  1  0
 22 24  2  0
 24 25  1  0
  4 26  1  0
 26 27  1  0
 27 28  1  0
 27  2  2  0
 14  7  1  0
 24 16  1  0
M  END
>  <plip>  (1) 
-0.10714285714285714

>  <filename>  (1) 
[H][c]1[n][c]([N]([H])[N]2[C](=[O])[C]([H])([H])[S][C@]2([H])[c]2[c]([H])[n][c]([H])[c]([H])[c]2[H])[s][c]1[H]

$$$$
