
     RDKit          3D

 26 27  0  0  0  0  0  0  0  0999 V2000
    4.9493    1.7878   16.9811 H   0  0  0  0  0  0  0  0  0  0  0  0
    5.4215    1.2943   17.8259 C   0  0  0  0  0  0  0  0  0  0  0  0
    6.5895    0.6717   17.5784 N   0  0  0  0  0  0  0  0  0  0  0  0
    7.1958    0.0695   18.6074 C   0  0  0  0  0  0  0  0  0  0  0  0
    8.1478   -0.4285   18.3967 H   0  0  0  0  0  0  0  0  0  0  0  0
    6.6846    0.0473   19.9311 C   0  0  0  0  0  0  0  0  0  0  0  0
    7.4412   -0.5421   20.9871 N   0  0  0  0  0  0  0  0  0  0  0  0
    7.9381   -1.4067   20.7809 H   0  0  0  0  0  0  0  0  0  0  0  0
    6.8322   -0.9278   22.5387 S   0  0  0  0  0  4  0  0  0  0  0  0
    7.3761   -2.3183   22.6234 O   0  0  0  0  0  0  0  0  0  0  0  0
    7.9280    0.1385   23.5119 C   0  0  0  0  0  0  0  0  0  0  0  0
    9.2789   -0.2226   23.5419 C   0  0  0  0  0  0  0  0  0  0  0  0
    9.6253   -1.0905   22.9842 H   0  0  0  0  0  0  0  0  0  0  0  0
   10.1710    0.5437   24.2850 C   0  0  0  0  0  0  0  0  0  0  0  0
   11.2209    0.2725   24.2949 H   0  0  0  0  0  0  0  0  0  0  0  0
    9.7205    1.6482   25.0152 C   0  0  0  0  0  0  0  0  0  0  0  0
   10.4163    2.2028   25.6323 H   0  0  0  0  0  0  0  0  0  0  0  0
    8.3702    1.9963   24.9967 C   0  0  0  0  0  0  0  0  0  0  0  0
    8.0149    2.8394   25.5815 H   0  0  0  0  0  0  0  0  0  0  0  0
    7.4520    1.2511   24.2361 C   0  0  0  0  0  0  0  0  0  0  0  0
    6.0581    1.6356   24.2344 C   0  0  0  0  0  0  0  0  0  0  0  0
    4.9373    1.9305   24.2692 N   0  0  0  0  0  0  0  0  0  0  0  0
    5.4483    0.6689   20.1580 C   0  0  0  0  0  0  0  0  0  0  0  0
    5.0185    0.6587   21.1584 H   0  0  0  0  0  0  0  0  0  0  0  0
    4.8170    1.3053   19.0862 C   0  0  0  0  0  0  0  0  0  0  0  0
    3.8765    1.8204   19.2315 H   0  0  0  0  0  0  0  0  0  0  0  0
  1  2  1  0
  2  3  2  0
  3  4  1  0
  4  5  1  0
  4  6  2  0
  6  7  1  0
  7  8  1  0
  9  7  1  6
  9 10  2  0
  9 11  1  0
 11 12  2  0
 12 13  1  0
 12 14  1  0
 14 15  1  0
 14 16  2  0
 16 17  1  0
 16 18  1  0
 18 19  1  0
 18 20  2  0
 20 21  1  0
 21 22  3  0
  6 23  1  0
 23 24  1  0
 23 25  2  0
 25 26  1  0
 25  2  1  0
 20 11  1  0
M  END
>  <plip>  (1) 
-0.10714285714285714

>  <filename>  (1) 
[H][c]1[n][c]([H])[c]([N]([H])[S@@](=[O])[c]2[c]([H])[c]([H])[c]([H])[c]([H])[c]2[C]#[N])[c]([H])[c]1[H]

$$$$
