
     RDKit          3D

 29 30  0  0  0  0  0  0  0  0999 V2000
    5.0498    1.7366   17.0058 H   0  0  0  0  0  0  0  0  0  0  0  0
    5.4923    1.2553   17.8798 C   0  0  0  0  0  0  0  0  0  0  0  0
    6.6427    0.5923   17.6858 N   0  0  0  0  0  0  0  0  0  0  0  0
    7.2000   -0.0089   18.7437 C   0  0  0  0  0  0  0  0  0  0  0  0
    8.1097   -0.5810   18.5682 H   0  0  0  0  0  0  0  0  0  0  0  0
    6.6607    0.0511   20.0332 C   0  0  0  0  0  0  0  0  0  0  0  0
    7.4609   -0.9354   21.2927 S   0  0  0  0  0  4  0  0  0  0  0  0
    8.3435   -1.8967   20.5427 O   0  0  0  0  0  0  0  0  0  0  0  0
    8.6814    0.2476   21.9521 C   0  0  0  0  0  0  0  0  0  0  0  0
    9.1165   -0.3247   22.7771 H   0  0  0  0  0  0  0  0  0  0  0  0
    8.1998    1.1497   22.3482 H   0  0  0  0  0  0  0  0  0  0  0  0
    9.7746    0.5170   20.9091 C   0  0  0  0  0  0  0  0  0  0  0  0
    9.3668    1.0353   20.0362 H   0  0  0  0  0  0  0  0  0  0  0  0
   10.1703   -0.4441   20.5626 H   0  0  0  0  0  0  0  0  0  0  0  0
   10.8638    1.3097   21.4298 N   0  0  0  0  0  0  0  0  0  0  0  0
   10.8271    2.6952   21.4567 N   0  0  0  0  0  0  0  0  0  0  0  0
   11.9389    2.9889   22.0192 C   0  0  0  0  0  0  0  0  0  0  0  0
   12.3441    4.2138   22.2957 O   0  0  0  0  0  0  0  0  0  0  0  0
   13.6176    4.4242   22.9165 C   0  0  0  0  0  0  0  0  0  0  0  0
   14.4382    4.0920   22.2720 H   0  0  0  0  0  0  0  0  0  0  0  0
   13.6854    5.4998   23.0707 H   0  0  0  0  0  0  0  0  0  0  0  0
   13.6816    3.9213   23.8839 H   0  0  0  0  0  0  0  0  0  0  0  0
   12.7174    1.9456   22.3789 O   0  0  0  0  0  0  0  0  0  0  0  0
   12.0073    0.8273   21.9802 C   0  0  0  0  0  0  0  0  0  0  0  0
   12.3791   -0.3063   22.1163 O   0  0  0  0  0  0  0  0  0  0  0  0
    5.4575    0.7276   20.2369 C   0  0  0  0  0  0  0  0  0  0  0  0
    4.9986    0.7745   21.2242 H   0  0  0  0  0  0  0  0  0  0  0  0
    4.8637    1.3295   19.1252 C   0  0  0  0  0  0  0  0  0  0  0  0
    3.9190    1.8466   19.2174 H   0  0  0  0  0  0  0  0  0  0  0  0
  1  2  1  0
  2  3  2  0
  3  4  1  0
  4  5  1  0
  4  6  2  0
  6  7  1  0
  7  8  2  0
  7  9  1  6
  9 10  1  0
  9 11  1  0
  9 12  1  0
 12 13  1  0
 12 14  1  0
 12 15  1  0
 15 16  1  0
 16 17  2  0
 17 18  1  0
 18 19  1  0
 19 20  1  0
 19 21  1  0
 19 22  1  0
 17 23  1  0
 23 24  1  0
 24 25  2  0
  6 26  1  0
 26 27  1  0
 26 28  2  0
 28 29  1  0
 28  2  1  0
 24 15  1  0
M  END
>  <plip>  (1) 
-0.06896551724137931

>  <filename>  (1) 
[H][c]1[n][c]([H])[c]([S@](=[O])[C]([H])([H])[C]([H])([H])[n]2[n][c]([O][C]([H])([H])[H])[o][c]2=[O])[c]([H])[c]1[H]

$$$$
