
     RDKit          3D

 35 36  0  0  0  0  0  0  0  0999 V2000
    8.8238   -3.1578   22.1362 H   0  0  0  0  0  0  0  0  0  0  0  0
    8.3943   -2.1868   21.9288 C   0  0  0  0  0  0  0  0  0  0  0  0
    8.4415   -1.1501   22.8048 N   0  0  0  0  0  0  0  0  0  0  0  0
    7.8030   -0.1965   22.1562 C   0  0  0  0  0  0  0  0  0  0  0  0
    7.6908    1.2290   22.5703 C   0  0  0  0  0  0  0  0  0  0  0  0
    6.6487    1.5523   22.5126 H   0  0  0  0  0  0  0  0  0  0  0  0
    7.9663    1.2599   23.6264 H   0  0  0  0  0  0  0  0  0  0  0  0
    8.5703    2.1786   21.7288 C   0  0  0  0  0  0  0  0  0  0  0  0
    8.1748    2.2128   20.7052 H   0  0  0  0  0  0  0  0  0  0  0  0
    8.4736    3.1954   22.1317 H   0  0  0  0  0  0  0  0  0  0  0  0
   10.0542    1.7919   21.6974 C   0  0  0  0  0  0  0  0  0  0  0  0
   10.1587    0.7791   21.2882 H   0  0  0  0  0  0  0  0  0  0  0  0
   10.5737    2.4518   20.9926 H   0  0  0  0  0  0  0  0  0  0  0  0
   10.7418    1.8365   23.0657 C   0  0  0  0  0  0  0  0  0  0  0  0
   10.2352    1.1476   23.7520 H   0  0  0  0  0  0  0  0  0  0  0  0
   10.6203    2.8394   23.4951 H   0  0  0  0  0  0  0  0  0  0  0  0
   12.2341    1.5060   23.0321 C   0  0  0  0  0  0  0  0  0  0  0  0
   12.3812    0.5538   22.5038 H   0  0  0  0  0  0  0  0  0  0  0  0
   12.6044    1.3392   24.0492 H   0  0  0  0  0  0  0  0  0  0  0  0
   13.0748    2.5954   22.3781 C   0  0  0  0  0  0  0  0  0  0  0  0
   12.7836    2.7225   21.3301 H   0  0  0  0  0  0  0  0  0  0  0  0
   14.1429    2.3665   22.4603 H   0  0  0  0  0  0  0  0  0  0  0  0
   12.9272    3.5755   22.8387 H   0  0  0  0  0  0  0  0  0  0  0  0
    7.3781   -0.6604   20.9413 N   0  0  0  0  0  0  0  0  0  0  0  0
    6.6568    0.0092   19.9112 C   0  0  0  0  0  0  0  0  0  0  0  0
    7.1699    0.0375   18.6019 C   0  0  0  0  0  0  0  0  0  0  0  0
    8.1175   -0.4410   18.3743 H   0  0  0  0  0  0  0  0  0  0  0  0
    6.5685    0.6670   17.5855 N   0  0  0  0  0  0  0  0  0  0  0  0
    5.4046    1.2923   17.8384 C   0  0  0  0  0  0  0  0  0  0  0  0
    4.9307    1.7869   16.9919 H   0  0  0  0  0  0  0  0  0  0  0  0
    4.8119    1.3074   19.1043 C   0  0  0  0  0  0  0  0  0  0  0  0
    3.8805    1.8357   19.2562 H   0  0  0  0  0  0  0  0  0  0  0  0
    5.4436    0.6576   20.1720 C   0  0  0  0  0  0  0  0  0  0  0  0
    5.0066    0.6286   21.1725 H   0  0  0  0  0  0  0  0  0  0  0  0
    7.7840   -1.9445   20.7872 N   0  0  0  0  0  0  0  0  0  0  0  0
  1  2  1  0
  2  3  1  0
  3  4  2  0
  4  5  1  0
  5  6  1  0
  5  7  1  0
  5  8  1  0
  8  9  1  0
  8 10  1  0
  8 11  1  0
 11 12  1  0
 11 13  1  0
 11 14  1  0
 14 15  1  0
 14 16  1  0
 14 17  1  0
 17 18  1  0
 17 19  1  0
 17 20  1  0
 20 21  1  0
 20 22  1  0
 20 23  1  0
  4 24  1  0
 24 25  1  0
 25 26  2  0
 26 27  1  0
 26 28  1  0
 28 29  2  0
 29 30  1  0
 29 31  1  0
 31 32  1  0
 31 33  2  0
 33 34  1  0
 24 35  1  0
 35  2  2  0
 33 25  1  0
M  END
>  <plip>  (1) 
-0.0

>  <filename>  (1) 
[H][c]1[n][c]([C]([H])([H])[C]([H])([H])[C]([H])([H])[C]([H])([H])[C]([H])([H])[C]([H])([H])[H])[n](-[c]2[c]([H])[n][c]([H])[c]([H])[c]2[H])[n]1

$$$$
