
     RDKit          3D

 33 34  0  0  0  0  0  0  0  0999 V2000
    5.0781    1.7473   17.0284 H   0  0  0  0  0  0  0  0  0  0  0  0
    5.5111    1.2276   17.8811 C   0  0  0  0  0  0  0  0  0  0  0  0
    6.6616    0.5806   17.6471 N   0  0  0  0  0  0  0  0  0  0  0  0
    7.2277   -0.0666   18.6703 C   0  0  0  0  0  0  0  0  0  0  0  0
    8.1621   -0.5792   18.4561 H   0  0  0  0  0  0  0  0  0  0  0  0
    6.6773   -0.1082   19.9559 C   0  0  0  0  0  0  0  0  0  0  0  0
    7.3661   -0.8259   21.0457 C   0  0  0  0  0  0  0  0  0  0  0  0
    7.0280   -0.7932   22.2071 O   0  0  0  0  0  0  0  0  0  0  0  0
    8.4487   -1.5184   20.6194 O   0  0  0  0  0  0  0  0  0  0  0  0
    9.2368   -2.1191   21.6343 C   0  0  0  0  0  0  0  0  0  0  0  0
    9.4234   -1.4022   22.4542 H   0  0  0  0  0  0  0  0  0  0  0  0
   10.1897   -2.3770   21.1508 H   0  0  0  0  0  0  0  0  0  0  0  0
    8.5111   -3.2767   22.0747 N   0  0  0  0  0  0  0  0  0  0  0  0
    7.4976   -3.1433   22.0339 H   0  0  0  0  0  0  0  0  0  0  0  0
    8.8934   -3.9948   23.1843 C   0  0  0  0  0  0  0  0  0  0  0  0
   10.1908   -3.9123   23.7260 C   0  0  0  0  0  0  0  0  0  0  0  0
   10.9155   -3.2371   23.2889 H   0  0  0  0  0  0  0  0  0  0  0  0
   10.5834   -4.7371   24.7778 C   0  0  0  0  0  0  0  0  0  0  0  0
   11.6004   -4.7050   25.1570 H   0  0  0  0  0  0  0  0  0  0  0  0
    9.6644   -5.6240   25.3432 C   0  0  0  0  0  0  0  0  0  0  0  0
    9.9560   -6.2808   26.1548 H   0  0  0  0  0  0  0  0  0  0  0  0
    8.3628   -5.6788   24.8537 C   0  0  0  0  0  0  0  0  0  0  0  0
    7.6287   -6.3183   25.3432 H   0  0  0  0  0  0  0  0  0  0  0  0
    7.9583   -4.8889   23.7584 C   0  0  0  0  0  0  0  0  0  0  0  0
    6.5760   -4.9313   23.2045 C   0  0  0  0  0  0  0  0  0  0  0  0
    6.0374   -4.0499   22.5453 O   0  0  0  0  0  0  0  0  0  0  0  0
    5.8407   -6.0595   23.4481 N   0  0  0  0  0  0  0  0  0  0  0  0
    5.0279   -6.0260   22.8492 H   0  0  0  0  0  0  0  0  0  0  0  0
    6.3743   -6.9133   23.4324 H   0  0  0  0  0  0  0  0  0  0  0  0
    5.4753    0.5813   20.1948 C   0  0  0  0  0  0  0  0  0  0  0  0
    5.0330    0.5798   21.1920 H   0  0  0  0  0  0  0  0  0  0  0  0
    4.8811    1.2543   19.1308 C   0  0  0  0  0  0  0  0  0  0  0  0
    3.9586    1.8109   19.2494 H   0  0  0  0  0  0  0  0  0  0  0  0
  1  2  1  0
  2  3  2  0
  3  4  1  0
  4  5  1  0
  4  6  2  0
  6  7  1  0
  7  8  2  0
  7  9  1  0
  9 10  1  0
 10 11  1  0
 10 12  1  0
 10 13  1  0
 13 14  1  0
 13 15  1  0
 15 16  2  0
 16 17  1  0
 16 18  1  0
 18 19  1  0
 18 20  2  0
 20 21  1  0
 20 22  1  0
 22 23  1  0
 22 24  2  0
 24 25  1  0
 25 26  2  0
 25 27  1  0
 27 28  1  0
 27 29  1  0
  6 30  1  0
 30 31  1  0
 30 32  2  0
 32 33  1  0
 32  2  1  0
 24 15  1  0
M  END
>  <plip>  (1) 
-0.13333333333333333

>  <filename>  (1) 
[H][c]1[n][c]([H])[c]([C](=[O])[O][C]([H])([H])[N]([H])[c]2[c]([H])[c]([H])[c]([H])[c]([H])[c]2[C](=[O])[N]([H])[H])[c]([H])[c]1[H]

$$$$
