
     RDKit          3D

 35 36  0  0  0  0  0  0  0  0999 V2000
    8.0447    0.3557   21.9419 C   0  0  0  0  0  0  0  0  0  0  0  0
    7.2729   -0.7151   21.1797 C   0  0  1  0  0  0  0  0  0  0  0  0
    6.3428   -1.3920   22.0816 N   0  0  0  0  0  0  0  0  0  0  0  0
    5.7233   -2.6037   21.7630 C   0  0  0  0  0  0  0  0  0  0  0  0
    5.9996   -3.0241   20.6319 O   0  0  0  0  0  0  0  0  0  0  0  0
    4.7669   -3.4321   22.6316 C   0  0  0  0  0  0  0  0  0  0  0  0
    4.3950   -3.1918   23.7836 O   0  0  0  0  0  0  0  0  0  0  0  0
    4.3019   -4.6063   22.0761 N   0  0  0  0  0  0  0  0  0  0  0  0
    3.2975   -5.4675   22.4719 C   0  0  0  0  0  0  0  0  0  0  0  0
    2.1687   -5.0945   23.1974 C   0  0  0  0  0  0  0  0  0  0  0  0
    1.0669   -5.9485   23.2408 C   0  0  0  0  0  0  0  0  0  0  0  0
    1.0992   -7.1476   22.5137 C   0  0  0  0  0  0  0  0  0  0  0  0
    2.2558   -7.5435   21.8245 C   0  0  0  0  0  0  0  0  0  0  0  0
    2.1138   -9.0969   20.7053 Br  0  0  0  0  0  0  0  0  0  0  0  0
    3.3982   -6.7125   21.8681 C   0  0  0  0  0  0  0  0  0  0  0  0
    4.9364   -6.9946   21.0012 Cl  0  0  0  0  0  0  0  0  0  0  0  0
    0.2023   -7.7518   22.4317 H   0  0  0  0  0  0  0  0  0  0  0  0
    0.1889   -5.6300   23.7980 H   0  0  0  0  0  0  0  0  0  0  0  0
    2.1321   -4.1194   23.6628 H   0  0  0  0  0  0  0  0  0  0  0  0
    4.7377   -4.8661   21.1924 H   0  0  0  0  0  0  0  0  0  0  0  0
    6.0394   -0.8992   22.9175 H   0  0  0  0  0  0  0  0  0  0  0  0
    6.5637   -0.0537   20.0242 C   0  0  0  0  0  0  0  0  0  0  0  0
    5.3870    0.6880   20.1790 C   0  0  0  0  0  0  0  0  0  0  0  0
    4.8661    1.3284   19.0540 C   0  0  0  0  0  0  0  0  0  0  0  0
    5.5138    1.2133   17.8202 C   0  0  0  0  0  0  0  0  0  0  0  0
    6.6440    0.5026   17.6693 N   0  0  0  0  0  0  0  0  0  0  0  0
    7.1533   -0.1099   18.7524 C   0  0  0  0  0  0  0  0  0  0  0  0
    8.0830   -0.6586   18.6320 H   0  0  0  0  0  0  0  0  0  0  0  0
    5.0958    1.7201   16.9548 H   0  0  0  0  0  0  0  0  0  0  0  0
    3.9687    1.9312   19.1205 H   0  0  0  0  0  0  0  0  0  0  0  0
    4.9052    0.7804   21.1515 H   0  0  0  0  0  0  0  0  0  0  0  0
    7.9946   -1.4487   20.7932 H   0  0  0  0  0  0  0  0  0  0  0  0
    8.6332   -0.0932   22.7461 H   0  0  0  0  0  0  0  0  0  0  0  0
    7.3616    1.0913   22.3761 H   0  0  0  0  0  0  0  0  0  0  0  0
    8.7250    0.8781   21.2622 H   0  0  0  0  0  0  0  0  0  0  0  0
  1  2  1  0
  2  3  1  0
  3  4  1  0
  4  5  2  0
  4  6  1  0
  6  7  2  0
  6  8  1  0
  8  9  1  0
  9 10  2  0
 10 11  1  0
 11 12  2  0
 12 13  1  0
 13 14  1  0
 13 15  2  0
 15 16  1  0
 12 17  1  0
 11 18  1  0
 10 19  1  0
  8 20  1  0
  3 21  1  0
  2 22  1  0
 22 23  2  0
 23 24  1  0
 24 25  2  0
 25 26  1  0
 26 27  2  0
 27 28  1  0
 25 29  1  0
 24 30  1  0
 23 31  1  0
  2 32  1  6
  1 33  1  0
  1 34  1  0
  1 35  1  0
 15  9  1  0
 27 22  1  0
M  END
>  <plip>  (1) 
-0.10344827586206896

>  <filename>  (1) 
[H][c]1[n][c]([H])[c]([C@]([H])([N]([H])[C](=[O])[C](=[O])[N]([H])[c]2[c]([H])[c]([H])[c]([H])[c]([Br])[c]2[Cl])[C]([H])([H])[H])[c]([H])[c]1[H]

$$$$
