
     RDKit          3D

 46 49  0  0  0  0  0  0  0  0999 V2000
    7.0663    2.2703   29.1508 C   0  0  0  0  0  0  0  0  0  0  0  0
    7.2396    1.6024   27.8872 N   0  0  0  0  0  0  0  0  0  0  0  0
    7.9488    0.4632   27.7781 N   0  0  0  0  0  0  0  0  0  0  0  0
    7.9561    0.0801   26.5470 N   0  0  0  0  0  0  0  0  0  0  0  0
    7.2302    0.9796   25.8096 C   0  0  0  0  0  0  0  0  0  0  0  0
    6.9248    1.0572   24.4353 C   0  0  0  0  0  0  0  0  0  0  0  0
    7.3487   -0.0219   23.5189 C   0  0  0  0  0  0  0  0  0  0  0  0
    7.4119   -1.1979   23.8432 O   0  0  0  0  0  0  0  0  0  0  0  0
    7.5848    0.3983   22.2090 N   0  0  0  0  0  0  0  0  0  0  0  0
    8.5092    1.4876   21.8950 C   0  0  0  0  0  0  0  0  0  0  0  0
    9.9767    1.2021   22.2586 C   0  0  0  0  0  0  0  0  0  0  0  0
   10.4599   -0.2452   22.0272 C   0  0  0  0  0  0  0  0  0  0  0  0
    9.9090   -0.9882   20.7964 C   0  0  0  0  0  0  0  0  0  0  0  0
    8.4723   -1.5184   20.8966 C   0  0  0  0  0  0  0  0  0  0  0  0
    7.2948   -0.5805   21.1596 C   0  0  0  0  0  0  0  0  0  0  0  0
    6.6435    0.0634   19.9442 C   0  0  0  0  0  0  0  0  0  0  0  0
    5.3998    0.6872   20.1356 C   0  0  0  0  0  0  0  0  0  0  0  0
    4.7790    1.3204   19.0625 C   0  0  0  0  0  0  0  0  0  0  0  0
    5.4172    1.2951   17.8174 C   0  0  0  0  0  0  0  0  0  0  0  0
    6.5813    0.6723   17.5963 N   0  0  0  0  0  0  0  0  0  0  0  0
    7.1720    0.0723   18.6430 C   0  0  0  0  0  0  0  0  0  0  0  0
    8.1101   -0.4333   18.4060 H   0  0  0  0  0  0  0  0  0  0  0  0
    4.9746    1.7958   16.9606 H   0  0  0  0  0  0  0  0  0  0  0  0
    3.8371    1.8449   19.1814 H   0  0  0  0  0  0  0  0  0  0  0  0
    4.9331    0.6721   21.1245 H   0  0  0  0  0  0  0  0  0  0  0  0
    6.5010   -1.2198   21.5780 H   0  0  0  0  0  0  0  0  0  0  0  0
    8.4294   -2.2890   21.6707 H   0  0  0  0  0  0  0  0  0  0  0  0
    8.2125   -2.0163   19.9745 H   0  0  0  0  0  0  0  0  0  0  0  0
   10.5206   -1.8857   20.6650 H   0  0  0  0  0  0  0  0  0  0  0  0
   10.0155   -0.3927   19.8810 H   0  0  0  0  0  0  0  0  0  0  0  0
   10.2507   -0.8534   22.9203 H   0  0  0  0  0  0  0  0  0  0  0  0
   11.5535   -0.2193   21.9638 H   0  0  0  0  0  0  0  0  0  0  0  0
   10.5727    1.9103   21.6674 H   0  0  0  0  0  0  0  0  0  0  0  0
   10.1704    1.4605   23.3080 H   0  0  0  0  0  0  0  0  0  0  0  0
    8.4346    1.6624   20.8176 H   0  0  0  0  0  0  0  0  0  0  0  0
    8.1915    2.4216   22.3734 H   0  0  0  0  0  0  0  0  0  0  0  0
    6.1509    2.1423   24.0011 C   0  0  0  0  0  0  0  0  0  0  0  0
    5.6914    3.1319   24.8900 C   0  0  0  0  0  0  0  0  0  0  0  0
    5.9881    3.0860   26.2467 C   0  0  0  0  0  0  0  0  0  0  0  0
    6.7644    1.9910   26.6770 C   0  0  0  0  0  0  0  0  0  0  0  0
    5.6335    3.8440   26.9398 H   0  0  0  0  0  0  0  0  0  0  0  0
    5.1018    3.9479   24.4843 H   0  0  0  0  0  0  0  0  0  0  0  0
    5.9203    2.2360   22.9401 H   0  0  0  0  0  0  0  0  0  0  0  0
    7.5484    3.2499   29.1245 H   0  0  0  0  0  0  0  0  0  0  0  0
    6.0015    2.4003   29.3600 H   0  0  0  0  0  0  0  0  0  0  0  0
    7.5206    1.6551   29.9271 H   0  0  0  0  0  0  0  0  0  0  0  0
  1  2  1  0
  2  3  1  0
  3  4  2  0
  4  5  1  0
  5  6  2  0
  6  7  1  0
  7  8  2  0
  7  9  1  0
  9 10  1  0
 10 11  1  0
 11 12  1  0
 12 13  1  0
 13 14  1  0
 14 15  1  0
 15 16  1  0
 16 17  2  0
 17 18  1  0
 18 19  2  0
 19 20  1  0
 20 21  2  0
 21 22  1  0
 19 23  1  0
 18 24  1  0
 17 25  1  0
 15 26  1  0
 14 27  1  0
 14 28  1  0
 13 29  1  0
 13 30  1  0
 12 31  1  0
 12 32  1  0
 11 33  1  0
 11 34  1  0
 10 35  1  0
 10 36  1  0
  6 37  1  0
 37 38  2  0
 38 39  1  0
 39 40  2  0
 39 41  1  0
 38 42  1  0
 37 43  1  0
  1 44  1  0
  1 45  1  0
  1 46  1  0
 40  2  1  0
 40  5  1  0
 15  9  1  0
 21 16  1  0
M  END
>  <plip>  (1) 
-0.03571428571428571

>  <filename>  (1) 
[H][c]1[n][c]([H])[c]([C]2([H])[N]([C](=[O])[c]3[c]([H])[c]([H])[c]([H])[c]4[c]3[n][n][n]4[C]([H])([H])[H])[C]([H])([H])[C]([H])([H])[C]([H])([H])[C]([H])([H])[C]2([H])[H])[c]([H])[c]1[H]

$$$$
