
     RDKit          3D

 29 31  0  0  0  0  0  0  0  0999 V2000
    5.0169    1.8265   16.9334 H   0  0  0  0  0  0  0  0  0  0  0  0
    5.4646    1.3345   17.7955 C   0  0  0  0  0  0  0  0  0  0  0  0
    6.6595    0.7596   17.5979 N   0  0  0  0  0  0  0  0  0  0  0  0
    7.2444    0.1535   18.6403 C   0  0  0  0  0  0  0  0  0  0  0  0
    8.2110   -0.3079   18.4369 H   0  0  0  0  0  0  0  0  0  0  0  0
    6.6550    0.0594   19.9121 C   0  0  0  0  0  0  0  0  0  0  0  0
    7.2740   -0.7363   21.0470 C   0  0  1  0  0  0  0  0  0  0  0  0
    6.7081   -0.5417   21.9692 H   0  0  0  0  0  0  0  0  0  0  0  0
    7.2269   -2.2877   20.9164 C   0  0  0  0  0  0  0  0  0  0  0  0
    6.2997   -3.0276   20.7138 O   0  0  0  0  0  0  0  0  0  0  0  0
    8.5079   -2.6814   21.1516 N   0  0  0  0  0  0  0  0  0  0  0  0
    8.8185   -3.6269   21.1574 H   0  0  0  0  0  0  0  0  0  0  0  0
    9.4316   -1.6769   21.2814 C   0  0  0  0  0  0  0  0  0  0  0  0
   10.5955   -1.8803   21.4451 O   0  0  0  0  0  0  0  0  0  0  0  0
    8.7223   -0.4807   21.2347 N   0  0  0  0  0  0  0  0  0  0  0  0
    9.4125    0.7245   21.4250 C   0  0  0  0  0  0  0  0  0  0  0  0
   10.5984    0.7937   21.1799 O   0  0  0  0  0  0  0  0  0  0  0  0
    8.6868    1.9451   21.9200 C   0  0  0  0  0  0  0  0  0  0  0  0
    7.3319    1.9660   22.1507 O   0  0  0  0  0  0  0  0  0  0  0  0
    7.0007    3.2372   22.4675 C   0  0  0  0  0  0  0  0  0  0  0  0
    5.9507    3.4247   22.6310 H   0  0  0  0  0  0  0  0  0  0  0  0
    8.1003    4.0258   22.4847 C   0  0  0  0  0  0  0  0  0  0  0  0
    8.1100    5.0850   22.6886 H   0  0  0  0  0  0  0  0  0  0  0  0
    9.1988    3.1923   22.1419 C   0  0  0  0  0  0  0  0  0  0  0  0
   10.2380    3.4801   22.0315 H   0  0  0  0  0  0  0  0  0  0  0  0
    5.4059    0.6677   20.0976 C   0  0  0  0  0  0  0  0  0  0  0  0
    4.9205    0.6379   21.0750 H   0  0  0  0  0  0  0  0  0  0  0  0
    4.8000    1.3198   19.0246 C   0  0  0  0  0  0  0  0  0  0  0  0
    3.8405    1.8144   19.1251 H   0  0  0  0  0  0  0  0  0  0  0  0
  1  2  1  0
  2  3  2  0
  3  4  1  0
  4  5  1  0
  4  6  2  0
  6  7  1  0
  7  8  1  1
  7  9  1  0
  9 10  2  0
  9 11  1  0
 11 12  1  0
 11 13  1  0
 13 14  2  0
 13 15  1  0
 15 16  1  0
 16 17  2  0
 16 18  1  0
 18 19  1  0
 19 20  1  0
 20 21  1  0
 20 22  2  0
 22 23  1  0
 22 24  1  0
 24 25  1  0
  6 26  1  0
 26 27  1  0
 26 28  2  0
 28 29  1  0
 28  2  1  0
 15  7  1  0
 24 18  2  0
M  END
>  <plip>  (1) 
-0.10344827586206896

>  <filename>  (1) 
[H][c]1[n][c]([H])[c]([C@@]2([H])[C](=[O])[N]([H])[C](=[O])[N]2[C](=[O])[c]2[o][c]([H])[c]([H])[c]2[H])[c]([H])[c]1[H]

$$$$
