
     RDKit          3D

 34 34  0  0  0  0  0  0  0  0999 V2000
    4.9407    1.8106   16.9797 H   0  0  0  0  0  0  0  0  0  0  0  0
    5.4014    1.2966   17.8187 C   0  0  0  0  0  0  0  0  0  0  0  0
    6.5584    0.6715   17.5560 N   0  0  0  0  0  0  0  0  0  0  0  0
    7.1715    0.0494   18.5714 C   0  0  0  0  0  0  0  0  0  0  0  0
    8.1244   -0.4147   18.3260 H   0  0  0  0  0  0  0  0  0  0  0  0
    6.6717   -0.0173   19.8924 C   0  0  0  0  0  0  0  0  0  0  0  0
    7.3593   -0.6724   20.9163 N   0  0  0  0  0  0  0  0  0  0  0  0
    6.6815   -0.9071   22.1207 N   0  0  0  0  0  0  0  0  0  0  0  0
    6.7930   -1.9035   22.3608 H   0  0  0  0  0  0  0  0  0  0  0  0
    7.2702   -0.0967   23.1438 N   0  0  0  0  0  0  0  0  0  0  0  0
    7.3062    0.8341   22.7130 H   0  0  0  0  0  0  0  0  0  0  0  0
    6.4348   -0.1174   24.3548 C   0  0  0  0  0  0  0  0  0  0  0  0
    5.3972    0.2177   24.1808 H   0  0  0  0  0  0  0  0  0  0  0  0
    6.3774   -1.1620   24.6969 H   0  0  0  0  0  0  0  0  0  0  0  0
    7.0262    0.7243   25.4939 C   0  0  0  0  0  0  0  0  0  0  0  0
    7.0877    1.7762   25.1716 H   0  0  0  0  0  0  0  0  0  0  0  0
    8.0528    0.3844   25.6933 H   0  0  0  0  0  0  0  0  0  0  0  0
    6.2713    0.6839   26.7538 N   0  0  0  0  0  0  0  0  0  0  0  0
    4.9351    1.2541   26.6610 C   0  0  0  0  0  0  0  0  0  0  0  0
    4.9860    2.2191   26.1376 H   0  0  0  0  0  0  0  0  0  0  0  0
    4.2080    0.6127   26.1220 H   0  0  0  0  0  0  0  0  0  0  0  0
    4.5451    1.4282   27.6725 H   0  0  0  0  0  0  0  0  0  0  0  0
    6.2765   -0.6197   27.4024 C   0  0  0  0  0  0  0  0  0  0  0  0
    5.9368   -0.5096   28.4408 H   0  0  0  0  0  0  0  0  0  0  0  0
    5.6246   -1.3688   26.9080 H   0  0  0  0  0  0  0  0  0  0  0  0
    7.3005   -1.0179   27.4128 H   0  0  0  0  0  0  0  0  0  0  0  0
    8.7525   -1.0657   20.8241 C   0  0  0  0  0  0  0  0  0  0  0  0
    9.3860   -0.2217   20.5207 H   0  0  0  0  0  0  0  0  0  0  0  0
    8.9014   -1.8671   20.0898 H   0  0  0  0  0  0  0  0  0  0  0  0
    9.0692   -1.4189   21.8094 H   0  0  0  0  0  0  0  0  0  0  0  0
    5.4405    0.6323   20.1388 C   0  0  0  0  0  0  0  0  0  0  0  0
    5.0147    0.5854   21.1391 H   0  0  0  0  0  0  0  0  0  0  0  0
    4.8123    1.3030   19.0886 C   0  0  0  0  0  0  0  0  0  0  0  0
    3.8786    1.8354   19.2473 H   0  0  0  0  0  0  0  0  0  0  0  0
  1  2  1  0
  2  3  2  0
  3  4  1  0
  4  5  1  0
  4  6  2  0
  6  7  1  0
  7  8  1  0
  8  9  1  0
  8 10  1  0
 10 11  1  0
 10 12  1  0
 12 13  1  0
 12 14  1  0
 12 15  1  0
 15 16  1  0
 15 17  1  0
 15 18  1  0
 18 19  1  0
 19 20  1  0
 19 21  1  0
 19 22  1  0
 18 23  1  0
 23 24  1  0
 23 25  1  0
 23 26  1  0
  7 27  1  0
 27 28  1  0
 27 29  1  0
 27 30  1  0
  6 31  1  0
 31 32  1  0
 31 33  2  0
 33 34  1  0
 33  2  1  0
M  END
>  <plip>  (1) 
-0.03571428571428571

>  <filename>  (1) 
[H][c]1[n][c]([H])[c]([N]([N]([H])[N]([H])[C]([H])([H])[C]([H])([H])[N]([C]([H])([H])[H])[C]([H])([H])[H])[C]([H])([H])[H])[c]([H])[c]1[H]

$$$$
