
     RDKit          3D

 46 48  0  0  0  0  0  0  0  0999 V2000
    7.9960   -0.6429   24.3254 C   0  0  0  0  0  0  0  0  0  0  0  0
    8.6212   -0.4392   23.0757 O   0  0  0  0  0  0  0  0  0  0  0  0
    7.8259    0.2330   22.1263 C   0  0  0  0  0  0  0  0  0  0  0  0
    8.5370    1.3003   21.5897 O   0  0  0  0  0  0  0  0  0  0  0  0
    8.6622    2.3784   22.5049 C   0  0  0  0  0  0  0  0  0  0  0  0
    9.2480    3.1529   22.0104 H   0  0  0  0  0  0  0  0  0  0  0  0
    9.1675    2.0719   23.4295 H   0  0  0  0  0  0  0  0  0  0  0  0
    7.6770    2.7882   22.7770 H   0  0  0  0  0  0  0  0  0  0  0  0
    7.4129   -0.7462   20.9828 C   0  0  0  0  0  0  0  0  0  0  0  0
    6.6452   -1.8894   21.4694 N   0  0  0  0  0  0  0  0  0  0  0  0
    7.2153   -3.0911   21.7934 C   0  0  0  0  0  0  0  0  0  0  0  0
    8.3732   -3.3617   21.5360 O   0  0  0  0  0  0  0  0  0  0  0  0
    6.3278   -4.1050   22.4593 C   0  0  2  0  0  0  0  0  0  0  0  0
    4.8620   -4.2952   22.1096 C   0  0  0  0  0  0  0  0  0  0  0  0
    5.2370   -3.7811   23.4651 C   0  0  1  0  0  0  0  0  0  0  0  0
    5.0243   -4.6609   24.6629 C   0  0  0  0  0  0  0  0  0  0  0  0
    3.7722   -5.2539   24.8907 C   0  0  0  0  0  0  0  0  0  0  0  0
    3.5820   -6.0789   25.9936 C   0  0  0  0  0  0  0  0  0  0  0  0
    2.3801   -6.6526   26.1760 F   0  0  0  0  0  0  0  0  0  0  0  0
    4.6070   -6.3336   26.9034 C   0  0  0  0  0  0  0  0  0  0  0  0
    5.8569   -5.7253   26.7054 C   0  0  0  0  0  0  0  0  0  0  0  0
    6.0399   -4.8959   25.5999 C   0  0  0  0  0  0  0  0  0  0  0  0
    7.2428   -4.3160   25.4037 F   0  0  0  0  0  0  0  0  0  0  0  0
    6.6928   -5.8877   27.3805 H   0  0  0  0  0  0  0  0  0  0  0  0
    4.4105   -6.9892   27.7448 H   0  0  0  0  0  0  0  0  0  0  0  0
    2.9629   -5.0837   24.1868 H   0  0  0  0  0  0  0  0  0  0  0  0
    5.0749   -2.7290   23.6998 H   0  0  0  0  0  0  0  0  0  0  0  0
    4.4838   -5.3185   22.0508 H   0  0  0  0  0  0  0  0  0  0  0  0
    4.4152   -3.6150   21.3903 H   0  0  0  0  0  0  0  0  0  0  0  0
    6.9187   -4.9958   22.6557 H   0  0  0  0  0  0  0  0  0  0  0  0
    5.6783   -1.7531   21.7115 H   0  0  0  0  0  0  0  0  0  0  0  0
    6.6305   -0.0440   19.8957 C   0  0  0  0  0  0  0  0  0  0  0  0
    5.4256    0.6296   20.1490 C   0  0  0  0  0  0  0  0  0  0  0  0
    4.7998    1.3045   19.1000 C   0  0  0  0  0  0  0  0  0  0  0  0
    5.3977    1.2918   17.8353 C   0  0  0  0  0  0  0  0  0  0  0  0
    6.5579    0.6721   17.5754 N   0  0  0  0  0  0  0  0  0  0  0  0
    7.1481    0.0348   18.5966 C   0  0  0  0  0  0  0  0  0  0  0  0
    8.1122   -0.4249   18.3650 H   0  0  0  0  0  0  0  0  0  0  0  0
    4.9285    1.7940   16.9907 H   0  0  0  0  0  0  0  0  0  0  0  0
    3.8747    1.8483   19.2490 H   0  0  0  0  0  0  0  0  0  0  0  0
    4.9943    0.6615   21.1544 H   0  0  0  0  0  0  0  0  0  0  0  0
    8.3634   -1.1427   20.6090 H   0  0  0  0  0  0  0  0  0  0  0  0
    6.9024    0.6116   22.6054 H   0  0  0  0  0  0  0  0  0  0  0  0
    7.0434   -1.1874   24.2416 H   0  0  0  0  0  0  0  0  0  0  0  0
    7.7986    0.3122   24.8390 H   0  0  0  0  0  0  0  0  0  0  0  0
    8.6906   -1.2374   24.9221 H   0  0  0  0  0  0  0  0  0  0  0  0
  1  2  1  0
  2  3  1  0
  3  4  1  0
  4  5  1  0
  5  6  1  0
  5  7  1  0
  5  8  1  0
  3  9  1  0
  9 10  1  0
 10 11  1  0
 11 12  2  0
 11 13  1  0
 13 14  1  0
 14 15  1  0
 15 16  1  0
 16 17  2  0
 17 18  1  0
 18 19  1  0
 18 20  2  0
 20 21  1  0
 21 22  2  0
 22 23  1  0
 21 24  1  0
 20 25  1  0
 17 26  1  0
 15 27  1  1
 14 28  1  0
 14 29  1  0
 13 30  1  1
 10 31  1  0
  9 32  1  0
 32 33  2  0
 33 34  1  0
 34 35  2  0
 35 36  1  0
 36 37  2  0
 37 38  1  0
 35 39  1  0
 34 40  1  0
 33 41  1  0
  9 42  1  0
  3 43  1  0
  1 44  1  0
  1 45  1  0
  1 46  1  0
 15 13  1  0
 22 16  1  0
 37 32  1  0
M  END
>  <plip>  (1) 
-0.06666666666666667

>  <filename>  (1) 
[H][c]1[n][c]([H])[c]([C]([H])([N]([H])[C](=[O])[C@]2([H])[C]([H])([H])[C@@]2([H])[c]2[c]([H])[c]([F])[c]([H])[c]([H])[c]2[F])[C]([H])([O][C]([H])([H])[H])[O][C]([H])([H])[H])[c]([H])[c]1[H]

$$$$
