
     RDKit          3D

 34 35  0  0  0  0  0  0  0  0999 V2000
    4.9664    1.7703   17.0068 H   0  0  0  0  0  0  0  0  0  0  0  0
    5.4302    1.2878   17.8597 C   0  0  0  0  0  0  0  0  0  0  0  0
    6.5942    0.6621   17.6268 N   0  0  0  0  0  0  0  0  0  0  0  0
    7.1756    0.0452   18.6591 C   0  0  0  0  0  0  0  0  0  0  0  0
    8.1179   -0.4649   18.4616 H   0  0  0  0  0  0  0  0  0  0  0  0
    6.6401    0.0353   19.9475 C   0  0  0  0  0  0  0  0  0  0  0  0
    7.4172   -0.7435   20.9460 C   0  0  0  0  0  0  0  0  0  0  0  0
    8.1596   -1.6613   20.6221 O   0  0  0  0  0  0  0  0  0  0  0  0
    7.2516   -0.3442   22.2289 N   0  0  0  0  0  0  0  0  0  0  0  0
    6.7381    0.5119   22.3557 H   0  0  0  0  0  0  0  0  0  0  0  0
    7.6941   -1.1131   23.4005 C   0  0  1  0  0  0  0  0  0  0  0  0
    8.7150   -1.4486   23.1923 H   0  0  0  0  0  0  0  0  0  0  0  0
    7.7638   -0.2781   24.6785 C   0  0  0  0  0  0  0  0  0  0  0  0
    6.6218    0.2442   25.1723 N   0  0  0  0  0  0  0  0  0  0  0  0
    6.7082    0.9329   26.3045 C   0  0  0  0  0  0  0  0  0  0  0  0
    5.6038    1.4754   26.8602 O   0  0  0  0  0  0  0  0  0  0  0  0
    4.3480    1.2829   26.2229 C   0  0  0  0  0  0  0  0  0  0  0  0
    4.0955    0.2194   26.1579 H   0  0  0  0  0  0  0  0  0  0  0  0
    3.6217    1.8112   26.8431 H   0  0  0  0  0  0  0  0  0  0  0  0
    4.3555    1.6909   25.2071 H   0  0  0  0  0  0  0  0  0  0  0  0
    7.9047    1.1576   27.0062 C   0  0  0  0  0  0  0  0  0  0  0  0
    7.8427    1.7444   27.9138 H   0  0  0  0  0  0  0  0  0  0  0  0
    9.0683    0.6089   26.4878 C   0  0  0  0  0  0  0  0  0  0  0  0
   10.0464    0.6968   26.9423 H   0  0  0  0  0  0  0  0  0  0  0  0
    8.9949   -0.1270   25.3032 C   0  0  0  0  0  0  0  0  0  0  0  0
    9.8752   -0.5798   24.8571 H   0  0  0  0  0  0  0  0  0  0  0  0
    6.8468   -2.3753   23.6014 C   0  0  0  0  0  0  0  0  0  0  0  0
    6.8690   -2.9828   22.6929 H   0  0  0  0  0  0  0  0  0  0  0  0
    5.8098   -2.1204   23.8330 H   0  0  0  0  0  0  0  0  0  0  0  0
    7.2434   -2.9706   24.4288 H   0  0  0  0  0  0  0  0  0  0  0  0
    5.4184    0.6864   20.1829 C   0  0  0  0  0  0  0  0  0  0  0  0
    4.9278    0.6781   21.1615 H   0  0  0  0  0  0  0  0  0  0  0  0
    4.8028    1.3229   19.1101 C   0  0  0  0  0  0  0  0  0  0  0  0
    3.8601    1.8459   19.2335 H   0  0  0  0  0  0  0  0  0  0  0  0
  1  2  1  0
  2  3  2  0
  3  4  1  0
  4  5  1  0
  4  6  2  0
  6  7  1  0
  7  8  2  0
  7  9  1  0
  9 10  1  0
  9 11  1  0
 11 12  1  6
 11 13  1  0
 13 14  2  0
 14 15  1  0
 15 16  1  0
 16 17  1  0
 17 18  1  0
 17 19  1  0
 17 20  1  0
 15 21  2  0
 21 22  1  0
 21 23  1  0
 23 24  1  0
 23 25  2  0
 25 26  1  0
 11 27  1  0
 27 28  1  0
 27 29  1  0
 27 30  1  0
  6 31  1  0
 31 32  1  0
 31 33  2  0
 33 34  1  0
 33  2  1  0
 25 13  1  0
M  END
>  <plip>  (1) 
-0.06896551724137931

>  <filename>  (1) 
[H][c]1[n][c]([H])[c]([C](=[O])[N]([H])[C@@]([H])([c]2[n][c]([O][C]([H])([H])[H])[c]([H])[c]([H])[c]2[H])[C]([H])([H])[H])[c]([H])[c]1[H]

$$$$
