
     RDKit          3D

 24 25  0  0  0  0  0  0  0  0999 V2000
    5.3103    1.5699   17.1214 H   0  0  0  0  0  0  0  0  0  0  0  0
    5.7082    1.0117   17.9659 C   0  0  0  0  0  0  0  0  0  0  0  0
    6.8283    0.3089   17.7449 N   0  0  0  0  0  0  0  0  0  0  0  0
    7.3795   -0.3361   18.7797 C   0  0  0  0  0  0  0  0  0  0  0  0
    8.3016   -0.8756   18.5689 H   0  0  0  0  0  0  0  0  0  0  0  0
    6.8436   -0.3068   20.0883 C   0  0  0  0  0  0  0  0  0  0  0  0
    7.5032   -0.8027   21.2480 N   0  0  0  0  0  0  0  0  0  0  0  0
    7.4471   -0.1625   22.5074 C   0  0  0  0  0  0  0  0  0  0  0  0
    6.6764    0.6737   22.8774 O   0  0  0  0  0  0  0  0  0  0  0  0
    8.4730   -0.6289   23.2555 O   0  0  0  0  0  0  0  0  0  0  0  0
    9.2771   -1.5325   22.4960 C   0  0  0  0  0  0  0  0  0  0  0  0
    9.5430   -2.3753   23.1355 H   0  0  0  0  0  0  0  0  0  0  0  0
   10.1905   -1.0205   22.1697 H   0  0  0  0  0  0  0  0  0  0  0  0
    8.4122   -1.9191   21.2822 C   0  0  1  0  0  0  0  0  0  0  0  0
    9.0138   -1.9597   20.3668 H   0  0  0  0  0  0  0  0  0  0  0  0
    7.6352   -3.5868   21.3869 S   0  0  0  0  0  0  0  0  0  0  0  0
    5.9202   -3.3414   21.9859 C   0  0  0  0  0  0  0  0  0  0  0  0
    5.8912   -2.9799   23.2637 F   0  0  0  0  0  0  0  0  0  0  0  0
    5.2863   -2.4247   21.2722 F   0  0  0  0  0  0  0  0  0  0  0  0
    5.3023   -4.5170   21.8324 F   0  0  0  0  0  0  0  0  0  0  0  0
    5.6082    0.3225   20.2718 C   0  0  0  0  0  0  0  0  0  0  0  0
    5.1370    0.2705   21.2535 H   0  0  0  0  0  0  0  0  0  0  0  0
    5.0609    1.0354   19.2065 C   0  0  0  0  0  0  0  0  0  0  0  0
    4.1644    1.6264   19.3448 H   0  0  0  0  0  0  0  0  0  0  0  0
  1  2  1  0
  2  3  2  0
  3  4  1  0
  4  5  1  0
  4  6  2  0
  6  7  1  0
  7  8  1  0
  8  9  2  0
  8 10  1  0
 10 11  1  0
 11 12  1  0
 11 13  1  0
 11 14  1  0
 14 15  1  6
 14 16  1  0
 16 17  1  0
 17 18  1  0
 17 19  1  0
 17 20  1  0
  6 21  1  0
 21 22  1  0
 21 23  2  0
 23 24  1  0
 23  2  1  0
 14  7  1  0
M  END
>  <plip>  (1) 
-0.0

>  <filename>  (1) 
[H][c]1[n][c]([H])[c]([N]2[C](=[O])[O][C]([H])([H])[C@@]2([H])[S][C]([F])([F])[F])[c]([H])[c]1[H]

$$$$
