
     RDKit          3D

 53 55  0  0  0  0  0  0  0  0999 V2000
    8.5150    2.3817   21.2542 C   0  0  0  0  0  0  0  0  0  0  0  0
    8.9113    1.0399   21.4304 O   0  0  0  0  0  0  0  0  0  0  0  0
    7.9482    0.2393   22.0710 C   0  0  0  0  0  0  0  0  0  0  0  0
    8.5717   -0.4984   23.0787 O   0  0  0  0  0  0  0  0  0  0  0  0
    9.1007    0.2868   24.1328 C   0  0  0  0  0  0  0  0  0  0  0  0
    9.8327    1.0219   23.7729 H   0  0  0  0  0  0  0  0  0  0  0  0
    8.3009    0.8141   24.6731 H   0  0  0  0  0  0  0  0  0  0  0  0
    9.5978   -0.4061   24.8144 H   0  0  0  0  0  0  0  0  0  0  0  0
    7.3109   -0.7430   21.0486 C   0  0  0  0  0  0  0  0  0  0  0  0
    6.3744   -1.6604   21.7094 N   0  0  0  0  0  0  0  0  0  0  0  0
    5.8745   -2.7845   21.1033 C   0  0  0  0  0  0  0  0  0  0  0  0
    5.8444   -2.9297   19.8962 O   0  0  0  0  0  0  0  0  0  0  0  0
    5.2951   -3.8471   22.0742 C   0  0  0  0  0  0  0  0  0  0  0  0
    6.2164   -4.5703   22.8897 O   0  0  0  0  0  0  0  0  0  0  0  0
    6.7375   -3.9232   24.0618 C   0  0  0  0  0  0  0  0  0  0  0  0
    8.2104   -3.5488   23.8377 C   0  0  0  0  0  0  0  0  0  0  0  0
    9.1333   -4.7680   23.9693 C   0  0  0  0  0  0  0  0  0  0  0  0
    9.0103   -5.4559   25.3368 C   0  0  0  0  0  0  0  0  0  0  0  0
    7.5904   -5.5292   25.8720 C   0  0  0  0  0  0  0  0  0  0  0  0
    7.3424   -6.2767   27.0329 C   0  0  0  0  0  0  0  0  0  0  0  0
    6.0567   -6.3835   27.5565 C   0  0  0  0  0  0  0  0  0  0  0  0
    4.9778   -5.8025   26.8750 C   0  0  0  0  0  0  0  0  0  0  0  0
    5.2156   -5.0622   25.7183 C   0  0  0  0  0  0  0  0  0  0  0  0
    6.5234   -4.8518   25.2505 C   0  0  0  0  0  0  0  0  0  0  0  0
    4.3822   -4.6346   25.1635 H   0  0  0  0  0  0  0  0  0  0  0  0
    3.9628   -5.9337   27.2383 H   0  0  0  0  0  0  0  0  0  0  0  0
    5.9025   -6.9313   28.4832 H   0  0  0  0  0  0  0  0  0  0  0  0
    8.1777   -6.7804   27.5242 H   0  0  0  0  0  0  0  0  0  0  0  0
    9.6236   -4.9467   26.0912 H   0  0  0  0  0  0  0  0  0  0  0  0
    9.4217   -6.4725   25.2735 H   0  0  0  0  0  0  0  0  0  0  0  0
   10.1760   -4.4771   23.7860 H   0  0  0  0  0  0  0  0  0  0  0  0
    8.8395   -5.4911   23.1971 H   0  0  0  0  0  0  0  0  0  0  0  0
    8.3074   -3.1341   22.8325 H   0  0  0  0  0  0  0  0  0  0  0  0
    8.4848   -2.7597   24.5525 H   0  0  0  0  0  0  0  0  0  0  0  0
    6.1471   -3.0152   24.2642 H   0  0  0  0  0  0  0  0  0  0  0  0
    4.8078   -4.6028   21.4598 H   0  0  0  0  0  0  0  0  0  0  0  0
    4.5339   -3.3521   22.6989 H   0  0  0  0  0  0  0  0  0  0  0  0
    6.3471   -1.6143   22.7186 H   0  0  0  0  0  0  0  0  0  0  0  0
    6.6113   -0.0284   19.9048 C   0  0  0  0  0  0  0  0  0  0  0  0
    5.4157    0.6801   20.0974 C   0  0  0  0  0  0  0  0  0  0  0  0
    4.8602    1.3703   19.0195 C   0  0  0  0  0  0  0  0  0  0  0  0
    5.5080    1.3219   17.7775 C   0  0  0  0  0  0  0  0  0  0  0  0
    6.6414    0.6379   17.5628 N   0  0  0  0  0  0  0  0  0  0  0  0
    7.1597   -0.0187   18.6150 C   0  0  0  0  0  0  0  0  0  0  0  0
    8.0765   -0.5752   18.4113 H   0  0  0  0  0  0  0  0  0  0  0  0
    5.0953    1.8452   16.9158 H   0  0  0  0  0  0  0  0  0  0  0  0
    3.9429    1.9383   19.1291 H   0  0  0  0  0  0  0  0  0  0  0  0
    4.9178    0.6760   21.0723 H   0  0  0  0  0  0  0  0  0  0  0  0
    8.1756   -1.2934   20.6516 H   0  0  0  0  0  0  0  0  0  0  0  0
    7.1485    0.8669   22.5132 H   0  0  0  0  0  0  0  0  0  0  0  0
    9.2935    2.8549   20.6630 H   0  0  0  0  0  0  0  0  0  0  0  0
    7.5609    2.4410   20.7144 H   0  0  0  0  0  0  0  0  0  0  0  0
    8.4236    2.9342   22.2045 H   0  0  0  0  0  0  0  0  0  0  0  0
  1  2  1  0
  2  3  1  0
  3  4  1  0
  4  5  1  0
  5  6  1  0
  5  7  1  0
  5  8  1  0
  3  9  1  0
  9 10  1  0
 10 11  1  0
 11 12  2  0
 11 13  1  0
 13 14  1  0
 14 15  1  0
 15 16  1  0
 16 17  1  0
 17 18  1  0
 18 19  1  0
 19 20  2  0
 20 21  1  0
 21 22  2  0
 22 23  1  0
 23 24  2  0
 23 25  1  0
 22 26  1  0
 21 27  1  0
 20 28  1  0
 18 29  1  0
 18 30  1  0
 17 31  1  0
 17 32  1  0
 16 33  1  0
 16 34  1  0
 15 35  1  0
 13 36  1  0
 13 37  1  0
 10 38  1  0
  9 39  1  0
 39 40  2  0
 40 41  1  0
 41 42  2  0
 42 43  1  0
 43 44  2  0
 44 45  1  0
 42 46  1  0
 41 47  1  0
 40 48  1  0
  9 49  1  0
  3 50  1  0
  1 51  1  0
  1 52  1  0
  1 53  1  0
 24 15  1  0
 44 39  1  0
 24 19  1  0
M  END
>  <plip>  (1) 
-0.25

>  <filename>  (1) 
[H][c]1[n][c]([H])[c]([C]([H])([N]([H])[C](=[O])[C]([H])([H])[O][C]2([H])[c]3[c]([H])[c]([H])[c]([H])[c]([H])[c]3[C]([H])([H])[C]([H])([H])[C]2([H])[H])[C]([H])([O][C]([H])([H])[H])[O][C]([H])([H])[H])[c]([H])[c]1[H]

$$$$
