
     RDKit          3D

 47 48  0  0  0  0  0  0  0  0999 V2000
    2.3388   -8.0582   23.8039 C   0  0  0  0  0  0  0  0  0  0  0  0
    2.8055   -6.7404   23.1870 C   0  0  0  0  0  0  0  0  0  0  0  0
    4.2444   -6.3867   23.5673 C   0  0  0  0  0  0  0  0  0  0  0  0
    4.7223   -5.0689   22.9542 C   0  0  0  0  0  0  0  0  0  0  0  0
    6.1587   -4.7275   23.3490 C   0  0  0  0  0  0  0  0  0  0  0  0
    6.6132   -3.3580   22.8239 C   0  0  0  0  0  0  0  0  0  0  0  0
    6.7474   -3.2989   21.0410 S   0  0  0  0  0  0  0  0  0  0  0  0
    5.4675   -2.8984   20.4910 O   0  0  0  0  0  0  0  0  0  0  0  0
    7.4143   -4.5343   20.6579 O   0  0  0  0  0  0  0  0  0  0  0  0
    7.7992   -2.0556   20.7749 N   0  0  0  0  0  0  0  0  0  0  0  0
    9.2061   -2.2595   21.1249 C   0  0  0  0  0  0  0  0  0  0  0  0
    9.5795   -1.0260   21.9636 C   0  0  0  0  0  0  0  0  0  0  0  0
   11.0521   -0.6318   21.8858 C   0  0  0  0  0  0  0  0  0  0  0  0
   11.7134   -1.4338   22.2275 H   0  0  0  0  0  0  0  0  0  0  0  0
   11.3304   -0.3913   20.8530 H   0  0  0  0  0  0  0  0  0  0  0  0
   11.2544    0.2552   22.4938 H   0  0  0  0  0  0  0  0  0  0  0  0
    8.6144    0.0564   21.4530 C   0  0  0  0  0  0  0  0  0  0  0  0
    7.3342   -0.6959   21.0573 C   0  0  0  0  0  0  0  0  0  0  0  0
    6.5932   -0.0592   19.9135 C   0  0  0  0  0  0  0  0  0  0  0  0
    5.3972    0.6335   20.1444 C   0  0  0  0  0  0  0  0  0  0  0  0
    4.7872    1.3135   19.0908 C   0  0  0  0  0  0  0  0  0  0  0  0
    5.4066    1.2883   17.8365 C   0  0  0  0  0  0  0  0  0  0  0  0
    6.5620    0.6481   17.5962 N   0  0  0  0  0  0  0  0  0  0  0  0
    7.1356   -0.0022   18.6206 C   0  0  0  0  0  0  0  0  0  0  0  0
    8.0965   -0.4612   18.3818 H   0  0  0  0  0  0  0  0  0  0  0  0
    4.9514    1.7968   16.9871 H   0  0  0  0  0  0  0  0  0  0  0  0
    3.8618    1.8645   19.2291 H   0  0  0  0  0  0  0  0  0  0  0  0
    4.9649    0.6525   21.1459 H   0  0  0  0  0  0  0  0  0  0  0  0
    6.6468   -0.7043   21.9179 H   0  0  0  0  0  0  0  0  0  0  0  0
    9.0372    0.5762   20.5818 H   0  0  0  0  0  0  0  0  0  0  0  0
    8.3890    0.8222   22.2002 H   0  0  0  0  0  0  0  0  0  0  0  0
    9.3079   -1.2693   23.0052 H   0  0  0  0  0  0  0  0  0  0  0  0
    9.7796   -2.3077   20.1954 H   0  0  0  0  0  0  0  0  0  0  0  0
    9.3901   -3.2104   21.6425 H   0  0  0  0  0  0  0  0  0  0  0  0
    7.6186   -3.1090   23.1826 H   0  0  0  0  0  0  0  0  0  0  0  0
    5.9135   -2.5539   23.0838 H   0  0  0  0  0  0  0  0  0  0  0  0
    6.8397   -5.5110   22.9828 H   0  0  0  0  0  0  0  0  0  0  0  0
    6.2526   -4.7138   24.4443 H   0  0  0  0  0  0  0  0  0  0  0  0
    4.0571   -4.2497   23.2728 H   0  0  0  0  0  0  0  0  0  0  0  0
    4.6387   -5.1100   21.8580 H   0  0  0  0  0  0  0  0  0  0  0  0
    4.3308   -6.3329   24.6653 H   0  0  0  0  0  0  0  0  0  0  0  0
    4.9195   -7.1994   23.2534 H   0  0  0  0  0  0  0  0  0  0  0  0
    2.1414   -5.9212   23.5011 H   0  0  0  0  0  0  0  0  0  0  0  0
    2.7294   -6.7877   22.0905 H   0  0  0  0  0  0  0  0  0  0  0  0
    1.3093   -8.2954   23.5222 H   0  0  0  0  0  0  0  0  0  0  0  0
    2.9742   -8.8894   23.4796 H   0  0  0  0  0  0  0  0  0  0  0  0
    2.3848   -8.0174   24.8983 H   0  0  0  0  0  0  0  0  0  0  0  0
  1  2  1  0
  2  3  1  0
  3  4  1  0
  4  5  1  0
  5  6  1  0
  6  7  1  0
  7  8  2  0
  7  9  2  0
  7 10  1  0
 10 11  1  0
 11 12  1  0
 12 13  1  0
 13 14  1  0
 13 15  1  0
 13 16  1  0
 12 17  1  0
 17 18  1  0
 18 19  1  0
 19 20  2  0
 20 21  1  0
 21 22  2  0
 22 23  1  0
 23 24  2  0
 24 25  1  0
 22 26  1  0
 21 27  1  0
 20 28  1  0
 18 29  1  0
 17 30  1  0
 17 31  1  0
 12 32  1  0
 11 33  1  0
 11 34  1  0
  6 35  1  0
  6 36  1  0
  5 37  1  0
  5 38  1  0
  4 39  1  0
  4 40  1  0
  3 41  1  0
  3 42  1  0
  2 43  1  0
  2 44  1  0
  1 45  1  0
  1 46  1  0
  1 47  1  0
 18 10  1  0
 24 19  1  0
M  END
>  <plip>  (1) 
-0.06896551724137931

>  <filename>  (1) 
[H][c]1[n][c]([H])[c]([C]2([H])[N]([S](=[O])(=[O])[C]([H])([H])[C]([H])([H])[C]([H])([H])[C]([H])([H])[C]([H])([H])[C]([H])([H])[H])[C]([H])([H])[C]([H])([C]([H])([H])[H])[C]2([H])[H])[c]([H])[c]1[H]

$$$$
