
     RDKit          3D

 32 34  0  0  0  0  0  0  0  0999 V2000
    4.9214    1.7964   16.9874 H   0  0  0  0  0  0  0  0  0  0  0  0
    5.3970    1.2974   17.8289 C   0  0  0  0  0  0  0  0  0  0  0  0
    6.5597    0.6816   17.5665 N   0  0  0  0  0  0  0  0  0  0  0  0
    7.1576    0.0512   18.5806 C   0  0  0  0  0  0  0  0  0  0  0  0
    8.1167   -0.4166   18.3608 H   0  0  0  0  0  0  0  0  0  0  0  0
    6.6443   -0.0060   19.8919 C   0  0  0  0  0  0  0  0  0  0  0  0
    7.3503   -0.7060   20.9545 C   0  0  0  0  0  0  0  0  0  0  0  0
    7.5719   -0.2609   22.2316 C   0  0  0  0  0  0  0  0  0  0  0  0
    7.2893    1.0652   22.7696 C   0  0  0  0  0  0  0  0  0  0  0  0
    6.6894    1.1977   24.0333 C   0  0  0  0  0  0  0  0  0  0  0  0
    6.4649    0.2988   24.5967 H   0  0  0  0  0  0  0  0  0  0  0  0
    6.3886    2.4479   24.5571 C   0  0  0  0  0  0  0  0  0  0  0  0
    5.9347    2.5554   25.5337 H   0  0  0  0  0  0  0  0  0  0  0  0
    6.7018    3.5894   23.8098 C   0  0  0  0  0  0  0  0  0  0  0  0
    6.4020    4.9350   24.3649 N   0  0  0  0  0  4  0  0  0  0  0  0
    5.8881    5.0033   25.4707 O   0  0  0  0  0  0  0  0  0  0  0  0
    6.6892    5.9056   23.6844 O   0  0  0  0  0  1  0  0  0  0  0  0
    7.3048    3.4895   22.5486 C   0  0  0  0  0  0  0  0  0  0  0  0
    7.5329    4.3879   21.9836 H   0  0  0  0  0  0  0  0  0  0  0  0
    7.5943    2.2329   22.0358 C   0  0  0  0  0  0  0  0  0  0  0  0
    8.0381    2.1424   21.0489 H   0  0  0  0  0  0  0  0  0  0  0  0
    8.2202   -1.3672   23.0067 C   0  0  0  0  0  0  0  0  0  0  0  0
    8.6084   -1.4602   24.1579 O   0  0  0  0  0  0  0  0  0  0  0  0
    8.3479   -2.3955   22.1179 N   0  0  0  0  0  0  0  0  0  0  0  0
    8.8253   -3.2144   22.4441 H   0  0  0  0  0  0  0  0  0  0  0  0
    7.8962   -2.0931   20.7859 C   0  0  0  0  0  0  0  0  0  0  0  0
    7.1311   -2.8072   20.4304 H   0  0  0  0  0  0  0  0  0  0  0  0
    8.7382   -2.0684   20.0788 H   0  0  0  0  0  0  0  0  0  0  0  0
    5.4267    0.6455   20.1435 C   0  0  0  0  0  0  0  0  0  0  0  0
    5.0204    0.6427   21.1582 H   0  0  0  0  0  0  0  0  0  0  0  0
    4.8008    1.3086   19.0938 C   0  0  0  0  0  0  0  0  0  0  0  0
    3.8762    1.8429   19.2465 H   0  0  0  0  0  0  0  0  0  0  0  0
  1  2  1  0
  2  3  2  0
  3  4  1  0
  4  5  1  0
  4  6  2  0
  6  7  1  0
  7  8  2  0
  8  9  1  0
  9 10  2  0
 10 11  1  0
 10 12  1  0
 12 13  1  0
 12 14  2  0
 14 15  1  0
 15 16  2  0
 15 17  1  0
 14 18  1  0
 18 19  1  0
 18 20  2  0
 20 21  1  0
  8 22  1  0
 22 23  2  0
 22 24  1  0
 24 25  1  0
 24 26  1  0
 26 27  1  0
 26 28  1  0
  6 29  1  0
 29 30  1  0
 29 31  2  0
 31 32  1  0
 31  2  1  0
 26  7  1  0
 20  9  1  0
M  CHG  2  15   1  17  -1
M  END
>  <plip>  (1) 
-0.034482758620689655

>  <filename>  (1) 
[H][c]1[n][c]([H])[c]([C]2=[C]([c]3[c]([H])[c]([H])[c]([N+](=[O])[O-])[c]([H])[c]3[H])[C](=[O])[N]([H])[C]2([H])[H])[c]([H])[c]1[H]

$$$$
