
     RDKit          3D

 31 32  0  0  0  0  0  0  0  0999 V2000
    4.9338   -5.1524   24.4844 H   0  0  0  0  0  0  0  0  0  0  0  0
    5.8131   -4.8208   24.2209 O   0  0  0  0  0  0  0  0  0  0  0  0
    5.5022   -4.4331   22.9654 C   0  0  0  0  0  0  0  0  0  0  0  0
    4.3560   -4.5812   22.6021 O   0  0  0  0  0  0  0  0  0  0  0  0
    6.6743   -3.6559   22.2504 C   0  0  1  0  0  0  0  0  0  0  0  0
    7.5621   -3.8913   22.8444 H   0  0  0  0  0  0  0  0  0  0  0  0
    7.0287   -3.9132   20.8515 N   0  0  0  0  0  0  0  0  0  0  0  0
    6.3385   -3.5668   20.1951 H   0  0  0  0  0  0  0  0  0  0  0  0
    7.1990   -4.8916   20.6364 H   0  0  0  0  0  0  0  0  0  0  0  0
    6.2803   -2.1713   22.4489 C   0  0  0  0  0  0  0  0  0  0  0  0
    5.4073   -1.9962   21.8011 H   0  0  0  0  0  0  0  0  0  0  0  0
    5.9360   -2.0635   23.4911 H   0  0  0  0  0  0  0  0  0  0  0  0
    7.2983   -1.0510   22.2156 C   0  0  0  0  0  0  0  0  0  0  0  0
    7.8124   -0.7965   20.7884 C   0  0  0  0  0  0  0  0  0  0  0  0
    8.9547   -1.0567   20.4592 O   0  0  0  0  0  0  0  0  0  0  0  0
    6.8813   -0.1386   19.8213 C   0  0  0  0  0  0  0  0  0  0  0  0
    7.3130   -0.0545   18.4881 C   0  0  0  0  0  0  0  0  0  0  0  0
    8.2506   -0.5176   18.1932 H   0  0  0  0  0  0  0  0  0  0  0  0
    6.6387    0.5868   17.5328 N   0  0  0  0  0  0  0  0  0  0  0  0
    5.4952    1.1972   17.8774 C   0  0  0  0  0  0  0  0  0  0  0  0
    4.9774    1.7321   17.0848 H   0  0  0  0  0  0  0  0  0  0  0  0
    4.9667    1.1565   19.1728 C   0  0  0  0  0  0  0  0  0  0  0  0
    4.0434    1.6766   19.3921 H   0  0  0  0  0  0  0  0  0  0  0  0
    5.6607    0.4678   20.1634 C   0  0  0  0  0  0  0  0  0  0  0  0
    5.2599    0.4310   21.1780 H   0  0  0  0  0  0  0  0  0  0  0  0
    8.2360   -0.6958   23.3396 C   0  0  0  0  0  0  0  0  0  0  0  0
    8.2364   -1.3395   24.2192 H   0  0  0  0  0  0  0  0  0  0  0  0
    9.2151   -0.3087   23.0550 H   0  0  0  0  0  0  0  0  0  0  0  0
    7.0314    0.1733   23.0888 C   0  0  0  0  0  0  0  0  0  0  0  0
    7.1617    1.1713   22.6708 H   0  0  0  0  0  0  0  0  0  0  0  0
    6.1945    0.0923   23.7889 H   0  0  0  0  0  0  0  0  0  0  0  0
  1  2  1  0
  2  3  1  0
  3  4  2  0
  3  5  1  0
  5  6  1  1
  5  7  1  0
  7  8  1  0
  7  9  1  0
  5 10  1  0
 10 11  1  0
 10 12  1  0
 10 13  1  0
 13 14  1  0
 14 15  2  0
 14 16  1  0
 16 17  2  0
 17 18  1  0
 17 19  1  0
 19 20  2  0
 20 21  1  0
 20 22  1  0
 22 23  1  0
 22 24  2  0
 24 25  1  0
 13 26  1  0
 26 27  1  0
 26 28  1  0
 26 29  1  0
 29 30  1  0
 29 31  1  0
 29 13  1  0
 24 16  1  0
M  END
>  <plip>  (1) 
-0.10344827586206896

>  <filename>  (1) 
[H][O][C](=[O])[C@@]([H])([N]([H])[H])[C]([H])([H])[C]1([C](=[O])[c]2[c]([H])[n][c]([H])[c]([H])[c]2[H])[C]([H])([H])[C]1([H])[H]

$$$$
