
     RDKit          3D

 32 34  0  0  0  0  0  0  0  0999 V2000
    4.9234    1.7891   17.0010 H   0  0  0  0  0  0  0  0  0  0  0  0
    5.4003    1.2894   17.8429 C   0  0  0  0  0  0  0  0  0  0  0  0
    6.5572    0.6660   17.5744 N   0  0  0  0  0  0  0  0  0  0  0  0
    7.1856    0.0567   18.5854 C   0  0  0  0  0  0  0  0  0  0  0  0
    8.1336   -0.4187   18.3564 H   0  0  0  0  0  0  0  0  0  0  0  0
    6.6829    0.0072   19.9059 C   0  0  0  0  0  0  0  0  0  0  0  0
    7.3761   -0.6726   20.9789 N   0  0  0  0  0  0  0  0  0  0  0  0
    8.7466   -0.6012   21.2222 C   0  0  0  0  0  0  0  0  0  0  0  0
    9.5271    0.0369   20.5604 O   0  0  0  0  0  0  0  0  0  0  0  0
    9.1085   -1.4685   22.4070 C   0  0  0  0  0  0  0  0  0  0  0  0
    9.6362   -0.8595   23.1437 H   0  0  0  0  0  0  0  0  0  0  0  0
    9.8010   -2.2326   22.0407 H   0  0  0  0  0  0  0  0  0  0  0  0
    7.7887   -2.0235   22.9230 C   0  0  1  0  0  0  0  0  0  0  0  0
    7.7606   -3.1179   22.9090 H   0  0  0  0  0  0  0  0  0  0  0  0
    7.5619   -1.5476   24.2521 O   0  0  0  0  0  0  0  0  0  0  0  0
    6.5499   -2.0480   25.0402 C   0  0  0  0  0  0  0  0  0  0  0  0
    5.7447   -3.1592   24.7377 C   0  0  0  0  0  0  0  0  0  0  0  0
    5.8567   -3.6802   23.7913 H   0  0  0  0  0  0  0  0  0  0  0  0
    4.7694   -3.5872   25.6555 C   0  0  0  0  0  0  0  0  0  0  0  0
    4.1323   -4.4461   25.4648 H   0  0  0  0  0  0  0  0  0  0  0  0
    4.6020   -2.8985   26.8499 C   0  0  0  0  0  0  0  0  0  0  0  0
    3.6643   -3.3032   27.7240 F   0  0  0  0  0  0  0  0  0  0  0  0
    5.3828   -1.7888   27.1666 C   0  0  0  0  0  0  0  0  0  0  0  0
    5.2167   -1.2854   28.1141 H   0  0  0  0  0  0  0  0  0  0  0  0
    6.3547   -1.3670   26.2587 C   0  0  0  0  0  0  0  0  0  0  0  0
    6.9866   -0.5109   26.4697 H   0  0  0  0  0  0  0  0  0  0  0  0
    6.7616   -1.5734   21.8463 C   0  0  0  0  0  0  0  0  0  0  0  0
    5.6671   -2.0484   21.6586 O   0  0  0  0  0  0  0  0  0  0  0  0
    5.4621    0.6338   20.1693 C   0  0  0  0  0  0  0  0  0  0  0  0
    5.0361    0.5949   21.1715 H   0  0  0  0  0  0  0  0  0  0  0  0
    4.8257    1.3012   19.1162 C   0  0  0  0  0  0  0  0  0  0  0  0
    3.8950    1.8289   19.2658 H   0  0  0  0  0  0  0  0  0  0  0  0
  1  2  1  0
  2  3  2  0
  3  4  1  0
  4  5  1  0
  4  6  2  0
  6  7  1  0
  7  8  1  0
  8  9  2  0
  8 10  1  0
 10 11  1  0
 10 12  1  0
 10 13  1  0
 13 14  1  1
 13 15  1  0
 15 16  1  0
 16 17  2  0
 17 18  1  0
 17 19  1  0
 19 20  1  0
 19 21  2  0
 21 22  1  0
 21 23  1  0
 23 24  1  0
 23 25  2  0
 25 26  1  0
 13 27  1  0
 27 28  2  0
  6 29  1  0
 29 30  1  0
 29 31  2  0
 31 32  1  0
 31  2  1  0
 27  7  1  0
 25 16  1  0
M  END
>  <plip>  (1) 
-0.10714285714285714

>  <filename>  (1) 
[H][c]1[n][c]([H])[c]([N]2[C](=[O])[C]([H])([H])[C@@]([H])([O][c]3[c]([H])[c]([H])[c]([F])[c]([H])[c]3[H])[C]2=[O])[c]([H])[c]1[H]

$$$$
