
     RDKit          3D

 28 29  0  0  0  0  0  0  0  0999 V2000
    4.9976    1.6900   17.0540 H   0  0  0  0  0  0  0  0  0  0  0  0
    5.4752    1.2488   17.9276 C   0  0  0  0  0  0  0  0  0  0  0  0
    6.6453    0.6296   17.7117 N   0  0  0  0  0  0  0  0  0  0  0  0
    7.2464    0.0708   18.7552 C   0  0  0  0  0  0  0  0  0  0  0  0
    8.1941   -0.4185   18.5430 H   0  0  0  0  0  0  0  0  0  0  0  0
    6.7133    0.1196   20.0376 C   0  0  0  0  0  0  0  0  0  0  0  0
    7.7438   -0.7882   21.1149 S   0  0  0  0  0  0  0  0  0  0  0  0
    7.3460   -2.1838   21.0232 O   0  0  0  0  0  0  0  0  0  0  0  0
    9.1096   -0.3873   20.8434 O   0  0  0  0  0  0  0  0  0  0  0  0
    7.2681   -0.2395   22.6282 N   0  0  0  0  0  0  0  0  0  0  0  0
    7.8339    0.9338   23.2110 C   0  0  0  0  0  0  0  0  0  0  0  0
    7.9822    1.0836   24.6260 C   0  0  0  0  0  0  0  0  0  0  0  0
    7.6694    0.2840   25.2896 H   0  0  0  0  0  0  0  0  0  0  0  0
    8.4993    2.1639   25.2241 N   0  0  0  0  0  0  0  0  0  0  0  0
    8.8623    3.1943   24.4575 C   0  0  0  0  0  0  0  0  0  0  0  0
    9.2441    4.0799   24.9596 H   0  0  0  0  0  0  0  0  0  0  0  0
    8.7347    3.1470   23.0663 C   0  0  0  0  0  0  0  0  0  0  0  0
    9.0698    4.2352   22.3676 F   0  0  0  0  0  0  0  0  0  0  0  0
    8.2472    2.0174   22.4122 C   0  0  0  0  0  0  0  0  0  0  0  0
    8.1962    2.0222   21.3261 H   0  0  0  0  0  0  0  0  0  0  0  0
    6.6593   -1.2363   23.5206 C   0  0  0  0  0  0  0  0  0  0  0  0
    6.1602   -2.0157   22.9449 H   0  0  0  0  0  0  0  0  0  0  0  0
    7.4041   -1.6971   24.1833 H   0  0  0  0  0  0  0  0  0  0  0  0
    5.9171   -0.7199   24.1313 H   0  0  0  0  0  0  0  0  0  0  0  0
    5.4881    0.7464   20.2915 C   0  0  0  0  0  0  0  0  0  0  0  0
    5.0333    0.8141   21.2857 H   0  0  0  0  0  0  0  0  0  0  0  0
    4.8585    1.3173   19.1825 C   0  0  0  0  0  0  0  0  0  0  0  0
    3.9057    1.8279   19.2699 H   0  0  0  0  0  0  0  0  0  0  0  0
  1  2  1  0
  2  3  2  0
  3  4  1  0
  4  5  1  0
  4  6  2  0
  6  7  1  0
  7  8  2  0
  7  9  2  0
  7 10  1  0
 10 11  1  0
 11 12  2  0
 12 13  1  0
 12 14  1  0
 14 15  2  0
 15 16  1  0
 15 17  1  0
 17 18  1  0
 17 19  2  0
 19 20  1  0
 10 21  1  0
 21 22  1  0
 21 23  1  0
 21 24  1  0
  6 25  1  0
 25 26  1  0
 25 27  2  0
 27 28  1  0
 27  2  1  0
 19 11  1  0
M  END
>  <plip>  (1) 
-0.06896551724137931

>  <filename>  (1) 
[H][c]1[n][c]([H])[c]([S](=[O])(=[O])[N]([c]2[c]([H])[n][c]([H])[c]([F])[c]2[H])[C]([H])([H])[H])[c]([H])[c]1[H]

$$$$
