
     RDKit          3D

 28 30  0  0  0  0  0  0  0  0999 V2000
    4.8920    1.8715   16.9929 H   0  0  0  0  0  0  0  0  0  0  0  0
    5.3678    1.3332   17.8096 C   0  0  0  0  0  0  0  0  0  0  0  0
    6.4905    0.6672   17.4997 N   0  0  0  0  0  0  0  0  0  0  0  0
    7.1144    0.0068   18.4749 C   0  0  0  0  0  0  0  0  0  0  0  0
    8.0008   -0.5529   18.1790 H   0  0  0  0  0  0  0  0  0  0  0  0
    6.6745   -0.0086   19.8078 C   0  0  0  0  0  0  0  0  0  0  0  0
    7.4344   -0.6689   20.8050 N   0  0  0  0  0  0  0  0  0  0  0  0
    6.8542   -1.1389   21.9448 N   0  0  0  0  0  0  0  0  0  0  0  0
    7.8765   -1.6848   22.5643 C   0  0  0  0  0  0  0  0  0  0  0  0
    7.6311   -2.2505   23.7768 N   0  0  0  0  0  0  0  0  0  0  0  0
    6.7327   -2.0088   24.1291 H   0  0  0  0  0  0  0  0  0  0  0  0
    8.5310   -2.8871   24.5751 C   0  0  0  0  0  0  0  0  0  0  0  0
    9.6617   -3.1077   24.2240 O   0  0  0  0  0  0  0  0  0  0  0  0
    7.9347   -3.3207   25.8965 C   0  0  0  0  0  0  0  0  0  0  0  0
    7.2836   -4.1819   25.7786 H   0  0  0  0  0  0  0  0  0  0  0  0
    7.5080   -2.3603   26.9710 C   0  0  0  0  0  0  0  0  0  0  0  0
    6.6111   -2.6232   27.5252 H   0  0  0  0  0  0  0  0  0  0  0  0
    7.6180   -1.2891   26.8155 H   0  0  0  0  0  0  0  0  0  0  0  0
    8.7224   -3.2187   27.1720 C   0  0  0  0  0  0  0  0  0  0  0  0
    9.7054   -2.7547   27.0940 H   0  0  0  0  0  0  0  0  0  0  0  0
    8.6583   -4.0281   27.9000 H   0  0  0  0  0  0  0  0  0  0  0  0
    9.0730   -1.6071   21.9523 N   0  0  0  0  0  0  0  0  0  0  0  0
    8.7603   -0.9496   20.8588 C   0  0  0  0  0  0  0  0  0  0  0  0
    9.4383   -0.6197   20.0803 H   0  0  0  0  0  0  0  0  0  0  0  0
    5.4720    0.6450   20.1194 C   0  0  0  0  0  0  0  0  0  0  0  0
    5.0736    0.5953   21.1338 H   0  0  0  0  0  0  0  0  0  0  0  0
    4.8143    1.3339   19.0964 C   0  0  0  0  0  0  0  0  0  0  0  0
    3.8868    1.8689   19.2769 H   0  0  0  0  0  0  0  0  0  0  0  0
  1  2  1  0
  2  3  2  0
  3  4  1  0
  4  5  1  0
  4  6  2  0
  6  7  1  0
  7  8  1  0
  8  9  2  0
  9 10  1  0
 10 11  1  0
 10 12  1  0
 12 13  2  0
 12 14  1  0
 14 15  1  0
 14 16  1  0
 16 17  1  0
 16 18  1  0
 16 19  1  0
 19 20  1  0
 19 21  1  0
  9 22  1  0
 22 23  2  0
 23 24  1  0
  6 25  1  0
 25 26  1  0
 25 27  2  0
 27 28  1  0
 27  2  1  0
 23  7  1  0
 19 14  1  0
M  END
>  <plip>  (1) 
-0.10714285714285714

>  <filename>  (1) 
[H][c]1[n][c]([H])[c](-[n]2[n][c]([N]([H])[C](=[O])[C]3([H])[C]([H])([H])[C]3([H])[H])[n][c]2[H])[c]([H])[c]1[H]

$$$$
