
     RDKit          3D

 35 35  0  0  0  0  0  0  0  0999 V2000
    4.9443    1.6507   16.9013 H   0  0  0  0  0  0  0  0  0  0  0  0
    5.4453    1.2187   17.7650 C   0  0  0  0  0  0  0  0  0  0  0  0
    6.5869    0.5691   17.5120 N   0  0  0  0  0  0  0  0  0  0  0  0
    7.2336    0.0354   18.5570 C   0  0  0  0  0  0  0  0  0  0  0  0
    8.1601   -0.4803   18.3215 H   0  0  0  0  0  0  0  0  0  0  0  0
    6.7965    0.0996   19.8972 C   0  0  0  0  0  0  0  0  0  0  0  0
    7.5538   -0.5595   21.0689 C   0  0  0  0  0  0  0  0  0  0  0  0
    8.9603   -1.0281   20.6579 C   0  0  0  0  0  0  0  0  0  0  0  0
    8.9028   -1.7418   19.8364 H   0  0  0  0  0  0  0  0  0  0  0  0
    9.5721   -0.1823   20.3214 H   0  0  0  0  0  0  0  0  0  0  0  0
    9.4529   -1.5457   21.4877 H   0  0  0  0  0  0  0  0  0  0  0  0
    6.7356   -1.7411   21.6165 C   0  0  0  0  0  0  0  0  0  0  0  0
    5.7121   -1.4483   21.8642 H   0  0  0  0  0  0  0  0  0  0  0  0
    6.6682   -2.5037   20.8328 H   0  0  0  0  0  0  0  0  0  0  0  0
    7.2016   -2.1861   22.5018 H   0  0  0  0  0  0  0  0  0  0  0  0
    7.8381    0.7227   22.4686 S   0  0  0  0  0  0  0  0  0  0  0  0
    8.5051    1.8735   21.8653 O   0  0  0  0  0  0  0  0  0  0  0  0
    6.5610    0.9168   23.1794 O   0  0  0  0  0  0  0  0  0  0  0  0
    9.0438   -0.1525   23.6033 C   0  0  0  0  0  0  0  0  0  0  0  0
    8.6881   -0.9000   24.5692 N   0  0  0  0  0  0  0  0  0  0  0  0
    7.3769   -0.9813   24.9278 N   0  0  0  0  0  0  0  0  0  0  0  0
    6.7179   -0.2963   24.5686 H   0  0  0  0  0  0  0  0  0  0  0  0
    6.9681   -1.5814   26.0786 C   0  0  0  0  0  0  0  0  0  0  0  0
    7.8191   -2.4549   27.1732 S   0  0  0  0  0  0  0  0  0  0  0  0
    5.6260   -1.3453   26.2744 N   0  0  0  0  0  0  0  0  0  0  0  0
    5.0797   -1.4457   25.4344 H   0  0  0  0  0  0  0  0  0  0  0  0
    5.3155   -1.9101   27.0539 H   0  0  0  0  0  0  0  0  0  0  0  0
   10.5139    0.0144   23.2925 C   0  0  0  0  0  0  0  0  0  0  0  0
   10.9972   -0.9697   23.3051 H   0  0  0  0  0  0  0  0  0  0  0  0
   11.0113    0.6357   24.0497 H   0  0  0  0  0  0  0  0  0  0  0  0
   10.6634    0.4877   22.3212 H   0  0  0  0  0  0  0  0  0  0  0  0
    5.5883    0.7789   20.1289 C   0  0  0  0  0  0  0  0  0  0  0  0
    5.1939    0.8597   21.1418 H   0  0  0  0  0  0  0  0  0  0  0  0
    4.9088    1.3481   19.0490 C   0  0  0  0  0  0  0  0  0  0  0  0
    3.9831    1.8893   19.1903 H   0  0  0  0  0  0  0  0  0  0  0  0
  1  2  1  0
  2  3  2  0
  3  4  1  0
  4  5  1  0
  4  6  2  0
  6  7  1  0
  7  8  1  0
  8  9  1  0
  8 10  1  0
  8 11  1  0
  7 12  1  0
 12 13  1  0
 12 14  1  0
 12 15  1  0
  7 16  1  0
 16 17  2  0
 16 18  2  0
 16 19  1  0
 19 20  2  3
 20 21  1  0
 21 22  1  0
 21 23  1  0
 23 24  2  0
 23 25  1  0
 25 26  1  0
 25 27  1  0
 19 28  1  0
 28 29  1  0
 28 30  1  0
 28 31  1  0
  6 32  1  0
 32 33  1  0
 32 34  2  0
 34 35  1  0
 34  2  1  0
M  END
>  <plip>  (1) 
-0.10344827586206896

>  <filename>  (1) 
[H][c]1[n][c]([H])[c]([C]([C]([H])([H])[H])([C]([H])([H])[H])[S](=[O])(=[O])[C](=[N][N]([H])[C](=[S])[N]([H])[H])[C]([H])([H])[H])[c]([H])[c]1[H]

$$$$
