
     RDKit          3D

 36 36  0  0  0  0  0  0  0  0999 V2000
    5.1013    1.7812   16.9535 H   0  0  0  0  0  0  0  0  0  0  0  0
    5.4956    1.2727   17.8324 C   0  0  0  0  0  0  0  0  0  0  0  0
    6.6435    0.6023   17.6595 N   0  0  0  0  0  0  0  0  0  0  0  0
    7.1537   -0.0250   18.7228 C   0  0  0  0  0  0  0  0  0  0  0  0
    8.0883   -0.5552   18.5450 H   0  0  0  0  0  0  0  0  0  0  0  0
    6.5449   -0.0271   19.9832 C   0  0  0  0  0  0  0  0  0  0  0  0
    7.1592   -0.7783   21.0917 C   0  0  0  0  0  0  0  0  0  0  0  0
    6.5726   -1.1145   22.1034 O   0  0  0  0  0  0  0  0  0  0  0  0
    8.4497   -1.0703   20.8711 O   0  0  0  0  0  0  0  0  0  0  0  0
    9.1289   -1.7794   21.9021 C   0  0  1  0  0  0  0  0  0  0  0  0
    9.0625   -1.2171   22.8560 H   0  0  0  0  0  0  0  0  0  0  0  0
    8.4956   -3.0794   21.9645 N   0  0  0  0  0  0  0  0  0  0  0  0
    7.5064   -2.8756   21.8708 H   0  0  0  0  0  0  0  0  0  0  0  0
    8.7153   -3.8247   23.2032 C   0  0  0  0  0  0  0  0  0  0  0  0
    8.5250   -4.8930   23.0225 H   0  0  0  0  0  0  0  0  0  0  0  0
    9.7732   -3.7595   23.4991 H   0  0  0  0  0  0  0  0  0  0  0  0
    7.8186   -3.3501   24.3818 C   0  0  0  0  0  0  0  0  0  0  0  0
    6.7719   -3.6049   24.1496 H   0  0  0  0  0  0  0  0  0  0  0  0
    7.8415   -2.2475   24.4329 H   0  0  0  0  0  0  0  0  0  0  0  0
    8.1258   -3.8649   25.7141 N   0  0  0  0  0  0  0  0  0  0  0  0
    7.9668   -5.2970   25.8952 C   0  0  0  0  0  0  0  0  0  0  0  0
    7.9524   -5.5310   26.9691 H   0  0  0  0  0  0  0  0  0  0  0  0
    7.0075   -5.6235   25.4748 H   0  0  0  0  0  0  0  0  0  0  0  0
    8.7643   -5.9105   25.4313 H   0  0  0  0  0  0  0  0  0  0  0  0
    9.3504   -3.3493   26.2949 C   0  0  0  0  0  0  0  0  0  0  0  0
    9.3745   -3.5705   27.3699 H   0  0  0  0  0  0  0  0  0  0  0  0
   10.2750   -3.7623   25.8451 H   0  0  0  0  0  0  0  0  0  0  0  0
    9.3785   -2.2587   26.1790 H   0  0  0  0  0  0  0  0  0  0  0  0
   10.5531   -1.8900   21.4377 C   0  0  0  0  0  0  0  0  0  0  0  0
   10.9567   -0.9128   21.1648 H   0  0  0  0  0  0  0  0  0  0  0  0
   11.2096   -2.3538   22.1782 H   0  0  0  0  0  0  0  0  0  0  0  0
   10.5231   -2.5228   20.5599 H   0  0  0  0  0  0  0  0  0  0  0  0
    5.3300    0.6636   20.1544 C   0  0  0  0  0  0  0  0  0  0  0  0
    4.8234    0.6777   21.1233 H   0  0  0  0  0  0  0  0  0  0  0  0
    4.8064    1.3327   19.0498 C   0  0  0  0  0  0  0  0  0  0  0  0
    3.8856    1.9039   19.1139 H   0  0  0  0  0  0  0  0  0  0  0  0
  1  2  1  0
  2  3  2  0
  3  4  1  0
  4  5  1  0
  4  6  2  0
  6  7  1  0
  7  8  2  0
  7  9  1  0
  9 10  1  0
 10 11  1  1
 10 12  1  0
 12 13  1  0
 12 14  1  0
 14 15  1  0
 14 16  1  0
 14 17  1  0
 17 18  1  0
 17 19  1  0
 17 20  1  0
 20 21  1  0
 21 22  1  0
 21 23  1  0
 21 24  1  0
 20 25  1  0
 25 26  1  0
 25 27  1  0
 25 28  1  0
 10 29  1  0
 29 30  1  0
 29 31  1  0
 29 32  1  0
  6 33  1  0
 33 34  1  0
 33 35  2  0
 35 36  1  0
 35  2  1  0
M  END
>  <plip>  (1) 
-0.034482758620689655

>  <filename>  (1) 
[H][c]1[n][c]([H])[c]([C](=[O])[O][C@@]([H])([N]([H])[C]([H])([H])[C]([H])([H])[N]([C]([H])([H])[H])[C]([H])([H])[H])[C]([H])([H])[H])[c]([H])[c]1[H]

$$$$
