
     RDKit          3D

 24 25  0  0  0  0  0  0  0  0999 V2000
    5.0143    1.7422   16.7993 H   0  0  0  0  0  0  0  0  0  0  0  0
    5.4146    1.3016   17.7090 C   0  0  0  0  0  0  0  0  0  0  0  0
    6.5853    0.6594   17.5861 N   0  0  0  0  0  0  0  0  0  0  0  0
    7.1033    0.1049   18.6867 C   0  0  0  0  0  0  0  0  0  0  0  0
    8.0600   -0.3994   18.5540 H   0  0  0  0  0  0  0  0  0  0  0  0
    6.5109    0.1919   19.9537 C   0  0  0  0  0  0  0  0  0  0  0  0
    7.2100   -0.3724   21.1448 C   0  0  0  0  0  0  0  0  0  0  0  0
    7.5890    0.5555   22.4439 S   0  0  0  0  0  0  0  0  0  0  0  0
    7.4880   -1.7013   21.0396 N   0  0  0  0  0  0  0  0  0  0  0  0
    7.1278   -2.1491   20.2079 H   0  0  0  0  0  0  0  0  0  0  0  0
    7.8473   -2.5681   22.1284 C   0  0  0  0  0  0  0  0  0  0  0  0
    9.1332   -3.1291   22.2440 C   0  0  0  0  0  0  0  0  0  0  0  0
    9.9060   -2.8833   21.5157 H   0  0  0  0  0  0  0  0  0  0  0  0
    9.4745   -3.9635   23.2380 N   0  0  0  0  0  0  0  0  0  0  0  0
    8.5642   -4.2633   24.1745 C   0  0  0  0  0  0  0  0  0  0  0  0
    8.8593   -4.9363   24.9769 H   0  0  0  0  0  0  0  0  0  0  0  0
    7.2705   -3.7308   24.1370 C   0  0  0  0  0  0  0  0  0  0  0  0
    6.3884   -4.0554   25.0916 F   0  0  0  0  0  0  0  0  0  0  0  0
    6.8921   -2.8631   23.1141 C   0  0  0  0  0  0  0  0  0  0  0  0
    5.9118   -2.3949   23.1139 H   0  0  0  0  0  0  0  0  0  0  0  0
    5.2828    0.8656   20.0672 C   0  0  0  0  0  0  0  0  0  0  0  0
    4.7903    0.9725   21.0365 H   0  0  0  0  0  0  0  0  0  0  0  0
    4.7185    1.4147   18.9181 C   0  0  0  0  0  0  0  0  0  0  0  0
    3.7741    1.9487   18.9450 H   0  0  0  0  0  0  0  0  0  0  0  0
  1  2  1  0
  2  3  2  0
  3  4  1  0
  4  5  1  0
  4  6  2  0
  6  7  1  0
  7  8  2  0
  7  9  1  0
  9 10  1  0
  9 11  1  0
 11 12  2  0
 12 13  1  0
 12 14  1  0
 14 15  2  0
 15 16  1  0
 15 17  1  0
 17 18  1  0
 17 19  2  0
 19 20  1  0
  6 21  1  0
 21 22  1  0
 21 23  2  0
 23 24  1  0
 23  2  1  0
 19 11  1  0
M  END
>  <plip>  (1) 
-0.03571428571428571

>  <filename>  (1) 
[H][c]1[n][c]([H])[c]([C](=[S])[N]([H])[c]2[c]([H])[n][c]([H])[c]([F])[c]2[H])[c]([H])[c]1[H]

$$$$
