
     RDKit          3D

 27 29  0  0  0  0  0  0  0  0999 V2000
    4.9184    1.7740   16.8947 H   0  0  0  0  0  0  0  0  0  0  0  0
    5.3662    1.3655   17.7979 C   0  0  0  0  0  0  0  0  0  0  0  0
    6.5785    0.8118   17.6423 N   0  0  0  0  0  0  0  0  0  0  0  0
    7.1677    0.3199   18.7353 C   0  0  0  0  0  0  0  0  0  0  0  0
    8.1583   -0.1051   18.5695 H   0  0  0  0  0  0  0  0  0  0  0  0
    6.6020    0.3488   20.0266 C   0  0  0  0  0  0  0  0  0  0  0  0
    7.2709   -0.3929   21.1254 C   0  0  0  0  0  0  0  0  0  0  0  0
    7.5645    0.4656   22.6384 S   0  0  0  0  0  0  0  0  0  0  0  0
    8.1996   -0.8132   23.6615 C   0  0  0  0  0  0  0  0  0  0  0  0
    8.3709   -0.4314   25.0200 N   0  0  0  0  0  0  0  0  0  0  0  0
    9.1871   -1.1051   25.9053 C   0  0  0  0  0  0  0  0  0  0  0  0
    9.7965   -1.9404   25.5987 H   0  0  0  0  0  0  0  0  0  0  0  0
    9.1411   -0.6221   27.1069 N   0  0  0  0  0  0  0  0  0  0  0  0
    8.2467    0.4286   27.0422 C   0  0  0  0  0  0  0  0  0  0  0  0
    8.0156    1.0269   27.9165 H   0  0  0  0  0  0  0  0  0  0  0  0
    7.7520    0.5637   25.7800 C   0  0  0  0  0  0  0  0  0  0  0  0
    7.0312    1.2514   25.3627 H   0  0  0  0  0  0  0  0  0  0  0  0
    8.5149   -2.0515   23.2395 C   0  0  0  0  0  0  0  0  0  0  0  0
    8.9929   -2.7787   23.8891 H   0  0  0  0  0  0  0  0  0  0  0  0
    8.2336   -2.5737   21.9131 C   0  0  0  0  0  0  0  0  0  0  0  0
    8.5001   -3.7318   21.6228 O   0  0  0  0  0  0  0  0  0  0  0  0
    7.6132   -1.6791   20.9320 C   0  0  0  0  0  0  0  0  0  0  0  0
    7.4264   -2.1539   19.9798 H   0  0  0  0  0  0  0  0  0  0  0  0
    5.3446    0.9551   20.1737 C   0  0  0  0  0  0  0  0  0  0  0  0
    4.8882    1.0170   21.1638 H   0  0  0  0  0  0  0  0  0  0  0  0
    4.7112    1.4558   19.0324 C   0  0  0  0  0  0  0  0  0  0  0  0
    3.7419    1.9395   19.0896 H   0  0  0  0  0  0  0  0  0  0  0  0
  1  2  1  0
  2  3  2  0
  3  4  1  0
  4  5  1  0
  4  6  2  0
  6  7  1  0
  7  8  1  0
  8  9  1  0
  9 10  1  0
 10 11  1  0
 11 12  1  0
 11 13  2  0
 13 14  1  0
 14 15  1  0
 14 16  2  0
 16 17  1  0
  9 18  2  0
 18 19  1  0
 18 20  1  0
 20 21  2  0
 20 22  1  0
 22 23  1  0
  6 24  1  0
 24 25  1  0
 24 26  2  0
 26 27  1  0
 26  2  1  0
 22  7  2  0
 16 10  1  0
M  END
>  <plip>  (1) 
-0.034482758620689655

>  <filename>  (1) 
[H][c]1[n][c]([H])[c](-[c]2[s][c](-[n]3[c]([H])[n][c]([H])[c]3[H])[c]([H])[c](=[O])[c]2[H])[c]([H])[c]1[H]

$$$$
