
     RDKit          3D

 45 47  0  0  0  0  0  0  0  0999 V2000
    7.2840    1.1606   22.7786 C   0  0  0  0  0  0  0  0  0  0  0  0
    8.2030    0.2333   21.9679 C   0  0  0  0  0  0  0  0  0  0  0  0
    9.2645    1.0503   21.2151 C   0  0  0  0  0  0  0  0  0  0  0  0
    9.8638    1.6501   21.9102 H   0  0  0  0  0  0  0  0  0  0  0  0
    9.9508    0.4076   20.6495 H   0  0  0  0  0  0  0  0  0  0  0  0
    8.7780    1.7378   20.5112 H   0  0  0  0  0  0  0  0  0  0  0  0
    7.4476   -0.7319   20.9975 C   0  0  0  0  0  0  0  0  0  0  0  0
    6.5996   -1.6681   21.7175 N   0  0  0  0  0  0  0  0  0  0  0  0
    7.0894   -2.7922   22.2954 C   0  0  0  0  0  0  0  0  0  0  0  0
    8.2661   -3.1174   22.1926 O   0  0  0  0  0  0  0  0  0  0  0  0
    6.1160   -3.6575   23.1163 C   0  0  0  0  0  0  0  0  0  0  0  0
    4.6867   -4.2043   22.0672 S   0  0  0  0  0  0  0  0  0  0  0  0
    3.5027   -4.8376   23.3093 C   0  0  0  0  0  0  0  0  0  0  0  0
    4.1033   -5.0523   24.6977 C   0  0  0  0  0  0  0  0  0  0  0  0
    4.7042   -3.7592   25.2190 C   0  0  0  0  0  0  0  0  0  0  0  0
    4.2830   -3.2047   26.4360 C   0  0  0  0  0  0  0  0  0  0  0  0
    4.8638   -2.0367   26.9460 C   0  0  0  0  0  0  0  0  0  0  0  0
    5.8903   -1.4121   26.2331 C   0  0  0  0  0  0  0  0  0  0  0  0
    6.2998   -1.9413   25.0046 C   0  0  0  0  0  0  0  0  0  0  0  0
    5.6838   -3.0804   24.4602 C   0  0  0  0  0  0  0  0  0  0  0  0
    7.1207   -1.4768   24.4653 H   0  0  0  0  0  0  0  0  0  0  0  0
    6.3692   -0.5174   26.6244 H   0  0  0  0  0  0  0  0  0  0  0  0
    4.5281   -1.6248   27.8966 H   0  0  0  0  0  0  0  0  0  0  0  0
    3.4810   -3.6953   26.9825 H   0  0  0  0  0  0  0  0  0  0  0  0
    3.3038   -5.3910   25.3686 H   0  0  0  0  0  0  0  0  0  0  0  0
    4.8577   -5.8531   24.6830 H   0  0  0  0  0  0  0  0  0  0  0  0
    3.0856   -5.7570   22.8896 H   0  0  0  0  0  0  0  0  0  0  0  0
    2.6654   -4.1467   23.4218 H   0  0  0  0  0  0  0  0  0  0  0  0
    6.7315   -4.5439   23.3092 H   0  0  0  0  0  0  0  0  0  0  0  0
    5.6235   -1.4526   21.8448 H   0  0  0  0  0  0  0  0  0  0  0  0
    6.6399   -0.0356   19.9188 C   0  0  0  0  0  0  0  0  0  0  0  0
    5.4188    0.6192   20.1550 C   0  0  0  0  0  0  0  0  0  0  0  0
    4.7910    1.2941   19.0999 C   0  0  0  0  0  0  0  0  0  0  0  0
    5.4040    1.2849   17.8423 C   0  0  0  0  0  0  0  0  0  0  0  0
    6.5597    0.6604   17.5847 N   0  0  0  0  0  0  0  0  0  0  0  0
    7.1498    0.0278   18.6106 C   0  0  0  0  0  0  0  0  0  0  0  0
    8.0995   -0.4548   18.3724 H   0  0  0  0  0  0  0  0  0  0  0  0
    4.9486    1.8033   17.0001 H   0  0  0  0  0  0  0  0  0  0  0  0
    3.8639    1.8429   19.2412 H   0  0  0  0  0  0  0  0  0  0  0  0
    4.9709    0.6459   21.1539 H   0  0  0  0  0  0  0  0  0  0  0  0
    8.2299   -1.3318   20.5083 H   0  0  0  0  0  0  0  0  0  0  0  0
    8.7099   -0.4443   22.6687 H   0  0  0  0  0  0  0  0  0  0  0  0
    6.4653    0.6198   23.2723 H   0  0  0  0  0  0  0  0  0  0  0  0
    7.8554    1.6759   23.5585 H   0  0  0  0  0  0  0  0  0  0  0  0
    6.8390    1.9328   22.1382 H   0  0  0  0  0  0  0  0  0  0  0  0
  1  2  1  0
  2  3  1  0
  3  4  1  0
  3  5  1  0
  3  6  1  0
  2  7  1  0
  7  8  1  0
  8  9  1  0
  9 10  2  0
  9 11  1  0
 11 12  1  0
 12 13  1  0
 13 14  1  0
 14 15  1  0
 15 16  2  0
 16 17  1  0
 17 18  2  0
 18 19  1  0
 19 20  2  0
 19 21  1  0
 18 22  1  0
 17 23  1  0
 16 24  1  0
 14 25  1  0
 14 26  1  0
 13 27  1  0
 13 28  1  0
 11 29  1  0
  8 30  1  0
  7 31  1  0
 31 32  2  0
 32 33  1  0
 33 34  2  0
 34 35  1  0
 35 36  2  0
 36 37  1  0
 34 38  1  0
 33 39  1  0
 32 40  1  0
  7 41  1  0
  2 42  1  0
  1 43  1  0
  1 44  1  0
  1 45  1  0
 20 11  1  0
 36 31  1  0
 20 15  1  0
M  END
>  <plip>  (1) 
-0.034482758620689655

>  <filename>  (1) 
[H][c]1[n][c]([H])[c]([C]([H])([N]([H])[C](=[O])[C]2([H])[S][C]([H])([H])[C]([H])([H])[c]3[c]([H])[c]([H])[c]([H])[c]([H])[c]32)[C]([H])([C]([H])([H])[H])[C]([H])([H])[H])[c]([H])[c]1[H]

$$$$
