
     RDKit          3D

 35 36  0  0  0  0  0  0  0  0999 V2000
    8.6258   -0.0699   21.3168 N   0  0  0  0  0  4  0  0  0  0  0  0
    7.1961   -0.4505   21.2180 C   0  0  2  0  0  0  0  0  0  0  0  0
    7.1833   -1.9596   21.0297 C   0  0  0  0  0  0  0  0  0  0  0  0
    7.9260   -2.5756   22.1701 C   0  0  0  0  0  0  0  0  0  0  0  0
    9.1292   -2.3812   22.3055 O   0  0  0  0  0  0  0  0  0  0  0  0
    7.1858   -3.2731   23.0527 N   0  0  0  0  0  0  0  0  0  0  0  0
    7.6597   -3.8484   24.3074 C   0  0  0  0  0  0  0  0  0  0  0  0
    6.4711   -4.1125   25.2578 C   0  0  0  0  0  0  0  0  0  0  0  0
    7.0234   -3.7891   26.6217 C   0  0  0  0  0  0  0  0  0  0  0  0
    8.1918   -3.1606   26.5423 C   0  0  0  0  0  0  0  0  0  0  0  0
    8.6246   -2.9437   25.1174 C   0  0  0  0  0  0  0  0  0  0  0  0
    8.4911   -1.8925   24.8292 H   0  0  0  0  0  0  0  0  0  0  0  0
    9.6719   -3.1891   24.9228 H   0  0  0  0  0  0  0  0  0  0  0  0
    8.7526   -2.7709   27.3862 H   0  0  0  0  0  0  0  0  0  0  0  0
    6.4799   -3.9951   27.5394 H   0  0  0  0  0  0  0  0  0  0  0  0
    6.0936   -5.1378   25.1752 H   0  0  0  0  0  0  0  0  0  0  0  0
    5.6319   -3.4387   25.0248 H   0  0  0  0  0  0  0  0  0  0  0  0
    8.1693   -4.8028   24.1061 H   0  0  0  0  0  0  0  0  0  0  0  0
    6.1911   -3.2938   22.8966 H   0  0  0  0  0  0  0  0  0  0  0  0
    6.1728   -2.3505   20.9399 H   0  0  0  0  0  0  0  0  0  0  0  0
    7.7278   -2.1653   20.1153 H   0  0  0  0  0  0  0  0  0  0  0  0
    6.5916    0.2451   20.0324 C   0  0  0  0  0  0  0  0  0  0  0  0
    5.3590    0.8985   20.1316 C   0  0  0  0  0  0  0  0  0  0  0  0
    4.8070    1.4783   18.9919 C   0  0  0  0  0  0  0  0  0  0  0  0
    5.4848    1.3667   17.7786 C   0  0  0  0  0  0  0  0  0  0  0  0
    6.6615    0.7310   17.6589 N   0  0  0  0  0  0  0  0  0  0  0  0
    7.1959    0.2017   18.7667 C   0  0  0  0  0  0  0  0  0  0  0  0
    8.1463   -0.3109   18.6038 H   0  0  0  0  0  0  0  0  0  0  0  0
    5.0667    1.8021   16.8703 H   0  0  0  0  0  0  0  0  0  0  0  0
    3.8691    2.0185   19.0379 H   0  0  0  0  0  0  0  0  0  0  0  0
    4.8431    0.9397   21.0903 H   0  0  0  0  0  0  0  0  0  0  0  0
    6.6493   -0.1751   22.1346 H   0  0  0  0  0  0  0  0  0  0  0  0
    8.9701    0.0923   20.3579 H   0  0  0  0  0  0  0  0  0  0  0  0
    8.7337    0.7986   21.8601 H   0  0  0  0  0  0  0  0  0  0  0  0
    9.1623   -0.8629   21.7546 H   0  0  0  0  0  0  0  0  0  0  0  0
  1  2  1  0
  2  3  1  0
  3  4  1  0
  4  5  2  0
  4  6  1  0
  6  7  1  0
  7  8  1  0
  8  9  1  0
  9 10  2  0
 10 11  1  0
 11 12  1  0
 11 13  1  0
 10 14  1  0
  9 15  1  0
  8 16  1  0
  8 17  1  0
  7 18  1  0
  6 19  1  0
  3 20  1  0
  3 21  1  0
  2 22  1  0
 22 23  2  0
 23 24  1  0
 24 25  2  0
 25 26  1  0
 26 27  2  0
 27 28  1  0
 25 29  1  0
 24 30  1  0
 23 31  1  0
  2 32  1  1
  1 33  1  0
  1 34  1  0
  1 35  1  0
 11  7  1  0
 27 22  1  0
M  CHG  1   1   1
M  END
>  <plip>  (1) 
-0.10344827586206896

>  <filename>  (1) 
[H][C]1=[C]([H])[C]([H])([H])[C]([H])([N]([H])[C](=[O])[C]([H])([H])[C@]([H])([c]2[c]([H])[n][c]([H])[c]([H])[c]2[H])[N+]([H])([H])[H])[C]1([H])[H]

$$$$
