
     RDKit          3D

 52 54  0  0  0  0  0  0  0  0999 V2000
    8.6058    1.1225   22.4297 C   0  0  0  0  0  0  0  0  0  0  0  0
    8.5376    0.0188   21.4383 N   0  0  0  0  0  4  0  0  0  0  0  0
    9.4918   -1.0560   21.7506 C   0  0  0  0  0  0  0  0  0  0  0  0
    9.0185   -2.1614   20.8451 C   0  0  0  0  0  0  0  0  0  0  0  0
    7.4905   -2.0348   20.8284 C   0  0  1  0  0  0  0  0  0  0  0  0
    6.7638   -3.0626   21.6816 C   0  0  0  0  0  0  0  0  0  0  0  0
    7.2847   -3.0274   23.0557 N   0  0  0  0  0  4  0  0  0  0  0  0
    6.3518   -3.6694   23.9915 C   0  0  0  0  0  0  0  0  0  0  0  0
    6.3921   -5.1664   23.7605 C   0  0  0  0  0  0  0  0  0  0  0  0
    5.4697   -5.8269   24.7863 C   0  0  0  0  0  0  0  0  0  0  0  0
    5.9367   -5.6624   26.2077 C   0  0  0  0  0  0  0  0  0  0  0  0
    7.0789   -6.3202   26.6724 C   0  0  0  0  0  0  0  0  0  0  0  0
    7.3986   -6.3245   28.0351 C   0  0  0  0  0  0  0  0  0  0  0  0
    6.5675   -5.6652   28.9475 C   0  0  0  0  0  0  0  0  0  0  0  0
    6.8450   -5.8164   30.8317 Br  0  0  0  0  0  0  0  0  0  0  0  0
    5.4599   -4.9550   28.4763 C   0  0  0  0  0  0  0  0  0  0  0  0
    5.1527   -4.9453   27.1163 C   0  0  0  0  0  0  0  0  0  0  0  0
    4.2583   -4.4418   26.7690 H   0  0  0  0  0  0  0  0  0  0  0  0
    4.7971   -4.4677   29.1833 H   0  0  0  0  0  0  0  0  0  0  0  0
    8.2546   -6.8950   28.3866 H   0  0  0  0  0  0  0  0  0  0  0  0
    7.6776   -6.8967   25.9790 H   0  0  0  0  0  0  0  0  0  0  0  0
    5.3979   -6.8981   24.5770 H   0  0  0  0  0  0  0  0  0  0  0  0
    4.4681   -5.3891   24.6889 H   0  0  0  0  0  0  0  0  0  0  0  0
    6.0410   -5.3871   22.7475 H   0  0  0  0  0  0  0  0  0  0  0  0
    7.4181   -5.5397   23.8398 H   0  0  0  0  0  0  0  0  0  0  0  0
    5.3257   -3.3112   23.8361 H   0  0  0  0  0  0  0  0  0  0  0  0
    6.6188   -3.4614   25.0347 H   0  0  0  0  0  0  0  0  0  0  0  0
    8.1812   -3.5193   23.0907 H   0  0  0  0  0  0  0  0  0  0  0  0
    7.4322   -2.0539   23.3335 H   0  0  0  0  0  0  0  0  0  0  0  0
    5.6898   -2.8379   21.6698 H   0  0  0  0  0  0  0  0  0  0  0  0
    6.8808   -4.0673   21.2492 H   0  0  0  0  0  0  0  0  0  0  0  0
    7.2183   -0.5992   21.2890 C   0  0  2  0  0  0  0  0  0  0  0  0
    6.5838    0.1360   20.1531 C   0  0  0  0  0  0  0  0  0  0  0  0
    5.3568    0.7890   20.2712 C   0  0  0  0  0  0  0  0  0  0  0  0
    4.8392    1.3781   19.1199 C   0  0  0  0  0  0  0  0  0  0  0  0
    5.5399    1.3007   17.9105 C   0  0  0  0  0  0  0  0  0  0  0  0
    6.7199    0.6669   17.8070 N   0  0  0  0  0  0  0  0  0  0  0  0
    7.2303    0.1046   18.9116 C   0  0  0  0  0  0  0  0  0  0  0  0
    8.1763   -0.4269   18.8413 H   0  0  0  0  0  0  0  0  0  0  0  0
    5.1144    1.7635   17.0232 H   0  0  0  0  0  0  0  0  0  0  0  0
    3.8944    1.9049   19.1438 H   0  0  0  0  0  0  0  0  0  0  0  0
    4.8213    0.8335   21.2194 H   0  0  0  0  0  0  0  0  0  0  0  0
    6.6185   -0.5699   22.2085 H   0  0  0  0  0  0  0  0  0  0  0  0
    7.1129   -2.1648   19.8103 H   0  0  0  0  0  0  0  0  0  0  0  0
    9.3567   -3.1388   21.1915 H   0  0  0  0  0  0  0  0  0  0  0  0
    9.4217   -1.9767   19.8486 H   0  0  0  0  0  0  0  0  0  0  0  0
   10.5364   -0.7921   21.5356 H   0  0  0  0  0  0  0  0  0  0  0  0
    9.4185   -1.3610   22.8011 H   0  0  0  0  0  0  0  0  0  0  0  0
    8.7583    0.3922   20.5118 H   0  0  0  0  0  0  0  0  0  0  0  0
    9.6239    1.5314   22.4967 H   0  0  0  0  0  0  0  0  0  0  0  0
    8.3233    0.7580   23.4250 H   0  0  0  0  0  0  0  0  0  0  0  0
    7.9331    1.9481   22.1616 H   0  0  0  0  0  0  0  0  0  0  0  0
  1  2  1  0
  2  3  1  0
  3  4  1  0
  4  5  1  0
  5  6  1  0
  6  7  1  0
  7  8  1  0
  8  9  1  0
  9 10  1  0
 10 11  1  0
 11 12  2  0
 12 13  1  0
 13 14  2  0
 14 15  1  0
 14 16  1  0
 16 17  2  0
 17 18  1  0
 16 19  1  0
 13 20  1  0
 12 21  1  0
 10 22  1  0
 10 23  1  0
  9 24  1  0
  9 25  1  0
  8 26  1  0
  8 27  1  0
  7 28  1  0
  7 29  1  0
  6 30  1  0
  6 31  1  0
  5 32  1  0
 32 33  1  0
 33 34  2  0
 34 35  1  0
 35 36  2  0
 36 37  1  0
 37 38  2  0
 38 39  1  0
 36 40  1  0
 35 41  1  0
 34 42  1  0
 32 43  1  1
  5 44  1  6
  4 45  1  0
  4 46  1  0
  3 47  1  0
  3 48  1  0
  2 49  1  0
  1 50  1  0
  1 51  1  0
  1 52  1  0
 32  2  1  0
 38 33  1  0
 17 11  1  0
M  CHG  2   2   1   7   1
M  END
>  <plip>  (1) 
-0.10344827586206896

>  <filename>  (1) 
[H][c]1[n][c]([H])[c]([C@@]2([H])[C@]([H])([C]([H])([H])[N+]([H])([H])[C]([H])([H])[C]([H])([H])[C]([H])([H])[c]3[c]([H])[c]([H])[c]([Br])[c]([H])[c]3[H])[C]([H])([H])[C]([H])([H])[N+]2([H])[C]([H])([H])[H])[c]([H])[c]1[H]

$$$$
