
     RDKit          3D

 26 27  0  0  0  0  0  0  0  0999 V2000
    9.2592   -0.7695   20.3541 H   0  0  0  0  0  0  0  0  0  0  0  0
    8.4859   -1.0085   21.1019 C   0  0  0  0  0  0  0  0  0  0  0  0
    7.2555   -0.7167   20.9945 N   0  0  0  0  0  0  0  0  0  0  0  0
    6.7005    0.0025   19.9128 C   0  0  0  0  0  0  0  0  0  0  0  0
    7.1913    0.0621   18.5874 C   0  0  0  0  0  0  0  0  0  0  0  0
    8.1238   -0.4298   18.3266 H   0  0  0  0  0  0  0  0  0  0  0  0
    6.5640    0.6781   17.5725 N   0  0  0  0  0  0  0  0  0  0  0  0
    5.4028    1.2932   17.8357 C   0  0  0  0  0  0  0  0  0  0  0  0
    4.9191    1.7861   16.9943 H   0  0  0  0  0  0  0  0  0  0  0  0
    4.8246    1.3045   19.1109 C   0  0  0  0  0  0  0  0  0  0  0  0
    3.8909    1.8275   19.2660 H   0  0  0  0  0  0  0  0  0  0  0  0
    5.4744    0.6501   20.1583 C   0  0  0  0  0  0  0  0  0  0  0  0
    5.0647    0.6029   21.1667 H   0  0  0  0  0  0  0  0  0  0  0  0
    8.9834   -1.7214   22.1555 N   0  0  0  0  0  0  0  0  0  0  0  0
    9.9743   -1.6696   22.2764 H   0  0  0  0  0  0  0  0  0  0  0  0
    8.2312   -2.3119   23.1967 C   0  0  0  0  0  0  0  0  0  0  0  0
    8.7010   -2.2950   24.5171 C   0  0  0  0  0  0  0  0  0  0  0  0
    9.6492   -1.8178   24.7464 H   0  0  0  0  0  0  0  0  0  0  0  0
    7.9397   -2.8735   25.5424 C   0  0  0  0  0  0  0  0  0  0  0  0
    8.2675   -2.8753   26.5760 H   0  0  0  0  0  0  0  0  0  0  0  0
    6.7271   -3.4768   25.2223 C   0  0  0  0  0  0  0  0  0  0  0  0
    5.9877   -4.0362   26.1932 F   0  0  0  0  0  0  0  0  0  0  0  0
    6.2563   -3.5276   23.9145 C   0  0  0  0  0  0  0  0  0  0  0  0
    5.3033   -3.9976   23.7049 H   0  0  0  0  0  0  0  0  0  0  0  0
    7.0159   -2.9446   22.9011 C   0  0  0  0  0  0  0  0  0  0  0  0
    6.6835   -2.9430   21.8712 H   0  0  0  0  0  0  0  0  0  0  0  0
  1  2  1  0
  2  3  2  3
  3  4  1  0
  4  5  2  0
  5  6  1  0
  5  7  1  0
  7  8  2  0
  8  9  1  0
  8 10  1  0
 10 11  1  0
 10 12  2  0
 12 13  1  0
  2 14  1  0
 14 15  1  0
 14 16  1  0
 16 17  2  0
 17 18  1  0
 17 19  1  0
 19 20  1  0
 19 21  2  0
 21 22  1  0
 21 23  1  0
 23 24  1  0
 23 25  2  0
 25 26  1  0
 12  4  1  0
 25 16  1  0
M  END
>  <plip>  (1) 
-0.034482758620689655

>  <filename>  (1) 
[H][C](=[N][c]1[c]([H])[n][c]([H])[c]([H])[c]1[H])[N]([H])[c]1[c]([H])[c]([H])[c]([F])[c]([H])[c]1[H]

$$$$
