
     RDKit          3D

 26 27  0  0  0  0  0  0  0  0999 V2000
    4.9195    1.7913   16.9867 H   0  0  0  0  0  0  0  0  0  0  0  0
    5.3926    1.2976   17.8291 C   0  0  0  0  0  0  0  0  0  0  0  0
    6.5567    0.6813   17.5630 N   0  0  0  0  0  0  0  0  0  0  0  0
    7.1531    0.0441   18.5756 C   0  0  0  0  0  0  0  0  0  0  0  0
    8.1153   -0.4201   18.3763 H   0  0  0  0  0  0  0  0  0  0  0  0
    6.6226   -0.0332   19.8744 C   0  0  0  0  0  0  0  0  0  0  0  0
    7.6093   -0.8157   21.1274 S   0  0  0  0  0  0  0  0  0  0  0  0
    8.8012    0.7844   21.6802 S   0  0  0  0  0  0  0  0  0  0  0  0
    7.7628    1.4637   23.0206 C   0  0  0  0  0  0  0  0  0  0  0  0
    6.7436    1.5736   22.6475 H   0  0  0  0  0  0  0  0  0  0  0  0
    8.1481    2.4694   23.2150 H   0  0  0  0  0  0  0  0  0  0  0  0
    7.8261    0.5746   24.2306 C   0  0  0  0  0  0  0  0  0  0  0  0
    9.0062    0.5331   24.9850 C   0  0  0  0  0  0  0  0  0  0  0  0
    9.8391    1.1702   24.6935 H   0  0  0  0  0  0  0  0  0  0  0  0
    9.1129   -0.3229   26.0803 C   0  0  0  0  0  0  0  0  0  0  0  0
   10.0221   -0.3255   26.6741 H   0  0  0  0  0  0  0  0  0  0  0  0
    8.0501   -1.1615   26.4297 C   0  0  0  0  0  0  0  0  0  0  0  0
    8.0916   -1.8299   27.2851 H   0  0  0  0  0  0  0  0  0  0  0  0
    6.8992   -1.1269   25.6472 C   0  0  0  0  0  0  0  0  0  0  0  0
    5.8712   -1.9277   25.9664 F   0  0  0  0  0  0  0  0  0  0  0  0
    6.7676   -0.2823   24.5494 C   0  0  0  0  0  0  0  0  0  0  0  0
    5.8538   -0.3169   23.9617 H   0  0  0  0  0  0  0  0  0  0  0  0
    5.4156    0.6215   20.1501 C   0  0  0  0  0  0  0  0  0  0  0  0
    5.0030    0.6220   21.1610 H   0  0  0  0  0  0  0  0  0  0  0  0
    4.7952    1.3063   19.0955 C   0  0  0  0  0  0  0  0  0  0  0  0
    3.8703    1.8473   19.2554 H   0  0  0  0  0  0  0  0  0  0  0  0
  1  2  1  0
  2  3  2  0
  3  4  1  0
  4  5  1  0
  4  6  2  0
  6  7  1  0
  7  8  1  0
  8  9  1  0
  9 10  1  0
  9 11  1  0
  9 12  1  0
 12 13  2  0
 13 14  1  0
 13 15  1  0
 15 16  1  0
 15 17  2  0
 17 18  1  0
 17 19  1  0
 19 20  1  0
 19 21  2  0
 21 22  1  0
  6 23  1  0
 23 24  1  0
 23 25  2  0
 25 26  1  0
 25  2  1  0
 21 12  1  0
M  END
>  <plip>  (1) 
-0.0

>  <filename>  (1) 
[H][c]1[n][c]([H])[c]([S][S][C]([H])([H])[c]2[c]([H])[c]([H])[c]([H])[c]([F])[c]2[H])[c]([H])[c]1[H]

$$$$
