
     RDKit          3D

 35 38  0  0  0  0  0  0  0  0999 V2000
    4.9155    1.8105   16.9770 H   0  0  0  0  0  0  0  0  0  0  0  0
    5.3893    1.3000   17.8153 C   0  0  0  0  0  0  0  0  0  0  0  0
    6.5482    0.6789   17.5493 N   0  0  0  0  0  0  0  0  0  0  0  0
    7.1642    0.0635   18.5659 C   0  0  0  0  0  0  0  0  0  0  0  0
    8.1145   -0.4131   18.3192 H   0  0  0  0  0  0  0  0  0  0  0  0
    6.6693    0.0111   19.8848 C   0  0  0  0  0  0  0  0  0  0  0  0
    7.3900   -0.7383   20.9973 C   0  0  1  0  0  0  0  0  0  0  0  0
    8.4016   -1.0011   20.6584 H   0  0  0  0  0  0  0  0  0  0  0  0
    7.6228    0.1229   22.2519 C   0  0  0  0  0  0  0  0  0  0  0  0
    8.3055    1.1144   22.3044 O   0  0  0  0  0  0  0  0  0  0  0  0
    7.0028   -0.4765   23.3381 N   0  0  0  0  0  0  0  0  0  0  0  0
    6.9506    0.1061   24.6283 C   0  0  0  0  0  0  0  0  0  0  0  0
    7.1120   -0.5877   25.7870 C   0  0  0  0  0  0  0  0  0  0  0  0
    7.2395   -1.6567   25.9012 H   0  0  0  0  0  0  0  0  0  0  0  0
    7.0761    0.2912   26.8405 N   0  0  0  0  0  0  0  0  0  0  0  0
    7.1676    0.0499   27.8120 H   0  0  0  0  0  0  0  0  0  0  0  0
    6.8466    1.5692   26.3779 C   0  0  0  0  0  0  0  0  0  0  0  0
    6.7080    2.7817   27.0872 C   0  0  0  0  0  0  0  0  0  0  0  0
    6.7880    2.8222   28.1675 H   0  0  0  0  0  0  0  0  0  0  0  0
    6.4556    3.9353   26.3549 C   0  0  0  0  0  0  0  0  0  0  0  0
    6.3420    4.8923   26.8618 H   0  0  0  0  0  0  0  0  0  0  0  0
    6.3423    3.8905   24.9477 C   0  0  0  0  0  0  0  0  0  0  0  0
    6.1465    4.8008   24.3909 H   0  0  0  0  0  0  0  0  0  0  0  0
    6.4901    2.6939   24.2525 C   0  0  0  0  0  0  0  0  0  0  0  0
    6.4338    2.6777   23.1680 H   0  0  0  0  0  0  0  0  0  0  0  0
    6.7513    1.5035   24.9665 C   0  0  0  0  0  0  0  0  0  0  0  0
    6.4794   -1.7226   23.0200 C   0  0  0  0  0  0  0  0  0  0  0  0
    6.0076   -2.5075   23.8071 O   0  0  0  0  0  0  0  0  0  0  0  0
    6.6248   -1.9584   21.5351 C   0  0  0  0  0  0  0  0  0  0  0  0
    7.1518   -2.9086   21.4348 H   0  0  0  0  0  0  0  0  0  0  0  0
    5.6309   -2.0844   21.0903 H   0  0  0  0  0  0  0  0  0  0  0  0
    5.4496    0.6518   20.1326 C   0  0  0  0  0  0  0  0  0  0  0  0
    5.0147    0.6301   21.1341 H   0  0  0  0  0  0  0  0  0  0  0  0
    4.8047    1.3123   19.0847 C   0  0  0  0  0  0  0  0  0  0  0  0
    3.8733    1.8402   19.2397 H   0  0  0  0  0  0  0  0  0  0  0  0
  1  2  1  0
  2  3  2  0
  3  4  1  0
  4  5  1  0
  4  6  2  0
  6  7  1  0
  7  8  1  6
  7  9  1  0
  9 10  2  0
  9 11  1  0
 11 12  1  0
 12 13  2  0
 13 14  1  0
 13 15  1  0
 15 16  1  0
 15 17  1  0
 17 18  2  0
 18 19  1  0
 18 20  1  0
 20 21  1  0
 20 22  2  0
 22 23  1  0
 22 24  1  0
 24 25  1  0
 24 26  2  0
 11 27  1  0
 27 28  2  0
 27 29  1  0
 29 30  1  0
 29 31  1  0
  6 32  1  0
 32 33  1  0
 32 34  2  0
 34 35  1  0
 34  2  1  0
 29  7  1  0
 26 12  1  0
 26 17  1  0
M  END
>  <plip>  (1) 
-0.03571428571428571

>  <filename>  (1) 
[H][c]1[n][c]([H])[c]([C@@]2([H])[C](=[O])[N]([c]3[c]([H])[n]([H])[c]4[c]([H])[c]([H])[c]([H])[c]([H])[c]34)[C](=[O])[C]2([H])[H])[c]([H])[c]1[H]

$$$$
