
     RDKit          3D

 48 51  0  0  0  0  0  0  0  0999 V2000
    6.7423   -2.9806   23.6176 C   0  0  0  0  0  0  0  0  0  0  0  0
    7.4315   -2.6582   22.4235 O   0  0  0  0  0  0  0  0  0  0  0  0
    6.6924   -1.9565   21.4475 C   0  0  0  0  0  0  0  0  0  0  0  0
    6.5236   -2.7351   20.3055 O   0  0  0  0  0  0  0  0  0  0  0  0
    5.6847   -3.8563   20.4687 C   0  0  0  0  0  0  0  0  0  0  0  0
    5.4444   -4.2100   19.4600 H   0  0  0  0  0  0  0  0  0  0  0  0
    4.7669   -3.5656   21.0067 H   0  0  0  0  0  0  0  0  0  0  0  0
    6.1731   -4.6654   21.0294 H   0  0  0  0  0  0  0  0  0  0  0  0
    7.4245   -0.6679   20.9844 C   0  0  0  0  0  0  0  0  0  0  0  0
    7.6662    0.2164   22.1091 N   0  0  0  0  0  0  0  0  0  0  0  0
    8.6362    1.1649   22.1352 C   0  0  0  0  0  0  0  0  0  0  0  0
    9.4394    1.3022   21.2217 O   0  0  0  0  0  0  0  0  0  0  0  0
    8.6460    2.0070   23.4036 C   0  0  0  0  0  0  0  0  0  0  0  0
    7.7450    1.9093   24.3960 N   0  0  0  0  0  0  0  0  0  0  0  0
    8.0839    2.8617   25.2759 N   0  0  0  0  0  0  0  0  0  0  0  0
    9.1644    3.5833   24.8892 C   0  0  0  0  0  0  0  0  0  0  0  0
    9.8481    4.7376   25.4549 C   0  0  0  0  0  0  0  0  0  0  0  0
   10.9351    5.2150   24.6776 C   0  0  0  0  0  0  0  0  0  0  0  0
   11.2680    4.7323   23.4420 O   0  0  0  0  0  0  0  0  0  0  0  0
   10.8242    3.4526   22.9850 C   0  0  0  0  0  0  0  0  0  0  0  0
    9.5759    3.0192   23.6950 C   0  0  0  0  0  0  0  0  0  0  0  0
   10.6421    3.5324   21.9091 H   0  0  0  0  0  0  0  0  0  0  0  0
   11.6461    2.7248   23.1007 H   0  0  0  0  0  0  0  0  0  0  0  0
   11.7467    6.2585   25.1349 C   0  0  0  0  0  0  0  0  0  0  0  0
   11.5199    6.8190   26.3870 C   0  0  0  0  0  0  0  0  0  0  0  0
   10.4504    6.3598   27.1769 C   0  0  0  0  0  0  0  0  0  0  0  0
    9.6114    5.3476   26.7124 C   0  0  0  0  0  0  0  0  0  0  0  0
    8.7725    5.0111   27.3211 H   0  0  0  0  0  0  0  0  0  0  0  0
   10.2782    6.7990   28.1551 H   0  0  0  0  0  0  0  0  0  0  0  0
   12.1602    7.6240   26.7467 H   0  0  0  0  0  0  0  0  0  0  0  0
   12.5421    6.5966   24.4792 H   0  0  0  0  0  0  0  0  0  0  0  0
    7.5498    2.9544   26.1273 H   0  0  0  0  0  0  0  0  0  0  0  0
    7.0226    0.2329   22.8848 H   0  0  0  0  0  0  0  0  0  0  0  0
    6.6842    0.0840   19.8858 C   0  0  0  0  0  0  0  0  0  0  0  0
    5.4548    0.7219   20.1076 C   0  0  0  0  0  0  0  0  0  0  0  0
    4.8153    1.3363   19.0317 C   0  0  0  0  0  0  0  0  0  0  0  0
    5.4282    1.3119   17.7740 C   0  0  0  0  0  0  0  0  0  0  0  0
    6.6036    0.7098   17.5400 N   0  0  0  0  0  0  0  0  0  0  0  0
    7.1993    0.1177   18.5854 C   0  0  0  0  0  0  0  0  0  0  0  0
    8.1492   -0.3763   18.3703 H   0  0  0  0  0  0  0  0  0  0  0  0
    4.9588    1.7974   16.9199 H   0  0  0  0  0  0  0  0  0  0  0  0
    3.8671    1.8474   19.1556 H   0  0  0  0  0  0  0  0  0  0  0  0
    5.0049    0.7455   21.1045 H   0  0  0  0  0  0  0  0  0  0  0  0
    8.3862   -1.0239   20.5974 H   0  0  0  0  0  0  0  0  0  0  0  0
    5.7050   -1.6638   21.8586 H   0  0  0  0  0  0  0  0  0  0  0  0
    5.8219   -3.5589   23.4393 H   0  0  0  0  0  0  0  0  0  0  0  0
    7.4263   -3.5851   24.2160 H   0  0  0  0  0  0  0  0  0  0  0  0
    6.4754   -2.0930   24.2140 H   0  0  0  0  0  0  0  0  0  0  0  0
  1  2  1  0
  2  3  1  0
  3  4  1  0
  4  5  1  0
  5  6  1  0
  5  7  1  0
  5  8  1  0
  3  9  1  0
  9 10  1  0
 10 11  1  0
 11 12  2  0
 11 13  1  0
 13 14  2  0
 14 15  1  0
 15 16  1  0
 16 17  1  0
 17 18  2  0
 18 19  1  0
 19 20  1  0
 20 21  1  0
 20 22  1  0
 20 23  1  0
 18 24  1  0
 24 25  2  0
 25 26  1  0
 26 27  2  0
 27 28  1  0
 26 29  1  0
 25 30  1  0
 24 31  1  0
 15 32  1  0
 10 33  1  0
  9 34  1  0
 34 35  2  0
 35 36  1  0
 36 37  2  0
 37 38  1  0
 38 39  2  0
 39 40  1  0
 37 41  1  0
 36 42  1  0
 35 43  1  0
  9 44  1  0
  3 45  1  0
  1 46  1  0
  1 47  1  0
  1 48  1  0
 21 13  1  0
 39 34  1  0
 21 16  2  0
 27 17  1  0
M  END
>  <plip>  (1) 
-0.21428571428571427

>  <filename>  (1) 
[H][c]1[n][c]([H])[c]([C]([H])([N]([H])[C](=[O])[c]2[n][n]([H])[c]3[c]2[C]([H])([H])[O][c]2[c]([H])[c]([H])[c]([H])[c]([H])[c]2-3)[C]([H])([O][C]([H])([H])[H])[O][C]([H])([H])[H])[c]([H])[c]1[H]

$$$$
