
     RDKit          3D

 42 45  0  0  0  0  0  0  0  0999 V2000
    5.1575    2.0130   17.0771 H   0  0  0  0  0  0  0  0  0  0  0  0
    5.6133    1.3932   17.8473 C   0  0  0  0  0  0  0  0  0  0  0  0
    6.7738    0.7929   17.5306 N   0  0  0  0  0  0  0  0  0  0  0  0
    7.3746    0.0411   18.4661 C   0  0  0  0  0  0  0  0  0  0  0  0
    8.3217   -0.4253   18.1787 H   0  0  0  0  0  0  0  0  0  0  0  0
    6.8382   -0.1763   19.7599 C   0  0  0  0  0  0  0  0  0  0  0  0
    7.4362   -0.9937   20.7591 N   0  0  0  0  0  0  0  0  0  0  0  0
    6.7275   -1.9933   21.4248 C   0  0  0  0  0  0  0  0  0  0  0  0
    5.5441   -2.2581   21.3487 O   0  0  0  0  0  0  0  0  0  0  0  0
    7.6202   -2.7137   22.1489 N   0  0  0  0  0  0  0  0  0  0  0  0
    7.2430   -3.5099   22.6218 H   0  0  0  0  0  0  0  0  0  0  0  0
    8.9784   -2.2392   22.0513 C   0  0  0  0  0  0  0  0  0  0  0  0
    9.3844   -1.9877   23.0427 H   0  0  0  0  0  0  0  0  0  0  0  0
    9.6644   -2.9485   21.5779 H   0  0  0  0  0  0  0  0  0  0  0  0
    8.8372   -0.9704   21.1529 C   0  0  2  0  0  0  0  0  0  0  0  0
    9.4790   -1.0741   20.2568 H   0  0  0  0  0  0  0  0  0  0  0  0
    9.2421    0.1987   21.9075 N   0  0  0  0  0  0  0  0  0  0  0  0
   10.6828    0.2769   22.1622 C   0  0  0  0  0  0  0  0  0  0  0  0
   11.2625    0.2861   21.2173 H   0  0  0  0  0  0  0  0  0  0  0  0
   11.0394   -0.5740   22.7574 H   0  0  0  0  0  0  0  0  0  0  0  0
   10.8505    1.6124   22.8770 C   0  0  0  0  0  0  0  0  0  0  0  0
   10.5490    1.5132   23.9243 H   0  0  0  0  0  0  0  0  0  0  0  0
   11.8869    1.9604   22.8589 H   0  0  0  0  0  0  0  0  0  0  0  0
    9.8790    2.5107   22.0987 C   0  0  2  0  0  0  0  0  0  0  0  0
   10.4076    2.9309   21.2348 H   0  0  0  0  0  0  0  0  0  0  0  0
    9.1344    3.5964   22.8926 C   0  0  0  0  0  0  0  0  0  0  0  0
    9.7480    4.0503   23.6814 H   0  0  0  0  0  0  0  0  0  0  0  0
    8.8446    4.4070   22.2109 H   0  0  0  0  0  0  0  0  0  0  0  0
    7.9052    2.9956   23.4435 N   0  0  0  0  0  0  0  0  0  0  0  0
    8.0594    2.3877   24.7614 C   0  0  0  0  0  0  0  0  0  0  0  0
    8.6979    1.4884   24.7830 H   0  0  0  0  0  0  0  0  0  0  0  0
    7.0685    2.0974   25.1258 H   0  0  0  0  0  0  0  0  0  0  0  0
    8.4688    3.1152   25.4687 H   0  0  0  0  0  0  0  0  0  0  0  0
    7.4947    2.0082   22.4153 C   0  0  0  0  0  0  0  0  0  0  0  0
    6.7858    2.4848   21.7239 H   0  0  0  0  0  0  0  0  0  0  0  0
    6.9837    1.1413   22.8528 H   0  0  0  0  0  0  0  0  0  0  0  0
    8.7532    1.5543   21.6206 C   0  0  2  0  0  0  0  0  0  0  0  0
    8.5671    1.6839   20.5482 H   0  0  0  0  0  0  0  0  0  0  0  0
    5.6177    0.4444   20.0635 C   0  0  0  0  0  0  0  0  0  0  0  0
    5.1792    0.2884   21.0474 H   0  0  0  0  0  0  0  0  0  0  0  0
    5.0036    1.2476   19.0979 C   0  0  0  0  0  0  0  0  0  0  0  0
    4.0712    1.7603   19.2994 H   0  0  0  0  0  0  0  0  0  0  0  0
  1  2  1  0
  2  3  2  0
  3  4  1  0
  4  5  1  0
  4  6  2  0
  6  7  1  0
  7  8  1  0
  8  9  2  0
  8 10  1  0
 10 11  1  0
 10 12  1  0
 12 13  1  0
 12 14  1  0
 12 15  1  0
 15 16  1  6
 15 17  1  0
 17 18  1  0
 18 19  1  0
 18 20  1  0
 18 21  1  0
 21 22  1  0
 21 23  1  0
 21 24  1  0
 24 25  1  6
 24 26  1  0
 26 27  1  0
 26 28  1  0
 26 29  1  0
 29 30  1  0
 30 31  1  0
 30 32  1  0
 30 33  1  0
 29 34  1  0
 34 35  1  0
 34 36  1  0
 34 37  1  0
 37 38  1  6
  6 39  1  0
 39 40  1  0
 39 41  2  0
 41 42  1  0
 41  2  1  0
 15  7  1  0
 37 17  1  0
 37 24  1  0
M  END
>  <plip>  (1) 
-0.06896551724137931

>  <filename>  (1) 
[H][c]1[n][c]([H])[c]([N]2[C](=[O])[N]([H])[C]([H])([H])[C@]2([H])[N]2[C]([H])([H])[C]([H])([H])[C@]3([H])[C]([H])([H])[N]([C]([H])([H])[H])[C]([H])([H])[C@]23[H])[c]([H])[c]1[H]

$$$$
