
     RDKit          3D

 44 46  0  0  0  0  0  0  0  0999 V2000
    9.4003    3.0526   22.3184 C   0  0  0  0  0  0  0  0  0  0  0  0
    8.7057    2.0809   23.0691 O   0  0  0  0  0  0  0  0  0  0  0  0
    7.6641    1.3804   22.4017 C   0  0  0  0  0  0  0  0  0  0  0  0
    8.2106    0.0754   21.8082 C   0  0  0  0  0  0  0  0  0  0  0  0
    7.2628   -0.8535   21.0239 C   0  0  0  0  0  0  0  0  0  0  0  0
    6.3732   -1.5999   21.9031 N   0  0  0  0  0  0  0  0  0  0  0  0
    5.6585   -2.6587   21.4170 C   0  0  0  0  0  0  0  0  0  0  0  0
    5.5237   -2.8706   20.2263 O   0  0  0  0  0  0  0  0  0  0  0  0
    5.0125   -3.5681   22.4525 C   0  0  0  0  0  0  0  0  0  0  0  0
    6.0236   -4.2337   23.2206 N   0  0  0  0  0  0  0  0  0  0  0  0
    6.5870   -5.3334   22.6816 N   0  0  0  0  0  0  0  0  0  0  0  0
    7.4136   -5.8064   23.5879 C   0  0  0  0  0  0  0  0  0  0  0  0
    7.4158   -5.0027   24.7684 C   0  0  0  0  0  0  0  0  0  0  0  0
    8.0697   -5.0442   26.0298 C   0  0  0  0  0  0  0  0  0  0  0  0
    7.8804   -3.9791   26.8875 C   0  0  0  0  0  0  0  0  0  0  0  0
    7.0433   -2.8804   26.5379 C   0  0  0  0  0  0  0  0  0  0  0  0
    6.3437   -2.8579   25.3371 C   0  0  0  0  0  0  0  0  0  0  0  0
    6.5222   -3.9528   24.4624 C   0  0  0  0  0  0  0  0  0  0  0  0
    5.6899   -2.0350   25.0648 H   0  0  0  0  0  0  0  0  0  0  0  0
    6.9583   -2.0359   27.2176 H   0  0  0  0  0  0  0  0  0  0  0  0
    8.3773   -3.9792   27.8535 H   0  0  0  0  0  0  0  0  0  0  0  0
    8.6600   -5.9137   26.3227 H   0  0  0  0  0  0  0  0  0  0  0  0
    7.9843   -6.7045   23.3935 H   0  0  0  0  0  0  0  0  0  0  0  0
    4.3382   -3.0414   23.1267 H   0  0  0  0  0  0  0  0  0  0  0  0
    4.4411   -4.3361   21.9325 H   0  0  0  0  0  0  0  0  0  0  0  0
    6.6233   -1.6329   22.8784 H   0  0  0  0  0  0  0  0  0  0  0  0
    6.4959   -0.1362   19.9287 C   0  0  0  0  0  0  0  0  0  0  0  0
    5.2984    0.5735   20.1098 C   0  0  0  0  0  0  0  0  0  0  0  0
    4.7910    1.3059   19.0299 C   0  0  0  0  0  0  0  0  0  0  0  0
    5.4803    1.2885   17.8122 C   0  0  0  0  0  0  0  0  0  0  0  0
    6.5981    0.5769   17.6083 N   0  0  0  0  0  0  0  0  0  0  0  0
    7.0649   -0.1201   18.6501 C   0  0  0  0  0  0  0  0  0  0  0  0
    7.9573   -0.7172   18.4545 H   0  0  0  0  0  0  0  0  0  0  0  0
    5.1206    1.8582   16.9574 H   0  0  0  0  0  0  0  0  0  0  0  0
    3.8880    1.8985   19.1148 H   0  0  0  0  0  0  0  0  0  0  0  0
    4.7792    0.5544   21.0721 H   0  0  0  0  0  0  0  0  0  0  0  0
    7.9199   -1.5765   20.5095 H   0  0  0  0  0  0  0  0  0  0  0  0
    8.6742   -0.4977   22.6209 H   0  0  0  0  0  0  0  0  0  0  0  0
    9.0267    0.3577   21.1317 H   0  0  0  0  0  0  0  0  0  0  0  0
    6.9109    1.1804   23.1744 H   0  0  0  0  0  0  0  0  0  0  0  0
    7.1941    2.0101   21.6283 H   0  0  0  0  0  0  0  0  0  0  0  0
   10.1444    3.4968   22.9870 H   0  0  0  0  0  0  0  0  0  0  0  0
    9.9308    2.6338   21.4464 H   0  0  0  0  0  0  0  0  0  0  0  0
    8.7345    3.8552   21.9617 H   0  0  0  0  0  0  0  0  0  0  0  0
  1  2  1  0
  2  3  1  0
  3  4  1  0
  4  5  1  0
  5  6  1  0
  6  7  1  0
  7  8  2  0
  7  9  1  0
  9 10  1  0
 10 11  1  0
 11 12  2  0
 12 13  1  0
 13 14  2  0
 14 15  1  0
 15 16  2  0
 16 17  1  0
 17 18  2  0
 17 19  1  0
 16 20  1  0
 15 21  1  0
 14 22  1  0
 12 23  1  0
  9 24  1  0
  9 25  1  0
  6 26  1  0
  5 27  1  0
 27 28  2  0
 28 29  1  0
 29 30  2  0
 30 31  1  0
 31 32  2  0
 32 33  1  0
 30 34  1  0
 29 35  1  0
 28 36  1  0
  5 37  1  0
  4 38  1  0
  4 39  1  0
  3 40  1  0
  3 41  1  0
  1 42  1  0
  1 43  1  0
  1 44  1  0
 18 10  1  0
 32 27  1  0
 18 13  1  0
M  END
>  <plip>  (1) 
-0.10714285714285714

>  <filename>  (1) 
[H][c]1[n][c]([H])[c]([C]([H])([N]([H])[C](=[O])[C]([H])([H])[n]2[n][c]([H])[c]3[c]([H])[c]([H])[c]([H])[c]([H])[c]32)[C]([H])([H])[C]([H])([H])[O][C]([H])([H])[H])[c]([H])[c]1[H]

$$$$
