
     RDKit          3D

 45 47  0  0  0  0  0  0  0  0999 V2000
    9.6395    1.9437   22.2424 C   0  0  0  0  0  0  0  0  0  0  0  0
    8.8334    1.1672   21.3678 O   0  0  0  0  0  0  0  0  0  0  0  0
    8.0291    0.2486   22.0352 C   0  0  0  0  0  0  0  0  0  0  0  0
    7.0508    0.9385   22.7907 O   0  0  0  0  0  0  0  0  0  0  0  0
    6.9316    0.5143   24.1353 C   0  0  0  0  0  0  0  0  0  0  0  0
    6.7441   -0.5662   24.2124 H   0  0  0  0  0  0  0  0  0  0  0  0
    6.0815    1.0576   24.5486 H   0  0  0  0  0  0  0  0  0  0  0  0
    7.8311    0.7464   24.7277 H   0  0  0  0  0  0  0  0  0  0  0  0
    7.4208   -0.7531   20.9839 C   0  0  0  0  0  0  0  0  0  0  0  0
    6.6251   -1.8276   21.5814 N   0  0  0  0  0  0  0  0  0  0  0  0
    7.1652   -2.9512   22.1498 C   0  0  0  0  0  0  0  0  0  0  0  0
    8.3700   -3.1474   22.1973 O   0  0  0  0  0  0  0  0  0  0  0  0
    6.1793   -3.9228   22.7156 C   0  0  0  0  0  0  0  0  0  0  0  0
    4.8880   -4.0359   22.3180 C   0  0  0  0  0  0  0  0  0  0  0  0
    4.0530   -5.0916   22.8441 C   0  0  0  0  0  0  0  0  0  0  0  0
    2.6756   -5.1973   22.5557 C   0  0  0  0  0  0  0  0  0  0  0  0
    1.9075   -6.2181   23.0888 C   0  0  0  0  0  0  0  0  0  0  0  0
    2.5158   -7.1809   23.9130 C   0  0  0  0  0  0  0  0  0  0  0  0
    1.5455   -8.4808   24.5348 Cl  0  0  0  0  0  0  0  0  0  0  0  0
    3.8676   -7.1185   24.2174 C   0  0  0  0  0  0  0  0  0  0  0  0
    4.6286   -6.0633   23.6949 C   0  0  0  0  0  0  0  0  0  0  0  0
    5.9452   -6.0457   24.0021 O   0  0  0  0  0  0  0  0  0  0  0  0
    6.7149   -4.8500   23.7956 C   0  0  0  0  0  0  0  0  0  0  0  0
    7.7167   -5.2126   23.5328 H   0  0  0  0  0  0  0  0  0  0  0  0
    6.7995   -4.3416   24.7780 H   0  0  0  0  0  0  0  0  0  0  0  0
    4.3428   -7.8645   24.8464 H   0  0  0  0  0  0  0  0  0  0  0  0
    0.8477   -6.2870   22.8807 H   0  0  0  0  0  0  0  0  0  0  0  0
    2.2114   -4.4602   21.9107 H   0  0  0  0  0  0  0  0  0  0  0  0
    4.4286   -3.3802   21.5788 H   0  0  0  0  0  0  0  0  0  0  0  0
    5.6785   -1.6066   21.8488 H   0  0  0  0  0  0  0  0  0  0  0  0
    6.6220   -0.0574   19.8954 C   0  0  0  0  0  0  0  0  0  0  0  0
    5.4206    0.6228   20.1465 C   0  0  0  0  0  0  0  0  0  0  0  0
    4.7925    1.2950   19.0951 C   0  0  0  0  0  0  0  0  0  0  0  0
    5.3964    1.2873   17.8308 C   0  0  0  0  0  0  0  0  0  0  0  0
    6.5522    0.6611   17.5716 N   0  0  0  0  0  0  0  0  0  0  0  0
    7.1399    0.0206   18.5925 C   0  0  0  0  0  0  0  0  0  0  0  0
    8.1024   -0.4365   18.3579 H   0  0  0  0  0  0  0  0  0  0  0  0
    4.9408    1.8065   16.9887 H   0  0  0  0  0  0  0  0  0  0  0  0
    3.8707    1.8499   19.2411 H   0  0  0  0  0  0  0  0  0  0  0  0
    5.0109    0.6834   21.1569 H   0  0  0  0  0  0  0  0  0  0  0  0
    8.3007   -1.2324   20.5422 H   0  0  0  0  0  0  0  0  0  0  0  0
    8.6530   -0.3638   22.7068 H   0  0  0  0  0  0  0  0  0  0  0  0
    9.0354    2.4964   22.9726 H   0  0  0  0  0  0  0  0  0  0  0  0
   10.3491    1.3094   22.7957 H   0  0  0  0  0  0  0  0  0  0  0  0
   10.1944    2.6491   21.6232 H   0  0  0  0  0  0  0  0  0  0  0  0
  1  2  1  0
  2  3  1  0
  3  4  1  0
  4  5  1  0
  5  6  1  0
  5  7  1  0
  5  8  1  0
  3  9  1  0
  9 10  1  0
 10 11  1  0
 11 12  2  0
 11 13  1  0
 13 14  2  0
 14 15  1  0
 15 16  2  0
 16 17  1  0
 17 18  2  0
 18 19  1  0
 18 20  1  0
 20 21  2  0
 21 22  1  0
 22 23  1  0
 23 24  1  0
 23 25  1  0
 20 26  1  0
 17 27  1  0
 16 28  1  0
 14 29  1  0
 10 30  1  0
  9 31  1  0
 31 32  2  0
 32 33  1  0
 33 34  2  0
 34 35  1  0
 35 36  2  0
 36 37  1  0
 34 38  1  0
 33 39  1  0
 32 40  1  0
  9 41  1  0
  3 42  1  0
  1 43  1  0
  1 44  1  0
  1 45  1  0
 23 13  1  0
 36 31  1  0
 21 15  1  0
M  END
>  <plip>  (1) 
-0.06666666666666667

>  <filename>  (1) 
[H][C]1=[C]([C](=[O])[N]([H])[C]([H])([c]2[c]([H])[n][c]([H])[c]([H])[c]2[H])[C]([H])([O][C]([H])([H])[H])[O][C]([H])([H])[H])[C]([H])([H])[O][c]2[c]([H])[c]([Cl])[c]([H])[c]([H])[c]21

$$$$
