
     RDKit          3D

 30 32  0  0  0  0  0  0  0  0999 V2000
    7.1772   -2.0086   21.1821 C   0  0  0  0  0  0  0  0  0  0  0  0
    7.2365   -0.4907   21.1955 C   0  0  1  0  0  0  0  0  0  0  0  0
    8.6240   -0.0779   21.1766 N   0  0  0  0  0  0  0  0  0  0  0  0
    9.0446    1.1205   21.5561 C   0  0  0  0  0  0  0  0  0  0  0  0
    8.1146    2.0039   21.9496 N   0  0  0  0  0  0  0  0  0  0  0  0
    8.5631    3.1653   22.3849 C   0  0  0  0  0  0  0  0  0  0  0  0
    9.9320    3.4767   22.4559 C   0  0  0  0  0  0  0  0  0  0  0  0
   10.6731    4.6514   22.8557 C   0  0  0  0  0  0  0  0  0  0  0  0
   11.9970    4.5249   22.6139 C   0  0  0  0  0  0  0  0  0  0  0  0
   12.4247    2.9723   21.9483 S   0  0  0  0  0  0  0  0  0  0  0  0
   10.7641    2.4615   21.9420 C   0  0  0  0  0  0  0  0  0  0  0  0
   10.3705    1.2740   21.5055 N   0  0  0  0  0  0  0  0  0  0  0  0
   12.7782    5.2590   22.7667 H   0  0  0  0  0  0  0  0  0  0  0  0
   10.2230    5.5400   23.2866 H   0  0  0  0  0  0  0  0  0  0  0  0
    7.8046    3.8862   22.6972 H   0  0  0  0  0  0  0  0  0  0  0  0
    9.4088   -0.6809   21.0390 H   0  0  0  0  0  0  0  0  0  0  0  0
    6.5349    0.1791   20.0345 C   0  0  0  0  0  0  0  0  0  0  0  0
    5.2840    0.7989   20.1517 C   0  0  0  0  0  0  0  0  0  0  0  0
    4.7099    1.3651   19.0103 C   0  0  0  0  0  0  0  0  0  0  0  0
    5.4184    1.3095   17.8063 C   0  0  0  0  0  0  0  0  0  0  0  0
    6.6195    0.7291   17.6745 N   0  0  0  0  0  0  0  0  0  0  0  0
    7.1579    0.1982   18.7780 C   0  0  0  0  0  0  0  0  0  0  0  0
    8.1483   -0.2411   18.6608 H   0  0  0  0  0  0  0  0  0  0  0  0
    5.0019    1.7226   16.8917 H   0  0  0  0  0  0  0  0  0  0  0  0
    3.7431    1.8551   19.0388 H   0  0  0  0  0  0  0  0  0  0  0  0
    4.7908    0.8710   21.1249 H   0  0  0  0  0  0  0  0  0  0  0  0
    6.7789   -0.1361   22.1291 H   0  0  0  0  0  0  0  0  0  0  0  0
    7.5152   -2.3732   20.2162 H   0  0  0  0  0  0  0  0  0  0  0  0
    6.1650   -2.3881   21.3579 H   0  0  0  0  0  0  0  0  0  0  0  0
    7.8334   -2.4069   21.9630 H   0  0  0  0  0  0  0  0  0  0  0  0
  1  2  1  0
  2  3  1  0
  3  4  1  0
  4  5  2  0
  5  6  1  0
  6  7  2  0
  7  8  1  0
  8  9  2  0
  9 10  1  0
 10 11  1  0
 11 12  2  0
  9 13  1  0
  8 14  1  0
  6 15  1  0
  3 16  1  0
  2 17  1  0
 17 18  2  0
 18 19  1  0
 19 20  2  0
 20 21  1  0
 21 22  2  0
 22 23  1  0
 20 24  1  0
 19 25  1  0
 18 26  1  0
  2 27  1  1
  1 28  1  0
  1 29  1  0
  1 30  1  0
 12  4  1  0
 22 17  1  0
 11  7  1  0
M  END
>  <plip>  (1) 
-0.034482758620689655

>  <filename>  (1) 
[H][c]1[n][c]([H])[c]([C@]([H])([N]([H])[c]2[n][c]([H])[c]3[c]([H])[c]([H])[s][c]3[n]2)[C]([H])([H])[H])[c]([H])[c]1[H]

$$$$
