
     RDKit          3D

 42 44  0  0  0  0  0  0  0  0999 V2000
   10.8238    0.5138   24.4768 C   0  0  0  0  0  0  0  0  0  0  0  0
    9.9801    1.0782   23.3427 C   0  0  0  0  0  0  0  0  0  0  0  0
   10.2652    2.2517   22.7500 C   0  0  0  0  0  0  0  0  0  0  0  0
   11.6364    2.7893   22.6073 C   0  0  0  0  0  0  0  0  0  0  0  0
   12.7398    1.9203   22.6306 C   0  0  0  0  0  0  0  0  0  0  0  0
   14.0247    2.4250   22.7549 C   0  0  0  0  0  0  0  0  0  0  0  0
   14.2366    3.8024   22.7588 C   0  0  0  0  0  0  0  0  0  0  0  0
   13.1524    4.6663   22.6264 C   0  0  0  0  0  0  0  0  0  0  0  0
   13.4656    6.3729   22.6207 Cl  0  0  0  0  0  0  0  0  0  0  0  0
   11.8513    4.1748   22.5299 C   0  0  0  0  0  0  0  0  0  0  0  0
   11.0184    4.8581   22.4146 H   0  0  0  0  0  0  0  0  0  0  0  0
   15.2312    4.1964   22.8828 H   0  0  0  0  0  0  0  0  0  0  0  0
   14.8615    1.7361   22.8118 H   0  0  0  0  0  0  0  0  0  0  0  0
   12.5723    0.8517   22.5824 H   0  0  0  0  0  0  0  0  0  0  0  0
    9.4763    2.9461   22.4401 H   0  0  0  0  0  0  0  0  0  0  0  0
    8.7785    0.2277   22.9798 C   0  0  0  0  0  0  0  0  0  0  0  0
    8.3275   -0.5839   23.7734 O   0  0  0  0  0  0  0  0  0  0  0  0
    8.2619    0.3747   21.7262 N   0  0  0  0  0  0  0  0  0  0  0  0
    7.1548   -0.4522   21.2728 C   0  0  0  0  0  0  0  0  0  0  0  0
    6.5554    0.1565   20.0259 C   0  0  0  0  0  0  0  0  0  0  0  0
    5.3275    0.8341   20.0588 C   0  0  0  0  0  0  0  0  0  0  0  0
    4.8368    1.3972   18.8783 C   0  0  0  0  0  0  0  0  0  0  0  0
    5.5852    1.2582   17.7056 C   0  0  0  0  0  0  0  0  0  0  0  0
    6.7568    0.6074   17.6524 N   0  0  0  0  0  0  0  0  0  0  0  0
    7.2215    0.0798   18.7942 C   0  0  0  0  0  0  0  0  0  0  0  0
    8.1747   -0.4481   18.7109 H   0  0  0  0  0  0  0  0  0  0  0  0
    5.2265    1.6754   16.7651 H   0  0  0  0  0  0  0  0  0  0  0  0
    3.8997    1.9425   18.8577 H   0  0  0  0  0  0  0  0  0  0  0  0
    4.7716    0.9212   20.9957 H   0  0  0  0  0  0  0  0  0  0  0  0
    7.5995   -1.9043   21.0689 C   0  0  0  0  0  0  0  0  0  0  0  0
    6.5695   -2.9938   20.9150 C   0  0  0  0  0  0  0  0  0  0  0  0
    7.4118   -2.9309   22.1531 C   0  0  0  0  0  0  0  0  0  0  0  0
    6.9464   -2.5899   23.0768 H   0  0  0  0  0  0  0  0  0  0  0  0
    8.1954   -3.6713   22.2961 H   0  0  0  0  0  0  0  0  0  0  0  0
    5.5224   -2.7100   21.0015 H   0  0  0  0  0  0  0  0  0  0  0  0
    6.7519   -3.8079   20.2186 H   0  0  0  0  0  0  0  0  0  0  0  0
    8.5163   -1.9865   20.4857 H   0  0  0  0  0  0  0  0  0  0  0  0
    6.3851   -0.4507   22.0621 H   0  0  0  0  0  0  0  0  0  0  0  0
    8.5647    1.1497   21.1637 H   0  0  0  0  0  0  0  0  0  0  0  0
   10.1811    0.1026   25.2617 H   0  0  0  0  0  0  0  0  0  0  0  0
   11.4792    1.2803   24.9068 H   0  0  0  0  0  0  0  0  0  0  0  0
   11.4491   -0.3177   24.1225 H   0  0  0  0  0  0  0  0  0  0  0  0
  1  2  1  0
  2  3  2  3
  3  4  1  0
  4  5  2  0
  5  6  1  0
  6  7  2  0
  7  8  1  0
  8  9  1  0
  8 10  2  0
 10 11  1  0
  7 12  1  0
  6 13  1  0
  5 14  1  0
  3 15  1  0
  2 16  1  0
 16 17  2  0
 16 18  1  0
 18 19  1  0
 19 20  1  0
 20 21  2  0
 21 22  1  0
 22 23  2  0
 23 24  1  0
 24 25  2  0
 25 26  1  0
 23 27  1  0
 22 28  1  0
 21 29  1  0
 19 30  1  0
 30 31  1  0
 31 32  1  0
 32 33  1  0
 32 34  1  0
 31 35  1  0
 31 36  1  0
 30 37  1  0
 19 38  1  0
 18 39  1  0
  1 40  1  0
  1 41  1  0
  1 42  1  0
 10  4  1  0
 25 20  1  0
 32 30  1  0
M  END
>  <plip>  (1) 
-0.03571428571428571

>  <filename>  (1) 
[H][C](=[C]([C](=[O])[N]([H])[C]([H])([c]1[c]([H])[n][c]([H])[c]([H])[c]1[H])[C]1([H])[C]([H])([H])[C]1([H])[H])[C]([H])([H])[H])[c]1[c]([H])[c]([H])[c]([H])[c]([Cl])[c]1[H]

$$$$
