
     RDKit          3D

 34 36  0  0  0  0  0  0  0  0999 V2000
    9.4572   -3.8752   24.4717 C   0  0  0  0  0  0  0  0  0  0  0  0
    8.0854   -3.3725   24.4739 N   0  0  0  0  0  0  0  0  0  0  0  0
    7.8758   -1.9508   24.2421 C   0  0  0  0  0  0  0  0  0  0  0  0
    7.8220   -1.4885   22.8000 C   0  0  0  0  0  0  0  0  0  0  0  0
    6.9247   -0.7538   22.2208 N   0  0  0  0  0  0  0  0  0  0  0  0
    7.4003   -0.6856   20.9308 C   0  0  0  0  0  0  0  0  0  0  0  0
    6.6584    0.0140   19.8931 C   0  0  0  0  0  0  0  0  0  0  0  0
    5.4372    0.6544   20.1571 C   0  0  0  0  0  0  0  0  0  0  0  0
    4.8052    1.3071   19.1021 C   0  0  0  0  0  0  0  0  0  0  0  0
    5.4044    1.2876   17.8374 C   0  0  0  0  0  0  0  0  0  0  0  0
    6.5650    0.6687   17.5803 N   0  0  0  0  0  0  0  0  0  0  0  0
    7.1771    0.0521   18.5927 C   0  0  0  0  0  0  0  0  0  0  0  0
    8.1263   -0.4268   18.3566 H   0  0  0  0  0  0  0  0  0  0  0  0
    4.9410    1.7904   16.9924 H   0  0  0  0  0  0  0  0  0  0  0  0
    3.8737    1.8411   19.2423 H   0  0  0  0  0  0  0  0  0  0  0  0
    5.0081    0.6437   21.1606 H   0  0  0  0  0  0  0  0  0  0  0  0
    8.5317   -1.3100   20.7379 N   0  0  0  0  0  0  0  0  0  0  0  0
    8.8241   -1.8325   21.9885 O   0  0  0  0  0  0  0  0  0  0  0  0
    8.6959   -1.3938   24.7148 H   0  0  0  0  0  0  0  0  0  0  0  0
    6.9450   -1.6150   24.7180 H   0  0  0  0  0  0  0  0  0  0  0  0
    6.9944   -4.2502   24.4665 C   0  0  0  0  0  0  0  0  0  0  0  0
    7.0905   -5.4793   25.1438 C   0  0  0  0  0  0  0  0  0  0  0  0
    5.9839   -6.3240   25.2461 C   0  0  0  0  0  0  0  0  0  0  0  0
    4.7994   -6.0169   24.5758 C   0  0  0  0  0  0  0  0  0  0  0  0
    4.6936   -4.8111   23.8755 C   0  0  0  0  0  0  0  0  0  0  0  0
    5.7727   -3.9210   23.8325 C   0  0  0  0  0  0  0  0  0  0  0  0
    5.6819   -2.9641   23.3277 H   0  0  0  0  0  0  0  0  0  0  0  0
    3.7558   -4.5441   23.3914 H   0  0  0  0  0  0  0  0  0  0  0  0
    3.9760   -6.7240   24.5929 H   0  0  0  0  0  0  0  0  0  0  0  0
    6.0558   -7.2310   25.8461 H   0  0  0  0  0  0  0  0  0  0  0  0
    8.0468   -5.7433   25.5802 H   0  0  0  0  0  0  0  0  0  0  0  0
   10.1263   -3.0607   24.1722 H   0  0  0  0  0  0  0  0  0  0  0  0
    9.7897   -4.2436   25.4573 H   0  0  0  0  0  0  0  0  0  0  0  0
    9.5779   -4.6902   23.7440 H   0  0  0  0  0  0  0  0  0  0  0  0
  1  2  1  0
  2  3  1  0
  3  4  1  0
  4  5  2  0
  5  6  1  0
  6  7  1  0
  7  8  2  0
  8  9  1  0
  9 10  2  0
 10 11  1  0
 11 12  2  0
 12 13  1  0
 10 14  1  0
  9 15  1  0
  8 16  1  0
  6 17  2  0
 17 18  1  0
  3 19  1  0
  3 20  1  0
  2 21  1  0
 21 22  2  0
 22 23  1  0
 23 24  2  0
 24 25  1  0
 25 26  2  0
 26 27  1  0
 25 28  1  0
 24 29  1  0
 23 30  1  0
 22 31  1  0
  1 32  1  0
  1 33  1  0
  1 34  1  0
 18  4  1  0
 26 21  1  0
 12  7  1  0
M  END
>  <plip>  (1) 
-0.03571428571428571

>  <filename>  (1) 
[H][c]1[n][c]([H])[c](-[c]2[n][o][c]([C]([H])([H])[N]([c]3[c]([H])[c]([H])[c]([H])[c]([H])[c]3[H])[C]([H])([H])[H])[n]2)[c]([H])[c]1[H]

$$$$
