
     RDKit          3D

 30 31  0  0  0  0  0  0  0  0999 V2000
    8.8012   -1.3378   27.7056 N   0  0  0  0  0  0  0  0  0  0  0  0
    8.0527   -2.2658   27.0760 C   0  0  0  0  0  0  0  0  0  0  0  0
    8.0576   -3.4213   27.4719 O   0  0  0  0  0  0  0  0  0  0  0  0
    7.2380   -1.7689   25.8177 C   0  0  0  0  0  0  0  0  0  0  0  0
    7.1278   -0.5884   25.5267 O   0  0  0  0  0  0  0  0  0  0  0  0
    6.7284   -2.7983   25.0675 N   0  0  0  0  0  0  0  0  0  0  0  0
    6.3833   -2.7000   23.7111 N   0  0  0  0  0  0  0  0  0  0  0  0
    7.2874   -2.1290   22.8016 C   0  0  0  0  0  0  0  0  0  0  0  0
    8.6881   -2.2211   22.8956 C   0  0  0  0  0  0  0  0  0  0  0  0
    9.4379   -1.4855   21.9824 C   0  0  0  0  0  0  0  0  0  0  0  0
    8.7662   -0.7701   20.9899 C   0  0  0  0  0  0  0  0  0  0  0  0
    7.3636   -0.8070   20.9509 C   0  0  0  0  0  0  0  0  0  0  0  0
    6.6054   -0.0758   19.9310 C   0  0  0  0  0  0  0  0  0  0  0  0
    5.3939    0.5868   20.1712 C   0  0  0  0  0  0  0  0  0  0  0  0
    4.8153    1.2904   19.1159 C   0  0  0  0  0  0  0  0  0  0  0  0
    5.4450    1.2747   17.8668 C   0  0  0  0  0  0  0  0  0  0  0  0
    6.5792    0.6051   17.6219 N   0  0  0  0  0  0  0  0  0  0  0  0
    7.1385   -0.0464   18.6414 C   0  0  0  0  0  0  0  0  0  0  0  0
    8.0548   -0.5897   18.4089 H   0  0  0  0  0  0  0  0  0  0  0  0
    5.0169    1.8111   17.0220 H   0  0  0  0  0  0  0  0  0  0  0  0
    3.8953    1.8467   19.2432 H   0  0  0  0  0  0  0  0  0  0  0  0
    4.9309    0.5478   21.1585 H   0  0  0  0  0  0  0  0  0  0  0  0
    6.6421   -1.4718   21.8515 N   0  0  0  0  0  0  0  0  0  0  0  0
    9.3044   -0.1442   20.2927 H   0  0  0  0  0  0  0  0  0  0  0  0
   10.5250   -1.4677   22.0600 H   0  0  0  0  0  0  0  0  0  0  0  0
    9.1285   -2.8287   23.6787 H   0  0  0  0  0  0  0  0  0  0  0  0
    5.5282   -2.1662   23.5141 H   0  0  0  0  0  0  0  0  0  0  0  0
    6.8089   -3.7418   25.4284 H   0  0  0  0  0  0  0  0  0  0  0  0
    9.2585   -1.6887   28.5304 H   0  0  0  0  0  0  0  0  0  0  0  0
    8.8010   -0.3528   27.4837 H   0  0  0  0  0  0  0  0  0  0  0  0
  1  2  1  0
  2  3  2  0
  2  4  1  0
  4  5  2  0
  4  6  1  0
  6  7  1  0
  7  8  1  0
  8  9  2  0
  9 10  1  0
 10 11  2  0
 11 12  1  0
 12 13  1  0
 13 14  2  0
 14 15  1  0
 15 16  2  0
 16 17  1  0
 17 18  2  0
 18 19  1  0
 16 20  1  0
 15 21  1  0
 14 22  1  0
 12 23  2  0
 11 24  1  0
 10 25  1  0
  9 26  1  0
  7 27  1  0
  6 28  1  0
  1 29  1  0
  1 30  1  0
 23  8  1  0
 18 13  1  0
M  END
>  <plip>  (1) 
-0.034482758620689655

>  <filename>  (1) 
[H][c]1[n][c]([H])[c](-[c]2[n][c]([N]([H])[N]([H])[C](=[O])[C](=[O])[N]([H])[H])[c]([H])[c]([H])[c]2[H])[c]([H])[c]1[H]

$$$$
