
     RDKit          3D

 30 31  0  0  0  0  0  0  0  0999 V2000
    9.1798   -4.1016   26.6705 C   0  0  0  0  0  0  0  0  0  0  0  0
    9.0020   -4.5634   25.2237 C   0  0  0  0  0  0  0  0  0  0  0  0
    7.5898   -4.3851   24.7330 C   0  0  0  0  0  0  0  0  0  0  0  0
    7.0487   -3.2292   24.3493 C   0  0  0  0  0  0  0  0  0  0  0  0
    7.7530   -1.8966   24.2424 C   0  0  0  0  0  0  0  0  0  0  0  0
    7.8775   -1.4654   22.8569 N   0  0  0  0  0  0  0  0  0  0  0  0
    6.8999   -0.7510   22.2056 N   0  0  0  0  0  0  0  0  0  0  0  0
    7.3334   -0.6782   20.9911 C   0  0  0  0  0  0  0  0  0  0  0  0
    6.6531    0.0117   19.9069 C   0  0  0  0  0  0  0  0  0  0  0  0
    5.4323    0.6570   20.1612 C   0  0  0  0  0  0  0  0  0  0  0  0
    4.8039    1.3111   19.1091 C   0  0  0  0  0  0  0  0  0  0  0  0
    5.4096    1.2864   17.8463 C   0  0  0  0  0  0  0  0  0  0  0  0
    6.5753    0.6705   17.5929 N   0  0  0  0  0  0  0  0  0  0  0  0
    7.1858    0.0528   18.6114 C   0  0  0  0  0  0  0  0  0  0  0  0
    8.1299   -0.4324   18.3735 H   0  0  0  0  0  0  0  0  0  0  0  0
    4.9186    1.7717   17.0044 H   0  0  0  0  0  0  0  0  0  0  0  0
    3.8716    1.8455   19.2620 H   0  0  0  0  0  0  0  0  0  0  0  0
    5.0065    0.6303   21.1677 H   0  0  0  0  0  0  0  0  0  0  0  0
    8.5034   -1.3181   20.7821 O   0  0  0  0  0  0  0  0  0  0  0  0
    8.8657   -1.8632   22.0054 C   0  0  0  0  0  0  0  0  0  0  0  0
    9.8519   -2.5204   22.2034 O   0  0  0  0  0  0  0  0  0  0  0  0
    7.2033   -1.1272   24.7948 H   0  0  0  0  0  0  0  0  0  0  0  0
    8.7616   -1.9409   24.6685 H   0  0  0  0  0  0  0  0  0  0  0  0
    6.0079   -3.2062   24.0361 H   0  0  0  0  0  0  0  0  0  0  0  0
    6.9479   -5.2657   24.7458 H   0  0  0  0  0  0  0  0  0  0  0  0
    9.7023   -4.0289   24.5673 H   0  0  0  0  0  0  0  0  0  0  0  0
    9.2677   -5.6234   25.1599 H   0  0  0  0  0  0  0  0  0  0  0  0
    8.9270   -3.0428   26.7916 H   0  0  0  0  0  0  0  0  0  0  0  0
    8.5293   -4.6729   27.3403 H   0  0  0  0  0  0  0  0  0  0  0  0
   10.2117   -4.2440   27.0003 H   0  0  0  0  0  0  0  0  0  0  0  0
  1  2  1  0
  2  3  1  0
  3  4  2  3
  4  5  1  0
  5  6  1  0
  6  7  1  0
  7  8  2  0
  8  9  1  0
  9 10  2  0
 10 11  1  0
 11 12  2  0
 12 13  1  0
 13 14  2  0
 14 15  1  0
 12 16  1  0
 11 17  1  0
 10 18  1  0
  8 19  1  0
 19 20  1  0
 20 21  2  0
  5 22  1  0
  5 23  1  0
  4 24  1  0
  3 25  1  0
  2 26  1  0
  2 27  1  0
  1 28  1  0
  1 29  1  0
  1 30  1  0
 20  6  1  0
 14  9  1  0
M  END
>  <plip>  (1) 
-0.03571428571428571

>  <filename>  (1) 
[H][C](=[C]([H])[C]([H])([H])[C]([H])([H])[H])[C]([H])([H])[n]1[n][c](-[c]2[c]([H])[n][c]([H])[c]([H])[c]2[H])[o][c]1=[O]

$$$$
