
     RDKit          3D

 33 35  0  0  0  0  0  0  0  0999 V2000
    5.0131    1.7708   16.9792 H   0  0  0  0  0  0  0  0  0  0  0  0
    5.4544    1.2454   17.8237 C   0  0  0  0  0  0  0  0  0  0  0  0
    6.5992    0.5805   17.5880 N   0  0  0  0  0  0  0  0  0  0  0  0
    7.1694   -0.0561   18.6173 C   0  0  0  0  0  0  0  0  0  0  0  0
    8.0922   -0.5960   18.3966 H   0  0  0  0  0  0  0  0  0  0  0  0
    6.6604   -0.0548   19.9346 C   0  0  0  0  0  0  0  0  0  0  0  0
    7.3407   -0.6641   20.9802 N   0  0  0  0  0  0  0  0  0  0  0  0
    8.2648   -1.0502   20.8228 H   0  0  0  0  0  0  0  0  0  0  0  0
    6.9680   -0.4423   22.2917 N   0  0  0  0  0  0  0  0  0  0  0  0
    6.7791   -1.5863   23.0939 C   0  0  0  0  0  0  0  0  0  0  0  0
    6.2290   -2.7650   22.4756 C   0  0  0  0  0  0  0  0  0  0  0  0
    6.0524   -2.7158   21.4072 H   0  0  0  0  0  0  0  0  0  0  0  0
    5.9555   -3.8959   23.1997 C   0  0  0  0  0  0  0  0  0  0  0  0
    5.5316   -4.7843   22.7437 H   0  0  0  0  0  0  0  0  0  0  0  0
    6.2618   -3.9570   24.5937 C   0  0  0  0  0  0  0  0  0  0  0  0
    6.0033   -5.1272   25.2602 N   0  0  0  0  0  0  0  0  0  0  0  0
    6.3746   -5.1977   26.5184 C   0  0  0  0  0  0  0  0  0  0  0  0
    6.1684   -6.1351   27.0388 H   0  0  0  0  0  0  0  0  0  0  0  0
    7.0268   -4.1446   27.2218 C   0  0  0  0  0  0  0  0  0  0  0  0
    7.3463   -4.3319   28.2395 H   0  0  0  0  0  0  0  0  0  0  0  0
    7.2586   -2.9494   26.5757 C   0  0  0  0  0  0  0  0  0  0  0  0
    7.7615   -2.1272   27.0868 H   0  0  0  0  0  0  0  0  0  0  0  0
    6.8612   -2.8104   25.2125 C   0  0  0  0  0  0  0  0  0  0  0  0
    7.0771   -1.6195   24.4477 C   0  0  0  0  0  0  0  0  0  0  0  0
    7.5035   -0.7567   24.9489 H   0  0  0  0  0  0  0  0  0  0  0  0
    7.3793    0.8280   22.8708 C   0  0  0  0  0  0  0  0  0  0  0  0
    7.2756    1.6172   22.1167 H   0  0  0  0  0  0  0  0  0  0  0  0
    6.7202    1.0803   23.7098 H   0  0  0  0  0  0  0  0  0  0  0  0
    8.4283    0.8126   23.2078 H   0  0  0  0  0  0  0  0  0  0  0  0
    5.4316    0.5941   20.1445 C   0  0  0  0  0  0  0  0  0  0  0  0
    5.0053    0.5606   21.1464 H   0  0  0  0  0  0  0  0  0  0  0  0
    4.8331    1.2589   19.0769 C   0  0  0  0  0  0  0  0  0  0  0  0
    3.9017    1.7930   19.2173 H   0  0  0  0  0  0  0  0  0  0  0  0
  1  2  1  0
  2  3  2  0
  3  4  1  0
  4  5  1  0
  4  6  2  0
  6  7  1  0
  7  8  1  0
  7  9  1  0
  9 10  1  0
 10 11  2  0
 11 12  1  0
 11 13  1  0
 13 14  1  0
 13 15  2  0
 15 16  1  0
 16 17  2  0
 17 18  1  0
 17 19  1  0
 19 20  1  0
 19 21  2  0
 21 22  1  0
 21 23  1  0
 23 24  2  0
 24 25  1  0
  9 26  1  0
 26 27  1  0
 26 28  1  0
 26 29  1  0
  6 30  1  0
 30 31  1  0
 30 32  2  0
 32 33  1  0
 32  2  1  0
 24 10  1  0
 23 15  1  0
M  END
>  <plip>  (1) 
-0.03571428571428571

>  <filename>  (1) 
[H][c]1[n][c]([H])[c]([N]([H])[N]([c]2[c]([H])[c]([H])[c]3[n][c]([H])[c]([H])[c]([H])[c]3[c]2[H])[C]([H])([H])[H])[c]([H])[c]1[H]

$$$$
