
     RDKit          3D

 39 41  0  0  0  0  0  0  0  0999 V2000
    6.0034   -4.0813   20.5313 C   0  0  0  0  0  0  0  0  0  0  0  0
    6.6376   -2.8554   20.2861 O   0  0  0  0  0  0  0  0  0  0  0  0
    6.6877   -2.0031   21.3992 C   0  0  0  0  0  0  0  0  0  0  0  0
    7.4125   -0.7231   20.9791 C   0  0  2  0  0  0  0  0  0  0  0  0
    7.6694    0.0832   22.1634 N   0  0  0  0  0  0  0  0  0  0  0  0
    8.4051    1.2262   22.1265 C   0  0  0  0  0  0  0  0  0  0  0  0
    9.0967    1.5253   21.1653 O   0  0  0  0  0  0  0  0  0  0  0  0
    8.3326    2.0627   23.3687 C   0  0  0  0  0  0  0  0  0  0  0  0
    7.5614    2.0031   24.5120 C   0  0  0  0  0  0  0  0  0  0  0  0
    7.9391    3.0893   25.3446 C   0  0  0  0  0  0  0  0  0  0  0  0
    8.9525    3.7984   24.6640 C   0  0  0  0  0  0  0  0  0  0  0  0
    9.1691    3.1628   23.4745 N   0  0  0  0  0  0  0  0  0  0  0  0
    9.7950    3.4612   22.7350 H   0  0  0  0  0  0  0  0  0  0  0  0
    9.5432    4.9414   25.2503 C   0  0  0  0  0  0  0  0  0  0  0  0
   10.5094    5.6071   24.6102 F   0  0  0  0  0  0  0  0  0  0  0  0
    9.1008    5.3498   26.5046 C   0  0  0  0  0  0  0  0  0  0  0  0
    9.8122    6.7346   27.2644 Cl  0  0  0  0  0  0  0  0  0  0  0  0
    8.0737    4.6454   27.1832 C   0  0  0  0  0  0  0  0  0  0  0  0
    7.4962    3.5198   26.6196 C   0  0  0  0  0  0  0  0  0  0  0  0
    6.7200    2.9828   27.1548 H   0  0  0  0  0  0  0  0  0  0  0  0
    7.7679    5.0137   28.1583 H   0  0  0  0  0  0  0  0  0  0  0  0
    6.7819    1.3072   24.7957 H   0  0  0  0  0  0  0  0  0  0  0  0
    7.0509    0.0142   22.9532 H   0  0  0  0  0  0  0  0  0  0  0  0
    6.6598    0.0397   19.8947 C   0  0  0  0  0  0  0  0  0  0  0  0
    5.4344    0.6780   20.1276 C   0  0  0  0  0  0  0  0  0  0  0  0
    4.7961    1.3241   19.0668 C   0  0  0  0  0  0  0  0  0  0  0  0
    5.4068    1.3042   17.8054 C   0  0  0  0  0  0  0  0  0  0  0  0
    6.5654    0.6815   17.5518 N   0  0  0  0  0  0  0  0  0  0  0  0
    7.1656    0.0773   18.5896 C   0  0  0  0  0  0  0  0  0  0  0  0
    8.1150   -0.4069   18.3601 H   0  0  0  0  0  0  0  0  0  0  0  0
    4.9330    1.8006   16.9607 H   0  0  0  0  0  0  0  0  0  0  0  0
    3.8527    1.8451   19.2045 H   0  0  0  0  0  0  0  0  0  0  0  0
    4.9917    0.6897   21.1268 H   0  0  0  0  0  0  0  0  0  0  0  0
    8.3739   -1.0329   20.5561 H   0  0  0  0  0  0  0  0  0  0  0  0
    5.6641   -1.7552   21.7306 H   0  0  0  0  0  0  0  0  0  0  0  0
    7.2273   -2.4668   22.2459 H   0  0  0  0  0  0  0  0  0  0  0  0
    5.0020   -3.9189   20.9549 H   0  0  0  0  0  0  0  0  0  0  0  0
    5.9121   -4.5919   19.5664 H   0  0  0  0  0  0  0  0  0  0  0  0
    6.5777   -4.7088   21.2327 H   0  0  0  0  0  0  0  0  0  0  0  0
  1  2  1  0
  2  3  1  0
  3  4  1  0
  4  5  1  0
  5  6  1  0
  6  7  2  0
  6  8  1  0
  8  9  2  0
  9 10  1  0
 10 11  2  0
 11 12  1  0
 12 13  1  0
 11 14  1  0
 14 15  1  0
 14 16  2  0
 16 17  1  0
 16 18  1  0
 18 19  2  0
 19 20  1  0
 18 21  1  0
  9 22  1  0
  5 23  1  0
  4 24  1  0
 24 25  2  0
 25 26  1  0
 26 27  2  0
 27 28  1  0
 28 29  2  0
 29 30  1  0
 27 31  1  0
 26 32  1  0
 25 33  1  0
  4 34  1  6
  3 35  1  0
  3 36  1  0
  1 37  1  0
  1 38  1  0
  1 39  1  0
 12  8  1  0
 29 24  1  0
 19 10  1  0
M  END
>  <plip>  (1) 
-0.21428571428571427

>  <filename>  (1) 
[H][c]1[n][c]([H])[c]([C@@]([H])([N]([H])[C](=[O])[c]2[c]([H])[c]3[c]([H])[c]([H])[c]([Cl])[c]([F])[c]3[n]2[H])[C]([H])([H])[O][C]([H])([H])[H])[c]([H])[c]1[H]

$$$$
