
     RDKit          3D

 26 27  0  0  0  0  0  0  0  0999 V2000
    4.9225    1.7720   17.0038 H   0  0  0  0  0  0  0  0  0  0  0  0
    5.4085    1.2860   17.8499 C   0  0  0  0  0  0  0  0  0  0  0  0
    6.5786    0.6639   17.6063 N   0  0  0  0  0  0  0  0  0  0  0  0
    7.1830    0.0500   18.6253 C   0  0  0  0  0  0  0  0  0  0  0  0
    8.1275   -0.4359   18.3919 H   0  0  0  0  0  0  0  0  0  0  0  0
    6.6603    0.0016   19.9360 C   0  0  0  0  0  0  0  0  0  0  0  0
    7.3870   -0.7105   20.9118 N   0  0  0  0  0  0  0  0  0  0  0  0
    7.0031   -0.7434   22.0929 N   0  0  0  0  0  0  0  0  0  0  0  0
    7.8488   -1.6758   23.2984 S   0  0  0  0  0  0  0  0  0  0  0  0
    7.9877   -3.0384   22.8113 O   0  0  0  0  0  0  0  0  0  0  0  0
    7.2011   -1.3687   24.5572 O   0  0  0  0  0  0  0  0  0  0  0  0
    9.5083   -0.9357   23.3479 C   0  0  0  0  0  0  0  0  0  0  0  0
   10.5075   -1.4344   22.5006 C   0  0  0  0  0  0  0  0  0  0  0  0
   10.3046   -2.2507   21.8101 H   0  0  0  0  0  0  0  0  0  0  0  0
   11.7908   -0.8862   22.5492 C   0  0  0  0  0  0  0  0  0  0  0  0
   12.5789   -1.2703   21.9101 H   0  0  0  0  0  0  0  0  0  0  0  0
   12.0667    0.1528   23.4421 C   0  0  0  0  0  0  0  0  0  0  0  0
   13.6707    0.8273   23.5079 Cl  0  0  0  0  0  0  0  0  0  0  0  0
   11.0699    0.6579   24.2815 C   0  0  0  0  0  0  0  0  0  0  0  0
   11.3028    1.4681   24.9653 H   0  0  0  0  0  0  0  0  0  0  0  0
    9.7823    0.1174   24.2333 C   0  0  0  0  0  0  0  0  0  0  0  0
    9.0159    0.5189   24.8946 H   0  0  0  0  0  0  0  0  0  0  0  0
    5.4351    0.6507   20.1815 C   0  0  0  0  0  0  0  0  0  0  0  0
    4.9807    0.6442   21.1745 H   0  0  0  0  0  0  0  0  0  0  0  0
    4.8112    1.3053   19.1147 C   0  0  0  0  0  0  0  0  0  0  0  0
    3.8780    1.8403   19.2641 H   0  0  0  0  0  0  0  0  0  0  0  0
  1  2  1  0
  2  3  2  0
  3  4  1  0
  4  5  1  0
  4  6  2  0
  6  7  1  0
  7  8  2  3
  8  9  1  0
  9 10  2  0
  9 11  2  0
  9 12  1  0
 12 13  2  0
 13 14  1  0
 13 15  1  0
 15 16  1  0
 15 17  2  0
 17 18  1  0
 17 19  1  0
 19 20  1  0
 19 21  2  0
 21 22  1  0
  6 23  1  0
 23 24  1  0
 23 25  2  0
 25 26  1  0
 25  2  1  0
 21 12  1  0
M  END
>  <plip>  (1) 
-0.06896551724137931

>  <filename>  (1) 
[H][c]1[n][c]([H])[c]([N]=[N][S](=[O])(=[O])[c]2[c]([H])[c]([H])[c]([Cl])[c]([H])[c]2[H])[c]([H])[c]1[H]

$$$$
