
     RDKit          3D

 37 38  0  0  0  0  0  0  0  0999 V2000
    9.1247    3.5548   22.6171 O   0  0  0  0  0  0  0  0  0  0  0  0
    9.4606    2.2604   22.0938 C   0  0  0  0  0  0  0  0  0  0  0  0
    8.2701    1.2834   22.1797 C   0  0  0  0  0  0  0  0  0  0  0  0
    7.9442    0.9372   23.6433 C   0  0  0  0  0  0  0  0  0  0  0  0
    7.3093    2.1010   24.3623 C   0  0  0  0  0  0  0  0  0  0  0  0
    5.9804    2.4558   24.0839 C   0  0  0  0  0  0  0  0  0  0  0  0
    5.3793    3.5336   24.7531 C   0  0  0  0  0  0  0  0  0  0  0  0
    6.0905    4.2652   25.7122 C   0  0  0  0  0  0  0  0  0  0  0  0
    5.1231    6.0035   26.7744 I   0  0  0  0  0  0  0  0  0  0  0  0
    7.4127    3.9021   25.9997 C   0  0  0  0  0  0  0  0  0  0  0  0
    8.0219    2.8259   25.3328 C   0  0  0  0  0  0  0  0  0  0  0  0
    9.0474    2.5606   25.5796 H   0  0  0  0  0  0  0  0  0  0  0  0
    7.9625    4.4677   26.7452 H   0  0  0  0  0  0  0  0  0  0  0  0
    4.3556    3.8155   24.5292 H   0  0  0  0  0  0  0  0  0  0  0  0
    5.4076    1.8991   23.3468 H   0  0  0  0  0  0  0  0  0  0  0  0
    8.8544    0.6381   24.1690 H   0  0  0  0  0  0  0  0  0  0  0  0
    7.2511    0.0925   23.6806 H   0  0  0  0  0  0  0  0  0  0  0  0
    8.5804    0.0374   21.4228 N   0  0  0  0  0  4  0  0  0  0  0  0
    7.3945   -0.7292   20.9933 C   0  0  0  0  0  0  0  0  0  0  0  0
    6.6841    0.0298   19.9133 C   0  0  0  0  0  0  0  0  0  0  0  0
    5.4590    0.6535   20.1723 C   0  0  0  0  0  0  0  0  0  0  0  0
    4.8263    1.3035   19.1105 C   0  0  0  0  0  0  0  0  0  0  0  0
    5.4073    1.2914   17.8357 C   0  0  0  0  0  0  0  0  0  0  0  0
    6.5759    0.6743   17.5896 N   0  0  0  0  0  0  0  0  0  0  0  0
    7.2031    0.0680   18.6115 C   0  0  0  0  0  0  0  0  0  0  0  0
    8.1368   -0.4405   18.4016 H   0  0  0  0  0  0  0  0  0  0  0  0
    4.8913    1.7932   17.0179 H   0  0  0  0  0  0  0  0  0  0  0  0
    3.8884    1.8271   19.2598 H   0  0  0  0  0  0  0  0  0  0  0  0
    5.0046    0.6351   21.1659 H   0  0  0  0  0  0  0  0  0  0  0  0
    6.7125   -0.8957   21.8371 H   0  0  0  0  0  0  0  0  0  0  0  0
    7.6939   -1.7144   20.5992 H   0  0  0  0  0  0  0  0  0  0  0  0
    9.1119    0.2849   20.5889 H   0  0  0  0  0  0  0  0  0  0  0  0
    9.1583   -0.5595   22.0163 H   0  0  0  0  0  0  0  0  0  0  0  0
    7.4036    1.7854   21.7355 H   0  0  0  0  0  0  0  0  0  0  0  0
   10.3089    1.8494   22.6475 H   0  0  0  0  0  0  0  0  0  0  0  0
    9.7654    2.3569   21.0466 H   0  0  0  0  0  0  0  0  0  0  0  0
    9.8796    4.1686   22.5453 H   0  0  0  0  0  0  0  0  0  0  0  0
  1  2  1  0
  2  3  1  0
  3  4  1  0
  4  5  1  0
  5  6  2  0
  6  7  1  0
  7  8  2  0
  8  9  1  0
  8 10  1  0
 10 11  2  0
 11 12  1  0
 10 13  1  0
  7 14  1  0
  6 15  1  0
  4 16  1  0
  4 17  1  0
  3 18  1  0
 18 19  1  0
 19 20  1  0
 20 21  2  0
 21 22  1  0
 22 23  2  0
 23 24  1  0
 24 25  2  0
 25 26  1  0
 23 27  1  0
 22 28  1  0
 21 29  1  0
 19 30  1  0
 19 31  1  0
 18 32  1  0
 18 33  1  0
  3 34  1  0
  2 35  1  0
  2 36  1  0
  1 37  1  0
 11  5  1  0
 25 20  1  0
M  CHG  1  18   1
M  END
>  <plip>  (1) 
-0.10714285714285714

>  <filename>  (1) 
[H][O][C]([H])([H])[C]([H])([C]([H])([H])[c]1[c]([H])[c]([H])[c]([I])[c]([H])[c]1[H])[N+]([H])([H])[C]([H])([H])[c]1[c]([H])[n][c]([H])[c]([H])[c]1[H]

$$$$
