
     RDKit          3D

 41 42  0  0  0  0  0  0  0  0999 V2000
   10.4171    5.5558   24.7802 C   0  0  0  0  0  0  0  0  0  0  0  0
   10.4423    4.3135   24.0940 O   0  0  0  0  0  0  0  0  0  0  0  0
   11.6046    3.8608   23.5417 C   0  0  0  0  0  0  0  0  0  0  0  0
   12.6822    4.7164   23.2651 C   0  0  0  0  0  0  0  0  0  0  0  0
   13.9110    4.1916   22.8699 C   0  0  0  0  0  0  0  0  0  0  0  0
   14.0543    2.8122   22.7232 C   0  0  0  0  0  0  0  0  0  0  0  0
   12.9580    1.9727   22.8981 C   0  0  0  0  0  0  0  0  0  0  0  0
   11.6910    2.4728   23.2422 C   0  0  0  0  0  0  0  0  0  0  0  0
   10.4930    1.5999   23.2703 C   0  0  0  0  0  0  0  0  0  0  0  0
   10.4233    0.3822   22.7091 C   0  0  0  0  0  0  0  0  0  0  0  0
    9.1897   -0.4690   22.7321 C   0  0  0  0  0  0  0  0  0  0  0  0
    8.4183   -0.0201   21.5584 N   0  0  0  0  0  4  0  0  0  0  0  0
    7.0915   -0.6141   21.2925 C   0  0  2  0  0  0  0  0  0  0  0  0
    7.1747   -2.1350   21.1146 C   0  0  0  0  0  0  0  0  0  0  0  0
    6.3569   -2.5079   20.4984 H   0  0  0  0  0  0  0  0  0  0  0  0
    8.1136   -2.4171   20.6305 H   0  0  0  0  0  0  0  0  0  0  0  0
    7.1282   -2.6533   22.0785 H   0  0  0  0  0  0  0  0  0  0  0  0
    6.5786    0.1346   20.0903 C   0  0  0  0  0  0  0  0  0  0  0  0
    5.3651    0.8316   20.1402 C   0  0  0  0  0  0  0  0  0  0  0  0
    4.8811    1.4392   18.9820 C   0  0  0  0  0  0  0  0  0  0  0  0
    5.6376    1.3421   17.8121 C   0  0  0  0  0  0  0  0  0  0  0  0
    6.8177    0.7088   17.7494 N   0  0  0  0  0  0  0  0  0  0  0  0
    7.2761    0.1434   18.8751 C   0  0  0  0  0  0  0  0  0  0  0  0
    8.2541   -0.3309   18.7810 H   0  0  0  0  0  0  0  0  0  0  0  0
    5.2738    1.7864   16.8864 H   0  0  0  0  0  0  0  0  0  0  0  0
    3.9459    1.9888   18.9788 H   0  0  0  0  0  0  0  0  0  0  0  0
    4.8251    0.9024   21.0849 H   0  0  0  0  0  0  0  0  0  0  0  0
    6.4196   -0.4086   22.1369 H   0  0  0  0  0  0  0  0  0  0  0  0
    9.0110   -0.1681   20.7136 H   0  0  0  0  0  0  0  0  0  0  0  0
    8.3010    1.0202   21.6245 H   0  0  0  0  0  0  0  0  0  0  0  0
    8.6227   -0.3235   23.6651 H   0  0  0  0  0  0  0  0  0  0  0  0
    9.4433   -1.5360   22.6624 H   0  0  0  0  0  0  0  0  0  0  0  0
   11.2413   -0.0050   22.0957 H   0  0  0  0  0  0  0  0  0  0  0  0
    9.6282    2.0090   23.8022 H   0  0  0  0  0  0  0  0  0  0  0  0
   13.0945    0.8986   22.7878 H   0  0  0  0  0  0  0  0  0  0  0  0
   15.0180    2.3863   22.4585 H   0  0  0  0  0  0  0  0  0  0  0  0
   14.7647    4.8525   22.7345 H   0  0  0  0  0  0  0  0  0  0  0  0
   12.5484    5.7900   23.3427 H   0  0  0  0  0  0  0  0  0  0  0  0
    9.5246    5.5318   25.4076 H   0  0  0  0  0  0  0  0  0  0  0  0
   11.2992    5.6877   25.4230 H   0  0  0  0  0  0  0  0  0  0  0  0
   10.3438    6.4085   24.0906 H   0  0  0  0  0  0  0  0  0  0  0  0
  1  2  1  0
  2  3  1  0
  3  4  2  0
  4  5  1  0
  5  6  2  0
  6  7  1  0
  7  8  2  0
  8  9  1  0
  9 10  2  3
 10 11  1  0
 11 12  1  0
 12 13  1  0
 13 14  1  0
 14 15  1  0
 14 16  1  0
 14 17  1  0
 13 18  1  0
 18 19  2  0
 19 20  1  0
 20 21  2  0
 21 22  1  0
 22 23  2  0
 23 24  1  0
 21 25  1  0
 20 26  1  0
 19 27  1  0
 13 28  1  1
 12 29  1  0
 12 30  1  0
 11 31  1  0
 11 32  1  0
 10 33  1  0
  9 34  1  0
  7 35  1  0
  6 36  1  0
  5 37  1  0
  4 38  1  0
  1 39  1  0
  1 40  1  0
  1 41  1  0
  8  3  1  0
 23 18  1  0
M  CHG  1  12   1
M  END
>  <plip>  (1) 
-0.03571428571428571

>  <filename>  (1) 
[H][C](=[C]([H])[C]([H])([H])[N+]([H])([H])[C@@]([H])([c]1[c]([H])[n][c]([H])[c]([H])[c]1[H])[C]([H])([H])[H])[c]1[c]([H])[c]([H])[c]([H])[c]([H])[c]1[O][C]([H])([H])[H]

$$$$
