
     RDKit          3D

 30 31  0  0  0  0  0  0  0  0999 V2000
    4.9573    1.8005   17.0080 H   0  0  0  0  0  0  0  0  0  0  0  0
    5.4196    1.2731   17.8388 C   0  0  0  0  0  0  0  0  0  0  0  0
    6.5783    0.6503   17.5701 N   0  0  0  0  0  0  0  0  0  0  0  0
    7.1878    0.0388   18.5857 C   0  0  0  0  0  0  0  0  0  0  0  0
    8.1405   -0.4352   18.3660 H   0  0  0  0  0  0  0  0  0  0  0  0
    6.6643   -0.0260   19.8877 C   0  0  0  0  0  0  0  0  0  0  0  0
    7.4763   -0.7689   20.8981 C   0  0  0  0  0  0  0  0  0  0  0  0
    8.6320   -1.0607   20.6572 O   0  0  0  0  0  0  0  0  0  0  0  0
    6.7842   -1.1868   22.2408 C   0  0  1  0  0  0  0  0  0  0  0  0
    5.7757   -1.4746   21.9322 H   0  0  0  0  0  0  0  0  0  0  0  0
    7.4392   -2.5084   22.6189 C   0  0  0  0  0  0  0  0  0  0  0  0
    6.7559   -3.6062   22.2684 N   0  0  0  0  0  0  0  0  0  0  0  0
    7.1867   -4.8043   22.7014 C   0  0  0  0  0  0  0  0  0  0  0  0
    6.2850   -6.0456   22.4632 C   0  0  0  0  0  0  0  0  0  0  0  0
    5.7177   -6.4800   23.6094 F   0  0  0  0  0  0  0  0  0  0  0  0
    5.2920   -5.8212   21.5976 F   0  0  0  0  0  0  0  0  0  0  0  0
    7.0037   -7.0927   22.0002 F   0  0  0  0  0  0  0  0  0  0  0  0
    8.3882   -4.9504   23.4190 C   0  0  0  0  0  0  0  0  0  0  0  0
    8.7058   -5.9306   23.7575 H   0  0  0  0  0  0  0  0  0  0  0  0
    9.1509   -3.8108   23.6862 C   0  0  0  0  0  0  0  0  0  0  0  0
   10.1004   -3.8926   24.2148 H   0  0  0  0  0  0  0  0  0  0  0  0
    8.6825   -2.5712   23.2579 C   0  0  0  0  0  0  0  0  0  0  0  0
    9.2401   -1.6542   23.4039 H   0  0  0  0  0  0  0  0  0  0  0  0
    6.5684   -0.1095   23.2749 N   0  0  0  0  0  0  0  0  0  0  0  0
    6.0064   -0.4691   24.0522 H   0  0  0  0  0  0  0  0  0  0  0  0
    7.4194    0.2649   23.6962 H   0  0  0  0  0  0  0  0  0  0  0  0
    5.4451    0.6234   20.1574 C   0  0  0  0  0  0  0  0  0  0  0  0
    5.0296    0.6408   21.1718 H   0  0  0  0  0  0  0  0  0  0  0  0
    4.8147    1.2842   19.1020 C   0  0  0  0  0  0  0  0  0  0  0  0
    3.8830    1.8247   19.2479 H   0  0  0  0  0  0  0  0  0  0  0  0
  1  2  1  0
  2  3  2  0
  3  4  1  0
  4  5  1  0
  4  6  2  0
  6  7  1  0
  7  8  2  0
  7  9  1  0
  9 10  1  6
  9 11  1  0
 11 12  2  0
 12 13  1  0
 13 14  1  0
 14 15  1  0
 14 16  1  0
 14 17  1  0
 13 18  2  0
 18 19  1  0
 18 20  1  0
 20 21  1  0
 20 22  2  0
 22 23  1  0
  9 24  1  0
 24 25  1  0
 24 26  1  0
  6 27  1  0
 27 28  1  0
 27 29  2  0
 29 30  1  0
 29  2  1  0
 22 11  1  0
M  END
>  <plip>  (1) 
-0.03571428571428571

>  <filename>  (1) 
[H][c]1[n][c]([H])[c]([C](=[O])[C@@]([H])([c]2[n][c]([C]([F])([F])[F])[c]([H])[c]([H])[c]2[H])[N]([H])[H])[c]([H])[c]1[H]

$$$$
