
     RDKit          3D

 25 26  0  0  0  0  0  0  0  0999 V2000
    8.4705   -4.7402   23.9566 H   0  0  0  0  0  0  0  0  0  0  0  0
    8.6547   -3.6805   23.7928 C   0  0  0  0  0  0  0  0  0  0  0  0
    7.7278   -2.9507   23.1647 N   0  0  0  0  0  0  0  0  0  0  0  0
    8.0229   -1.6362   22.9552 C   0  0  0  0  0  0  0  0  0  0  0  0
    7.0146   -0.8087   22.2037 C   0  0  0  0  0  0  0  0  0  0  0  0
    6.8874    0.1792   22.6722 H   0  0  0  0  0  0  0  0  0  0  0  0
    6.0699   -1.3613   22.2248 H   0  0  0  0  0  0  0  0  0  0  0  0
    7.4700   -0.6329   20.8576 O   0  0  0  0  0  0  0  0  0  0  0  0
    6.6780    0.0063   19.9447 C   0  0  0  0  0  0  0  0  0  0  0  0
    7.1832    0.0430   18.6236 C   0  0  0  0  0  0  0  0  0  0  0  0
    8.1305   -0.4429   18.4105 H   0  0  0  0  0  0  0  0  0  0  0  0
    6.5729    0.6522   17.6036 N   0  0  0  0  0  0  0  0  0  0  0  0
    5.4086    1.2787   17.8564 C   0  0  0  0  0  0  0  0  0  0  0  0
    4.9471    1.7844   17.0111 H   0  0  0  0  0  0  0  0  0  0  0  0
    4.8194    1.2912   19.1202 C   0  0  0  0  0  0  0  0  0  0  0  0
    3.8845    1.8260   19.2606 H   0  0  0  0  0  0  0  0  0  0  0  0
    5.4518    0.6384   20.1933 C   0  0  0  0  0  0  0  0  0  0  0  0
    5.0016    0.6368   21.1853 H   0  0  0  0  0  0  0  0  0  0  0  0
    9.2321   -1.0858   23.4154 C   0  0  0  0  0  0  0  0  0  0  0  0
    9.4586   -0.0273   23.2656 H   0  0  0  0  0  0  0  0  0  0  0  0
   10.1726   -1.8067   24.0650 N   0  0  0  0  0  0  0  0  0  0  0  0
    9.8861   -3.1050   24.2435 C   0  0  0  0  0  0  0  0  0  0  0  0
   10.8646   -3.7842   24.8724 N   0  0  0  0  0  0  0  0  0  0  0  0
   10.7702   -4.7526   25.1070 H   0  0  0  0  0  0  0  0  0  0  0  0
   11.6381   -3.1927   25.1409 H   0  0  0  0  0  0  0  0  0  0  0  0
  1  2  1  0
  2  3  2  0
  3  4  1  0
  4  5  1  0
  5  6  1  0
  5  7  1  0
  5  8  1  0
  8  9  1  0
  9 10  2  0
 10 11  1  0
 10 12  1  0
 12 13  2  0
 13 14  1  0
 13 15  1  0
 15 16  1  0
 15 17  2  0
 17 18  1  0
  4 19  2  0
 19 20  1  0
 19 21  1  0
 21 22  2  0
 22 23  1  0
 23 24  1  0
 23 25  1  0
 22  2  1  0
 17  9  1  0
M  END
>  <plip>  (1) 
-0.034482758620689655

>  <filename>  (1) 
[H][c]1[n][c]([C]([H])([H])[O][c]2[c]([H])[n][c]([H])[c]([H])[c]2[H])[c]([H])[n][c]1[N]([H])[H]

$$$$
