
     RDKit          3D

 27 28  0  0  0  0  0  0  0  0999 V2000
    5.0073    1.7613   16.9784 H   0  0  0  0  0  0  0  0  0  0  0  0
    5.4604    1.2799   17.8460 C   0  0  0  0  0  0  0  0  0  0  0  0
    6.6280    0.6487   17.6427 N   0  0  0  0  0  0  0  0  0  0  0  0
    7.1987    0.0357   18.6851 C   0  0  0  0  0  0  0  0  0  0  0  0
    8.1635   -0.4407   18.5153 H   0  0  0  0  0  0  0  0  0  0  0  0
    6.6159    0.0310   19.9542 C   0  0  0  0  0  0  0  0  0  0  0  0
    7.5726   -0.7960   21.2305 S   0  0  0  0  0  4  0  0  0  0  0  0
    7.8367   -2.1614   20.7957 O   0  0  0  0  0  0  0  0  0  0  0  0
    9.0421   -0.0568   20.8464 O   0  0  0  0  0  0  0  0  0  0  0  0
    9.3933    1.1712   21.4121 C   0  0  0  0  0  0  0  0  0  0  0  0
   10.7398    1.5149   21.3227 C   0  0  0  0  0  0  0  0  0  0  0  0
   11.4240    0.7743   20.9263 H   0  0  0  0  0  0  0  0  0  0  0  0
   11.1672    2.7468   21.8119 C   0  0  0  0  0  0  0  0  0  0  0  0
   12.2100    3.0440   21.7052 H   0  0  0  0  0  0  0  0  0  0  0  0
   10.2450    3.6106   22.4147 C   0  0  0  0  0  0  0  0  0  0  0  0
   10.5765    4.5779   22.7925 H   0  0  0  0  0  0  0  0  0  0  0  0
    8.8830    3.2823   22.4714 C   0  0  0  0  0  0  0  0  0  0  0  0
    7.8509    4.2928   22.9061 C   0  0  0  0  0  0  0  0  0  0  0  0
    7.0507    3.8508   23.5093 H   0  0  0  0  0  0  0  0  0  0  0  0
    8.2950    5.0979   23.4971 H   0  0  0  0  0  0  0  0  0  0  0  0
    7.3796    4.7458   22.0221 H   0  0  0  0  0  0  0  0  0  0  0  0
    8.4626    2.0278   22.0032 C   0  0  0  0  0  0  0  0  0  0  0  0
    7.4308    1.7189   22.1182 H   0  0  0  0  0  0  0  0  0  0  0  0
    5.4033    0.6807   20.1796 C   0  0  0  0  0  0  0  0  0  0  0  0
    4.9434    0.7146   21.1709 H   0  0  0  0  0  0  0  0  0  0  0  0
    4.8151    1.3171   19.0858 C   0  0  0  0  0  0  0  0  0  0  0  0
    3.8749    1.8406   19.1907 H   0  0  0  0  0  0  0  0  0  0  0  0
  1  2  1  0
  2  3  2  0
  3  4  1  0
  4  5  1  0
  4  6  2  0
  6  7  1  0
  7  8  2  0
  7  9  1  6
  9 10  1  0
 10 11  2  0
 11 12  1  0
 11 13  1  0
 13 14  1  0
 13 15  2  0
 15 16  1  0
 15 17  1  0
 17 18  1  0
 18 19  1  0
 18 20  1  0
 18 21  1  0
 17 22  2  0
 22 23  1  0
  6 24  1  0
 24 25  1  0
 24 26  2  0
 26 27  1  0
 26  2  1  0
 22 10  1  0
M  END
>  <plip>  (1) 
-0.06666666666666667

>  <filename>  (1) 
[H][c]1[n][c]([H])[c]([S@@](=[O])[O][c]2[c]([H])[c]([H])[c]([H])[c]([C]([H])([H])[H])[c]2[H])[c]([H])[c]1[H]

$$$$
