
     RDKit          3D

 28 29  0  0  0  0  0  0  0  0999 V2000
    5.3482    1.6196   16.7060 H   0  0  0  0  0  0  0  0  0  0  0  0
    5.7534    1.2834   17.6592 C   0  0  0  0  0  0  0  0  0  0  0  0
    6.8380    0.4962   17.5918 N   0  0  0  0  0  0  0  0  0  0  0  0
    7.3260    0.0112   18.7411 C   0  0  0  0  0  0  0  0  0  0  0  0
    8.2027   -0.6312   18.6695 H   0  0  0  0  0  0  0  0  0  0  0  0
    6.7477    0.2844   19.9863 C   0  0  0  0  0  0  0  0  0  0  0  0
    7.2082   -0.7574   21.3680 S   0  0  0  0  0  4  0  0  0  0  0  0
    7.9701   -1.9084   20.7653 O   0  0  0  0  0  0  0  0  0  0  0  0
    8.4724    0.2865   22.1631 C   0  0  0  0  0  0  0  0  0  0  0  0
    7.9714    1.1704   22.5513 H   0  0  0  0  0  0  0  0  0  0  0  0
    9.2429    0.5322   21.4331 H   0  0  0  0  0  0  0  0  0  0  0  0
    8.9849   -0.5488   23.3129 C   0  0  0  0  0  0  0  0  0  0  0  0
    8.2926   -0.3790   24.4470 N   0  0  0  0  0  0  0  0  0  0  0  0
    8.5299   -1.2159   25.4707 C   0  0  0  0  0  0  0  0  0  0  0  0
    7.9387   -1.0505   26.3673 H   0  0  0  0  0  0  0  0  0  0  0  0
    9.4524   -2.2555   25.4034 C   0  0  0  0  0  0  0  0  0  0  0  0
    9.5567   -2.9580   26.2288 H   0  0  0  0  0  0  0  0  0  0  0  0
   10.2437   -2.3689   24.2546 C   0  0  0  0  0  0  0  0  0  0  0  0
   11.0238   -3.1332   24.2026 H   0  0  0  0  0  0  0  0  0  0  0  0
   10.0427   -1.4957   23.1793 C   0  0  0  0  0  0  0  0  0  0  0  0
   10.8601   -1.6528   21.9131 C   0  0  0  0  0  0  0  0  0  0  0  0
   11.1761   -0.6911   21.4870 H   0  0  0  0  0  0  0  0  0  0  0  0
   10.2749   -2.1908   21.1608 H   0  0  0  0  0  0  0  0  0  0  0  0
   11.7471   -2.2613   22.1105 H   0  0  0  0  0  0  0  0  0  0  0  0
    5.6714    1.1753   20.0635 C   0  0  0  0  0  0  0  0  0  0  0  0
    5.2271    1.4471   21.0232 H   0  0  0  0  0  0  0  0  0  0  0  0
    5.1569    1.6735   18.8632 C   0  0  0  0  0  0  0  0  0  0  0  0
    4.2971    2.3359   18.8538 H   0  0  0  0  0  0  0  0  0  0  0  0
  1  2  1  0
  2  3  2  0
  3  4  1  0
  4  5  1  0
  4  6  2  0
  6  7  1  0
  7  8  2  0
  7  9  1  6
  9 10  1  0
  9 11  1  0
  9 12  1  0
 12 13  2  0
 13 14  1  0
 14 15  1  0
 14 16  2  0
 16 17  1  0
 16 18  1  0
 18 19  1  0
 18 20  2  0
 20 21  1  0
 21 22  1  0
 21 23  1  0
 21 24  1  0
  6 25  1  0
 25 26  1  0
 25 27  2  0
 27 28  1  0
 27  2  1  0
 20 12  1  0
M  END
>  <plip>  (1) 
-0.034482758620689655

>  <filename>  (1) 
[H][c]1[n][c]([H])[c]([S@](=[O])[C]([H])([H])[c]2[n][c]([H])[c]([H])[c]([H])[c]2[C]([H])([H])[H])[c]([H])[c]1[H]

$$$$
