
     RDKit          3D

 43 45  0  0  0  0  0  0  0  0999 V2000
    0.0184   -9.9572   23.2657 C   0  0  0  0  0  0  0  0  0  0  0  0
    0.8036   -8.6948   23.0394 C   0  0  0  0  0  0  0  0  0  0  0  0
    1.8334   -8.6383   22.0959 C   0  0  0  0  0  0  0  0  0  0  0  0
    2.6154   -7.5025   21.9670 C   0  0  0  0  0  0  0  0  0  0  0  0
    2.4339   -6.3735   22.7898 C   0  0  0  0  0  0  0  0  0  0  0  0
    3.4729   -5.3128   22.8092 C   0  0  0  0  0  0  0  0  0  0  0  0
    3.5794   -4.3357   23.6786 N   0  0  0  0  0  0  0  0  0  0  0  0
    4.5715   -3.4592   23.3461 C   0  0  0  0  0  0  0  0  0  0  0  0
    5.2219   -3.7040   22.1740 C   0  0  0  0  0  0  0  0  0  0  0  0
    6.0004   -2.8378   21.2569 C   0  0  0  0  0  0  0  0  0  0  0  0
    6.1612   -3.1486   20.0864 O   0  0  0  0  0  0  0  0  0  0  0  0
    6.5224   -1.7098   21.7937 N   0  0  0  0  0  0  0  0  0  0  0  0
    7.3440   -0.7855   21.0204 C   0  0  2  0  0  0  0  0  0  0  0  0
    7.9883    0.2188   21.9720 C   0  0  0  0  0  0  0  0  0  0  0  0
    7.2299    0.8608   22.4394 H   0  0  0  0  0  0  0  0  0  0  0  0
    8.6781    0.8763   21.4329 H   0  0  0  0  0  0  0  0  0  0  0  0
    8.5511   -0.3060   22.7510 H   0  0  0  0  0  0  0  0  0  0  0  0
    6.5724   -0.0834   19.9114 C   0  0  0  0  0  0  0  0  0  0  0  0
    5.3740    0.6104   20.1319 C   0  0  0  0  0  0  0  0  0  0  0  0
    4.7948    1.3043   19.0668 C   0  0  0  0  0  0  0  0  0  0  0  0
    5.4329    1.2957   17.8211 C   0  0  0  0  0  0  0  0  0  0  0  0
    6.5810    0.6438   17.5875 N   0  0  0  0  0  0  0  0  0  0  0  0
    7.1175   -0.0212   18.6210 C   0  0  0  0  0  0  0  0  0  0  0  0
    8.0580   -0.5316   18.4098 H   0  0  0  0  0  0  0  0  0  0  0  0
    5.0024    1.8305   16.9739 H   0  0  0  0  0  0  0  0  0  0  0  0
    3.8747    1.8638   19.1905 H   0  0  0  0  0  0  0  0  0  0  0  0
    4.9079    0.6225   21.1211 H   0  0  0  0  0  0  0  0  0  0  0  0
    8.1373   -1.3656   20.5306 H   0  0  0  0  0  0  0  0  0  0  0  0
    6.1977   -1.4228   22.6963 H   0  0  0  0  0  0  0  0  0  0  0  0
    4.7495   -5.2673   21.6037 S   0  0  0  0  0  0  0  0  0  0  0  0
    4.7940   -2.6493   24.0359 H   0  0  0  0  0  0  0  0  0  0  0  0
    1.2527   -6.3391   23.5852 C   0  0  0  0  0  0  0  0  0  0  0  0
    0.7407   -5.0813   24.2323 C   0  0  0  0  0  0  0  0  0  0  0  0
    0.7290   -4.2490   23.5217 H   0  0  0  0  0  0  0  0  0  0  0  0
    1.3918   -4.7700   25.0513 H   0  0  0  0  0  0  0  0  0  0  0  0
   -0.2764   -5.2287   24.6076 H   0  0  0  0  0  0  0  0  0  0  0  0
    0.5129   -7.5206   23.7424 C   0  0  0  0  0  0  0  0  0  0  0  0
   -0.3386   -7.5042   24.4202 H   0  0  0  0  0  0  0  0  0  0  0  0
    3.3717   -7.5280   21.1994 H   0  0  0  0  0  0  0  0  0  0  0  0
    2.0531   -9.5068   21.4819 H   0  0  0  0  0  0  0  0  0  0  0  0
   -0.4774   -9.9446   24.2422 H   0  0  0  0  0  0  0  0  0  0  0  0
    0.6594  -10.8427   23.2350 H   0  0  0  0  0  0  0  0  0  0  0  0
   -0.7447  -10.0885   22.4911 H   0  0  0  0  0  0  0  0  0  0  0  0
  1  2  1  0
  2  3  2  0
  3  4  1  0
  4  5  2  0
  5  6  1  0
  6  7  2  0
  7  8  1  0
  8  9  2  0
  9 10  1  0
 10 11  2  0
 10 12  1  0
 12 13  1  0
 13 14  1  0
 14 15  1  0
 14 16  1  0
 14 17  1  0
 13 18  1  0
 18 19  2  0
 19 20  1  0
 20 21  2  0
 21 22  1  0
 22 23  2  0
 23 24  1  0
 21 25  1  0
 20 26  1  0
 19 27  1  0
 13 28  1  6
 12 29  1  0
  9 30  1  0
  8 31  1  0
  5 32  1  0
 32 33  1  0
 33 34  1  0
 33 35  1  0
 33 36  1  0
 32 37  2  0
 37 38  1  0
  4 39  1  0
  3 40  1  0
  1 41  1  0
  1 42  1  0
  1 43  1  0
 37  2  1  0
 30  6  1  0
 23 18  1  0
M  END
>  <plip>  (1) 
-0.13793103448275862

>  <filename>  (1) 
[H][c]1[n][c](-[c]2[c]([H])[c]([H])[c]([C]([H])([H])[H])[c]([H])[c]2[C]([H])([H])[H])[s][c]1[C](=[O])[N]([H])[C@@]([H])([c]1[c]([H])[n][c]([H])[c]([H])[c]1[H])[C]([H])([H])[H]

$$$$
