
     RDKit          3D

 34 35  0  0  0  0  0  0  0  0999 V2000
    4.9441    1.8679   16.9813 H   0  0  0  0  0  0  0  0  0  0  0  0
    5.4426    1.3347   17.7867 C   0  0  0  0  0  0  0  0  0  0  0  0
    6.6062    0.7386   17.4755 N   0  0  0  0  0  0  0  0  0  0  0  0
    7.2187    0.0572   18.4501 C   0  0  0  0  0  0  0  0  0  0  0  0
    8.1619   -0.4177   18.1921 H   0  0  0  0  0  0  0  0  0  0  0  0
    6.7092   -0.0957   19.7566 C   0  0  0  0  0  0  0  0  0  0  0  0
    7.4335   -0.8559   20.7273 N   0  0  0  0  0  0  0  0  0  0  0  0
    8.7940   -0.6890   21.0233 C   0  0  0  0  0  0  0  0  0  0  0  0
    9.3873   -0.0014   20.4426 H   0  0  0  0  0  0  0  0  0  0  0  0
    9.1021   -1.4522   22.1030 C   0  0  0  0  0  0  0  0  0  0  0  0
   10.3091   -1.6252   22.9671 C   0  0  0  0  0  0  0  0  0  0  0  0
   10.3556   -2.6729   23.2884 H   0  0  0  0  0  0  0  0  0  0  0  0
   11.2164   -1.4415   22.3831 H   0  0  0  0  0  0  0  0  0  0  0  0
   10.3108   -0.7210   24.2084 C   0  0  0  0  0  0  0  0  0  0  0  0
    9.3961   -0.9134   24.7867 H   0  0  0  0  0  0  0  0  0  0  0  0
   11.1422   -1.0016   24.8666 H   0  0  0  0  0  0  0  0  0  0  0  0
   10.3712    0.7832   23.9049 C   0  0  0  0  0  0  0  0  0  0  0  0
    9.4402    1.0297   23.3752 H   0  0  0  0  0  0  0  0  0  0  0  0
   10.4077    1.5425   25.2284 C   0  0  0  0  0  0  0  0  0  0  0  0
   10.3512    2.6255   25.0832 H   0  0  0  0  0  0  0  0  0  0  0  0
    9.5870    1.2303   25.8838 H   0  0  0  0  0  0  0  0  0  0  0  0
   11.3448    1.3206   25.7475 H   0  0  0  0  0  0  0  0  0  0  0  0
   11.5444    1.1975   23.0078 C   0  0  0  0  0  0  0  0  0  0  0  0
   11.4780    0.7540   22.0093 H   0  0  0  0  0  0  0  0  0  0  0  0
   11.5737    2.2840   22.8716 H   0  0  0  0  0  0  0  0  0  0  0  0
   12.5082    0.9018   23.4394 H   0  0  0  0  0  0  0  0  0  0  0  0
    7.9302   -2.1208   22.4311 N   0  0  0  0  0  0  0  0  0  0  0  0
    7.7481   -2.7112   23.2222 H   0  0  0  0  0  0  0  0  0  0  0  0
    6.8814   -1.8026   21.6082 C   0  0  0  0  0  0  0  0  0  0  0  0
    5.7748   -2.3011   21.6339 O   0  0  0  0  0  0  0  0  0  0  0  0
    5.5080    0.5604   20.0761 C   0  0  0  0  0  0  0  0  0  0  0  0
    5.1053    0.5213   21.0900 H   0  0  0  0  0  0  0  0  0  0  0  0
    4.8649    1.2816   19.0615 C   0  0  0  0  0  0  0  0  0  0  0  0
    3.9326    1.8085   19.2510 H   0  0  0  0  0  0  0  0  0  0  0  0
  1  2  1  0
  2  3  2  0
  3  4  1  0
  4  5  1  0
  4  6  2  0
  6  7  1  0
  7  8  1  0
  8  9  1  0
  8 10  2  0
 10 11  1  0
 11 12  1  0
 11 13  1  0
 11 14  1  0
 14 15  1  0
 14 16  1  0
 14 17  1  0
 17 18  1  0
 17 19  1  0
 19 20  1  0
 19 21  1  0
 19 22  1  0
 17 23  1  0
 23 24  1  0
 23 25  1  0
 23 26  1  0
 10 27  1  0
 27 28  1  0
 27 29  1  0
 29 30  2  0
  6 31  1  0
 31 32  1  0
 31 33  2  0
 33 34  1  0
 33  2  1  0
 29  7  1  0
M  END
>  <plip>  (1) 
-0.10344827586206896

>  <filename>  (1) 
[H][c]1[n][c]([H])[c](-[n]2[c]([H])[c]([C]([H])([H])[C]([H])([H])[C]([H])([C]([H])([H])[H])[C]([H])([H])[H])[n]([H])[c]2=[O])[c]([H])[c]1[H]

$$$$
