
     RDKit          3D

 21 22  0  0  0  0  0  0  0  0999 V2000
    4.9474    1.7989   17.0035 H   0  0  0  0  0  0  0  0  0  0  0  0
    5.4089    1.2847   17.8464 C   0  0  0  0  0  0  0  0  0  0  0  0
    6.5620    0.6518   17.5950 N   0  0  0  0  0  0  0  0  0  0  0  0
    7.1795    0.0187   18.6019 C   0  0  0  0  0  0  0  0  0  0  0  0
    8.1181   -0.4551   18.3244 H   0  0  0  0  0  0  0  0  0  0  0  0
    6.6658   -0.0367   19.9137 C   0  0  0  0  0  0  0  0  0  0  0  0
    7.3401   -0.7619   20.9584 N   0  0  0  0  0  0  0  0  0  0  0  0
    6.7474   -1.7403   21.7163 C   0  0  0  0  0  0  0  0  0  0  0  0
    5.6948   -1.9144   21.5621 H   0  0  0  0  0  0  0  0  0  0  0  0
    7.6795   -2.3105   22.5565 C   0  0  0  0  0  0  0  0  0  0  0  0
    7.4899   -3.0879   23.2933 H   0  0  0  0  0  0  0  0  0  0  0  0
    8.9050   -1.6498   22.3176 C   0  0  0  0  0  0  0  0  0  0  0  0
    9.8614   -1.7917   22.8067 H   0  0  0  0  0  0  0  0  0  0  0  0
    8.6635   -0.6937   21.3593 C   0  0  0  0  0  0  0  0  0  0  0  0
    9.5490    0.3753   20.9835 N   0  0  0  0  0  4  0  0  0  0  0  0
    9.0598    1.4122   20.5671 O   0  0  0  0  0  0  0  0  0  0  0  0
   10.7467    0.1825   21.1459 O   0  0  0  0  0  1  0  0  0  0  0  0
    5.4575    0.6352   20.1608 C   0  0  0  0  0  0  0  0  0  0  0  0
    5.0262    0.6443   21.1615 H   0  0  0  0  0  0  0  0  0  0  0  0
    4.8187    1.3046   19.1122 C   0  0  0  0  0  0  0  0  0  0  0  0
    3.8851    1.8391   19.2576 H   0  0  0  0  0  0  0  0  0  0  0  0
  1  2  1  0
  2  3  2  0
  3  4  1  0
  4  5  1  0
  4  6  2  0
  6  7  1  0
  7  8  1  0
  8  9  1  0
  8 10  2  0
 10 11  1  0
 10 12  1  0
 12 13  1  0
 12 14  2  0
 14 15  1  0
 15 16  2  0
 15 17  1  0
  6 18  1  0
 18 19  1  0
 18 20  2  0
 20 21  1  0
 20  2  1  0
 14  7  1  0
M  CHG  2  15   1  17  -1
M  END
>  <plip>  (1) 
-0.03571428571428571

>  <filename>  (1) 
[H][c]1[n][c]([H])[c](-[n]2[c]([H])[c]([H])[c]([H])[c]2[N+](=[O])[O-])[c]([H])[c]1[H]

$$$$
