
     RDKit          3D

 41 43  0  0  0  0  0  0  0  0999 V2000
    9.4305    1.8861   22.0311 C   0  0  0  0  0  0  0  0  0  0  0  0
    8.8650    0.8261   21.2986 O   0  0  0  0  0  0  0  0  0  0  0  0
    7.8919    0.0800   21.9932 C   0  0  0  0  0  0  0  0  0  0  0  0
    7.2537   -0.9028   20.9990 C   0  0  1  0  0  0  0  0  0  0  0  0
    6.4023   -1.8457   21.7049 N   0  0  0  0  0  0  0  0  0  0  0  0
    5.9085   -2.9908   21.1492 C   0  0  0  0  0  0  0  0  0  0  0  0
    6.0903   -3.2894   19.9837 O   0  0  0  0  0  0  0  0  0  0  0  0
    5.1094   -3.8264   22.1127 C   0  0  0  0  0  0  0  0  0  0  0  0
    4.6736   -3.6022   23.3907 C   0  0  0  0  0  0  0  0  0  0  0  0
    3.7356   -4.6342   23.6941 C   0  0  0  0  0  0  0  0  0  0  0  0
    3.7570   -5.4933   22.5803 C   0  0  0  0  0  0  0  0  0  0  0  0
    4.5984   -5.0086   21.6353 O   0  0  0  0  0  0  0  0  0  0  0  0
    2.8898   -6.6032   22.5283 C   0  0  0  0  0  0  0  0  0  0  0  0
    2.8483   -7.4406   21.4898 F   0  0  0  0  0  0  0  0  0  0  0  0
    1.9924   -6.8091   23.5670 C   0  0  0  0  0  0  0  0  0  0  0  0
    1.9231   -5.9035   24.6454 C   0  0  0  0  0  0  0  0  0  0  0  0
    2.7885   -4.8191   24.7374 C   0  0  0  0  0  0  0  0  0  0  0  0
    2.6577   -3.8217   25.8481 C   0  0  0  0  0  0  0  0  0  0  0  0
    1.8975   -4.1372   26.5668 H   0  0  0  0  0  0  0  0  0  0  0  0
    2.3372   -2.8656   25.4285 H   0  0  0  0  0  0  0  0  0  0  0  0
    3.5941   -3.6475   26.3883 H   0  0  0  0  0  0  0  0  0  0  0  0
    1.1645   -6.0231   25.4185 H   0  0  0  0  0  0  0  0  0  0  0  0
    1.3012   -7.6401   23.4566 H   0  0  0  0  0  0  0  0  0  0  0  0
    4.9807   -2.8349   24.0935 H   0  0  0  0  0  0  0  0  0  0  0  0
    6.0844   -1.6196   22.6301 H   0  0  0  0  0  0  0  0  0  0  0  0
    6.5158   -0.1732   19.8914 C   0  0  0  0  0  0  0  0  0  0  0  0
    5.3339    0.5473   20.1046 C   0  0  0  0  0  0  0  0  0  0  0  0
    4.8042    1.2843   19.0445 C   0  0  0  0  0  0  0  0  0  0  0  0
    5.4704    1.2722   17.8122 C   0  0  0  0  0  0  0  0  0  0  0  0
    6.5920    0.5752   17.5837 N   0  0  0  0  0  0  0  0  0  0  0  0
    7.0852   -0.1256   18.6149 C   0  0  0  0  0  0  0  0  0  0  0  0
    7.9992   -0.6902   18.4188 H   0  0  0  0  0  0  0  0  0  0  0  0
    5.0832    1.8401   16.9675 H   0  0  0  0  0  0  0  0  0  0  0  0
    3.9010    1.8699   19.1593 H   0  0  0  0  0  0  0  0  0  0  0  0
    4.8408    0.5306   21.0802 H   0  0  0  0  0  0  0  0  0  0  0  0
    8.0780   -1.4606   20.5396 H   0  0  0  0  0  0  0  0  0  0  0  0
    7.1034    0.7335   22.4144 H   0  0  0  0  0  0  0  0  0  0  0  0
    8.3470   -0.4864   22.8244 H   0  0  0  0  0  0  0  0  0  0  0  0
   10.1190    2.4022   21.3564 H   0  0  0  0  0  0  0  0  0  0  0  0
    8.6696    2.6070   22.3717 H   0  0  0  0  0  0  0  0  0  0  0  0
    9.9924    1.5292   22.9092 H   0  0  0  0  0  0  0  0  0  0  0  0
  1  2  1  0
  2  3  1  0
  3  4  1  0
  4  5  1  0
  5  6  1  0
  6  7  2  0
  6  8  1  0
  8  9  2  0
  9 10  1  0
 10 11  2  0
 11 12  1  0
 11 13  1  0
 13 14  1  0
 13 15  2  0
 15 16  1  0
 16 17  2  0
 17 18  1  0
 18 19  1  0
 18 20  1  0
 18 21  1  0
 16 22  1  0
 15 23  1  0
  9 24  1  0
  5 25  1  0
  4 26  1  0
 26 27  2  0
 27 28  1  0
 28 29  2  0
 29 30  1  0
 30 31  2  0
 31 32  1  0
 29 33  1  0
 28 34  1  0
 27 35  1  0
  4 36  1  6
  3 37  1  0
  3 38  1  0
  1 39  1  0
  1 40  1  0
  1 41  1  0
 12  8  1  0
 31 26  1  0
 17 10  1  0
M  END
>  <plip>  (1) 
-0.20689655172413793

>  <filename>  (1) 
[H][c]1[n][c]([H])[c]([C@]([H])([N]([H])[C](=[O])[c]2[o][c]3[c]([F])[c]([H])[c]([H])[c]([C]([H])([H])[H])[c]3[c]2[H])[C]([H])([H])[O][C]([H])([H])[H])[c]([H])[c]1[H]

$$$$
