
     RDKit          3D

 42 44  0  0  0  0  0  0  0  0999 V2000
    8.7763   -0.8375   24.2010 C   0  0  0  0  0  0  0  0  0  0  0  0
    8.9410   -0.3561   22.9707 C   0  0  0  0  0  0  0  0  0  0  0  0
    7.8483    0.3283   22.1708 C   0  0  0  0  0  0  0  0  0  0  0  0
    7.1370   -0.6863   21.2440 C   0  0  1  0  0  0  0  0  0  0  0  0
    6.2499   -1.5669   21.9918 N   0  0  0  0  0  0  0  0  0  0  0  0
    5.9534   -2.8196   21.5624 C   0  0  0  0  0  0  0  0  0  0  0  0
    6.3831   -3.2601   20.5022 O   0  0  0  0  0  0  0  0  0  0  0  0
    5.0472   -3.6925   22.4430 C   0  0  0  0  0  0  0  0  0  0  0  0
    4.6811   -3.2445   23.6878 N   0  0  0  0  0  0  0  0  0  0  0  0
    3.8010   -3.8829   24.4038 N   0  0  0  0  0  0  0  0  0  0  0  0
    3.2228   -5.0444   23.9489 C   0  0  0  0  0  0  0  0  0  0  0  0
    2.1994   -5.6877   24.7405 C   0  0  0  0  0  0  0  0  0  0  0  0
    1.6959   -5.0413   26.0065 C   0  0  0  0  0  0  0  0  0  0  0  0
    0.9222   -5.6382   26.5073 H   0  0  0  0  0  0  0  0  0  0  0  0
    2.5264   -4.8878   26.7065 H   0  0  0  0  0  0  0  0  0  0  0  0
    1.2807   -4.0492   25.7910 H   0  0  0  0  0  0  0  0  0  0  0  0
    1.7145   -6.9036   24.2972 C   0  0  0  0  0  0  0  0  0  0  0  0
    2.1573   -7.4976   23.0834 C   0  0  0  0  0  0  0  0  0  0  0  0
    3.0984   -6.8752   22.2999 C   0  0  0  0  0  0  0  0  0  0  0  0
    3.6542   -5.6336   22.7076 C   0  0  0  0  0  0  0  0  0  0  0  0
    4.6037   -4.9104   21.9541 C   0  0  0  0  0  0  0  0  0  0  0  0
    4.9682   -5.3086   21.0090 H   0  0  0  0  0  0  0  0  0  0  0  0
    3.4248   -7.3387   21.3763 H   0  0  0  0  0  0  0  0  0  0  0  0
    1.7278   -8.4441   22.7639 H   0  0  0  0  0  0  0  0  0  0  0  0
    0.9485   -7.4233   24.8725 H   0  0  0  0  0  0  0  0  0  0  0  0
    5.8192   -1.2872   22.8628 H   0  0  0  0  0  0  0  0  0  0  0  0
    6.4570   -0.0316   20.0511 C   0  0  0  0  0  0  0  0  0  0  0  0
    5.2587    0.6885   20.1244 C   0  0  0  0  0  0  0  0  0  0  0  0
    4.8097    1.3473   18.9748 C   0  0  0  0  0  0  0  0  0  0  0  0
    5.5570    1.2487   17.7952 C   0  0  0  0  0  0  0  0  0  0  0  0
    6.6866    0.5324   17.6935 N   0  0  0  0  0  0  0  0  0  0  0  0
    7.1045   -0.0840   18.8056 C   0  0  0  0  0  0  0  0  0  0  0  0
    8.0188   -0.6712   18.7044 H   0  0  0  0  0  0  0  0  0  0  0  0
    5.2366    1.7525   16.8844 H   0  0  0  0  0  0  0  0  0  0  0  0
    3.9034    1.9427   18.9818 H   0  0  0  0  0  0  0  0  0  0  0  0
    4.6778    0.7174   21.0507 H   0  0  0  0  0  0  0  0  0  0  0  0
    7.9135   -1.3311   20.8126 H   0  0  0  0  0  0  0  0  0  0  0  0
    7.1047    0.7994   22.8295 H   0  0  0  0  0  0  0  0  0  0  0  0
    8.2724    1.1401   21.5601 H   0  0  0  0  0  0  0  0  0  0  0  0
    9.8858   -0.5393   22.4446 H   0  0  0  0  0  0  0  0  0  0  0  0
    7.8527   -0.6762   24.7608 H   0  0  0  0  0  0  0  0  0  0  0  0
    9.5374   -1.4295   24.7060 H   0  0  0  0  0  0  0  0  0  0  0  0
  1  2  2  3
  2  3  1  0
  3  4  1  0
  4  5  1  0
  5  6  1  0
  6  7  2  0
  6  8  1  0
  8  9  2  0
  9 10  1  0
 10 11  2  0
 11 12  1  0
 12 13  1  0
 13 14  1  0
 13 15  1  0
 13 16  1  0
 12 17  2  0
 17 18  1  0
 18 19  2  0
 19 20  1  0
 20 21  2  0
 21 22  1  0
 19 23  1  0
 18 24  1  0
 17 25  1  0
  5 26  1  0
  4 27  1  0
 27 28  2  0
 28 29  1  0
 29 30  2  0
 30 31  1  0
 31 32  2  0
 32 33  1  0
 30 34  1  0
 29 35  1  0
 28 36  1  0
  4 37  1  6
  3 38  1  0
  3 39  1  0
  2 40  1  0
  1 41  1  0
  1 42  1  0
 21  8  1  0
 32 27  1  0
 20 11  1  0
M  END
>  <plip>  (1) 
-0.10344827586206896

>  <filename>  (1) 
[H][C]([H])=[C]([H])[C]([H])([H])[C@]([H])([c]1[c]([H])[n][c]([H])[c]([H])[c]1[H])[N]([H])[C](=[O])[c]1[n][n][c]2[c]([C]([H])([H])[H])[c]([H])[c]([H])[c]([H])[c]2[c]1[H]

$$$$
