
     RDKit          3D

 38 40  0  0  0  0  0  0  0  0999 V2000
    4.8049    1.8058   16.8156 H   0  0  0  0  0  0  0  0  0  0  0  0
    5.2873    1.2672   17.6231 C   0  0  0  0  0  0  0  0  0  0  0  0
    6.3837    0.5653   17.2914 N   0  0  0  0  0  0  0  0  0  0  0  0
    7.0409   -0.0524   18.2743 C   0  0  0  0  0  0  0  0  0  0  0  0
    7.9231   -0.6189   17.9764 H   0  0  0  0  0  0  0  0  0  0  0  0
    6.6640    0.0254   19.6294 C   0  0  0  0  0  0  0  0  0  0  0  0
    7.6872   -0.7178   20.9119 S   0  0  0  0  0  0  0  0  0  0  0  0
    8.5280    0.6663   21.6458 C   0  0  0  0  0  0  0  0  0  0  0  0
    9.8122    0.9447   21.5473 N   0  0  0  0  0  0  0  0  0  0  0  0
   10.0097    2.0500   22.3109 N   0  0  0  0  0  0  0  0  0  0  0  0
    8.9112    2.4354   22.8508 N   0  0  0  0  0  0  0  0  0  0  0  0
    7.9555    1.5906   22.4589 N   0  0  0  0  0  0  0  0  0  0  0  0
    6.6144    1.6907   22.8846 N   0  0  0  0  0  0  0  0  0  0  0  0
    6.5225    2.6445   23.2549 H   0  0  0  0  0  0  0  0  0  0  0  0
    6.2951    0.6421   23.8983 C   0  0  0  0  0  0  0  0  0  0  0  0
    6.1854   -0.3137   23.3731 H   0  0  0  0  0  0  0  0  0  0  0  0
    5.3184    0.8911   24.3230 H   0  0  0  0  0  0  0  0  0  0  0  0
    7.3250    0.4446   25.0309 C   0  0  0  0  0  0  0  0  0  0  0  0
    6.7919    0.0710   25.9220 H   0  0  0  0  0  0  0  0  0  0  0  0
    7.7367    1.4270   25.2991 H   0  0  0  0  0  0  0  0  0  0  0  0
    8.4635   -0.4199   24.6487 N   0  0  0  0  0  0  0  0  0  0  0  0
    8.2139   -1.8752   24.6370 C   0  0  0  0  0  0  0  0  0  0  0  0
    7.2956   -2.1101   24.0857 H   0  0  0  0  0  0  0  0  0  0  0  0
    9.0393   -2.3443   24.0816 H   0  0  0  0  0  0  0  0  0  0  0  0
    8.1651   -2.4849   26.0533 C   0  0  0  0  0  0  0  0  0  0  0  0
    8.1574   -3.5780   26.0048 H   0  0  0  0  0  0  0  0  0  0  0  0
    7.2435   -2.1518   26.5579 H   0  0  0  0  0  0  0  0  0  0  0  0
    9.3050   -2.1386   26.8340 O   0  0  0  0  0  0  0  0  0  0  0  0
    9.5322   -0.7328   26.8662 C   0  0  0  0  0  0  0  0  0  0  0  0
   10.4363   -0.5671   27.4539 H   0  0  0  0  0  0  0  0  0  0  0  0
    8.6950   -0.2179   27.3700 H   0  0  0  0  0  0  0  0  0  0  0  0
    9.6835   -0.1768   25.4428 C   0  0  0  0  0  0  0  0  0  0  0  0
    9.9150    0.8935   25.4553 H   0  0  0  0  0  0  0  0  0  0  0  0
   10.5288   -0.6724   24.9402 H   0  0  0  0  0  0  0  0  0  0  0  0
    5.4819    0.7044   19.9539 C   0  0  0  0  0  0  0  0  0  0  0  0
    5.1735    0.7797   20.9990 H   0  0  0  0  0  0  0  0  0  0  0  0
    4.7796    1.3304   18.9242 C   0  0  0  0  0  0  0  0  0  0  0  0
    3.8731    1.8918   19.1261 H   0  0  0  0  0  0  0  0  0  0  0  0
  1  2  1  0
  2  3  2  0
  3  4  1  0
  4  5  1  0
  4  6  2  0
  6  7  1  0
  7  8  1  0
  8  9  2  0
  9 10  1  0
 10 11  2  0
 11 12  1  0
 12 13  1  0
 13 14  1  0
 13 15  1  0
 15 16  1  0
 15 17  1  0
 15 18  1  0
 18 19  1  0
 18 20  1  0
 18 21  1  0
 21 22  1  0
 22 23  1  0
 22 24  1  0
 22 25  1  0
 25 26  1  0
 25 27  1  0
 25 28  1  0
 28 29  1  0
 29 30  1  0
 29 31  1  0
 29 32  1  0
 32 33  1  0
 32 34  1  0
  6 35  1  0
 35 36  1  0
 35 37  2  0
 37 38  1  0
 37  2  1  0
 12  8  1  0
 32 21  1  0
M  END
>  <plip>  (1) 
-0.10714285714285714

>  <filename>  (1) 
[H][c]1[n][c]([H])[c]([S][c]2[n][n][n][n]2[N]([H])[C]([H])([H])[C]([H])([H])[N]2[C]([H])([H])[C]([H])([H])[O][C]([H])([H])[C]2([H])[H])[c]([H])[c]1[H]

$$$$
