
     RDKit          3D

 30 32  0  0  0  0  0  0  0  0999 V2000
    7.5609   -2.7506   21.1126 H   0  0  0  0  0  0  0  0  0  0  0  0
    6.6671   -2.2544   21.3032 N   0  0  0  0  0  0  0  0  0  0  0  0
    7.4677   -0.8162   21.2671 S   0  0  1  0  0  6  0  0  0  0  0  0
    8.8579   -1.1058   20.8597 O   0  0  0  0  0  0  0  0  0  0  0  0
    6.5640    0.1100   20.0750 C   0  0  0  0  0  0  0  0  0  0  0  0
    7.1714    0.0418   18.8308 C   0  0  0  0  0  0  0  0  0  0  0  0
    8.1156   -0.4793   18.7052 H   0  0  0  0  0  0  0  0  0  0  0  0
    6.6508    0.6078   17.7458 N   0  0  0  0  0  0  0  0  0  0  0  0
    5.4825    1.2504   17.8804 C   0  0  0  0  0  0  0  0  0  0  0  0
    5.0687    1.6869   16.9723 H   0  0  0  0  0  0  0  0  0  0  0  0
    4.7910    1.3432   19.0952 C   0  0  0  0  0  0  0  0  0  0  0  0
    3.8344    1.8539   19.1168 H   0  0  0  0  0  0  0  0  0  0  0  0
    5.3365    0.7617   20.2403 C   0  0  0  0  0  0  0  0  0  0  0  0
    4.8075    0.8174   21.1974 H   0  0  0  0  0  0  0  0  0  0  0  0
    7.3665    0.0693   22.7696 C   0  0  0  0  0  0  0  0  0  0  0  0
    6.8146   -0.3837   23.9481 C   0  0  0  0  0  0  0  0  0  0  0  0
    6.3409   -1.3622   24.0161 H   0  0  0  0  0  0  0  0  0  0  0  0
    6.8890    0.4448   25.0899 C   0  0  0  0  0  0  0  0  0  0  0  0
    6.4611    0.0915   26.0210 H   0  0  0  0  0  0  0  0  0  0  0  0
    7.4895    1.6881   25.0558 C   0  0  0  0  0  0  0  0  0  0  0  0
    7.5277    2.3210   25.9420 H   0  0  0  0  0  0  0  0  0  0  0  0
    8.0841    2.1500   23.8491 C   0  0  0  0  0  0  0  0  0  0  0  0
    8.7541    3.4084   23.7007 C   0  0  0  0  0  0  0  0  0  0  0  0
    8.7634    4.1401   24.5138 H   0  0  0  0  0  0  0  0  0  0  0  0
    9.3990    3.6584   22.5169 C   0  0  0  0  0  0  0  0  0  0  0  0
    9.9321    4.5847   22.3548 H   0  0  0  0  0  0  0  0  0  0  0  0
    9.3742    2.6887   21.4730 C   0  0  0  0  0  0  0  0  0  0  0  0
    9.9704    2.8474   20.5791 H   0  0  0  0  0  0  0  0  0  0  0  0
    8.6865    1.5823   21.5316 N   0  0  0  0  0  0  0  0  0  0  0  0
    8.0568    1.2939   22.7003 C   0  0  0  0  0  0  0  0  0  0  0  0
  1  2  1  0
  2  3  2  0
  3  4  2  0
  3  5  1  6
  5  6  2  0
  6  7  1  0
  6  8  1  0
  8  9  2  0
  9 10  1  0
  9 11  1  0
 11 12  1  0
 11 13  2  0
 13 14  1  0
  3 15  1  0
 15 16  2  0
 16 17  1  0
 16 18  1  0
 18 19  1  0
 18 20  2  0
 20 21  1  0
 20 22  1  0
 22 23  2  0
 23 24  1  0
 23 25  1  0
 25 26  1  0
 25 27  2  0
 27 28  1  0
 27 29  1  0
 29 30  2  0
 13  5  1  0
 30 15  1  0
 30 22  1  0
M  END
>  <plip>  (1) 
-0.10344827586206896

>  <filename>  (1) 
[H][N]=[S@@](=[O])([c]1[c]([H])[n][c]([H])[c]([H])[c]1[H])[c]1[c]([H])[c]([H])[c]([H])[c]2[c]([H])[c]([H])[c]([H])[n][c]12

$$$$
