
     RDKit          3D

 49 52  0  0  0  0  0  0  0  0999 V2000
    6.2316   -2.9656   19.8153 O   0  0  0  0  0  0  0  0  0  0  0  0
    6.1597   -2.8503   21.0227 C   0  0  0  0  0  0  0  0  0  0  0  0
    6.6235   -1.7603   21.7159 N   0  0  0  0  0  0  0  0  0  0  0  0
    7.3784   -0.7330   21.0083 C   0  0  0  0  0  0  0  0  0  0  0  0
    6.5889   -0.0368   19.9062 C   0  0  0  0  0  0  0  0  0  0  0  0
    5.3809    0.6410   20.1273 C   0  0  0  0  0  0  0  0  0  0  0  0
    4.7833    1.3152   19.0589 C   0  0  0  0  0  0  0  0  0  0  0  0
    5.4119    1.3029   17.8098 C   0  0  0  0  0  0  0  0  0  0  0  0
    6.5657    0.6641   17.5721 N   0  0  0  0  0  0  0  0  0  0  0  0
    7.1230    0.0183   18.6089 C   0  0  0  0  0  0  0  0  0  0  0  0
    8.0670   -0.4847   18.3848 H   0  0  0  0  0  0  0  0  0  0  0  0
    4.9752    1.8391   16.9690 H   0  0  0  0  0  0  0  0  0  0  0  0
    3.8623    1.8681   19.1899 H   0  0  0  0  0  0  0  0  0  0  0  0
    4.9249    0.6632   21.1204 H   0  0  0  0  0  0  0  0  0  0  0  0
    7.9928    0.2650   22.0140 C   0  0  0  0  0  0  0  0  0  0  0  0
    8.9829    1.2462   21.3664 C   0  0  0  0  0  0  0  0  0  0  0  0
    9.8927    1.7535   22.4989 C   0  0  0  0  0  0  0  0  0  0  0  0
    9.8151    0.6933   23.6234 C   0  0  0  0  0  0  0  0  0  0  0  0
    8.8230   -0.3812   23.1359 C   0  0  0  0  0  0  0  0  0  0  0  0
    9.3788   -1.2357   22.7305 H   0  0  0  0  0  0  0  0  0  0  0  0
    8.1932   -0.7597   23.9482 H   0  0  0  0  0  0  0  0  0  0  0  0
    9.4689    1.1548   24.5543 H   0  0  0  0  0  0  0  0  0  0  0  0
   10.7918    0.2472   23.8427 H   0  0  0  0  0  0  0  0  0  0  0  0
   10.9202    1.9050   22.1506 H   0  0  0  0  0  0  0  0  0  0  0  0
    9.5409    2.7211   22.8707 H   0  0  0  0  0  0  0  0  0  0  0  0
    9.5853    0.7079   20.6250 H   0  0  0  0  0  0  0  0  0  0  0  0
    8.4686    2.0519   20.8334 H   0  0  0  0  0  0  0  0  0  0  0  0
    7.1692    0.8346   22.4714 H   0  0  0  0  0  0  0  0  0  0  0  0
    8.2217   -1.2457   20.5252 H   0  0  0  0  0  0  0  0  0  0  0  0
    5.9852   -1.4225   22.4259 H   0  0  0  0  0  0  0  0  0  0  0  0
    5.4487   -3.9326   21.8712 C   0  0  0  0  0  0  0  0  0  0  0  0
    6.0302   -4.4460   23.2029 C   0  0  0  0  0  0  0  0  0  0  0  0
    5.0055   -3.9188   24.1940 C   0  0  0  0  0  0  0  0  0  0  0  0
    4.0120   -3.3635   23.6119 N   0  0  0  0  0  0  0  0  0  0  0  0
    4.1780   -3.3858   22.2504 O   0  0  0  0  0  0  0  0  0  0  0  0
    5.0951   -4.0590   25.6620 C   0  0  0  0  0  0  0  0  0  0  0  0
    6.1633   -4.7894   26.2181 C   0  0  0  0  0  0  0  0  0  0  0  0
    6.2787   -4.9337   27.5935 C   0  0  0  0  0  0  0  0  0  0  0  0
    7.3123   -5.6296   28.0902 F   0  0  0  0  0  0  0  0  0  0  0  0
    5.3569   -4.3749   28.4714 C   0  0  0  0  0  0  0  0  0  0  0  0
    4.2904   -3.6468   27.9396 C   0  0  0  0  0  0  0  0  0  0  0  0
    4.1637   -3.4928   26.5564 C   0  0  0  0  0  0  0  0  0  0  0  0
    3.1285   -2.7773   26.1114 F   0  0  0  0  0  0  0  0  0  0  0  0
    3.5480   -3.1871   28.5821 H   0  0  0  0  0  0  0  0  0  0  0  0
    5.4848   -4.5179   29.5398 H   0  0  0  0  0  0  0  0  0  0  0  0
    6.9209   -5.2445   25.5878 H   0  0  0  0  0  0  0  0  0  0  0  0
    6.0361   -5.5464   23.2284 H   0  0  0  0  0  0  0  0  0  0  0  0
    7.0415   -4.0983   23.4428 H   0  0  0  0  0  0  0  0  0  0  0  0
    5.2360   -4.7402   21.1686 H   0  0  0  0  0  0  0  0  0  0  0  0
  1  2  2  0
  2  3  1  0
  3  4  1  0
  4  5  1  0
  5  6  2  0
  6  7  1  0
  7  8  2  0
  8  9  1  0
  9 10  2  0
 10 11  1  0
  8 12  1  0
  7 13  1  0
  6 14  1  0
  4 15  1  0
 15 16  1  0
 16 17  1  0
 17 18  1  0
 18 19  1  0
 19 20  1  0
 19 21  1  0
 18 22  1  0
 18 23  1  0
 17 24  1  0
 17 25  1  0
 16 26  1  0
 16 27  1  0
 15 28  1  0
  4 29  1  0
  3 30  1  0
  2 31  1  0
 31 32  1  0
 32 33  1  0
 33 34  2  0
 34 35  1  0
 33 36  1  0
 36 37  2  0
 37 38  1  0
 38 39  1  0
 38 40  2  0
 40 41  1  0
 41 42  2  0
 42 43  1  0
 41 44  1  0
 40 45  1  0
 37 46  1  0
 32 47  1  0
 32 48  1  0
 31 49  1  0
 10  5  1  0
 19 15  1  0
 35 31  1  0
 42 36  1  0
M  END
>  <plip>  (1) 
-0.13793103448275862

>  <filename>  (1) 
[H][c]1[n][c]([H])[c]([C]([H])([N]([H])[C](=[O])[C]2([H])[O][N]=[C]([c]3[c]([H])[c]([F])[c]([H])[c]([H])[c]3[F])[C]2([H])[H])[C]2([H])[C]([H])([H])[C]([H])([H])[C]([H])([H])[C]2([H])[H])[c]([H])[c]1[H]

$$$$
