
     RDKit          3D

 42 43  0  0  0  0  0  0  0  0999 V2000
   11.8257    6.5348   24.8899 C   0  0  0  0  0  0  0  0  0  0  0  0
   11.0628    5.7686   23.8223 C   0  0  0  0  0  0  0  0  0  0  0  0
   11.5156    4.4224   23.8477 O   0  0  0  0  0  0  0  0  0  0  0  0
   10.9405    3.6257   22.8293 C   0  0  0  0  0  0  0  0  0  0  0  0
   11.4734    2.1910   22.8894 C   0  0  0  0  0  0  0  0  0  0  0  0
   10.8715    1.2697   21.7961 C   0  0  0  0  0  0  0  0  0  0  0  0
    9.1155    0.9377   21.9736 S   0  0  0  0  0  0  0  0  0  0  0  0
    8.3809    2.0057   21.3252 O   0  0  0  0  0  0  0  0  0  0  0  0
    8.8678    0.5785   23.3622 O   0  0  0  0  0  0  0  0  0  0  0  0
    8.8150   -0.4394   21.0593 N   0  0  0  0  0  0  0  0  0  0  0  0
    9.5284   -1.6605   21.4857 C   0  0  0  0  0  0  0  0  0  0  0  0
    8.4529   -2.7638   21.5586 C   0  0  0  0  0  0  0  0  0  0  0  0
    7.1783   -2.1584   20.9552 C   0  0  0  0  0  0  0  0  0  0  0  0
    7.3386   -0.6433   21.0754 C   0  0  0  0  0  0  0  0  0  0  0  0
    6.6530    0.1326   19.9883 C   0  0  0  0  0  0  0  0  0  0  0  0
    5.4104    0.7662   20.1757 C   0  0  0  0  0  0  0  0  0  0  0  0
    4.7935    1.3605   19.0714 C   0  0  0  0  0  0  0  0  0  0  0  0
    5.4346    1.3094   17.8322 C   0  0  0  0  0  0  0  0  0  0  0  0
    6.6204    0.7113   17.6365 N   0  0  0  0  0  0  0  0  0  0  0  0
    7.2060    0.1516   18.7043 C   0  0  0  0  0  0  0  0  0  0  0  0
    8.1683   -0.3320   18.5265 H   0  0  0  0  0  0  0  0  0  0  0  0
    4.9753    1.7547   16.9501 H   0  0  0  0  0  0  0  0  0  0  0  0
    3.8298    1.8532   19.1540 H   0  0  0  0  0  0  0  0  0  0  0  0
    4.9348    0.8005   21.1580 H   0  0  0  0  0  0  0  0  0  0  0  0
    6.9089   -0.3354   22.0454 H   0  0  0  0  0  0  0  0  0  0  0  0
    6.2698   -2.4838   21.4671 H   0  0  0  0  0  0  0  0  0  0  0  0
    7.0646   -2.4245   19.9058 H   0  0  0  0  0  0  0  0  0  0  0  0
    8.7705   -3.6678   21.0316 H   0  0  0  0  0  0  0  0  0  0  0  0
    8.2850   -3.0311   22.6082 H   0  0  0  0  0  0  0  0  0  0  0  0
   10.0105   -1.5652   22.4691 H   0  0  0  0  0  0  0  0  0  0  0  0
   10.3228   -1.8849   20.7604 H   0  0  0  0  0  0  0  0  0  0  0  0
   10.9488    1.7059   20.7978 H   0  0  0  0  0  0  0  0  0  0  0  0
   11.3538    0.2878   21.7729 H   0  0  0  0  0  0  0  0  0  0  0  0
   12.5602    2.2260   22.7422 H   0  0  0  0  0  0  0  0  0  0  0  0
   11.3027    1.7649   23.8846 H   0  0  0  0  0  0  0  0  0  0  0  0
    9.8387    3.6301   22.8964 H   0  0  0  0  0  0  0  0  0  0  0  0
   11.2201    4.0369   21.8482 H   0  0  0  0  0  0  0  0  0  0  0  0
    9.9742    5.8227   24.0132 H   0  0  0  0  0  0  0  0  0  0  0  0
   11.2373    6.2203   22.8287 H   0  0  0  0  0  0  0  0  0  0  0  0
   12.8840    6.6137   24.6227 H   0  0  0  0  0  0  0  0  0  0  0  0
   11.4311    7.5485   25.0230 H   0  0  0  0  0  0  0  0  0  0  0  0
   11.7456    6.0047   25.8431 H   0  0  0  0  0  0  0  0  0  0  0  0
  1  2  1  0
  2  3  1  0
  3  4  1  0
  4  5  1  0
  5  6  1  0
  6  7  1  0
  7  8  2  0
  7  9  2  0
  7 10  1  0
 10 11  1  0
 11 12  1  0
 12 13  1  0
 13 14  1  0
 14 15  1  0
 15 16  2  0
 16 17  1  0
 17 18  2  0
 18 19  1  0
 19 20  2  0
 20 21  1  0
 18 22  1  0
 17 23  1  0
 16 24  1  0
 14 25  1  0
 13 26  1  0
 13 27  1  0
 12 28  1  0
 12 29  1  0
 11 30  1  0
 11 31  1  0
  6 32  1  0
  6 33  1  0
  5 34  1  0
  5 35  1  0
  4 36  1  0
  4 37  1  0
  2 38  1  0
  2 39  1  0
  1 40  1  0
  1 41  1  0
  1 42  1  0
 14 10  1  0
 20 15  1  0
M  END
>  <plip>  (1) 
-0.14285714285714285

>  <filename>  (1) 
[H][c]1[n][c]([H])[c]([C]2([H])[N]([S](=[O])(=[O])[C]([H])([H])[C]([H])([H])[C]([H])([H])[O][C]([H])([H])[C]([H])([H])[H])[C]([H])([H])[C]([H])([H])[C]2([H])[H])[c]([H])[c]1[H]

$$$$
