
     RDKit          3D

 47 49  0  0  0  0  0  0  0  0999 V2000
    8.6638    1.0954   22.4679 C   0  0  0  0  0  0  0  0  0  0  0  0
    8.6221   -0.0027   21.4687 N   0  0  0  0  0  4  0  0  0  0  0  0
    9.5652   -1.1364   21.7533 C   0  0  0  0  0  0  0  0  0  0  0  0
    9.0319   -2.2186   20.8297 C   0  0  0  0  0  0  0  0  0  0  0  0
    7.4928   -2.0994   20.8662 C   0  0  1  0  0  0  0  0  0  0  0  0
    6.7912   -3.1460   21.7552 C   0  0  0  0  0  0  0  0  0  0  0  0
    7.2536   -3.1755   23.1265 N   0  0  0  0  0  0  0  0  0  0  0  0
    8.2058   -4.0505   23.5742 C   0  0  0  0  0  0  0  0  0  0  0  0
    8.5917   -4.9970   22.9196 O   0  0  0  0  0  0  0  0  0  0  0  0
    8.6772   -3.7047   25.0387 C   0  0  0  0  0  0  0  0  0  0  0  0
    8.9528   -2.3375   25.0669 F   0  0  0  0  0  0  0  0  0  0  0  0
   10.2195   -4.4939   25.4376 Cl  0  0  0  0  0  0  0  0  0  0  0  0
    7.5890   -4.0386   26.0579 C   0  0  0  0  0  0  0  0  0  0  0  0
    7.1852   -5.3726   26.2169 C   0  0  0  0  0  0  0  0  0  0  0  0
    6.1447   -5.6923   27.0949 C   0  0  0  0  0  0  0  0  0  0  0  0
    5.4729   -4.6791   27.7893 C   0  0  0  0  0  0  0  0  0  0  0  0
    5.8616   -3.3471   27.6218 C   0  0  0  0  0  0  0  0  0  0  0  0
    6.9264   -3.0271   26.7728 C   0  0  0  0  0  0  0  0  0  0  0  0
    7.2428   -1.9949   26.6656 H   0  0  0  0  0  0  0  0  0  0  0  0
    5.3454   -2.5562   28.1599 H   0  0  0  0  0  0  0  0  0  0  0  0
    4.6642   -4.9291   28.4725 H   0  0  0  0  0  0  0  0  0  0  0  0
    5.8578   -6.7305   27.2365 H   0  0  0  0  0  0  0  0  0  0  0  0
    7.6709   -6.1605   25.6453 H   0  0  0  0  0  0  0  0  0  0  0  0
    7.1991   -2.3164   23.6457 H   0  0  0  0  0  0  0  0  0  0  0  0
    6.9651   -4.1426   21.3357 H   0  0  0  0  0  0  0  0  0  0  0  0
    5.7079   -2.9782   21.7543 H   0  0  0  0  0  0  0  0  0  0  0  0
    7.2293   -0.6094   21.2109 C   0  0  2  0  0  0  0  0  0  0  0  0
    6.5857    0.1481   20.0631 C   0  0  0  0  0  0  0  0  0  0  0  0
    5.3455    0.7894   20.1847 C   0  0  0  0  0  0  0  0  0  0  0  0
    4.7791    1.3876   19.0555 C   0  0  0  0  0  0  0  0  0  0  0  0
    5.4710    1.3402   17.8413 C   0  0  0  0  0  0  0  0  0  0  0  0
    6.6560    0.7246   17.7009 N   0  0  0  0  0  0  0  0  0  0  0  0
    7.1880    0.1565   18.7897 C   0  0  0  0  0  0  0  0  0  0  0  0
    8.1375   -0.3534   18.6104 H   0  0  0  0  0  0  0  0  0  0  0  0
    5.0473    1.7908   16.9432 H   0  0  0  0  0  0  0  0  0  0  0  0
    3.8235    1.8983   19.1059 H   0  0  0  0  0  0  0  0  0  0  0  0
    4.8356    0.8319   21.1486 H   0  0  0  0  0  0  0  0  0  0  0  0
    6.6170   -0.4780   22.1143 H   0  0  0  0  0  0  0  0  0  0  0  0
    7.0547   -2.2805   19.8761 H   0  0  0  0  0  0  0  0  0  0  0  0
    9.3864   -1.9503   19.8290 H   0  0  0  0  0  0  0  0  0  0  0  0
    9.3959   -3.2168   21.0713 H   0  0  0  0  0  0  0  0  0  0  0  0
    9.5240   -1.4326   22.8124 H   0  0  0  0  0  0  0  0  0  0  0  0
   10.5940   -0.8469   21.5027 H   0  0  0  0  0  0  0  0  0  0  0  0
    8.8660    0.4014   20.5358 H   0  0  0  0  0  0  0  0  0  0  0  0
    8.3856    0.7226   23.4666 H   0  0  0  0  0  0  0  0  0  0  0  0
    9.6763    1.5187   22.5419 H   0  0  0  0  0  0  0  0  0  0  0  0
    7.9572    1.8910   22.2007 H   0  0  0  0  0  0  0  0  0  0  0  0
  1  2  1  0
  2  3  1  0
  3  4  1  0
  4  5  1  0
  5  6  1  0
  6  7  1  0
  7  8  1  0
  8  9  2  0
  8 10  1  0
 10 11  1  0
 10 12  1  0
 10 13  1  0
 13 14  2  0
 14 15  1  0
 15 16  2  0
 16 17  1  0
 17 18  2  0
 18 19  1  0
 17 20  1  0
 16 21  1  0
 15 22  1  0
 14 23  1  0
  7 24  1  0
  6 25  1  0
  6 26  1  0
  5 27  1  0
 27 28  1  0
 28 29  2  0
 29 30  1  0
 30 31  2  0
 31 32  1  0
 32 33  2  0
 33 34  1  0
 31 35  1  0
 30 36  1  0
 29 37  1  0
 27 38  1  1
  5 39  1  6
  4 40  1  0
  4 41  1  0
  3 42  1  0
  3 43  1  0
  2 44  1  0
  1 45  1  0
  1 46  1  0
  1 47  1  0
 27  2  1  0
 33 28  1  0
 18 13  1  0
M  CHG  1   2   1
M  END
>  <plip>  (1) 
-0.13333333333333333

>  <filename>  (1) 
[H][c]1[n][c]([H])[c]([C@@]2([H])[C@]([H])([C]([H])([H])[N]([H])[C](=[O])[C]([F])([Cl])[c]3[c]([H])[c]([H])[c]([H])[c]([H])[c]3[H])[C]([H])([H])[C]([H])([H])[N+]2([H])[C]([H])([H])[H])[c]([H])[c]1[H]

$$$$
