
     RDKit          3D

 49 50  0  0  0  0  0  0  0  0999 V2000
    3.4344   -7.0401   25.8095 C   0  0  0  0  0  0  0  0  0  0  0  0
    4.6758   -6.2009   26.0669 C   0  0  0  0  0  0  0  0  0  0  0  0
    4.5102   -5.2673   27.2529 C   0  0  0  0  0  0  0  0  0  0  0  0
    5.3665   -4.5896   27.3250 H   0  0  0  0  0  0  0  0  0  0  0  0
    4.4381   -5.8337   28.1827 H   0  0  0  0  0  0  0  0  0  0  0  0
    3.6066   -4.6554   27.1651 H   0  0  0  0  0  0  0  0  0  0  0  0
    5.1052   -5.3811   24.8612 N   0  0  0  0  0  4  0  0  0  0  0  0
    5.3477   -6.1497   23.5846 C   0  0  0  0  0  0  0  0  0  0  0  0
    6.0563   -5.2940   22.4946 C   0  0  0  0  0  0  0  0  0  0  0  0
    5.6429   -3.8180   22.4694 N   0  0  0  0  0  4  0  0  0  0  0  0
    5.6875   -3.2167   21.1122 C   0  0  0  0  0  0  0  0  0  0  0  0
    7.0674   -2.6180   20.8876 C   0  0  0  0  0  0  0  0  0  0  0  0
    7.3267   -1.4989   21.8692 C   0  0  0  0  0  0  0  0  0  0  0  0
    7.3123   -1.7655   23.0678 O   0  0  0  0  0  0  0  0  0  0  0  0
    7.5764   -0.2248   21.3606 N   0  0  0  0  0  0  0  0  0  0  0  0
    8.0041    0.8233   22.3082 C   0  0  0  0  0  0  0  0  0  0  0  0
    7.2865    0.9393   23.1331 H   0  0  0  0  0  0  0  0  0  0  0  0
    8.0813    1.7780   21.7730 H   0  0  0  0  0  0  0  0  0  0  0  0
    8.9933    0.5825   22.7197 H   0  0  0  0  0  0  0  0  0  0  0  0
    6.9035    0.2623   20.1688 C   0  0  0  0  0  0  0  0  0  0  0  0
    5.6428    0.8629   20.2887 C   0  0  0  0  0  0  0  0  0  0  0  0
    5.0263    1.3649   19.1377 C   0  0  0  0  0  0  0  0  0  0  0  0
    5.6918    1.2678   17.9113 C   0  0  0  0  0  0  0  0  0  0  0  0
    6.9081    0.7139   17.7843 N   0  0  0  0  0  0  0  0  0  0  0  0
    7.5005    0.2440   18.8934 C   0  0  0  0  0  0  0  0  0  0  0  0
    8.5023   -0.1739   18.7791 H   0  0  0  0  0  0  0  0  0  0  0  0
    5.2312    1.6481   16.9983 H   0  0  0  0  0  0  0  0  0  0  0  0
    4.0592    1.8555   19.1808 H   0  0  0  0  0  0  0  0  0  0  0  0
    5.1793    0.9551   21.2735 H   0  0  0  0  0  0  0  0  0  0  0  0
    7.8413   -3.3693   21.0874 H   0  0  0  0  0  0  0  0  0  0  0  0
    7.1634   -2.2450   19.8791 H   0  0  0  0  0  0  0  0  0  0  0  0
    5.4279   -3.9590   20.3408 H   0  0  0  0  0  0  0  0  0  0  0  0
    4.9436   -2.4144   21.0586 H   0  0  0  0  0  0  0  0  0  0  0  0
    4.2777   -3.7545   23.0672 C   0  0  0  0  0  0  0  0  0  0  0  0
    4.2624   -4.1311   24.5501 C   0  0  0  0  0  0  0  0  0  0  0  0
    3.2277   -4.2888   24.8661 H   0  0  0  0  0  0  0  0  0  0  0  0
    4.6527   -3.2771   25.1097 H   0  0  0  0  0  0  0  0  0  0  0  0
    3.8813   -2.7512   22.9761 H   0  0  0  0  0  0  0  0  0  0  0  0
    3.6146   -4.4233   22.5056 H   0  0  0  0  0  0  0  0  0  0  0  0
    6.3123   -3.2034   23.0212 H   0  0  0  0  0  0  0  0  0  0  0  0
    7.1424   -5.3754   22.5879 H   0  0  0  0  0  0  0  0  0  0  0  0
    5.7656   -5.7166   21.5238 H   0  0  0  0  0  0  0  0  0  0  0  0
    5.9200   -7.0569   23.7709 H   0  0  0  0  0  0  0  0  0  0  0  0
    4.3768   -6.4681   23.1901 H   0  0  0  0  0  0  0  0  0  0  0  0
    6.0393   -5.0282   25.1654 H   0  0  0  0  0  0  0  0  0  0  0  0
    5.5033   -6.8929   26.2845 H   0  0  0  0  0  0  0  0  0  0  0  0
    3.6534   -7.8568   25.1176 H   0  0  0  0  0  0  0  0  0  0  0  0
    3.0924   -7.4773   26.7536 H   0  0  0  0  0  0  0  0  0  0  0  0
    2.6169   -6.4455   25.3900 H   0  0  0  0  0  0  0  0  0  0  0  0
  1  2  1  0
  2  3  1  0
  3  4  1  0
  3  5  1  0
  3  6  1  0
  2  7  1  0
  7  8  1  0
  8  9  1  0
  9 10  1  0
 10 11  1  0
 11 12  1  0
 12 13  1  0
 13 14  2  0
 13 15  1  0
 15 16  1  0
 16 17  1  0
 16 18  1  0
 16 19  1  0
 15 20  1  0
 20 21  2  0
 21 22  1  0
 22 23  2  0
 23 24  1  0
 24 25  2  0
 25 26  1  0
 23 27  1  0
 22 28  1  0
 21 29  1  0
 12 30  1  0
 12 31  1  0
 11 32  1  0
 11 33  1  0
 10 34  1  0
 34 35  1  0
 35 36  1  0
 35 37  1  0
 34 38  1  0
 34 39  1  0
 10 40  1  0
  9 41  1  0
  9 42  1  0
  8 43  1  0
  8 44  1  0
  7 45  1  0
  2 46  1  0
  1 47  1  0
  1 48  1  0
  1 49  1  0
 35  7  1  0
 25 20  1  0
M  CHG  2   7   1  10   1
M  END
>  <plip>  (1) 
-0.07142857142857142

>  <filename>  (1) 
[H][c]1[n][c]([H])[c]([N]([C](=[O])[C]([H])([H])[C]([H])([H])[N+]2([H])[C]([H])([H])[C]([H])([H])[N+]([H])([C]([H])([C]([H])([H])[H])[C]([H])([H])[H])[C]([H])([H])[C]2([H])[H])[C]([H])([H])[H])[c]([H])[c]1[H]

$$$$
