
     RDKit          3D

 40 42  0  0  0  0  0  0  0  0999 V2000
    6.0023   -2.5513   27.0675 C   0  0  0  0  0  0  0  0  0  0  0  0
    6.9795   -3.6139   26.6230 C   0  0  0  0  0  0  0  0  0  0  0  0
    7.5115   -4.5362   27.5358 C   0  0  0  0  0  0  0  0  0  0  0  0
    8.4159   -5.5224   27.1215 C   0  0  0  0  0  0  0  0  0  0  0  0
    8.8139   -5.5778   25.7823 C   0  0  0  0  0  0  0  0  0  0  0  0
    8.2938   -4.6522   24.8684 C   0  0  0  0  0  0  0  0  0  0  0  0
    7.3332   -3.7089   25.2583 C   0  0  0  0  0  0  0  0  0  0  0  0
    6.6718   -2.8466   24.1988 C   0  0  0  0  0  0  0  0  0  0  0  0
    7.4082   -1.5499   23.8931 C   0  0  0  0  0  0  0  0  0  0  0  0
    6.7600   -0.8645   22.7285 N   0  0  0  0  0  4  0  0  0  0  0  0
    6.6641   -1.6478   21.3603 C   0  0  0  0  0  0  0  0  0  0  0  0
    7.4192   -0.5206   20.5974 C   0  0  0  0  0  0  0  0  0  0  0  0
    8.6358   -0.9682   20.0889 F   0  0  0  0  0  0  0  0  0  0  0  0
    6.6679    0.1948   19.5135 C   0  0  0  0  0  0  0  0  0  0  0  0
    5.4528    0.8370   19.7825 C   0  0  0  0  0  0  0  0  0  0  0  0
    4.8054    1.5074   18.7441 C   0  0  0  0  0  0  0  0  0  0  0  0
    5.3893    1.5037   17.4735 C   0  0  0  0  0  0  0  0  0  0  0  0
    6.5388    0.8674   17.1925 N   0  0  0  0  0  0  0  0  0  0  0  0
    7.1545    0.2369   18.1936 C   0  0  0  0  0  0  0  0  0  0  0  0
    8.0816   -0.2723   17.9449 H   0  0  0  0  0  0  0  0  0  0  0  0
    4.9246    2.0283   16.6412 H   0  0  0  0  0  0  0  0  0  0  0  0
    3.8736    2.0385   18.9065 H   0  0  0  0  0  0  0  0  0  0  0  0
    5.0294    0.8147   20.7888 H   0  0  0  0  0  0  0  0  0  0  0  0
    7.5908    0.1845   21.9818 C   0  0  0  0  0  0  0  0  0  0  0  0
    8.6287    0.1477   22.3053 H   0  0  0  0  0  0  0  0  0  0  0  0
    7.2086    1.1973   22.0739 H   0  0  0  0  0  0  0  0  0  0  0  0
    7.2446   -2.5649   21.3974 H   0  0  0  0  0  0  0  0  0  0  0  0
    5.6385   -1.8289   21.0490 H   0  0  0  0  0  0  0  0  0  0  0  0
    5.8102   -0.5312   23.0288 H   0  0  0  0  0  0  0  0  0  0  0  0
    7.4201   -0.8654   24.7484 H   0  0  0  0  0  0  0  0  0  0  0  0
    8.4498   -1.7646   23.6167 H   0  0  0  0  0  0  0  0  0  0  0  0
    5.6339   -2.6082   24.4771 H   0  0  0  0  0  0  0  0  0  0  0  0
    6.6211   -3.4179   23.2644 H   0  0  0  0  0  0  0  0  0  0  0  0
    8.6294   -4.6665   23.8348 H   0  0  0  0  0  0  0  0  0  0  0  0
    9.4998   -6.3424   25.4301 H   0  0  0  0  0  0  0  0  0  0  0  0
    8.8242   -6.2197   27.8468 H   0  0  0  0  0  0  0  0  0  0  0  0
    7.1948   -4.5054   28.5788 H   0  0  0  0  0  0  0  0  0  0  0  0
    6.2290   -1.6015   26.5738 H   0  0  0  0  0  0  0  0  0  0  0  0
    6.0002   -2.3748   28.1445 H   0  0  0  0  0  0  0  0  0  0  0  0
    4.9794   -2.8102   26.7720 H   0  0  0  0  0  0  0  0  0  0  0  0
  1  2  1  0
  2  3  2  0
  3  4  1  0
  4  5  2  0
  5  6  1  0
  6  7  2  0
  7  8  1  0
  8  9  1  0
  9 10  1  0
 10 11  1  0
 11 12  1  0
 12 13  1  0
 12 14  1  0
 14 15  2  0
 15 16  1  0
 16 17  2  0
 17 18  1  0
 18 19  2  0
 19 20  1  0
 17 21  1  0
 16 22  1  0
 15 23  1  0
 12 24  1  0
 24 25  1  0
 24 26  1  0
 11 27  1  0
 11 28  1  0
 10 29  1  0
  9 30  1  0
  9 31  1  0
  8 32  1  0
  8 33  1  0
  6 34  1  0
  5 35  1  0
  4 36  1  0
  3 37  1  0
  1 38  1  0
  1 39  1  0
  1 40  1  0
  7  2  1  0
 24 10  1  0
 19 14  1  0
M  CHG  1  10   1
M  END
>  <plip>  (1) 
-0.10344827586206896

>  <filename>  (1) 
[H][c]1[n][c]([H])[c]([C]2([F])[C]([H])([H])[N+]([H])([C]([H])([H])[C]([H])([H])[c]3[c]([H])[c]([H])[c]([H])[c]([H])[c]3[C]([H])([H])[H])[C]2([H])[H])[c]([H])[c]1[H]

$$$$
