
     RDKit          3D

 50 51  0  0  0  0  0  0  0  0999 V2000
    9.5109   -0.6237   24.0545 C   0  0  0  0  0  0  0  0  0  0  0  0
    8.6495    0.5867   24.4362 C   0  0  0  0  0  0  0  0  0  0  0  0
    7.7464    0.4132   25.5885 N   0  0  0  0  0  0  0  0  0  0  0  0
    6.9819   -0.8542   25.6245 C   0  0  0  0  0  0  0  0  0  0  0  0
    5.8948   -0.9259   24.5784 C   0  0  0  0  0  0  0  0  0  0  0  0
    6.3931   -0.9771   23.1962 N   0  0  0  0  0  0  0  0  0  0  0  0
    6.4950   -2.1751   22.4894 C   0  0  0  0  0  0  0  0  0  0  0  0
    6.4348   -3.2804   22.9916 O   0  0  0  0  0  0  0  0  0  0  0  0
    6.6539   -1.9524   21.1323 N   0  0  0  0  0  0  0  0  0  0  0  0
    6.2995   -3.0449   20.2317 C   0  0  0  0  0  0  0  0  0  0  0  0
    6.3009   -2.6808   19.1990 H   0  0  0  0  0  0  0  0  0  0  0  0
    5.2917   -3.4108   20.4468 H   0  0  0  0  0  0  0  0  0  0  0  0
    6.9821   -3.8990   20.3279 H   0  0  0  0  0  0  0  0  0  0  0  0
    7.4609   -0.8465   20.6059 C   0  0  0  0  0  0  0  0  0  0  0  0
    6.7105   -0.0221   19.5870 C   0  0  0  0  0  0  0  0  0  0  0  0
    5.5415    0.6829   19.9040 C   0  0  0  0  0  0  0  0  0  0  0  0
    4.8924    1.3926   18.8923 C   0  0  0  0  0  0  0  0  0  0  0  0
    5.4362    1.3852   17.6042 C   0  0  0  0  0  0  0  0  0  0  0  0
    6.5581    0.7263   17.2837 N   0  0  0  0  0  0  0  0  0  0  0  0
    7.1678    0.0503   18.2642 C   0  0  0  0  0  0  0  0  0  0  0  0
    8.0894   -0.4604   17.9803 H   0  0  0  0  0  0  0  0  0  0  0  0
    4.9518    1.9288   16.7950 H   0  0  0  0  0  0  0  0  0  0  0  0
    3.9833    1.9498   19.0894 H   0  0  0  0  0  0  0  0  0  0  0  0
    5.1428    0.6857   20.9223 H   0  0  0  0  0  0  0  0  0  0  0  0
    8.3856   -1.2244   20.1410 H   0  0  0  0  0  0  0  0  0  0  0  0
    7.7879   -0.2059   21.4348 H   0  0  0  0  0  0  0  0  0  0  0  0
    5.8976   -0.3403   22.5899 H   0  0  0  0  0  0  0  0  0  0  0  0
    5.3012   -0.0087   24.6822 H   0  0  0  0  0  0  0  0  0  0  0  0
    5.2429   -1.7808   24.8102 H   0  0  0  0  0  0  0  0  0  0  0  0
    6.4808   -0.9095   26.6006 H   0  0  0  0  0  0  0  0  0  0  0  0
    7.6179   -1.7565   25.5612 H   0  0  0  0  0  0  0  0  0  0  0  0
    8.3118    0.6536   26.8792 C   0  0  0  0  0  0  0  0  0  0  0  0
    9.2006   -0.3006   27.3645 C   0  0  0  0  0  0  0  0  0  0  0  0
    9.4484   -0.4196   28.7148 C   0  0  0  0  0  0  0  0  0  0  0  0
    8.8691    0.4752   29.6219 C   0  0  0  0  0  0  0  0  0  0  0  0
    8.0668    1.5142   29.1210 C   0  0  0  0  0  0  0  0  0  0  0  0
    7.7966    1.6503   27.7430 C   0  0  0  0  0  0  0  0  0  0  0  0
    6.9606    2.7908   27.1996 C   0  0  0  0  0  0  0  0  0  0  0  0
    6.1076    2.3863   26.6388 H   0  0  0  0  0  0  0  0  0  0  0  0
    6.5980    3.4490   27.9978 H   0  0  0  0  0  0  0  0  0  0  0  0
    7.5387    3.3958   26.4872 H   0  0  0  0  0  0  0  0  0  0  0  0
    7.6354    2.2427   29.8030 H   0  0  0  0  0  0  0  0  0  0  0  0
    9.0811    0.3823   30.6827 H   0  0  0  0  0  0  0  0  0  0  0  0
   10.0645   -1.2645   28.9552 H   0  0  0  0  0  0  0  0  0  0  0  0
    9.6253   -1.0337   26.6971 H   0  0  0  0  0  0  0  0  0  0  0  0
    8.0215    0.8585   23.5773 H   0  0  0  0  0  0  0  0  0  0  0  0
    9.2742    1.4640   24.6509 H   0  0  0  0  0  0  0  0  0  0  0  0
    8.8963   -1.4608   23.7069 H   0  0  0  0  0  0  0  0  0  0  0  0
   10.2040   -0.3589   23.2546 H   0  0  0  0  0  0  0  0  0  0  0  0
   10.1176   -0.9808   24.8876 H   0  0  0  0  0  0  0  0  0  0  0  0
  1  2  1  0
  2  3  1  0
  3  4  1  0
  4  5  1  0
  5  6  1  0
  6  7  1  0
  7  8  2  0
  7  9  1  0
  9 10  1  0
 10 11  1  0
 10 12  1  0
 10 13  1  0
  9 14  1  0
 14 15  1  0
 15 16  2  0
 16 17  1  0
 17 18  2  0
 18 19  1  0
 19 20  2  0
 20 21  1  0
 18 22  1  0
 17 23  1  0
 16 24  1  0
 14 25  1  0
 14 26  1  0
  6 27  1  0
  5 28  1  0
  5 29  1  0
  4 30  1  0
  4 31  1  0
  3 32  1  0
 32 33  2  0
 33 34  1  0
 34 35  2  0
 35 36  1  0
 36 37  2  0
 37 38  1  0
 38 39  1  0
 38 40  1  0
 38 41  1  0
 36 42  1  0
 35 43  1  0
 34 44  1  0
 33 45  1  0
  2 46  1  0
  2 47  1  0
  1 48  1  0
  1 49  1  0
  1 50  1  0
 20 15  1  0
 37 32  1  0
M  END
>  <plip>  (1) 
-0.06896551724137931

>  <filename>  (1) 
[H][c]1[n][c]([H])[c]([C]([H])([H])[N]([C](=[O])[N]([H])[C]([H])([H])[C]([H])([H])[N]([c]2[c]([H])[c]([H])[c]([H])[c]([H])[c]2[C]([H])([H])[H])[C]([H])([H])[C]([H])([H])[H])[C]([H])([H])[H])[c]([H])[c]1[H]

$$$$
