
     RDKit          3D

 41 43  0  0  0  0  0  0  0  0999 V2000
   11.6918    0.0770   23.8091 C   0  0  0  0  0  0  0  0  0  0  0  0
   12.0772    1.3447   23.0808 C   0  0  0  0  0  0  0  0  0  0  0  0
   13.2707    2.0272   23.3710 C   0  0  0  0  0  0  0  0  0  0  0  0
   13.6772    3.1363   22.6211 C   0  0  0  0  0  0  0  0  0  0  0  0
   12.9118    3.5433   21.5231 C   0  0  0  0  0  0  0  0  0  0  0  0
   11.7601    2.8277   21.1861 C   0  0  0  0  0  0  0  0  0  0  0  0
   11.2750    1.8045   22.0107 C   0  0  0  0  0  0  0  0  0  0  0  0
    9.8435    1.3426   21.8302 C   0  0  0  0  0  0  0  0  0  0  0  0
    8.8848    2.2945   22.5773 C   0  0  0  0  0  0  0  0  0  0  0  0
    7.3914    2.0178   22.3991 C   0  0  0  0  0  0  0  0  0  0  0  0
    7.0059    0.6764   22.8569 N   0  0  0  0  0  0  0  0  0  0  0  0
    6.9276    0.2732   24.1750 C   0  0  0  0  0  0  0  0  0  0  0  0
    7.0617   -1.0120   24.3000 N   0  0  0  0  0  0  0  0  0  0  0  0
    7.2655   -1.5169   23.0299 N   0  0  0  0  0  0  0  0  0  0  0  0
    7.2166   -0.5091   22.2024 C   0  0  0  0  0  0  0  0  0  0  0  0
    7.4369   -0.6739   20.8481 N   0  0  0  0  0  0  0  0  0  0  0  0
    6.7060   -0.0262   19.8089 C   0  0  0  0  0  0  0  0  0  0  0  0
    5.4753    0.6006   20.0348 C   0  0  0  0  0  0  0  0  0  0  0  0
    4.8557    1.2758   18.9720 C   0  0  0  0  0  0  0  0  0  0  0  0
    5.4719    1.2816   17.7162 C   0  0  0  0  0  0  0  0  0  0  0  0
    6.6395    0.6643   17.4707 N   0  0  0  0  0  0  0  0  0  0  0  0
    7.2312    0.0327   18.4957 C   0  0  0  0  0  0  0  0  0  0  0  0
    8.1809   -0.4590   18.2911 H   0  0  0  0  0  0  0  0  0  0  0  0
    5.0119    1.7929   16.8735 H   0  0  0  0  0  0  0  0  0  0  0  0
    3.9198    1.8057   19.1128 H   0  0  0  0  0  0  0  0  0  0  0  0
    5.0423    0.5769   21.0354 H   0  0  0  0  0  0  0  0  0  0  0  0
    7.5822   -1.6696   20.7405 H   0  0  0  0  0  0  0  0  0  0  0  0
    6.7650    0.9650   24.9938 H   0  0  0  0  0  0  0  0  0  0  0  0
    7.0912    2.1400   21.3550 H   0  0  0  0  0  0  0  0  0  0  0  0
    6.8031    2.7410   22.9752 H   0  0  0  0  0  0  0  0  0  0  0  0
    9.1210    2.2764   23.6516 H   0  0  0  0  0  0  0  0  0  0  0  0
    9.0679    3.3241   22.2424 H   0  0  0  0  0  0  0  0  0  0  0  0
    9.7096    0.3117   22.1862 H   0  0  0  0  0  0  0  0  0  0  0  0
    9.6088    1.3416   20.7587 H   0  0  0  0  0  0  0  0  0  0  0  0
   11.2279    3.0756   20.2703 H   0  0  0  0  0  0  0  0  0  0  0  0
   13.2375    4.3532   20.8753 H   0  0  0  0  0  0  0  0  0  0  0  0
   14.6136    3.6401   22.8582 H   0  0  0  0  0  0  0  0  0  0  0  0
   13.8927    1.6671   24.1849 H   0  0  0  0  0  0  0  0  0  0  0  0
   11.6979   -0.7575   23.0932 H   0  0  0  0  0  0  0  0  0  0  0  0
   10.6762    0.1433   24.2188 H   0  0  0  0  0  0  0  0  0  0  0  0
   12.3609   -0.1687   24.6377 H   0  0  0  0  0  0  0  0  0  0  0  0
  1  2  1  0
  2  3  2  0
  3  4  1  0
  4  5  2  0
  5  6  1  0
  6  7  2  0
  7  8  1  0
  8  9  1  0
  9 10  1  0
 10 11  1  0
 11 12  1  0
 12 13  2  0
 13 14  1  0
 14 15  2  0
 15 16  1  0
 16 17  1  0
 17 18  2  0
 18 19  1  0
 19 20  2  0
 20 21  1  0
 21 22  2  0
 22 23  1  0
 20 24  1  0
 19 25  1  0
 18 26  1  0
 16 27  1  0
 12 28  1  0
 10 29  1  0
 10 30  1  0
  9 31  1  0
  9 32  1  0
  8 33  1  0
  8 34  1  0
  6 35  1  0
  5 36  1  0
  4 37  1  0
  3 38  1  0
  1 39  1  0
  1 40  1  0
  1 41  1  0
  7  2  1  0
 15 11  1  0
 22 17  1  0
M  END
>  <plip>  (1) 
-0.07142857142857142

>  <filename>  (1) 
[H][c]1[n][c]([H])[c]([N]([H])[c]2[n][n][c]([H])[n]2[C]([H])([H])[C]([H])([H])[C]([H])([H])[c]2[c]([H])[c]([H])[c]([H])[c]([H])[c]2[C]([H])([H])[H])[c]([H])[c]1[H]

$$$$
