
     RDKit          3D

 27 28  0  0  0  0  0  0  0  0999 V2000
    4.9437    1.7907   17.0257 H   0  0  0  0  0  0  0  0  0  0  0  0
    5.4364    1.2579   17.8372 C   0  0  0  0  0  0  0  0  0  0  0  0
    6.5898    0.6389   17.5327 N   0  0  0  0  0  0  0  0  0  0  0  0
    7.2186   -0.0207   18.5164 C   0  0  0  0  0  0  0  0  0  0  0  0
    8.1357   -0.5502   18.2565 H   0  0  0  0  0  0  0  0  0  0  0  0
    6.7358   -0.1047   19.8407 C   0  0  0  0  0  0  0  0  0  0  0  0
    7.3706   -0.8514   20.8717 N   0  0  0  0  0  0  0  0  0  0  0  0
    6.8122   -1.5715   21.3197 H   0  0  0  0  0  0  0  0  0  0  0  0
    8.6151   -0.8043   21.4073 C   0  0  0  0  0  0  0  0  0  0  0  0
    9.1324   -2.0838   22.3070 S   0  0  0  0  0  0  0  0  0  0  0  0
    9.4510    0.4460   21.1835 C   0  0  0  0  0  0  0  0  0  0  0  0
   10.4628    0.2004   21.5034 H   0  0  0  0  0  0  0  0  0  0  0  0
    9.4644    0.6778   20.1119 H   0  0  0  0  0  0  0  0  0  0  0  0
    8.9334    1.6467   21.9499 C   0  0  0  0  0  0  0  0  0  0  0  0
    9.2986    1.9458   23.2686 C   0  0  0  0  0  0  0  0  0  0  0  0
    9.9951    1.3255   23.8257 H   0  0  0  0  0  0  0  0  0  0  0  0
    8.7307    3.0639   23.8913 C   0  0  0  0  0  0  0  0  0  0  0  0
    8.9908    3.3044   24.9229 H   0  0  0  0  0  0  0  0  0  0  0  0
    7.8566    3.8851   23.2945 N   0  0  0  0  0  0  0  0  0  0  0  0
    7.5130    3.5954   22.0322 C   0  0  0  0  0  0  0  0  0  0  0  0
    6.7932    4.2677   21.5695 H   0  0  0  0  0  0  0  0  0  0  0  0
    8.0243    2.5018   21.3318 C   0  0  0  0  0  0  0  0  0  0  0  0
    7.7094    2.3079   20.3161 H   0  0  0  0  0  0  0  0  0  0  0  0
    5.5260    0.5313   20.1342 C   0  0  0  0  0  0  0  0  0  0  0  0
    5.1530    0.5031   21.1598 H   0  0  0  0  0  0  0  0  0  0  0  0
    4.8711    1.2287   19.1175 C   0  0  0  0  0  0  0  0  0  0  0  0
    3.9423    1.7507   19.3159 H   0  0  0  0  0  0  0  0  0  0  0  0
  1  2  1  0
  2  3  2  0
  3  4  1  0
  4  5  1  0
  4  6  2  0
  6  7  1  0
  7  8  1  0
  7  9  1  0
  9 10  2  0
  9 11  1  0
 11 12  1  0
 11 13  1  0
 11 14  1  0
 14 15  2  0
 15 16  1  0
 15 17  1  0
 17 18  1  0
 17 19  2  0
 19 20  1  0
 20 21  1  0
 20 22  2  0
 22 23  1  0
  6 24  1  0
 24 25  1  0
 24 26  2  0
 26 27  1  0
 26  2  1  0
 22 14  1  0
M  END
>  <plip>  (1) 
-0.07142857142857142

>  <filename>  (1) 
[H][c]1[n][c]([H])[c]([N]([H])[C](=[S])[C]([H])([H])[c]2[c]([H])[c]([H])[n][c]([H])[c]2[H])[c]([H])[c]1[H]

$$$$
