
     RDKit          3D

 30 31  0  0  0  0  0  0  0  0999 V2000
    9.3387   -2.8564   24.0790 C   0  0  0  0  0  0  0  0  0  0  0  0
    8.6376   -2.1250   22.9717 C   0  0  0  0  0  0  0  0  0  0  0  0
    7.4396   -2.6200   22.4423 C   0  0  0  0  0  0  0  0  0  0  0  0
    6.7893   -1.9022   21.4434 C   0  0  0  0  0  0  0  0  0  0  0  0
    7.3597   -0.7120   20.9891 C   0  0  0  0  0  0  0  0  0  0  0  0
    6.6634    0.0292   19.8871 C   0  0  0  0  0  0  0  0  0  0  0  0
    5.4381    0.6615   20.1304 C   0  0  0  0  0  0  0  0  0  0  0  0
    4.7956    1.3225   19.0815 C   0  0  0  0  0  0  0  0  0  0  0  0
    5.3828    1.3061   17.8108 C   0  0  0  0  0  0  0  0  0  0  0  0
    6.5386    0.6766   17.5417 N   0  0  0  0  0  0  0  0  0  0  0  0
    7.1540    0.0698   18.5644 C   0  0  0  0  0  0  0  0  0  0  0  0
    8.0992   -0.4199   18.3274 H   0  0  0  0  0  0  0  0  0  0  0  0
    4.9131    1.8168   16.9717 H   0  0  0  0  0  0  0  0  0  0  0  0
    3.8622    1.8520   19.2319 H   0  0  0  0  0  0  0  0  0  0  0  0
    5.0170    0.6354   21.1387 H   0  0  0  0  0  0  0  0  0  0  0  0
    8.5579   -0.2718   21.6045 C   0  0  0  0  0  0  0  0  0  0  0  0
    9.1901    1.0301   21.2081 C   0  0  0  0  0  0  0  0  0  0  0  0
    8.5171    2.2334   21.8623 C   0  0  0  0  0  0  0  0  0  0  0  0
    8.6013    2.2006   23.2688 O   0  0  0  0  0  0  0  0  0  0  0  0
    9.5369    2.2390   23.5044 H   0  0  0  0  0  0  0  0  0  0  0  0
    7.4464    2.2458   21.6200 H   0  0  0  0  0  0  0  0  0  0  0  0
    8.9527    3.1590   21.4561 H   0  0  0  0  0  0  0  0  0  0  0  0
    9.0843    1.1168   20.1259 H   0  0  0  0  0  0  0  0  0  0  0  0
   10.2540    0.9919   21.4560 H   0  0  0  0  0  0  0  0  0  0  0  0
    9.1872   -0.9807   22.5473 N   0  0  0  0  0  0  0  0  0  0  0  0
    5.8561   -2.2401   20.9987 H   0  0  0  0  0  0  0  0  0  0  0  0
    7.0436   -3.5440   22.8439 H   0  0  0  0  0  0  0  0  0  0  0  0
    9.4370   -3.9208   23.8292 H   0  0  0  0  0  0  0  0  0  0  0  0
    8.7428   -2.7857   25.0000 H   0  0  0  0  0  0  0  0  0  0  0  0
   10.3273   -2.4235   24.2614 H   0  0  0  0  0  0  0  0  0  0  0  0
  1  2  1  0
  2  3  2  0
  3  4  1  0
  4  5  2  0
  5  6  1  0
  6  7  2  0
  7  8  1  0
  8  9  2  0
  9 10  1  0
 10 11  2  0
 11 12  1  0
  9 13  1  0
  8 14  1  0
  7 15  1  0
  5 16  1  0
 16 17  1  0
 17 18  1  0
 18 19  1  0
 19 20  1  0
 18 21  1  0
 18 22  1  0
 17 23  1  0
 17 24  1  0
 16 25  2  0
  4 26  1  0
  3 27  1  0
  1 28  1  0
  1 29  1  0
  1 30  1  0
 25  2  1  0
 11  6  1  0
M  END
>  <plip>  (1) 
-0.03571428571428571

>  <filename>  (1) 
[H][O][C]([H])([H])[C]([H])([H])[c]1[n][c]([C]([H])([H])[H])[c]([H])[c]([H])[c]1-[c]1[c]([H])[n][c]([H])[c]([H])[c]1[H]

$$$$
