
     RDKit          3D

 24 25  0  0  0  0  0  0  0  0999 V2000
    4.9216    1.7875   16.9865 H   0  0  0  0  0  0  0  0  0  0  0  0
    5.4015    1.2977   17.8290 C   0  0  0  0  0  0  0  0  0  0  0  0
    6.5605    0.6771   17.5711 N   0  0  0  0  0  0  0  0  0  0  0  0
    7.1593    0.0621   18.5960 C   0  0  0  0  0  0  0  0  0  0  0  0
    8.1073   -0.4130   18.3636 H   0  0  0  0  0  0  0  0  0  0  0  0
    6.6543    0.0024   19.9059 C   0  0  0  0  0  0  0  0  0  0  0  0
    7.3687   -0.7809   20.9856 C   0  0  0  0  0  0  0  0  0  0  0  0
    6.7509   -2.5085   20.9163 Cl  0  0  0  0  0  0  0  0  0  0  0  0
    8.9007   -0.8103   20.8625 C   0  0  0  0  0  0  0  0  0  0  0  0
    9.2216    0.1776   20.5127 H   0  0  0  0  0  0  0  0  0  0  0  0
    9.2304   -1.5350   20.1144 H   0  0  0  0  0  0  0  0  0  0  0  0
    9.4506   -1.0979   22.2694 C   0  0  0  0  0  0  0  0  0  0  0  0
   10.3589   -0.5191   22.4555 H   0  0  0  0  0  0  0  0  0  0  0  0
    9.7221   -2.1526   22.3621 H   0  0  0  0  0  0  0  0  0  0  0  0
    8.3201   -0.7437   23.2605 C   0  0  0  0  0  0  0  0  0  0  0  0
    8.6208    0.0170   23.9860 H   0  0  0  0  0  0  0  0  0  0  0  0
    8.0197   -1.6254   23.8333 H   0  0  0  0  0  0  0  0  0  0  0  0
    7.1470   -0.2443   22.4094 C   0  0  0  0  0  0  0  0  0  0  0  0
    6.1748   -0.5442   22.8037 H   0  0  0  0  0  0  0  0  0  0  0  0
    7.1398    0.8507   22.3527 H   0  0  0  0  0  0  0  0  0  0  0  0
    5.4328    0.6525   20.1501 C   0  0  0  0  0  0  0  0  0  0  0  0
    4.9989    0.6442   21.1522 H   0  0  0  0  0  0  0  0  0  0  0  0
    4.8030    1.3120   19.0945 C   0  0  0  0  0  0  0  0  0  0  0  0
    3.8732    1.8455   19.2537 H   0  0  0  0  0  0  0  0  0  0  0  0
  1  2  1  0
  2  3  2  0
  3  4  1  0
  4  5  1  0
  4  6  2  0
  6  7  1  0
  7  8  1  0
  7  9  1  0
  9 10  1  0
  9 11  1  0
  9 12  1  0
 12 13  1  0
 12 14  1  0
 12 15  1  0
 15 16  1  0
 15 17  1  0
 15 18  1  0
 18 19  1  0
 18 20  1  0
  6 21  1  0
 21 22  1  0
 21 23  2  0
 23 24  1  0
 23  2  1  0
 18  7  1  0
M  END
>  <plip>  (1) 
-0.03571428571428571

>  <filename>  (1) 
[H][c]1[n][c]([H])[c]([C]2([Cl])[C]([H])([H])[C]([H])([H])[C]([H])([H])[C]2([H])[H])[c]([H])[c]1[H]

$$$$
