
     RDKit          3D

 43 46  0  0  0  0  0  0  0  0999 V2000
   10.2541    3.6540   22.7643 C   0  0  0  0  0  0  0  0  0  0  0  0
    9.1430    4.3268   23.4845 C   0  0  0  0  0  0  0  0  0  0  0  0
    9.3119    5.5077   24.0650 N   0  0  0  0  0  0  0  0  0  0  0  0
    8.2621    6.0303   24.7724 C   0  0  0  0  0  0  0  0  0  0  0  0
    7.0738    5.3805   24.9546 C   0  0  0  0  0  0  0  0  0  0  0  0
    6.9254    4.1629   24.3464 N   0  0  0  0  0  0  0  0  0  0  0  0
    5.8351    3.3955   24.4455 N   0  0  0  0  0  0  0  0  0  0  0  0
    6.0996    2.3305   23.6972 C   0  0  0  0  0  0  0  0  0  0  0  0
    7.3587    2.3929   23.0876 C   0  0  0  0  0  0  0  0  0  0  0  0
    7.8222    1.4655   22.0363 C   0  0  0  0  0  0  0  0  0  0  0  0
    8.4560    1.8272   21.0567 O   0  0  0  0  0  0  0  0  0  0  0  0
    7.4708    0.1235   22.2252 N   0  0  0  0  0  0  0  0  0  0  0  0
    7.9803   -0.5451   23.4391 C   0  0  0  0  0  0  0  0  0  0  0  0
    7.1871   -1.8099   23.7415 C   0  0  0  0  0  0  0  0  0  0  0  0
    7.2003   -2.7528   22.5360 C   0  0  0  0  0  0  0  0  0  0  0  0
    6.6461   -2.0228   21.3123 C   0  0  0  0  0  0  0  0  0  0  0  0
    7.3834   -0.7079   21.0059 C   0  0  1  0  0  0  0  0  0  0  0  0
    6.6372    0.0092   19.8899 C   0  0  0  0  0  0  0  0  0  0  0  0
    5.4097    0.6500   20.1126 C   0  0  0  0  0  0  0  0  0  0  0  0
    4.7852    1.3086   19.0558 C   0  0  0  0  0  0  0  0  0  0  0  0
    5.4071    1.2901   17.8019 C   0  0  0  0  0  0  0  0  0  0  0  0
    6.5679    0.6644   17.5586 N   0  0  0  0  0  0  0  0  0  0  0  0
    7.1621    0.0542   18.5971 C   0  0  0  0  0  0  0  0  0  0  0  0
    8.1190   -0.4262   18.3784 H   0  0  0  0  0  0  0  0  0  0  0  0
    4.9451    1.7977   16.9583 H   0  0  0  0  0  0  0  0  0  0  0  0
    3.8520    1.8461   19.1954 H   0  0  0  0  0  0  0  0  0  0  0  0
    4.9625    0.6527   21.1092 H   0  0  0  0  0  0  0  0  0  0  0  0
    8.4078   -0.9303   20.6606 H   0  0  0  0  0  0  0  0  0  0  0  0
    6.6680   -2.6516   20.4156 H   0  0  0  0  0  0  0  0  0  0  0  0
    5.5932   -1.7728   21.4997 H   0  0  0  0  0  0  0  0  0  0  0  0
    6.5975   -3.6448   22.7397 H   0  0  0  0  0  0  0  0  0  0  0  0
    8.2266   -3.0969   22.3395 H   0  0  0  0  0  0  0  0  0  0  0  0
    6.1543   -1.5269   23.9789 H   0  0  0  0  0  0  0  0  0  0  0  0
    7.5940   -2.2961   24.6370 H   0  0  0  0  0  0  0  0  0  0  0  0
    9.0516   -0.7965   23.3202 H   0  0  0  0  0  0  0  0  0  0  0  0
    7.9056    0.1472   24.2837 H   0  0  0  0  0  0  0  0  0  0  0  0
    7.9070    3.6157   23.5502 C   0  0  0  0  0  0  0  0  0  0  0  0
    5.3608    1.5399   23.6220 H   0  0  0  0  0  0  0  0  0  0  0  0
    6.2207    5.7164   25.5149 H   0  0  0  0  0  0  0  0  0  0  0  0
    8.4195    7.0181   25.1944 H   0  0  0  0  0  0  0  0  0  0  0  0
   11.1263    4.2951   22.6351 H   0  0  0  0  0  0  0  0  0  0  0  0
    9.9084    3.2996   21.7940 H   0  0  0  0  0  0  0  0  0  0  0  0
   10.5191    2.7497   23.3220 H   0  0  0  0  0  0  0  0  0  0  0  0
  1  2  1  0
  2  3  2  0
  3  4  1  0
  4  5  2  0
  5  6  1  0
  6  7  1  0
  7  8  2  0
  8  9  1  0
  9 10  1  0
 10 11  2  0
 10 12  1  0
 12 13  1  0
 13 14  1  0
 14 15  1  0
 15 16  1  0
 16 17  1  0
 17 18  1  0
 18 19  2  0
 19 20  1  0
 20 21  2  0
 21 22  1  0
 22 23  2  0
 23 24  1  0
 21 25  1  0
 20 26  1  0
 19 27  1  0
 17 28  1  6
 16 29  1  0
 16 30  1  0
 15 31  1  0
 15 32  1  0
 14 33  1  0
 14 34  1  0
 13 35  1  0
 13 36  1  0
  9 37  2  0
  8 38  1  0
  5 39  1  0
  4 40  1  0
  1 41  1  0
  1 42  1  0
  1 43  1  0
 37  2  1  0
 37  6  1  0
 17 12  1  0
 23 18  1  0
M  END
>  <plip>  (1) 
-0.03571428571428571

>  <filename>  (1) 
[H][c]1[n][c]([H])[c]([C@@]2([H])[N]([C](=[O])[c]3[c]([H])[n][n]4[c]([H])[c]([H])[n][c]([C]([H])([H])[H])[c]34)[C]([H])([H])[C]([H])([H])[C]([H])([H])[C]2([H])[H])[c]([H])[c]1[H]

$$$$
