
     RDKit          3D

 29 31  0  0  0  0  0  0  0  0999 V2000
    4.9359    1.8060   16.9870 H   0  0  0  0  0  0  0  0  0  0  0  0
    5.3961    1.2966   17.8302 C   0  0  0  0  0  0  0  0  0  0  0  0
    6.5597    0.6760   17.5822 N   0  0  0  0  0  0  0  0  0  0  0  0
    7.1832    0.0770   18.6034 C   0  0  0  0  0  0  0  0  0  0  0  0
    8.1292   -0.4056   18.3587 H   0  0  0  0  0  0  0  0  0  0  0  0
    6.6719    0.0506   19.9192 C   0  0  0  0  0  0  0  0  0  0  0  0
    7.3543   -0.6219   20.9914 N   0  0  0  0  0  0  0  0  0  0  0  0
    7.7313   -1.9366   21.0002 C   0  0  0  0  0  0  0  0  0  0  0  0
    7.5290   -2.5662   20.1602 H   0  0  0  0  0  0  0  0  0  0  0  0
    8.1875   -2.3217   22.1489 N   0  0  0  0  0  0  0  0  0  0  0  0
    8.0762   -1.2409   22.9957 N   0  0  0  0  0  0  0  0  0  0  0  0
    7.5608   -0.2518   22.3108 C   0  0  0  0  0  0  0  0  0  0  0  0
    7.2288    0.9748   22.8019 N   0  0  0  0  0  0  0  0  0  0  0  0
    6.8217    1.0979   24.1945 C   0  0  0  0  0  0  0  0  0  0  0  0
    5.7550    0.8396   24.3020 H   0  0  0  0  0  0  0  0  0  0  0  0
    7.3723    0.3728   24.8142 H   0  0  0  0  0  0  0  0  0  0  0  0
    7.1301    2.5648   24.5294 C   0  0  0  0  0  0  0  0  0  0  0  0
    6.3161    3.0178   25.1060 H   0  0  0  0  0  0  0  0  0  0  0  0
    8.0424    2.6087   25.1330 H   0  0  0  0  0  0  0  0  0  0  0  0
    7.3363    3.2790   23.1746 C   0  0  0  0  0  0  0  0  0  0  0  0
    6.4032    3.7343   22.8301 H   0  0  0  0  0  0  0  0  0  0  0  0
    8.1021    4.0599   23.2315 H   0  0  0  0  0  0  0  0  0  0  0  0
    7.7392    2.1857   22.1784 C   0  0  0  0  0  0  0  0  0  0  0  0
    7.2946    2.3169   21.1829 H   0  0  0  0  0  0  0  0  0  0  0  0
    8.8283    2.1191   22.0252 H   0  0  0  0  0  0  0  0  0  0  0  0
    5.4429    0.6736   20.1538 C   0  0  0  0  0  0  0  0  0  0  0  0
    5.0021    0.6554   21.1494 H   0  0  0  0  0  0  0  0  0  0  0  0
    4.7949    1.3144   19.0926 C   0  0  0  0  0  0  0  0  0  0  0  0
    3.8577    1.8452   19.2344 H   0  0  0  0  0  0  0  0  0  0  0  0
  1  2  1  0
  2  3  2  0
  3  4  1  0
  4  5  1  0
  4  6  2  0
  6  7  1  0
  7  8  1  0
  8  9  1  0
  8 10  2  0
 10 11  1  0
 11 12  2  0
 12 13  1  0
 13 14  1  0
 14 15  1  0
 14 16  1  0
 14 17  1  0
 17 18  1  0
 17 19  1  0
 17 20  1  0
 20 21  1  0
 20 22  1  0
 20 23  1  0
 23 24  1  0
 23 25  1  0
  6 26  1  0
 26 27  1  0
 26 28  2  0
 28 29  1  0
 28  2  1  0
 12  7  1  0
 23 13  1  0
M  END
>  <plip>  (1) 
-0.0

>  <filename>  (1) 
[H][c]1[n][c]([H])[c](-[n]2[c]([H])[n][n][c]2[N]2[C]([H])([H])[C]([H])([H])[C]([H])([H])[C]2([H])[H])[c]([H])[c]1[H]

$$$$
