
     RDKit          3D

 34 36  0  0  0  0  0  0  0  0999 V2000
    7.5989    3.9202   24.9525 H   0  0  0  0  0  0  0  0  0  0  0  0
    6.7496    4.1075   24.5277 O   0  0  0  0  0  0  0  0  0  0  0  0
    6.7089    3.3409   23.3349 C   0  0  2  0  0  0  0  0  0  0  0  0
    5.7521    3.5957   22.8709 H   0  0  0  0  0  0  0  0  0  0  0  0
    6.7817    1.8165   23.5648 C   0  0  0  0  0  0  0  0  0  0  0  0
    5.7888    1.3462   23.5031 H   0  0  0  0  0  0  0  0  0  0  0  0
    7.1460    1.6236   24.5848 H   0  0  0  0  0  0  0  0  0  0  0  0
    7.6957    1.3100   22.5374 N   0  0  0  0  0  0  0  0  0  0  0  0
    7.7395   -0.0176   22.2022 C   0  0  0  0  0  0  0  0  0  0  0  0
    7.3534   -0.6294   21.0032 C   0  0  0  0  0  0  0  0  0  0  0  0
    6.6458    0.0744   19.8819 C   0  0  0  0  0  0  0  0  0  0  0  0
    7.1376    0.0819   18.5572 C   0  0  0  0  0  0  0  0  0  0  0  0
    8.0806   -0.4150   18.3230 H   0  0  0  0  0  0  0  0  0  0  0  0
    6.5315    0.6846   17.5257 N   0  0  0  0  0  0  0  0  0  0  0  0
    5.3726    1.3180   17.7801 C   0  0  0  0  0  0  0  0  0  0  0  0
    4.9080    1.8253   16.9381 H   0  0  0  0  0  0  0  0  0  0  0  0
    4.7694    1.3472   19.0414 C   0  0  0  0  0  0  0  0  0  0  0  0
    3.8262    1.8675   19.1839 H   0  0  0  0  0  0  0  0  0  0  0  0
    5.4154    0.7149   20.1036 C   0  0  0  0  0  0  0  0  0  0  0  0
    4.9772    0.6925   21.1029 H   0  0  0  0  0  0  0  0  0  0  0  0
    7.5973   -2.0344   20.8826 C   0  0  0  0  0  0  0  0  0  0  0  0
    7.1850   -2.5387   20.0131 H   0  0  0  0  0  0  0  0  0  0  0  0
    8.2505   -2.7387   21.8506 C   0  0  0  0  0  0  0  0  0  0  0  0
    8.5434   -3.7707   21.7630 H   0  0  0  0  0  0  0  0  0  0  0  0
    8.6263   -2.0971   23.1021 C   0  0  0  0  0  0  0  0  0  0  0  0
    9.2239   -2.6175   24.0223 O   0  0  0  0  0  0  0  0  0  0  0  0
    8.2344   -0.7836   23.2213 N   0  0  0  0  0  0  0  0  0  0  0  0
    8.5769   -0.3496   24.0610 H   0  0  0  0  0  0  0  0  0  0  0  0
    8.1549    2.3459   21.6163 C   0  0  0  0  0  0  0  0  0  0  0  0
    7.6388    2.2864   20.6513 H   0  0  0  0  0  0  0  0  0  0  0  0
    9.2295    2.2227   21.4112 H   0  0  0  0  0  0  0  0  0  0  0  0
    7.8647    3.6419   22.3757 C   0  0  0  0  0  0  0  0  0  0  0  0
    7.6423    4.4858   21.7171 H   0  0  0  0  0  0  0  0  0  0  0  0
    8.7449    3.8990   22.9732 H   0  0  0  0  0  0  0  0  0  0  0  0
  1  2  1  0
  2  3  1  0
  3  4  1  6
  3  5  1  0
  5  6  1  0
  5  7  1  0
  5  8  1  0
  8  9  1  0
  9 10  2  0
 10 11  1  0
 11 12  2  0
 12 13  1  0
 12 14  1  0
 14 15  2  0
 15 16  1  0
 15 17  1  0
 17 18  1  0
 17 19  2  0
 19 20  1  0
 10 21  1  0
 21 22  1  0
 21 23  2  0
 23 24  1  0
 23 25  1  0
 25 26  2  0
 25 27  1  0
 27 28  1  0
  8 29  1  0
 29 30  1  0
 29 31  1  0
 29 32  1  0
 32 33  1  0
 32 34  1  0
 32  3  1  0
 27  9  1  0
 19 11  1  0
M  END
>  <plip>  (1) 
-0.0

>  <filename>  (1) 
[H][O][C@]1([H])[C]([H])([H])[N]([c]2[c](-[c]3[c]([H])[n][c]([H])[c]([H])[c]3[H])[c]([H])[c]([H])[c](=[O])[n]2[H])[C]([H])([H])[C]1([H])[H]

$$$$
