
     RDKit          3D

 28 29  0  0  0  0  0  0  0  0999 V2000
    5.0077    1.7068   16.9597 H   0  0  0  0  0  0  0  0  0  0  0  0
    5.4543    1.2906   17.8609 C   0  0  0  0  0  0  0  0  0  0  0  0
    6.6397    0.6831   17.7034 N   0  0  0  0  0  0  0  0  0  0  0  0
    7.1865    0.1348   18.7905 C   0  0  0  0  0  0  0  0  0  0  0  0
    8.1350   -0.3854   18.6525 H   0  0  0  0  0  0  0  0  0  0  0  0
    6.6174    0.1743   20.0642 C   0  0  0  0  0  0  0  0  0  0  0  0
    7.3434   -0.4804   21.1723 C   0  0  0  0  0  0  0  0  0  0  0  0
    7.1895    0.0234   22.3326 N   0  0  0  0  0  0  0  0  0  0  0  0
    7.8595   -0.6988   23.3061 O   0  0  0  0  0  0  0  0  0  0  0  0
    7.6523   -0.2680   24.5869 C   0  0  0  0  0  0  0  0  0  0  0  0
    6.7911    0.7800   24.9277 C   0  0  0  0  0  0  0  0  0  0  0  0
    6.2435    1.2781   24.1338 H   0  0  0  0  0  0  0  0  0  0  0  0
    6.6736    1.1564   26.2681 C   0  0  0  0  0  0  0  0  0  0  0  0
    6.0195    1.9740   26.5587 H   0  0  0  0  0  0  0  0  0  0  0  0
    7.4171    0.4740   27.2284 C   0  0  0  0  0  0  0  0  0  0  0  0
    7.3078    0.8487   28.5143 F   0  0  0  0  0  0  0  0  0  0  0  0
    8.2704   -0.5822   26.8983 C   0  0  0  0  0  0  0  0  0  0  0  0
    8.8358   -1.0765   27.6835 H   0  0  0  0  0  0  0  0  0  0  0  0
    8.3818   -0.9636   25.5604 C   0  0  0  0  0  0  0  0  0  0  0  0
    9.0238   -1.7854   25.2508 H   0  0  0  0  0  0  0  0  0  0  0  0
    8.2006   -1.6758   20.8802 C   0  0  0  0  0  0  0  0  0  0  0  0
    9.1499   -1.3781   20.4266 H   0  0  0  0  0  0  0  0  0  0  0  0
    8.4281   -2.2041   21.8044 H   0  0  0  0  0  0  0  0  0  0  0  0
    7.6433   -2.3344   20.2192 H   0  0  0  0  0  0  0  0  0  0  0  0
    5.3834    0.8206   20.2238 C   0  0  0  0  0  0  0  0  0  0  0  0
    4.9208    0.8894   21.2098 H   0  0  0  0  0  0  0  0  0  0  0  0
    4.7844    1.3630   19.0895 C   0  0  0  0  0  0  0  0  0  0  0  0
    3.8127    1.8400   19.1394 H   0  0  0  0  0  0  0  0  0  0  0  0
  1  2  1  0
  2  3  2  0
  3  4  1  0
  4  5  1  0
  4  6  2  0
  6  7  1  0
  7  8  2  3
  8  9  1  0
  9 10  1  0
 10 11  2  0
 11 12  1  0
 11 13  1  0
 13 14  1  0
 13 15  2  0
 15 16  1  0
 15 17  1  0
 17 18  1  0
 17 19  2  0
 19 20  1  0
  7 21  1  0
 21 22  1  0
 21 23  1  0
 21 24  1  0
  6 25  1  0
 25 26  1  0
 25 27  2  0
 27 28  1  0
 27  2  1  0
 19 10  1  0
M  END
>  <plip>  (1) 
-0.03571428571428571

>  <filename>  (1) 
[H][c]1[n][c]([H])[c]([C](=[N][O][c]2[c]([H])[c]([H])[c]([F])[c]([H])[c]2[H])[C]([H])([H])[H])[c]([H])[c]1[H]

$$$$
