
     RDKit          3D

 27 29  0  0  0  0  0  0  0  0999 V2000
    8.6671   -0.7197   20.8752 O   0  0  0  0  0  0  0  0  0  0  0  0
    7.4516   -0.7212   20.9598 C   0  0  0  0  0  0  0  0  0  0  0  0
    6.7667   -1.3869   21.9482 N   0  0  0  0  0  0  0  0  0  0  0  0
    7.3363   -2.1966   22.9759 C   0  0  0  0  0  0  0  0  0  0  0  0
    8.4919   -3.0262   22.7410 C   0  0  0  0  0  0  0  0  0  0  0  0
    9.0895   -3.7875   23.6528 N   0  0  0  0  0  0  0  0  0  0  0  0
    8.5379   -3.7174   24.8735 C   0  0  0  0  0  0  0  0  0  0  0  0
    8.9486   -4.3676   25.9832 N   0  0  0  0  0  0  0  0  0  0  0  0
    8.1612   -4.0979   27.0515 N   0  0  0  0  0  0  0  0  0  0  0  0
    7.2403   -3.2651   26.6253 C   0  0  0  0  0  0  0  0  0  0  0  0
    7.3993   -2.9608   25.2409 C   0  0  0  0  0  0  0  0  0  0  0  0
    6.7684   -2.1780   24.2453 C   0  0  0  0  0  0  0  0  0  0  0  0
    5.8974   -1.5563   24.4524 H   0  0  0  0  0  0  0  0  0  0  0  0
    6.4871   -2.9147   27.3200 H   0  0  0  0  0  0  0  0  0  0  0  0
    9.7345   -5.0012   26.0400 H   0  0  0  0  0  0  0  0  0  0  0  0
    8.9077   -3.0280   21.7379 H   0  0  0  0  0  0  0  0  0  0  0  0
    5.7711   -1.2441   21.9523 H   0  0  0  0  0  0  0  0  0  0  0  0
    6.6043   -0.0239   19.9486 C   0  0  0  0  0  0  0  0  0  0  0  0
    5.3888    0.6366   20.1822 C   0  0  0  0  0  0  0  0  0  0  0  0
    4.7859    1.3045   19.1143 C   0  0  0  0  0  0  0  0  0  0  0  0
    5.4027    1.2782   17.8588 C   0  0  0  0  0  0  0  0  0  0  0  0
    6.5635    0.6508   17.6268 N   0  0  0  0  0  0  0  0  0  0  0  0
    7.1493    0.0358   18.6566 C   0  0  0  0  0  0  0  0  0  0  0  0
    8.1139   -0.4195   18.4408 H   0  0  0  0  0  0  0  0  0  0  0  0
    4.9587    1.7784   16.9986 H   0  0  0  0  0  0  0  0  0  0  0  0
    3.8623    1.8574   19.2365 H   0  0  0  0  0  0  0  0  0  0  0  0
    4.9377    0.6918   21.1771 H   0  0  0  0  0  0  0  0  0  0  0  0
  1  2  2  0
  2  3  1  0
  3  4  1  0
  4  5  2  0
  5  6  1  0
  6  7  2  0
  7  8  1  0
  8  9  1  0
  9 10  2  0
 10 11  1  0
 11 12  2  0
 12 13  1  0
 10 14  1  0
  8 15  1  0
  5 16  1  0
  3 17  1  0
  2 18  1  0
 18 19  2  0
 19 20  1  0
 20 21  2  0
 21 22  1  0
 22 23  2  0
 23 24  1  0
 21 25  1  0
 20 26  1  0
 19 27  1  0
 12  4  1  0
 23 18  1  0
 11  7  1  0
M  END
>  <plip>  (1) 
-0.07142857142857142

>  <filename>  (1) 
[H][c]1[n][c]([H])[c]([C](=[O])[N]([H])[c]2[c]([H])[n][c]3[c]([c]([H])[n][n]3[H])[c]2[H])[c]([H])[c]1[H]

$$$$
