
     RDKit          3D

 37 39  0  0  0  0  0  0  0  0999 V2000
    4.9133    1.7903   16.9917 H   0  0  0  0  0  0  0  0  0  0  0  0
    5.3936    1.2984   17.8334 C   0  0  0  0  0  0  0  0  0  0  0  0
    6.5542    0.6797   17.5686 N   0  0  0  0  0  0  0  0  0  0  0  0
    7.1565    0.0412   18.5775 C   0  0  0  0  0  0  0  0  0  0  0  0
    8.1201   -0.4216   18.3705 H   0  0  0  0  0  0  0  0  0  0  0  0
    6.6262   -0.0330   19.8776 C   0  0  0  0  0  0  0  0  0  0  0  0
    7.5433   -0.8425   21.1940 S   0  0  0  0  0  0  0  0  0  0  0  0
    8.5958    0.5262   21.5941 C   0  0  0  0  0  0  0  0  0  0  0  0
    9.7417    0.8126   21.0063 N   0  0  0  0  0  0  0  0  0  0  0  0
   10.1509    1.9710   21.5605 N   0  0  0  0  0  0  0  0  0  0  0  0
    9.3051    2.3950   22.4321 N   0  0  0  0  0  0  0  0  0  0  0  0
    8.2990    1.5070   22.4645 N   0  0  0  0  0  0  0  0  0  0  0  0
    7.1227    1.6960   23.3244 C   0  0  0  0  0  0  0  0  0  0  0  0
    6.4724    0.8356   23.1419 H   0  0  0  0  0  0  0  0  0  0  0  0
    6.3587    2.9803   22.9847 C   0  0  0  0  0  0  0  0  0  0  0  0
    7.0343    3.8342   23.0882 H   0  0  0  0  0  0  0  0  0  0  0  0
    6.0388    2.9546   21.9390 H   0  0  0  0  0  0  0  0  0  0  0  0
    5.1418    3.1578   23.8948 C   0  0  0  0  0  0  0  0  0  0  0  0
    4.3939    2.3799   23.6584 H   0  0  0  0  0  0  0  0  0  0  0  0
    4.6653    4.1169   23.6777 H   0  0  0  0  0  0  0  0  0  0  0  0
    5.5217    3.0974   25.3128 N   0  0  0  0  0  0  0  0  0  0  0  0
    4.8809    3.8120   26.3112 C   0  0  0  0  0  0  0  0  0  0  0  0
    4.8476    3.4197   27.4662 O   0  0  0  0  0  0  0  0  0  0  0  0
    4.2366    5.1364   25.9332 C   0  0  0  0  0  0  0  0  0  0  0  0
    4.8917    5.7689   25.3263 H   0  0  0  0  0  0  0  0  0  0  0  0
    4.0015    5.6601   26.8595 H   0  0  0  0  0  0  0  0  0  0  0  0
    3.2979    4.9912   25.3907 H   0  0  0  0  0  0  0  0  0  0  0  0
    6.2956    1.9044   25.6967 C   0  0  0  0  0  0  0  0  0  0  0  0
    6.6131    2.0182   26.7351 H   0  0  0  0  0  0  0  0  0  0  0  0
    5.6633    1.0021   25.6724 H   0  0  0  0  0  0  0  0  0  0  0  0
    7.5163    1.7132   24.8017 C   0  0  0  0  0  0  0  0  0  0  0  0
    8.0218    0.7784   25.0573 H   0  0  0  0  0  0  0  0  0  0  0  0
    8.2383    2.5199   24.9675 H   0  0  0  0  0  0  0  0  0  0  0  0
    5.4270    0.6324   20.1478 C   0  0  0  0  0  0  0  0  0  0  0  0
    5.0122    0.6274   21.1594 H   0  0  0  0  0  0  0  0  0  0  0  0
    4.7989    1.3130   19.0996 C   0  0  0  0  0  0  0  0  0  0  0  0
    3.8690    1.8484   19.2541 H   0  0  0  0  0  0  0  0  0  0  0  0
  1  2  1  0
  2  3  2  0
  3  4  1  0
  4  5  1  0
  4  6  2  0
  6  7  1  0
  7  8  1  0
  8  9  2  0
  9 10  1  0
 10 11  2  0
 11 12  1  0
 12 13  1  0
 13 14  1  0
 13 15  1  0
 15 16  1  0
 15 17  1  0
 15 18  1  0
 18 19  1  0
 18 20  1  0
 18 21  1  0
 21 22  1  0
 22 23  2  0
 22 24  1  0
 24 25  1  0
 24 26  1  0
 24 27  1  0
 21 28  1  0
 28 29  1  0
 28 30  1  0
 28 31  1  0
 31 32  1  0
 31 33  1  0
  6 34  1  0
 34 35  1  0
 34 36  2  0
 36 37  1  0
 36  2  1  0
 12  8  1  0
 31 13  1  0
M  END
>  <plip>  (1) 
-0.03571428571428571

>  <filename>  (1) 
[H][c]1[n][c]([H])[c]([S][c]2[n][n][n][n]2[C]2([H])[C]([H])([H])[C]([H])([H])[N]([C](=[O])[C]([H])([H])[H])[C]([H])([H])[C]2([H])[H])[c]([H])[c]1[H]

$$$$
