
     RDKit          3D

 31 33  0  0  0  0  0  0  0  0999 V2000
    7.2810   -2.4056   20.1463 H   0  0  0  0  0  0  0  0  0  0  0  0
    8.0241   -1.8748   20.4744 O   0  0  0  0  0  0  0  0  0  0  0  0
    7.4569   -0.6769   20.9966 C   0  0  1  0  0  0  0  0  0  0  0  0
    8.6336    0.1807   21.4142 C   0  0  0  0  0  0  0  0  0  0  0  0
    8.4381    1.5349   21.5483 O   0  0  0  0  0  0  0  0  0  0  0  0
    9.5979    2.0436   22.0443 C   0  0  0  0  0  0  0  0  0  0  0  0
    9.8536    3.3854   22.3291 C   0  0  0  0  0  0  0  0  0  0  0  0
    9.1052    4.1495   22.1551 H   0  0  0  0  0  0  0  0  0  0  0  0
   11.1356    3.6929   22.7755 C   0  0  0  0  0  0  0  0  0  0  0  0
   11.4075    4.7314   22.9481 H   0  0  0  0  0  0  0  0  0  0  0  0
   12.1094    2.6878   22.9677 C   0  0  0  0  0  0  0  0  0  0  0  0
   13.0986    2.9660   23.3087 H   0  0  0  0  0  0  0  0  0  0  0  0
   11.8191    1.3522   22.7028 C   0  0  0  0  0  0  0  0  0  0  0  0
   12.5565    0.5723   22.8537 H   0  0  0  0  0  0  0  0  0  0  0  0
   10.5398    1.0197   22.2227 C   0  0  0  0  0  0  0  0  0  0  0  0
    9.8778   -0.1849   21.8084 C   0  0  0  0  0  0  0  0  0  0  0  0
   10.2479   -1.2025   21.8181 H   0  0  0  0  0  0  0  0  0  0  0  0
    6.6233   -0.0019   19.9155 C   0  0  0  0  0  0  0  0  0  0  0  0
    7.1426    0.0289   18.6147 C   0  0  0  0  0  0  0  0  0  0  0  0
    8.0996   -0.4467   18.3955 H   0  0  0  0  0  0  0  0  0  0  0  0
    6.5502    0.6466   17.5830 N   0  0  0  0  0  0  0  0  0  0  0  0
    5.3977    1.2890   17.8238 C   0  0  0  0  0  0  0  0  0  0  0  0
    4.9595    1.8034   16.9697 H   0  0  0  0  0  0  0  0  0  0  0  0
    4.7878    1.3189   19.0804 C   0  0  0  0  0  0  0  0  0  0  0  0
    3.8607    1.8630   19.2119 H   0  0  0  0  0  0  0  0  0  0  0  0
    5.4069    0.6578   20.1421 C   0  0  0  0  0  0  0  0  0  0  0  0
    4.9502    0.6717   21.1342 H   0  0  0  0  0  0  0  0  0  0  0  0
    6.6302   -1.0840   22.2237 C   0  0  0  0  0  0  0  0  0  0  0  0
    5.7656   -1.6764   21.9014 H   0  0  0  0  0  0  0  0  0  0  0  0
    7.2531   -1.7106   22.8698 H   0  0  0  0  0  0  0  0  0  0  0  0
    6.2841   -0.2187   22.7989 H   0  0  0  0  0  0  0  0  0  0  0  0
  1  2  1  0
  3  2  1  6
  3  4  1  0
  4  5  1  0
  5  6  1  0
  6  7  2  0
  7  8  1  0
  7  9  1  0
  9 10  1  0
  9 11  2  0
 11 12  1  0
 11 13  1  0
 13 14  1  0
 13 15  2  0
 15 16  1  0
 16 17  1  0
  3 18  1  0
 18 19  2  0
 19 20  1  0
 19 21  1  0
 21 22  2  0
 22 23  1  0
 22 24  1  0
 24 25  1  0
 24 26  2  0
 26 27  1  0
  3 28  1  0
 28 29  1  0
 28 30  1  0
 28 31  1  0
 16  4  2  0
 26 18  1  0
 15  6  1  0
M  END
>  <plip>  (1) 
-0.034482758620689655

>  <filename>  (1) 
[H][O][C@@]([c]1[o][c]2[c]([H])[c]([H])[c]([H])[c]([H])[c]2[c]1[H])([c]1[c]([H])[n][c]([H])[c]([H])[c]1[H])[C]([H])([H])[H]

$$$$
