
     RDKit          3D

 34 36  0  0  0  0  0  0  0  0999 V2000
    5.1614    1.7973   16.9678 H   0  0  0  0  0  0  0  0  0  0  0  0
    5.5235    1.2711   17.8500 C   0  0  0  0  0  0  0  0  0  0  0  0
    6.7007    0.6440   17.7131 N   0  0  0  0  0  0  0  0  0  0  0  0
    7.1743   -0.0032   18.7861 C   0  0  0  0  0  0  0  0  0  0  0  0
    8.1615   -0.4506   18.6957 H   0  0  0  0  0  0  0  0  0  0  0  0
    6.5019   -0.1015   20.0182 C   0  0  0  0  0  0  0  0  0  0  0  0
    7.1054   -0.8555   21.1196 C   0  0  0  0  0  0  0  0  0  0  0  0
    8.1867   -0.4198   21.8247 C   0  0  0  0  0  0  0  0  0  0  0  0
    9.1671    0.6033   21.4699 C   0  0  0  0  0  0  0  0  0  0  0  0
    9.5611    0.7228   20.3131 O   0  0  0  0  0  0  0  0  0  0  0  0
    9.6324    1.4463   22.4428 N   0  0  0  0  0  0  0  0  0  0  0  0
   10.7121    2.3874   22.1342 C   0  0  0  0  0  0  0  0  0  0  0  0
   10.5597    2.8151   21.1387 H   0  0  0  0  0  0  0  0  0  0  0  0
   11.6740    1.8651   22.0935 H   0  0  0  0  0  0  0  0  0  0  0  0
   10.6685    3.4236   23.2706 C   0  0  0  0  0  0  0  0  0  0  0  0
   10.7383    4.4453   22.8842 H   0  0  0  0  0  0  0  0  0  0  0  0
   11.5185    3.2736   23.9479 H   0  0  0  0  0  0  0  0  0  0  0  0
    9.3295    3.1798   23.9844 C   0  0  0  0  0  0  0  0  0  0  0  0
    9.3539    3.4201   25.0518 H   0  0  0  0  0  0  0  0  0  0  0  0
    8.5429    3.7888   23.5227 H   0  0  0  0  0  0  0  0  0  0  0  0
    9.0260    1.6980   23.7450 C   0  0  0  0  0  0  0  0  0  0  0  0
    7.9517    1.4971   23.7017 H   0  0  0  0  0  0  0  0  0  0  0  0
    9.4586    1.0353   24.5053 H   0  0  0  0  0  0  0  0  0  0  0  0
    8.5195   -1.3666   22.8741 C   0  0  0  0  0  0  0  0  0  0  0  0
    9.3928   -1.3449   23.7226 O   0  0  0  0  0  0  0  0  0  0  0  0
    7.6451   -2.3990   22.7096 N   0  0  0  0  0  0  0  0  0  0  0  0
    7.7367   -3.1596   23.3581 H   0  0  0  0  0  0  0  0  0  0  0  0
    6.6632   -2.1916   21.6676 C   0  0  0  0  0  0  0  0  0  0  0  0
    6.7023   -2.9751   20.8971 H   0  0  0  0  0  0  0  0  0  0  0  0
    5.6323   -2.1634   22.0497 H   0  0  0  0  0  0  0  0  0  0  0  0
    5.2695    0.5584   20.1367 C   0  0  0  0  0  0  0  0  0  0  0  0
    4.7236    0.5527   21.0830 H   0  0  0  0  0  0  0  0  0  0  0  0
    4.7771    1.2606   19.0345 C   0  0  0  0  0  0  0  0  0  0  0  0
    3.8443    1.8125   19.0784 H   0  0  0  0  0  0  0  0  0  0  0  0
  1  2  1  0
  2  3  2  0
  3  4  1  0
  4  5  1  0
  4  6  2  0
  6  7  1  0
  7  8  2  0
  8  9  1  0
  9 10  2  0
  9 11  1  0
 11 12  1  0
 12 13  1  0
 12 14  1  0
 12 15  1  0
 15 16  1  0
 15 17  1  0
 15 18  1  0
 18 19  1  0
 18 20  1  0
 18 21  1  0
 21 22  1  0
 21 23  1  0
  8 24  1  0
 24 25  2  0
 24 26  1  0
 26 27  1  0
 26 28  1  0
 28 29  1  0
 28 30  1  0
  6 31  1  0
 31 32  1  0
 31 33  2  0
 33 34  1  0
 33  2  1  0
 28  7  1  0
 21 11  1  0
M  END
>  <plip>  (1) 
-0.03571428571428571

>  <filename>  (1) 
[H][c]1[n][c]([H])[c]([C]2=[C]([C](=[O])[N]3[C]([H])([H])[C]([H])([H])[C]([H])([H])[C]3([H])[H])[C](=[O])[N]([H])[C]2([H])[H])[c]([H])[c]1[H]

$$$$
