
     RDKit          3D

 50 52  0  0  0  0  0  0  0  0999 V2000
    5.5327   -2.6032   19.4348 O   0  0  0  0  0  0  0  0  0  0  0  0
    5.8176   -2.7167   20.6121 C   0  0  0  0  0  0  0  0  0  0  0  0
    5.5265   -4.0244   21.3075 C   0  0  0  0  0  0  0  0  0  0  0  0
    5.6565   -4.3803   22.6016 C   0  0  0  0  0  0  0  0  0  0  0  0
    6.6841   -3.8812   23.5740 C   0  0  0  0  0  0  0  0  0  0  0  0
    7.8213   -3.6580   23.1861 O   0  0  0  0  0  0  0  0  0  0  0  0
    6.2798   -3.5968   24.9892 C   0  0  0  0  0  0  0  0  0  0  0  0
    4.9392   -3.4831   25.4034 C   0  0  0  0  0  0  0  0  0  0  0  0
    4.6600   -3.1845   26.7399 C   0  0  0  0  0  0  0  0  0  0  0  0
    3.0057   -3.0473   27.2555 Cl  0  0  0  0  0  0  0  0  0  0  0  0
    5.6874   -2.9675   27.6650 C   0  0  0  0  0  0  0  0  0  0  0  0
    7.0189   -3.0393   27.2269 C   0  0  0  0  0  0  0  0  0  0  0  0
    7.3144   -3.3617   25.9102 C   0  0  0  0  0  0  0  0  0  0  0  0
    8.3484   -3.4203   25.5777 H   0  0  0  0  0  0  0  0  0  0  0  0
    7.8657   -2.8206   27.8690 H   0  0  0  0  0  0  0  0  0  0  0  0
    5.4339   -2.7339   28.6932 H   0  0  0  0  0  0  0  0  0  0  0  0
    4.1165   -3.5782   24.6961 H   0  0  0  0  0  0  0  0  0  0  0  0
    5.0281   -5.1547   23.0341 H   0  0  0  0  0  0  0  0  0  0  0  0
    5.1819   -4.7478   20.5721 H   0  0  0  0  0  0  0  0  0  0  0  0
    6.3600   -1.7374   21.3910 N   0  0  0  0  0  0  0  0  0  0  0  0
    7.2550   -0.7272   20.8608 C   0  0  0  0  0  0  0  0  0  0  0  0
    7.7704    0.1406   22.0317 C   0  0  0  0  0  0  0  0  0  0  0  0
    8.9134    1.0441   21.6664 N   0  0  0  0  0  4  0  0  0  0  0  0
    9.3021    2.0535   22.7364 C   0  0  0  0  0  0  0  0  0  0  0  0
   10.8023    2.3405   22.5321 C   0  0  0  0  0  0  0  0  0  0  0  0
   11.2402    1.4470   21.3634 C   0  0  0  0  0  0  0  0  0  0  0  0
   10.2090    0.3327   21.3310 C   0  0  0  0  0  0  0  0  0  0  0  0
   10.1576   -0.1773   20.3660 H   0  0  0  0  0  0  0  0  0  0  0  0
   10.4085   -0.4180   22.1064 H   0  0  0  0  0  0  0  0  0  0  0  0
   11.2004    2.0071   20.4221 H   0  0  0  0  0  0  0  0  0  0  0  0
   12.2523    1.0516   21.4813 H   0  0  0  0  0  0  0  0  0  0  0  0
   10.9907    3.3977   22.3168 H   0  0  0  0  0  0  0  0  0  0  0  0
   11.3470    2.0932   23.4499 H   0  0  0  0  0  0  0  0  0  0  0  0
    8.6763    2.9433   22.6504 H   0  0  0  0  0  0  0  0  0  0  0  0
    9.1177    1.6101   23.7205 H   0  0  0  0  0  0  0  0  0  0  0  0
    8.5991    1.5857   20.8239 H   0  0  0  0  0  0  0  0  0  0  0  0
    6.9361    0.7143   22.4573 H   0  0  0  0  0  0  0  0  0  0  0  0
    8.1056   -0.5386   22.8258 H   0  0  0  0  0  0  0  0  0  0  0  0
    6.5530    0.0686   19.7820 C   0  0  0  0  0  0  0  0  0  0  0  0
    5.3603    0.7752   19.9962 C   0  0  0  0  0  0  0  0  0  0  0  0
    4.8078    1.4808   18.9225 C   0  0  0  0  0  0  0  0  0  0  0  0
    5.4491    1.4361   17.6792 C   0  0  0  0  0  0  0  0  0  0  0  0
    6.5729    0.7392   17.4494 N   0  0  0  0  0  0  0  0  0  0  0  0
    7.0879    0.0748   18.4903 C   0  0  0  0  0  0  0  0  0  0  0  0
    7.9970   -0.4969   18.2888 H   0  0  0  0  0  0  0  0  0  0  0  0
    5.0419    1.9737   16.8250 H   0  0  0  0  0  0  0  0  0  0  0  0
    3.9010    2.0659   19.0325 H   0  0  0  0  0  0  0  0  0  0  0  0
    4.8696    0.7703   20.9736 H   0  0  0  0  0  0  0  0  0  0  0  0
    8.1375   -1.2150   20.4040 H   0  0  0  0  0  0  0  0  0  0  0  0
    6.5360   -2.0374   22.3313 H   0  0  0  0  0  0  0  0  0  0  0  0
  1  2  2  0
  2  3  1  0
  3  4  2  3
  4  5  1  0
  5  6  2  0
  5  7  1  0
  7  8  2  0
  8  9  1  0
  9 10  1  0
  9 11  2  0
 11 12  1  0
 12 13  2  0
 13 14  1  0
 12 15  1  0
 11 16  1  0
  8 17  1  0
  4 18  1  0
  3 19  1  0
  2 20  1  0
 20 21  1  0
 21 22  1  0
 22 23  1  0
 23 24  1  0
 24 25  1  0
 25 26  1  0
 26 27  1  0
 27 28  1  0
 27 29  1  0
 26 30  1  0
 26 31  1  0
 25 32  1  0
 25 33  1  0
 24 34  1  0
 24 35  1  0
 23 36  1  0
 22 37  1  0
 22 38  1  0
 21 39  1  0
 39 40  2  0
 40 41  1  0
 41 42  2  0
 42 43  1  0
 43 44  2  0
 44 45  1  0
 42 46  1  0
 41 47  1  0
 40 48  1  0
 21 49  1  0
 20 50  1  0
 13  7  1  0
 27 23  1  0
 44 39  1  0
M  CHG  1  23   1
M  END
>  <plip>  (1) 
-0.23333333333333334

>  <filename>  (1) 
[H][C]([C](=[O])[c]1[c]([H])[c]([H])[c]([H])[c]([Cl])[c]1[H])=[C]([H])[C](=[O])[N]([H])[C]([H])([c]1[c]([H])[n][c]([H])[c]([H])[c]1[H])[C]([H])([H])[N+]1([H])[C]([H])([H])[C]([H])([H])[C]([H])([H])[C]1([H])[H]

$$$$
