
     RDKit          3D

 31 32  0  0  0  0  0  0  0  0999 V2000
    4.9157    1.7887   16.9905 H   0  0  0  0  0  0  0  0  0  0  0  0
    5.3994    1.2963   17.8309 C   0  0  0  0  0  0  0  0  0  0  0  0
    6.5654    0.6788   17.5708 N   0  0  0  0  0  0  0  0  0  0  0  0
    7.1708    0.0511   18.5909 C   0  0  0  0  0  0  0  0  0  0  0  0
    8.1219   -0.4283   18.3600 H   0  0  0  0  0  0  0  0  0  0  0  0
    6.6671   -0.0062   19.9178 C   0  0  0  0  0  0  0  0  0  0  0  0
    7.3366   -0.6937   20.9488 N   0  0  0  0  0  0  0  0  0  0  0  0
    7.8598   -1.5189   20.7036 H   0  0  0  0  0  0  0  0  0  0  0  0
    7.3887   -0.3372   22.3025 C   0  0  0  0  0  0  0  0  0  0  0  0
    7.3338    0.9961   22.7128 C   0  0  0  0  0  0  0  0  0  0  0  0
    7.2503    1.7706   21.9554 H   0  0  0  0  0  0  0  0  0  0  0  0
    7.3817    1.3122   24.0681 C   0  0  0  0  0  0  0  0  0  0  0  0
    7.3301    2.3473   24.3781 H   0  0  0  0  0  0  0  0  0  0  0  0
    7.4927    0.3283   25.0625 C   0  0  0  0  0  0  0  0  0  0  0  0
    7.5232    0.8328   26.3321 O   0  0  0  0  0  0  0  0  0  0  0  0
    7.6378   -0.0023   27.4847 C   0  0  0  0  0  0  0  0  0  0  0  0
    7.6313    0.6775   28.3379 H   0  0  0  0  0  0  0  0  0  0  0  0
    6.8005   -0.7003   27.5650 H   0  0  0  0  0  0  0  0  0  0  0  0
    8.5670   -0.5778   27.4817 H   0  0  0  0  0  0  0  0  0  0  0  0
    7.5669   -1.0337   24.6407 C   0  0  0  0  0  0  0  0  0  0  0  0
    7.6913   -1.9820   25.6199 O   0  0  0  0  0  0  0  0  0  0  0  0
    7.7729   -3.3581   25.3107 C   0  0  0  0  0  0  0  0  0  0  0  0
    7.8627   -3.8601   26.2733 H   0  0  0  0  0  0  0  0  0  0  0  0
    8.6566   -3.6025   24.7085 H   0  0  0  0  0  0  0  0  0  0  0  0
    6.8716   -3.7300   24.8080 H   0  0  0  0  0  0  0  0  0  0  0  0
    7.5243   -1.3444   23.2712 C   0  0  0  0  0  0  0  0  0  0  0  0
    7.5723   -2.3772   22.9445 H   0  0  0  0  0  0  0  0  0  0  0  0
    5.4448    0.6428   20.1581 C   0  0  0  0  0  0  0  0  0  0  0  0
    5.0299    0.6202   21.1670 H   0  0  0  0  0  0  0  0  0  0  0  0
    4.8107    1.3038   19.0993 C   0  0  0  0  0  0  0  0  0  0  0  0
    3.8829    1.8359   19.2603 H   0  0  0  0  0  0  0  0  0  0  0  0
  1  2  1  0
  2  3  2  0
  3  4  1  0
  4  5  1  0
  4  6  2  0
  6  7  1  0
  7  8  1  0
  7  9  1  0
  9 10  2  0
 10 11  1  0
 10 12  1  0
 12 13  1  0
 12 14  2  0
 14 15  1  0
 15 16  1  0
 16 17  1  0
 16 18  1  0
 16 19  1  0
 14 20  1  0
 20 21  1  0
 21 22  1  0
 22 23  1  0
 22 24  1  0
 22 25  1  0
 20 26  2  0
 26 27  1  0
  6 28  1  0
 28 29  1  0
 28 30  2  0
 30 31  1  0
 30  2  1  0
 26  9  1  0
M  END
>  <plip>  (1) 
-0.03571428571428571

>  <filename>  (1) 
[H][c]1[n][c]([H])[c]([N]([H])[c]2[c]([H])[c]([H])[c]([O][C]([H])([H])[H])[c]([O][C]([H])([H])[H])[c]2[H])[c]([H])[c]1[H]

$$$$
