
     RDKit          3D

 51 54  0  0  0  0  0  0  0  0999 V2000
    9.2591    0.9798   20.8992 C   0  0  0  0  0  0  0  0  0  0  0  0
    8.3664    0.2289   21.8709 N   0  0  0  0  0  4  0  0  0  0  0  0
    9.1445   -0.7327   22.7379 C   0  0  0  0  0  0  0  0  0  0  0  0
    8.8708   -2.1373   22.1714 C   0  0  0  0  0  0  0  0  0  0  0  0
    7.7745   -1.9916   21.0900 C   0  0  1  0  0  0  0  0  0  0  0  0
    6.7473   -3.1395   20.9812 C   0  0  0  0  0  0  0  0  0  0  0  0
    7.4178   -4.4364   20.9411 N   0  0  0  0  0  0  0  0  0  0  0  0
    7.6179   -5.3765   21.9282 C   0  0  0  0  0  0  0  0  0  0  0  0
    8.7191   -5.8858   21.9966 O   0  0  0  0  0  0  0  0  0  0  0  0
    6.5428   -5.8363   22.8532 C   0  0  2  0  0  0  0  0  0  0  0  0
    5.7447   -7.0847   22.5313 C   0  0  0  0  0  0  0  0  0  0  0  0
    5.0796   -5.7369   22.5441 C   0  0  1  0  0  0  0  0  0  0  0  0
    4.1541   -5.4016   23.6733 C   0  0  0  0  0  0  0  0  0  0  0  0
    3.0992   -6.2792   23.9883 C   0  0  0  0  0  0  0  0  0  0  0  0
    2.3282   -6.1156   25.1428 C   0  0  0  0  0  0  0  0  0  0  0  0
    2.5750   -5.0260   25.9836 C   0  0  0  0  0  0  0  0  0  0  0  0
    3.5526   -4.0903   25.6505 C   0  0  0  0  0  0  0  0  0  0  0  0
    4.3276   -4.2849   24.5066 C   0  0  0  0  0  0  0  0  0  0  0  0
    5.5773   -3.0981   24.2272 Cl  0  0  0  0  0  0  0  0  0  0  0  0
    3.7646   -3.2263   26.2722 H   0  0  0  0  0  0  0  0  0  0  0  0
    2.0125   -4.9066   26.9051 H   0  0  0  0  0  0  0  0  0  0  0  0
    1.5687   -6.8496   25.4000 H   0  0  0  0  0  0  0  0  0  0  0  0
    2.9140   -7.1210   23.3272 H   0  0  0  0  0  0  0  0  0  0  0  0
    4.7839   -5.3563   21.5687 H   0  0  0  0  0  0  0  0  0  0  0  0
    5.5121   -7.7479   23.3606 H   0  0  0  0  0  0  0  0  0  0  0  0
    5.8986   -7.6074   21.5910 H   0  0  0  0  0  0  0  0  0  0  0  0
    6.8596   -5.7385   23.8923 H   0  0  0  0  0  0  0  0  0  0  0  0
    8.3019   -4.4409   20.4492 H   0  0  0  0  0  0  0  0  0  0  0  0
    6.1799   -3.0096   20.0488 H   0  0  0  0  0  0  0  0  0  0  0  0
    6.0174   -3.1364   21.7952 H   0  0  0  0  0  0  0  0  0  0  0  0
    7.1588   -0.6072   21.3101 C   0  0  2  0  0  0  0  0  0  0  0  0
    6.5076    0.0100   20.1034 C   0  0  0  0  0  0  0  0  0  0  0  0
    5.2889    0.7024   20.1924 C   0  0  0  0  0  0  0  0  0  0  0  0
    4.7938    1.3367   19.0502 C   0  0  0  0  0  0  0  0  0  0  0  0
    5.5159    1.2494   17.8561 C   0  0  0  0  0  0  0  0  0  0  0  0
    6.6597    0.5621   17.7412 N   0  0  0  0  0  0  0  0  0  0  0  0
    7.1231   -0.0455   18.8398 C   0  0  0  0  0  0  0  0  0  0  0  0
    8.0504   -0.6012   18.6968 H   0  0  0  0  0  0  0  0  0  0  0  0
    5.1667    1.7512   16.9547 H   0  0  0  0  0  0  0  0  0  0  0  0
    3.8781    1.9159   19.0755 H   0  0  0  0  0  0  0  0  0  0  0  0
    4.7391    0.7468   21.1361 H   0  0  0  0  0  0  0  0  0  0  0  0
    6.4355   -0.6219   22.1325 H   0  0  0  0  0  0  0  0  0  0  0  0
    8.2936   -1.9164   20.1280 H   0  0  0  0  0  0  0  0  0  0  0  0
    9.7799   -2.5583   21.7294 H   0  0  0  0  0  0  0  0  0  0  0  0
    8.5773   -2.8111   22.9795 H   0  0  0  0  0  0  0  0  0  0  0  0
    8.8161   -0.6438   23.7782 H   0  0  0  0  0  0  0  0  0  0  0  0
   10.2020   -0.4653   22.7070 H   0  0  0  0  0  0  0  0  0  0  0  0
    7.9234    0.9524   22.4557 H   0  0  0  0  0  0  0  0  0  0  0  0
    8.6799    1.7289   20.3545 H   0  0  0  0  0  0  0  0  0  0  0  0
    9.7029    0.2931   20.1744 H   0  0  0  0  0  0  0  0  0  0  0  0
   10.0802    1.4834   21.4293 H   0  0  0  0  0  0  0  0  0  0  0  0
  1  2  1  0
  2  3  1  0
  3  4  1  0
  4  5  1  0
  5  6  1  0
  6  7  1  0
  7  8  1  0
  8  9  2  0
  8 10  1  0
 10 11  1  0
 11 12  1  0
 12 13  1  0
 13 14  2  0
 14 15  1  0
 15 16  2  0
 16 17  1  0
 17 18  2  0
 18 19  1  0
 17 20  1  0
 16 21  1  0
 15 22  1  0
 14 23  1  0
 12 24  1  6
 11 25  1  0
 11 26  1  0
 10 27  1  1
  7 28  1  0
  6 29  1  0
  6 30  1  0
  5 31  1  0
 31 32  1  0
 32 33  2  0
 33 34  1  0
 34 35  2  0
 35 36  1  0
 36 37  2  0
 37 38  1  0
 35 39  1  0
 34 40  1  0
 33 41  1  0
 31 42  1  1
  5 43  1  6
  4 44  1  0
  4 45  1  0
  3 46  1  0
  3 47  1  0
  2 48  1  0
  1 49  1  0
  1 50  1  0
  1 51  1  0
 31  2  1  0
 37 32  1  0
 12 10  1  0
 18 13  1  0
M  CHG  1   2   1
M  END
>  <plip>  (1) 
-0.06666666666666667

>  <filename>  (1) 
[H][c]1[n][c]([H])[c]([C@@]2([H])[C@]([H])([C]([H])([H])[N]([H])[C](=[O])[C@]3([H])[C]([H])([H])[C@@]3([H])[c]3[c]([H])[c]([H])[c]([H])[c]([H])[c]3[Cl])[C]([H])([H])[C]([H])([H])[N+]2([H])[C]([H])([H])[H])[c]([H])[c]1[H]

$$$$
