
     RDKit          3D

 37 38  0  0  0  0  0  0  0  0999 V2000
    8.7039    2.0934   25.3681 C   0  0  0  0  0  0  0  0  0  0  0  0
    8.8681    1.8009   23.8942 C   0  0  0  0  0  0  0  0  0  0  0  0
    7.9252    1.0378   23.1883 C   0  0  0  0  0  0  0  0  0  0  0  0
    8.0553    0.7548   21.8188 C   0  0  0  0  0  0  0  0  0  0  0  0
    6.9647   -0.1204   21.1878 C   0  0  0  0  0  0  0  0  0  0  0  0
    7.4828   -1.5046   20.9042 N   0  0  0  0  0  4  0  0  0  0  0  0
    7.6569   -2.4296   22.0469 C   0  0  0  0  0  0  0  0  0  0  0  0
    8.1517   -3.7941   21.5767 C   0  0  0  0  0  0  0  0  0  0  0  0
    8.5398   -4.6298   22.6542 O   0  0  0  0  0  0  0  0  0  0  0  0
    9.3155   -4.2369   23.0815 H   0  0  0  0  0  0  0  0  0  0  0  0
    8.9698   -3.6312   20.8581 H   0  0  0  0  0  0  0  0  0  0  0  0
    7.3508   -4.3172   21.0404 H   0  0  0  0  0  0  0  0  0  0  0  0
    8.3847   -2.0270   22.7631 H   0  0  0  0  0  0  0  0  0  0  0  0
    6.7378   -2.5607   22.6326 H   0  0  0  0  0  0  0  0  0  0  0  0
    6.8489   -1.8755   20.1607 H   0  0  0  0  0  0  0  0  0  0  0  0
    8.4385   -1.2880   20.5126 H   0  0  0  0  0  0  0  0  0  0  0  0
    6.3703    0.3533   19.8866 C   0  0  0  0  0  0  0  0  0  0  0  0
    5.1610    1.0664   19.8856 C   0  0  0  0  0  0  0  0  0  0  0  0
    4.6749    1.5732   18.6804 C   0  0  0  0  0  0  0  0  0  0  0  0
    5.4152    1.3607   17.5112 C   0  0  0  0  0  0  0  0  0  0  0  0
    6.5570    0.6583   17.4877 N   0  0  0  0  0  0  0  0  0  0  0  0
    7.0067    0.1660   18.6515 C   0  0  0  0  0  0  0  0  0  0  0  0
    7.9542   -0.3691   18.5676 H   0  0  0  0  0  0  0  0  0  0  0  0
    5.0828    1.7818   16.5622 H   0  0  0  0  0  0  0  0  0  0  0  0
    3.7579    2.1495   18.6377 H   0  0  0  0  0  0  0  0  0  0  0  0
    4.6224    1.2472   20.8217 H   0  0  0  0  0  0  0  0  0  0  0  0
    6.1562   -0.1821   21.9284 H   0  0  0  0  0  0  0  0  0  0  0  0
    9.1747    1.2497   21.1271 C   0  0  0  0  0  0  0  0  0  0  0  0
   10.1225    2.0390   21.7913 C   0  0  0  0  0  0  0  0  0  0  0  0
    9.9557    2.2890   23.1502 C   0  0  0  0  0  0  0  0  0  0  0  0
   10.8923    3.0370   23.7752 F   0  0  0  0  0  0  0  0  0  0  0  0
   10.9870    2.4790   21.2966 H   0  0  0  0  0  0  0  0  0  0  0  0
    9.3097    1.0258   20.0701 H   0  0  0  0  0  0  0  0  0  0  0  0
    7.0513    0.6531   23.7185 H   0  0  0  0  0  0  0  0  0  0  0  0
    8.3083    3.1020   25.5386 H   0  0  0  0  0  0  0  0  0  0  0  0
    9.6630    2.0355   25.8931 H   0  0  0  0  0  0  0  0  0  0  0  0
    8.0122    1.3851   25.8398 H   0  0  0  0  0  0  0  0  0  0  0  0
  1  2  1  0
  2  3  2  0
  3  4  1  0
  4  5  1  0
  5  6  1  0
  6  7  1  0
  7  8  1  0
  8  9  1  0
  9 10  1  0
  8 11  1  0
  8 12  1  0
  7 13  1  0
  7 14  1  0
  6 15  1  0
  6 16  1  0
  5 17  1  0
 17 18  2  0
 18 19  1  0
 19 20  2  0
 20 21  1  0
 21 22  2  0
 22 23  1  0
 20 24  1  0
 19 25  1  0
 18 26  1  0
  5 27  1  0
  4 28  2  0
 28 29  1  0
 29 30  2  0
 30 31  1  0
 29 32  1  0
 28 33  1  0
  3 34  1  0
  1 35  1  0
  1 36  1  0
  1 37  1  0
 30  2  1  0
 22 17  1  0
M  CHG  1   6   1
M  END
>  <plip>  (1) 
-0.06896551724137931

>  <filename>  (1) 
[H][O][C]([H])([H])[C]([H])([H])[N+]([H])([H])[C]([H])([c]1[c]([H])[n][c]([H])[c]([H])[c]1[H])[c]1[c]([H])[c]([H])[c]([F])[c]([C]([H])([H])[H])[c]1[H]

$$$$
