
     RDKit          3D

 30 32  0  0  0  0  0  0  0  0999 V2000
    5.4011    1.2862   17.0690 H   0  0  0  0  0  0  0  0  0  0  0  0
    5.8175    0.7634   17.9301 C   0  0  0  0  0  0  0  0  0  0  0  0
    6.9358    0.0566   17.7116 N   0  0  0  0  0  0  0  0  0  0  0  0
    7.4933   -0.5517   18.7662 C   0  0  0  0  0  0  0  0  0  0  0  0
    8.4006   -1.1131   18.5481 H   0  0  0  0  0  0  0  0  0  0  0  0
    7.0083   -0.4667   20.0805 C   0  0  0  0  0  0  0  0  0  0  0  0
    7.8788   -0.9306   21.2049 C   0  0  0  0  0  0  0  0  0  0  0  0
    8.3817   -2.2853   21.0653 N   0  0  0  0  0  0  0  0  0  0  0  0
    8.0113   -2.6556   20.2012 H   0  0  0  0  0  0  0  0  0  0  0  0
    8.0791   -3.2111   22.1064 C   0  0  0  0  0  0  0  0  0  0  0  0
    9.0919   -3.6625   22.9606 C   0  0  0  0  0  0  0  0  0  0  0  0
   10.1009   -3.3331   22.7351 H   0  0  0  0  0  0  0  0  0  0  0  0
    8.8060   -4.4753   24.0619 C   0  0  0  0  0  0  0  0  0  0  0  0
    9.5889   -4.8040   24.7385 H   0  0  0  0  0  0  0  0  0  0  0  0
    7.4830   -4.8550   24.3006 C   0  0  0  0  0  0  0  0  0  0  0  0
    7.1141   -5.8288   25.6901 Cl  0  0  0  0  0  0  0  0  0  0  0  0
    6.4496   -4.4656   23.4440 C   0  0  0  0  0  0  0  0  0  0  0  0
    5.4245   -4.7874   23.6118 H   0  0  0  0  0  0  0  0  0  0  0  0
    6.7620   -3.6544   22.3512 C   0  0  0  0  0  0  0  0  0  0  0  0
    5.4680   -3.1519   21.3091 Cl  0  0  0  0  0  0  0  0  0  0  0  0
    8.8578    0.0755   21.7568 C   0  0  0  0  0  0  0  0  0  0  0  0
    8.8415    1.0684   21.3138 H   0  0  0  0  0  0  0  0  0  0  0  0
    9.8296   -0.3182   22.0426 H   0  0  0  0  0  0  0  0  0  0  0  0
    7.6706   -0.3533   22.5738 C   0  0  0  0  0  0  0  0  0  0  0  0
    6.8498    0.3466   22.7296 H   0  0  0  0  0  0  0  0  0  0  0  0
    7.8506   -1.0280   23.4066 H   0  0  0  0  0  0  0  0  0  0  0  0
    5.7803    0.1886   20.2702 C   0  0  0  0  0  0  0  0  0  0  0  0
    5.3098    0.1695   21.2566 H   0  0  0  0  0  0  0  0  0  0  0  0
    5.1951    0.8364   19.1823 C   0  0  0  0  0  0  0  0  0  0  0  0
    4.2949    1.4265   19.3017 H   0  0  0  0  0  0  0  0  0  0  0  0
  1  2  1  0
  2  3  2  0
  3  4  1  0
  4  5  1  0
  4  6  2  0
  6  7  1  0
  7  8  1  0
  8  9  1  0
  8 10  1  0
 10 11  2  0
 11 12  1  0
 11 13  1  0
 13 14  1  0
 13 15  2  0
 15 16  1  0
 15 17  1  0
 17 18  1  0
 17 19  2  0
 19 20  1  0
  7 21  1  0
 21 22  1  0
 21 23  1  0
 21 24  1  0
 24 25  1  0
 24 26  1  0
  6 27  1  0
 27 28  1  0
 27 29  2  0
 29 30  1  0
 29  2  1  0
 24  7  1  0
 19 10  1  0
M  END
>  <plip>  (1) 
-0.0

>  <filename>  (1) 
[H][c]1[n][c]([H])[c]([C]2([N]([H])[c]3[c]([H])[c]([H])[c]([Cl])[c]([H])[c]3[Cl])[C]([H])([H])[C]2([H])[H])[c]([H])[c]1[H]

$$$$
