
     RDKit          3D

 42 44  0  0  0  0  0  0  0  0999 V2000
    8.2493   -0.8374   23.5350 C   0  0  0  0  0  0  0  0  0  0  0  0
    7.6290   -0.0681   22.4078 N   0  0  0  0  0  4  0  0  0  0  0  0
    8.3839    1.2458   22.1208 C   0  0  0  0  0  0  0  0  0  0  0  0
    7.6707    2.5049   22.6597 C   0  0  0  0  0  0  0  0  0  0  0  0
    8.2659    3.7739   22.0076 C   0  0  0  0  0  0  0  0  0  0  0  0
    9.3143    4.3061   23.0040 C   0  0  0  0  0  0  0  0  0  0  0  0
    8.7443    3.8595   24.3309 C   0  0  0  0  0  0  0  0  0  0  0  0
    8.9460    4.4088   25.5979 C   0  0  0  0  0  0  0  0  0  0  0  0
    8.2146    3.9043   26.6843 C   0  0  0  0  0  0  0  0  0  0  0  0
    7.3462    2.8181   26.5131 C   0  0  0  0  0  0  0  0  0  0  0  0
    7.1675    2.2465   25.2440 C   0  0  0  0  0  0  0  0  0  0  0  0
    7.8331    2.8063   24.1455 C   0  0  0  0  0  0  0  0  0  0  0  0
    6.5144    1.3818   25.1180 H   0  0  0  0  0  0  0  0  0  0  0  0
    6.7854    2.4382   27.3671 H   0  0  0  0  0  0  0  0  0  0  0  0
    8.3041    4.3841   27.6562 H   0  0  0  0  0  0  0  0  0  0  0  0
    9.6466    5.2331   25.7260 H   0  0  0  0  0  0  0  0  0  0  0  0
    9.4415    5.3926   22.9436 H   0  0  0  0  0  0  0  0  0  0  0  0
   10.3027    3.8567   22.8289 H   0  0  0  0  0  0  0  0  0  0  0  0
    7.4865    4.5337   21.8611 H   0  0  0  0  0  0  0  0  0  0  0  0
    8.6924    3.5498   21.0298 H   0  0  0  0  0  0  0  0  0  0  0  0
    6.6121    2.3800   22.3971 H   0  0  0  0  0  0  0  0  0  0  0  0
    9.4044    1.1709   22.5079 H   0  0  0  0  0  0  0  0  0  0  0  0
    8.4499    1.3187   21.0342 H   0  0  0  0  0  0  0  0  0  0  0  0
    7.4860   -1.0122   21.1545 C   0  0  0  0  0  0  0  0  0  0  0  0
    6.8094   -2.5736   21.4358 C   0  0  0  0  0  0  0  0  0  0  0  0
    5.5841   -2.6729   21.5833 O   0  0  0  0  0  0  0  0  0  0  0  0
    7.7019   -3.4350   21.3531 O   0  0  0  0  0  1  0  0  0  0  0  0
    6.7763   -0.2677   20.0552 C   0  0  0  0  0  0  0  0  0  0  0  0
    5.4951    0.2545   20.2536 C   0  0  0  0  0  0  0  0  0  0  0  0
    4.9405    1.0533   19.2485 C   0  0  0  0  0  0  0  0  0  0  0  0
    5.6626    1.2475   18.0656 C   0  0  0  0  0  0  0  0  0  0  0  0
    6.8579    0.6893   17.8300 N   0  0  0  0  0  0  0  0  0  0  0  0
    7.3928   -0.0518   18.8099 C   0  0  0  0  0  0  0  0  0  0  0  0
    8.3679   -0.4933   18.5976 H   0  0  0  0  0  0  0  0  0  0  0  0
    5.2589    1.8611   17.2618 H   0  0  0  0  0  0  0  0  0  0  0  0
    3.9733    1.5230   19.3680 H   0  0  0  0  0  0  0  0  0  0  0  0
    4.9492    0.0210   21.1717 H   0  0  0  0  0  0  0  0  0  0  0  0
    8.4902   -1.2863   20.8434 H   0  0  0  0  0  0  0  0  0  0  0  0
    6.6565    0.2185   22.6801 H   0  0  0  0  0  0  0  0  0  0  0  0
    7.6375   -1.7020   23.8004 H   0  0  0  0  0  0  0  0  0  0  0  0
    9.2458   -1.2022   23.2494 H   0  0  0  0  0  0  0  0  0  0  0  0
    8.3758   -0.1930   24.4108 H   0  0  0  0  0  0  0  0  0  0  0  0
  1  2  1  0
  2  3  1  0
  3  4  1  0
  4  5  1  0
  5  6  1  0
  6  7  1  0
  7  8  2  0
  8  9  1  0
  9 10  2  0
 10 11  1  0
 11 12  2  0
 11 13  1  0
 10 14  1  0
  9 15  1  0
  8 16  1  0
  6 17  1  0
  6 18  1  0
  5 19  1  0
  5 20  1  0
  4 21  1  0
  3 22  1  0
  3 23  1  0
  2 24  1  0
 24 25  1  0
 25 26  2  0
 25 27  1  0
 24 28  1  0
 28 29  2  0
 29 30  1  0
 30 31  2  0
 31 32  1  0
 32 33  2  0
 33 34  1  0
 31 35  1  0
 30 36  1  0
 29 37  1  0
 24 38  1  0
  2 39  1  0
  1 40  1  0
  1 41  1  0
  1 42  1  0
 12  4  1  0
 33 28  1  0
 12  7  1  0
M  CHG  2   2   1  27  -1
M  END
>  <plip>  (1) 
-0.13793103448275862

>  <filename>  (1) 
[H][c]1[n][c]([H])[c]([C]([H])([C](=[O])[O-])[N+]([H])([C]([H])([H])[H])[C]([H])([H])[C]2([H])[c]3[c]([H])[c]([H])[c]([H])[c]([H])[c]3[C]([H])([H])[C]2([H])[H])[c]([H])[c]1[H]

$$$$
