
     RDKit          3D

 29 31  0  0  0  0  0  0  0  0999 V2000
    8.7856   -3.4360   21.8113 H   0  0  0  0  0  0  0  0  0  0  0  0
    8.3714   -2.4331   21.8033 C   0  0  0  0  0  0  0  0  0  0  0  0
    7.8914   -1.8834   20.7353 N   0  0  0  0  0  0  0  0  0  0  0  0
    7.3737   -0.6428   21.0040 C   0  0  0  0  0  0  0  0  0  0  0  0
    6.6407    0.0335   19.9378 C   0  0  0  0  0  0  0  0  0  0  0  0
    7.1624    0.0401   18.6335 C   0  0  0  0  0  0  0  0  0  0  0  0
    8.1065   -0.4542   18.4051 H   0  0  0  0  0  0  0  0  0  0  0  0
    6.5747    0.6559   17.6086 N   0  0  0  0  0  0  0  0  0  0  0  0
    5.4097    1.2858   17.8410 C   0  0  0  0  0  0  0  0  0  0  0  0
    4.9659    1.7950   16.9894 H   0  0  0  0  0  0  0  0  0  0  0  0
    4.7886    1.3033   19.0917 C   0  0  0  0  0  0  0  0  0  0  0  0
    3.8591    1.8431   19.2227 H   0  0  0  0  0  0  0  0  0  0  0  0
    5.4005    0.6575   20.1584 C   0  0  0  0  0  0  0  0  0  0  0  0
    4.9629    0.6541   21.1570 H   0  0  0  0  0  0  0  0  0  0  0  0
    7.5541   -0.2217   22.2978 C   0  0  0  0  0  0  0  0  0  0  0  0
    7.2853    1.0946   22.8443 C   0  0  0  0  0  0  0  0  0  0  0  0
    6.8953    1.1462   24.1293 N   0  0  0  0  0  0  0  0  0  0  0  0
    6.6068    2.3278   24.6516 C   0  0  0  0  0  0  0  0  0  0  0  0
    6.2758    2.3053   25.6857 H   0  0  0  0  0  0  0  0  0  0  0  0
    6.7273    3.5244   23.9408 C   0  0  0  0  0  0  0  0  0  0  0  0
    6.4513    4.8061   24.6469 C   0  0  0  0  0  0  0  0  0  0  0  0
    7.5589    5.2939   25.2398 F   0  0  0  0  0  0  0  0  0  0  0  0
    6.0001    5.7496   23.8013 F   0  0  0  0  0  0  0  0  0  0  0  0
    5.5266    4.6542   25.6150 F   0  0  0  0  0  0  0  0  0  0  0  0
    7.1686    3.4873   22.6116 C   0  0  0  0  0  0  0  0  0  0  0  0
    7.2725    4.4002   22.0252 H   0  0  0  0  0  0  0  0  0  0  0  0
    7.4529    2.2471   22.0575 C   0  0  0  0  0  0  0  0  0  0  0  0
    7.7772    2.1227   21.0328 H   0  0  0  0  0  0  0  0  0  0  0  0
    8.2684   -1.4817   23.2360 S   0  0  0  0  0  0  0  0  0  0  0  0
  1  2  1  0
  2  3  2  0
  3  4  1  0
  4  5  1  0
  5  6  2  0
  6  7  1  0
  6  8  1  0
  8  9  2  0
  9 10  1  0
  9 11  1  0
 11 12  1  0
 11 13  2  0
 13 14  1  0
  4 15  2  0
 15 16  1  0
 16 17  2  0
 17 18  1  0
 18 19  1  0
 18 20  2  0
 20 21  1  0
 21 22  1  0
 21 23  1  0
 21 24  1  0
 20 25  1  0
 25 26  1  0
 25 27  2  0
 27 28  1  0
 15 29  1  0
 29  2  1  0
 13  5  1  0
 27 16  1  0
M  END
>  <plip>  (1) 
-0.034482758620689655

>  <filename>  (1) 
[H][c]1[n][c](-[c]2[c]([H])[n][c]([H])[c]([H])[c]2[H])[c](-[c]2[n][c]([H])[c]([C]([F])([F])[F])[c]([H])[c]2[H])[s]1

$$$$
