
     RDKit          3D

 33 35  0  0  0  0  0  0  0  0999 V2000
    8.4557   -1.3240   20.7492 O   0  0  0  0  0  0  0  0  0  0  0  0
    7.4149   -0.7507   20.9837 C   0  0  0  0  0  0  0  0  0  0  0  0
    6.8013   -0.7377   22.1836 O   0  0  0  0  0  0  0  0  0  0  0  0
    7.3985   -1.4348   23.2949 C   0  0  0  0  0  0  0  0  0  0  0  0
    7.1166   -2.9502   23.2266 C   0  0  0  0  0  0  0  0  0  0  0  0
    5.6236   -3.2975   23.2879 C   0  0  0  0  0  0  0  0  0  0  0  0
    5.0641   -2.9960   24.5668 O   0  0  0  0  0  0  0  0  0  0  0  0
    5.8092   -3.4497   25.6259 C   0  0  0  0  0  0  0  0  0  0  0  0
    5.2015   -3.5620   26.8777 C   0  0  0  0  0  0  0  0  0  0  0  0
    5.9439   -4.0259   27.9687 C   0  0  0  0  0  0  0  0  0  0  0  0
    7.2920   -4.3755   27.8066 C   0  0  0  0  0  0  0  0  0  0  0  0
    7.9116   -4.2378   26.5623 C   0  0  0  0  0  0  0  0  0  0  0  0
    7.1799   -3.7570   25.4793 C   0  0  0  0  0  0  0  0  0  0  0  0
    7.8277   -3.6207   24.2749 O   0  0  0  0  0  0  0  0  0  0  0  0
    8.9575   -4.4765   26.3872 H   0  0  0  0  0  0  0  0  0  0  0  0
    7.8722   -4.7427   28.6466 H   0  0  0  0  0  0  0  0  0  0  0  0
    5.4799   -4.0919   28.9510 H   0  0  0  0  0  0  0  0  0  0  0  0
    4.1560   -3.2736   26.9544 H   0  0  0  0  0  0  0  0  0  0  0  0
    5.4936   -4.3701   23.0848 H   0  0  0  0  0  0  0  0  0  0  0  0
    5.0661   -2.7121   22.5578 H   0  0  0  0  0  0  0  0  0  0  0  0
    7.5362   -3.3486   22.3003 H   0  0  0  0  0  0  0  0  0  0  0  0
    8.4851   -1.2848   23.3175 H   0  0  0  0  0  0  0  0  0  0  0  0
    6.9450   -0.9741   24.1769 H   0  0  0  0  0  0  0  0  0  0  0  0
    6.6394    0.0058   19.9682 C   0  0  0  0  0  0  0  0  0  0  0  0
    5.4187    0.6648   20.2004 C   0  0  0  0  0  0  0  0  0  0  0  0
    4.8036    1.3050   19.1267 C   0  0  0  0  0  0  0  0  0  0  0  0
    5.4274    1.2686   17.8723 C   0  0  0  0  0  0  0  0  0  0  0  0
    6.5880    0.6394   17.6403 N   0  0  0  0  0  0  0  0  0  0  0  0
    7.1776    0.0329   18.6767 C   0  0  0  0  0  0  0  0  0  0  0  0
    8.1251   -0.4583   18.4686 H   0  0  0  0  0  0  0  0  0  0  0  0
    4.9805    1.7679   17.0141 H   0  0  0  0  0  0  0  0  0  0  0  0
    3.8664    1.8438   19.2402 H   0  0  0  0  0  0  0  0  0  0  0  0
    4.9620    0.6745   21.1908 H   0  0  0  0  0  0  0  0  0  0  0  0
  1  2  2  0
  2  3  1  0
  3  4  1  0
  4  5  1  0
  5  6  1  0
  6  7  1  0
  7  8  1  0
  8  9  2  0
  9 10  1  0
 10 11  2  0
 11 12  1  0
 12 13  2  0
 13 14  1  0
 12 15  1  0
 11 16  1  0
 10 17  1  0
  9 18  1  0
  6 19  1  0
  6 20  1  0
  5 21  1  0
  4 22  1  0
  4 23  1  0
  2 24  1  0
 24 25  2  0
 25 26  1  0
 26 27  2  0
 27 28  1  0
 28 29  2  0
 29 30  1  0
 27 31  1  0
 26 32  1  0
 25 33  1  0
 14  5  1  0
 29 24  1  0
 13  8  1  0
M  END
>  <plip>  (1) 
-0.0

>  <filename>  (1) 
[H][c]1[n][c]([H])[c]([C](=[O])[O][C]([H])([H])[C]2([H])[O][c]3[c]([H])[c]([H])[c]([H])[c]([H])[c]3[O][C]2([H])[H])[c]([H])[c]1[H]

$$$$
