
     RDKit          3D

 31 34  0  0  0  0  0  0  0  0999 V2000
    9.5478   -6.7665   25.8828 Cl  0  0  0  0  0  0  0  0  0  0  0  0
    9.4029   -5.2844   24.9852 C   0  0  0  0  0  0  0  0  0  0  0  0
    8.1059   -4.7463   24.7561 C   0  0  0  0  0  0  0  0  0  0  0  0
    7.9636   -3.6071   23.9805 C   0  0  0  0  0  0  0  0  0  0  0  0
    9.1015   -2.9688   23.3911 C   0  0  0  0  0  0  0  0  0  0  0  0
    9.0831   -1.8256   22.5198 C   0  0  0  0  0  0  0  0  0  0  0  0
    7.9040   -1.1521   22.0235 C   0  0  0  0  0  0  0  0  0  0  0  0
    7.8073   -0.6398   20.8303 N   0  0  0  0  0  0  0  0  0  0  0  0
    6.5318   -0.1424   20.8334 C   0  0  0  0  0  0  0  0  0  0  0  0
    5.9555    0.4697   19.6435 C   0  0  0  0  0  0  0  0  0  0  0  0
    4.7459    1.1814   19.6058 C   0  0  0  0  0  0  0  0  0  0  0  0
    4.4003    1.7773   18.3942 C   0  0  0  0  0  0  0  0  0  0  0  0
    5.2400    1.6115   17.2850 C   0  0  0  0  0  0  0  0  0  0  0  0
    6.3599    0.8769   17.3021 N   0  0  0  0  0  0  0  0  0  0  0  0
    6.6978    0.3189   18.4647 C   0  0  0  0  0  0  0  0  0  0  0  0
    7.5965   -0.2913   18.4710 H   0  0  0  0  0  0  0  0  0  0  0  0
    4.9992    2.0752   16.3329 H   0  0  0  0  0  0  0  0  0  0  0  0
    3.5021    2.3749   18.2909 H   0  0  0  0  0  0  0  0  0  0  0  0
    4.1023    1.2614   20.4864 H   0  0  0  0  0  0  0  0  0  0  0  0
    5.8919   -0.3019   21.9515 N   0  0  0  0  0  0  0  0  0  0  0  0
    6.7951   -1.0034   22.7476 O   0  0  0  0  0  0  0  0  0  0  0  0
   10.2699   -1.3522   21.9875 C   0  0  0  0  0  0  0  0  0  0  0  0
   11.4766   -1.9082   22.2157 N   0  0  0  0  0  0  0  0  0  0  0  0
   11.4991   -2.9778   22.9785 C   0  0  0  0  0  0  0  0  0  0  0  0
   10.3786   -3.5463   23.6349 C   0  0  0  0  0  0  0  0  0  0  0  0
   10.5272   -4.6920   24.4753 C   0  0  0  0  0  0  0  0  0  0  0  0
   11.5205   -5.1147   24.6412 H   0  0  0  0  0  0  0  0  0  0  0  0
   12.4522   -3.4724   23.1183 H   0  0  0  0  0  0  0  0  0  0  0  0
   10.2794   -0.4569   21.3668 H   0  0  0  0  0  0  0  0  0  0  0  0
    6.9791   -3.2022   23.7843 H   0  0  0  0  0  0  0  0  0  0  0  0
    7.2520   -5.2579   25.2032 H   0  0  0  0  0  0  0  0  0  0  0  0
  1  2  1  0
  2  3  2  0
  3  4  1  0
  4  5  2  0
  5  6  1  0
  6  7  1  0
  7  8  2  0
  8  9  1  0
  9 10  1  0
 10 11  2  0
 11 12  1  0
 12 13  2  0
 13 14  1  0
 14 15  2  0
 15 16  1  0
 13 17  1  0
 12 18  1  0
 11 19  1  0
  9 20  2  0
 20 21  1  0
  6 22  2  0
 22 23  1  0
 23 24  2  0
 24 25  1  0
 25 26  2  0
 26 27  1  0
 24 28  1  0
 22 29  1  0
  4 30  1  0
  3 31  1  0
 26  2  1  0
 25  5  1  0
 21  7  1  0
 15 10  1  0
M  END
>  <plip>  (1) 
-0.1

>  <filename>  (1) 
[H][c]1[n][c]([H])[c](-[c]2[n][o][c](-[c]3[c]([H])[n][c]([H])[c]4[c]([H])[c]([Cl])[c]([H])[c]([H])[c]34)[n]2)[c]([H])[c]1[H]

$$$$
