
     RDKit          3D

 31 33  0  0  0  0  0  0  0  0999 V2000
    8.8619    0.3147   20.4236 H   0  0  0  0  0  0  0  0  0  0  0  0
    8.3702   -0.4076   21.0799 C   0  0  0  0  0  0  0  0  0  0  0  0
    7.1046   -0.7645   20.7666 C   0  0  0  0  0  0  0  0  0  0  0  0
    6.4288   -0.0572   19.6353 C   0  0  0  0  0  0  0  0  0  0  0  0
    7.0393    0.0610   18.3700 C   0  0  0  0  0  0  0  0  0  0  0  0
    7.9684   -0.4678   18.1699 H   0  0  0  0  0  0  0  0  0  0  0  0
    6.5525    0.7741   17.3458 N   0  0  0  0  0  0  0  0  0  0  0  0
    5.4047    1.4393   17.5548 C   0  0  0  0  0  0  0  0  0  0  0  0
    5.0419    2.0499   16.7278 H   0  0  0  0  0  0  0  0  0  0  0  0
    4.6858    1.3623   18.7536 C   0  0  0  0  0  0  0  0  0  0  0  0
    3.7674    1.9285   18.8582 H   0  0  0  0  0  0  0  0  0  0  0  0
    5.1886    0.5808   19.7981 C   0  0  0  0  0  0  0  0  0  0  0  0
    4.6488    0.4783   20.7411 H   0  0  0  0  0  0  0  0  0  0  0  0
    6.3595   -1.8106   21.5450 C   0  0  0  0  0  0  0  0  0  0  0  0
    6.5226   -1.6860   22.6222 H   0  0  0  0  0  0  0  0  0  0  0  0
    6.7182   -2.8156   21.2821 H   0  0  0  0  0  0  0  0  0  0  0  0
    5.2861   -1.7944   21.3411 H   0  0  0  0  0  0  0  0  0  0  0  0
    9.1653   -0.8123   22.2382 C   0  0  0  0  0  0  0  0  0  0  0  0
    9.2883   -2.0732   22.7325 C   0  0  0  0  0  0  0  0  0  0  0  0
    8.8491   -2.9689   22.3176 H   0  0  0  0  0  0  0  0  0  0  0  0
   10.3543   -2.2007   24.0868 S   0  0  0  0  0  0  0  0  0  0  0  0
   10.7319   -0.5019   24.0075 C   0  0  0  0  0  0  0  0  0  0  0  0
   11.6640    0.1936   24.8025 C   0  0  0  0  0  0  0  0  0  0  0  0
   12.2546   -0.3227   25.5611 H   0  0  0  0  0  0  0  0  0  0  0  0
   11.8431    1.5481   24.5463 C   0  0  0  0  0  0  0  0  0  0  0  0
   12.5683    2.0998   25.1232 H   0  0  0  0  0  0  0  0  0  0  0  0
   11.1115    2.2145   23.5363 C   0  0  0  0  0  0  0  0  0  0  0  0
   11.2822    3.2685   23.3209 H   0  0  0  0  0  0  0  0  0  0  0  0
   10.1915    1.5169   22.7638 C   0  0  0  0  0  0  0  0  0  0  0  0
    9.6113    2.0270   21.9969 H   0  0  0  0  0  0  0  0  0  0  0  0
   10.0049    0.1309   22.9749 C   0  0  0  0  0  0  0  0  0  0  0  0
  1  2  1  0
  2  3  2  3
  3  4  1  0
  4  5  2  0
  5  6  1  0
  5  7  1  0
  7  8  2  0
  8  9  1  0
  8 10  1  0
 10 11  1  0
 10 12  2  0
 12 13  1  0
  3 14  1  0
 14 15  1  0
 14 16  1  0
 14 17  1  0
  2 18  1  0
 18 19  2  0
 19 20  1  0
 19 21  1  0
 21 22  1  0
 22 23  2  0
 23 24  1  0
 23 25  1  0
 25 26  1  0
 25 27  2  0
 27 28  1  0
 27 29  1  0
 29 30  1  0
 29 31  2  0
 12  4  1  0
 31 18  1  0
 31 22  1  0
M  END
>  <plip>  (1) 
-0.034482758620689655

>  <filename>  (1) 
[H][C](=[C]([c]1[c]([H])[n][c]([H])[c]([H])[c]1[H])[C]([H])([H])[H])[c]1[c]([H])[s][c]2[c]([H])[c]([H])[c]([H])[c]([H])[c]12

$$$$
