
     RDKit          3D

 27 28  0  0  0  0  0  0  0  0999 V2000
    4.9303    1.7898   17.0004 H   0  0  0  0  0  0  0  0  0  0  0  0
    5.4175    1.2937   17.8342 C   0  0  0  0  0  0  0  0  0  0  0  0
    6.5842    0.6824   17.5687 N   0  0  0  0  0  0  0  0  0  0  0  0
    7.2009    0.0498   18.5816 C   0  0  0  0  0  0  0  0  0  0  0  0
    8.1515   -0.4280   18.3417 H   0  0  0  0  0  0  0  0  0  0  0  0
    6.6787   -0.0214   19.8997 C   0  0  0  0  0  0  0  0  0  0  0  0
    7.2237   -0.7753   20.9730 N   0  0  0  0  0  0  0  0  0  0  0  0
    6.6553   -0.7763   21.8231 H   0  0  0  0  0  0  0  0  0  0  0  0
    8.8453   -1.0287   21.1927 S   0  0  0  0  0  4  0  0  0  0  0  0
    9.3513   -2.3214   20.7717 O   0  0  0  0  0  0  0  0  0  0  0  0
    9.7076    0.2151   20.5010 N   0  0  0  0  0  0  0  0  0  0  0  0
   10.5736   -0.1969   20.1237 H   0  0  0  0  0  0  0  0  0  0  0  0
    9.9607    1.4004   21.3404 C   0  0  0  0  0  0  0  0  0  0  0  0
    8.9908    1.8453   21.6141 H   0  0  0  0  0  0  0  0  0  0  0  0
   10.4708    2.1529   20.7232 H   0  0  0  0  0  0  0  0  0  0  0  0
   10.7455    1.0605   22.5762 C   0  0  0  0  0  0  0  0  0  0  0  0
   12.4730    1.0386   22.5466 S   0  0  0  0  0  0  0  0  0  0  0  0
   12.5381    0.4624   24.1600 C   0  0  0  0  0  0  0  0  0  0  0  0
   13.4940    0.2704   24.6216 H   0  0  0  0  0  0  0  0  0  0  0  0
   11.2997    0.2862   24.6942 C   0  0  0  0  0  0  0  0  0  0  0  0
   11.1160   -0.0956   25.6902 H   0  0  0  0  0  0  0  0  0  0  0  0
   10.2634    0.6239   23.7756 C   0  0  0  0  0  0  0  0  0  0  0  0
    9.1985    0.4979   23.9753 H   0  0  0  0  0  0  0  0  0  0  0  0
    5.4705    0.6400   20.1517 C   0  0  0  0  0  0  0  0  0  0  0  0
    5.0533    0.6273   21.1594 H   0  0  0  0  0  0  0  0  0  0  0  0
    4.8302    1.3024   19.1043 C   0  0  0  0  0  0  0  0  0  0  0  0
    3.8842    1.8087   19.2614 H   0  0  0  0  0  0  0  0  0  0  0  0
  1  2  1  0
  2  3  2  0
  3  4  1  0
  4  5  1  0
  4  6  2  0
  6  7  1  0
  7  8  1  0
  9  7  1  6
  9 10  2  0
  9 11  1  0
 11 12  1  0
 11 13  1  0
 13 14  1  0
 13 15  1  0
 13 16  1  0
 16 17  1  0
 17 18  1  0
 18 19  1  0
 18 20  2  0
 20 21  1  0
 20 22  1  0
 22 23  1  0
  6 24  1  0
 24 25  1  0
 24 26  2  0
 26 27  1  0
 26  2  1  0
 22 16  2  0
M  END
>  <plip>  (1) 
-0.13333333333333333

>  <filename>  (1) 
[H][c]1[n][c]([H])[c]([N]([H])[S@@](=[O])[N]([H])[C]([H])([H])[c]2[s][c]([H])[c]([H])[c]2[H])[c]([H])[c]1[H]

$$$$
