
     RDKit          3D

 39 40  0  0  0  0  0  0  0  0999 V2000
    5.1360   -6.3311   27.4245 C   0  0  0  0  0  0  0  0  0  0  0  0
    5.5268   -4.9824   26.8936 C   0  0  0  0  0  0  0  0  0  0  0  0
    5.9939   -3.9875   27.7615 C   0  0  0  0  0  0  0  0  0  0  0  0
    6.3870   -2.7497   27.2549 C   0  0  0  0  0  0  0  0  0  0  0  0
    6.3394   -2.5092   25.8872 C   0  0  0  0  0  0  0  0  0  0  0  0
    5.8518   -3.4763   25.0066 C   0  0  0  0  0  0  0  0  0  0  0  0
    5.8087   -3.1980   23.6365 N   0  0  0  0  0  0  0  0  0  0  0  0
    6.5368   -2.0954   23.0369 N   0  0  0  0  0  0  0  0  0  0  0  0
    6.4571   -1.6783   21.7119 C   0  0  0  0  0  0  0  0  0  0  0  0
    5.7126   -2.2920   20.9438 O   0  0  0  0  0  0  0  0  0  0  0  0
    7.3696   -0.5232   21.1839 C   0  0  0  0  0  0  0  0  0  0  0  0
    7.6760    0.5464   22.2457 C   0  0  0  0  0  0  0  0  0  0  0  0
    6.7630    1.0044   22.6299 H   0  0  0  0  0  0  0  0  0  0  0  0
    8.2267    0.1060   23.0816 H   0  0  0  0  0  0  0  0  0  0  0  0
    8.2976    1.3367   21.8088 H   0  0  0  0  0  0  0  0  0  0  0  0
    8.7574   -1.0657   20.7940 C   0  0  0  0  0  0  0  0  0  0  0  0
    9.4062   -0.2602   20.4430 H   0  0  0  0  0  0  0  0  0  0  0  0
    9.2636   -1.5268   21.6452 H   0  0  0  0  0  0  0  0  0  0  0  0
    8.6608   -1.7990   19.9935 H   0  0  0  0  0  0  0  0  0  0  0  0
    6.7076    0.1648   19.9876 C   0  0  0  0  0  0  0  0  0  0  0  0
    5.4604    0.7715   20.1411 C   0  0  0  0  0  0  0  0  0  0  0  0
    4.8659    1.3411   19.0138 C   0  0  0  0  0  0  0  0  0  0  0  0
    5.5145    1.2946   17.7733 C   0  0  0  0  0  0  0  0  0  0  0  0
    6.7046    0.6978   17.6119 N   0  0  0  0  0  0  0  0  0  0  0  0
    7.2783    0.1474   18.6983 C   0  0  0  0  0  0  0  0  0  0  0  0
    8.2202   -0.3701   18.5663 H   0  0  0  0  0  0  0  0  0  0  0  0
    5.0482    1.7499   16.9025 H   0  0  0  0  0  0  0  0  0  0  0  0
    3.9028    1.8280   19.0854 H   0  0  0  0  0  0  0  0  0  0  0  0
    4.9601    0.7886   21.1096 H   0  0  0  0  0  0  0  0  0  0  0  0
    7.1387   -1.5270   23.6302 H   0  0  0  0  0  0  0  0  0  0  0  0
    5.2894   -3.8550   23.0447 H   0  0  0  0  0  0  0  0  0  0  0  0
    5.4198   -4.7152   25.5143 C   0  0  0  0  0  0  0  0  0  0  0  0
    4.7023   -6.0621   24.3463 Br  0  0  0  0  0  0  0  0  0  0  0  0
    6.6728   -1.5511   25.5084 H   0  0  0  0  0  0  0  0  0  0  0  0
    6.7275   -1.9579   27.9097 H   0  0  0  0  0  0  0  0  0  0  0  0
    6.0441   -4.1650   28.8328 H   0  0  0  0  0  0  0  0  0  0  0  0
    5.7500   -7.1034   26.9494 H   0  0  0  0  0  0  0  0  0  0  0  0
    5.2714   -6.3961   28.5098 H   0  0  0  0  0  0  0  0  0  0  0  0
    4.0852   -6.5189   27.1893 H   0  0  0  0  0  0  0  0  0  0  0  0
  1  2  1  0
  2  3  2  0
  3  4  1  0
  4  5  2  0
  5  6  1  0
  6  7  1  0
  7  8  1  0
  8  9  1  0
  9 10  2  0
  9 11  1  0
 11 12  1  0
 12 13  1  0
 12 14  1  0
 12 15  1  0
 11 16  1  0
 16 17  1  0
 16 18  1  0
 16 19  1  0
 11 20  1  0
 20 21  2  0
 21 22  1  0
 22 23  2  0
 23 24  1  0
 24 25  2  0
 25 26  1  0
 23 27  1  0
 22 28  1  0
 21 29  1  0
  8 30  1  0
  7 31  1  0
  6 32  2  0
 32 33  1  0
  5 34  1  0
  4 35  1  0
  3 36  1  0
  1 37  1  0
  1 38  1  0
  1 39  1  0
 32  2  1  0
 25 20  1  0
M  END
>  <plip>  (1) 
-0.07142857142857142

>  <filename>  (1) 
[H][c]1[n][c]([H])[c]([C]([C](=[O])[N]([H])[N]([H])[c]2[c]([H])[c]([H])[c]([H])[c]([C]([H])([H])[H])[c]2[Br])([C]([H])([H])[H])[C]([H])([H])[H])[c]([H])[c]1[H]

$$$$
