
     RDKit          3D

 37 39  0  0  0  0  0  0  0  0999 V2000
    7.2589    1.3988   24.3411 C   0  0  0  0  0  0  0  0  0  0  0  0
    7.6755    0.0074   24.1536 N   0  0  0  0  0  0  0  0  0  0  0  0
    7.9183   -0.4456   22.8900 C   0  0  0  0  0  0  0  0  0  0  0  0
    8.6980   -1.5232   22.7394 N   0  0  0  0  0  0  0  0  0  0  0  0
    9.0341   -1.8131   21.4858 C   0  0  0  0  0  0  0  0  0  0  0  0
    8.5152   -1.1552   20.3866 C   0  0  0  0  0  0  0  0  0  0  0  0
    7.5818   -0.1608   20.6676 C   0  0  0  0  0  0  0  0  0  0  0  0
    6.7601    0.4576   19.6116 C   0  0  0  0  0  0  0  0  0  0  0  0
    5.4825    0.9801   19.8868 C   0  0  0  0  0  0  0  0  0  0  0  0
    4.7410    1.5116   18.8386 C   0  0  0  0  0  0  0  0  0  0  0  0
    5.2986    1.5118   17.5561 C   0  0  0  0  0  0  0  0  0  0  0  0
    6.5099    1.0085   17.2778 N   0  0  0  0  0  0  0  0  0  0  0  0
    7.2167    0.5035   18.2899 C   0  0  0  0  0  0  0  0  0  0  0  0
    8.2005    0.1302   18.0013 H   0  0  0  0  0  0  0  0  0  0  0  0
    4.7638    1.9350   16.7132 H   0  0  0  0  0  0  0  0  0  0  0  0
    3.7577    1.9402   19.0035 H   0  0  0  0  0  0  0  0  0  0  0  0
    5.1044    0.9604   20.9116 H   0  0  0  0  0  0  0  0  0  0  0  0
    7.3453    0.2443   21.9033 N   0  0  0  0  0  0  0  0  0  0  0  0
    8.7916   -1.4138   19.3785 H   0  0  0  0  0  0  0  0  0  0  0  0
    9.7536   -2.6251   21.3542 H   0  0  0  0  0  0  0  0  0  0  0  0
    7.8428   -0.9131   25.2800 C   0  0  0  0  0  0  0  0  0  0  0  0
    7.4113   -0.3613   26.6393 C   0  0  0  0  0  0  0  0  0  0  0  0
    7.2797   -1.6040   27.5164 C   0  0  0  0  0  0  0  0  0  0  0  0
    6.7618   -2.6977   26.5863 N   0  0  0  0  0  4  0  0  0  0  0  0
    6.9290   -2.1551   25.1659 C   0  0  0  0  0  0  0  0  0  0  0  0
    7.3476   -2.8951   24.4872 H   0  0  0  0  0  0  0  0  0  0  0  0
    5.9713   -1.7960   24.7706 H   0  0  0  0  0  0  0  0  0  0  0  0
    7.2930   -3.5944   26.7028 H   0  0  0  0  0  0  0  0  0  0  0  0
    5.7494   -2.8831   26.7888 H   0  0  0  0  0  0  0  0  0  0  0  0
    8.2578   -1.8895   27.9145 H   0  0  0  0  0  0  0  0  0  0  0  0
    6.6049   -1.4840   28.3690 H   0  0  0  0  0  0  0  0  0  0  0  0
    6.4412    0.1435   26.5459 H   0  0  0  0  0  0  0  0  0  0  0  0
    8.1230    0.3625   27.0505 H   0  0  0  0  0  0  0  0  0  0  0  0
    8.8912   -1.2493   25.3506 H   0  0  0  0  0  0  0  0  0  0  0  0
    7.8406    1.8721   25.1422 H   0  0  0  0  0  0  0  0  0  0  0  0
    6.1890    1.4767   24.5835 H   0  0  0  0  0  0  0  0  0  0  0  0
    7.4223    1.9573   23.4168 H   0  0  0  0  0  0  0  0  0  0  0  0
  1  2  1  0
  2  3  1  0
  3  4  2  0
  4  5  1  0
  5  6  2  0
  6  7  1  0
  7  8  1  0
  8  9  2  0
  9 10  1  0
 10 11  2  0
 11 12  1  0
 12 13  2  0
 13 14  1  0
 11 15  1  0
 10 16  1  0
  9 17  1  0
  7 18  2  0
  6 19  1  0
  5 20  1  0
  2 21  1  0
 21 22  1  0
 22 23  1  0
 23 24  1  0
 24 25  1  0
 25 26  1  0
 25 27  1  0
 24 28  1  0
 24 29  1  0
 23 30  1  0
 23 31  1  0
 22 32  1  0
 22 33  1  0
 21 34  1  0
  1 35  1  0
  1 36  1  0
  1 37  1  0
 18  3  1  0
 25 21  1  0
 13  8  1  0
M  CHG  1  24   1
M  END
>  <plip>  (1) 
-0.03571428571428571

>  <filename>  (1) 
[H][c]1[n][c]([N]([C]([H])([H])[H])[C]2([H])[C]([H])([H])[C]([H])([H])[N+]([H])([H])[C]2([H])[H])[n][c](-[c]2[c]([H])[n][c]([H])[c]([H])[c]2[H])[c]1[H]

$$$$
