
     RDKit          3D

 31 32  0  0  0  0  0  0  0  0999 V2000
    4.9419    1.8058   16.9696 H   0  0  0  0  0  0  0  0  0  0  0  0
    5.4242    1.3278   17.8262 C   0  0  0  0  0  0  0  0  0  0  0  0
    6.5926    0.7081   17.5967 N   0  0  0  0  0  0  0  0  0  0  0  0
    7.1813    0.0971   18.6394 C   0  0  0  0  0  0  0  0  0  0  0  0
    8.1286   -0.3872   18.4159 H   0  0  0  0  0  0  0  0  0  0  0  0
    6.6643    0.0597   19.9589 C   0  0  0  0  0  0  0  0  0  0  0  0
    7.3370   -0.6283   21.1000 C   0  0  0  0  0  0  0  0  0  0  0  0
    7.5526   -0.1986   22.4811 C   0  0  0  0  0  0  0  0  0  0  0  0
    7.3506    1.0534   23.0072 N   0  0  0  0  0  0  0  0  0  0  0  0
    6.9451    1.1207   24.4138 C   0  0  0  0  0  0  0  0  0  0  0  0
    7.0113    2.1646   24.7458 H   0  0  0  0  0  0  0  0  0  0  0  0
    7.6509    0.5348   25.0249 H   0  0  0  0  0  0  0  0  0  0  0  0
    5.5132    0.6097   24.6274 C   0  0  0  0  0  0  0  0  0  0  0  0
    4.8651    1.0018   23.8383 H   0  0  0  0  0  0  0  0  0  0  0  0
    5.1065    0.9494   25.5869 H   0  0  0  0  0  0  0  0  0  0  0  0
    5.4837   -0.4850   24.5966 H   0  0  0  0  0  0  0  0  0  0  0  0
    7.7645    2.2565   22.2775 C   0  0  0  0  0  0  0  0  0  0  0  0
    8.0241    1.9754   21.2498 H   0  0  0  0  0  0  0  0  0  0  0  0
    8.6819    2.6753   22.7269 H   0  0  0  0  0  0  0  0  0  0  0  0
    6.6717    3.3151   22.2336 C   0  0  0  0  0  0  0  0  0  0  0  0
    5.8072    2.9465   21.6758 H   0  0  0  0  0  0  0  0  0  0  0  0
    6.3439    3.6075   23.2362 H   0  0  0  0  0  0  0  0  0  0  0  0
    7.0312    4.2169   21.7284 H   0  0  0  0  0  0  0  0  0  0  0  0
    8.0367   -1.1727   23.2251 N   0  0  0  0  0  0  0  0  0  0  0  0
    8.1975   -2.2445   22.3805 O   0  0  0  0  0  0  0  0  0  0  0  0
    7.7827   -1.9103   21.1647 C   0  0  0  0  0  0  0  0  0  0  0  0
    7.8416   -2.7243   20.4665 H   0  0  0  0  0  0  0  0  0  0  0  0
    5.4348    0.7014   20.1549 C   0  0  0  0  0  0  0  0  0  0  0  0
    4.9760    0.6864   21.1427 H   0  0  0  0  0  0  0  0  0  0  0  0
    4.8104    1.3472   19.0810 C   0  0  0  0  0  0  0  0  0  0  0  0
    3.8630    1.8522   19.2120 H   0  0  0  0  0  0  0  0  0  0  0  0
  1  2  1  0
  2  3  2  0
  3  4  1  0
  4  5  1  0
  4  6  2  0
  6  7  1  0
  7  8  1  0
  8  9  1  0
  9 10  1  0
 10 11  1  0
 10 12  1  0
 10 13  1  0
 13 14  1  0
 13 15  1  0
 13 16  1  0
  9 17  1  0
 17 18  1  0
 17 19  1  0
 17 20  1  0
 20 21  1  0
 20 22  1  0
 20 23  1  0
  8 24  2  0
 24 25  1  0
 25 26  1  0
 26 27  1  0
  6 28  1  0
 28 29  1  0
 28 30  2  0
 30 31  1  0
 30  2  1  0
 26  7  2  0
M  END
>  <plip>  (1) 
-0.0

>  <filename>  (1) 
[H][c]1[n][c]([H])[c](-[c]2[c]([N]([C]([H])([H])[C]([H])([H])[H])[C]([H])([H])[C]([H])([H])[H])[n][o][c]2[H])[c]([H])[c]1[H]

$$$$
