
     RDKit          3D

 29 30  0  0  0  0  0  0  0  0999 V2000
    4.9254    1.7996   16.9844 H   0  0  0  0  0  0  0  0  0  0  0  0
    5.3937    1.2996   17.8297 C   0  0  0  0  0  0  0  0  0  0  0  0
    6.5554    0.6809   17.5695 N   0  0  0  0  0  0  0  0  0  0  0  0
    7.1531    0.0392   18.5786 C   0  0  0  0  0  0  0  0  0  0  0  0
    8.1087   -0.4280   18.3488 H   0  0  0  0  0  0  0  0  0  0  0  0
    6.6361   -0.0351   19.8866 C   0  0  0  0  0  0  0  0  0  0  0  0
    7.5779   -0.8420   21.1613 S   0  0  0  0  0  0  0  0  0  0  0  0
    8.5995    0.5996   21.6818 C   0  0  1  0  0  0  0  0  0  0  0  0
    9.0533    0.9619   20.7542 H   0  0  0  0  0  0  0  0  0  0  0  0
    7.7684    1.7441   22.2547 C   0  0  0  0  0  0  0  0  0  0  0  0
    7.8722    2.9981   21.6424 C   0  0  0  0  0  0  0  0  0  0  0  0
    8.5903    3.0761   20.8271 H   0  0  0  0  0  0  0  0  0  0  0  0
    7.1243    4.0964   22.0764 C   0  0  0  0  0  0  0  0  0  0  0  0
    7.2026    5.0554   21.5630 H   0  0  0  0  0  0  0  0  0  0  0  0
    6.2771    3.9554   23.1826 C   0  0  0  0  0  0  0  0  0  0  0  0
    5.7047    4.8066   23.5486 H   0  0  0  0  0  0  0  0  0  0  0  0
    6.1718    2.7192   23.8251 C   0  0  0  0  0  0  0  0  0  0  0  0
    5.5302    2.5917   24.6902 H   0  0  0  0  0  0  0  0  0  0  0  0
    6.9065    1.6111   23.3627 C   0  0  0  0  0  0  0  0  0  0  0  0
    6.7515    0.3469   24.0574 C   0  0  0  0  0  0  0  0  0  0  0  0
    6.6235   -0.6393   24.6501 N   0  0  0  0  0  0  0  0  0  0  0  0
    9.7029    0.1286   22.6237 C   0  0  0  0  0  0  0  0  0  0  0  0
   10.3354   -0.6167   22.1268 H   0  0  0  0  0  0  0  0  0  0  0  0
   10.3262    0.9884   22.9073 H   0  0  0  0  0  0  0  0  0  0  0  0
    9.2851   -0.3082   23.5359 H   0  0  0  0  0  0  0  0  0  0  0  0
    5.4225    0.6201   20.1463 C   0  0  0  0  0  0  0  0  0  0  0  0
    5.0236    0.6326   21.1640 H   0  0  0  0  0  0  0  0  0  0  0  0
    4.7992    1.3016   19.0957 C   0  0  0  0  0  0  0  0  0  0  0  0
    3.8752    1.8434   19.2441 H   0  0  0  0  0  0  0  0  0  0  0  0
  1  2  1  0
  2  3  2  0
  3  4  1  0
  4  5  1  0
  4  6  2  0
  6  7  1  0
  7  8  1  0
  8  9  1  6
  8 10  1  0
 10 11  2  0
 11 12  1  0
 11 13  1  0
 13 14  1  0
 13 15  2  0
 15 16  1  0
 15 17  1  0
 17 18  1  0
 17 19  2  0
 19 20  1  0
 20 21  3  0
  8 22  1  0
 22 23  1  0
 22 24  1  0
 22 25  1  0
  6 26  1  0
 26 27  1  0
 26 28  2  0
 28 29  1  0
 28  2  1  0
 19 10  1  0
M  END
>  <plip>  (1) 
-0.03571428571428571

>  <filename>  (1) 
[H][c]1[n][c]([H])[c]([S][C@@]([H])([c]2[c]([H])[c]([H])[c]([H])[c]([H])[c]2[C]#[N])[C]([H])([H])[H])[c]([H])[c]1[H]

$$$$
