
     RDKit          3D

 45 46  0  0  0  0  0  0  0  0999 V2000
    8.3050   -0.2478   24.3707 C   0  0  0  0  0  0  0  0  0  0  0  0
    8.7029   -0.3732   23.0204 O   0  0  0  0  0  0  0  0  0  0  0  0
    7.9308    0.3060   22.0516 C   0  0  0  0  0  0  0  0  0  0  0  0
    8.7490    1.1646   21.3168 O   0  0  0  0  0  0  0  0  0  0  0  0
    9.2227    2.2985   22.0220 C   0  0  0  0  0  0  0  0  0  0  0  0
    8.3953    2.9472   22.3545 H   0  0  0  0  0  0  0  0  0  0  0  0
    9.8177    2.0068   22.8975 H   0  0  0  0  0  0  0  0  0  0  0  0
    9.8532    2.8451   21.3173 H   0  0  0  0  0  0  0  0  0  0  0  0
    7.3032   -0.7120   21.0394 C   0  0  0  0  0  0  0  0  0  0  0  0
    6.4146   -1.6823   21.7022 N   0  0  0  0  0  0  0  0  0  0  0  0
    5.8905   -2.7558   21.0484 C   0  0  0  0  0  0  0  0  0  0  0  0
    6.0801   -2.9926   19.8711 O   0  0  0  0  0  0  0  0  0  0  0  0
    5.0777   -3.6446   21.9029 C   0  0  0  0  0  0  0  0  0  0  0  0
    4.3993   -4.4337   22.5200 C   0  0  0  0  0  0  0  0  0  0  0  0
    3.6097   -5.3800   23.3399 C   0  0  0  0  0  0  0  0  0  0  0  0
    4.2087   -5.6862   24.5933 O   0  0  0  0  0  0  0  0  0  0  0  0
    4.3834   -4.7072   25.5423 C   0  0  0  0  0  0  0  0  0  0  0  0
    5.0318   -5.1153   26.7228 C   0  0  0  0  0  0  0  0  0  0  0  0
    5.2675   -4.1962   27.7487 C   0  0  0  0  0  0  0  0  0  0  0  0
    4.8511   -2.8646   27.6122 C   0  0  0  0  0  0  0  0  0  0  0  0
    4.2083   -2.4597   26.4404 C   0  0  0  0  0  0  0  0  0  0  0  0
    3.9758   -3.3714   25.4029 C   0  0  0  0  0  0  0  0  0  0  0  0
    3.5127   -3.0421   24.4810 H   0  0  0  0  0  0  0  0  0  0  0  0
    3.8883   -1.4249   26.3165 H   0  0  0  0  0  0  0  0  0  0  0  0
    5.0192   -2.1470   28.4113 H   0  0  0  0  0  0  0  0  0  0  0  0
    5.7813   -4.5076   28.6611 H   0  0  0  0  0  0  0  0  0  0  0  0
    5.3572   -6.1461   26.8198 H   0  0  0  0  0  0  0  0  0  0  0  0
    3.5252   -6.3469   22.8369 H   0  0  0  0  0  0  0  0  0  0  0  0
    2.5861   -4.9995   23.4776 H   0  0  0  0  0  0  0  0  0  0  0  0
    6.0333   -1.4875   22.6152 H   0  0  0  0  0  0  0  0  0  0  0  0
    6.5716   -0.0368   19.8864 C   0  0  0  0  0  0  0  0  0  0  0  0
    5.3626    0.6421   20.0813 C   0  0  0  0  0  0  0  0  0  0  0  0
    4.7901    1.3300   19.0129 C   0  0  0  0  0  0  0  0  0  0  0  0
    5.4392    1.2998   17.7742 C   0  0  0  0  0  0  0  0  0  0  0  0
    6.5716    0.6189   17.5488 N   0  0  0  0  0  0  0  0  0  0  0  0
    7.1091   -0.0331   18.5933 C   0  0  0  0  0  0  0  0  0  0  0  0
    8.0278   -0.5893   18.3834 H   0  0  0  0  0  0  0  0  0  0  0  0
    5.0220    1.8298   16.9211 H   0  0  0  0  0  0  0  0  0  0  0  0
    3.8637    1.8800   19.1276 H   0  0  0  0  0  0  0  0  0  0  0  0
    4.8800    0.6248   21.0590 H   0  0  0  0  0  0  0  0  0  0  0  0
    8.1749   -1.2476   20.6374 H   0  0  0  0  0  0  0  0  0  0  0  0
    7.1088    0.8752   22.5343 H   0  0  0  0  0  0  0  0  0  0  0  0
    9.0394   -0.8101   24.9513 H   0  0  0  0  0  0  0  0  0  0  0  0
    7.3084   -0.6782   24.5694 H   0  0  0  0  0  0  0  0  0  0  0  0
    8.3012    0.7952   24.7302 H   0  0  0  0  0  0  0  0  0  0  0  0
  1  2  1  0
  2  3  1  0
  3  4  1  0
  4  5  1  0
  5  6  1  0
  5  7  1  0
  5  8  1  0
  3  9  1  0
  9 10  1  0
 10 11  1  0
 11 12  2  0
 11 13  1  0
 13 14  3  0
 14 15  1  0
 15 16  1  0
 16 17  1  0
 17 18  2  0
 18 19  1  0
 19 20  2  0
 20 21  1  0
 21 22  2  0
 22 23  1  0
 21 24  1  0
 20 25  1  0
 19 26  1  0
 18 27  1  0
 15 28  1  0
 15 29  1  0
 10 30  1  0
  9 31  1  0
 31 32  2  0
 32 33  1  0
 33 34  2  0
 34 35  1  0
 35 36  2  0
 36 37  1  0
 34 38  1  0
 33 39  1  0
 32 40  1  0
  9 41  1  0
  3 42  1  0
  1 43  1  0
  1 44  1  0
  1 45  1  0
 22 17  1  0
 36 31  1  0
M  END
>  <plip>  (1) 
-0.2413793103448276

>  <filename>  (1) 
[H][c]1[n][c]([H])[c]([C]([H])([N]([H])[C](=[O])[C]#[C][C]([H])([H])[O][c]2[c]([H])[c]([H])[c]([H])[c]([H])[c]2[H])[C]([H])([O][C]([H])([H])[H])[O][C]([H])([H])[H])[c]([H])[c]1[H]

$$$$
