
     RDKit          3D

 33 34  0  0  0  0  0  0  0  0999 V2000
    8.2353   -5.1945   25.3152 H   0  0  0  0  0  0  0  0  0  0  0  0
    7.9859   -4.2616   25.3648 O   0  0  0  0  0  0  0  0  0  0  0  0
    9.1043   -3.4889   24.9522 C   0  0  0  0  0  0  0  0  0  0  0  0
   10.0081   -3.7963   25.5073 H   0  0  0  0  0  0  0  0  0  0  0  0
    8.7577   -2.0434   25.2871 C   0  0  0  0  0  0  0  0  0  0  0  0
    8.4595   -1.9889   26.3394 H   0  0  0  0  0  0  0  0  0  0  0  0
    9.6432   -1.4119   25.1657 H   0  0  0  0  0  0  0  0  0  0  0  0
    7.6189   -1.5186   24.4080 C   0  0  0  0  0  0  0  0  0  0  0  0
    7.4730   -0.4564   24.6437 H   0  0  0  0  0  0  0  0  0  0  0  0
    6.6888   -2.0373   24.6943 H   0  0  0  0  0  0  0  0  0  0  0  0
    7.9247   -1.6696   22.9773 N   0  0  0  0  0  0  0  0  0  0  0  0
    6.8830   -1.0947   22.1760 C   0  0  2  0  0  0  0  0  0  0  0  0
    6.5232   -0.1451   22.6163 H   0  0  0  0  0  0  0  0  0  0  0  0
    5.8254   -1.9809   21.9394 O   0  0  0  0  0  0  0  0  0  0  0  0
    6.1530   -2.1599   21.0434 H   0  0  0  0  0  0  0  0  0  0  0  0
    7.4472   -0.9269   20.8506 N   0  0  0  0  0  0  0  0  0  0  0  0
    8.4065   -0.6510   21.0066 H   0  0  0  0  0  0  0  0  0  0  0  0
    6.7680   -0.1275   19.8830 C   0  0  0  0  0  0  0  0  0  0  0  0
    7.2582    0.0063   18.5586 C   0  0  0  0  0  0  0  0  0  0  0  0
    8.1979   -0.4779   18.3060 H   0  0  0  0  0  0  0  0  0  0  0  0
    6.6443    0.6786   17.5725 N   0  0  0  0  0  0  0  0  0  0  0  0
    5.4823    1.2832   17.8751 C   0  0  0  0  0  0  0  0  0  0  0  0
    4.9886    1.8103   17.0587 H   0  0  0  0  0  0  0  0  0  0  0  0
    4.9124    1.2359   19.1546 C   0  0  0  0  0  0  0  0  0  0  0  0
    3.9806    1.7590   19.3462 H   0  0  0  0  0  0  0  0  0  0  0  0
    5.5538    0.5179   20.1722 C   0  0  0  0  0  0  0  0  0  0  0  0
    5.1203    0.4522   21.1727 H   0  0  0  0  0  0  0  0  0  0  0  0
    8.1718   -3.0895   22.6465 C   0  0  0  0  0  0  0  0  0  0  0  0
    7.2726   -3.6944   22.8479 H   0  0  0  0  0  0  0  0  0  0  0  0
    8.3702   -3.1718   21.5732 H   0  0  0  0  0  0  0  0  0  0  0  0
    9.3373   -3.6486   23.4482 C   0  0  0  0  0  0  0  0  0  0  0  0
   10.2689   -3.1522   23.1594 H   0  0  0  0  0  0  0  0  0  0  0  0
    9.4410   -4.7127   23.2141 H   0  0  0  0  0  0  0  0  0  0  0  0
  1  2  1  0
  2  3  1  0
  3  4  1  0
  3  5  1  0
  5  6  1  0
  5  7  1  0
  5  8  1  0
  8  9  1  0
  8 10  1  0
  8 11  1  0
 11 12  1  0
 12 13  1  1
 12 14  1  0
 14 15  1  0
 12 16  1  0
 16 17  1  0
 16 18  1  0
 18 19  2  0
 19 20  1  0
 19 21  1  0
 21 22  2  0
 22 23  1  0
 22 24  1  0
 24 25  1  0
 24 26  2  0
 26 27  1  0
 11 28  1  0
 28 29  1  0
 28 30  1  0
 28 31  1  0
 31 32  1  0
 31 33  1  0
 31  3  1  0
 26 18  1  0
M  END
>  <plip>  (1) 
-0.03571428571428571

>  <filename>  (1) 
[H][O][C]1([H])[C]([H])([H])[C]([H])([H])[N]([C@]([H])([O][H])[N]([H])[c]2[c]([H])[n][c]([H])[c]([H])[c]2[H])[C]([H])([H])[C]1([H])[H]

$$$$
