
     RDKit          3D

 42 44  0  0  0  0  0  0  0  0999 V2000
    6.4308   -3.6733   26.8737 C   0  0  0  0  0  0  0  0  0  0  0  0
    6.7573   -2.4422   26.0574 C   0  0  0  0  0  0  0  0  0  0  0  0
    6.0381   -1.2568   26.1903 C   0  0  0  0  0  0  0  0  0  0  0  0
    5.0188   -1.0107   27.2537 C   0  0  0  0  0  0  0  0  0  0  0  0
    5.4312   -1.2948   28.2286 H   0  0  0  0  0  0  0  0  0  0  0  0
    4.1253   -1.6235   27.0914 H   0  0  0  0  0  0  0  0  0  0  0  0
    4.7030    0.0348   27.2814 H   0  0  0  0  0  0  0  0  0  0  0  0
    6.3223   -0.2116   25.3088 N   0  0  0  0  0  0  0  0  0  0  0  0
    5.6773    0.9915   25.2806 N   0  0  0  0  0  0  0  0  0  0  0  0
    6.2703    1.6893   24.3216 C   0  0  0  0  0  0  0  0  0  0  0  0
    7.2941    0.9660   23.7054 C   0  0  0  0  0  0  0  0  0  0  0  0
    8.1216    1.3782   22.5736 C   0  0  0  0  0  0  0  0  0  0  0  0
    8.5489    2.5156   22.4709 O   0  0  0  0  0  0  0  0  0  0  0  0
    8.4053    0.3732   21.6388 N   0  0  0  0  0  0  0  0  0  0  0  0
    9.6861    0.4464   20.9508 C   0  0  0  0  0  0  0  0  0  0  0  0
    9.8209    1.4422   20.5234 H   0  0  0  0  0  0  0  0  0  0  0  0
    9.7690   -0.3218   20.1777 H   0  0  0  0  0  0  0  0  0  0  0  0
   10.5090    0.3006   21.6602 H   0  0  0  0  0  0  0  0  0  0  0  0
    7.3583   -0.5498   21.1628 C   0  0  0  0  0  0  0  0  0  0  0  0
    7.7505   -2.2139   20.9806 C   0  0  0  0  0  0  0  0  0  0  0  0
    6.7308   -2.9029   20.8481 O   0  0  0  0  0  0  0  0  0  0  0  0
    8.9549   -2.5213   21.0611 O   0  0  0  0  0  1  0  0  0  0  0  0
    6.6205    0.0439   19.9635 C   0  0  0  0  0  0  0  0  0  0  0  0
    5.3866    0.6834   20.1493 C   0  0  0  0  0  0  0  0  0  0  0  0
    4.7779    1.3170   19.0642 C   0  0  0  0  0  0  0  0  0  0  0  0
    5.4253    1.2900   17.8225 C   0  0  0  0  0  0  0  0  0  0  0  0
    6.5977    0.6745   17.6132 N   0  0  0  0  0  0  0  0  0  0  0  0
    7.1697    0.0745   18.6721 C   0  0  0  0  0  0  0  0  0  0  0  0
    8.1185   -0.4232   18.4764 H   0  0  0  0  0  0  0  0  0  0  0  0
    4.9773    1.7807   16.9596 H   0  0  0  0  0  0  0  0  0  0  0  0
    3.8352    1.8418   19.1754 H   0  0  0  0  0  0  0  0  0  0  0  0
    4.9207    0.7125   21.1371 H   0  0  0  0  0  0  0  0  0  0  0  0
    6.6286   -0.6528   21.9693 H   0  0  0  0  0  0  0  0  0  0  0  0
    7.3256   -0.2746   24.3613 C   0  0  0  0  0  0  0  0  0  0  0  0
    8.0974   -1.4586   24.2526 C   0  0  0  0  0  0  0  0  0  0  0  0
    7.8145   -2.5090   25.1025 C   0  0  0  0  0  0  0  0  0  0  0  0
    8.4039   -3.4218   25.0236 H   0  0  0  0  0  0  0  0  0  0  0  0
    8.8434   -1.5281   23.4748 H   0  0  0  0  0  0  0  0  0  0  0  0
    5.9241    2.6957   24.1019 H   0  0  0  0  0  0  0  0  0  0  0  0
    6.8194   -4.5644   26.3746 H   0  0  0  0  0  0  0  0  0  0  0  0
    6.8953   -3.6815   27.8640 H   0  0  0  0  0  0  0  0  0  0  0  0
    5.3518   -3.7977   27.0172 H   0  0  0  0  0  0  0  0  0  0  0  0
  1  2  1  0
  2  3  2  0
  3  4  1  0
  4  5  1  0
  4  6  1  0
  4  7  1  0
  3  8  1  0
  8  9  1  0
  9 10  2  0
 10 11  1  0
 11 12  1  0
 12 13  2  0
 12 14  1  0
 14 15  1  0
 15 16  1  0
 15 17  1  0
 15 18  1  0
 14 19  1  0
 19 20  1  0
 20 21  2  0
 20 22  1  0
 19 23  1  0
 23 24  2  0
 24 25  1  0
 25 26  2  0
 26 27  1  0
 27 28  2  0
 28 29  1  0
 26 30  1  0
 25 31  1  0
 24 32  1  0
 19 33  1  0
 11 34  2  0
 34 35  1  0
 35 36  2  0
 36 37  1  0
 35 38  1  0
 10 39  1  0
  1 40  1  0
  1 41  1  0
  1 42  1  0
 36  2  1  0
 34  8  1  0
 28 23  1  0
M  CHG  1  22  -1
M  END
>  <plip>  (1) 
-0.10344827586206896

>  <filename>  (1) 
[H][c]1[n][c]([H])[c]([C]([H])([C](=[O])[O-])[N]([C](=[O])[c]2[c]([H])[n][n]3[c]([C]([H])([H])[H])[c]([C]([H])([H])[H])[c]([H])[c]([H])[c]23)[C]([H])([H])[H])[c]([H])[c]1[H]

$$$$
