
     RDKit          3D

 41 43  0  0  0  0  0  0  0  0999 V2000
    7.6777   -1.7252   20.8323 C   0  0  0  0  0  0  0  0  0  0  0  0
    7.0866   -0.3373   20.9914 C   0  0  0  0  0  0  0  0  0  0  0  0
    6.4227    0.2345   19.7630 C   0  0  0  0  0  0  0  0  0  0  0  0
    5.1909    0.9002   19.8376 C   0  0  0  0  0  0  0  0  0  0  0  0
    4.6996    1.5361   18.6952 C   0  0  0  0  0  0  0  0  0  0  0  0
    5.4518    1.4750   17.5167 C   0  0  0  0  0  0  0  0  0  0  0  0
    6.6236    0.8295   17.4249 N   0  0  0  0  0  0  0  0  0  0  0  0
    7.0883    0.2312   18.5299 C   0  0  0  0  0  0  0  0  0  0  0  0
    8.0426   -0.2851   18.4149 H   0  0  0  0  0  0  0  0  0  0  0  0
    5.0978    1.9617   16.6081 H   0  0  0  0  0  0  0  0  0  0  0  0
    3.7639    2.0856   18.7069 H   0  0  0  0  0  0  0  0  0  0  0  0
    4.6436    0.9337   20.7830 H   0  0  0  0  0  0  0  0  0  0  0  0
    8.1417    0.7441   21.4561 N   0  0  0  0  0  4  0  0  0  0  0  0
    9.5686    0.5148   21.0036 C   0  0  0  0  0  0  0  0  0  0  0  0
   10.2488    1.2529   21.4446 H   0  0  0  0  0  0  0  0  0  0  0  0
    9.6519    0.5781   19.9136 H   0  0  0  0  0  0  0  0  0  0  0  0
    9.9175   -0.4755   21.3042 H   0  0  0  0  0  0  0  0  0  0  0  0
    8.0579    0.9950   22.9764 C   0  0  0  0  0  0  0  0  0  0  0  0
    8.2738   -0.2327   23.8345 C   0  0  0  0  0  0  0  0  0  0  0  0
    7.3040   -0.8780   24.4301 N   0  0  0  0  0  0  0  0  0  0  0  0
    7.8592   -2.0784   24.8426 C   0  0  0  0  0  0  0  0  0  0  0  0
    7.2377   -3.2170   25.3906 C   0  0  0  0  0  0  0  0  0  0  0  0
    7.9954   -4.3702   25.5676 C   0  0  0  0  0  0  0  0  0  0  0  0
    9.3622   -4.3778   25.1967 C   0  0  0  0  0  0  0  0  0  0  0  0
   10.1497   -5.6233   25.3363 N   0  0  0  0  0  4  0  0  0  0  0  0
   11.3668   -5.5226   25.3084 O   0  0  0  0  0  0  0  0  0  0  0  0
    9.5478   -6.6751   25.4642 O   0  0  0  0  0  1  0  0  0  0  0  0
   10.0031   -3.2582   24.6650 C   0  0  0  0  0  0  0  0  0  0  0  0
    9.2273   -2.1112   24.5035 C   0  0  0  0  0  0  0  0  0  0  0  0
    9.4785   -0.8860   23.9148 N   0  0  0  0  0  0  0  0  0  0  0  0
   10.3714   -0.5545   23.5853 H   0  0  0  0  0  0  0  0  0  0  0  0
   11.0465   -3.3271   24.3737 H   0  0  0  0  0  0  0  0  0  0  0  0
    7.5391   -5.2832   25.9434 H   0  0  0  0  0  0  0  0  0  0  0  0
    6.1774   -3.1809   25.6210 H   0  0  0  0  0  0  0  0  0  0  0  0
    8.7540    1.7962   23.2349 H   0  0  0  0  0  0  0  0  0  0  0  0
    7.0458    1.3303   23.2114 H   0  0  0  0  0  0  0  0  0  0  0  0
    7.7784    1.5815   20.9478 H   0  0  0  0  0  0  0  0  0  0  0  0
    6.3585   -0.3657   21.8091 H   0  0  0  0  0  0  0  0  0  0  0  0
    8.1212   -2.0607   21.7728 H   0  0  0  0  0  0  0  0  0  0  0  0
    6.8846   -2.4196   20.5552 H   0  0  0  0  0  0  0  0  0  0  0  0
    8.4565   -1.7560   20.0666 H   0  0  0  0  0  0  0  0  0  0  0  0
  1  2  1  0
  2  3  1  0
  3  4  2  0
  4  5  1  0
  5  6  2  0
  6  7  1  0
  7  8  2  0
  8  9  1  0
  6 10  1  0
  5 11  1  0
  4 12  1  0
  2 13  1  0
 13 14  1  0
 14 15  1  0
 14 16  1  0
 14 17  1  0
 13 18  1  0
 18 19  1  0
 19 20  2  0
 20 21  1  0
 21 22  2  0
 22 23  1  0
 23 24  2  0
 24 25  1  0
 25 26  2  0
 25 27  1  0
 24 28  1  0
 28 29  2  0
 29 30  1  0
 30 31  1  0
 28 32  1  0
 23 33  1  0
 22 34  1  0
 18 35  1  0
 18 36  1  0
 13 37  1  0
  2 38  1  0
  1 39  1  0
  1 40  1  0
  1 41  1  0
  8  3  1  0
 30 19  1  0
 29 21  1  0
M  CHG  3  13   1  25   1  27  -1
M  END
>  <plip>  (1) 
-0.07142857142857142

>  <filename>  (1) 
[H][c]1[n][c]([H])[c]([C]([H])([C]([H])([H])[H])[N+]([H])([C]([H])([H])[H])[C]([H])([H])[c]2[n][c]3[c]([H])[c]([H])[c]([N+](=[O])[O-])[c]([H])[c]3[n]2[H])[c]([H])[c]1[H]

$$$$
