
     RDKit          3D

 41 42  0  0  0  0  0  0  0  0999 V2000
    9.8109    1.4873   21.8605 C   0  0  0  0  0  0  0  0  0  0  0  0
    8.2797    1.4552   21.9968 C   0  0  0  0  0  0  0  0  0  0  0  0
    7.7069    2.4500   23.4316 S   0  0  0  0  0  0  0  0  0  0  0  0
    7.8357    4.0553   22.6923 C   0  0  0  0  0  0  0  0  0  0  0  0
    9.0263    4.7919   22.8455 C   0  0  0  0  0  0  0  0  0  0  0  0
    9.1703    6.0654   22.2821 C   0  0  0  0  0  0  0  0  0  0  0  0
    8.1121    6.6231   21.5594 C   0  0  0  0  0  0  0  0  0  0  0  0
    6.9341    5.8994   21.3723 C   0  0  0  0  0  0  0  0  0  0  0  0
    6.7907    4.6312   21.9410 C   0  0  0  0  0  0  0  0  0  0  0  0
    5.2721    3.8163   21.6762 Cl  0  0  0  0  0  0  0  0  0  0  0  0
    6.1154    6.2956   20.7797 H   0  0  0  0  0  0  0  0  0  0  0  0
    8.1759    7.6289   21.1594 H   0  0  0  0  0  0  0  0  0  0  0  0
   10.1098    6.5991   22.3840 H   0  0  0  0  0  0  0  0  0  0  0  0
    9.8446    4.3467   23.4081 H   0  0  0  0  0  0  0  0  0  0  0  0
    7.7725    0.0160   22.1595 C   0  0  0  0  0  0  0  0  0  0  0  0
    7.8623   -0.5805   23.2174 O   0  0  0  0  0  0  0  0  0  0  0  0
    7.3653   -0.6056   20.9848 N   0  0  0  0  0  0  0  0  0  0  0  0
    6.6809    0.0685   19.9161 C   0  0  0  0  0  0  0  0  0  0  0  0
    5.4540    0.6893   20.1594 C   0  0  0  0  0  0  0  0  0  0  0  0
    4.8044    1.3262   19.0966 C   0  0  0  0  0  0  0  0  0  0  0  0
    5.3903    1.3033   17.8264 C   0  0  0  0  0  0  0  0  0  0  0  0
    6.5520    0.6817   17.5661 N   0  0  0  0  0  0  0  0  0  0  0  0
    7.1706    0.0792   18.5896 C   0  0  0  0  0  0  0  0  0  0  0  0
    8.1126   -0.4164   18.3525 H   0  0  0  0  0  0  0  0  0  0  0  0
    4.9165    1.8052   16.9858 H   0  0  0  0  0  0  0  0  0  0  0  0
    3.8716    1.8573   19.2503 H   0  0  0  0  0  0  0  0  0  0  0  0
    5.0333    0.6586   21.1663 H   0  0  0  0  0  0  0  0  0  0  0  0
    7.5044   -2.0734   20.8843 C   0  0  0  0  0  0  0  0  0  0  0  0
    6.5169   -2.8427   21.7655 C   0  0  0  0  0  0  0  0  0  0  0  0
    6.5877   -3.9074   21.5133 H   0  0  0  0  0  0  0  0  0  0  0  0
    5.4956   -2.5148   21.5494 H   0  0  0  0  0  0  0  0  0  0  0  0
    6.7186   -2.7208   22.8337 H   0  0  0  0  0  0  0  0  0  0  0  0
    8.9511   -2.5148   21.1271 C   0  0  0  0  0  0  0  0  0  0  0  0
    9.2423   -2.3680   22.1709 H   0  0  0  0  0  0  0  0  0  0  0  0
    9.6556   -1.9620   20.4966 H   0  0  0  0  0  0  0  0  0  0  0  0
    9.0382   -3.5760   20.8913 H   0  0  0  0  0  0  0  0  0  0  0  0
    7.2087   -2.2831   19.8493 H   0  0  0  0  0  0  0  0  0  0  0  0
    7.8209    1.8674   21.0931 H   0  0  0  0  0  0  0  0  0  0  0  0
   10.2701    1.1222   22.7847 H   0  0  0  0  0  0  0  0  0  0  0  0
   10.1547    0.8677   21.0220 H   0  0  0  0  0  0  0  0  0  0  0  0
   10.1554    2.5107   21.6856 H   0  0  0  0  0  0  0  0  0  0  0  0
  1  2  1  0
  2  3  1  0
  3  4  1  0
  4  5  2  0
  5  6  1  0
  6  7  2  0
  7  8  1  0
  8  9  2  0
  9 10  1  0
  8 11  1  0
  7 12  1  0
  6 13  1  0
  5 14  1  0
  2 15  1  0
 15 16  2  0
 15 17  1  0
 17 18  1  0
 18 19  2  0
 19 20  1  0
 20 21  2  0
 21 22  1  0
 22 23  2  0
 23 24  1  0
 21 25  1  0
 20 26  1  0
 19 27  1  0
 17 28  1  0
 28 29  1  0
 29 30  1  0
 29 31  1  0
 29 32  1  0
 28 33  1  0
 33 34  1  0
 33 35  1  0
 33 36  1  0
 28 37  1  0
  2 38  1  0
  1 39  1  0
  1 40  1  0
  1 41  1  0
  9  4  1  0
 23 18  1  0
M  END
>  <plip>  (1) 
-0.034482758620689655

>  <filename>  (1) 
[H][c]1[n][c]([H])[c]([N]([C](=[O])[C]([H])([S][c]2[c]([H])[c]([H])[c]([H])[c]([H])[c]2[Cl])[C]([H])([H])[H])[C]([H])([C]([H])([H])[H])[C]([H])([H])[H])[c]([H])[c]1[H]

$$$$
