
     RDKit          3D

 39 42  0  0  0  0  0  0  0  0999 V2000
    5.7406   -2.5043   20.1067 O   0  0  0  0  0  0  0  0  0  0  0  0
    6.5463   -2.2132   20.9816 C   0  0  0  0  0  0  0  0  0  0  0  0
    6.6997   -3.0780   22.0471 N   0  0  0  0  0  0  0  0  0  0  0  0
    5.5182   -3.8783   22.4208 C   0  0  0  0  0  0  0  0  0  0  0  0
    5.9900   -4.6754   23.5949 C   0  0  0  0  0  0  0  0  0  0  0  0
    7.3338   -4.4105   23.8385 C   0  0  0  0  0  0  0  0  0  0  0  0
    7.8609   -3.3501   22.8967 C   0  0  0  0  0  0  0  0  0  0  0  0
    8.7453   -3.6893   22.3398 H   0  0  0  0  0  0  0  0  0  0  0  0
    8.1771   -2.4688   23.4660 H   0  0  0  0  0  0  0  0  0  0  0  0
    7.9787   -5.0909   24.8642 C   0  0  0  0  0  0  0  0  0  0  0  0
    9.2979   -4.9096   25.0701 F   0  0  0  0  0  0  0  0  0  0  0  0
    7.2743   -5.9594   25.6992 C   0  0  0  0  0  0  0  0  0  0  0  0
    5.9108   -6.1921   25.4568 C   0  0  0  0  0  0  0  0  0  0  0  0
    5.2668   -5.5722   24.3818 C   0  0  0  0  0  0  0  0  0  0  0  0
    4.2204   -5.7739   24.1621 H   0  0  0  0  0  0  0  0  0  0  0  0
    5.3594   -6.8768   26.0954 H   0  0  0  0  0  0  0  0  0  0  0  0
    7.7983   -6.4592   26.5060 H   0  0  0  0  0  0  0  0  0  0  0  0
    5.1747   -4.4968   21.5823 H   0  0  0  0  0  0  0  0  0  0  0  0
    4.6795   -3.2255   22.6933 H   0  0  0  0  0  0  0  0  0  0  0  0
    7.3093   -0.8330   20.9618 C   0  0  0  0  0  0  0  0  0  0  0  0
    6.7052    0.0428   19.8599 C   0  0  0  0  0  0  0  0  0  0  0  0
    5.4746    0.6730   20.0856 C   0  0  0  0  0  0  0  0  0  0  0  0
    4.8443    1.3411   19.0364 C   0  0  0  0  0  0  0  0  0  0  0  0
    5.4699    1.3526   17.7854 C   0  0  0  0  0  0  0  0  0  0  0  0
    6.6354    0.7398   17.5315 N   0  0  0  0  0  0  0  0  0  0  0  0
    7.2232    0.1004   18.5536 C   0  0  0  0  0  0  0  0  0  0  0  0
    8.1552   -0.4169   18.3206 H   0  0  0  0  0  0  0  0  0  0  0  0
    5.0018    1.8608   16.9463 H   0  0  0  0  0  0  0  0  0  0  0  0
    3.8900    1.8365   19.1757 H   0  0  0  0  0  0  0  0  0  0  0  0
    5.0225    0.6121   21.0762 H   0  0  0  0  0  0  0  0  0  0  0  0
    8.8801   -0.8554   20.9767 C   0  0  0  0  0  0  0  0  0  0  0  0
    8.8999   -0.1408   22.3484 C   0  0  0  0  0  0  0  0  0  0  0  0
    7.3576   -0.1175   22.3633 C   0  0  0  0  0  0  0  0  0  0  0  0
    6.9313    0.8912   22.3668 H   0  0  0  0  0  0  0  0  0  0  0  0
    6.8758   -0.6769   23.1727 H   0  0  0  0  0  0  0  0  0  0  0  0
    9.3793   -0.6881   23.1696 H   0  0  0  0  0  0  0  0  0  0  0  0
    9.3530    0.8566   22.3208 H   0  0  0  0  0  0  0  0  0  0  0  0
    9.3261   -0.2358   20.1919 H   0  0  0  0  0  0  0  0  0  0  0  0
    9.3559   -1.8404   20.9187 H   0  0  0  0  0  0  0  0  0  0  0  0
  1  2  2  0
  2  3  1  0
  3  4  1  0
  4  5  1  0
  5  6  2  0
  6  7  1  0
  7  8  1  0
  7  9  1  0
  6 10  1  0
 10 11  1  0
 10 12  2  0
 12 13  1  0
 13 14  2  0
 14 15  1  0
 13 16  1  0
 12 17  1  0
  4 18  1  0
  4 19  1  0
  2 20  1  0
 20 21  1  0
 21 22  2  0
 22 23  1  0
 23 24  2  0
 24 25  1  0
 25 26  2  0
 26 27  1  0
 24 28  1  0
 23 29  1  0
 22 30  1  0
 20 31  1  0
 31 32  1  0
 32 33  1  0
 33 34  1  0
 33 35  1  0
 32 36  1  0
 32 37  1  0
 31 38  1  0
 31 39  1  0
  7  3  1  0
 33 20  1  0
 14  5  1  0
 26 21  1  0
M  END
>  <plip>  (1) 
-0.10714285714285714

>  <filename>  (1) 
[H][c]1[n][c]([H])[c]([C]2([C](=[O])[N]3[C]([H])([H])[c]4[c]([H])[c]([H])[c]([H])[c]([F])[c]4[C]3([H])[H])[C]([H])([H])[C]([H])([H])[C]2([H])[H])[c]([H])[c]1[H]

$$$$
