
     RDKit          3D

 39 40  0  0  0  0  0  0  0  0999 V2000
    5.2344   -2.6375   24.7985 C   0  0  0  0  0  0  0  0  0  0  0  0
    5.1166   -3.7822   23.7979 C   0  0  0  0  0  0  0  0  0  0  0  0
    4.1670   -4.7996   23.9921 C   0  0  0  0  0  0  0  0  0  0  0  0
    3.2649   -4.6692   24.9867 F   0  0  0  0  0  0  0  0  0  0  0  0
    4.1065   -5.9614   23.2216 C   0  0  0  0  0  0  0  0  0  0  0  0
    5.0194   -6.1216   22.1760 C   0  0  0  0  0  0  0  0  0  0  0  0
    5.9425   -5.1070   21.9180 C   0  0  0  0  0  0  0  0  0  0  0  0
    5.9839   -3.9306   22.6899 C   0  0  0  0  0  0  0  0  0  0  0  0
    7.0377   -2.8871   22.3771 C   0  0  0  0  0  0  0  0  0  0  0  0
    6.5766   -1.9443   21.3502 N   0  0  0  0  0  4  0  0  0  0  0  0
    7.4095   -0.6950   21.0662 C   0  0  0  0  0  0  0  0  0  0  0  0
    7.4648    0.2024   22.3093 C   0  0  0  0  0  0  0  0  0  0  0  0
    6.4787    0.3066   22.7723 H   0  0  0  0  0  0  0  0  0  0  0  0
    7.8126    1.1952   22.0169 H   0  0  0  0  0  0  0  0  0  0  0  0
    8.1474   -0.2117   23.0589 H   0  0  0  0  0  0  0  0  0  0  0  0
    8.8352   -1.1149   20.6980 C   0  0  0  0  0  0  0  0  0  0  0  0
    9.3282   -1.5609   21.5683 H   0  0  0  0  0  0  0  0  0  0  0  0
    9.4230   -0.2687   20.3384 H   0  0  0  0  0  0  0  0  0  0  0  0
    8.8140   -1.8668   19.9127 H   0  0  0  0  0  0  0  0  0  0  0  0
    6.6372   -0.0340   19.9348 C   0  0  0  0  0  0  0  0  0  0  0  0
    5.4108    0.6230   20.1565 C   0  0  0  0  0  0  0  0  0  0  0  0
    4.7945    1.2920   19.0971 C   0  0  0  0  0  0  0  0  0  0  0  0
    5.4014    1.2744   17.8387 C   0  0  0  0  0  0  0  0  0  0  0  0
    6.5469    0.6337   17.5945 N   0  0  0  0  0  0  0  0  0  0  0  0
    7.1378    0.0101   18.6222 C   0  0  0  0  0  0  0  0  0  0  0  0
    8.0921   -0.4459   18.3771 H   0  0  0  0  0  0  0  0  0  0  0  0
    4.9547    1.7977   16.9930 H   0  0  0  0  0  0  0  0  0  0  0  0
    3.8767    1.8474   19.2410 H   0  0  0  0  0  0  0  0  0  0  0  0
    4.9542    0.6732   21.1497 H   0  0  0  0  0  0  0  0  0  0  0  0
    6.4599   -2.4072   20.4171 H   0  0  0  0  0  0  0  0  0  0  0  0
    5.6236   -1.5835   21.6066 H   0  0  0  0  0  0  0  0  0  0  0  0
    7.3175   -2.3704   23.3030 H   0  0  0  0  0  0  0  0  0  0  0  0
    7.9384   -3.4229   22.0619 H   0  0  0  0  0  0  0  0  0  0  0  0
    6.6744   -5.2268   21.1236 H   0  0  0  0  0  0  0  0  0  0  0  0
    5.0272   -7.0317   21.5769 H   0  0  0  0  0  0  0  0  0  0  0  0
    3.3660   -6.7100   23.4854 H   0  0  0  0  0  0  0  0  0  0  0  0
    5.6046   -1.7132   24.3457 H   0  0  0  0  0  0  0  0  0  0  0  0
    4.2639   -2.4020   25.2394 H   0  0  0  0  0  0  0  0  0  0  0  0
    5.9144   -2.8598   25.6313 H   0  0  0  0  0  0  0  0  0  0  0  0
  1  2  1  0
  2  3  2  0
  3  4  1  0
  3  5  1  0
  5  6  2  0
  6  7  1  0
  7  8  2  0
  8  9  1  0
  9 10  1  0
 10 11  1  0
 11 12  1  0
 12 13  1  0
 12 14  1  0
 12 15  1  0
 11 16  1  0
 16 17  1  0
 16 18  1  0
 16 19  1  0
 11 20  1  0
 20 21  2  0
 21 22  1  0
 22 23  2  0
 23 24  1  0
 24 25  2  0
 25 26  1  0
 23 27  1  0
 22 28  1  0
 21 29  1  0
 10 30  1  0
 10 31  1  0
  9 32  1  0
  9 33  1  0
  7 34  1  0
  6 35  1  0
  5 36  1  0
  1 37  1  0
  1 38  1  0
  1 39  1  0
  8  2  1  0
 25 20  1  0
M  CHG  1  10   1
M  END
>  <plip>  (1) 
-0.034482758620689655

>  <filename>  (1) 
[H][c]1[n][c]([H])[c]([C]([C]([H])([H])[H])([C]([H])([H])[H])[N+]([H])([H])[C]([H])([H])[c]2[c]([H])[c]([H])[c]([H])[c]([F])[c]2[C]([H])([H])[H])[c]([H])[c]1[H]

$$$$
