
     RDKit          3D

 23 24  0  0  0  0  0  0  0  0999 V2000
    4.9321    1.8468   17.0070 H   0  0  0  0  0  0  0  0  0  0  0  0
    5.4127    1.3222   17.8274 C   0  0  0  0  0  0  0  0  0  0  0  0
    6.5712    0.7022   17.5474 N   0  0  0  0  0  0  0  0  0  0  0  0
    7.1886    0.0330   18.5377 C   0  0  0  0  0  0  0  0  0  0  0  0
    8.1328   -0.4471   18.2750 H   0  0  0  0  0  0  0  0  0  0  0  0
    6.6767   -0.0727   19.8628 C   0  0  0  0  0  0  0  0  0  0  0  0
    7.2250   -0.8300   20.9211 N   0  0  0  0  0  0  0  0  0  0  0  0
    6.7685   -0.6747   21.8106 H   0  0  0  0  0  0  0  0  0  0  0  0
    8.8075   -1.4060   21.1297 S   0  0  0  0  0  0  0  0  0  0  0  0
    9.5882    0.0723   21.7540 C   0  0  0  0  0  0  0  0  0  0  0  0
    9.8601    1.0605   20.8076 C   0  0  0  0  0  0  0  0  0  0  0  0
    9.6030    0.9052   19.7681 H   0  0  0  0  0  0  0  0  0  0  0  0
   10.4521    2.2216   21.0956 N   0  0  0  0  0  0  0  0  0  0  0  0
   10.7372    2.4780   22.3743 C   0  0  0  0  0  0  0  0  0  0  0  0
   11.2016    3.4315   22.6002 H   0  0  0  0  0  0  0  0  0  0  0  0
   10.4354    1.5784   23.4015 C   0  0  0  0  0  0  0  0  0  0  0  0
   10.6788    1.9288   24.6712 F   0  0  0  0  0  0  0  0  0  0  0  0
    9.8711    0.3374   23.1070 C   0  0  0  0  0  0  0  0  0  0  0  0
    9.6602   -0.3480   23.9194 H   0  0  0  0  0  0  0  0  0  0  0  0
    5.4705    0.6034   20.1209 C   0  0  0  0  0  0  0  0  0  0  0  0
    5.0673    0.5823   21.1331 H   0  0  0  0  0  0  0  0  0  0  0  0
    4.8273    1.3005   19.0977 C   0  0  0  0  0  0  0  0  0  0  0  0
    3.8945    1.8270   19.2684 H   0  0  0  0  0  0  0  0  0  0  0  0
  1  2  1  0
  2  3  2  0
  3  4  1  0
  4  5  1  0
  4  6  2  0
  6  7  1  0
  7  8  1  0
  7  9  1  0
  9 10  1  0
 10 11  2  0
 11 12  1  0
 11 13  1  0
 13 14  2  0
 14 15  1  0
 14 16  1  0
 16 17  1  0
 16 18  2  0
 18 19  1  0
  6 20  1  0
 20 21  1  0
 20 22  2  0
 22 23  1  0
 22  2  1  0
 18 10  1  0
M  END
>  <plip>  (1) 
-0.10714285714285714

>  <filename>  (1) 
[H][c]1[n][c]([H])[c]([N]([H])[S][c]2[c]([H])[n][c]([H])[c]([F])[c]2[H])[c]([H])[c]1[H]

$$$$
