
     RDKit          3D

 44 45  0  0  0  0  0  0  0  0999 V2000
    8.5537    5.1500   22.7724 C   0  0  0  0  0  0  0  0  0  0  0  0
    7.6766    4.4573   23.7594 C   0  0  0  0  0  0  0  0  0  0  0  0
    6.8258    5.1054   24.5110 N   0  0  0  0  0  0  0  0  0  0  0  0
    6.2106    4.1427   25.2963 O   0  0  0  0  0  0  0  0  0  0  0  0
    6.7136    2.9348   25.0053 C   0  0  0  0  0  0  0  0  0  0  0  0
    6.1944    1.7343   25.7435 C   0  0  0  0  0  0  0  0  0  0  0  0
    4.7388    1.4395   25.3361 C   0  0  0  0  0  0  0  0  0  0  0  0
    4.6470    1.3341   24.2460 H   0  0  0  0  0  0  0  0  0  0  0  0
    4.0690    2.2502   25.6563 H   0  0  0  0  0  0  0  0  0  0  0  0
    4.3866    0.5110   25.7993 H   0  0  0  0  0  0  0  0  0  0  0  0
    6.3583    1.8428   27.2736 C   0  0  0  0  0  0  0  0  0  0  0  0
    6.0300    0.9131   27.7530 H   0  0  0  0  0  0  0  0  0  0  0  0
    7.4051    2.0110   27.5581 H   0  0  0  0  0  0  0  0  0  0  0  0
    5.7584    2.6633   27.6899 H   0  0  0  0  0  0  0  0  0  0  0  0
    6.8255    0.8932   25.4037 H   0  0  0  0  0  0  0  0  0  0  0  0
    7.6599    3.0598   24.0275 C   0  0  0  0  0  0  0  0  0  0  0  0
    8.5360    2.0050   23.4654 C   0  0  0  0  0  0  0  0  0  0  0  0
    7.7441    1.2969   22.4524 N   0  0  0  0  0  4  0  0  0  0  0  0
    8.4061    0.1284   21.8043 C   0  0  0  0  0  0  0  0  0  0  0  0
    9.5238    0.6247   20.8892 C   0  0  0  0  0  0  0  0  0  0  0  0
    9.9510   -0.2034   20.3159 H   0  0  0  0  0  0  0  0  0  0  0  0
   10.3401    1.1096   21.4351 H   0  0  0  0  0  0  0  0  0  0  0  0
    9.0697    1.3418   20.2051 H   0  0  0  0  0  0  0  0  0  0  0  0
    7.3751   -0.7095   21.0251 C   0  0  0  0  0  0  0  0  0  0  0  0
    6.6323   -0.0195   19.8918 C   0  0  0  0  0  0  0  0  0  0  0  0
    5.4153    0.6393   20.1196 C   0  0  0  0  0  0  0  0  0  0  0  0
    4.7854    1.3181   19.0726 C   0  0  0  0  0  0  0  0  0  0  0  0
    5.3845    1.3091   17.8115 C   0  0  0  0  0  0  0  0  0  0  0  0
    6.5423    0.6816   17.5604 N   0  0  0  0  0  0  0  0  0  0  0  0
    7.1430    0.0464   18.5768 C   0  0  0  0  0  0  0  0  0  0  0  0
    8.1026   -0.4167   18.3349 H   0  0  0  0  0  0  0  0  0  0  0  0
    4.9225    1.8240   16.9679 H   0  0  0  0  0  0  0  0  0  0  0  0
    3.8602    1.8607   19.2204 H   0  0  0  0  0  0  0  0  0  0  0  0
    4.9816    0.6302   21.1216 H   0  0  0  0  0  0  0  0  0  0  0  0
    7.9191   -1.5768   20.6284 H   0  0  0  0  0  0  0  0  0  0  0  0
    6.6681   -1.1002   21.7665 H   0  0  0  0  0  0  0  0  0  0  0  0
    8.8174   -0.5212   22.5961 H   0  0  0  0  0  0  0  0  0  0  0  0
    7.5086    2.0140   21.7134 H   0  0  0  0  0  0  0  0  0  0  0  0
    6.8234    1.0685   22.8856 H   0  0  0  0  0  0  0  0  0  0  0  0
    8.8796    1.2902   24.2322 H   0  0  0  0  0  0  0  0  0  0  0  0
    9.4535    2.4258   23.0278 H   0  0  0  0  0  0  0  0  0  0  0  0
    8.4370    4.6731   21.7912 H   0  0  0  0  0  0  0  0  0  0  0  0
    9.6076    5.0568   23.0658 H   0  0  0  0  0  0  0  0  0  0  0  0
    8.3047    6.2125   22.6932 H   0  0  0  0  0  0  0  0  0  0  0  0
  1  2  1  0
  2  3  2  0
  3  4  1  0
  4  5  1  0
  5  6  1  0
  6  7  1  0
  7  8  1  0
  7  9  1  0
  7 10  1  0
  6 11  1  0
 11 12  1  0
 11 13  1  0
 11 14  1  0
  6 15  1  0
  5 16  2  0
 16 17  1  0
 17 18  1  0
 18 19  1  0
 19 20  1  0
 20 21  1  0
 20 22  1  0
 20 23  1  0
 19 24  1  0
 24 25  1  0
 25 26  2  0
 26 27  1  0
 27 28  2  0
 28 29  1  0
 29 30  2  0
 30 31  1  0
 28 32  1  0
 27 33  1  0
 26 34  1  0
 24 35  1  0
 24 36  1  0
 19 37  1  0
 18 38  1  0
 18 39  1  0
 17 40  1  0
 17 41  1  0
  1 42  1  0
  1 43  1  0
  1 44  1  0
 16  2  1  0
 30 25  1  0
M  CHG  1  18   1
M  END
>  <plip>  (1) 
-0.0

>  <filename>  (1) 
[H][c]1[n][c]([H])[c]([C]([H])([H])[C]([H])([C]([H])([H])[H])[N+]([H])([H])[C]([H])([H])[c]2[c]([C]([H])([H])[H])[n][o][c]2[C]([H])([C]([H])([H])[H])[C]([H])([H])[H])[c]([H])[c]1[H]

$$$$
