
     RDKit          3D

 30 32  0  0  0  0  0  0  0  0999 V2000
    8.7631   -0.0915   21.2859 C   0  0  0  0  0  0  0  0  0  0  0  0
    7.4007   -0.7535   21.0461 C   0  0  0  0  0  0  0  0  0  0  0  0
    7.5405   -2.1676   20.7916 N   0  0  0  0  0  0  0  0  0  0  0  0
    7.8190   -3.0629   21.7256 C   0  0  0  0  0  0  0  0  0  0  0  0
    7.9668   -4.3081   21.2257 N   0  0  0  0  0  0  0  0  0  0  0  0
    8.2128   -5.2542   22.1109 C   0  0  0  0  0  0  0  0  0  0  0  0
    8.3354   -4.9952   23.4899 C   0  0  0  0  0  0  0  0  0  0  0  0
    8.6318   -5.8099   24.6369 C   0  0  0  0  0  0  0  0  0  0  0  0
    8.6176   -5.1150   25.7895 C   0  0  0  0  0  0  0  0  0  0  0  0
    8.2886   -3.4183   25.5610 S   0  0  0  0  0  0  0  0  0  0  0  0
    8.1439   -3.6509   23.8377 C   0  0  0  0  0  0  0  0  0  0  0  0
    7.8981   -2.6637   22.9874 N   0  0  0  0  0  0  0  0  0  0  0  0
    8.7949   -5.5189   26.7782 H   0  0  0  0  0  0  0  0  0  0  0  0
    8.9060   -6.8477   24.6007 H   0  0  0  0  0  0  0  0  0  0  0  0
    8.3357   -6.2697   21.7293 H   0  0  0  0  0  0  0  0  0  0  0  0
    7.5086   -2.6361   19.9074 H   0  0  0  0  0  0  0  0  0  0  0  0
    6.6387   -0.0791   19.9245 C   0  0  0  0  0  0  0  0  0  0  0  0
    5.4356    0.6055   20.1604 C   0  0  0  0  0  0  0  0  0  0  0  0
    4.8163    1.2872   19.1111 C   0  0  0  0  0  0  0  0  0  0  0  0
    5.4224    1.2689   17.8519 C   0  0  0  0  0  0  0  0  0  0  0  0
    6.5750    0.6325   17.6038 N   0  0  0  0  0  0  0  0  0  0  0  0
    7.1618   -0.0150   18.6234 C   0  0  0  0  0  0  0  0  0  0  0  0
    8.1267   -0.4573   18.3680 H   0  0  0  0  0  0  0  0  0  0  0  0
    4.9629    1.7806   17.0072 H   0  0  0  0  0  0  0  0  0  0  0  0
    3.8929    1.8381   19.2560 H   0  0  0  0  0  0  0  0  0  0  0  0
    5.0078    0.6290   21.1646 H   0  0  0  0  0  0  0  0  0  0  0  0
    6.8133   -0.6492   21.9733 H   0  0  0  0  0  0  0  0  0  0  0  0
    8.6195    0.9810   21.4439 H   0  0  0  0  0  0  0  0  0  0  0  0
    9.4204   -0.2308   20.4204 H   0  0  0  0  0  0  0  0  0  0  0  0
    9.2572   -0.5193   22.1639 H   0  0  0  0  0  0  0  0  0  0  0  0
  1  2  1  0
  2  3  1  0
  3  4  1  0
  4  5  2  0
  5  6  1  0
  6  7  2  0
  7  8  1  0
  8  9  2  0
  9 10  1  0
 10 11  1  0
 11 12  2  0
  9 13  1  0
  8 14  1  0
  6 15  1  0
  3 16  1  0
  2 17  1  0
 17 18  2  0
 18 19  1  0
 19 20  2  0
 20 21  1  0
 21 22  2  0
 22 23  1  0
 20 24  1  0
 19 25  1  0
 18 26  1  0
  2 27  1  0
  1 28  1  0
  1 29  1  0
  1 30  1  0
 12  4  1  0
 22 17  1  0
 11  7  1  0
M  END
>  <plip>  (1) 
-0.10344827586206896

>  <filename>  (1) 
[H][c]1[n][c]([H])[c]([C]([H])([N]([H])[c]2[n][c]([H])[c]3[c]([H])[c]([H])[s][c]3[n]2)[C]([H])([H])[H])[c]([H])[c]1[H]

$$$$
