
     RDKit          3D

 33 34  0  0  0  0  0  0  0  0999 V2000
    4.9147    1.7937   16.9846 H   0  0  0  0  0  0  0  0  0  0  0  0
    5.3948    1.2990   17.8258 C   0  0  0  0  0  0  0  0  0  0  0  0
    6.5519    0.6795   17.5566 N   0  0  0  0  0  0  0  0  0  0  0  0
    7.1534    0.0557   18.5798 C   0  0  0  0  0  0  0  0  0  0  0  0
    8.1116   -0.4156   18.3574 H   0  0  0  0  0  0  0  0  0  0  0  0
    6.6485   -0.0113   19.8944 C   0  0  0  0  0  0  0  0  0  0  0  0
    7.3964   -0.7175   21.0030 C   0  0  0  0  0  0  0  0  0  0  0  0
    6.6759   -1.1930   21.6782 H   0  0  0  0  0  0  0  0  0  0  0  0
    8.0059   -1.5272   20.5728 H   0  0  0  0  0  0  0  0  0  0  0  0
    8.3587    0.2008   21.8449 C   0  0  0  0  0  0  0  0  0  0  0  0
    7.6066    1.4273   22.4458 C   0  0  0  0  0  0  0  0  0  0  0  0
    7.9184    2.7480   22.0637 C   0  0  0  0  0  0  0  0  0  0  0  0
    8.7091    2.9112   21.3432 H   0  0  0  0  0  0  0  0  0  0  0  0
    7.2609    3.8613   22.5874 C   0  0  0  0  0  0  0  0  0  0  0  0
    7.5505    4.8543   22.2643 H   0  0  0  0  0  0  0  0  0  0  0  0
    6.2371    3.7088   23.5138 C   0  0  0  0  0  0  0  0  0  0  0  0
    5.7072    4.5571   23.9406 H   0  0  0  0  0  0  0  0  0  0  0  0
    5.8799    2.4233   23.9099 C   0  0  0  0  0  0  0  0  0  0  0  0
    4.5880    2.2833   25.0622 Cl  0  0  0  0  0  0  0  0  0  0  0  0
    6.5679    1.2981   23.3996 C   0  0  0  0  0  0  0  0  0  0  0  0
    6.1325   -0.2407   24.0680 Cl  0  0  0  0  0  0  0  0  0  0  0  0
    9.0209   -0.6384   22.9579 C   0  0  0  0  0  0  0  0  0  0  0  0
    9.7361   -1.3419   22.5135 H   0  0  0  0  0  0  0  0  0  0  0  0
    8.3024   -1.2169   23.5336 H   0  0  0  0  0  0  0  0  0  0  0  0
    9.5672    0.0149   23.6457 H   0  0  0  0  0  0  0  0  0  0  0  0
    9.5047    0.6357   20.9109 C   0  0  0  0  0  0  0  0  0  0  0  0
   10.0153   -0.2389   20.4918 H   0  0  0  0  0  0  0  0  0  0  0  0
    9.1031    1.2047   20.0797 H   0  0  0  0  0  0  0  0  0  0  0  0
   10.2583    1.2402   21.4297 H   0  0  0  0  0  0  0  0  0  0  0  0
    5.4339    0.6449   20.1453 C   0  0  0  0  0  0  0  0  0  0  0  0
    5.0161    0.6340   21.1585 H   0  0  0  0  0  0  0  0  0  0  0  0
    4.8024    1.3150   19.0945 C   0  0  0  0  0  0  0  0  0  0  0  0
    3.8729    1.8462   19.2479 H   0  0  0  0  0  0  0  0  0  0  0  0
  1  2  1  0
  2  3  2  0
  3  4  1  0
  4  5  1  0
  4  6  2  0
  6  7  1  0
  7  8  1  0
  7  9  1  0
  7 10  1  0
 10 11  1  0
 11 12  2  0
 12 13  1  0
 12 14  1  0
 14 15  1  0
 14 16  2  0
 16 17  1  0
 16 18  1  0
 18 19  1  0
 18 20  2  0
 20 21  1  0
 10 22  1  0
 22 23  1  0
 22 24  1  0
 22 25  1  0
 10 26  1  0
 26 27  1  0
 26 28  1  0
 26 29  1  0
  6 30  1  0
 30 31  1  0
 30 32  2  0
 32 33  1  0
 32  2  1  0
 20 11  1  0
M  END
>  <plip>  (1) 
-0.03571428571428571

>  <filename>  (1) 
[H][c]1[n][c]([H])[c]([C]([H])([H])[C]([c]2[c]([H])[c]([H])[c]([H])[c]([Cl])[c]2[Cl])([C]([H])([H])[H])[C]([H])([H])[H])[c]([H])[c]1[H]

$$$$
