
     RDKit          3D

 52 55  0  0  0  0  0  0  0  0999 V2000
    6.6215   -6.9094   28.2662 Cl  0  0  0  0  0  0  0  0  0  0  0  0
    7.3711   -6.2991   26.8197 C   0  0  0  0  0  0  0  0  0  0  0  0
    6.6206   -5.4575   25.9958 C   0  0  0  0  0  0  0  0  0  0  0  0
    7.2400   -4.8909   24.8781 C   0  0  0  0  0  0  0  0  0  0  0  0
    6.5037   -3.8987   24.0174 C   0  0  0  0  0  0  0  0  0  0  0  0
    6.5306   -4.1300   22.4684 C   0  0  0  0  0  0  0  0  0  0  0  0
    7.3216   -2.8373   22.2652 C   0  0  0  0  0  0  0  0  0  0  0  0
    6.6525   -1.8678   21.3814 N   0  0  0  0  0  4  0  0  0  0  0  0
    7.4204   -0.6682   20.9613 C   0  0  0  0  0  0  0  0  0  0  0  0
    7.7817    0.2507   22.1423 C   0  0  0  0  0  0  0  0  0  0  0  0
    8.6236    1.4256   21.7614 N   0  0  0  0  0  4  0  0  0  0  0  0
    9.9767    1.1059   21.1568 C   0  0  0  0  0  0  0  0  0  0  0  0
   10.8425    2.3374   21.4222 C   0  0  0  0  0  0  0  0  0  0  0  0
   10.1277    3.1386   22.5333 C   0  0  0  0  0  0  0  0  0  0  0  0
    8.8818    2.3422   22.9202 C   0  0  0  0  0  0  0  0  0  0  0  0
    9.0629    1.7346   23.8128 H   0  0  0  0  0  0  0  0  0  0  0  0
    8.0003    2.9634   23.1163 H   0  0  0  0  0  0  0  0  0  0  0  0
    9.8414    4.1376   22.2078 H   0  0  0  0  0  0  0  0  0  0  0  0
   10.7767    3.2853   23.3990 H   0  0  0  0  0  0  0  0  0  0  0  0
   10.9834    2.9206   20.5084 H   0  0  0  0  0  0  0  0  0  0  0  0
   11.8391    2.0257   21.7439 H   0  0  0  0  0  0  0  0  0  0  0  0
   10.3987    0.2269   21.6546 H   0  0  0  0  0  0  0  0  0  0  0  0
    9.8584    0.8804   20.0941 H   0  0  0  0  0  0  0  0  0  0  0  0
    8.0811    1.9687   21.0420 H   0  0  0  0  0  0  0  0  0  0  0  0
    8.3180   -0.3433   22.8951 H   0  0  0  0  0  0  0  0  0  0  0  0
    6.8444    0.5894   22.6049 H   0  0  0  0  0  0  0  0  0  0  0  0
    6.5742   -0.0023   19.9027 C   0  0  0  0  0  0  0  0  0  0  0  0
    5.3531    0.6575   20.1225 C   0  0  0  0  0  0  0  0  0  0  0  0
    4.7505    1.3201   19.0482 C   0  0  0  0  0  0  0  0  0  0  0  0
    5.3776    1.2955   17.7993 C   0  0  0  0  0  0  0  0  0  0  0  0
    6.5183    0.6338   17.5618 N   0  0  0  0  0  0  0  0  0  0  0  0
    7.0857    0.0111   18.5991 C   0  0  0  0  0  0  0  0  0  0  0  0
    8.0222   -0.5124   18.3941 H   0  0  0  0  0  0  0  0  0  0  0  0
    4.9629    1.8595   16.9633 H   0  0  0  0  0  0  0  0  0  0  0  0
    3.8314    1.8812   19.1715 H   0  0  0  0  0  0  0  0  0  0  0  0
    4.8759    0.6760   21.1074 H   0  0  0  0  0  0  0  0  0  0  0  0
    8.3645   -0.9924   20.5090 H   0  0  0  0  0  0  0  0  0  0  0  0
    6.2861   -2.3153   20.5092 H   0  0  0  0  0  0  0  0  0  0  0  0
    5.8067   -1.4912   21.8850 H   0  0  0  0  0  0  0  0  0  0  0  0
    7.2167   -2.5327   23.7756 C   0  0  0  0  0  0  0  0  0  0  0  0
    8.1774   -2.4167   24.2773 H   0  0  0  0  0  0  0  0  0  0  0  0
    6.6138   -1.6448   23.9858 H   0  0  0  0  0  0  0  0  0  0  0  0
    8.3577   -3.0037   21.9460 H   0  0  0  0  0  0  0  0  0  0  0  0
    7.0344   -5.0494   22.1671 H   0  0  0  0  0  0  0  0  0  0  0  0
    5.5651   -4.1039   21.9566 H   0  0  0  0  0  0  0  0  0  0  0  0
    5.4935   -3.7788   24.4192 H   0  0  0  0  0  0  0  0  0  0  0  0
    8.5747   -5.2488   24.6371 C   0  0  0  0  0  0  0  0  0  0  0  0
    9.2076   -6.1359   25.5064 C   0  0  0  0  0  0  0  0  0  0  0  0
    8.6247   -6.6511   26.5951 N   0  0  0  0  0  0  0  0  0  0  0  0
   10.2310   -6.4523   25.3410 H   0  0  0  0  0  0  0  0  0  0  0  0
    9.1387   -4.8314   23.8116 H   0  0  0  0  0  0  0  0  0  0  0  0
    5.5856   -5.2555   26.2462 H   0  0  0  0  0  0  0  0  0  0  0  0
  1  2  1  0
  2  3  2  0
  3  4  1  0
  4  5  1  0
  5  6  1  0
  6  7  1  0
  7  8  1  0
  8  9  1  0
  9 10  1  0
 10 11  1  0
 11 12  1  0
 12 13  1  0
 13 14  1  0
 14 15  1  0
 15 16  1  0
 15 17  1  0
 14 18  1  0
 14 19  1  0
 13 20  1  0
 13 21  1  0
 12 22  1  0
 12 23  1  0
 11 24  1  0
 10 25  1  0
 10 26  1  0
  9 27  1  0
 27 28  2  0
 28 29  1  0
 29 30  2  0
 30 31  1  0
 31 32  2  0
 32 33  1  0
 30 34  1  0
 29 35  1  0
 28 36  1  0
  9 37  1  0
  8 38  1  0
  8 39  1  0
  7 40  1  0
 40 41  1  0
 40 42  1  0
  7 43  1  0
  6 44  1  0
  6 45  1  0
  5 46  1  0
  4 47  2  0
 47 48  1  0
 48 49  2  0
 48 50  1  0
 47 51  1  0
  3 52  1  0
 49  2  1  0
 40  5  1  0
 15 11  1  0
 32 27  1  0
M  CHG  2   8   1  11   1
M  END
>  <plip>  (1) 
-0.25

>  <filename>  (1) 
[H][c]1[n][c]([H])[c]([C]([H])([C]([H])([H])[N+]2([H])[C]([H])([H])[C]([H])([H])[C]([H])([H])[C]2([H])[H])[N+]([H])([H])[C]2([H])[C]([H])([H])[C]([H])([c]3[c]([H])[c]([H])[n][c]([Cl])[c]3[H])[C]2([H])[H])[c]([H])[c]1[H]

$$$$
