
     RDKit          3D

 23 24  0  0  0  0  0  0  0  0999 V2000
    4.1341   -4.4528   23.0168 H   0  0  0  0  0  0  0  0  0  0  0  0
    4.3268   -3.8719   22.2602 O   0  0  0  0  0  0  0  0  0  0  0  0
    5.5889   -3.3549   22.5235 N   0  0  0  0  0  0  0  0  0  0  0  0
    5.9222   -2.4293   21.7030 C   0  0  0  0  0  0  0  0  0  0  0  0
    5.2606   -2.1446   20.8784 H   0  0  0  0  0  0  0  0  0  0  0  0
    7.1986   -1.7365   21.8433 C   0  0  0  0  0  0  0  0  0  0  0  0
    8.2612   -1.9400   22.7022 C   0  0  0  0  0  0  0  0  0  0  0  0
    8.2849   -2.6168   23.5502 H   0  0  0  0  0  0  0  0  0  0  0  0
    9.3017   -1.0723   22.2977 C   0  0  0  0  0  0  0  0  0  0  0  0
   10.2922   -1.0103   22.7282 H   0  0  0  0  0  0  0  0  0  0  0  0
    8.8466   -0.3438   21.2297 C   0  0  0  0  0  0  0  0  0  0  0  0
    9.3344    0.4114   20.6253 H   0  0  0  0  0  0  0  0  0  0  0  0
    7.5498   -0.7137   20.9674 N   0  0  0  0  0  0  0  0  0  0  0  0
    6.7453   -0.0852   19.9712 C   0  0  0  0  0  0  0  0  0  0  0  0
    7.2352   -0.0474   18.6577 C   0  0  0  0  0  0  0  0  0  0  0  0
    8.1557   -0.5779   18.4364 H   0  0  0  0  0  0  0  0  0  0  0  0
    6.6395    0.5856   17.6447 N   0  0  0  0  0  0  0  0  0  0  0  0
    5.4887    1.2267   17.9043 C   0  0  0  0  0  0  0  0  0  0  0  0
    5.0347    1.7627   17.0707 H   0  0  0  0  0  0  0  0  0  0  0  0
    4.9010    1.2341   19.1740 C   0  0  0  0  0  0  0  0  0  0  0  0
    3.9655    1.7577   19.3224 H   0  0  0  0  0  0  0  0  0  0  0  0
    5.5290    0.5633   20.2326 C   0  0  0  0  0  0  0  0  0  0  0  0
    5.0874    0.5301   21.2293 H   0  0  0  0  0  0  0  0  0  0  0  0
  1  2  1  0
  2  3  1  0
  3  4  2  3
  4  5  1  0
  4  6  1  0
  6  7  2  0
  7  8  1  0
  7  9  1  0
  9 10  1  0
  9 11  2  0
 11 12  1  0
 11 13  1  0
 13 14  1  0
 14 15  2  0
 15 16  1  0
 15 17  1  0
 17 18  2  0
 18 19  1  0
 18 20  1  0
 20 21  1  0
 20 22  2  0
 22 23  1  0
 13  6  1  0
 22 14  1  0
M  END
>  <plip>  (1) 
-0.07142857142857142

>  <filename>  (1) 
[H][O][N]=[C]([H])[c]1[c]([H])[c]([H])[c]([H])[n]1-[c]1[c]([H])[n][c]([H])[c]([H])[c]1[H]

$$$$
