
     RDKit          3D

 40 43  0  0  0  0  0  0  0  0999 V2000
    9.6442    0.7129   20.3412 O   0  0  0  0  0  0  0  0  0  0  0  0
    9.2118    1.0740   21.4292 C   0  0  0  0  0  0  0  0  0  0  0  0
    8.0979    0.4967   21.9793 N   0  0  0  0  0  0  0  0  0  0  0  0
    7.3418   -0.4792   21.2040 C   0  0  0  0  0  0  0  0  0  0  0  0
    6.6010    0.1632   20.0364 C   0  0  0  0  0  0  0  0  0  0  0  0
    5.3222    0.7233   20.1767 C   0  0  0  0  0  0  0  0  0  0  0  0
    4.7266    1.3404   19.0761 C   0  0  0  0  0  0  0  0  0  0  0  0
    5.4162    1.3572   17.8595 C   0  0  0  0  0  0  0  0  0  0  0  0
    6.6362    0.8273   17.6971 N   0  0  0  0  0  0  0  0  0  0  0  0
    7.2093    0.2670   18.7712 C   0  0  0  0  0  0  0  0  0  0  0  0
    8.2193   -0.1102   18.6209 H   0  0  0  0  0  0  0  0  0  0  0  0
    4.9758    1.8159   16.9775 H   0  0  0  0  0  0  0  0  0  0  0  0
    3.7499    1.8049   19.1473 H   0  0  0  0  0  0  0  0  0  0  0  0
    4.8055    0.6757   21.1378 H   0  0  0  0  0  0  0  0  0  0  0  0
    6.4705   -1.4305   22.0548 C   0  0  0  0  0  0  0  0  0  0  0  0
    7.3502   -2.6435   21.6603 C   0  0  0  0  0  0  0  0  0  0  0  0
    8.2279   -1.6937   20.8211 C   0  0  0  0  0  0  0  0  0  0  0  0
    9.2616   -1.5995   21.1516 H   0  0  0  0  0  0  0  0  0  0  0  0
    8.2193   -1.8278   19.7490 H   0  0  0  0  0  0  0  0  0  0  0  0
    6.8336   -3.4126   21.0764 H   0  0  0  0  0  0  0  0  0  0  0  0
    7.8666   -3.1347   22.4918 H   0  0  0  0  0  0  0  0  0  0  0  0
    5.4650   -1.5292   21.6469 H   0  0  0  0  0  0  0  0  0  0  0  0
    6.4300   -1.1785   23.1184 H   0  0  0  0  0  0  0  0  0  0  0  0
    7.5920    1.0329   22.6607 H   0  0  0  0  0  0  0  0  0  0  0  0
    9.9115    2.1006   22.2366 C   0  0  0  0  0  0  0  0  0  0  0  0
    9.5030    2.7804   23.3362 C   0  0  0  0  0  0  0  0  0  0  0  0
   10.5155    3.7294   23.7415 C   0  0  0  0  0  0  0  0  0  0  0  0
   10.5117    4.6820   24.7755 C   0  0  0  0  0  0  0  0  0  0  0  0
   11.5983    5.5490   24.8918 C   0  0  0  0  0  0  0  0  0  0  0  0
   12.6480    5.5035   23.9525 C   0  0  0  0  0  0  0  0  0  0  0  0
   12.6705    4.5212   22.9511 C   0  0  0  0  0  0  0  0  0  0  0  0
   11.6091    3.6277   22.8493 C   0  0  0  0  0  0  0  0  0  0  0  0
   11.3005    2.5520   21.8189 C   0  0  0  0  0  0  0  0  0  0  0  0
   12.0230    1.7194   21.7835 H   0  0  0  0  0  0  0  0  0  0  0  0
   11.2862    2.9344   20.7868 H   0  0  0  0  0  0  0  0  0  0  0  0
   13.5192    4.4606   22.2749 H   0  0  0  0  0  0  0  0  0  0  0  0
   13.4557    6.2287   23.9747 H   0  0  0  0  0  0  0  0  0  0  0  0
   11.6274    6.2819   25.6953 H   0  0  0  0  0  0  0  0  0  0  0  0
    9.6859    4.6907   25.4852 H   0  0  0  0  0  0  0  0  0  0  0  0
    8.5490    2.7026   23.8604 H   0  0  0  0  0  0  0  0  0  0  0  0
  1  2  2  0
  2  3  1  0
  3  4  1  0
  4  5  1  0
  5  6  2  0
  6  7  1  0
  7  8  2  0
  8  9  1  0
  9 10  2  0
 10 11  1  0
  8 12  1  0
  7 13  1  0
  6 14  1  0
  4 15  1  0
 15 16  1  0
 16 17  1  0
 17 18  1  0
 17 19  1  0
 16 20  1  0
 16 21  1  0
 15 22  1  0
 15 23  1  0
  3 24  1  0
  2 25  1  0
 25 26  2  0
 26 27  1  0
 27 28  2  0
 28 29  1  0
 29 30  2  0
 30 31  1  0
 31 32  2  0
 32 33  1  0
 33 34  1  0
 33 35  1  0
 31 36  1  0
 30 37  1  0
 29 38  1  0
 28 39  1  0
 26 40  1  0
 17  4  1  0
 33 25  1  0
 10  5  1  0
 32 27  1  0
M  END
>  <plip>  (1) 
-0.10714285714285714

>  <filename>  (1) 
[H][C]1=[C]([C](=[O])[N]([H])[C]2([c]3[c]([H])[n][c]([H])[c]([H])[c]3[H])[C]([H])([H])[C]([H])([H])[C]2([H])[H])[C]([H])([H])[c]2[c]([H])[c]([H])[c]([H])[c]([H])[c]21

$$$$
