
     RDKit          3D

 44 46  0  0  0  0  0  0  0  0999 V2000
    4.9859    1.7529   16.9498 H   0  0  0  0  0  0  0  0  0  0  0  0
    5.4134    1.3128   17.8466 C   0  0  0  0  0  0  0  0  0  0  0  0
    6.5948    0.7048   17.6828 N   0  0  0  0  0  0  0  0  0  0  0  0
    7.1449    0.1468   18.7715 C   0  0  0  0  0  0  0  0  0  0  0  0
    8.0828   -0.3836   18.6071 H   0  0  0  0  0  0  0  0  0  0  0  0
    6.5944    0.1768   20.0709 C   0  0  0  0  0  0  0  0  0  0  0  0
    7.3091   -0.5344   21.2356 C   0  0  1  0  0  0  0  0  0  0  0  0
    6.7762   -0.3129   22.1722 H   0  0  0  0  0  0  0  0  0  0  0  0
    7.2111   -2.0581   20.9972 C   0  0  0  0  0  0  0  0  0  0  0  0
    6.1650   -2.3765   21.0166 H   0  0  0  0  0  0  0  0  0  0  0  0
    7.5541   -2.2077   19.9809 H   0  0  0  0  0  0  0  0  0  0  0  0
    8.0256   -2.9305   21.9607 C   0  0  0  0  0  0  0  0  0  0  0  0
    7.5510   -2.9403   22.9505 H   0  0  0  0  0  0  0  0  0  0  0  0
    8.0197   -3.9698   21.6095 H   0  0  0  0  0  0  0  0  0  0  0  0
    9.4160   -2.5225   22.1328 N   0  0  0  0  0  0  0  0  0  0  0  0
    9.9493   -2.7545   21.2982 H   0  0  0  0  0  0  0  0  0  0  0  0
    9.5518   -1.0844   22.4162 C   0  0  0  0  0  0  0  0  0  0  0  0
   10.6194   -0.8462   22.4099 H   0  0  0  0  0  0  0  0  0  0  0  0
    9.2012   -0.8825   23.4375 H   0  0  0  0  0  0  0  0  0  0  0  0
    8.8160   -0.1105   21.4292 C   0  0  2  0  0  0  0  0  0  0  0  0
    9.3294   -0.2367   20.4635 H   0  0  0  0  0  0  0  0  0  0  0  0
    8.9678    1.3208   21.7449 N   0  0  0  0  0  0  0  0  0  0  0  0
   10.2958    1.8651   21.5189 C   0  0  0  0  0  0  0  0  0  0  0  0
   11.0710    1.5418   22.2398 H   0  0  0  0  0  0  0  0  0  0  0  0
   10.6493    1.6114   20.5194 H   0  0  0  0  0  0  0  0  0  0  0  0
   10.2627    2.9553   21.5561 H   0  0  0  0  0  0  0  0  0  0  0  0
    8.4034    1.8001   23.0039 C   0  0  0  0  0  0  0  0  0  0  0  0
    9.0894    1.6294   23.8564 H   0  0  0  0  0  0  0  0  0  0  0  0
    7.5040    1.2213   23.2312 H   0  0  0  0  0  0  0  0  0  0  0  0
    8.0185    3.2654   22.9274 C   0  0  0  0  0  0  0  0  0  0  0  0
    8.8288    4.2601   23.4922 C   0  0  0  0  0  0  0  0  0  0  0  0
    9.7737    3.9802   23.9602 H   0  0  0  0  0  0  0  0  0  0  0  0
    8.4548    5.6055   23.4261 C   0  0  0  0  0  0  0  0  0  0  0  0
    9.0921    6.3634   23.8683 H   0  0  0  0  0  0  0  0  0  0  0  0
    7.2691    5.9714   22.7794 C   0  0  0  0  0  0  0  0  0  0  0  0
    6.9655    7.0135   22.7413 H   0  0  0  0  0  0  0  0  0  0  0  0
    6.4813    4.9875   22.1696 C   0  0  0  0  0  0  0  0  0  0  0  0
    5.5739    5.2664   21.6406 H   0  0  0  0  0  0  0  0  0  0  0  0
    6.8596    3.6448   22.2330 C   0  0  0  0  0  0  0  0  0  0  0  0
    6.2633    2.8889   21.7190 H   0  0  0  0  0  0  0  0  0  0  0  0
    5.3315    0.7860   20.1957 C   0  0  0  0  0  0  0  0  0  0  0  0
    4.8069    0.8161   21.1533 H   0  0  0  0  0  0  0  0  0  0  0  0
    4.7361    1.3690   19.0681 C   0  0  0  0  0  0  0  0  0  0  0  0
    3.7747    1.8728   19.1148 H   0  0  0  0  0  0  0  0  0  0  0  0
  1  2  1  0
  2  3  2  0
  3  4  1  0
  4  5  1  0
  4  6  2  0
  6  7  1  0
  7  8  1  1
  7  9  1  0
  9 10  1  0
  9 11  1  0
  9 12  1  0
 12 13  1  0
 12 14  1  0
 12 15  1  0
 15 16  1  0
 15 17  1  0
 17 18  1  0
 17 19  1  0
 17 20  1  0
 20 21  1  6
 20 22  1  0
 22 23  1  0
 23 24  1  0
 23 25  1  0
 23 26  1  0
 22 27  1  0
 27 28  1  0
 27 29  1  0
 27 30  1  0
 30 31  2  0
 31 32  1  0
 31 33  1  0
 33 34  1  0
 33 35  2  0
 35 36  1  0
 35 37  1  0
 37 38  1  0
 37 39  2  0
 39 40  1  0
  6 41  1  0
 41 42  1  0
 41 43  2  0
 43 44  1  0
 43  2  1  0
 20  7  1  0
 39 30  1  0
M  END
>  <plip>  (1) 
-0.06896551724137931

>  <filename>  (1) 
[H][c]1[n][c]([H])[c]([C@@]2([H])[C]([H])([H])[C]([H])([H])[N]([H])[C]([H])([H])[C@]2([H])[N]([C]([H])([H])[H])[C]([H])([H])[c]2[c]([H])[c]([H])[c]([H])[c]([H])[c]2[H])[c]([H])[c]1[H]

$$$$
