
     RDKit          3D

 42 44  0  0  0  0  0  0  0  0999 V2000
    8.6075   -3.5086   22.3602 C   0  0  0  0  0  0  0  0  0  0  0  0
    8.1516   -2.1285   22.0354 C   0  0  0  0  0  0  0  0  0  0  0  0
    7.7233   -1.8234   20.8296 N   0  0  0  0  0  0  0  0  0  0  0  0
    7.3293   -0.5366   20.9691 N   0  0  0  0  0  0  0  0  0  0  0  0
    6.6265    0.0977   19.9150 C   0  0  0  0  0  0  0  0  0  0  0  0
    5.4183    0.7727   20.1220 C   0  0  0  0  0  0  0  0  0  0  0  0
    4.8180    1.3864   19.0197 C   0  0  0  0  0  0  0  0  0  0  0  0
    5.4490    1.3067   17.7745 C   0  0  0  0  0  0  0  0  0  0  0  0
    6.5933    0.6289   17.5675 N   0  0  0  0  0  0  0  0  0  0  0  0
    7.1531    0.0183   18.6164 C   0  0  0  0  0  0  0  0  0  0  0  0
    8.0579   -0.5611   18.4348 H   0  0  0  0  0  0  0  0  0  0  0  0
    5.0102    1.7798   16.9014 H   0  0  0  0  0  0  0  0  0  0  0  0
    3.8746    1.9142   19.1161 H   0  0  0  0  0  0  0  0  0  0  0  0
    4.9607    0.8037   21.1115 H   0  0  0  0  0  0  0  0  0  0  0  0
    7.6161   -0.1070   22.2313 C   0  0  0  0  0  0  0  0  0  0  0  0
    7.5973    1.3526   22.5714 C   0  0  0  0  0  0  0  0  0  0  0  0
    8.4166    2.1830   21.5498 C   0  0  0  0  0  0  0  0  0  0  0  0
    9.8373    1.6262   21.3208 C   0  0  0  0  0  0  0  0  0  0  0  0
   10.6493    1.5101   22.6143 C   0  0  0  0  0  0  0  0  0  0  0  0
   10.6806    2.8271   23.3915 C   0  0  0  0  0  0  0  0  0  0  0  0
   11.8520    2.7027   24.3573 C   0  0  0  0  0  0  0  0  0  0  0  0
   12.8860    1.8020   23.6389 C   0  0  0  0  0  0  0  0  0  0  0  0
   12.1423    1.1742   22.4289 C   0  0  0  0  0  0  0  0  0  0  0  0
   12.5044    1.6254   21.4966 H   0  0  0  0  0  0  0  0  0  0  0  0
   12.3067    0.0929   22.3350 H   0  0  0  0  0  0  0  0  0  0  0  0
   13.2706    1.0220   24.3063 H   0  0  0  0  0  0  0  0  0  0  0  0
   13.7489    2.3852   23.2998 H   0  0  0  0  0  0  0  0  0  0  0  0
   11.5434    2.2215   25.2944 H   0  0  0  0  0  0  0  0  0  0  0  0
   12.2357    3.7069   24.5732 H   0  0  0  0  0  0  0  0  0  0  0  0
    9.7257    3.0575   23.8835 H   0  0  0  0  0  0  0  0  0  0  0  0
   10.8925    3.6456   22.6842 H   0  0  0  0  0  0  0  0  0  0  0  0
   10.1949    0.7307   23.2502 H   0  0  0  0  0  0  0  0  0  0  0  0
    9.7847    0.6428   20.8322 H   0  0  0  0  0  0  0  0  0  0  0  0
   10.3707    2.2979   20.6354 H   0  0  0  0  0  0  0  0  0  0  0  0
    8.4795    3.2205   21.9035 H   0  0  0  0  0  0  0  0  0  0  0  0
    7.8794    2.2239   20.5952 H   0  0  0  0  0  0  0  0  0  0  0  0
    8.0073    1.4547   23.5827 H   0  0  0  0  0  0  0  0  0  0  0  0
    6.5680    1.7219   22.6058 H   0  0  0  0  0  0  0  0  0  0  0  0
    8.1142   -1.1066   22.9379 N   0  0  0  0  0  0  0  0  0  0  0  0
    8.3973   -4.1567   21.5089 H   0  0  0  0  0  0  0  0  0  0  0  0
    8.0825   -3.8861   23.2394 H   0  0  0  0  0  0  0  0  0  0  0  0
    9.6809   -3.5261   22.5569 H   0  0  0  0  0  0  0  0  0  0  0  0
  1  2  1  0
  2  3  2  0
  3  4  1  0
  4  5  1  0
  5  6  2  0
  6  7  1  0
  7  8  2  0
  8  9  1  0
  9 10  2  0
 10 11  1  0
  8 12  1  0
  7 13  1  0
  6 14  1  0
  4 15  1  0
 15 16  1  0
 16 17  1  0
 17 18  1  0
 18 19  1  0
 19 20  1  0
 20 21  1  0
 21 22  1  0
 22 23  1  0
 23 24  1  0
 23 25  1  0
 22 26  1  0
 22 27  1  0
 21 28  1  0
 21 29  1  0
 20 30  1  0
 20 31  1  0
 19 32  1  0
 18 33  1  0
 18 34  1  0
 17 35  1  0
 17 36  1  0
 16 37  1  0
 16 38  1  0
 15 39  2  0
  1 40  1  0
  1 41  1  0
  1 42  1  0
 39  2  1  0
 10  5  1  0
 23 19  1  0
M  END
>  <plip>  (1) 
-0.034482758620689655

>  <filename>  (1) 
[H][c]1[n][c]([H])[c](-[n]2[n][c]([C]([H])([H])[H])[n][c]2[C]([H])([H])[C]([H])([H])[C]([H])([H])[C]2([H])[C]([H])([H])[C]([H])([H])[C]([H])([H])[C]2([H])[H])[c]([H])[c]1[H]

$$$$
