
     RDKit          3D

 36 38  0  0  0  0  0  0  0  0999 V2000
    4.9413    1.7919   16.9979 H   0  0  0  0  0  0  0  0  0  0  0  0
    5.3990    1.2892   17.8464 C   0  0  0  0  0  0  0  0  0  0  0  0
    6.5607    0.6672   17.5959 N   0  0  0  0  0  0  0  0  0  0  0  0
    7.1638    0.0527   18.6141 C   0  0  0  0  0  0  0  0  0  0  0  0
    8.1130   -0.4209   18.3666 H   0  0  0  0  0  0  0  0  0  0  0  0
    6.6518    0.0024   19.9217 C   0  0  0  0  0  0  0  0  0  0  0  0
    7.3872   -0.7066   20.9759 C   0  0  0  0  0  0  0  0  0  0  0  0
    6.9030   -0.7432   22.2769 N   0  0  0  0  0  0  0  0  0  0  0  0
    7.7841   -1.4402   22.9219 C   0  0  0  0  0  0  0  0  0  0  0  0
    7.7746   -1.7618   24.2362 N   0  0  0  0  0  0  0  0  0  0  0  0
    6.6573   -1.3243   25.0807 C   0  0  0  0  0  0  0  0  0  0  0  0
    5.8121   -1.0502   24.4418 H   0  0  0  0  0  0  0  0  0  0  0  0
    6.9496   -0.4236   25.6465 H   0  0  0  0  0  0  0  0  0  0  0  0
    6.2353   -2.4329   26.0702 C   0  0  0  0  0  0  0  0  0  0  0  0
    5.6876   -3.2088   25.5116 H   0  0  0  0  0  0  0  0  0  0  0  0
    5.5335   -1.9806   26.7826 H   0  0  0  0  0  0  0  0  0  0  0  0
    7.3926   -3.0168   26.7828 N   0  0  0  0  0  0  0  0  0  0  0  0
    7.2782   -4.0814   27.6537 C   0  0  0  0  0  0  0  0  0  0  0  0
    8.2499   -4.7115   28.0401 O   0  0  0  0  0  0  0  0  0  0  0  0
    5.8924   -4.4680   28.1195 C   0  0  0  0  0  0  0  0  0  0  0  0
    5.3117   -4.9468   27.3260 H   0  0  0  0  0  0  0  0  0  0  0  0
    6.0397   -5.1804   28.9275 H   0  0  0  0  0  0  0  0  0  0  0  0
    5.3011   -3.6249   28.4792 H   0  0  0  0  0  0  0  0  0  0  0  0
    8.7385   -2.5468   26.3905 C   0  0  0  0  0  0  0  0  0  0  0  0
    8.9210   -1.5467   26.8222 H   0  0  0  0  0  0  0  0  0  0  0  0
    9.4651   -3.2441   26.8147 H   0  0  0  0  0  0  0  0  0  0  0  0
    8.8970   -2.4895   24.8608 C   0  0  0  0  0  0  0  0  0  0  0  0
    9.8502   -1.9946   24.6187 H   0  0  0  0  0  0  0  0  0  0  0  0
    8.9510   -3.5124   24.4588 H   0  0  0  0  0  0  0  0  0  0  0  0
    8.8160   -1.8842   22.1774 O   0  0  0  0  0  0  0  0  0  0  0  0
    8.5461   -1.3989   20.9192 C   0  0  0  0  0  0  0  0  0  0  0  0
    9.2668   -1.6451   20.1582 H   0  0  0  0  0  0  0  0  0  0  0  0
    5.4283    0.6554   20.1668 C   0  0  0  0  0  0  0  0  0  0  0  0
    4.9989    0.6453   21.1705 H   0  0  0  0  0  0  0  0  0  0  0  0
    4.7980    1.3080   19.1102 C   0  0  0  0  0  0  0  0  0  0  0  0
    3.8639    1.8447   19.2435 H   0  0  0  0  0  0  0  0  0  0  0  0
  1  2  1  0
  2  3  2  0
  3  4  1  0
  4  5  1  0
  4  6  2  0
  6  7  1  0
  7  8  1  0
  8  9  2  0
  9 10  1  0
 10 11  1  0
 11 12  1  0
 11 13  1  0
 11 14  1  0
 14 15  1  0
 14 16  1  0
 14 17  1  0
 17 18  1  0
 18 19  2  0
 18 20  1  0
 20 21  1  0
 20 22  1  0
 20 23  1  0
 17 24  1  0
 24 25  1  0
 24 26  1  0
 24 27  1  0
 27 28  1  0
 27 29  1  0
  9 30  1  0
 30 31  1  0
 31 32  1  0
  6 33  1  0
 33 34  1  0
 33 35  2  0
 35 36  1  0
 35  2  1  0
 31  7  2  0
 27 10  1  0
M  END
>  <plip>  (1) 
-0.0

>  <filename>  (1) 
[H][c]1[n][c]([H])[c](-[c]2[n][c]([N]3[C]([H])([H])[C]([H])([H])[N]([C](=[O])[C]([H])([H])[H])[C]([H])([H])[C]3([H])[H])[o][c]2[H])[c]([H])[c]1[H]

$$$$
