
     RDKit          3D

 32 33  0  0  0  0  0  0  0  0999 V2000
    4.9300    1.7963   16.9827 H   0  0  0  0  0  0  0  0  0  0  0  0
    5.3930    1.2933   17.8303 C   0  0  0  0  0  0  0  0  0  0  0  0
    6.5540    0.6637   17.5893 N   0  0  0  0  0  0  0  0  0  0  0  0
    7.1689    0.0555   18.6104 C   0  0  0  0  0  0  0  0  0  0  0  0
    8.1186   -0.4200   18.3677 H   0  0  0  0  0  0  0  0  0  0  0  0
    6.6658    0.0497   19.9298 C   0  0  0  0  0  0  0  0  0  0  0  0
    7.3688   -0.5957   20.9939 N   0  0  0  0  0  0  0  0  0  0  0  0
    7.6296   -0.2208   22.3051 C   0  0  0  0  0  0  0  0  0  0  0  0
    7.2999    1.0112   22.7404 N   0  0  0  0  0  0  0  0  0  0  0  0
    7.1266    1.6776   22.0091 H   0  0  0  0  0  0  0  0  0  0  0  0
    7.3234    1.4000   24.1419 C   0  0  0  0  0  0  0  0  0  0  0  0
    6.3692    0.4837   24.9240 C   0  0  0  0  0  0  0  0  0  0  0  0
    6.2940    0.8129   25.9676 H   0  0  0  0  0  0  0  0  0  0  0  0
    5.3734    0.5123   24.4640 H   0  0  0  0  0  0  0  0  0  0  0  0
    6.7277   -0.5512   24.8899 H   0  0  0  0  0  0  0  0  0  0  0  0
    8.7524    1.3005   24.6974 C   0  0  0  0  0  0  0  0  0  0  0  0
    9.0900    0.2599   24.6887 H   0  0  0  0  0  0  0  0  0  0  0  0
    8.7833    1.6924   25.7218 H   0  0  0  0  0  0  0  0  0  0  0  0
    9.4354    1.8871   24.0697 H   0  0  0  0  0  0  0  0  0  0  0  0
    6.8350    2.8449   24.2108 C   0  0  0  0  0  0  0  0  0  0  0  0
    5.8214    2.9337   23.7980 H   0  0  0  0  0  0  0  0  0  0  0  0
    6.8116    3.1706   25.2586 H   0  0  0  0  0  0  0  0  0  0  0  0
    7.5079    3.5138   23.6575 H   0  0  0  0  0  0  0  0  0  0  0  0
    8.2260   -1.1743   22.9803 N   0  0  0  0  0  0  0  0  0  0  0  0
    8.3416   -2.2263   22.1037 C   0  0  0  0  0  0  0  0  0  0  0  0
    8.8089   -3.1523   22.4025 H   0  0  0  0  0  0  0  0  0  0  0  0
    7.7996   -1.9019   20.9024 C   0  0  0  0  0  0  0  0  0  0  0  0
    7.4973   -2.4595   20.0476 H   0  0  0  0  0  0  0  0  0  0  0  0
    5.4321    0.6691   20.1574 C   0  0  0  0  0  0  0  0  0  0  0  0
    5.0063    0.6320   21.1580 H   0  0  0  0  0  0  0  0  0  0  0  0
    4.7947    1.3127   19.0933 C   0  0  0  0  0  0  0  0  0  0  0  0
    3.8648    1.8467   19.2392 H   0  0  0  0  0  0  0  0  0  0  0  0
  1  2  1  0
  2  3  2  0
  3  4  1  0
  4  5  1  0
  4  6  2  0
  6  7  1  0
  7  8  1  0
  8  9  1  0
  9 10  1  0
  9 11  1  0
 11 12  1  0
 12 13  1  0
 12 14  1  0
 12 15  1  0
 11 16  1  0
 16 17  1  0
 16 18  1  0
 16 19  1  0
 11 20  1  0
 20 21  1  0
 20 22  1  0
 20 23  1  0
  8 24  2  0
 24 25  1  0
 25 26  1  0
 25 27  2  0
 27 28  1  0
  6 29  1  0
 29 30  1  0
 29 31  2  0
 31 32  1  0
 31  2  1  0
 27  7  1  0
M  END
>  <plip>  (1) 
-0.0

>  <filename>  (1) 
[H][c]1[n][c]([H])[c](-[n]2[c]([N]([H])[C]([C]([H])([H])[H])([C]([H])([H])[H])[C]([H])([H])[H])[n][c]([H])[c]2[H])[c]([H])[c]1[H]

$$$$
