
     RDKit          3D

 44 46  0  0  0  0  0  0  0  0999 V2000
    8.3425   -6.1035   26.5247 C   0  0  0  0  0  0  0  0  0  0  0  0
    7.2680   -5.5363   25.6398 C   0  0  0  0  0  0  0  0  0  0  0  0
    6.0857   -4.9882   26.0952 C   0  0  0  0  0  0  0  0  0  0  0  0
    5.1402   -4.3592   25.2188 C   0  0  0  0  0  0  0  0  0  0  0  0
    5.4177   -4.2846   23.8870 C   0  0  0  0  0  0  0  0  0  0  0  0
    6.5661   -4.8797   23.3995 N   0  0  0  0  0  0  0  0  0  0  0  0
    7.0135   -5.0368   22.0944 C   0  0  0  0  0  0  0  0  0  0  0  0
    6.2946   -4.4057   20.9410 C   0  0  0  0  0  0  0  0  0  0  0  0
    6.2264   -2.8709   21.0351 C   0  0  0  0  0  0  0  0  0  0  0  0
    5.2278   -2.3096   21.4482 O   0  0  0  0  0  0  0  0  0  0  0  0
    7.3476   -2.2120   20.6405 N   0  0  0  0  0  0  0  0  0  0  0  0
    7.5221   -0.7789   20.8751 C   0  0  2  0  0  0  0  0  0  0  0  0
    7.3107   -0.3462   22.3428 C   0  0  0  0  0  0  0  0  0  0  0  0
    8.2406   -1.0287   23.3437 C   0  0  0  0  0  0  0  0  0  0  0  0
    8.1167   -2.4374   23.2315 O   0  0  0  0  0  0  0  0  0  0  0  0
    8.4192   -2.8631   24.0433 H   0  0  0  0  0  0  0  0  0  0  0  0
    7.9810   -0.6925   24.3626 H   0  0  0  0  0  0  0  0  0  0  0  0
    9.2805   -0.7080   23.1492 H   0  0  0  0  0  0  0  0  0  0  0  0
    6.2770   -0.5321   22.6422 H   0  0  0  0  0  0  0  0  0  0  0  0
    7.4818    0.7364   22.4140 H   0  0  0  0  0  0  0  0  0  0  0  0
    6.7017   -0.0104   19.8463 C   0  0  0  0  0  0  0  0  0  0  0  0
    5.4824    0.6366   20.0899 C   0  0  0  0  0  0  0  0  0  0  0  0
    4.8552    1.3197   19.0410 C   0  0  0  0  0  0  0  0  0  0  0  0
    5.4594    1.3171   17.7823 C   0  0  0  0  0  0  0  0  0  0  0  0
    6.5982    0.6599   17.5141 N   0  0  0  0  0  0  0  0  0  0  0  0
    7.1840    0.0114   18.5264 C   0  0  0  0  0  0  0  0  0  0  0  0
    8.0988   -0.5201   18.2571 H   0  0  0  0  0  0  0  0  0  0  0  0
    5.0199    1.8621   16.9483 H   0  0  0  0  0  0  0  0  0  0  0  0
    3.9264    1.8588   19.1907 H   0  0  0  0  0  0  0  0  0  0  0  0
    5.0194    0.5881   21.0781 H   0  0  0  0  0  0  0  0  0  0  0  0
    8.5837   -0.5874   20.6491 H   0  0  0  0  0  0  0  0  0  0  0  0
    8.1726   -2.7655   20.7802 H   0  0  0  0  0  0  0  0  0  0  0  0
    6.7571   -4.6788   19.9895 H   0  0  0  0  0  0  0  0  0  0  0  0
    5.2584   -4.7644   20.9156 H   0  0  0  0  0  0  0  0  0  0  0  0
    8.1492   -5.7926   22.2076 C   0  0  0  0  0  0  0  0  0  0  0  0
    8.4489   -6.0941   23.5036 N   0  0  0  0  0  0  0  0  0  0  0  0
    7.4888   -5.5308   24.2189 C   0  0  0  0  0  0  0  0  0  0  0  0
    8.7803   -6.1395   21.4050 H   0  0  0  0  0  0  0  0  0  0  0  0
    4.8306   -3.7662   23.1369 H   0  0  0  0  0  0  0  0  0  0  0  0
    4.2141   -3.9406   25.6104 H   0  0  0  0  0  0  0  0  0  0  0  0
    5.8710   -5.0321   27.1600 H   0  0  0  0  0  0  0  0  0  0  0  0
    7.9900   -6.2669   27.5493 H   0  0  0  0  0  0  0  0  0  0  0  0
    8.7226   -7.0499   26.1241 H   0  0  0  0  0  0  0  0  0  0  0  0
    9.2040   -5.4248   26.5614 H   0  0  0  0  0  0  0  0  0  0  0  0
  1  2  1  0
  2  3  2  0
  3  4  1  0
  4  5  2  0
  5  6  1  0
  6  7  1  0
  7  8  1  0
  8  9  1  0
  9 10  2  0
  9 11  1  0
 11 12  1  0
 12 13  1  0
 13 14  1  0
 14 15  1  0
 15 16  1  0
 14 17  1  0
 14 18  1  0
 13 19  1  0
 13 20  1  0
 12 21  1  0
 21 22  2  0
 22 23  1  0
 23 24  2  0
 24 25  1  0
 25 26  2  0
 26 27  1  0
 24 28  1  0
 23 29  1  0
 22 30  1  0
 12 31  1  6
 11 32  1  0
  8 33  1  0
  8 34  1  0
  7 35  2  0
 35 36  1  0
 36 37  2  0
 35 38  1  0
  5 39  1  0
  4 40  1  0
  3 41  1  0
  1 42  1  0
  1 43  1  0
  1 44  1  0
 37  2  1  0
 37  6  1  0
 26 21  1  0
M  END
>  <plip>  (1) 
-0.10344827586206896

>  <filename>  (1) 
[H][O][C]([H])([H])[C]([H])([H])[C@]([H])([c]1[c]([H])[n][c]([H])[c]([H])[c]1[H])[N]([H])[C](=[O])[C]([H])([H])[c]1[c]([H])[n][c]2[c]([C]([H])([H])[H])[c]([H])[c]([H])[c]([H])[n]12

$$$$
