
     RDKit          3D

 37 39  0  0  0  0  0  0  0  0999 V2000
   10.5939   -0.7274   24.2455 C   0  0  0  0  0  0  0  0  0  0  0  0
   11.0436   -0.9947   22.8147 C   0  0  0  0  0  0  0  0  0  0  0  0
   10.8987    0.2434   21.9007 C   0  0  0  0  0  0  0  0  0  0  0  0
   11.7279    1.4235   22.3603 C   0  0  0  0  0  0  0  0  0  0  0  0
   11.1520    2.6419   22.7654 C   0  0  0  0  0  0  0  0  0  0  0  0
   11.9524    3.7266   23.1470 C   0  0  0  0  0  0  0  0  0  0  0  0
   13.3340    3.5704   23.1531 C   0  0  0  0  0  0  0  0  0  0  0  0
   14.1125    4.5828   23.5764 F   0  0  0  0  0  0  0  0  0  0  0  0
   13.9364    2.3939   22.7282 C   0  0  0  0  0  0  0  0  0  0  0  0
   13.1268    1.3216   22.3563 C   0  0  0  0  0  0  0  0  0  0  0  0
   13.5957    0.3935   22.0362 H   0  0  0  0  0  0  0  0  0  0  0  0
   15.0109    2.3434   22.5854 H   0  0  0  0  0  0  0  0  0  0  0  0
   11.5229    4.6927   23.3944 H   0  0  0  0  0  0  0  0  0  0  0  0
   10.0693    2.7546   22.7719 H   0  0  0  0  0  0  0  0  0  0  0  0
    9.8420    0.5324   21.8506 H   0  0  0  0  0  0  0  0  0  0  0  0
   11.1859   -0.0532   20.8831 H   0  0  0  0  0  0  0  0  0  0  0  0
   10.1799   -2.4784   22.1671 S   0  0  0  0  0  0  0  0  0  0  0  0
    8.5819   -1.7933   21.8728 C   0  0  0  0  0  0  0  0  0  0  0  0
    7.6168   -1.7691   22.7717 N   0  0  0  0  0  0  0  0  0  0  0  0
    6.6157   -1.1367   22.0934 N   0  0  0  0  0  0  0  0  0  0  0  0
    7.0240   -0.8157   20.8512 C   0  0  0  0  0  0  0  0  0  0  0  0
    6.3237   -0.0556   19.8123 C   0  0  0  0  0  0  0  0  0  0  0  0
    5.1549    0.7024   19.9753 C   0  0  0  0  0  0  0  0  0  0  0  0
    4.6962    1.4411   18.8841 C   0  0  0  0  0  0  0  0  0  0  0  0
    5.4016    1.3865   17.6763 C   0  0  0  0  0  0  0  0  0  0  0  0
    6.5127    0.6553   17.5047 N   0  0  0  0  0  0  0  0  0  0  0  0
    6.9600   -0.0281   18.5581 C   0  0  0  0  0  0  0  0  0  0  0  0
    7.8845   -0.5821   18.4221 H   0  0  0  0  0  0  0  0  0  0  0  0
    5.0683    1.9583   16.8122 H   0  0  0  0  0  0  0  0  0  0  0  0
    3.8261    2.0845   18.9606 H   0  0  0  0  0  0  0  0  0  0  0  0
    4.6254    0.7519   20.9298 H   0  0  0  0  0  0  0  0  0  0  0  0
    8.2593   -1.2495   20.6812 N   0  0  0  0  0  0  0  0  0  0  0  0
    5.7415   -0.9235   22.5581 H   0  0  0  0  0  0  0  0  0  0  0  0
   12.0937   -1.3225   22.8032 H   0  0  0  0  0  0  0  0  0  0  0  0
    9.5436   -0.4266   24.2556 H   0  0  0  0  0  0  0  0  0  0  0  0
   10.6817   -1.6199   24.8693 H   0  0  0  0  0  0  0  0  0  0  0  0
   11.1882    0.0700   24.7003 H   0  0  0  0  0  0  0  0  0  0  0  0
  1  2  1  0
  2  3  1  0
  3  4  1  0
  4  5  2  0
  5  6  1  0
  6  7  2  0
  7  8  1  0
  7  9  1  0
  9 10  2  0
 10 11  1  0
  9 12  1  0
  6 13  1  0
  5 14  1  0
  3 15  1  0
  3 16  1  0
  2 17  1  0
 17 18  1  0
 18 19  2  0
 19 20  1  0
 20 21  1  0
 21 22  1  0
 22 23  2  0
 23 24  1  0
 24 25  2  0
 25 26  1  0
 26 27  2  0
 27 28  1  0
 25 29  1  0
 24 30  1  0
 23 31  1  0
 21 32  2  0
 20 33  1  0
  2 34  1  0
  1 35  1  0
  1 36  1  0
  1 37  1  0
 10  4  1  0
 32 18  1  0
 27 22  1  0
M  END
>  <plip>  (1) 
-0.13793103448275862

>  <filename>  (1) 
[H][c]1[n][c]([H])[c](-[c]2[n][c]([S][C]([H])([C]([H])([H])[H])[C]([H])([H])[c]3[c]([H])[c]([H])[c]([F])[c]([H])[c]3[H])[n][n]2[H])[c]([H])[c]1[H]

$$$$
