
     RDKit          3D

 26 27  0  0  0  0  0  0  0  0999 V2000
    4.9187    1.8073   16.9759 H   0  0  0  0  0  0  0  0  0  0  0  0
    5.3946    1.3029   17.8140 C   0  0  0  0  0  0  0  0  0  0  0  0
    6.5578    0.6920   17.5501 N   0  0  0  0  0  0  0  0  0  0  0  0
    7.1694    0.0732   18.5682 C   0  0  0  0  0  0  0  0  0  0  0  0
    8.1238   -0.4024   18.3362 H   0  0  0  0  0  0  0  0  0  0  0  0
    6.6568    0.0103   19.8777 C   0  0  0  0  0  0  0  0  0  0  0  0
    7.3912   -0.6953   21.0095 C   0  0  2  0  0  0  0  0  0  0  0  0
    8.2805   -1.2021   20.6228 H   0  0  0  0  0  0  0  0  0  0  0  0
    6.5496   -1.7924   21.6899 C   0  0  0  0  0  0  0  0  0  0  0  0
    6.0225   -2.7614   21.1915 O   0  0  0  0  0  0  0  0  0  0  0  0
    6.4859   -1.5240   23.0174 N   0  0  0  0  0  0  0  0  0  0  0  0
    5.7293   -2.0182   23.4714 H   0  0  0  0  0  0  0  0  0  0  0  0
    7.0270   -0.2409   23.4189 C   0  0  0  0  0  0  0  0  0  0  0  0
    6.2544    0.4957   23.6936 H   0  0  0  0  0  0  0  0  0  0  0  0
    7.7081   -0.3381   24.2733 H   0  0  0  0  0  0  0  0  0  0  0  0
    7.7947    0.2449   22.1781 C   0  0  1  0  0  0  0  0  0  0  0  0
    7.5491    1.2924   21.9529 H   0  0  0  0  0  0  0  0  0  0  0  0
    9.2060    0.1450   22.4403 O   0  0  0  0  0  0  0  0  0  0  0  0
    9.9851    1.0823   21.8455 C   0  0  0  0  0  0  0  0  0  0  0  0
   11.0350    0.8468   22.0128 H   0  0  0  0  0  0  0  0  0  0  0  0
    9.7393    1.1302   20.5076 F   0  0  0  0  0  0  0  0  0  0  0  0
    9.7152    2.3216   22.3267 F   0  0  0  0  0  0  0  0  0  0  0  0
    5.4400    0.6517   20.1291 C   0  0  0  0  0  0  0  0  0  0  0  0
    5.0078    0.6314   21.1324 H   0  0  0  0  0  0  0  0  0  0  0  0
    4.8004    1.3143   19.0808 C   0  0  0  0  0  0  0  0  0  0  0  0
    3.8719    1.8445   19.2385 H   0  0  0  0  0  0  0  0  0  0  0  0
  1  2  1  0
  2  3  2  0
  3  4  1  0
  4  5  1  0
  4  6  2  0
  6  7  1  0
  7  8  1  6
  7  9  1  0
  9 10  2  0
  9 11  1  0
 11 12  1  0
 11 13  1  0
 13 14  1  0
 13 15  1  0
 13 16  1  0
 16 17  1  6
 16 18  1  0
 18 19  1  0
 19 20  1  0
 19 21  1  0
 19 22  1  0
  6 23  1  0
 23 24  1  0
 23 25  2  0
 25 26  1  0
 25  2  1  0
 16  7  1  0
M  END
>  <plip>  (1) 
-0.10714285714285714

>  <filename>  (1) 
[H][c]1[n][c]([H])[c]([C@]2([H])[C](=[O])[N]([H])[C]([H])([H])[C@@]2([H])[O][C]([H])([F])[F])[c]([H])[c]1[H]

$$$$
