
     RDKit          3D

 44 45  0  0  0  0  0  0  0  0999 V2000
    8.2280   -2.9614   21.7727 C   0  0  0  0  0  0  0  0  0  0  0  0
    7.4891   -2.1698   20.7374 N   0  0  0  0  0  4  0  0  0  0  0  0
    6.1569   -2.8294   20.5035 C   0  0  0  0  0  0  0  0  0  0  0  0
    5.6524   -2.3792   19.6452 H   0  0  0  0  0  0  0  0  0  0  0  0
    5.5237   -2.7066   21.3918 H   0  0  0  0  0  0  0  0  0  0  0  0
    6.2890   -3.9001   20.3098 H   0  0  0  0  0  0  0  0  0  0  0  0
    7.3460   -0.6684   21.0308 C   0  0  0  0  0  0  0  0  0  0  0  0
    8.7244   -0.0300   21.2753 C   0  0  0  0  0  0  0  0  0  0  0  0
    8.6714    1.5014   21.4766 N   0  0  0  0  0  4  0  0  0  0  0  0
   10.0191    2.1178   21.9248 C   0  0  0  0  0  0  0  0  0  0  0  0
   10.3967    1.6944   23.3554 C   0  0  0  0  0  0  0  0  0  0  0  0
    9.4825    2.0487   24.2692 N   0  0  0  0  0  0  0  0  0  0  0  0
    9.6556    1.6728   25.5436 C   0  0  0  0  0  0  0  0  0  0  0  0
   10.7303    0.8820   25.9598 C   0  0  0  0  0  0  0  0  0  0  0  0
   11.7158    0.5430   25.0345 C   0  0  0  0  0  0  0  0  0  0  0  0
   11.5388    0.9506   23.7115 C   0  0  0  0  0  0  0  0  0  0  0  0
   12.4555    0.5488   22.6075 C   0  0  0  0  0  0  0  0  0  0  0  0
   13.5228   -0.1511   23.0127 F   0  0  0  0  0  0  0  0  0  0  0  0
   12.9124    1.6269   21.9417 F   0  0  0  0  0  0  0  0  0  0  0  0
   11.8014   -0.2058   21.6886 F   0  0  0  0  0  0  0  0  0  0  0  0
   12.6170   -0.0051   25.3237 H   0  0  0  0  0  0  0  0  0  0  0  0
   10.7915    0.5172   26.9729 H   0  0  0  0  0  0  0  0  0  0  0  0
    8.9024    2.0099   26.2572 H   0  0  0  0  0  0  0  0  0  0  0  0
    9.8982    3.1957   21.9635 H   0  0  0  0  0  0  0  0  0  0  0  0
   10.7930    1.8908   21.2016 H   0  0  0  0  0  0  0  0  0  0  0  0
    8.2571    1.9552   20.6200 H   0  0  0  0  0  0  0  0  0  0  0  0
    8.0154    1.7090   22.2868 H   0  0  0  0  0  0  0  0  0  0  0  0
    9.3587   -0.2912   20.4213 H   0  0  0  0  0  0  0  0  0  0  0  0
    9.1808   -0.4828   22.1583 H   0  0  0  0  0  0  0  0  0  0  0  0
    6.6085   -0.0143   19.8845 C   0  0  0  0  0  0  0  0  0  0  0  0
    5.4034    0.6628   20.1130 C   0  0  0  0  0  0  0  0  0  0  0  0
    4.7855    1.3230   19.0490 C   0  0  0  0  0  0  0  0  0  0  0  0
    5.4025    1.2886   17.7957 C   0  0  0  0  0  0  0  0  0  0  0  0
    6.5464    0.6308   17.5546 N   0  0  0  0  0  0  0  0  0  0  0  0
    7.1253   -0.0078   18.5810 C   0  0  0  0  0  0  0  0  0  0  0  0
    8.0788   -0.4880   18.3475 H   0  0  0  0  0  0  0  0  0  0  0  0
    4.9653    1.8216   16.9524 H   0  0  0  0  0  0  0  0  0  0  0  0
    3.8655    1.8824   19.1868 H   0  0  0  0  0  0  0  0  0  0  0  0
    4.9768    0.6814   21.1198 H   0  0  0  0  0  0  0  0  0  0  0  0
    6.7394   -0.5799   21.9427 H   0  0  0  0  0  0  0  0  0  0  0  0
    7.9996   -2.1873   19.8303 H   0  0  0  0  0  0  0  0  0  0  0  0
    8.1091   -4.0328   21.5799 H   0  0  0  0  0  0  0  0  0  0  0  0
    9.3014   -2.7470   21.7833 H   0  0  0  0  0  0  0  0  0  0  0  0
    7.8178   -2.7557   22.7721 H   0  0  0  0  0  0  0  0  0  0  0  0
  1  2  1  0
  2  3  1  0
  3  4  1  0
  3  5  1  0
  3  6  1  0
  2  7  1  0
  7  8  1  0
  8  9  1  0
  9 10  1  0
 10 11  1  0
 11 12  2  0
 12 13  1  0
 13 14  2  0
 14 15  1  0
 15 16  2  0
 16 17  1  0
 17 18  1  0
 17 19  1  0
 17 20  1  0
 15 21  1  0
 14 22  1  0
 13 23  1  0
 10 24  1  0
 10 25  1  0
  9 26  1  0
  9 27  1  0
  8 28  1  0
  8 29  1  0
  7 30  1  0
 30 31  2  0
 31 32  1  0
 32 33  2  0
 33 34  1  0
 34 35  2  0
 35 36  1  0
 33 37  1  0
 32 38  1  0
 31 39  1  0
  7 40  1  0
  2 41  1  0
  1 42  1  0
  1 43  1  0
  1 44  1  0
 16 11  1  0
 35 30  1  0
M  CHG  2   2   1   9   1
M  END
>  <plip>  (1) 
-0.16666666666666666

>  <filename>  (1) 
[H][c]1[n][c]([C]([H])([H])[N+]([H])([H])[C]([H])([H])[C]([H])([c]2[c]([H])[n][c]([H])[c]([H])[c]2[H])[N+]([H])([C]([H])([H])[H])[C]([H])([H])[H])[c]([C]([F])([F])[F])[c]([H])[c]1[H]

$$$$
