
     RDKit          3D

 31 33  0  0  0  0  0  0  0  0999 V2000
    4.9400    1.7992   16.9781 H   0  0  0  0  0  0  0  0  0  0  0  0
    5.3998    1.2977   17.8287 C   0  0  0  0  0  0  0  0  0  0  0  0
    6.5567    0.6685   17.5811 N   0  0  0  0  0  0  0  0  0  0  0  0
    7.1564    0.0382   18.5969 C   0  0  0  0  0  0  0  0  0  0  0  0
    8.0997   -0.4508   18.3606 H   0  0  0  0  0  0  0  0  0  0  0  0
    6.6423    0.0131   19.8984 C   0  0  0  0  0  0  0  0  0  0  0  0
    7.3949   -0.7020   20.9317 C   0  0  0  0  0  0  0  0  0  0  0  0
    8.0589   -1.8221   20.7479 N   0  0  0  0  0  0  0  0  0  0  0  0
    8.5360   -2.1724   21.9840 C   0  0  0  0  0  0  0  0  0  0  0  0
    9.0835   -3.1088   22.0813 H   0  0  0  0  0  0  0  0  0  0  0  0
    8.1918   -1.2479   22.9287 C   0  0  0  0  0  0  0  0  0  0  0  0
    8.3628   -1.1558   23.9911 H   0  0  0  0  0  0  0  0  0  0  0  0
    7.4608   -0.2917   22.2476 N   0  0  0  0  0  0  0  0  0  0  0  0
    6.8861    0.8749   22.7401 N   0  0  0  0  0  0  0  0  0  0  0  0
    6.3324    0.8583   24.0951 C   0  0  0  0  0  0  0  0  0  0  0  0
    7.1211    0.8876   24.8665 H   0  0  0  0  0  0  0  0  0  0  0  0
    5.7505   -0.0618   24.2359 H   0  0  0  0  0  0  0  0  0  0  0  0
    5.4212    2.0836   24.2375 C   0  0  0  0  0  0  0  0  0  0  0  0
    4.5499    1.9488   23.5732 H   0  0  0  0  0  0  0  0  0  0  0  0
    5.0695    2.1956   25.2656 H   0  0  0  0  0  0  0  0  0  0  0  0
    6.0982    3.2917   23.9202 O   0  0  0  0  0  0  0  0  0  0  0  0
    6.5856    3.2758   22.5853 C   0  0  0  0  0  0  0  0  0  0  0  0
    7.0607    4.2475   22.4215 H   0  0  0  0  0  0  0  0  0  0  0  0
    5.7529    3.1648   21.8663 H   0  0  0  0  0  0  0  0  0  0  0  0
    7.5652    2.1207   22.3552 C   0  0  0  0  0  0  0  0  0  0  0  0
    8.4983    2.2773   22.9177 H   0  0  0  0  0  0  0  0  0  0  0  0
    7.8195    2.0757   21.2874 H   0  0  0  0  0  0  0  0  0  0  0  0
    5.4285    0.6740   20.1474 C   0  0  0  0  0  0  0  0  0  0  0  0
    4.9979    0.6677   21.1497 H   0  0  0  0  0  0  0  0  0  0  0  0
    4.7981    1.3215   19.0908 C   0  0  0  0  0  0  0  0  0  0  0  0
    3.8605    1.8452   19.2253 H   0  0  0  0  0  0  0  0  0  0  0  0
  1  2  1  0
  2  3  2  0
  3  4  1  0
  4  5  1  0
  4  6  2  0
  6  7  1  0
  7  8  2  0
  8  9  1  0
  9 10  1  0
  9 11  2  0
 11 12  1  0
 11 13  1  0
 13 14  1  0
 14 15  1  0
 15 16  1  0
 15 17  1  0
 15 18  1  0
 18 19  1  0
 18 20  1  0
 18 21  1  0
 21 22  1  0
 22 23  1  0
 22 24  1  0
 22 25  1  0
 25 26  1  0
 25 27  1  0
  6 28  1  0
 28 29  1  0
 28 30  2  0
 30 31  1  0
 30  2  1  0
 13  7  1  0
 25 14  1  0
M  END
>  <plip>  (1) 
-0.034482758620689655

>  <filename>  (1) 
[H][c]1[n][c]([H])[c](-[c]2[n][c]([H])[c]([H])[n]2[N]2[C]([H])([H])[C]([H])([H])[O][C]([H])([H])[C]2([H])[H])[c]([H])[c]1[H]

$$$$
