
     RDKit          3D

 34 36  0  0  0  0  0  0  0  0999 V2000
    6.9152   -0.5286   23.2863 H   0  0  0  0  0  0  0  0  0  0  0  0
    7.2912    0.0384   22.4288 C   0  0  0  0  0  0  0  0  0  0  0  0
    7.8257    1.2551   22.6475 C   0  0  0  0  0  0  0  0  0  0  0  0
    7.9277    2.1102   24.2039 S   0  0  0  0  0  0  0  0  0  0  0  0
    8.8870    3.4682   23.4881 C   0  0  0  0  0  0  0  0  0  0  0  0
    9.2757    4.4446   24.0567 O   0  0  0  0  0  0  0  0  0  0  0  0
    9.1056    3.1955   22.1723 N   0  0  0  0  0  0  0  0  0  0  0  0
    9.5312    3.8703   21.5586 H   0  0  0  0  0  0  0  0  0  0  0  0
    8.5097    2.0981   21.6168 C   0  0  0  0  0  0  0  0  0  0  0  0
    8.5780    1.8946   20.4335 O   0  0  0  0  0  0  0  0  0  0  0  0
    7.3105   -0.7403   21.0992 C   0  0  0  0  0  0  0  0  0  0  0  0
    6.6558    0.0325   19.9327 C   0  0  0  0  0  0  0  0  0  0  0  0
    7.1599    0.0459   18.6192 C   0  0  0  0  0  0  0  0  0  0  0  0
    8.1172   -0.4164   18.3694 H   0  0  0  0  0  0  0  0  0  0  0  0
    6.5520    0.6341   17.5742 N   0  0  0  0  0  0  0  0  0  0  0  0
    5.3975    1.2748   17.8115 C   0  0  0  0  0  0  0  0  0  0  0  0
    4.9391    1.7803   16.9647 H   0  0  0  0  0  0  0  0  0  0  0  0
    4.7947    1.3223   19.0706 C   0  0  0  0  0  0  0  0  0  0  0  0
    3.8613    1.8610   19.2090 H   0  0  0  0  0  0  0  0  0  0  0  0
    5.4348    0.6889   20.1399 C   0  0  0  0  0  0  0  0  0  0  0  0
    4.9917    0.7066   21.1375 H   0  0  0  0  0  0  0  0  0  0  0  0
    8.7678   -1.1925   20.7932 C   0  0  0  0  0  0  0  0  0  0  0  0
    8.7566   -1.7805   19.8742 H   0  0  0  0  0  0  0  0  0  0  0  0
    9.4182   -0.3372   20.6052 H   0  0  0  0  0  0  0  0  0  0  0  0
    9.3431   -2.0695   21.9206 C   0  0  0  0  0  0  0  0  0  0  0  0
    9.9985   -2.8507   21.4992 H   0  0  0  0  0  0  0  0  0  0  0  0
    9.9419   -1.4670   22.6090 H   0  0  0  0  0  0  0  0  0  0  0  0
    8.3457   -2.6573   22.7420 O   0  0  0  0  0  0  0  0  0  0  0  0
    7.2311   -3.1641   22.0396 C   0  0  0  0  0  0  0  0  0  0  0  0
    6.5947   -3.6346   22.7951 H   0  0  0  0  0  0  0  0  0  0  0  0
    7.5495   -3.9571   21.3407 H   0  0  0  0  0  0  0  0  0  0  0  0
    6.4695   -2.0519   21.2854 C   0  0  0  0  0  0  0  0  0  0  0  0
    5.5414   -1.7872   21.8027 H   0  0  0  0  0  0  0  0  0  0  0  0
    6.1713   -2.4409   20.3068 H   0  0  0  0  0  0  0  0  0  0  0  0
  1  2  1  0
  2  3  2  3
  3  4  1  0
  4  5  1  0
  5  6  2  0
  5  7  1  0
  7  8  1  0
  7  9  1  0
  9 10  2  0
  2 11  1  0
 11 12  1  0
 12 13  2  0
 13 14  1  0
 13 15  1  0
 15 16  2  0
 16 17  1  0
 16 18  1  0
 18 19  1  0
 18 20  2  0
 20 21  1  0
 11 22  1  0
 22 23  1  0
 22 24  1  0
 22 25  1  0
 25 26  1  0
 25 27  1  0
 25 28  1  0
 28 29  1  0
 29 30  1  0
 29 31  1  0
 29 32  1  0
 32 33  1  0
 32 34  1  0
  9  3  1  0
 32 11  1  0
 20 12  1  0
M  END
>  <plip>  (1) 
-0.10344827586206896

>  <filename>  (1) 
[H][C](=[C]1[S][C](=[O])[N]([H])[C]1=[O])[C]1([c]2[c]([H])[n][c]([H])[c]([H])[c]2[H])[C]([H])([H])[C]([H])([H])[O][C]([H])([H])[C]1([H])[H]

$$$$
