
     RDKit          3D

 40 43  0  0  0  0  0  0  0  0999 V2000
   13.2028    0.7232   24.7668 Br  0  0  0  0  0  0  0  0  0  0  0  0
   12.0821    1.5469   23.4725 C   0  0  0  0  0  0  0  0  0  0  0  0
   10.7628    1.1150   23.3721 C   0  0  0  0  0  0  0  0  0  0  0  0
    9.9182    1.6393   22.3930 C   0  0  0  0  0  0  0  0  0  0  0  0
    8.4996    1.1989   22.2858 C   0  0  0  0  0  0  0  0  0  0  0  0
    8.5002   -0.0009   21.4362 N   0  0  0  0  0  4  0  0  0  0  0  0
    9.3632   -1.0733   21.9563 C   0  0  0  0  0  0  0  0  0  0  0  0
    8.8609   -2.2776   21.2038 C   0  0  0  0  0  0  0  0  0  0  0  0
    7.3555   -2.0360   21.0474 C   0  0  0  0  0  0  0  0  0  0  0  0
    7.1537   -0.5466   21.2962 C   0  0  0  0  0  0  0  0  0  0  0  0
    6.5474    0.1423   20.1217 C   0  0  0  0  0  0  0  0  0  0  0  0
    5.3260    0.8065   20.2208 C   0  0  0  0  0  0  0  0  0  0  0  0
    4.8171    1.3832   19.0595 C   0  0  0  0  0  0  0  0  0  0  0  0
    5.5409    1.3021   17.8615 C   0  0  0  0  0  0  0  0  0  0  0  0
    6.7321    0.6801   17.7796 N   0  0  0  0  0  0  0  0  0  0  0  0
    7.2216    0.1179   18.8953 C   0  0  0  0  0  0  0  0  0  0  0  0
    8.1757   -0.3963   18.8445 H   0  0  0  0  0  0  0  0  0  0  0  0
    5.1236    1.7500   16.9639 H   0  0  0  0  0  0  0  0  0  0  0  0
    3.8654    1.9013   19.0740 H   0  0  0  0  0  0  0  0  0  0  0  0
    4.7890    0.8713   21.1688 H   0  0  0  0  0  0  0  0  0  0  0  0
    6.5489   -0.3891   22.2027 H   0  0  0  0  0  0  0  0  0  0  0  0
    6.9973   -2.3138   20.0498 H   0  0  0  0  0  0  0  0  0  0  0  0
    6.7942   -2.6056   21.7928 H   0  0  0  0  0  0  0  0  0  0  0  0
    9.3548   -2.2889   20.2323 H   0  0  0  0  0  0  0  0  0  0  0  0
    9.0884   -3.2113   21.7240 H   0  0  0  0  0  0  0  0  0  0  0  0
    9.2362   -1.1925   23.0374 H   0  0  0  0  0  0  0  0  0  0  0  0
   10.4278   -0.8930   21.7542 H   0  0  0  0  0  0  0  0  0  0  0  0
    8.8376    0.2643   20.5080 H   0  0  0  0  0  0  0  0  0  0  0  0
    7.9032    2.0098   21.8437 H   0  0  0  0  0  0  0  0  0  0  0  0
    8.0963    0.9876   23.2821 H   0  0  0  0  0  0  0  0  0  0  0  0
   10.4255    2.5334   21.4621 C   0  0  0  0  0  0  0  0  0  0  0  0
   11.7295    3.0085   21.5913 C   0  0  0  0  0  0  0  0  0  0  0  0
   12.5382    2.5562   22.6133 C   0  0  0  0  0  0  0  0  0  0  0  0
   13.7182    3.2334   22.5890 O   0  0  0  0  0  0  0  0  0  0  0  0
   13.5347    4.2585   21.5880 C   0  0  0  0  0  0  0  0  0  0  0  0
   12.3676    3.9282   20.8222 O   0  0  0  0  0  0  0  0  0  0  0  0
   13.3714    5.2268   22.0735 H   0  0  0  0  0  0  0  0  0  0  0  0
   14.4181    4.3348   20.9440 H   0  0  0  0  0  0  0  0  0  0  0  0
    9.7685    2.8522   20.6669 H   0  0  0  0  0  0  0  0  0  0  0  0
   10.4063    0.3528   24.0585 H   0  0  0  0  0  0  0  0  0  0  0  0
  1  2  1  0
  2  3  2  0
  3  4  1  0
  4  5  1  0
  5  6  1  0
  6  7  1  0
  7  8  1  0
  8  9  1  0
  9 10  1  0
 10 11  1  0
 11 12  2  0
 12 13  1  0
 13 14  2  0
 14 15  1  0
 15 16  2  0
 16 17  1  0
 14 18  1  0
 13 19  1  0
 12 20  1  0
 10 21  1  0
  9 22  1  0
  9 23  1  0
  8 24  1  0
  8 25  1  0
  7 26  1  0
  7 27  1  0
  6 28  1  0
  5 29  1  0
  5 30  1  0
  4 31  2  0
 31 32  1  0
 32 33  2  0
 33 34  1  0
 34 35  1  0
 35 36  1  0
 35 37  1  0
 35 38  1  0
 31 39  1  0
  3 40  1  0
 33  2  1  0
 10  6  1  0
 16 11  1  0
 36 32  1  0
M  CHG  1   6   1
M  END
>  <plip>  (1) 
-0.06666666666666667

>  <filename>  (1) 
[H][c]1[n][c]([H])[c]([C]2([H])[C]([H])([H])[C]([H])([H])[C]([H])([H])[N+]2([H])[C]([H])([H])[c]2[c]([H])[c]([Br])[c]3[c]([c]2[H])[O][C]([H])([H])[O]3)[c]([H])[c]1[H]

$$$$
