
     RDKit          3D

 35 37  0  0  0  0  0  0  0  0999 V2000
    9.1998    1.3298   21.3055 O   0  0  0  0  0  0  0  0  0  0  0  0
    8.3034    1.2223   22.1177 C   0  0  0  0  0  0  0  0  0  0  0  0
    7.4886    0.1007   22.2038 N   0  0  0  0  0  0  0  0  0  0  0  0
    7.3463   -0.7707   21.0284 C   0  0  0  0  0  0  0  0  0  0  0  0
    6.6793   -2.5330   21.2846 C   0  0  0  0  0  0  0  0  0  0  0  0
    7.6247   -3.2906   21.4434 O   0  0  0  0  0  0  0  0  0  0  0  0
    5.4643   -2.6509   21.2057 O   0  0  0  0  0  1  0  0  0  0  0  0
    6.6413   -0.0338   19.9140 C   0  0  0  0  0  0  0  0  0  0  0  0
    5.4192    0.6190   20.1226 C   0  0  0  0  0  0  0  0  0  0  0  0
    4.8587    1.3598   19.0804 C   0  0  0  0  0  0  0  0  0  0  0  0
    5.5118    1.3876   17.8438 C   0  0  0  0  0  0  0  0  0  0  0  0
    6.6850    0.7795   17.6189 N   0  0  0  0  0  0  0  0  0  0  0  0
    7.2370    0.1192   18.6485 C   0  0  0  0  0  0  0  0  0  0  0  0
    8.2177   -0.3190   18.4542 H   0  0  0  0  0  0  0  0  0  0  0  0
    5.0844    1.9313   17.0039 H   0  0  0  0  0  0  0  0  0  0  0  0
    3.9553    1.9434   19.2334 H   0  0  0  0  0  0  0  0  0  0  0  0
    4.9322    0.5718   21.0990 H   0  0  0  0  0  0  0  0  0  0  0  0
    8.3496   -1.0824   20.7348 H   0  0  0  0  0  0  0  0  0  0  0  0
    6.6305    0.3147   22.6931 H   0  0  0  0  0  0  0  0  0  0  0  0
    8.0044    2.3096   23.1596 C   0  0  0  0  0  0  0  0  0  0  0  0
    8.0847    1.8162   24.6300 C   0  0  0  0  0  0  0  0  0  0  0  0
    6.7902    2.0073   25.2318 O   0  0  0  0  0  0  0  0  0  0  0  0
    5.9794    2.6277   24.3360 C   0  0  0  0  0  0  0  0  0  0  0  0
    4.6478    2.9801   24.5543 C   0  0  0  0  0  0  0  0  0  0  0  0
    3.9194    3.5193   23.4790 C   0  0  0  0  0  0  0  0  0  0  0  0
    4.5433    3.6900   22.2398 C   0  0  0  0  0  0  0  0  0  0  0  0
    3.8021    4.1314   21.2054 F   0  0  0  0  0  0  0  0  0  0  0  0
    5.8914    3.3904   22.0372 C   0  0  0  0  0  0  0  0  0  0  0  0
    6.5995    2.8573   23.1112 C   0  0  0  0  0  0  0  0  0  0  0  0
    6.3550    3.5470   21.0698 H   0  0  0  0  0  0  0  0  0  0  0  0
    2.8780    3.8132   23.5704 H   0  0  0  0  0  0  0  0  0  0  0  0
    4.2081    2.8281   25.5351 H   0  0  0  0  0  0  0  0  0  0  0  0
    8.3378    0.7542   24.7156 H   0  0  0  0  0  0  0  0  0  0  0  0
    8.8106    2.3869   25.2154 H   0  0  0  0  0  0  0  0  0  0  0  0
    8.7554    3.0725   22.9352 H   0  0  0  0  0  0  0  0  0  0  0  0
  1  2  2  0
  2  3  1  0
  3  4  1  0
  4  5  1  0
  5  6  2  0
  5  7  1  0
  4  8  1  0
  8  9  2  0
  9 10  1  0
 10 11  2  0
 11 12  1  0
 12 13  2  0
 13 14  1  0
 11 15  1  0
 10 16  1  0
  9 17  1  0
  4 18  1  0
  3 19  1  0
  2 20  1  0
 20 21  1  0
 21 22  1  0
 22 23  1  0
 23 24  2  0
 24 25  1  0
 25 26  2  0
 26 27  1  0
 26 28  1  0
 28 29  2  0
 28 30  1  0
 25 31  1  0
 24 32  1  0
 21 33  1  0
 21 34  1  0
 20 35  1  0
 13  8  1  0
 29 20  1  0
 29 23  1  0
M  CHG  1   7  -1
M  END
>  <plip>  (1) 
-0.10714285714285714

>  <filename>  (1) 
[H][c]1[n][c]([H])[c]([C]([H])([C](=[O])[O-])[N]([H])[C](=[O])[C]2([H])[c]3[c]([H])[c]([F])[c]([H])[c]([H])[c]3[O][C]2([H])[H])[c]([H])[c]1[H]

$$$$
