
     RDKit          3D

 34 35  0  0  0  0  0  0  0  0999 V2000
    5.0083    1.7673   16.9913 H   0  0  0  0  0  0  0  0  0  0  0  0
    5.4543    1.2675   17.8479 C   0  0  0  0  0  0  0  0  0  0  0  0
    6.6142    0.6209   17.6308 N   0  0  0  0  0  0  0  0  0  0  0  0
    7.1615   -0.0094   18.6770 C   0  0  0  0  0  0  0  0  0  0  0  0
    8.0872   -0.5500   18.4778 H   0  0  0  0  0  0  0  0  0  0  0  0
    6.6164   -0.0405   19.9827 C   0  0  0  0  0  0  0  0  0  0  0  0
    7.2504   -0.7863   20.9966 N   0  0  0  0  0  0  0  0  0  0  0  0
    8.1994   -1.0549   20.7295 H   0  0  0  0  0  0  0  0  0  0  0  0
    7.1742   -0.3495   22.3230 N   0  0  0  0  0  0  0  0  0  0  0  0
    6.5492   -0.8957   22.9008 H   0  0  0  0  0  0  0  0  0  0  0  0
    7.3711    0.9479   22.7873 C   0  0  0  0  0  0  0  0  0  0  0  0
    7.7070    1.8795   22.0796 O   0  0  0  0  0  0  0  0  0  0  0  0
    7.0979    1.1143   24.2629 C   0  0  0  0  0  0  0  0  0  0  0  0
    7.3886    0.1385   25.2285 C   0  0  0  0  0  0  0  0  0  0  0  0
    7.8016   -0.8290   24.9446 H   0  0  0  0  0  0  0  0  0  0  0  0
    7.1697    0.3911   26.5865 C   0  0  0  0  0  0  0  0  0  0  0  0
    7.3933   -0.3739   27.3217 H   0  0  0  0  0  0  0  0  0  0  0  0
    6.6473    1.6270   26.9993 C   0  0  0  0  0  0  0  0  0  0  0  0
    6.3968    1.9820   28.2861 O   0  0  0  0  0  0  0  0  0  0  0  0
    6.6756    1.0923   29.3618 C   0  0  0  0  0  0  0  0  0  0  0  0
    6.0926    0.1679   29.2416 H   0  0  0  0  0  0  0  0  0  0  0  0
    7.7426    0.8267   29.3634 H   0  0  0  0  0  0  0  0  0  0  0  0
    6.2944    1.8106   30.6388 C   0  0  0  0  0  0  0  0  0  0  0  0
    6.8934    2.7200   30.7528 H   0  0  0  0  0  0  0  0  0  0  0  0
    6.4761    1.1584   31.4983 H   0  0  0  0  0  0  0  0  0  0  0  0
    5.2323    2.0755   30.6142 H   0  0  0  0  0  0  0  0  0  0  0  0
    6.3380    2.6048   26.0338 C   0  0  0  0  0  0  0  0  0  0  0  0
    5.9162    3.5532   26.3515 H   0  0  0  0  0  0  0  0  0  0  0  0
    6.5770    2.3522   24.6919 C   0  0  0  0  0  0  0  0  0  0  0  0
    6.3543    3.1145   23.9443 H   0  0  0  0  0  0  0  0  0  0  0  0
    5.3931    0.6213   20.1773 C   0  0  0  0  0  0  0  0  0  0  0  0
    4.8974    0.6007   21.1465 H   0  0  0  0  0  0  0  0  0  0  0  0
    4.8143    1.2855   19.0913 C   0  0  0  0  0  0  0  0  0  0  0  0
    3.8679    1.8070   19.2015 H   0  0  0  0  0  0  0  0  0  0  0  0
  1  2  1  0
  2  3  2  0
  3  4  1  0
  4  5  1  0
  4  6  2  0
  6  7  1  0
  7  8  1  0
  7  9  1  0
  9 10  1  0
  9 11  1  0
 11 12  2  0
 11 13  1  0
 13 14  2  0
 14 15  1  0
 14 16  1  0
 16 17  1  0
 16 18  2  0
 18 19  1  0
 19 20  1  0
 20 21  1  0
 20 22  1  0
 20 23  1  0
 23 24  1  0
 23 25  1  0
 23 26  1  0
 18 27  1  0
 27 28  1  0
 27 29  2  0
 29 30  1  0
  6 31  1  0
 31 32  1  0
 31 33  2  0
 33 34  1  0
 33  2  1  0
 29 13  1  0
M  END
>  <plip>  (1) 
-0.07142857142857142

>  <filename>  (1) 
[H][c]1[n][c]([H])[c]([N]([H])[N]([H])[C](=[O])[c]2[c]([H])[c]([H])[c]([O][C]([H])([H])[C]([H])([H])[H])[c]([H])[c]2[H])[c]([H])[c]1[H]

$$$$
