
     RDKit          3D

 48 50  0  0  0  0  0  0  0  0999 V2000
    9.3685    1.8537   22.9181 C   0  0  0  0  0  0  0  0  0  0  0  0
    8.8669    0.9055   21.9618 O   0  0  0  0  0  0  0  0  0  0  0  0
    7.7001    0.2916   22.2340 C   0  0  0  0  0  0  0  0  0  0  0  0
    7.0131    0.5249   23.1971 O   0  0  0  0  0  0  0  0  0  0  0  0
    7.3832   -0.7257   21.0700 C   0  0  0  0  0  0  0  0  0  0  0  0
    6.6381   -1.9299   21.4550 N   0  0  0  0  0  0  0  0  0  0  0  0
    7.1932   -2.8989   22.2507 C   0  0  0  0  0  0  0  0  0  0  0  0
    8.3902   -2.8711   22.5178 O   0  0  0  0  0  0  0  0  0  0  0  0
    6.2684   -3.9782   22.7732 C   0  0  0  0  0  0  0  0  0  0  0  0
    6.6883   -4.9626   23.6440 C   0  0  0  0  0  0  0  0  0  0  0  0
    8.0392   -5.2583   24.2077 C   0  0  0  0  0  0  0  0  0  0  0  0
    8.0535   -6.1584   24.8321 H   0  0  0  0  0  0  0  0  0  0  0  0
    8.4056   -4.4123   24.7970 H   0  0  0  0  0  0  0  0  0  0  0  0
    8.7528   -5.3810   23.3882 H   0  0  0  0  0  0  0  0  0  0  0  0
    5.5704   -5.7117   23.8818 N   0  0  0  0  0  0  0  0  0  0  0  0
    4.5199   -5.1907   23.1738 C   0  0  0  0  0  0  0  0  0  0  0  0
    3.1397   -5.7504   23.2171 C   0  0  0  0  0  0  0  0  0  0  0  0
    2.7770   -6.8957   23.9537 C   0  0  0  0  0  0  0  0  0  0  0  0
    1.4439   -7.3411   23.9707 C   0  0  0  0  0  0  0  0  0  0  0  0
    1.2028   -8.5120   24.6259 O   0  0  0  0  0  0  0  0  0  0  0  0
   -0.1081   -9.0468   24.5707 C   0  0  0  0  0  0  0  0  0  0  0  0
   -0.0580  -10.0234   25.0515 H   0  0  0  0  0  0  0  0  0  0  0  0
   -0.8215   -8.4056   25.1073 H   0  0  0  0  0  0  0  0  0  0  0  0
   -0.4544   -9.1654   23.5330 H   0  0  0  0  0  0  0  0  0  0  0  0
    0.4394   -6.5691   23.3636 C   0  0  0  0  0  0  0  0  0  0  0  0
    0.7976   -5.4586   22.5974 C   0  0  0  0  0  0  0  0  0  0  0  0
    2.1317   -5.0823   22.4948 C   0  0  0  0  0  0  0  0  0  0  0  0
    2.4365   -4.2855   21.8385 H   0  0  0  0  0  0  0  0  0  0  0  0
    0.0291   -4.8973   22.0682 H   0  0  0  0  0  0  0  0  0  0  0  0
   -0.6061   -6.8168   23.5104 H   0  0  0  0  0  0  0  0  0  0  0  0
    3.4990   -7.4843   24.5164 H   0  0  0  0  0  0  0  0  0  0  0  0
    4.9216   -4.1439   22.4841 N   0  0  0  0  0  0  0  0  0  0  0  0
    5.5139   -6.4796   24.5255 H   0  0  0  0  0  0  0  0  0  0  0  0
    5.6316   -1.9587   21.3397 H   0  0  0  0  0  0  0  0  0  0  0  0
    6.6447   -0.0258   19.9386 C   0  0  0  0  0  0  0  0  0  0  0  0
    5.4413    0.6551   20.1679 C   0  0  0  0  0  0  0  0  0  0  0  0
    4.8186    1.2960   19.0951 C   0  0  0  0  0  0  0  0  0  0  0  0
    5.4269    1.2475   17.8360 C   0  0  0  0  0  0  0  0  0  0  0  0
    6.5738    0.5952   17.5931 N   0  0  0  0  0  0  0  0  0  0  0  0
    7.1547   -0.0242   18.6289 C   0  0  0  0  0  0  0  0  0  0  0  0
    8.0931   -0.5352   18.4075 H   0  0  0  0  0  0  0  0  0  0  0  0
    4.9740    1.7528   16.9849 H   0  0  0  0  0  0  0  0  0  0  0  0
    3.8888    1.8379   19.2233 H   0  0  0  0  0  0  0  0  0  0  0  0
    5.0204    0.6999   21.1767 H   0  0  0  0  0  0  0  0  0  0  0  0
    8.3698   -1.0416   20.7146 H   0  0  0  0  0  0  0  0  0  0  0  0
   10.3259    2.1791   22.5108 H   0  0  0  0  0  0  0  0  0  0  0  0
    8.6883    2.7039   23.0236 H   0  0  0  0  0  0  0  0  0  0  0  0
    9.5068    1.3867   23.8978 H   0  0  0  0  0  0  0  0  0  0  0  0
  1  2  1  0
  2  3  1  0
  3  4  2  0
  3  5  1  0
  5  6  1  0
  6  7  1  0
  7  8  2  0
  7  9  1  0
  9 10  2  0
 10 11  1  0
 11 12  1  0
 11 13  1  0
 11 14  1  0
 10 15  1  0
 15 16  1  0
 16 17  1  0
 17 18  2  0
 18 19  1  0
 19 20  1  0
 20 21  1  0
 21 22  1  0
 21 23  1  0
 21 24  1  0
 19 25  2  0
 25 26  1  0
 26 27  2  0
 27 28  1  0
 26 29  1  0
 25 30  1  0
 18 31  1  0
 16 32  2  0
 15 33  1  0
  6 34  1  0
  5 35  1  0
 35 36  2  0
 36 37  1  0
 37 38  2  0
 38 39  1  0
 39 40  2  0
 40 41  1  0
 38 42  1  0
 37 43  1  0
 36 44  1  0
  5 45  1  0
  1 46  1  0
  1 47  1  0
  1 48  1  0
 32  9  1  0
 40 35  1  0
 27 17  1  0
M  END
>  <plip>  (1) 
-0.16666666666666666

>  <filename>  (1) 
[H][c]1[n][c]([H])[c]([C]([H])([C](=[O])[O][C]([H])([H])[H])[N]([H])[C](=[O])[c]2[n][c](-[c]3[c]([H])[c]([H])[c]([H])[c]([O][C]([H])([H])[H])[c]3[H])[n]([H])[c]2[C]([H])([H])[H])[c]([H])[c]1[H]

$$$$
