
     RDKit          3D

 36 38  0  0  0  0  0  0  0  0999 V2000
    9.0393   -2.7037   23.7431 H   0  0  0  0  0  0  0  0  0  0  0  0
    8.5476   -2.1171   22.9695 C   0  0  0  0  0  0  0  0  0  0  0  0
    8.2210   -2.7680   21.8512 N   0  0  0  0  0  0  0  0  0  0  0  0
    7.6122   -2.0342   20.9234 C   0  0  0  0  0  0  0  0  0  0  0  0
    7.2359   -2.5610   20.0490 H   0  0  0  0  0  0  0  0  0  0  0  0
    7.3691   -0.6646   21.0204 C   0  0  0  0  0  0  0  0  0  0  0  0
    6.6632    0.0515   19.8894 C   0  0  0  0  0  0  0  0  0  0  0  0
    7.1575    0.0793   18.5631 C   0  0  0  0  0  0  0  0  0  0  0  0
    8.1013   -0.4144   18.3247 H   0  0  0  0  0  0  0  0  0  0  0  0
    6.5416    0.6858   17.5391 N   0  0  0  0  0  0  0  0  0  0  0  0
    5.3810    1.3062   17.8046 C   0  0  0  0  0  0  0  0  0  0  0  0
    4.9155    1.8212   16.9684 H   0  0  0  0  0  0  0  0  0  0  0  0
    4.7800    1.3256   19.0673 C   0  0  0  0  0  0  0  0  0  0  0  0
    3.8396    1.8491   19.2098 H   0  0  0  0  0  0  0  0  0  0  0  0
    5.4355    0.6894   20.1243 C   0  0  0  0  0  0  0  0  0  0  0  0
    5.0216    0.6750   21.1359 H   0  0  0  0  0  0  0  0  0  0  0  0
    7.7405   -0.0986   22.2661 C   0  0  0  0  0  0  0  0  0  0  0  0
    7.5281    1.3564   22.5517 C   0  0  0  0  0  0  0  0  0  0  0  0
    7.9625    2.3537   21.6546 C   0  0  0  0  0  0  0  0  0  0  0  0
    8.4056    2.0666   20.7039 H   0  0  0  0  0  0  0  0  0  0  0  0
    7.7737    3.7055   21.9619 C   0  0  0  0  0  0  0  0  0  0  0  0
    8.1552    4.4808   21.3007 H   0  0  0  0  0  0  0  0  0  0  0  0
    7.0922    4.0728   23.1253 C   0  0  0  0  0  0  0  0  0  0  0  0
    6.8860    5.1139   23.3547 H   0  0  0  0  0  0  0  0  0  0  0  0
    6.6236    3.0809   23.9925 C   0  0  0  0  0  0  0  0  0  0  0  0
    5.9402    3.4623   25.1641 N   0  0  0  0  0  0  0  0  0  0  0  0
    6.2086    4.3298   25.5899 H   0  0  0  0  0  0  0  0  0  0  0  0
    4.9279    2.7513   25.7541 C   0  0  0  0  0  0  0  0  0  0  0  0
    4.3755    1.8091   25.2254 O   0  0  0  0  0  0  0  0  0  0  0  0
    4.5381    3.2504   27.1196 C   0  0  0  0  0  0  0  0  0  0  0  0
    3.8629    4.1039   27.0109 H   0  0  0  0  0  0  0  0  0  0  0  0
    4.0264    2.4308   27.6273 H   0  0  0  0  0  0  0  0  0  0  0  0
    5.4148    3.5614   27.6925 H   0  0  0  0  0  0  0  0  0  0  0  0
    6.8520    1.7325   23.7199 C   0  0  0  0  0  0  0  0  0  0  0  0
    6.4821    0.9902   24.4217 H   0  0  0  0  0  0  0  0  0  0  0  0
    8.3078   -0.8391   23.2356 N   0  0  0  0  0  0  0  0  0  0  0  0
  1  2  1  0
  2  3  2  0
  3  4  1  0
  4  5  1  0
  4  6  2  0
  6  7  1  0
  7  8  2  0
  8  9  1  0
  8 10  1  0
 10 11  2  0
 11 12  1  0
 11 13  1  0
 13 14  1  0
 13 15  2  0
 15 16  1  0
  6 17  1  0
 17 18  1  0
 18 19  2  0
 19 20  1  0
 19 21  1  0
 21 22  1  0
 21 23  2  0
 23 24  1  0
 23 25  1  0
 25 26  1  0
 26 27  1  0
 26 28  1  0
 28 29  2  0
 28 30  1  0
 30 31  1  0
 30 32  1  0
 30 33  1  0
 25 34  2  0
 34 35  1  0
 17 36  2  0
 36  2  1  0
 15  7  1  0
 34 18  1  0
M  END
>  <plip>  (1) 
-0.06896551724137931

>  <filename>  (1) 
[H][c]1[n][c]([H])[c](-[c]2[c]([H])[n][c]([H])[c]([H])[c]2[H])[c](-[c]2[c]([H])[c]([H])[c]([H])[c]([N]([H])[C](=[O])[C]([H])([H])[H])[c]2[H])[n]1

$$$$
