
     RDKit          3D

 35 36  0  0  0  0  0  0  0  0999 V2000
    6.6895   -2.0286   21.2928 C   0  0  0  0  0  0  0  0  0  0  0  0
    7.4279   -0.7451   20.9519 C   0  0  0  0  0  0  0  0  0  0  0  0
    7.5236    0.0640   22.1585 N   0  0  0  0  0  0  0  0  0  0  0  0
    8.3111    1.2215   22.2383 C   0  0  0  0  0  0  0  0  0  0  0  0
    8.9901    1.4408   21.2368 O   0  0  0  0  0  0  0  0  0  0  0  0
    8.3668    2.1819   23.4259 C   0  0  0  0  0  0  0  0  0  0  0  0
    7.6232    2.0165   24.3952 O   0  0  0  0  0  0  0  0  0  0  0  0
    9.2311    3.2828   23.5141 N   0  0  0  0  0  0  0  0  0  0  0  0
    9.1832    4.2531   24.5190 C   0  0  0  0  0  0  0  0  0  0  0  0
    7.9458    4.6509   25.0355 C   0  0  0  0  0  0  0  0  0  0  0  0
    7.8677    5.6445   26.0212 C   0  0  0  0  0  0  0  0  0  0  0  0
    9.0514    6.1996   26.5301 C   0  0  0  0  0  0  0  0  0  0  0  0
   10.2983    5.8008   26.0232 C   0  0  0  0  0  0  0  0  0  0  0  0
   11.9078    6.5450   26.7589 Br  0  0  0  0  0  0  0  0  0  0  0  0
   10.3599    4.8537   24.9872 C   0  0  0  0  0  0  0  0  0  0  0  0
   11.9079    4.3707   24.3193 Cl  0  0  0  0  0  0  0  0  0  0  0  0
    9.0177    6.9415   27.3242 H   0  0  0  0  0  0  0  0  0  0  0  0
    6.9016    5.9838   26.3932 H   0  0  0  0  0  0  0  0  0  0  0  0
    7.0551    4.1855   24.6262 H   0  0  0  0  0  0  0  0  0  0  0  0
    9.9930    3.3654   22.8457 H   0  0  0  0  0  0  0  0  0  0  0  0
    6.8806   -0.1590   22.9131 H   0  0  0  0  0  0  0  0  0  0  0  0
    6.6673    0.0017   19.8939 C   0  0  0  0  0  0  0  0  0  0  0  0
    5.4477    0.6416   20.1498 C   0  0  0  0  0  0  0  0  0  0  0  0
    4.8177    1.2981   19.0904 C   0  0  0  0  0  0  0  0  0  0  0  0
    5.4107    1.2972   17.8244 C   0  0  0  0  0  0  0  0  0  0  0  0
    6.5765    0.6731   17.5750 N   0  0  0  0  0  0  0  0  0  0  0  0
    7.1866    0.0521   18.5995 C   0  0  0  0  0  0  0  0  0  0  0  0
    8.1327   -0.4414   18.4134 H   0  0  0  0  0  0  0  0  0  0  0  0
    4.9101    1.8285   17.0191 H   0  0  0  0  0  0  0  0  0  0  0  0
    3.8796    1.8266   19.2299 H   0  0  0  0  0  0  0  0  0  0  0  0
    5.0018    0.6467   21.1438 H   0  0  0  0  0  0  0  0  0  0  0  0
    8.4287   -1.0018   20.5814 H   0  0  0  0  0  0  0  0  0  0  0  0
    6.6112   -2.6681   20.4085 H   0  0  0  0  0  0  0  0  0  0  0  0
    5.6853   -1.7887   21.6487 H   0  0  0  0  0  0  0  0  0  0  0  0
    7.2160   -2.5762   22.0783 H   0  0  0  0  0  0  0  0  0  0  0  0
  1  2  1  0
  2  3  1  0
  3  4  1  0
  4  5  2  0
  4  6  1  0
  6  7  2  0
  6  8  1  0
  8  9  1  0
  9 10  2  0
 10 11  1  0
 11 12  2  0
 12 13  1  0
 13 14  1  0
 13 15  2  0
 15 16  1  0
 12 17  1  0
 11 18  1  0
 10 19  1  0
  8 20  1  0
  3 21  1  0
  2 22  1  0
 22 23  2  0
 23 24  1  0
 24 25  2  0
 25 26  1  0
 26 27  2  0
 27 28  1  0
 25 29  1  0
 24 30  1  0
 23 31  1  0
  2 32  1  0
  1 33  1  0
  1 34  1  0
  1 35  1  0
 15  9  1  0
 27 22  1  0
M  END
>  <plip>  (1) 
-0.17857142857142858

>  <filename>  (1) 
[H][c]1[n][c]([H])[c]([C]([H])([N]([H])[C](=[O])[C](=[O])[N]([H])[c]2[c]([H])[c]([H])[c]([H])[c]([Br])[c]2[Cl])[C]([H])([H])[H])[c]([H])[c]1[H]

$$$$
