
     RDKit          3D

 50 52  0  0  0  0  0  0  0  0999 V2000
    3.1173   -7.3085   26.4893 C   0  0  0  0  0  0  0  0  0  0  0  0
    3.2157   -6.5761   25.2846 O   0  0  0  0  0  0  0  0  0  0  0  0
    2.4230   -6.8664   24.2128 C   0  0  0  0  0  0  0  0  0  0  0  0
    1.4957   -7.9207   24.1743 C   0  0  0  0  0  0  0  0  0  0  0  0
    0.6997   -8.1319   23.0393 C   0  0  0  0  0  0  0  0  0  0  0  0
    0.7793   -7.2618   21.9529 C   0  0  0  0  0  0  0  0  0  0  0  0
    1.6982   -6.2095   21.9852 C   0  0  0  0  0  0  0  0  0  0  0  0
    2.5680   -6.0366   23.0687 C   0  0  0  0  0  0  0  0  0  0  0  0
    3.5792   -5.0210   23.0091 N   0  0  0  0  0  0  0  0  0  0  0  0
    3.8472   -4.0741   23.9683 C   0  0  0  0  0  0  0  0  0  0  0  0
    4.7714   -3.2401   23.5916 N   0  0  0  0  0  0  0  0  0  0  0  0
    5.1158   -3.6127   22.2950 C   0  0  0  0  0  0  0  0  0  0  0  0
    6.0024   -2.8353   21.3296 C   0  0  0  0  0  0  0  0  0  0  0  0
    6.2324   -3.2439   20.2009 O   0  0  0  0  0  0  0  0  0  0  0  0
    6.5335   -1.6680   21.8046 N   0  0  0  0  0  0  0  0  0  0  0  0
    7.3645   -0.7741   20.9965 C   0  0  0  0  0  0  0  0  0  0  0  0
    6.5712   -0.0556   19.9069 C   0  0  0  0  0  0  0  0  0  0  0  0
    5.3756    0.6389   20.1330 C   0  0  0  0  0  0  0  0  0  0  0  0
    4.7894    1.3124   19.0598 C   0  0  0  0  0  0  0  0  0  0  0  0
    5.4160    1.2804   17.8102 C   0  0  0  0  0  0  0  0  0  0  0  0
    6.5536    0.6149   17.5705 N   0  0  0  0  0  0  0  0  0  0  0  0
    7.0992   -0.0318   18.6091 C   0  0  0  0  0  0  0  0  0  0  0  0
    8.0285   -0.5643   18.4003 H   0  0  0  0  0  0  0  0  0  0  0  0
    4.9850    1.8090   16.9632 H   0  0  0  0  0  0  0  0  0  0  0  0
    3.8681    1.8684   19.1788 H   0  0  0  0  0  0  0  0  0  0  0  0
    4.9198    0.6713   21.1238 H   0  0  0  0  0  0  0  0  0  0  0  0
    8.2119    0.1802   21.9034 C   0  0  0  0  0  0  0  0  0  0  0  0
    9.2054    0.7178   21.0741 O   0  0  0  0  0  0  0  0  0  0  0  0
   10.1432    1.5901   21.6844 C   0  0  0  0  0  0  0  0  0  0  0  0
   10.8298    1.9003   20.8910 H   0  0  0  0  0  0  0  0  0  0  0  0
    9.6651    2.4832   22.1089 H   0  0  0  0  0  0  0  0  0  0  0  0
   10.7253    1.0880   22.4751 H   0  0  0  0  0  0  0  0  0  0  0  0
    7.4156    1.1874   22.4952 O   0  0  0  0  0  0  0  0  0  0  0  0
    7.5380    1.3868   23.8922 C   0  0  0  0  0  0  0  0  0  0  0  0
    7.2308    0.5044   24.4776 H   0  0  0  0  0  0  0  0  0  0  0  0
    8.5569    1.6684   24.2000 H   0  0  0  0  0  0  0  0  0  0  0  0
    6.8593    2.2077   24.1377 H   0  0  0  0  0  0  0  0  0  0  0  0
    8.6765   -0.4519   22.6873 H   0  0  0  0  0  0  0  0  0  0  0  0
    8.1107   -1.4074   20.5043 H   0  0  0  0  0  0  0  0  0  0  0  0
    6.0848   -1.3192   22.6385 H   0  0  0  0  0  0  0  0  0  0  0  0
    4.4258   -4.7500   21.9589 C   0  0  0  0  0  0  0  0  0  0  0  0
    4.4998   -5.4053   21.0994 H   0  0  0  0  0  0  0  0  0  0  0  0
    3.2926   -4.0417   24.8912 H   0  0  0  0  0  0  0  0  0  0  0  0
    1.7143   -5.4910   21.1739 H   0  0  0  0  0  0  0  0  0  0  0  0
    0.1349   -7.3955   21.0855 H   0  0  0  0  0  0  0  0  0  0  0  0
    0.0227   -8.9815   23.0136 H   0  0  0  0  0  0  0  0  0  0  0  0
    1.3994   -8.5686   25.0392 H   0  0  0  0  0  0  0  0  0  0  0  0
    3.8452   -6.8683   27.1728 H   0  0  0  0  0  0  0  0  0  0  0  0
    2.1181   -7.2262   26.9350 H   0  0  0  0  0  0  0  0  0  0  0  0
    3.3660   -8.3657   26.3418 H   0  0  0  0  0  0  0  0  0  0  0  0
  1  2  1  0
  2  3  1  0
  3  4  2  0
  4  5  1  0
  5  6  2  0
  6  7  1  0
  7  8  2  0
  8  9  1  0
  9 10  1  0
 10 11  2  0
 11 12  1  0
 12 13  1  0
 13 14  2  0
 13 15  1  0
 15 16  1  0
 16 17  1  0
 17 18  2  0
 18 19  1  0
 19 20  2  0
 20 21  1  0
 21 22  2  0
 22 23  1  0
 20 24  1  0
 19 25  1  0
 18 26  1  0
 16 27  1  0
 27 28  1  0
 28 29  1  0
 29 30  1  0
 29 31  1  0
 29 32  1  0
 27 33  1  0
 33 34  1  0
 34 35  1  0
 34 36  1  0
 34 37  1  0
 27 38  1  0
 16 39  1  0
 15 40  1  0
 12 41  2  0
 41 42  1  0
 10 43  1  0
  7 44  1  0
  6 45  1  0
  5 46  1  0
  4 47  1  0
  1 48  1  0
  1 49  1  0
  1 50  1  0
  8  3  1  0
 41  9  1  0
 22 17  1  0
M  END
>  <plip>  (1) 
-0.17857142857142858

>  <filename>  (1) 
[H][c]1[n][c]([H])[c]([C]([H])([N]([H])[C](=[O])[c]2[n][c]([H])[n](-[c]3[c]([H])[c]([H])[c]([H])[c]([H])[c]3[O][C]([H])([H])[H])[c]2[H])[C]([H])([O][C]([H])([H])[H])[O][C]([H])([H])[H])[c]([H])[c]1[H]

$$$$
