
     RDKit          3D

 24 25  0  0  0  0  0  0  0  0999 V2000
    4.9163    1.7862   16.9909 H   0  0  0  0  0  0  0  0  0  0  0  0
    5.3980    1.2971   17.8349 C   0  0  0  0  0  0  0  0  0  0  0  0
    6.5629    0.6879   17.5721 N   0  0  0  0  0  0  0  0  0  0  0  0
    7.1638    0.0634   18.5911 C   0  0  0  0  0  0  0  0  0  0  0  0
    8.1191   -0.4158   18.3700 H   0  0  0  0  0  0  0  0  0  0  0  0
    6.6399   -0.0174   19.8899 C   0  0  0  0  0  0  0  0  0  0  0  0
    7.3902   -0.7112   21.0033 C   0  0  0  0  0  0  0  0  0  0  0  0
    7.9651   -1.5588   20.6022 H   0  0  0  0  0  0  0  0  0  0  0  0
    6.6855   -1.1228   21.7345 H   0  0  0  0  0  0  0  0  0  0  0  0
    8.3274    0.2535   21.7077 C   0  0  0  0  0  0  0  0  0  0  0  0
    7.9322    1.0671   22.7681 C   0  0  0  0  0  0  0  0  0  0  0  0
    6.6667    0.9333   23.2148 F   0  0  0  0  0  0  0  0  0  0  0  0
    8.7742    1.9861   23.3869 C   0  0  0  0  0  0  0  0  0  0  0  0
    8.3897    2.5544   24.2266 H   0  0  0  0  0  0  0  0  0  0  0  0
   10.0796    2.1248   22.9056 C   0  0  0  0  0  0  0  0  0  0  0  0
   10.7511    2.8305   23.3883 H   0  0  0  0  0  0  0  0  0  0  0  0
   10.5260    1.3625   21.8184 C   0  0  0  0  0  0  0  0  0  0  0  0
   11.5385    1.4529   21.4315 H   0  0  0  0  0  0  0  0  0  0  0  0
    9.6340    0.4455   21.2630 C   0  0  0  0  0  0  0  0  0  0  0  0
   10.0164   -0.3575   20.2535 F   0  0  0  0  0  0  0  0  0  0  0  0
    5.4332    0.6485   20.1504 C   0  0  0  0  0  0  0  0  0  0  0  0
    5.0140    0.6391   21.1566 H   0  0  0  0  0  0  0  0  0  0  0  0
    4.8036    1.3162   19.1002 C   0  0  0  0  0  0  0  0  0  0  0  0
    3.8725    1.8467   19.2533 H   0  0  0  0  0  0  0  0  0  0  0  0
  1  2  1  0
  2  3  2  0
  3  4  1  0
  4  5  1  0
  4  6  2  0
  6  7  1  0
  7  8  1  0
  7  9  1  0
  7 10  1  0
 10 11  2  0
 11 12  1  0
 11 13  1  0
 13 14  1  0
 13 15  2  0
 15 16  1  0
 15 17  1  0
 17 18  1  0
 17 19  2  0
 19 20  1  0
  6 21  1  0
 21 22  1  0
 21 23  2  0
 23 24  1  0
 23  2  1  0
 19 10  1  0
M  END
>  <plip>  (1) 
-0.03333333333333333

>  <filename>  (1) 
[H][c]1[n][c]([H])[c]([C]([H])([H])[c]2[c]([F])[c]([H])[c]([H])[c]([H])[c]2[F])[c]([H])[c]1[H]

$$$$
