
     RDKit          3D

 33 35  0  0  0  0  0  0  0  0999 V2000
    8.6488   -0.9997   20.7963 C   0  0  0  0  0  0  0  0  0  0  0  0
    7.2647   -0.4206   21.1034 C   0  0  2  0  0  0  0  0  0  0  0  0
    6.3932   -1.4389   21.7048 N   0  0  0  0  0  0  0  0  0  0  0  0
    6.0389   -2.5978   21.0876 C   0  0  0  0  0  0  0  0  0  0  0  0
    6.1212   -2.5811   19.7793 N   0  0  0  0  0  0  0  0  0  0  0  0
    5.8947   -3.7130   19.1551 C   0  0  0  0  0  0  0  0  0  0  0  0
    5.6381   -4.8766   19.7629 N   0  0  0  0  0  0  0  0  0  0  0  0
    5.5258   -4.8811   21.0950 C   0  0  0  0  0  0  0  0  0  0  0  0
    5.2675   -6.0816   21.7677 C   0  0  0  0  0  0  0  0  0  0  0  0
    5.0824   -6.0998   23.1568 C   0  0  0  0  0  0  0  0  0  0  0  0
    4.6043   -7.7166   24.0725 Br  0  0  0  0  0  0  0  0  0  0  0  0
    5.1725   -4.9018   23.8761 C   0  0  0  0  0  0  0  0  0  0  0  0
    5.4486   -3.6965   23.2205 C   0  0  0  0  0  0  0  0  0  0  0  0
    5.6592   -3.7039   21.8250 C   0  0  0  0  0  0  0  0  0  0  0  0
    5.4887   -2.7685   23.7974 H   0  0  0  0  0  0  0  0  0  0  0  0
    5.0183   -4.9270   24.9540 H   0  0  0  0  0  0  0  0  0  0  0  0
    5.2148   -7.0088   21.2039 H   0  0  0  0  0  0  0  0  0  0  0  0
    5.9994   -3.6701   18.0738 H   0  0  0  0  0  0  0  0  0  0  0  0
    6.3207   -1.4622   22.7118 H   0  0  0  0  0  0  0  0  0  0  0  0
    6.5878    0.1589   19.8916 C   0  0  0  0  0  0  0  0  0  0  0  0
    5.4029    0.8836   20.0336 C   0  0  0  0  0  0  0  0  0  0  0  0
    4.8231    1.4260   18.8912 C   0  0  0  0  0  0  0  0  0  0  0  0
    5.4354    1.2484   17.6475 C   0  0  0  0  0  0  0  0  0  0  0  0
    6.5781    0.5531   17.5037 N   0  0  0  0  0  0  0  0  0  0  0  0
    7.1340    0.0184   18.6067 C   0  0  0  0  0  0  0  0  0  0  0  0
    8.0696   -0.5180   18.4831 H   0  0  0  0  0  0  0  0  0  0  0  0
    4.9675    1.6855   16.7704 H   0  0  0  0  0  0  0  0  0  0  0  0
    3.9079    2.0014   18.9598 H   0  0  0  0  0  0  0  0  0  0  0  0
    4.9490    1.0218   21.0137 H   0  0  0  0  0  0  0  0  0  0  0  0
    7.4035    0.3927   21.8290 H   0  0  0  0  0  0  0  0  0  0  0  0
    9.0681   -1.4744   21.6878 H   0  0  0  0  0  0  0  0  0  0  0  0
    8.5851   -1.7429   20.0016 H   0  0  0  0  0  0  0  0  0  0  0  0
    9.3299   -0.2070   20.4677 H   0  0  0  0  0  0  0  0  0  0  0  0
  1  2  1  0
  2  3  1  0
  3  4  1  0
  4  5  2  0
  5  6  1  0
  6  7  2  0
  7  8  1  0
  8  9  2  0
  9 10  1  0
 10 11  1  0
 10 12  2  0
 12 13  1  0
 13 14  2  0
 13 15  1  0
 12 16  1  0
  9 17  1  0
  6 18  1  0
  3 19  1  0
  2 20  1  0
 20 21  2  0
 21 22  1  0
 22 23  2  0
 23 24  1  0
 24 25  2  0
 25 26  1  0
 23 27  1  0
 22 28  1  0
 21 29  1  0
  2 30  1  1
  1 31  1  0
  1 32  1  0
  1 33  1  0
 14  4  1  0
 25 20  1  0
 14  8  1  0
M  END
>  <plip>  (1) 
-0.16666666666666666

>  <filename>  (1) 
[H][c]1[n][c]([N]([H])[C@]([H])([c]2[c]([H])[n][c]([H])[c]([H])[c]2[H])[C]([H])([H])[H])[c]2[c]([H])[c]([H])[c]([Br])[c]([H])[c]2[n]1

$$$$
