
     RDKit          3D

 51 54  0  0  0  0  0  0  0  0999 V2000
    2.4341   -1.3517   30.0914 C   0  0  0  0  0  0  0  0  0  0  0  0
    3.3215   -1.0574   28.9081 C   0  0  0  0  0  0  0  0  0  0  0  0
    4.1037    0.0689   28.8295 C   0  0  0  0  0  0  0  0  0  0  0  0
    4.8884    0.2608   27.7224 N   0  0  0  0  0  0  0  0  0  0  0  0
    5.7138    1.3104   27.5232 N   0  0  0  0  0  0  0  0  0  0  0  0
    6.2494    1.0692   26.3242 C   0  0  0  0  0  0  0  0  0  0  0  0
    5.7631   -0.1106   25.7186 C   0  0  0  0  0  0  0  0  0  0  0  0
    6.0240   -0.6551   24.4215 N   0  0  0  0  0  0  0  0  0  0  0  0
    6.7918   -0.1483   23.3935 C   0  0  0  0  0  0  0  0  0  0  0  0
    7.6262    0.7259   23.5602 O   0  0  0  0  0  0  0  0  0  0  0  0
    6.5205   -0.8147   22.2183 N   0  0  0  0  0  0  0  0  0  0  0  0
    7.2111   -0.6267   20.9355 C   0  0  0  0  0  0  0  0  0  0  0  0
    8.5174    0.2200   21.0055 C   0  0  0  0  0  0  0  0  0  0  0  0
    9.5114   -0.2936   21.9817 N   0  0  0  0  0  4  0  0  0  0  0  0
   10.6473    0.6190   22.3298 C   0  0  0  0  0  0  0  0  0  0  0  0
   11.4995   -0.2840   23.2185 C   0  0  0  0  0  0  0  0  0  0  0  0
   11.3470   -1.6938   22.5914 C   0  0  0  0  0  0  0  0  0  0  0  0
   10.2049   -1.5534   21.5777 C   0  0  0  0  0  0  0  0  0  0  0  0
   10.5983   -1.4140   20.5625 H   0  0  0  0  0  0  0  0  0  0  0  0
    9.5327   -2.4153   21.5451 H   0  0  0  0  0  0  0  0  0  0  0  0
   11.0960   -2.4505   23.3412 H   0  0  0  0  0  0  0  0  0  0  0  0
   12.2606   -2.0372   22.0974 H   0  0  0  0  0  0  0  0  0  0  0  0
   12.5322    0.0645   23.2951 H   0  0  0  0  0  0  0  0  0  0  0  0
   11.0865   -0.2646   24.2356 H   0  0  0  0  0  0  0  0  0  0  0  0
   11.1783    0.9262   21.4173 H   0  0  0  0  0  0  0  0  0  0  0  0
   10.2841    1.5277   22.8222 H   0  0  0  0  0  0  0  0  0  0  0  0
    9.0121   -0.4047   22.8914 H   0  0  0  0  0  0  0  0  0  0  0  0
    8.2179    1.2324   21.2843 H   0  0  0  0  0  0  0  0  0  0  0  0
    8.9785    0.2676   20.0095 H   0  0  0  0  0  0  0  0  0  0  0  0
    6.3233   -0.0342   19.8534 C   0  0  0  0  0  0  0  0  0  0  0  0
    5.2161    0.7951   20.0630 C   0  0  0  0  0  0  0  0  0  0  0  0
    4.6912    1.4867   18.9628 C   0  0  0  0  0  0  0  0  0  0  0  0
    5.2621    1.2977   17.6998 C   0  0  0  0  0  0  0  0  0  0  0  0
    6.2638    0.4354   17.4670 N   0  0  0  0  0  0  0  0  0  0  0  0
    6.7494   -0.2204   18.5246 C   0  0  0  0  0  0  0  0  0  0  0  0
    7.5724   -0.9061   18.3183 H   0  0  0  0  0  0  0  0  0  0  0  0
    4.9145    1.8630   16.8360 H   0  0  0  0  0  0  0  0  0  0  0  0
    3.8629    2.1781   19.0719 H   0  0  0  0  0  0  0  0  0  0  0  0
    4.7879    0.9022   21.0630 H   0  0  0  0  0  0  0  0  0  0  0  0
    7.4770   -1.6398   20.5941 H   0  0  0  0  0  0  0  0  0  0  0  0
    6.2448   -1.7656   22.4038 H   0  0  0  0  0  0  0  0  0  0  0  0
    5.3152   -1.2856   24.0747 H   0  0  0  0  0  0  0  0  0  0  0  0
    4.8893   -0.6531   26.6760 C   0  0  0  0  0  0  0  0  0  0  0  0
    4.1349   -1.7871   26.7192 N   0  0  0  0  0  0  0  0  0  0  0  0
    3.3961   -1.9645   27.7923 C   0  0  0  0  0  0  0  0  0  0  0  0
    2.7819   -2.8670   27.8223 H   0  0  0  0  0  0  0  0  0  0  0  0
    6.9979    1.7260   25.8994 H   0  0  0  0  0  0  0  0  0  0  0  0
    4.1732    0.8584   29.5716 H   0  0  0  0  0  0  0  0  0  0  0  0
    1.4713   -1.7557   29.7640 H   0  0  0  0  0  0  0  0  0  0  0  0
    2.8879   -2.0938   30.7587 H   0  0  0  0  0  0  0  0  0  0  0  0
    2.2279   -0.4550   30.6853 H   0  0  0  0  0  0  0  0  0  0  0  0
  1  2  1  0
  2  3  2  0
  3  4  1  0
  4  5  1  0
  5  6  2  0
  6  7  1  0
  7  8  1  0
  8  9  1  0
  9 10  2  0
  9 11  1  0
 11 12  1  0
 12 13  1  0
 13 14  1  0
 14 15  1  0
 15 16  1  0
 16 17  1  0
 17 18  1  0
 18 19  1  0
 18 20  1  0
 17 21  1  0
 17 22  1  0
 16 23  1  0
 16 24  1  0
 15 25  1  0
 15 26  1  0
 14 27  1  0
 13 28  1  0
 13 29  1  0
 12 30  1  0
 30 31  2  0
 31 32  1  0
 32 33  2  0
 33 34  1  0
 34 35  2  0
 35 36  1  0
 33 37  1  0
 32 38  1  0
 31 39  1  0
 12 40  1  0
 11 41  1  0
  8 42  1  0
  7 43  2  0
 43 44  1  0
 44 45  2  0
 45 46  1  0
  6 47  1  0
  3 48  1  0
  1 49  1  0
  1 50  1  0
  1 51  1  0
 45  2  1  0
 43  4  1  0
 18 14  1  0
 35 30  1  0
M  CHG  1  14   1
M  END
>  <plip>  (1) 
-0.14285714285714285

>  <filename>  (1) 
[H][c]1[n][c]([H])[c]([C]([H])([N]([H])[C](=[O])[N]([H])[c]2[c]([H])[n][n]3[c]([H])[c]([C]([H])([H])[H])[c]([H])[n][c]23)[C]([H])([H])[N+]2([H])[C]([H])([H])[C]([H])([H])[C]([H])([H])[C]2([H])[H])[c]([H])[c]1[H]

$$$$
