
     RDKit          3D

 34 35  0  0  0  0  0  0  0  0999 V2000
    6.2168   -2.2816   21.2169 H   0  0  0  0  0  0  0  0  0  0  0  0
    6.1641   -2.0979   22.1686 O   0  0  0  0  0  0  0  0  0  0  0  0
    7.0635   -1.0052   22.1832 C   0  0  2  0  0  0  0  0  0  0  0  0
    6.5649   -0.0877   22.5337 H   0  0  0  0  0  0  0  0  0  0  0  0
    7.4497   -0.9208   20.7707 N   0  0  0  0  0  0  0  0  0  0  0  0
    8.4452   -0.9786   20.6016 H   0  0  0  0  0  0  0  0  0  0  0  0
    6.7758   -0.1102   19.8196 C   0  0  0  0  0  0  0  0  0  0  0  0
    7.2436    0.0360   18.4822 C   0  0  0  0  0  0  0  0  0  0  0  0
    8.1726   -0.4366   18.1626 H   0  0  0  0  0  0  0  0  0  0  0  0
    6.6026    0.7097   17.5172 N   0  0  0  0  0  0  0  0  0  0  0  0
    5.4446    1.3112   17.8350 C   0  0  0  0  0  0  0  0  0  0  0  0
    4.9552    1.8543   17.0280 H   0  0  0  0  0  0  0  0  0  0  0  0
    4.8868    1.2431   19.1121 C   0  0  0  0  0  0  0  0  0  0  0  0
    3.9515    1.7566   19.3119 H   0  0  0  0  0  0  0  0  0  0  0  0
    5.5483    0.5137   20.1125 C   0  0  0  0  0  0  0  0  0  0  0  0
    5.1162    0.3963   21.1029 H   0  0  0  0  0  0  0  0  0  0  0  0
    8.2085   -1.3261   23.1842 C   0  0  0  0  0  0  0  0  0  0  0  0
    7.6814   -1.7213   24.0634 H   0  0  0  0  0  0  0  0  0  0  0  0
    8.7818   -2.1607   22.7321 H   0  0  0  0  0  0  0  0  0  0  0  0
    9.0818   -0.2338   23.6709 N   0  0  0  0  0  0  0  0  0  0  0  0
   10.0232    0.2590   22.6462 C   0  0  0  0  0  0  0  0  0  0  0  0
   10.6301   -0.5772   22.2347 H   0  0  0  0  0  0  0  0  0  0  0  0
    9.4493    0.7045   21.8286 H   0  0  0  0  0  0  0  0  0  0  0  0
   10.9833    1.3357   23.2071 C   0  0  0  0  0  0  0  0  0  0  0  0
   11.6837    1.6405   22.4222 H   0  0  0  0  0  0  0  0  0  0  0  0
   10.3948    2.2234   23.4813 H   0  0  0  0  0  0  0  0  0  0  0  0
   11.7494    0.9385   24.4011 N   0  0  0  0  0  0  0  0  0  0  0  0
   12.4303    0.2196   24.1503 H   0  0  0  0  0  0  0  0  0  0  0  0
   10.8051    0.3990   25.3910 C   0  0  0  0  0  0  0  0  0  0  0  0
   10.2109    1.2418   25.7668 H   0  0  0  0  0  0  0  0  0  0  0  0
   11.3623   -0.0018   26.2427 H   0  0  0  0  0  0  0  0  0  0  0  0
    9.8544   -0.6862   24.8473 C   0  0  0  0  0  0  0  0  0  0  0  0
    9.1522   -0.9632   25.6415 H   0  0  0  0  0  0  0  0  0  0  0  0
   10.4572   -1.5866   24.6047 H   0  0  0  0  0  0  0  0  0  0  0  0
  1  2  1  0
  2  3  1  0
  3  4  1  1
  3  5  1  0
  5  6  1  0
  5  7  1  0
  7  8  2  0
  8  9  1  0
  8 10  1  0
 10 11  2  0
 11 12  1  0
 11 13  1  0
 13 14  1  0
 13 15  2  0
 15 16  1  0
  3 17  1  0
 17 18  1  0
 17 19  1  0
 17 20  1  0
 20 21  1  0
 21 22  1  0
 21 23  1  0
 21 24  1  0
 24 25  1  0
 24 26  1  0
 24 27  1  0
 27 28  1  0
 27 29  1  0
 29 30  1  0
 29 31  1  0
 29 32  1  0
 32 33  1  0
 32 34  1  0
 15  7  1  0
 32 20  1  0
M  END
>  <plip>  (1) 
-0.034482758620689655

>  <filename>  (1) 
[H][O][C@]([H])([N]([H])[c]1[c]([H])[n][c]([H])[c]([H])[c]1[H])[C]([H])([H])[N]1[C]([H])([H])[C]([H])([H])[N]([H])[C]([H])([H])[C]1([H])[H]

$$$$
