
     RDKit          3D

 27 29  0  0  0  0  0  0  0  0999 V2000
    5.0880    1.7462   17.0089 H   0  0  0  0  0  0  0  0  0  0  0  0
    5.5084    1.2374   17.8732 C   0  0  0  0  0  0  0  0  0  0  0  0
    6.6419    0.5533   17.6571 N   0  0  0  0  0  0  0  0  0  0  0  0
    7.1884   -0.0741   18.7021 C   0  0  0  0  0  0  0  0  0  0  0  0
    8.1114   -0.6228   18.5177 H   0  0  0  0  0  0  0  0  0  0  0  0
    6.6323   -0.0558   19.9904 C   0  0  0  0  0  0  0  0  0  0  0  0
    7.2366   -0.8564   21.0476 C   0  0  0  0  0  0  0  0  0  0  0  0
    6.7462   -1.9760   21.5107 N   0  0  0  0  0  0  0  0  0  0  0  0
    7.6125   -2.4196   22.4476 N   0  0  0  0  0  0  0  0  0  0  0  0
    8.6040   -1.6317   22.5786 N   0  0  0  0  0  0  0  0  0  0  0  0
    8.4001   -0.6039   21.7115 N   0  0  0  0  0  0  0  0  0  0  0  0
    9.3231    0.4251   21.4604 C   0  0  0  0  0  0  0  0  0  0  0  0
    9.1812    1.1129   20.4744 O   0  0  0  0  0  0  0  0  0  0  0  0
   10.5106    0.5531   22.3993 C   0  0  0  0  0  0  0  0  0  0  0  0
   11.7437    0.9129   21.8318 C   0  0  0  0  0  0  0  0  0  0  0  0
   11.7939    1.1890   20.7843 H   0  0  0  0  0  0  0  0  0  0  0  0
   12.8838    0.9337   22.6390 C   0  0  0  0  0  0  0  0  0  0  0  0
   13.8504    1.1864   22.2205 H   0  0  0  0  0  0  0  0  0  0  0  0
   12.8754    0.6628   23.9503 N   0  0  0  0  0  0  0  0  0  0  0  0
   11.6894    0.3974   24.5108 C   0  0  0  0  0  0  0  0  0  0  0  0
   11.6972    0.1822   25.5776 H   0  0  0  0  0  0  0  0  0  0  0  0
   10.4873    0.3462   23.7949 C   0  0  0  0  0  0  0  0  0  0  0  0
    9.5665    0.1388   24.3276 H   0  0  0  0  0  0  0  0  0  0  0  0
    5.4244    0.6215   20.1934 C   0  0  0  0  0  0  0  0  0  0  0  0
    4.9403    0.5885   21.1730 H   0  0  0  0  0  0  0  0  0  0  0  0
    4.8614    1.2976   19.1131 C   0  0  0  0  0  0  0  0  0  0  0  0
    3.9362    1.8548   19.2184 H   0  0  0  0  0  0  0  0  0  0  0  0
  1  2  1  0
  2  3  2  0
  3  4  1  0
  4  5  1  0
  4  6  2  0
  6  7  1  0
  7  8  2  0
  8  9  1  0
  9 10  2  0
 10 11  1  0
 11 12  1  0
 12 13  2  0
 12 14  1  0
 14 15  2  0
 15 16  1  0
 15 17  1  0
 17 18  1  0
 17 19  2  0
 19 20  1  0
 20 21  1  0
 20 22  2  0
 22 23  1  0
  6 24  1  0
 24 25  1  0
 24 26  2  0
 26 27  1  0
 26  2  1  0
 11  7  1  0
 22 14  1  0
M  END
>  <plip>  (1) 
-0.10714285714285714

>  <filename>  (1) 
[H][c]1[n][c]([H])[c](-[c]2[n][n][n][n]2[C](=[O])[c]2[c]([H])[c]([H])[n][c]([H])[c]2[H])[c]([H])[c]1[H]

$$$$
