
     RDKit          3D

 39 41  0  0  0  0  0  0  0  0999 V2000
    4.9488    1.8314   16.9660 H   0  0  0  0  0  0  0  0  0  0  0  0
    5.4018    1.3031   17.8023 C   0  0  0  0  0  0  0  0  0  0  0  0
    6.5600    0.6708   17.5564 N   0  0  0  0  0  0  0  0  0  0  0  0
    7.1583    0.0415   18.5738 C   0  0  0  0  0  0  0  0  0  0  0  0
    8.0965   -0.4600   18.3359 H   0  0  0  0  0  0  0  0  0  0  0  0
    6.6464    0.0285   19.8853 C   0  0  0  0  0  0  0  0  0  0  0  0
    7.3941   -0.6165   20.9716 C   0  0  0  0  0  0  0  0  0  0  0  0
    8.0339   -1.7624   20.7718 N   0  0  0  0  0  0  0  0  0  0  0  0
    8.5259   -2.0743   21.9692 N   0  0  0  0  0  0  0  0  0  0  0  0
    8.2943   -1.1867   22.9290 C   0  0  0  0  0  0  0  0  0  0  0  0
    7.5567   -0.1930   22.3250 C   0  0  0  0  0  0  0  0  0  0  0  0
    7.1360    1.0160   23.0140 C   0  0  0  0  0  0  0  0  0  0  0  0
    6.8736    1.0187   24.2084 O   0  0  0  0  0  0  0  0  0  0  0  0
    7.0952    2.1282   22.2451 N   0  0  0  0  0  0  0  0  0  0  0  0
    7.3865    1.9999   21.2910 H   0  0  0  0  0  0  0  0  0  0  0  0
    6.5338    3.3632   22.7546 C   0  0  0  0  0  0  0  0  0  0  0  0
    5.4948    3.1964   23.0702 H   0  0  0  0  0  0  0  0  0  0  0  0
    7.0867    3.6562   23.6536 H   0  0  0  0  0  0  0  0  0  0  0  0
    6.5671    4.4816   21.7234 C   0  0  0  0  0  0  0  0  0  0  0  0
    7.6048    4.7585   21.5137 H   0  0  0  0  0  0  0  0  0  0  0  0
    6.1187    4.1275   20.7815 H   0  0  0  0  0  0  0  0  0  0  0  0
    5.9431    5.6515   22.2142 O   0  0  0  0  0  0  0  0  0  0  0  0
    4.5714    5.8065   21.9298 C   0  0  0  0  0  0  0  0  0  0  0  0
    4.2319    6.6529   22.5325 H   0  0  0  0  0  0  0  0  0  0  0  0
    3.9640    4.9254   22.2002 H   0  0  0  0  0  0  0  0  0  0  0  0
    4.4005    6.0411   20.8683 H   0  0  0  0  0  0  0  0  0  0  0  0
    9.0763   -1.4824   24.1660 C   0  0  0  0  0  0  0  0  0  0  0  0
    9.7255   -0.6347   24.4158 H   0  0  0  0  0  0  0  0  0  0  0  0
    8.4023   -1.6205   25.0152 H   0  0  0  0  0  0  0  0  0  0  0  0
    9.8608   -2.7699   23.7611 C   0  0  0  0  0  0  0  0  0  0  0  0
   10.9336   -2.6105   23.8393 H   0  0  0  0  0  0  0  0  0  0  0  0
    9.5934   -3.6153   24.3928 H   0  0  0  0  0  0  0  0  0  0  0  0
    9.4958   -3.0837   22.2819 C   0  0  0  0  0  0  0  0  0  0  0  0
    9.0515   -4.0706   22.1322 H   0  0  0  0  0  0  0  0  0  0  0  0
   10.3460   -2.9446   21.6117 H   0  0  0  0  0  0  0  0  0  0  0  0
    5.4062    0.6435   20.1061 C   0  0  0  0  0  0  0  0  0  0  0  0
    4.9605    0.6270   21.0992 H   0  0  0  0  0  0  0  0  0  0  0  0
    4.7771    1.3033   19.0519 C   0  0  0  0  0  0  0  0  0  0  0  0
    3.8456    1.8374   19.2017 H   0  0  0  0  0  0  0  0  0  0  0  0
  1  2  1  0
  2  3  2  0
  3  4  1  0
  4  5  1  0
  4  6  2  0
  6  7  1  0
  7  8  2  0
  8  9  1  0
  9 10  1  0
 10 11  2  0
 11 12  1  0
 12 13  2  0
 12 14  1  0
 14 15  1  0
 14 16  1  0
 16 17  1  0
 16 18  1  0
 16 19  1  0
 19 20  1  0
 19 21  1  0
 19 22  1  0
 22 23  1  0
 23 24  1  0
 23 25  1  0
 23 26  1  0
 10 27  1  0
 27 28  1  0
 27 29  1  0
 27 30  1  0
 30 31  1  0
 30 32  1  0
 30 33  1  0
 33 34  1  0
 33 35  1  0
  6 36  1  0
 36 37  1  0
 36 38  2  0
 38 39  1  0
 38  2  1  0
 11  7  1  0
 33  9  1  0
M  END
>  <plip>  (1) 
-0.034482758620689655

>  <filename>  (1) 
[H][c]1[n][c]([H])[c](-[c]2[n][n]3[c]([c]2[C](=[O])[N]([H])[C]([H])([H])[C]([H])([H])[O][C]([H])([H])[H])[C]([H])([H])[C]([H])([H])[C]3([H])[H])[c]([H])[c]1[H]

$$$$
