
     RDKit          3D

 41 42  0  0  0  0  0  0  0  0999 V2000
    8.8088    1.2674   21.4252 C   0  0  0  0  0  0  0  0  0  0  0  0
    7.8733    0.2387   22.0811 C   0  0  0  0  0  0  0  0  0  0  0  0
    8.6666   -0.4915   23.1756 C   0  0  0  0  0  0  0  0  0  0  0  0
    9.0325    0.2241   23.9191 H   0  0  0  0  0  0  0  0  0  0  0  0
    8.0335   -1.2243   23.6844 H   0  0  0  0  0  0  0  0  0  0  0  0
    9.5272   -1.0132   22.7450 H   0  0  0  0  0  0  0  0  0  0  0  0
    7.2995   -0.7561   21.0470 C   0  0  0  0  0  0  0  0  0  0  0  0
    6.3521   -1.6347   21.7050 N   0  0  0  0  0  0  0  0  0  0  0  0
    5.9153   -2.8261   21.1838 C   0  0  0  0  0  0  0  0  0  0  0  0
    5.9570   -3.0441   19.9817 O   0  0  0  0  0  0  0  0  0  0  0  0
    5.3109   -3.8706   22.0948 C   0  0  0  0  0  0  0  0  0  0  0  0
    6.1630   -4.1664   23.3139 C   0  0  0  0  0  0  0  0  0  0  0  0
    5.7896   -3.6625   24.5639 C   0  0  0  0  0  0  0  0  0  0  0  0
    6.5197   -3.9750   25.7220 C   0  0  0  0  0  0  0  0  0  0  0  0
    7.6271   -4.8254   25.6481 C   0  0  0  0  0  0  0  0  0  0  0  0
    8.5882   -5.3318   27.2329 Br  0  0  0  0  0  0  0  0  0  0  0  0
    8.0226   -5.3154   24.3983 C   0  0  0  0  0  0  0  0  0  0  0  0
    7.3207   -4.9631   23.2274 C   0  0  0  0  0  0  0  0  0  0  0  0
    7.8200   -5.3730   21.9504 C   0  0  0  0  0  0  0  0  0  0  0  0
    8.2366   -5.6503   20.8981 N   0  0  0  0  0  0  0  0  0  0  0  0
    8.8812   -5.9826   24.3542 H   0  0  0  0  0  0  0  0  0  0  0  0
    6.2090   -3.5898   26.6894 H   0  0  0  0  0  0  0  0  0  0  0  0
    4.9177   -3.0236   24.6318 H   0  0  0  0  0  0  0  0  0  0  0  0
    4.3223   -3.5295   22.3938 H   0  0  0  0  0  0  0  0  0  0  0  0
    5.1894   -4.7927   21.5271 H   0  0  0  0  0  0  0  0  0  0  0  0
    6.1506   -1.4723   22.6873 H   0  0  0  0  0  0  0  0  0  0  0  0
    6.5844   -0.0397   19.9360 C   0  0  0  0  0  0  0  0  0  0  0  0
    5.3911    0.6538   20.1560 C   0  0  0  0  0  0  0  0  0  0  0  0
    4.8193    1.3175   19.0737 C   0  0  0  0  0  0  0  0  0  0  0  0
    5.4471    1.2767   17.8230 C   0  0  0  0  0  0  0  0  0  0  0  0
    6.5873    0.5964   17.6056 N   0  0  0  0  0  0  0  0  0  0  0  0
    7.1382   -0.0473   18.6500 C   0  0  0  0  0  0  0  0  0  0  0  0
    8.0627   -0.5940   18.4871 H   0  0  0  0  0  0  0  0  0  0  0  0
    4.9942    1.8173   16.9982 H   0  0  0  0  0  0  0  0  0  0  0  0
    3.8981    1.8759   19.1944 H   0  0  0  0  0  0  0  0  0  0  0  0
    4.9273    0.6681   21.1418 H   0  0  0  0  0  0  0  0  0  0  0  0
    8.1338   -1.3422   20.6385 H   0  0  0  0  0  0  0  0  0  0  0  0
    7.0382    0.7728   22.5481 H   0  0  0  0  0  0  0  0  0  0  0  0
    9.6556    0.7681   20.9433 H   0  0  0  0  0  0  0  0  0  0  0  0
    8.2696    1.8489   20.6707 H   0  0  0  0  0  0  0  0  0  0  0  0
    9.1998    1.9600   22.1787 H   0  0  0  0  0  0  0  0  0  0  0  0
  1  2  1  0
  2  3  1  0
  3  4  1  0
  3  5  1  0
  3  6  1  0
  2  7  1  0
  7  8  1  0
  8  9  1  0
  9 10  2  0
  9 11  1  0
 11 12  1  0
 12 13  2  0
 13 14  1  0
 14 15  2  0
 15 16  1  0
 15 17  1  0
 17 18  2  0
 18 19  1  0
 19 20  3  0
 17 21  1  0
 14 22  1  0
 13 23  1  0
 11 24  1  0
 11 25  1  0
  8 26  1  0
  7 27  1  0
 27 28  2  0
 28 29  1  0
 29 30  2  0
 30 31  1  0
 31 32  2  0
 32 33  1  0
 30 34  1  0
 29 35  1  0
 28 36  1  0
  7 37  1  0
  2 38  1  0
  1 39  1  0
  1 40  1  0
  1 41  1  0
 18 12  1  0
 32 27  1  0
M  END
>  <plip>  (1) 
-0.1935483870967742

>  <filename>  (1) 
[H][c]1[n][c]([H])[c]([C]([H])([N]([H])[C](=[O])[C]([H])([H])[c]2[c]([H])[c]([H])[c]([Br])[c]([H])[c]2[C]#[N])[C]([H])([C]([H])([H])[H])[C]([H])([H])[H])[c]([H])[c]1[H]

$$$$
