
     RDKit          3D

 40 42  0  0  0  0  0  0  0  0999 V2000
    9.4477    0.6131   21.0044 C   0  0  0  0  0  0  0  0  0  0  0  0
    8.2863    0.1157   21.8688 C   0  0  0  0  0  0  0  0  0  0  0  0
    7.5264    1.3277   22.4297 C   0  0  0  0  0  0  0  0  0  0  0  0
    6.6715    0.9964   23.0249 H   0  0  0  0  0  0  0  0  0  0  0  0
    8.1871    1.9235   23.0661 H   0  0  0  0  0  0  0  0  0  0  0  0
    7.1589    1.9725   21.6248 H   0  0  0  0  0  0  0  0  0  0  0  0
    7.3860   -0.8213   21.0380 C   0  0  0  0  0  0  0  0  0  0  0  0
    6.4689   -1.5507   21.9010 N   0  0  0  0  0  0  0  0  0  0  0  0
    5.8509   -2.7335   21.5283 C   0  0  0  0  0  0  0  0  0  0  0  0
    6.0236   -3.1234   20.3777 O   0  0  0  0  0  0  0  0  0  0  0  0
    4.9720   -3.4926   22.4653 C   0  0  0  0  0  0  0  0  0  0  0  0
    4.7086   -3.2249   23.7970 C   0  0  0  0  0  0  0  0  0  0  0  0
    3.7113   -4.0892   24.1848 N   0  0  0  0  0  0  0  0  0  0  0  0
    2.8795   -4.0415   25.3069 C   0  0  0  0  0  0  0  0  0  0  0  0
    1.7408   -4.8355   25.3194 C   0  0  0  0  0  0  0  0  0  0  0  0
    1.4708   -5.7836   24.2257 C   0  0  0  0  0  0  0  0  0  0  0  0
   -0.0324   -6.9621   24.3232 Br  0  0  0  0  0  0  0  0  0  0  0  0
    2.3186   -5.8211   23.1358 C   0  0  0  0  0  0  0  0  0  0  0  0
    3.4275   -4.8789   23.0908 C   0  0  0  0  0  0  0  0  0  0  0  0
    4.1856   -4.5781   22.0688 N   0  0  0  0  0  0  0  0  0  0  0  0
    2.1553   -6.4946   22.3017 H   0  0  0  0  0  0  0  0  0  0  0  0
    1.0179   -4.7641   26.1237 H   0  0  0  0  0  0  0  0  0  0  0  0
    3.0920   -3.3501   26.1146 H   0  0  0  0  0  0  0  0  0  0  0  0
    5.1267   -2.4310   24.4061 H   0  0  0  0  0  0  0  0  0  0  0  0
    6.2649   -1.1842   22.8222 H   0  0  0  0  0  0  0  0  0  0  0  0
    6.6350   -0.0708   19.9626 C   0  0  0  0  0  0  0  0  0  0  0  0
    5.4435    0.6246   20.2002 C   0  0  0  0  0  0  0  0  0  0  0  0
    4.8570    1.2995   19.1299 C   0  0  0  0  0  0  0  0  0  0  0  0
    5.4661    1.2772   17.8727 C   0  0  0  0  0  0  0  0  0  0  0  0
    6.6155    0.6207   17.6463 N   0  0  0  0  0  0  0  0  0  0  0  0
    7.1806   -0.0338   18.6741 C   0  0  0  0  0  0  0  0  0  0  0  0
    8.1187   -0.5469   18.4886 H   0  0  0  0  0  0  0  0  0  0  0  0
    4.9969    1.8071   17.0492 H   0  0  0  0  0  0  0  0  0  0  0  0
    3.9362    1.8543   19.2571 H   0  0  0  0  0  0  0  0  0  0  0  0
    4.9918    0.6459   21.1897 H   0  0  0  0  0  0  0  0  0  0  0  0
    8.0437   -1.5594   20.5633 H   0  0  0  0  0  0  0  0  0  0  0  0
    8.7037   -0.4537   22.7063 H   0  0  0  0  0  0  0  0  0  0  0  0
    9.0592    1.1666   20.1492 H   0  0  0  0  0  0  0  0  0  0  0  0
   10.0461   -0.2247   20.6371 H   0  0  0  0  0  0  0  0  0  0  0  0
   10.1029    1.2717   21.5785 H   0  0  0  0  0  0  0  0  0  0  0  0
  1  2  1  0
  2  3  1  0
  3  4  1  0
  3  5  1  0
  3  6  1  0
  2  7  1  0
  7  8  1  0
  8  9  1  0
  9 10  2  0
  9 11  1  0
 11 12  2  0
 12 13  1  0
 13 14  1  0
 14 15  2  0
 15 16  1  0
 16 17  1  0
 16 18  2  0
 18 19  1  0
 19 20  2  0
 18 21  1  0
 15 22  1  0
 14 23  1  0
 12 24  1  0
  8 25  1  0
  7 26  1  0
 26 27  2  0
 27 28  1  0
 28 29  2  0
 29 30  1  0
 30 31  2  0
 31 32  1  0
 29 33  1  0
 28 34  1  0
 27 35  1  0
  7 36  1  0
  2 37  1  0
  1 38  1  0
  1 39  1  0
  1 40  1  0
 20 11  1  0
 31 26  1  0
 19 13  1  0
M  END
>  <plip>  (1) 
-0.10714285714285714

>  <filename>  (1) 
[H][c]1[n][c]([H])[c]([C]([H])([N]([H])[C](=[O])[c]2[n][c]3[c]([H])[c]([Br])[c]([H])[c]([H])[n]3[c]2[H])[C]([H])([C]([H])([H])[H])[C]([H])([H])[H])[c]([H])[c]1[H]

$$$$
