
     RDKit          3D

 52 54  0  0  0  0  0  0  0  0999 V2000
   11.8589    2.0454   22.9681 C   0  0  0  0  0  0  0  0  0  0  0  0
   10.6091    1.5550   23.6912 C   0  0  0  0  0  0  0  0  0  0  0  0
   10.4947    2.1387   25.0927 C   0  0  0  0  0  0  0  0  0  0  0  0
    9.4617    1.4679   25.9714 C   0  0  0  0  0  0  0  0  0  0  0  0
    8.2377    2.0698   26.3039 C   0  0  0  0  0  0  0  0  0  0  0  0
    7.2828    1.4058   27.0857 C   0  0  0  0  0  0  0  0  0  0  0  0
    7.5465    0.1164   27.5642 C   0  0  0  0  0  0  0  0  0  0  0  0
    8.7733   -0.4982   27.2731 C   0  0  0  0  0  0  0  0  0  0  0  0
    9.7002    0.1867   26.4925 C   0  0  0  0  0  0  0  0  0  0  0  0
   10.8866   -0.3993   26.2325 F   0  0  0  0  0  0  0  0  0  0  0  0
    9.0363   -1.4869   27.6347 H   0  0  0  0  0  0  0  0  0  0  0  0
    6.8041   -0.4031   28.1712 H   0  0  0  0  0  0  0  0  0  0  0  0
    6.3410    1.8984   27.3168 H   0  0  0  0  0  0  0  0  0  0  0  0
    8.0502    3.0839   25.9488 H   0  0  0  0  0  0  0  0  0  0  0  0
   10.2787    3.2111   24.9846 H   0  0  0  0  0  0  0  0  0  0  0  0
   11.4778    2.0339   25.5538 H   0  0  0  0  0  0  0  0  0  0  0  0
    9.3721    1.9777   22.9332 N   0  0  0  0  0  4  0  0  0  0  0  0
    8.9995    1.0979   21.8116 C   0  0  0  0  0  0  0  0  0  0  0  0
    7.8142    0.1918   22.1675 C   0  0  2  0  0  0  0  0  0  0  0  0
    8.0318   -0.8023   23.3227 C   0  0  0  0  0  0  0  0  0  0  0  0
    7.0927   -1.9971   23.0347 C   0  0  0  0  0  0  0  0  0  0  0  0
    6.6720   -1.8416   21.5883 N   0  0  0  0  0  4  0  0  0  0  0  0
    6.7492   -3.0926   20.7829 C   0  0  0  0  0  0  0  0  0  0  0  0
    7.7954   -3.4407   20.7359 H   0  0  0  0  0  0  0  0  0  0  0  0
    6.4189   -2.9074   19.7555 H   0  0  0  0  0  0  0  0  0  0  0  0
    6.1515   -3.9058   21.2102 H   0  0  0  0  0  0  0  0  0  0  0  0
    7.4621   -0.6933   20.9720 C   0  0  1  0  0  0  0  0  0  0  0  0
    6.6566   -0.0125   19.8951 C   0  0  0  0  0  0  0  0  0  0  0  0
    5.4299    0.6336   20.1415 C   0  0  0  0  0  0  0  0  0  0  0  0
    4.7974    1.3054   19.0928 C   0  0  0  0  0  0  0  0  0  0  0  0
    5.3959    1.2936   17.8301 C   0  0  0  0  0  0  0  0  0  0  0  0
    6.5545    0.6720   17.5737 N   0  0  0  0  0  0  0  0  0  0  0  0
    7.1592    0.0459   18.5898 C   0  0  0  0  0  0  0  0  0  0  0  0
    8.1114   -0.4280   18.3462 H   0  0  0  0  0  0  0  0  0  0  0  0
    4.9306    1.8103   16.9889 H   0  0  0  0  0  0  0  0  0  0  0  0
    3.8677    1.8479   19.2353 H   0  0  0  0  0  0  0  0  0  0  0  0
    4.9843    0.6437   21.1390 H   0  0  0  0  0  0  0  0  0  0  0  0
    8.3769   -1.1199   20.5350 H   0  0  0  0  0  0  0  0  0  0  0  0
    5.7018   -1.4401   21.5461 H   0  0  0  0  0  0  0  0  0  0  0  0
    7.5867   -2.9653   23.1664 H   0  0  0  0  0  0  0  0  0  0  0  0
    6.2067   -2.0158   23.6779 H   0  0  0  0  0  0  0  0  0  0  0  0
    7.8535   -0.3561   24.3079 H   0  0  0  0  0  0  0  0  0  0  0  0
    9.0708   -1.1548   23.3312 H   0  0  0  0  0  0  0  0  0  0  0  0
    6.9474    0.8290   22.4073 H   0  0  0  0  0  0  0  0  0  0  0  0
    8.7677    1.6832   20.9151 H   0  0  0  0  0  0  0  0  0  0  0  0
    9.8605    0.4557   21.5637 H   0  0  0  0  0  0  0  0  0  0  0  0
    9.5635    2.9656   22.6223 H   0  0  0  0  0  0  0  0  0  0  0  0
    8.5813    2.0175   23.6212 H   0  0  0  0  0  0  0  0  0  0  0  0
   10.6135    0.4588   23.7523 H   0  0  0  0  0  0  0  0  0  0  0  0
   12.7621    1.7094   23.4845 H   0  0  0  0  0  0  0  0  0  0  0  0
   11.8971    1.6741   21.9383 H   0  0  0  0  0  0  0  0  0  0  0  0
   11.8842    3.1431   22.9372 H   0  0  0  0  0  0  0  0  0  0  0  0
  1  2  1  0
  2  3  1  0
  3  4  1  0
  4  5  2  0
  5  6  1  0
  6  7  2  0
  7  8  1  0
  8  9  2  0
  9 10  1  0
  8 11  1  0
  7 12  1  0
  6 13  1  0
  5 14  1  0
  3 15  1  0
  3 16  1  0
  2 17  1  0
 17 18  1  0
 18 19  1  0
 19 20  1  0
 20 21  1  0
 21 22  1  0
 22 23  1  0
 23 24  1  0
 23 25  1  0
 23 26  1  0
 22 27  1  0
 27 28  1  0
 28 29  2  0
 29 30  1  0
 30 31  2  0
 31 32  1  0
 32 33  2  0
 33 34  1  0
 31 35  1  0
 30 36  1  0
 29 37  1  0
 27 38  1  6
 22 39  1  0
 21 40  1  0
 21 41  1  0
 20 42  1  0
 20 43  1  0
 19 44  1  1
 18 45  1  0
 18 46  1  0
 17 47  1  0
 17 48  1  0
  2 49  1  0
  1 50  1  0
  1 51  1  0
  1 52  1  0
  9  4  1  0
 27 19  1  0
 33 28  1  0
M  CHG  2  17   1  22   1
M  END
>  <plip>  (1) 
-0.10344827586206896

>  <filename>  (1) 
[H][c]1[n][c]([H])[c]([C@@]2([H])[C@]([H])([C]([H])([H])[N+]([H])([H])[C]([H])([C]([H])([H])[H])[C]([H])([H])[c]3[c]([H])[c]([H])[c]([H])[c]([H])[c]3[F])[C]([H])([H])[C]([H])([H])[N+]2([H])[C]([H])([H])[H])[c]([H])[c]1[H]

$$$$
