
     RDKit          3D

 31 33  0  0  0  0  0  0  0  0999 V2000
    5.0944    1.7752   17.0034 H   0  0  0  0  0  0  0  0  0  0  0  0
    5.5044    1.2471   17.8623 C   0  0  0  0  0  0  0  0  0  0  0  0
    6.6518    0.5841   17.6558 N   0  0  0  0  0  0  0  0  0  0  0  0
    7.1669   -0.0867   18.6957 C   0  0  0  0  0  0  0  0  0  0  0  0
    8.1142   -0.5959   18.5115 H   0  0  0  0  0  0  0  0  0  0  0  0
    6.5718   -0.1468   19.9616 C   0  0  0  0  0  0  0  0  0  0  0  0
    7.2176   -0.9227   21.1018 C   0  0  0  0  0  0  0  0  0  0  0  0
    6.5363   -2.2701   21.4694 C   0  0  1  0  0  0  0  0  0  0  0  0
    5.5052   -2.0059   21.7455 H   0  0  0  0  0  0  0  0  0  0  0  0
    6.4827   -3.2358   20.4263 O   0  0  0  0  0  0  0  0  0  0  0  0
    7.0052   -4.4783   20.8815 C   0  0  0  0  0  0  0  0  0  0  0  0
    6.4461   -5.2744   20.3879 H   0  0  0  0  0  0  0  0  0  0  0  0
    8.0544   -4.5678   20.5727 H   0  0  0  0  0  0  0  0  0  0  0  0
    6.8869   -4.4407   22.3984 C   0  0  0  0  0  0  0  0  0  0  0  0
    5.8601   -4.6636   22.7059 H   0  0  0  0  0  0  0  0  0  0  0  0
    7.5542   -5.1544   22.8876 H   0  0  0  0  0  0  0  0  0  0  0  0
    7.2232   -2.9787   22.6669 C   0  0  0  0  0  0  0  0  0  0  0  0
    8.3088   -2.8256   22.6548 H   0  0  0  0  0  0  0  0  0  0  0  0
    6.8672   -2.5905   23.6234 H   0  0  0  0  0  0  0  0  0  0  0  0
    8.6015   -1.0881   20.8476 O   0  0  0  0  0  0  0  0  0  0  0  0
    9.3338   -0.1269   21.6000 C   0  0  0  0  0  0  0  0  0  0  0  0
   10.0408   -0.6606   22.2435 H   0  0  0  0  0  0  0  0  0  0  0  0
    9.8813    0.5364   20.9218 H   0  0  0  0  0  0  0  0  0  0  0  0
    8.2783    0.6336   22.4132 C   0  0  0  0  0  0  0  0  0  0  0  0
    8.5301    0.7206   23.4750 H   0  0  0  0  0  0  0  0  0  0  0  0
    8.0780    1.6316   22.0024 H   0  0  0  0  0  0  0  0  0  0  0  0
    7.1276   -0.1789   22.3097 O   0  0  0  0  0  0  0  0  0  0  0  0
    5.3843    0.5770   20.1651 C   0  0  0  0  0  0  0  0  0  0  0  0
    4.9352    0.6229   21.1576 H   0  0  0  0  0  0  0  0  0  0  0  0
    4.8371    1.2760   19.0917 C   0  0  0  0  0  0  0  0  0  0  0  0
    3.9224    1.8490   19.2001 H   0  0  0  0  0  0  0  0  0  0  0  0
  1  2  1  0
  2  3  2  0
  3  4  1  0
  4  5  1  0
  4  6  2  0
  6  7  1  0
  7  8  1  0
  8  9  1  1
  8 10  1  0
 10 11  1  0
 11 12  1  0
 11 13  1  0
 11 14  1  0
 14 15  1  0
 14 16  1  0
 14 17  1  0
 17 18  1  0
 17 19  1  0
  7 20  1  0
 20 21  1  0
 21 22  1  0
 21 23  1  0
 21 24  1  0
 24 25  1  0
 24 26  1  0
 24 27  1  0
  6 28  1  0
 28 29  1  0
 28 30  2  0
 30 31  1  0
 30  2  1  0
 27  7  1  0
 17  8  1  0
M  END
>  <plip>  (1) 
-0.07142857142857142

>  <filename>  (1) 
[H][c]1[n][c]([H])[c]([C]2([C@@]3([H])[O][C]([H])([H])[C]([H])([H])[C]3([H])[H])[O][C]([H])([H])[C]([H])([H])[O]2)[c]([H])[c]1[H]

$$$$
