
     RDKit          3D

 37 38  0  0  0  0  0  0  0  0999 V2000
    4.9417    1.7756   16.9975 H   0  0  0  0  0  0  0  0  0  0  0  0
    5.4081    1.2892   17.8488 C   0  0  0  0  0  0  0  0  0  0  0  0
    6.5738    0.6683   17.6079 N   0  0  0  0  0  0  0  0  0  0  0  0
    7.1753    0.0601   18.6329 C   0  0  0  0  0  0  0  0  0  0  0  0
    8.1088   -0.4477   18.3925 H   0  0  0  0  0  0  0  0  0  0  0  0
    6.6627    0.0606   19.9310 C   0  0  0  0  0  0  0  0  0  0  0  0
    7.4110   -0.6904   20.9505 C   0  0  0  0  0  0  0  0  0  0  0  0
    7.8711   -1.8614   20.7253 N   0  0  0  0  0  0  0  0  0  0  0  0
    8.4407   -2.3603   21.9783 C   0  0  0  0  0  0  0  0  0  0  0  0
    7.9500   -3.2942   22.2861 H   0  0  0  0  0  0  0  0  0  0  0  0
    9.4958   -2.6040   21.8112 H   0  0  0  0  0  0  0  0  0  0  0  0
    8.2595   -1.2361   23.0254 C   0  0  0  0  0  0  0  0  0  0  0  0
    7.6597   -1.5548   23.8925 H   0  0  0  0  0  0  0  0  0  0  0  0
    9.2162   -0.8570   23.4127 H   0  0  0  0  0  0  0  0  0  0  0  0
    7.5625   -0.2188   22.2360 N   0  0  0  0  0  0  0  0  0  0  0  0
    7.5904    1.1564   22.6439 C   0  0  0  0  0  0  0  0  0  0  0  0
    7.1595    1.2007   23.6512 H   0  0  0  0  0  0  0  0  0  0  0  0
    6.9414    1.7633   21.9888 H   0  0  0  0  0  0  0  0  0  0  0  0
    8.9340    1.7059   22.6980 N   0  0  0  0  0  0  0  0  0  0  0  0
    9.0798    2.7913   23.6833 C   0  0  0  0  0  0  0  0  0  0  0  0
   10.1491    2.9969   23.8103 H   0  0  0  0  0  0  0  0  0  0  0  0
    8.7464    2.4209   24.6641 H   0  0  0  0  0  0  0  0  0  0  0  0
    8.3507    4.1036   23.3559 C   0  0  0  0  0  0  0  0  0  0  0  0
    8.7781    4.5883   22.4696 H   0  0  0  0  0  0  0  0  0  0  0  0
    7.2908    3.9192   23.1484 H   0  0  0  0  0  0  0  0  0  0  0  0
    8.4088    4.8158   24.1883 H   0  0  0  0  0  0  0  0  0  0  0  0
    9.4441    2.0311   21.3618 C   0  0  0  0  0  0  0  0  0  0  0  0
    9.2461    1.1733   20.7082 H   0  0  0  0  0  0  0  0  0  0  0  0
    8.9032    2.8838   20.9053 H   0  0  0  0  0  0  0  0  0  0  0  0
   10.9391    2.3246   21.3541 C   0  0  0  0  0  0  0  0  0  0  0  0
   11.1846    3.2948   21.8031 H   0  0  0  0  0  0  0  0  0  0  0  0
   11.3114    2.3467   20.3255 H   0  0  0  0  0  0  0  0  0  0  0  0
   11.4872    1.5497   21.8981 H   0  0  0  0  0  0  0  0  0  0  0  0
    5.4283    0.6796   20.1757 C   0  0  0  0  0  0  0  0  0  0  0  0
    4.9760    0.6472   21.1696 H   0  0  0  0  0  0  0  0  0  0  0  0
    4.8001    1.3109   19.1063 C   0  0  0  0  0  0  0  0  0  0  0  0
    3.8697    1.8422   19.2467 H   0  0  0  0  0  0  0  0  0  0  0  0
  1  2  1  0
  2  3  2  0
  3  4  1  0
  4  5  1  0
  4  6  2  0
  6  7  1  0
  7  8  2  0
  8  9  1  0
  9 10  1  0
  9 11  1  0
  9 12  1  0
 12 13  1  0
 12 14  1  0
 12 15  1  0
 15 16  1  0
 16 17  1  0
 16 18  1  0
 16 19  1  0
 19 20  1  0
 20 21  1  0
 20 22  1  0
 20 23  1  0
 23 24  1  0
 23 25  1  0
 23 26  1  0
 19 27  1  0
 27 28  1  0
 27 29  1  0
 27 30  1  0
 30 31  1  0
 30 32  1  0
 30 33  1  0
  6 34  1  0
 34 35  1  0
 34 36  2  0
 36 37  1  0
 36  2  1  0
 15  7  1  0
M  END
>  <plip>  (1) 
-0.03571428571428571

>  <filename>  (1) 
[H][c]1[n][c]([H])[c]([C]2=[N][C]([H])([H])[C]([H])([H])[N]2[C]([H])([H])[N]([C]([H])([H])[C]([H])([H])[H])[C]([H])([H])[C]([H])([H])[H])[c]([H])[c]1[H]

$$$$
