
     RDKit          3D

 33 35  0  0  0  0  0  0  0  0999 V2000
    4.9485    1.8218   16.9976 H   0  0  0  0  0  0  0  0  0  0  0  0
    5.3931    1.2850   17.8319 C   0  0  0  0  0  0  0  0  0  0  0  0
    6.5456    0.6483   17.5778 N   0  0  0  0  0  0  0  0  0  0  0  0
    7.1393    0.0336   18.6027 C   0  0  0  0  0  0  0  0  0  0  0  0
    8.0996   -0.4419   18.4022 H   0  0  0  0  0  0  0  0  0  0  0  0
    6.6041   -0.0237   19.9037 C   0  0  0  0  0  0  0  0  0  0  0  0
    7.3278   -0.7589   20.9720 C   0  0  0  0  0  0  0  0  0  0  0  0
    6.5912   -1.5546   21.7306 N   0  0  0  0  0  0  0  0  0  0  0  0
    7.1690   -2.2228   22.6977 N   0  0  0  0  0  0  0  0  0  0  0  0
    6.2830   -2.8734   23.4819 O   0  0  0  0  0  0  0  0  0  0  0  0
    6.7226   -3.5702   24.6876 C   0  0  0  0  0  0  0  0  0  0  0  0
    7.5585   -4.2484   24.4699 H   0  0  0  0  0  0  0  0  0  0  0  0
    5.8483   -4.1980   24.8553 H   0  0  0  0  0  0  0  0  0  0  0  0
    7.0037   -2.6432   25.8566 C   0  0  0  0  0  0  0  0  0  0  0  0
    6.0651   -1.6488   26.1759 C   0  0  0  0  0  0  0  0  0  0  0  0
    5.1173   -1.6292   25.6447 H   0  0  0  0  0  0  0  0  0  0  0  0
    6.2516   -0.7014   27.0992 N   0  0  0  0  0  0  0  0  0  0  0  0
    7.4371   -0.6739   27.7191 C   0  0  0  0  0  0  0  0  0  0  0  0
    7.5703    0.1128   28.4622 H   0  0  0  0  0  0  0  0  0  0  0  0
    8.4484   -1.6086   27.4837 C   0  0  0  0  0  0  0  0  0  0  0  0
    9.4056   -1.5272   27.9911 H   0  0  0  0  0  0  0  0  0  0  0  0
    8.2040   -2.6389   26.5771 C   0  0  0  0  0  0  0  0  0  0  0  0
    8.9327   -3.4410   26.4551 H   0  0  0  0  0  0  0  0  0  0  0  0
    8.5031   -2.1435   23.0165 C   0  0  0  0  0  0  0  0  0  0  0  0
    8.7793   -2.7536   23.8653 H   0  0  0  0  0  0  0  0  0  0  0  0
    9.3460   -1.3802   22.2999 C   0  0  0  0  0  0  0  0  0  0  0  0
   10.4004   -1.2919   22.5109 H   0  0  0  0  0  0  0  0  0  0  0  0
    8.8219   -0.5788   21.2003 C   0  0  0  0  0  0  0  0  0  0  0  0
    9.5501    0.1595   20.5418 O   0  0  0  0  0  0  0  0  0  0  0  0
    5.3833    0.6273   20.1429 C   0  0  0  0  0  0  0  0  0  0  0  0
    4.9367    0.6037   21.1394 H   0  0  0  0  0  0  0  0  0  0  0  0
    4.7740    1.3065   19.0874 C   0  0  0  0  0  0  0  0  0  0  0  0
    3.8593    1.8748   19.2293 H   0  0  0  0  0  0  0  0  0  0  0  0
  1  2  1  0
  2  3  2  0
  3  4  1  0
  4  5  1  0
  4  6  2  0
  6  7  1  0
  7  8  2  0
  8  9  1  0
  9 10  1  0
 10 11  1  0
 11 12  1  0
 11 13  1  0
 11 14  1  0
 14 15  2  0
 15 16  1  0
 15 17  1  0
 17 18  2  0
 18 19  1  0
 18 20  1  0
 20 21  1  0
 20 22  2  0
 22 23  1  0
  9 24  1  0
 24 25  1  0
 24 26  2  0
 26 27  1  0
 26 28  1  0
 28 29  2  0
  6 30  1  0
 30 31  1  0
 30 32  2  0
 32 33  1  0
 32  2  1  0
 28  7  1  0
 22 14  1  0
M  END
>  <plip>  (1) 
-0.03571428571428571

>  <filename>  (1) 
[H][c]1[n][c]([H])[c](-[c]2[n][n]([O][C]([H])([H])[c]3[c]([H])[n][c]([H])[c]([H])[c]3[H])[c]([H])[c]([H])[c]2=[O])[c]([H])[c]1[H]

$$$$
