
     RDKit          3D

 35 37  0  0  0  0  0  0  0  0999 V2000
    2.2700   -6.6305   23.9940 F   0  0  0  0  0  0  0  0  0  0  0  0
    3.2087   -5.6746   24.0523 C   0  0  0  0  0  0  0  0  0  0  0  0
    3.8945   -5.4664   25.2412 C   0  0  0  0  0  0  0  0  0  0  0  0
    4.8453   -4.4462   25.2748 C   0  0  0  0  0  0  0  0  0  0  0  0
    5.1010   -3.6176   24.1726 C   0  0  0  0  0  0  0  0  0  0  0  0
    6.1331   -2.5019   24.3165 C   0  0  0  0  0  0  0  0  0  0  0  0
    7.4762   -2.8456   23.8642 N   0  0  0  0  0  0  0  0  0  0  0  0
    8.4946   -3.3064   24.6725 C   0  0  0  0  0  0  0  0  0  0  0  0
    9.4621   -3.7466   23.8253 C   0  0  0  0  0  0  0  0  0  0  0  0
    9.0972   -3.5466   22.5206 N   0  0  0  0  0  0  0  0  0  0  0  0
    7.9145   -2.9824   22.5634 C   0  0  0  0  0  0  0  0  0  0  0  0
    6.9993   -2.4576   21.1351 S   0  0  0  0  0  0  0  0  0  0  0  0
    7.4646   -0.6722   20.9737 C   0  0  0  0  0  0  0  0  0  0  0  0
    6.6689   -0.0074   19.8687 C   0  0  0  0  0  0  0  0  0  0  0  0
    5.4522    0.6523   20.1074 C   0  0  0  0  0  0  0  0  0  0  0  0
    4.8122    1.3076   19.0517 C   0  0  0  0  0  0  0  0  0  0  0  0
    5.4147    1.2940   17.7910 C   0  0  0  0  0  0  0  0  0  0  0  0
    6.5701    0.6636   17.5303 N   0  0  0  0  0  0  0  0  0  0  0  0
    7.1658    0.0364   18.5526 C   0  0  0  0  0  0  0  0  0  0  0  0
    8.1099   -0.4557   18.3143 H   0  0  0  0  0  0  0  0  0  0  0  0
    4.9524    1.8083   16.9511 H   0  0  0  0  0  0  0  0  0  0  0  0
    3.8772    1.8404   19.1975 H   0  0  0  0  0  0  0  0  0  0  0  0
    5.0145    0.6651   21.1080 H   0  0  0  0  0  0  0  0  0  0  0  0
    8.5401   -0.6089   20.7689 H   0  0  0  0  0  0  0  0  0  0  0  0
    7.2718   -0.1824   21.9341 H   0  0  0  0  0  0  0  0  0  0  0  0
   10.3972   -4.2210   24.0902 H   0  0  0  0  0  0  0  0  0  0  0  0
    8.4648   -3.2307   25.7542 H   0  0  0  0  0  0  0  0  0  0  0  0
    5.8560   -1.5789   23.8105 H   0  0  0  0  0  0  0  0  0  0  0  0
    6.2116   -2.2325   25.3731 H   0  0  0  0  0  0  0  0  0  0  0  0
    4.3934   -3.8691   22.9869 C   0  0  0  0  0  0  0  0  0  0  0  0
    3.4560   -4.9065   22.9199 C   0  0  0  0  0  0  0  0  0  0  0  0
    2.8911   -5.1408   22.0298 H   0  0  0  0  0  0  0  0  0  0  0  0
    4.5473   -3.2420   22.1134 H   0  0  0  0  0  0  0  0  0  0  0  0
    5.4216   -4.2896   26.1787 H   0  0  0  0  0  0  0  0  0  0  0  0
    3.6889   -6.0820   26.1075 H   0  0  0  0  0  0  0  0  0  0  0  0
  1  2  1  0
  2  3  2  0
  3  4  1  0
  4  5  2  0
  5  6  1  0
  6  7  1  0
  7  8  1  0
  8  9  2  0
  9 10  1  0
 10 11  2  0
 11 12  1  0
 12 13  1  0
 13 14  1  0
 14 15  2  0
 15 16  1  0
 16 17  2  0
 17 18  1  0
 18 19  2  0
 19 20  1  0
 17 21  1  0
 16 22  1  0
 15 23  1  0
 13 24  1  0
 13 25  1  0
  9 26  1  0
  8 27  1  0
  6 28  1  0
  6 29  1  0
  5 30  1  0
 30 31  2  0
 31 32  1  0
 30 33  1  0
  4 34  1  0
  3 35  1  0
 31  2  1  0
 11  7  1  0
 19 14  1  0
M  END
>  <plip>  (1) 
-0.034482758620689655

>  <filename>  (1) 
[H][c]1[n][c]([H])[c]([C]([H])([H])[S][c]2[n][c]([H])[c]([H])[n]2[C]([H])([H])[c]2[c]([H])[c]([H])[c]([F])[c]([H])[c]2[H])[c]([H])[c]1[H]

$$$$
