
     RDKit          3D

 45 47  0  0  0  0  0  0  0  0999 V2000
    9.5314    2.0601   22.1093 C   0  0  0  0  0  0  0  0  0  0  0  0
    8.9669    1.0473   21.3090 O   0  0  0  0  0  0  0  0  0  0  0  0
    8.0097    0.2609   21.9839 C   0  0  0  0  0  0  0  0  0  0  0  0
    7.3806   -0.7338   20.9931 C   0  0  1  0  0  0  0  0  0  0  0  0
    6.5783   -1.7096   21.7253 N   0  0  0  0  0  0  0  0  0  0  0  0
    5.9774   -2.7788   21.1149 C   0  0  0  0  0  0  0  0  0  0  0  0
    6.1047   -3.0226   19.9322 O   0  0  0  0  0  0  0  0  0  0  0  0
    5.1689   -3.6637   22.0440 C   0  0  0  0  0  0  0  0  0  0  0  0
    5.9915   -4.6174   22.9316 C   0  0  0  0  0  0  0  0  0  0  0  0
    5.1444   -5.4784   23.7321 N   0  0  0  0  0  0  0  0  0  0  0  0
    4.5043   -6.5862   23.1221 N   0  0  0  0  0  0  0  0  0  0  0  0
    3.6563   -7.1791   24.0830 C   0  0  0  0  0  0  0  0  0  0  0  0
    3.2731   -8.3230   23.9796 O   0  0  0  0  0  0  0  0  0  0  0  0
    3.4725   -6.1464   25.1157 C   0  0  0  0  0  0  0  0  0  0  0  0
    2.6239   -6.0705   26.2283 C   0  0  0  0  0  0  0  0  0  0  0  0
    2.6230   -4.8997   26.9765 C   0  0  0  0  0  0  0  0  0  0  0  0
    3.4600   -3.8193   26.6221 C   0  0  0  0  0  0  0  0  0  0  0  0
    4.3333   -3.8991   25.5397 C   0  0  0  0  0  0  0  0  0  0  0  0
    4.3583   -5.0974   24.7972 C   0  0  0  0  0  0  0  0  0  0  0  0
    4.9540   -3.0509   25.2680 H   0  0  0  0  0  0  0  0  0  0  0  0
    3.4217   -2.9042   27.2070 H   0  0  0  0  0  0  0  0  0  0  0  0
    1.9687   -4.8110   27.8384 H   0  0  0  0  0  0  0  0  0  0  0  0
    1.9886   -6.9175   26.4810 H   0  0  0  0  0  0  0  0  0  0  0  0
    5.1069   -7.2959   22.7170 H   0  0  0  0  0  0  0  0  0  0  0  0
    6.6295   -4.0776   23.6388 H   0  0  0  0  0  0  0  0  0  0  0  0
    6.6407   -5.2698   22.3326 H   0  0  0  0  0  0  0  0  0  0  0  0
    4.5344   -4.2900   21.4274 H   0  0  0  0  0  0  0  0  0  0  0  0
    4.5215   -3.0527   22.6818 H   0  0  0  0  0  0  0  0  0  0  0  0
    6.1501   -1.4155   22.5887 H   0  0  0  0  0  0  0  0  0  0  0  0
    6.6031   -0.0399   19.8855 C   0  0  0  0  0  0  0  0  0  0  0  0
    5.3945    0.6322   20.1083 C   0  0  0  0  0  0  0  0  0  0  0  0
    4.7961    1.3156   19.0470 C   0  0  0  0  0  0  0  0  0  0  0  0
    5.4284    1.3010   17.7960 C   0  0  0  0  0  0  0  0  0  0  0  0
    6.5780    0.6554   17.5550 N   0  0  0  0  0  0  0  0  0  0  0  0
    7.1315    0.0035   18.5899 C   0  0  0  0  0  0  0  0  0  0  0  0
    8.0657   -0.5162   18.3710 H   0  0  0  0  0  0  0  0  0  0  0  0
    4.9910    1.8282   16.9489 H   0  0  0  0  0  0  0  0  0  0  0  0
    3.8668    1.8604   19.1763 H   0  0  0  0  0  0  0  0  0  0  0  0
    4.9268    0.6224   21.0964 H   0  0  0  0  0  0  0  0  0  0  0  0
    8.2126   -1.2665   20.5231 H   0  0  0  0  0  0  0  0  0  0  0  0
    7.2131    0.8917   22.4211 H   0  0  0  0  0  0  0  0  0  0  0  0
    8.4798   -0.3103   22.8026 H   0  0  0  0  0  0  0  0  0  0  0  0
   10.2352    2.6127   21.4842 H   0  0  0  0  0  0  0  0  0  0  0  0
    8.7741    2.7667   22.4843 H   0  0  0  0  0  0  0  0  0  0  0  0
   10.0769    1.6499   22.9738 H   0  0  0  0  0  0  0  0  0  0  0  0
  1  2  1  0
  2  3  1  0
  3  4  1  0
  4  5  1  0
  5  6  1  0
  6  7  2  0
  6  8  1  0
  8  9  1  0
  9 10  1  0
 10 11  1  0
 11 12  1  0
 12 13  2  0
 12 14  1  0
 14 15  2  0
 15 16  1  0
 16 17  2  0
 17 18  1  0
 18 19  2  0
 18 20  1  0
 17 21  1  0
 16 22  1  0
 15 23  1  0
 11 24  1  0
  9 25  1  0
  9 26  1  0
  8 27  1  0
  8 28  1  0
  5 29  1  0
  4 30  1  0
 30 31  2  0
 31 32  1  0
 32 33  2  0
 33 34  1  0
 34 35  2  0
 35 36  1  0
 33 37  1  0
 32 38  1  0
 31 39  1  0
  4 40  1  6
  3 41  1  0
  3 42  1  0
  1 43  1  0
  1 44  1  0
  1 45  1  0
 19 10  1  0
 35 30  1  0
 19 14  1  0
M  END
>  <plip>  (1) 
-0.1935483870967742

>  <filename>  (1) 
[H][c]1[n][c]([H])[c]([C@]([H])([N]([H])[C](=[O])[C]([H])([H])[C]([H])([H])[n]2[c]3[c]([H])[c]([H])[c]([H])[c]([H])[c]3[c](=[O])[n]2[H])[C]([H])([H])[O][C]([H])([H])[H])[c]([H])[c]1[H]

$$$$
