
     RDKit          3D

 36 39  0  0  0  0  0  0  0  0999 V2000
    4.9207    1.8108   16.9693 H   0  0  0  0  0  0  0  0  0  0  0  0
    5.3867    1.3154   17.8184 C   0  0  0  0  0  0  0  0  0  0  0  0
    6.5494    0.6949   17.5721 N   0  0  0  0  0  0  0  0  0  0  0  0
    7.1511    0.0786   18.5954 C   0  0  0  0  0  0  0  0  0  0  0  0
    8.1078   -0.3924   18.3748 H   0  0  0  0  0  0  0  0  0  0  0  0
    6.6256    0.0277   19.8995 C   0  0  0  0  0  0  0  0  0  0  0  0
    7.3621   -0.7081   21.0010 C   0  0  2  0  0  0  0  0  0  0  0  0
    6.9816   -0.3557   21.9766 H   0  0  0  0  0  0  0  0  0  0  0  0
    8.7919   -0.5383   20.9035 N   0  0  0  0  0  0  0  0  0  0  0  0
    9.3075    0.2897   21.1350 H   0  0  0  0  0  0  0  0  0  0  0  0
    9.4922   -1.6922   21.0760 C   0  0  0  0  0  0  0  0  0  0  0  0
   10.6719   -1.8064   21.2425 O   0  0  0  0  0  0  0  0  0  0  0  0
    8.6268   -2.7319   21.0262 O   0  0  0  0  0  0  0  0  0  0  0  0
    7.2766   -2.2729   20.9148 C   0  0  1  0  0  0  0  0  0  0  0  0
    6.8870   -2.5629   19.9332 H   0  0  0  0  0  0  0  0  0  0  0  0
    6.4428   -2.9513   21.9694 C   0  0  0  0  0  0  0  0  0  0  0  0
    5.1577   -3.4042   21.6406 C   0  0  0  0  0  0  0  0  0  0  0  0
    4.8254   -3.2938   20.6140 H   0  0  0  0  0  0  0  0  0  0  0  0
    4.3282   -3.9658   22.6150 C   0  0  0  0  0  0  0  0  0  0  0  0
    3.3277   -4.3360   22.4080 H   0  0  0  0  0  0  0  0  0  0  0  0
    4.7776   -4.0508   23.9329 C   0  0  0  0  0  0  0  0  0  0  0  0
    6.1074   -3.6768   24.2516 C   0  0  0  0  0  0  0  0  0  0  0  0
    6.9265   -3.1274   23.2742 C   0  0  0  0  0  0  0  0  0  0  0  0
    7.9572   -2.9223   23.5494 H   0  0  0  0  0  0  0  0  0  0  0  0
    6.6187   -3.8393   25.5149 O   0  0  0  0  0  0  0  0  0  0  0  0
    5.8640   -4.7245   26.3474 C   0  0  0  0  0  0  0  0  0  0  0  0
    6.0406   -5.7681   26.0491 H   0  0  0  0  0  0  0  0  0  0  0  0
    6.2340   -4.5659   27.3619 H   0  0  0  0  0  0  0  0  0  0  0  0
    4.3757   -4.4055   26.2400 C   0  0  0  0  0  0  0  0  0  0  0  0
    3.7787   -5.1128   26.8174 H   0  0  0  0  0  0  0  0  0  0  0  0
    4.1904   -3.3831   26.5968 H   0  0  0  0  0  0  0  0  0  0  0  0
    3.9224   -4.5402   24.8873 O   0  0  0  0  0  0  0  0  0  0  0  0
    5.4047    0.6730   20.1325 C   0  0  0  0  0  0  0  0  0  0  0  0
    4.9656    0.6711   21.1314 H   0  0  0  0  0  0  0  0  0  0  0  0
    4.7737    1.3318   19.0747 C   0  0  0  0  0  0  0  0  0  0  0  0
    3.8367    1.8621   19.2081 H   0  0  0  0  0  0  0  0  0  0  0  0
  1  2  1  0
  2  3  2  0
  3  4  1  0
  4  5  1  0
  4  6  2  0
  6  7  1  0
  7  8  1  1
  7  9  1  0
  9 10  1  0
  9 11  1  0
 11 12  2  0
 11 13  1  0
 13 14  1  0
 14 15  1  6
 14 16  1  0
 16 17  2  0
 17 18  1  0
 17 19  1  0
 19 20  1  0
 19 21  2  0
 21 22  1  0
 22 23  2  0
 23 24  1  0
 22 25  1  0
 25 26  1  0
 26 27  1  0
 26 28  1  0
 26 29  1  0
 29 30  1  0
 29 31  1  0
 29 32  1  0
  6 33  1  0
 33 34  1  0
 33 35  2  0
 35 36  1  0
 35  2  1  0
 14  7  1  0
 23 16  1  0
 32 21  1  0
M  END
>  <plip>  (1) 
-0.034482758620689655

>  <filename>  (1) 
[H][c]1[n][c]([H])[c]([C@]2([H])[N]([H])[C](=[O])[O][C@@]2([H])[c]2[c]([H])[c]([H])[c]3[c]([c]2[H])[O][C]([H])([H])[C]([H])([H])[O]3)[c]([H])[c]1[H]

$$$$
