
     RDKit          3D

 26 28  0  0  0  0  0  0  0  0999 V2000
    4.9924    1.7964   16.8636 H   0  0  0  0  0  0  0  0  0  0  0  0
    5.4307    1.3217   17.7376 C   0  0  0  0  0  0  0  0  0  0  0  0
    6.5951    0.6836   17.5411 N   0  0  0  0  0  0  0  0  0  0  0  0
    7.1544    0.0871   18.5971 C   0  0  0  0  0  0  0  0  0  0  0  0
    8.0854   -0.4485   18.4114 H   0  0  0  0  0  0  0  0  0  0  0  0
    6.5978    0.1078   19.8800 C   0  0  0  0  0  0  0  0  0  0  0  0
    7.2894   -0.6245   20.9381 C   0  0  0  0  0  0  0  0  0  0  0  0
    8.3669   -1.4183   20.6784 N   0  0  0  0  0  0  0  0  0  0  0  0
    8.5982   -1.9627   21.8464 C   0  0  0  0  0  0  0  0  0  0  0  0
    9.5331   -2.9223   22.0983 N   0  0  0  0  0  0  0  0  0  0  0  0
   10.3384   -2.7865   21.5124 H   0  0  0  0  0  0  0  0  0  0  0  0
    9.7152   -3.4255   23.4221 C   0  0  0  0  0  0  0  0  0  0  0  0
    8.9282   -4.1223   23.7224 H   0  0  0  0  0  0  0  0  0  0  0  0
   10.2776   -2.4796   24.4398 C   0  0  0  0  0  0  0  0  0  0  0  0
    9.8578   -2.5416   25.4372 H   0  0  0  0  0  0  0  0  0  0  0  0
   10.5182   -1.4816   24.0785 H   0  0  0  0  0  0  0  0  0  0  0  0
   11.0994   -3.6342   23.9369 C   0  0  0  0  0  0  0  0  0  0  0  0
   11.2801   -4.4711   24.6075 H   0  0  0  0  0  0  0  0  0  0  0  0
   11.9161   -3.4174   23.2516 H   0  0  0  0  0  0  0  0  0  0  0  0
    7.7391   -1.4936   22.7646 N   0  0  0  0  0  0  0  0  0  0  0  0
    7.7724   -1.6570   23.7534 H   0  0  0  0  0  0  0  0  0  0  0  0
    6.8765   -0.6088   22.1895 N   0  0  0  0  0  0  0  0  0  0  0  0
    5.3709    0.7664   20.0771 C   0  0  0  0  0  0  0  0  0  0  0  0
    4.8979    0.7758   21.0618 H   0  0  0  0  0  0  0  0  0  0  0  0
    4.7829    1.3794   18.9770 C   0  0  0  0  0  0  0  0  0  0  0  0
    3.8367    1.9006   19.0629 H   0  0  0  0  0  0  0  0  0  0  0  0
  1  2  1  0
  2  3  2  0
  3  4  1  0
  4  5  1  0
  4  6  2  0
  6  7  1  0
  7  8  1  0
  8  9  2  0
  9 10  1  0
 10 11  1  0
 10 12  1  0
 12 13  1  0
 12 14  1  0
 14 15  1  0
 14 16  1  0
 14 17  1  0
 17 18  1  0
 17 19  1  0
  9 20  1  0
 20 21  1  0
 20 22  1  0
  6 23  1  0
 23 24  1  0
 23 25  2  0
 25 26  1  0
 25  2  1  0
 22  7  2  0
 17 12  1  0
M  END
>  <plip>  (1) 
-0.10344827586206896

>  <filename>  (1) 
[H][c]1[n][c]([H])[c](-[c]2[n][c]([N]([H])[C]3([H])[C]([H])([H])[C]3([H])[H])[n]([H])[n]2)[c]([H])[c]1[H]

$$$$
