
     RDKit          3D

 30 32  0  0  0  0  0  0  0  0999 V2000
   10.4457   -3.8333   22.6230 H   0  0  0  0  0  0  0  0  0  0  0  0
    9.8303   -3.6559   23.3487 O   0  0  0  0  0  0  0  0  0  0  0  0
    9.6016   -2.2611   23.4666 C   0  0  2  0  0  0  0  0  0  0  0  0
    9.2032   -2.1425   24.4815 H   0  0  0  0  0  0  0  0  0  0  0  0
    8.5021   -1.7126   22.5673 C   0  0  0  0  0  0  0  0  0  0  0  0
    7.4159   -1.2060   23.0727 N   0  0  0  0  0  0  0  0  0  0  0  0
    6.6270   -0.5978   22.1519 N   0  0  0  0  0  0  0  0  0  0  0  0
    7.1163   -0.6255   20.9494 C   0  0  0  0  0  0  0  0  0  0  0  0
    6.4678    0.0676   19.8248 C   0  0  0  0  0  0  0  0  0  0  0  0
    7.0591    0.0809   18.5539 C   0  0  0  0  0  0  0  0  0  0  0  0
    8.0017   -0.4367   18.3736 H   0  0  0  0  0  0  0  0  0  0  0  0
    6.5273    0.7101   17.5034 N   0  0  0  0  0  0  0  0  0  0  0  0
    5.3743    1.3683   17.6897 C   0  0  0  0  0  0  0  0  0  0  0  0
    4.9733    1.8800   16.8182 H   0  0  0  0  0  0  0  0  0  0  0  0
    4.7024    1.4176   18.9159 C   0  0  0  0  0  0  0  0  0  0  0  0
    3.7778    1.9762   19.0000 H   0  0  0  0  0  0  0  0  0  0  0  0
    5.2571    0.7622   20.0117 C   0  0  0  0  0  0  0  0  0  0  0  0
    4.7870    0.7869   20.9975 H   0  0  0  0  0  0  0  0  0  0  0  0
    8.6165   -1.5091   20.8460 S   0  0  0  0  0  0  0  0  0  0  0  0
   10.8407   -1.3644   23.3474 C   0  0  0  0  0  0  0  0  0  0  0  0
   10.9683   -0.3028   24.2623 C   0  0  0  0  0  0  0  0  0  0  0  0
   10.1325   -0.0653   24.9171 H   0  0  0  0  0  0  0  0  0  0  0  0
   12.1411    0.4537   24.3204 C   0  0  0  0  0  0  0  0  0  0  0  0
   12.2447    1.2338   25.0718 H   0  0  0  0  0  0  0  0  0  0  0  0
   13.1707    0.2093   23.4077 C   0  0  0  0  0  0  0  0  0  0  0  0
   14.1013    0.7703   23.4633 H   0  0  0  0  0  0  0  0  0  0  0  0
   12.9962   -0.7551   22.4049 C   0  0  0  0  0  0  0  0  0  0  0  0
   13.7688   -0.9219   21.6614 H   0  0  0  0  0  0  0  0  0  0  0  0
   11.8246   -1.5220   22.3569 C   0  0  0  0  0  0  0  0  0  0  0  0
   11.6912   -2.2289   21.5382 H   0  0  0  0  0  0  0  0  0  0  0  0
  1  2  1  0
  2  3  1  0
  3  4  1  1
  3  5  1  0
  5  6  2  0
  6  7  1  0
  7  8  2  0
  8  9  1  0
  9 10  2  0
 10 11  1  0
 10 12  1  0
 12 13  2  0
 13 14  1  0
 13 15  1  0
 15 16  1  0
 15 17  2  0
 17 18  1  0
  8 19  1  0
  3 20  1  0
 20 21  2  0
 21 22  1  0
 21 23  1  0
 23 24  1  0
 23 25  2  0
 25 26  1  0
 25 27  1  0
 27 28  1  0
 27 29  2  0
 29 30  1  0
 19  5  1  0
 29 20  1  0
 17  9  1  0
M  END
>  <plip>  (1) 
-0.06896551724137931

>  <filename>  (1) 
[H][O][C@]([H])([c]1[n][n][c](-[c]2[c]([H])[n][c]([H])[c]([H])[c]2[H])[s]1)[c]1[c]([H])[c]([H])[c]([H])[c]([H])[c]1[H]

$$$$
