
     RDKit          3D

 35 36  0  0  0  0  0  0  0  0999 V2000
    5.9581    2.7328   23.9881 C   0  0  0  0  0  0  0  0  0  0  0  0
    7.3140    2.0172   24.0734 C   0  0  2  0  0  0  0  0  0  0  0  0
    8.3360    3.0029   24.3598 O   0  0  0  0  0  0  0  0  0  0  0  0
    8.3000    3.7134   25.5428 C   0  0  0  0  0  0  0  0  0  0  0  0
    7.4360    3.4475   26.6224 C   0  0  0  0  0  0  0  0  0  0  0  0
    7.4391    4.2847   27.7575 C   0  0  0  0  0  0  0  0  0  0  0  0
    8.3237    5.3702   27.8421 C   0  0  0  0  0  0  0  0  0  0  0  0
    8.4335    6.6556   29.6950 I   0  0  0  0  0  0  0  0  0  0  0  0
    9.2131    5.6028   26.7900 C   0  0  0  0  0  0  0  0  0  0  0  0
    9.2030    4.7769   25.6566 C   0  0  0  0  0  0  0  0  0  0  0  0
    9.8805    4.9711   24.8293 H   0  0  0  0  0  0  0  0  0  0  0  0
    9.9071    6.4359   26.8636 H   0  0  0  0  0  0  0  0  0  0  0  0
    6.7701    4.1008   28.5928 H   0  0  0  0  0  0  0  0  0  0  0  0
    6.7501    2.6064   26.5666 H   0  0  0  0  0  0  0  0  0  0  0  0
    7.5841    1.2022   22.7738 C   0  0  0  0  0  0  0  0  0  0  0  0
    8.1881    1.6686   21.8136 O   0  0  0  0  0  0  0  0  0  0  0  0
    7.1814   -0.1000   22.6553 N   0  0  0  0  0  0  0  0  0  0  0  0
    7.5549   -0.8075   21.1878 S   0  0  0  0  0  0  0  0  0  0  0  0
    8.9781   -0.5951   20.9036 O   0  0  0  0  0  0  0  0  0  0  0  0
    7.1859   -2.2235   21.1980 O   0  0  0  0  0  0  0  0  0  0  0  0
    6.5742    0.0905   20.0275 C   0  0  0  0  0  0  0  0  0  0  0  0
    5.3620    0.7508   20.2417 C   0  0  0  0  0  0  0  0  0  0  0  0
    4.8073    1.3394   19.1134 C   0  0  0  0  0  0  0  0  0  0  0  0
    5.4753    1.2748   17.8867 C   0  0  0  0  0  0  0  0  0  0  0  0
    6.6513    0.6462   17.7386 N   0  0  0  0  0  0  0  0  0  0  0  0
    7.1901    0.0620   18.8023 C   0  0  0  0  0  0  0  0  0  0  0  0
    8.1423   -0.4485   18.6847 H   0  0  0  0  0  0  0  0  0  0  0  0
    5.0270    1.7424   17.0146 H   0  0  0  0  0  0  0  0  0  0  0  0
    3.8616    1.8638   19.1602 H   0  0  0  0  0  0  0  0  0  0  0  0
    4.8515    0.8303   21.2068 H   0  0  0  0  0  0  0  0  0  0  0  0
    6.5000   -0.5354   23.2587 H   0  0  0  0  0  0  0  0  0  0  0  0
    7.2918    1.2951   24.8946 H   0  0  0  0  0  0  0  0  0  0  0  0
    5.7446    3.2307   24.9397 H   0  0  0  0  0  0  0  0  0  0  0  0
    5.1578    2.0171   23.7737 H   0  0  0  0  0  0  0  0  0  0  0  0
    5.9635    3.4906   23.1966 H   0  0  0  0  0  0  0  0  0  0  0  0
  1  2  1  0
  2  3  1  0
  3  4  1  0
  4  5  2  0
  5  6  1  0
  6  7  2  0
  7  8  1  0
  7  9  1  0
  9 10  2  0
 10 11  1  0
  9 12  1  0
  6 13  1  0
  5 14  1  0
  2 15  1  0
 15 16  2  0
 15 17  1  0
 17 18  1  0
 18 19  2  0
 18 20  2  0
 18 21  1  0
 21 22  2  0
 22 23  1  0
 23 24  2  0
 24 25  1  0
 25 26  2  0
 26 27  1  0
 24 28  1  0
 23 29  1  0
 22 30  1  0
 17 31  1  0
  2 32  1  1
  1 33  1  0
  1 34  1  0
  1 35  1  0
 10  4  1  0
 26 21  1  0
M  END
>  <plip>  (1) 
-0.14285714285714285

>  <filename>  (1) 
[H][c]1[n][c]([H])[c]([S](=[O])(=[O])[N]([H])[C](=[O])[C@@]([H])([O][c]2[c]([H])[c]([H])[c]([I])[c]([H])[c]2[H])[C]([H])([H])[H])[c]([H])[c]1[H]

$$$$
