
     RDKit          3D

 35 36  0  0  0  0  0  0  0  0999 V2000
    5.2427    1.9825   17.1441 H   0  0  0  0  0  0  0  0  0  0  0  0
    5.6077    1.3255   17.9359 C   0  0  0  0  0  0  0  0  0  0  0  0
    6.7098    0.6135   17.6612 N   0  0  0  0  0  0  0  0  0  0  0  0
    7.1864   -0.2082   18.5936 C   0  0  0  0  0  0  0  0  0  0  0  0
    8.0812   -0.7624   18.3000 H   0  0  0  0  0  0  0  0  0  0  0  0
    6.5457   -0.3479   19.8166 C   0  0  0  0  0  0  0  0  0  0  0  0
    7.1253   -1.6399   20.8013 S   0  0  0  0  0  0  0  0  0  0  0  0
    8.5252   -1.8897   20.4846 O   0  0  0  0  0  0  0  0  0  0  0  0
    6.1130   -2.6847   20.9177 O   0  0  0  0  0  0  0  0  0  0  0  0
    7.5594    0.5037   22.3039 O   0  0  0  0  0  0  0  0  0  0  0  0
    8.3076    1.4964   22.4491 N   0  0  0  0  0  0  0  0  0  0  0  0
    7.9466    2.8536   22.1175 C   0  0  0  0  0  0  0  0  0  0  0  0
    7.9844    2.9703   21.0249 H   0  0  0  0  0  0  0  0  0  0  0  0
    6.9215    3.0754   22.4498 H   0  0  0  0  0  0  0  0  0  0  0  0
    9.0350    3.6791   22.8299 C   0  0  0  0  0  0  0  0  0  0  0  0
    8.7797    3.7995   23.8846 H   0  0  0  0  0  0  0  0  0  0  0  0
    9.1422    4.6652   22.3800 H   0  0  0  0  0  0  0  0  0  0  0  0
   10.2972    2.8195   22.6838 C   0  0  1  0  0  0  0  0  0  0  0  0
   10.6481    2.9542   21.6440 H   0  0  0  0  0  0  0  0  0  0  0  0
   11.3739    3.0880   23.6402 N   0  0  0  0  0  0  0  0  0  0  0  0
   11.7015    4.5083   23.7494 C   0  0  0  0  0  0  0  0  0  0  0  0
   12.1446    4.9133   22.8199 H   0  0  0  0  0  0  0  0  0  0  0  0
   12.4200    4.6521   24.5619 H   0  0  0  0  0  0  0  0  0  0  0  0
   10.8218    5.1120   23.9911 H   0  0  0  0  0  0  0  0  0  0  0  0
   12.5827    2.3474   23.2769 C   0  0  0  0  0  0  0  0  0  0  0  0
   12.3882    1.2721   23.2014 H   0  0  0  0  0  0  0  0  0  0  0  0
   12.9885    2.6863   22.3035 H   0  0  0  0  0  0  0  0  0  0  0  0
   13.3571    2.4940   24.0356 H   0  0  0  0  0  0  0  0  0  0  0  0
    9.7193    1.3723   22.7734 C   0  0  0  0  0  0  0  0  0  0  0  0
   10.2185    0.6939   22.0624 H   0  0  0  0  0  0  0  0  0  0  0  0
    9.8272    0.9485   23.7808 H   0  0  0  0  0  0  0  0  0  0  0  0
    5.4110    0.4010   20.1488 C   0  0  0  0  0  0  0  0  0  0  0  0
    4.9106    0.3553   21.1207 H   0  0  0  0  0  0  0  0  0  0  0  0
    4.9392    1.2548   19.1582 C   0  0  0  0  0  0  0  0  0  0  0  0
    4.0615    1.8660   19.3192 H   0  0  0  0  0  0  0  0  0  0  0  0
  1  2  1  0
  2  3  2  0
  3  4  1  0
  4  5  1  0
  4  6  2  0
  6  7  1  0
  7  8  2  0
  7  9  2  0
  7 10  1  0
 10 11  1  0
 11 12  1  0
 12 13  1  0
 12 14  1  0
 12 15  1  0
 15 16  1  0
 15 17  1  0
 15 18  1  0
 18 19  1  6
 18 20  1  0
 20 21  1  0
 21 22  1  0
 21 23  1  0
 21 24  1  0
 20 25  1  0
 25 26  1  0
 25 27  1  0
 25 28  1  0
 18 29  1  0
 29 30  1  0
 29 31  1  0
  6 32  1  0
 32 33  1  0
 32 34  2  0
 34 35  1  0
 34  2  1  0
 29 11  1  0
M  END
>  <plip>  (1) 
-0.06896551724137931

>  <filename>  (1) 
[H][c]1[n][c]([H])[c]([S](=[O])(=[O])[O][N]2[C]([H])([H])[C]([H])([H])[C@@]([H])([N]([C]([H])([H])[H])[C]([H])([H])[H])[C]2([H])[H])[c]([H])[c]1[H]

$$$$
