
     RDKit          3D

 40 43  0  0  0  0  0  0  0  0999 V2000
    4.9659    1.8141   16.9728 H   0  0  0  0  0  0  0  0  0  0  0  0
    5.4633    1.3318   17.8143 C   0  0  0  0  0  0  0  0  0  0  0  0
    6.5928    0.6685   17.5321 N   0  0  0  0  0  0  0  0  0  0  0  0
    7.2214    0.0661   18.5540 C   0  0  0  0  0  0  0  0  0  0  0  0
    8.1186   -0.4890   18.2787 H   0  0  0  0  0  0  0  0  0  0  0  0
    6.8067    0.1002   19.8996 C   0  0  0  0  0  0  0  0  0  0  0  0
    7.6321   -0.6480   20.9612 C   0  0  2  0  0  0  0  0  0  0  0  0
    8.3241   -1.3035   20.4129 H   0  0  0  0  0  0  0  0  0  0  0  0
    6.7652   -1.5487   21.9120 C   0  0  1  0  0  0  0  0  0  0  0  0
    5.9965   -0.8661   22.2948 H   0  0  0  0  0  0  0  0  0  0  0  0
    5.9766   -2.6900   21.2299 C   0  0  1  0  0  0  0  0  0  0  0  0
    5.1219   -2.9064   21.8981 H   0  0  0  0  0  0  0  0  0  0  0  0
    5.4578   -2.2541   19.9834 O   0  0  0  0  0  0  0  0  0  0  0  0
    5.5195   -3.2479   18.9872 C   0  0  0  0  0  0  0  0  0  0  0  0
    6.2385   -2.9497   18.2091 H   0  0  0  0  0  0  0  0  0  0  0  0
    4.5435   -3.2951   18.4948 H   0  0  0  0  0  0  0  0  0  0  0  0
    5.9415   -4.5470   19.6965 C   0  0  0  0  0  0  0  0  0  0  0  0
    5.0735   -5.1449   19.9911 H   0  0  0  0  0  0  0  0  0  0  0  0
    6.5368   -5.1877   19.0449 H   0  0  0  0  0  0  0  0  0  0  0  0
    6.6829   -4.0277   20.9472 C   0  0  0  0  0  0  0  0  0  0  0  0
    6.5938   -4.6959   21.8122 H   0  0  0  0  0  0  0  0  0  0  0  0
    7.7563   -3.8757   20.7850 H   0  0  0  0  0  0  0  0  0  0  0  0
    7.5184   -2.0958   23.1585 C   0  0  0  0  0  0  0  0  0  0  0  0
    6.7752   -2.4709   23.8792 H   0  0  0  0  0  0  0  0  0  0  0  0
    8.1507   -2.9514   22.8857 H   0  0  0  0  0  0  0  0  0  0  0  0
    8.4020   -1.0555   23.8776 C   0  0  1  0  0  0  0  0  0  0  0  0
    8.8318   -1.4821   24.7922 H   0  0  0  0  0  0  0  0  0  0  0  0
    9.7641   -0.5618   22.7624 S   0  0  0  0  0  0  0  0  0  0  0  0
    8.5134    0.3490   21.7884 C   0  0  2  0  0  0  0  0  0  0  0  0
    9.0447    1.0222   21.1097 H   0  0  0  0  0  0  0  0  0  0  0  0
    7.7297    1.1355   22.8668 C   0  0  0  0  0  0  0  0  0  0  0  0
    8.2361    2.0827   23.0721 H   0  0  0  0  0  0  0  0  0  0  0  0
    6.7320    1.4035   22.5050 H   0  0  0  0  0  0  0  0  0  0  0  0
    7.6625    0.2697   24.1559 C   0  0  0  0  0  0  0  0  0  0  0  0
    6.6275    0.0703   24.4591 H   0  0  0  0  0  0  0  0  0  0  0  0
    8.1417    0.7949   24.9879 H   0  0  0  0  0  0  0  0  0  0  0  0
    5.6027    0.7731   20.1561 C   0  0  0  0  0  0  0  0  0  0  0  0
    5.1572    0.7607   21.1542 H   0  0  0  0  0  0  0  0  0  0  0  0
    4.9215    1.3994   19.1013 C   0  0  0  0  0  0  0  0  0  0  0  0
    3.9810    1.9135   19.2617 H   0  0  0  0  0  0  0  0  0  0  0  0
  1  2  1  0
  2  3  2  0
  3  4  1  0
  4  5  1  0
  4  6  2  0
  6  7  1  0
  7  8  1  6
  7  9  1  0
  9 10  1  1
  9 11  1  0
 11 12  1  1
 11 13  1  0
 13 14  1  0
 14 15  1  0
 14 16  1  0
 14 17  1  0
 17 18  1  0
 17 19  1  0
 17 20  1  0
 20 21  1  0
 20 22  1  0
  9 23  1  0
 23 24  1  0
 23 25  1  0
 23 26  1  0
 26 27  1  1
 26 28  1  0
 28 29  1  0
 29 30  1  6
 29 31  1  0
 31 32  1  0
 31 33  1  0
 31 34  1  0
 34 35  1  0
 34 36  1  0
  6 37  1  0
 37 38  1  0
 37 39  2  0
 39 40  1  0
 39  2  1  0
 29  7  1  0
 20 11  1  0
 34 26  1  0
M  END
>  <plip>  (1) 
-0.07142857142857142

>  <filename>  (1) 
[H][c]1[n][c]([H])[c]([C@]2([H])[C@@]([H])([C@@]3([H])[O][C]([H])([H])[C]([H])([H])[C]3([H])[H])[C]([H])([H])[C@@]3([H])[S][C@]2([H])[C]([H])([H])[C]3([H])[H])[c]([H])[c]1[H]

$$$$
