
     RDKit          3D

 36 38  0  0  0  0  0  0  0  0999 V2000
    5.4330   -6.2611   23.9495 C   0  0  0  0  0  0  0  0  0  0  0  0
    5.6303   -5.6968   22.5849 C   0  0  0  0  0  0  0  0  0  0  0  0
    5.6741   -6.4991   21.4553 C   0  0  0  0  0  0  0  0  0  0  0  0
    5.7125   -5.9165   20.1946 C   0  0  0  0  0  0  0  0  0  0  0  0
    5.7743   -4.5938   20.0271 N   0  0  0  0  0  0  0  0  0  0  0  0
    5.8200   -3.8099   21.1220 C   0  0  0  0  0  0  0  0  0  0  0  0
    6.0133   -2.3291   20.9383 C   0  0  0  0  0  0  0  0  0  0  0  0
    7.4482   -1.8928   20.8108 N   0  0  0  0  0  4  0  0  0  0  0  0
    7.5646   -0.4616   20.8979 C   0  0  0  0  0  0  0  0  0  0  0  0
    6.7997    0.2407   19.8331 C   0  0  0  0  0  0  0  0  0  0  0  0
    5.5770    0.8653   20.0931 C   0  0  0  0  0  0  0  0  0  0  0  0
    4.8892    1.4079   19.0083 C   0  0  0  0  0  0  0  0  0  0  0  0
    5.4306    1.3157   17.7199 C   0  0  0  0  0  0  0  0  0  0  0  0
    6.5919    0.6814   17.4680 N   0  0  0  0  0  0  0  0  0  0  0  0
    7.2529    0.1522   18.5120 C   0  0  0  0  0  0  0  0  0  0  0  0
    8.1790   -0.3787   18.3147 H   0  0  0  0  0  0  0  0  0  0  0  0
    4.8843    1.7644   16.8964 H   0  0  0  0  0  0  0  0  0  0  0  0
    3.9335    1.9019   19.1449 H   0  0  0  0  0  0  0  0  0  0  0  0
    5.1622    0.9059   21.1019 H   0  0  0  0  0  0  0  0  0  0  0  0
    8.9123    0.0505   21.3731 C   0  0  0  0  0  0  0  0  0  0  0  0
    7.6967    0.1170   22.2944 C   0  0  0  0  0  0  0  0  0  0  0  0
    7.2503    1.0973   22.4743 H   0  0  0  0  0  0  0  0  0  0  0  0
    7.6496   -0.5869   23.1296 H   0  0  0  0  0  0  0  0  0  0  0  0
    9.2808    0.9890   20.9580 H   0  0  0  0  0  0  0  0  0  0  0  0
    9.6855   -0.6862   21.6030 H   0  0  0  0  0  0  0  0  0  0  0  0
    8.0241   -2.2977   21.5472 H   0  0  0  0  0  0  0  0  0  0  0  0
    7.8186   -2.1788   19.9012 H   0  0  0  0  0  0  0  0  0  0  0  0
    5.4575   -2.0490   20.0332 H   0  0  0  0  0  0  0  0  0  0  0  0
    5.5433   -1.8258   21.7979 H   0  0  0  0  0  0  0  0  0  0  0  0
    5.7182   -4.3238   22.4192 C   0  0  0  0  0  0  0  0  0  0  0  0
    5.6512   -3.1508   23.9404 Br  0  0  0  0  0  0  0  0  0  0  0  0
    5.6859   -6.5397   19.3083 H   0  0  0  0  0  0  0  0  0  0  0  0
    5.6482   -7.5718   21.5528 H   0  0  0  0  0  0  0  0  0  0  0  0
    4.5923   -5.7475   24.4288 H   0  0  0  0  0  0  0  0  0  0  0  0
    5.2230   -7.3330   23.9080 H   0  0  0  0  0  0  0  0  0  0  0  0
    6.3348   -6.1007   24.5431 H   0  0  0  0  0  0  0  0  0  0  0  0
  1  2  1  0
  2  3  2  0
  3  4  1  0
  4  5  2  0
  5  6  1  0
  6  7  1  0
  7  8  1  0
  8  9  1  0
  9 10  1  0
 10 11  2  0
 11 12  1  0
 12 13  2  0
 13 14  1  0
 14 15  2  0
 15 16  1  0
 13 17  1  0
 12 18  1  0
 11 19  1  0
  9 20  1  0
 20 21  1  0
 21 22  1  0
 21 23  1  0
 20 24  1  0
 20 25  1  0
  8 26  1  0
  8 27  1  0
  7 28  1  0
  7 29  1  0
  6 30  2  0
 30 31  1  0
  4 32  1  0
  3 33  1  0
  1 34  1  0
  1 35  1  0
  1 36  1  0
 30  2  1  0
 21  9  1  0
 15 10  1  0
M  CHG  1   8   1
M  END
>  <plip>  (1) 
-0.13793103448275862

>  <filename>  (1) 
[H][c]1[n][c]([H])[c]([C]2([N+]([H])([H])[C]([H])([H])[c]3[n][c]([H])[c]([H])[c]([C]([H])([H])[H])[c]3[Br])[C]([H])([H])[C]2([H])[H])[c]([H])[c]1[H]

$$$$
