
     RDKit          3D

 31 33  0  0  0  0  0  0  0  0999 V2000
    9.6390    0.1338   20.7902 O   0  0  0  0  0  0  0  0  0  0  0  0
    8.6273    0.2679   21.4510 C   0  0  0  0  0  0  0  0  0  0  0  0
    8.4815    1.1678   22.4692 N   0  0  0  0  0  0  0  0  0  0  0  0
    9.3314    2.2313   22.8190 C   0  0  0  0  0  0  0  0  0  0  0  0
   10.5285    2.5178   22.1661 C   0  0  0  0  0  0  0  0  0  0  0  0
   11.2224    3.6594   22.6049 C   0  0  0  0  0  0  0  0  0  0  0  0
   10.7697    4.4923   23.6488 C   0  0  0  0  0  0  0  0  0  0  0  0
    9.5688    4.1833   24.3223 C   0  0  0  0  0  0  0  0  0  0  0  0
    8.8808    3.0694   23.8887 C   0  0  0  0  0  0  0  0  0  0  0  0
    7.7237    2.7325   24.5047 F   0  0  0  0  0  0  0  0  0  0  0  0
    9.1914    4.7976   25.1336 H   0  0  0  0  0  0  0  0  0  0  0  0
   11.6456    5.5442   23.8472 N   0  0  0  0  0  0  0  0  0  0  0  0
   12.5903    5.3600   22.9685 C   0  0  0  0  0  0  0  0  0  0  0  0
   12.4035    4.2399   22.1977 N   0  0  0  0  0  0  0  0  0  0  0  0
   12.9511    3.9515   21.4059 H   0  0  0  0  0  0  0  0  0  0  0  0
   13.4653    5.9956   22.8592 H   0  0  0  0  0  0  0  0  0  0  0  0
   10.8834    1.8783   21.3662 H   0  0  0  0  0  0  0  0  0  0  0  0
    7.6565    1.0955   23.0478 H   0  0  0  0  0  0  0  0  0  0  0  0
    7.3172   -0.5556   21.0816 C   0  0  0  0  0  0  0  0  0  0  0  0
    7.6767   -1.8333   20.7890 F   0  0  0  0  0  0  0  0  0  0  0  0
    6.4901   -0.6406   22.1779 F   0  0  0  0  0  0  0  0  0  0  0  0
    6.5543    0.0393   19.9159 C   0  0  0  0  0  0  0  0  0  0  0  0
    5.3813    0.7886   20.0809 C   0  0  0  0  0  0  0  0  0  0  0  0
    4.8271    1.3965   18.9545 C   0  0  0  0  0  0  0  0  0  0  0  0
    5.4640    1.2385   17.7191 C   0  0  0  0  0  0  0  0  0  0  0  0
    6.5750    0.5061   17.5502 N   0  0  0  0  0  0  0  0  0  0  0  0
    7.1050   -0.0764   18.6300 C   0  0  0  0  0  0  0  0  0  0  0  0
    8.0330   -0.6290   18.4818 H   0  0  0  0  0  0  0  0  0  0  0  0
    5.0739    1.7349   16.8305 H   0  0  0  0  0  0  0  0  0  0  0  0
    3.9430    2.0202   19.0299 H   0  0  0  0  0  0  0  0  0  0  0  0
    4.9241    0.8975   21.0655 H   0  0  0  0  0  0  0  0  0  0  0  0
  1  2  2  0
  2  3  1  0
  3  4  1  0
  4  5  2  0
  5  6  1  0
  6  7  2  0
  7  8  1  0
  8  9  2  0
  9 10  1  0
  8 11  1  0
  7 12  1  0
 12 13  2  0
 13 14  1  0
 14 15  1  0
 13 16  1  0
  5 17  1  0
  3 18  1  0
  2 19  1  0
 19 20  1  0
 19 21  1  0
 19 22  1  0
 22 23  2  0
 23 24  1  0
 24 25  2  0
 25 26  1  0
 26 27  2  0
 27 28  1  0
 25 29  1  0
 24 30  1  0
 23 31  1  0
  9  4  1  0
 27 22  1  0
 14  6  1  0
M  END
>  <plip>  (1) 
-0.13333333333333333

>  <filename>  (1) 
[H][c]1[n][c]([H])[c]([C]([F])([F])[C](=[O])[N]([H])[c]2[c]([F])[c]([H])[c]3[n][c]([H])[n]([H])[c]3[c]2[H])[c]([H])[c]1[H]

$$$$
