
     RDKit          3D

 29 31  0  0  0  0  0  0  0  0999 V2000
    5.0032    1.8240   16.8533 H   0  0  0  0  0  0  0  0  0  0  0  0
    5.4213    1.3264   17.7249 C   0  0  0  0  0  0  0  0  0  0  0  0
    6.5748    0.6733   17.5313 N   0  0  0  0  0  0  0  0  0  0  0  0
    7.1229    0.0605   18.5834 C   0  0  0  0  0  0  0  0  0  0  0  0
    8.0592   -0.4555   18.3894 H   0  0  0  0  0  0  0  0  0  0  0  0
    6.5524    0.0634   19.8733 C   0  0  0  0  0  0  0  0  0  0  0  0
    7.2661   -0.6127   20.9777 C   0  0  0  0  0  0  0  0  0  0  0  0
    6.7826   -0.5431   22.2449 N   0  0  0  0  0  0  0  0  0  0  0  0
    7.4129   -1.1653   23.2226 N   0  0  0  0  0  0  0  0  0  0  0  0
    8.5292   -1.8864   22.9222 C   0  0  0  0  0  0  0  0  0  0  0  0
    9.1790   -2.5907   23.8876 N   0  0  0  0  0  0  0  0  0  0  0  0
    8.6670   -2.7388   25.2540 C   0  0  0  0  0  0  0  0  0  0  0  0
    7.5987   -2.9847   25.2458 H   0  0  0  0  0  0  0  0  0  0  0  0
    8.7786   -1.7963   25.8076 H   0  0  0  0  0  0  0  0  0  0  0  0
    9.4993   -3.9167   25.8154 C   0  0  0  0  0  0  0  0  0  0  0  0
    8.9069   -4.8391   25.8011 H   0  0  0  0  0  0  0  0  0  0  0  0
    9.8177   -3.7429   26.8451 H   0  0  0  0  0  0  0  0  0  0  0  0
   10.6716   -4.0812   24.8430 C   0  0  0  0  0  0  0  0  0  0  0  0
   11.4684   -3.3762   25.0565 H   0  0  0  0  0  0  0  0  0  0  0  0
   11.1089   -5.0850   24.8360 H   0  0  0  0  0  0  0  0  0  0  0  0
   10.0598   -3.6915   23.5116 C   0  0  0  0  0  0  0  0  0  0  0  0
   10.7801   -3.3614   22.7626 H   0  0  0  0  0  0  0  0  0  0  0  0
    9.4838   -4.5255   23.0783 H   0  0  0  0  0  0  0  0  0  0  0  0
    9.0387   -1.9304   21.6515 N   0  0  0  0  0  0  0  0  0  0  0  0
    8.4152   -1.2873   20.6960 N   0  0  0  0  0  0  0  0  0  0  0  0
    5.3295    0.7350   20.0571 C   0  0  0  0  0  0  0  0  0  0  0  0
    4.8449    0.7606   21.0344 H   0  0  0  0  0  0  0  0  0  0  0  0
    4.7641    1.3783   18.9576 C   0  0  0  0  0  0  0  0  0  0  0  0
    3.8364    1.9313   19.0404 H   0  0  0  0  0  0  0  0  0  0  0  0
  1  2  1  0
  2  3  2  0
  3  4  1  0
  4  5  1  0
  4  6  2  0
  6  7  1  0
  7  8  2  0
  8  9  1  0
  9 10  2  0
 10 11  1  0
 11 12  1  0
 12 13  1  0
 12 14  1  0
 12 15  1  0
 15 16  1  0
 15 17  1  0
 15 18  1  0
 18 19  1  0
 18 20  1  0
 18 21  1  0
 21 22  1  0
 21 23  1  0
 10 24  1  0
 24 25  2  0
  6 26  1  0
 26 27  1  0
 26 28  2  0
 28 29  1  0
 28  2  1  0
 25  7  1  0
 21 11  1  0
M  END
>  <plip>  (1) 
-0.07142857142857142

>  <filename>  (1) 
[H][c]1[n][c]([H])[c](-[c]2[n][n][c]([N]3[C]([H])([H])[C]([H])([H])[C]([H])([H])[C]3([H])[H])[n][n]2)[c]([H])[c]1[H]

$$$$
