
     RDKit          3D

 23 24  0  0  0  0  0  0  0  0999 V2000
    6.8774    0.3163   24.6970 H   0  0  0  0  0  0  0  0  0  0  0  0
    6.8612    1.1831   24.1584 N   0  0  0  0  0  0  0  0  0  0  0  0
    7.1733    0.9406   22.9424 C   0  0  0  0  0  0  0  0  0  0  0  0
    7.5475   -0.3884   22.3053 C   0  0  0  0  0  0  0  0  0  0  0  0
    8.1902   -1.4607   22.9312 N   0  0  0  0  0  0  0  0  0  0  0  0
    8.3896   -2.3437   22.0005 C   0  0  0  0  0  0  0  0  0  0  0  0
    8.8586   -3.3074   22.1550 H   0  0  0  0  0  0  0  0  0  0  0  0
    7.9315   -1.9315   20.7869 N   0  0  0  0  0  0  0  0  0  0  0  0
    7.8691   -2.4886   19.9495 H   0  0  0  0  0  0  0  0  0  0  0  0
    7.3611   -0.6961   20.9620 C   0  0  0  0  0  0  0  0  0  0  0  0
    6.6551   -0.0003   19.8754 C   0  0  0  0  0  0  0  0  0  0  0  0
    7.1587    0.0399   18.5539 C   0  0  0  0  0  0  0  0  0  0  0  0
    8.1150   -0.4312   18.3167 H   0  0  0  0  0  0  0  0  0  0  0  0
    6.5604    0.6720   17.5368 N   0  0  0  0  0  0  0  0  0  0  0  0
    5.3986    1.2979   17.7938 C   0  0  0  0  0  0  0  0  0  0  0  0
    4.9333    1.8149   16.9563 H   0  0  0  0  0  0  0  0  0  0  0  0
    4.7987    1.3075   19.0548 C   0  0  0  0  0  0  0  0  0  0  0  0
    3.8668    1.8368   19.2085 H   0  0  0  0  0  0  0  0  0  0  0  0
    5.4287    0.6490   20.1112 C   0  0  0  0  0  0  0  0  0  0  0  0
    5.0053    0.6657   21.1146 H   0  0  0  0  0  0  0  0  0  0  0  0
    7.0650    2.0927   22.1793 N   0  0  0  0  0  0  0  0  0  0  0  0
    7.0417    2.8217   22.8863 H   0  0  0  0  0  0  0  0  0  0  0  0
    7.7134    2.2226   21.4186 H   0  0  0  0  0  0  0  0  0  0  0  0
  1  2  1  0
  2  3  2  3
  3  4  1  0
  4  5  1  0
  5  6  2  0
  6  7  1  0
  6  8  1  0
  8  9  1  0
  8 10  1  0
 10 11  1  0
 11 12  2  0
 12 13  1  0
 12 14  1  0
 14 15  2  0
 15 16  1  0
 15 17  1  0
 17 18  1  0
 17 19  2  0
 19 20  1  0
  3 21  1  0
 21 22  1  0
 21 23  1  0
 10  4  2  0
 19 11  1  0
M  END
>  <plip>  (1) 
-0.034482758620689655

>  <filename>  (1) 
[H][N]=[C]([c]1[n][c]([H])[n]([H])[c]1-[c]1[c]([H])[n][c]([H])[c]([H])[c]1[H])[N]([H])[H]

$$$$
