
     RDKit          3D

 22 23  0  0  0  0  0  0  0  0999 V2000
    7.2736    4.0390   24.2638 H   0  0  0  0  0  0  0  0  0  0  0  0
    7.4976    3.0812   23.8176 C   0  0  0  0  0  0  0  0  0  0  0  0
    8.6799    2.7209   23.4263 N   0  0  0  0  0  0  0  0  0  0  0  0
    8.6146    1.4484   22.9221 C   0  0  0  0  0  0  0  0  0  0  0  0
    9.5064    0.9779   22.5307 H   0  0  0  0  0  0  0  0  0  0  0  0
    7.4008    0.8327   22.9309 C   0  0  0  0  0  0  0  0  0  0  0  0
    7.0878   -0.5522   22.4129 C   0  0  0  0  0  0  0  0  0  0  0  0
    6.0362   -0.7961   22.5717 H   0  0  0  0  0  0  0  0  0  0  0  0
    7.6640   -1.3021   22.9642 H   0  0  0  0  0  0  0  0  0  0  0  0
    7.4411   -0.7497   20.9281 C   0  0  0  0  0  0  0  0  0  0  0  0
    8.3689   -1.4644   20.6125 O   0  0  0  0  0  0  0  0  0  0  0  0
    6.6520   -0.0004   19.9062 C   0  0  0  0  0  0  0  0  0  0  0  0
    7.1747    0.0533   18.6053 C   0  0  0  0  0  0  0  0  0  0  0  0
    8.1196   -0.4336   18.3817 H   0  0  0  0  0  0  0  0  0  0  0  0
    6.5702    0.6722   17.5899 N   0  0  0  0  0  0  0  0  0  0  0  0
    5.4069    1.2880   17.8460 C   0  0  0  0  0  0  0  0  0  0  0  0
    4.9258    1.7770   17.0014 H   0  0  0  0  0  0  0  0  0  0  0  0
    4.8089    1.3074   19.1101 C   0  0  0  0  0  0  0  0  0  0  0  0
    3.8762    1.8408   19.2582 H   0  0  0  0  0  0  0  0  0  0  0  0
    5.4360    0.6495   20.1655 C   0  0  0  0  0  0  0  0  0  0  0  0
    4.9827    0.6469   21.1599 H   0  0  0  0  0  0  0  0  0  0  0  0
    6.2476    1.9142   23.6090 S   0  0  0  0  0  0  0  0  0  0  0  0
  1  2  1  0
  2  3  2  0
  3  4  1  0
  4  5  1  0
  4  6  2  0
  6  7  1  0
  7  8  1  0
  7  9  1  0
  7 10  1  0
 10 11  2  0
 10 12  1  0
 12 13  2  0
 13 14  1  0
 13 15  1  0
 15 16  2  0
 16 17  1  0
 16 18  1  0
 18 19  1  0
 18 20  2  0
 20 21  1  0
  6 22  1  0
 22  2  1  0
 20 12  1  0
M  END
>  <plip>  (1) 
-0.03571428571428571

>  <filename>  (1) 
[H][c]1[n][c]([H])[c]([C]([H])([H])[C](=[O])[c]2[c]([H])[n][c]([H])[c]([H])[c]2[H])[s]1

$$$$
