
     RDKit          3D

 24 26  0  0  0  0  0  0  0  0999 V2000
    9.7256   -2.4134   22.2124 H   0  0  0  0  0  0  0  0  0  0  0  0
    8.8343   -1.8385   22.0181 C   0  0  0  0  0  0  0  0  0  0  0  0
    8.5283   -1.3239   20.7748 N   0  0  0  0  0  0  0  0  0  0  0  0
    7.4026   -0.7074   20.9415 C   0  0  0  0  0  0  0  0  0  0  0  0
    6.6443    0.0107   19.9276 C   0  0  0  0  0  0  0  0  0  0  0  0
    7.1698    0.0537   18.6236 C   0  0  0  0  0  0  0  0  0  0  0  0
    8.1155   -0.4265   18.3886 H   0  0  0  0  0  0  0  0  0  0  0  0
    6.5700    0.6640   17.5970 N   0  0  0  0  0  0  0  0  0  0  0  0
    5.4089    1.2853   17.8480 C   0  0  0  0  0  0  0  0  0  0  0  0
    4.9376    1.7770   16.9986 H   0  0  0  0  0  0  0  0  0  0  0  0
    4.8029    1.3086   19.1114 C   0  0  0  0  0  0  0  0  0  0  0  0
    3.8724    1.8442   19.2501 H   0  0  0  0  0  0  0  0  0  0  0  0
    5.4204    0.6577   20.1787 C   0  0  0  0  0  0  0  0  0  0  0  0
    4.9798    0.6478   21.1815 H   0  0  0  0  0  0  0  0  0  0  0  0
    6.9274   -0.7786   22.2219 O   0  0  0  0  0  0  0  0  0  0  0  0
    7.8592   -1.5048   22.8897 C   0  0  0  0  0  0  0  0  0  0  0  0
    7.6845   -1.7736   24.2442 N   0  0  0  0  0  0  0  0  0  0  0  0
    6.6510   -1.3989   25.0864 C   0  0  0  0  0  0  0  0  0  0  0  0
    5.7880   -0.8107   24.7826 H   0  0  0  0  0  0  0  0  0  0  0  0
    6.8440   -1.8409   26.2964 N   0  0  0  0  0  0  0  0  0  0  0  0
    8.0385   -2.5302   26.2678 C   0  0  0  0  0  0  0  0  0  0  0  0
    8.4411   -3.0072   27.1523 H   0  0  0  0  0  0  0  0  0  0  0  0
    8.5789   -2.5080   25.0232 C   0  0  0  0  0  0  0  0  0  0  0  0
    9.4966   -2.9399   24.6388 H   0  0  0  0  0  0  0  0  0  0  0  0
  1  2  1  0
  2  3  1  0
  3  4  2  0
  4  5  1  0
  5  6  2  0
  6  7  1  0
  6  8  1  0
  8  9  2  0
  9 10  1  0
  9 11  1  0
 11 12  1  0
 11 13  2  0
 13 14  1  0
  4 15  1  0
 15 16  1  0
 16 17  1  0
 17 18  1  0
 18 19  1  0
 18 20  2  0
 20 21  1  0
 21 22  1  0
 21 23  2  0
 23 24  1  0
 16  2  2  0
 23 17  1  0
 13  5  1  0
M  END
>  <plip>  (1) 
-0.0

>  <filename>  (1) 
[H][c]1[n][c](-[c]2[c]([H])[n][c]([H])[c]([H])[c]2[H])[o][c]1-[n]1[c]([H])[n][c]([H])[c]1[H]

$$$$
