
     RDKit          3D

 29 30  0  0  0  0  0  0  0  0999 V2000
    4.9094    1.7816   16.9947 H   0  0  0  0  0  0  0  0  0  0  0  0
    5.4004    1.2968   17.8361 C   0  0  0  0  0  0  0  0  0  0  0  0
    6.5645    0.6805   17.5704 N   0  0  0  0  0  0  0  0  0  0  0  0
    7.1794    0.0691   18.5905 C   0  0  0  0  0  0  0  0  0  0  0  0
    8.1198   -0.4322   18.3714 H   0  0  0  0  0  0  0  0  0  0  0  0
    6.6639    0.0108   19.9004 C   0  0  0  0  0  0  0  0  0  0  0  0
    7.3497   -0.6773   20.9504 N   0  0  0  0  0  0  0  0  0  0  0  0
    6.8174   -1.6608   21.7553 C   0  0  0  0  0  0  0  0  0  0  0  0
    5.8055   -2.0233   21.5965 H   0  0  0  0  0  0  0  0  0  0  0  0
    7.6700   -2.0903   22.6518 N   0  0  0  0  0  0  0  0  0  0  0  0
    8.8007   -1.3426   22.4428 C   0  0  0  0  0  0  0  0  0  0  0  0
    9.6755   -1.4291   23.0644 H   0  0  0  0  0  0  0  0  0  0  0  0
    8.6447   -0.4642   21.4050 C   0  0  0  0  0  0  0  0  0  0  0  0
    9.5364    0.6325   20.9417 C   0  0  0  0  0  0  0  0  0  0  0  0
    9.6182    0.6173   19.8488 H   0  0  0  0  0  0  0  0  0  0  0  0
   10.5340    0.4275   21.3423 H   0  0  0  0  0  0  0  0  0  0  0  0
    9.0692    2.0183   21.4114 C   0  0  0  0  0  0  0  0  0  0  0  0
    8.0794    2.2168   20.9895 H   0  0  0  0  0  0  0  0  0  0  0  0
    9.7476    2.7673   20.9976 H   0  0  0  0  0  0  0  0  0  0  0  0
    9.0149    2.1932   22.9252 C   0  0  0  0  0  0  0  0  0  0  0  0
    8.5973    3.1864   23.1575 H   0  0  0  0  0  0  0  0  0  0  0  0
    8.3224    1.4579   23.3483 H   0  0  0  0  0  0  0  0  0  0  0  0
   10.3311    1.9723   23.5216 N   0  0  0  0  0  0  0  0  0  0  0  0
   10.9308    2.7486   23.2576 H   0  0  0  0  0  0  0  0  0  0  0  0
   10.2529    2.0280   24.5324 H   0  0  0  0  0  0  0  0  0  0  0  0
    5.4412    0.6446   20.1616 C   0  0  0  0  0  0  0  0  0  0  0  0
    5.0158    0.6270   21.1705 H   0  0  0  0  0  0  0  0  0  0  0  0
    4.8081    1.3109   19.1066 C   0  0  0  0  0  0  0  0  0  0  0  0
    3.8726    1.8443   19.2628 H   0  0  0  0  0  0  0  0  0  0  0  0
  1  2  1  0
  2  3  2  0
  3  4  1  0
  4  5  1  0
  4  6  2  0
  6  7  1  0
  7  8  1  0
  8  9  1  0
  8 10  2  0
 10 11  1  0
 11 12  1  0
 11 13  2  0
 13 14  1  0
 14 15  1  0
 14 16  1  0
 14 17  1  0
 17 18  1  0
 17 19  1  0
 17 20  1  0
 20 21  1  0
 20 22  1  0
 20 23  1  0
 23 24  1  0
 23 25  1  0
  6 26  1  0
 26 27  1  0
 26 28  2  0
 28 29  1  0
 28  2  1  0
 13  7  1  0
M  END
>  <plip>  (1) 
-0.0

>  <filename>  (1) 
[H][c]1[n][c]([H])[c](-[n]2[c]([H])[n][c]([H])[c]2[C]([H])([H])[C]([H])([H])[C]([H])([H])[N]([H])[H])[c]([H])[c]1[H]

$$$$
