
     RDKit          3D

 44 47  0  0  0  0  0  0  0  0999 V2000
    9.1036    1.4695   21.1472 O   0  0  0  0  0  0  0  0  0  0  0  0
    8.4663    1.1877   22.1575 C   0  0  0  0  0  0  0  0  0  0  0  0
    7.6414    0.1035   22.1849 N   0  0  0  0  0  0  0  0  0  0  0  0
    7.4124   -0.7096   20.9949 C   0  0  0  0  0  0  0  0  0  0  0  0
    6.6748   -2.0155   21.3236 C   0  0  0  0  0  0  0  0  0  0  0  0
    7.4469   -2.9413   22.2696 C   0  0  0  0  0  0  0  0  0  0  0  0
    6.6873   -4.2082   22.6107 C   0  0  0  0  0  0  0  0  0  0  0  0
    7.0166   -4.9212   23.8942 C   0  0  0  0  0  0  0  0  0  0  0  0
    5.7044   -4.1870   23.7539 C   0  0  0  0  0  0  0  0  0  0  0  0
    4.7797   -4.7565   23.6787 H   0  0  0  0  0  0  0  0  0  0  0  0
    5.5781   -3.2403   24.2821 H   0  0  0  0  0  0  0  0  0  0  0  0
    7.0220   -6.0088   23.9125 H   0  0  0  0  0  0  0  0  0  0  0  0
    7.7949   -4.4883   24.5238 H   0  0  0  0  0  0  0  0  0  0  0  0
    6.4302   -4.8238   21.7423 H   0  0  0  0  0  0  0  0  0  0  0  0
    7.6795   -2.3988   23.2023 H   0  0  0  0  0  0  0  0  0  0  0  0
    8.4144   -3.2015   21.8123 H   0  0  0  0  0  0  0  0  0  0  0  0
    5.6872   -1.7749   21.7454 H   0  0  0  0  0  0  0  0  0  0  0  0
    6.4691   -2.5314   20.3722 H   0  0  0  0  0  0  0  0  0  0  0  0
    6.6679    0.0489   19.9097 C   0  0  0  0  0  0  0  0  0  0  0  0
    5.4368    0.6764   20.1439 C   0  0  0  0  0  0  0  0  0  0  0  0
    4.7953    1.3186   19.0836 C   0  0  0  0  0  0  0  0  0  0  0  0
    5.3950    1.2928   17.8180 C   0  0  0  0  0  0  0  0  0  0  0  0
    6.5576    0.6754   17.5640 N   0  0  0  0  0  0  0  0  0  0  0  0
    7.1675    0.0820   18.6017 C   0  0  0  0  0  0  0  0  0  0  0  0
    8.1159   -0.4062   18.3706 H   0  0  0  0  0  0  0  0  0  0  0  0
    4.9275    1.7935   16.9715 H   0  0  0  0  0  0  0  0  0  0  0  0
    3.8586    1.8466   19.2285 H   0  0  0  0  0  0  0  0  0  0  0  0
    4.9865    0.6672   21.1401 H   0  0  0  0  0  0  0  0  0  0  0  0
    8.4050   -0.9607   20.5929 H   0  0  0  0  0  0  0  0  0  0  0  0
    6.9688    0.0963   22.9323 H   0  0  0  0  0  0  0  0  0  0  0  0
    8.5283    1.9318   23.4654 C   0  0  0  0  0  0  0  0  0  0  0  0
    8.1977    1.5558   24.7715 C   0  0  0  0  0  0  0  0  0  0  0  0
    8.5463    2.5708   25.6657 C   0  0  0  0  0  0  0  0  0  0  0  0
    9.0970    3.6190   24.9356 C   0  0  0  0  0  0  0  0  0  0  0  0
    9.5810    4.8210   25.3462 N   0  0  0  0  0  0  0  0  0  0  0  0
   10.0305    5.6181   24.3974 C   0  0  0  0  0  0  0  0  0  0  0  0
   10.0411    5.2730   23.0073 C   0  0  0  0  0  0  0  0  0  0  0  0
    9.5547    4.0499   22.6282 C   0  0  0  0  0  0  0  0  0  0  0  0
    9.0753    3.2111   23.5903 N   0  0  0  0  0  0  0  0  0  0  0  0
    9.4910    3.5991   21.6442 H   0  0  0  0  0  0  0  0  0  0  0  0
   10.4311    5.9799   22.2853 H   0  0  0  0  0  0  0  0  0  0  0  0
   10.4089    6.5909   24.7140 H   0  0  0  0  0  0  0  0  0  0  0  0
    8.4449    2.6138   26.7434 H   0  0  0  0  0  0  0  0  0  0  0  0
    7.7829    0.5966   25.0618 H   0  0  0  0  0  0  0  0  0  0  0  0
  1  2  2  0
  2  3  1  0
  3  4  1  0
  4  5  1  0
  5  6  1  0
  6  7  1  0
  7  8  1  0
  8  9  1  0
  9 10  1  0
  9 11  1  0
  8 12  1  0
  8 13  1  0
  7 14  1  0
  6 15  1  0
  6 16  1  0
  5 17  1  0
  5 18  1  0
  4 19  1  0
 19 20  2  0
 20 21  1  0
 21 22  2  0
 22 23  1  0
 23 24  2  0
 24 25  1  0
 22 26  1  0
 21 27  1  0
 20 28  1  0
  4 29  1  0
  3 30  1  0
  2 31  1  0
 31 32  2  0
 32 33  1  0
 33 34  2  0
 34 35  1  0
 35 36  2  0
 36 37  1  0
 37 38  2  0
 38 39  1  0
 38 40  1  0
 37 41  1  0
 36 42  1  0
 33 43  1  0
 32 44  1  0
  9  7  1  0
 24 19  1  0
 39 31  1  0
 39 34  1  0
M  END
>  <plip>  (1) 
-0.17857142857142858

>  <filename>  (1) 
[H][c]1[n][c]([H])[c]([C]([H])([N]([H])[C](=[O])[c]2[c]([H])[c]([H])[c]3[n][c]([H])[c]([H])[c]([H])[n]23)[C]([H])([H])[C]([H])([H])[C]2([H])[C]([H])([H])[C]2([H])[H])[c]([H])[c]1[H]

$$$$
