
     RDKit          3D

 39 40  0  0  0  0  0  0  0  0999 V2000
    9.5422    0.6678   20.9872 C   0  0  0  0  0  0  0  0  0  0  0  0
    8.3496    0.3184   21.8888 C   0  0  0  0  0  0  0  0  0  0  0  0
    8.8748   -0.2541   23.2172 C   0  0  0  0  0  0  0  0  0  0  0  0
    9.6339   -1.0303   23.0478 H   0  0  0  0  0  0  0  0  0  0  0  0
    8.0785   -0.6860   23.8344 H   0  0  0  0  0  0  0  0  0  0  0  0
    9.3659    0.5398   23.7933 H   0  0  0  0  0  0  0  0  0  0  0  0
    7.2757   -0.5882   21.2056 C   0  0  0  0  0  0  0  0  0  0  0  0
    7.8093   -1.9918   20.8267 C   0  0  0  0  0  0  0  0  0  0  0  0
    7.9190   -2.9446   21.9084 N   0  0  0  0  0  0  0  0  0  0  0  0
    6.8489   -3.5454   22.4811 C   0  0  0  0  0  0  0  0  0  0  0  0
    5.6528   -3.4731   21.8831 N   0  0  0  0  0  0  0  0  0  0  0  0
    4.5878   -4.1387   22.3631 N   0  0  0  0  0  0  0  0  0  0  0  0
    4.7145   -4.8552   23.4757 C   0  0  0  0  0  0  0  0  0  0  0  0
    5.9190   -4.9316   24.2067 C   0  0  0  0  0  0  0  0  0  0  0  0
    7.0285   -4.2798   23.6873 C   0  0  0  0  0  0  0  0  0  0  0  0
    8.3965   -4.2370   24.2903 C   0  0  0  0  0  0  0  0  0  0  0  0
    8.5099   -4.9696   25.4023 F   0  0  0  0  0  0  0  0  0  0  0  0
    8.7620   -2.9743   24.6106 F   0  0  0  0  0  0  0  0  0  0  0  0
    9.3416   -4.6761   23.4264 F   0  0  0  0  0  0  0  0  0  0  0  0
    5.9656   -5.4869   25.1450 H   0  0  0  0  0  0  0  0  0  0  0  0
    3.8234   -5.3741   23.8026 H   0  0  0  0  0  0  0  0  0  0  0  0
    8.7724   -2.9576   22.4283 H   0  0  0  0  0  0  0  0  0  0  0  0
    7.1221   -2.4093   20.0869 H   0  0  0  0  0  0  0  0  0  0  0  0
    8.7884   -1.9088   20.3418 H   0  0  0  0  0  0  0  0  0  0  0  0
    6.5866    0.0710   20.0005 C   0  0  0  0  0  0  0  0  0  0  0  0
    5.3696    0.7597   20.1506 C   0  0  0  0  0  0  0  0  0  0  0  0
    4.7891    1.3725   19.0352 C   0  0  0  0  0  0  0  0  0  0  0  0
    5.4299    1.2750   17.7987 C   0  0  0  0  0  0  0  0  0  0  0  0
    6.5690    0.5933   17.6136 N   0  0  0  0  0  0  0  0  0  0  0  0
    7.1105    0.0070   18.6905 C   0  0  0  0  0  0  0  0  0  0  0  0
    8.0214   -0.5626   18.4964 H   0  0  0  0  0  0  0  0  0  0  0  0
    5.0160    1.7508   16.9119 H   0  0  0  0  0  0  0  0  0  0  0  0
    3.8555    1.9171   19.1115 H   0  0  0  0  0  0  0  0  0  0  0  0
    4.8754    0.7976   21.1236 H   0  0  0  0  0  0  0  0  0  0  0  0
    6.4874   -0.7733   21.9514 H   0  0  0  0  0  0  0  0  0  0  0  0
    7.8224    1.2550   22.1234 H   0  0  0  0  0  0  0  0  0  0  0  0
   10.2350   -0.1795   20.8930 H   0  0  0  0  0  0  0  0  0  0  0  0
   10.1058    1.5094   21.4078 H   0  0  0  0  0  0  0  0  0  0  0  0
    9.2255    0.9449   19.9785 H   0  0  0  0  0  0  0  0  0  0  0  0
  1  2  1  0
  2  3  1  0
  3  4  1  0
  3  5  1  0
  3  6  1  0
  2  7  1  0
  7  8  1  0
  8  9  1  0
  9 10  1  0
 10 11  2  0
 11 12  1  0
 12 13  2  0
 13 14  1  0
 14 15  2  0
 15 16  1  0
 16 17  1  0
 16 18  1  0
 16 19  1  0
 14 20  1  0
 13 21  1  0
  9 22  1  0
  8 23  1  0
  8 24  1  0
  7 25  1  0
 25 26  2  0
 26 27  1  0
 27 28  2  0
 28 29  1  0
 29 30  2  0
 30 31  1  0
 28 32  1  0
 27 33  1  0
 26 34  1  0
  7 35  1  0
  2 36  1  0
  1 37  1  0
  1 38  1  0
  1 39  1  0
 15 10  1  0
 30 25  1  0
M  END
>  <plip>  (1) 
-0.06896551724137931

>  <filename>  (1) 
[H][c]1[n][c]([H])[c]([C]([H])([C]([H])([H])[N]([H])[c]2[n][n][c]([H])[c]([H])[c]2[C]([F])([F])[F])[C]([H])([C]([H])([H])[H])[C]([H])([H])[H])[c]([H])[c]1[H]

$$$$
