
     RDKit          3D

 49 51  0  0  0  0  0  0  0  0999 V2000
    5.9724    2.6093   28.6753 C   0  0  0  0  0  0  0  0  0  0  0  0
    6.5972    2.0036   27.8394 C   0  0  0  0  0  0  0  0  0  0  0  0
    7.3530    1.2626   26.8582 C   0  0  0  0  0  0  0  0  0  0  0  0
    7.7261    1.8642   25.6445 C   0  0  0  0  0  0  0  0  0  0  0  0
    8.4539    1.1541   24.6880 C   0  0  0  0  0  0  0  0  0  0  0  0
    8.7684    1.7766   23.4372 N   0  0  0  0  0  0  0  0  0  0  0  0
    9.6628    2.9387   23.4648 C   0  0  0  0  0  0  0  0  0  0  0  0
   11.1240    2.5373   23.6308 C   0  0  0  0  0  0  0  0  0  0  0  0
   11.7550    3.4313   23.6837 H   0  0  0  0  0  0  0  0  0  0  0  0
   11.4429    1.9351   22.7737 H   0  0  0  0  0  0  0  0  0  0  0  0
   11.2623    1.9543   24.5502 H   0  0  0  0  0  0  0  0  0  0  0  0
    9.5211    3.5003   22.5334 H   0  0  0  0  0  0  0  0  0  0  0  0
    9.3491    3.5898   24.2909 H   0  0  0  0  0  0  0  0  0  0  0  0
    8.6009    1.1247   22.2122 C   0  0  0  0  0  0  0  0  0  0  0  0
    9.2601    1.3810   21.2115 O   0  0  0  0  0  0  0  0  0  0  0  0
    7.6139    0.1968   22.2180 N   0  0  0  0  0  0  0  0  0  0  0  0
    7.3399   -0.6485   21.0883 C   0  0  0  0  0  0  0  0  0  0  0  0
    6.6161    0.1066   19.9844 C   0  0  0  0  0  0  0  0  0  0  0  0
    5.3838    0.7524   20.1678 C   0  0  0  0  0  0  0  0  0  0  0  0
    4.7816    1.3587   19.0629 C   0  0  0  0  0  0  0  0  0  0  0  0
    5.4235    1.3072   17.8209 C   0  0  0  0  0  0  0  0  0  0  0  0
    6.6032    0.7010   17.6257 N   0  0  0  0  0  0  0  0  0  0  0  0
    7.1685    0.1274   18.6979 C   0  0  0  0  0  0  0  0  0  0  0  0
    8.1220   -0.3739   18.5184 H   0  0  0  0  0  0  0  0  0  0  0  0
    4.9691    1.7621   16.9423 H   0  0  0  0  0  0  0  0  0  0  0  0
    3.8319    1.8738   19.1497 H   0  0  0  0  0  0  0  0  0  0  0  0
    4.9054    0.7921   21.1510 H   0  0  0  0  0  0  0  0  0  0  0  0
    6.5744   -1.8966   21.5624 C   0  0  0  0  0  0  0  0  0  0  0  0
    7.3309   -2.8209   22.5369 C   0  0  0  0  0  0  0  0  0  0  0  0
    6.8487   -4.2171   22.1460 C   0  0  0  0  0  0  0  0  0  0  0  0
    6.4829   -4.1553   20.7780 O   0  0  0  0  0  0  0  0  0  0  0  0
    6.1824   -2.8274   20.4064 C   0  0  0  0  0  0  0  0  0  0  0  0
    6.7223   -2.5802   19.4891 H   0  0  0  0  0  0  0  0  0  0  0  0
    5.1270   -2.7162   20.1462 H   0  0  0  0  0  0  0  0  0  0  0  0
    5.9902   -4.5421   22.7474 H   0  0  0  0  0  0  0  0  0  0  0  0
    7.6317   -4.9718   22.2649 H   0  0  0  0  0  0  0  0  0  0  0  0
    7.1330   -2.6015   23.5913 H   0  0  0  0  0  0  0  0  0  0  0  0
    8.4155   -2.7452   22.3999 H   0  0  0  0  0  0  0  0  0  0  0  0
    5.6552   -1.5510   22.0342 H   0  0  0  0  0  0  0  0  0  0  0  0
    8.3048   -0.9847   20.6813 H   0  0  0  0  0  0  0  0  0  0  0  0
    7.0796    0.1181   23.0627 H   0  0  0  0  0  0  0  0  0  0  0  0
    8.8541   -0.1648   24.9690 C   0  0  0  0  0  0  0  0  0  0  0  0
    8.4875   -0.7744   26.1736 C   0  0  0  0  0  0  0  0  0  0  0  0
    7.7326   -0.0685   27.1132 C   0  0  0  0  0  0  0  0  0  0  0  0
    7.4374   -0.5315   28.0485 H   0  0  0  0  0  0  0  0  0  0  0  0
    8.7806   -1.8025   26.3773 H   0  0  0  0  0  0  0  0  0  0  0  0
    9.4373   -0.7073   24.2328 H   0  0  0  0  0  0  0  0  0  0  0  0
    7.4170    2.8818   25.4312 H   0  0  0  0  0  0  0  0  0  0  0  0
    5.4091    3.1441   29.4108 H   0  0  0  0  0  0  0  0  0  0  0  0
  1  2  3  0
  2  3  1  0
  3  4  2  0
  4  5  1  0
  5  6  1  0
  6  7  1  0
  7  8  1  0
  8  9  1  0
  8 10  1  0
  8 11  1  0
  7 12  1  0
  7 13  1  0
  6 14  1  0
 14 15  2  0
 14 16  1  0
 16 17  1  0
 17 18  1  0
 18 19  2  0
 19 20  1  0
 20 21  2  0
 21 22  1  0
 22 23  2  0
 23 24  1  0
 21 25  1  0
 20 26  1  0
 19 27  1  0
 17 28  1  0
 28 29  1  0
 29 30  1  0
 30 31  1  0
 31 32  1  0
 32 33  1  0
 32 34  1  0
 30 35  1  0
 30 36  1  0
 29 37  1  0
 29 38  1  0
 28 39  1  0
 17 40  1  0
 16 41  1  0
  5 42  2  0
 42 43  1  0
 43 44  2  0
 44 45  1  0
 43 46  1  0
 42 47  1  0
  4 48  1  0
  1 49  1  0
 44  3  1  0
 23 18  1  0
 32 28  1  0
M  END
>  <plip>  (1) 
-0.17857142857142858

>  <filename>  (1) 
[H][C]#[C][c]1[c]([H])[c]([H])[c]([H])[c]([N]([C](=[O])[N]([H])[C]([H])([c]2[c]([H])[n][c]([H])[c]([H])[c]2[H])[C]2([H])[C]([H])([H])[O][C]([H])([H])[C]2([H])[H])[C]([H])([H])[C]([H])([H])[H])[c]1[H]

$$$$
