
     RDKit          3D

 33 35  0  0  0  0  0  0  0  0999 V2000
    9.4276    0.0670   20.4210 O   0  0  0  0  0  0  0  0  0  0  0  0
    8.7350   -0.6804   21.0860 C   0  0  0  0  0  0  0  0  0  0  0  0
    7.3623   -0.7034   20.9258 N   0  0  0  0  0  0  0  0  0  0  0  0
    6.6715   -0.0004   19.9024 C   0  0  0  0  0  0  0  0  0  0  0  0
    5.4482    0.6295   20.1688 C   0  0  0  0  0  0  0  0  0  0  0  0
    4.8151    1.3020   19.1145 C   0  0  0  0  0  0  0  0  0  0  0  0
    5.3947    1.2967   17.8398 C   0  0  0  0  0  0  0  0  0  0  0  0
    6.5546    0.6773   17.5659 N   0  0  0  0  0  0  0  0  0  0  0  0
    7.1748    0.0651   18.5789 C   0  0  0  0  0  0  0  0  0  0  0  0
    8.1203   -0.4194   18.3642 H   0  0  0  0  0  0  0  0  0  0  0  0
    4.9134    1.7864   16.9975 H   0  0  0  0  0  0  0  0  0  0  0  0
    3.8835    1.8354   19.2666 H   0  0  0  0  0  0  0  0  0  0  0  0
    5.0175    0.6216   21.1731 H   0  0  0  0  0  0  0  0  0  0  0  0
    6.8078   -1.0867   21.6765 H   0  0  0  0  0  0  0  0  0  0  0  0
    9.3219   -1.6591   22.1604 C   0  0  0  0  0  0  0  0  0  0  0  0
   10.8101   -1.9638   21.9367 C   0  0  0  0  0  0  0  0  0  0  0  0
   11.7275   -0.8781   22.4490 C   0  0  0  0  0  0  0  0  0  0  0  0
   13.0807   -0.8457   22.0817 C   0  0  0  0  0  0  0  0  0  0  0  0
   13.9296    0.1365   22.5952 C   0  0  0  0  0  0  0  0  0  0  0  0
   13.4281    1.0926   23.4858 C   0  0  0  0  0  0  0  0  0  0  0  0
   12.0855    1.0646   23.8589 C   0  0  0  0  0  0  0  0  0  0  0  0
   11.2295    0.0834   23.3455 C   0  0  0  0  0  0  0  0  0  0  0  0
    9.7598    0.0686   23.7232 C   0  0  0  0  0  0  0  0  0  0  0  0
    9.1303   -1.1870   23.4932 O   0  0  0  0  0  0  0  0  0  0  0  0
    9.6308    0.2665   24.7892 H   0  0  0  0  0  0  0  0  0  0  0  0
    9.2358    0.8705   23.1767 H   0  0  0  0  0  0  0  0  0  0  0  0
   11.6958    1.8094   24.5508 H   0  0  0  0  0  0  0  0  0  0  0  0
   14.0703    1.8724   23.8736 H   0  0  0  0  0  0  0  0  0  0  0  0
   14.9737    0.1688   22.3028 H   0  0  0  0  0  0  0  0  0  0  0  0
   13.4641   -1.5940   21.3877 H   0  0  0  0  0  0  0  0  0  0  0  0
   11.0517   -2.9010   22.4507 H   0  0  0  0  0  0  0  0  0  0  0  0
   11.0012   -2.1363   20.8796 H   0  0  0  0  0  0  0  0  0  0  0  0
    8.7511   -2.5961   22.1047 H   0  0  0  0  0  0  0  0  0  0  0  0
  1  2  2  0
  2  3  1  0
  3  4  1  0
  4  5  2  0
  5  6  1  0
  6  7  2  0
  7  8  1  0
  8  9  2  0
  9 10  1  0
  7 11  1  0
  6 12  1  0
  5 13  1  0
  3 14  1  0
  2 15  1  0
 15 16  1  0
 16 17  1  0
 17 18  2  0
 18 19  1  0
 19 20  2  0
 20 21  1  0
 21 22  2  0
 22 23  1  0
 23 24  1  0
 23 25  1  0
 23 26  1  0
 21 27  1  0
 20 28  1  0
 19 29  1  0
 18 30  1  0
 16 31  1  0
 16 32  1  0
 15 33  1  0
  9  4  1  0
 24 15  1  0
 22 17  1  0
M  END
>  <plip>  (1) 
-0.14285714285714285

>  <filename>  (1) 
[H][c]1[n][c]([H])[c]([N]([H])[C](=[O])[C]2([H])[O][C]([H])([H])[c]3[c]([H])[c]([H])[c]([H])[c]([H])[c]3[C]2([H])[H])[c]([H])[c]1[H]

$$$$
