
     RDKit          3D

 35 37  0  0  0  0  0  0  0  0999 V2000
    5.7814   -2.2284   21.5209 O   0  0  0  0  0  0  0  0  0  0  0  0
    6.7656   -1.5638   21.7752 C   0  0  0  0  0  0  0  0  0  0  0  0
    7.3691   -0.6891   20.8946 N   0  0  0  0  0  0  0  0  0  0  0  0
    6.6985   -0.0048   19.8316 C   0  0  0  0  0  0  0  0  0  0  0  0
    5.4707    0.6176   20.0858 C   0  0  0  0  0  0  0  0  0  0  0  0
    4.8365    1.3081   19.0499 C   0  0  0  0  0  0  0  0  0  0  0  0
    5.4306    1.3239   17.7834 C   0  0  0  0  0  0  0  0  0  0  0  0
    6.5998    0.7209   17.5184 N   0  0  0  0  0  0  0  0  0  0  0  0
    7.2195    0.0822   18.5195 C   0  0  0  0  0  0  0  0  0  0  0  0
    8.1661   -0.3982   18.2710 H   0  0  0  0  0  0  0  0  0  0  0  0
    4.9456    1.8319   16.9513 H   0  0  0  0  0  0  0  0  0  0  0  0
    3.8981    1.8227   19.2133 H   0  0  0  0  0  0  0  0  0  0  0  0
    5.0431    0.5586   21.0891 H   0  0  0  0  0  0  0  0  0  0  0  0
    8.3128   -0.4046   21.1413 H   0  0  0  0  0  0  0  0  0  0  0  0
    7.4450   -1.7149   23.1697 C   0  0  1  0  0  0  0  0  0  0  0  0
    8.9704   -1.8718   23.1947 C   0  0  0  0  0  0  0  0  0  0  0  0
    9.7824   -0.5791   23.0926 C   0  0  0  0  0  0  0  0  0  0  0  0
   11.1332   -0.6526   22.7040 C   0  0  0  0  0  0  0  0  0  0  0  0
   11.9343    0.4922   22.6440 C   0  0  0  0  0  0  0  0  0  0  0  0
   11.3898    1.7364   22.9788 C   0  0  0  0  0  0  0  0  0  0  0  0
   10.0516    1.8249   23.3744 C   0  0  0  0  0  0  0  0  0  0  0  0
    9.2380    0.6783   23.4441 C   0  0  0  0  0  0  0  0  0  0  0  0
    7.7826    0.8483   23.8555 C   0  0  0  0  0  0  0  0  0  0  0  0
    7.2048   -0.4169   24.3838 N   0  0  0  0  0  4  0  0  0  0  0  0
    6.2145   -0.3068   24.6220 H   0  0  0  0  0  0  0  0  0  0  0  0
    7.7466   -0.6885   25.2281 H   0  0  0  0  0  0  0  0  0  0  0  0
    7.2159    1.1702   22.9689 H   0  0  0  0  0  0  0  0  0  0  0  0
    7.7209    1.6798   24.5706 H   0  0  0  0  0  0  0  0  0  0  0  0
    9.6445    2.8039   23.6305 H   0  0  0  0  0  0  0  0  0  0  0  0
   12.0060    2.6305   22.9149 H   0  0  0  0  0  0  0  0  0  0  0  0
   12.9744    0.4108   22.3342 H   0  0  0  0  0  0  0  0  0  0  0  0
   11.5571   -1.6233   22.4477 H   0  0  0  0  0  0  0  0  0  0  0  0
    9.2903   -2.5550   22.3983 H   0  0  0  0  0  0  0  0  0  0  0  0
    9.2242   -2.3686   24.1441 H   0  0  0  0  0  0  0  0  0  0  0  0
    6.9266   -2.5717   23.5903 H   0  0  0  0  0  0  0  0  0  0  0  0
  1  2  2  0
  2  3  1  0
  3  4  1  0
  4  5  2  0
  5  6  1  0
  6  7  2  0
  7  8  1  0
  8  9  2  0
  9 10  1  0
  7 11  1  0
  6 12  1  0
  5 13  1  0
  3 14  1  0
  2 15  1  0
 15 16  1  0
 16 17  1  0
 17 18  2  0
 18 19  1  0
 19 20  2  0
 20 21  1  0
 21 22  2  0
 22 23  1  0
 23 24  1  0
 24 25  1  0
 24 26  1  0
 23 27  1  0
 23 28  1  0
 21 29  1  0
 20 30  1  0
 19 31  1  0
 18 32  1  0
 16 33  1  0
 16 34  1  0
 15 35  1  1
  9  4  1  0
 24 15  1  0
 22 17  1  0
M  CHG  1  24   1
M  END
>  <plip>  (1) 
-0.10714285714285714

>  <filename>  (1) 
[H][c]1[n][c]([H])[c]([N]([H])[C](=[O])[C@@]2([H])[C]([H])([H])[c]3[c]([H])[c]([H])[c]([H])[c]([H])[c]3[C]([H])([H])[N+]2([H])[H])[c]([H])[c]1[H]

$$$$
