
     RDKit          3D

 49 52  0  0  0  0  0  0  0  0999 V2000
    5.7485    3.5323   21.4163 O   0  0  0  0  0  0  0  0  0  0  0  0
    6.5292    4.3142   21.9211 C   0  0  0  0  0  0  0  0  0  0  0  0
    6.3458    5.6674   21.7765 N   0  0  0  0  0  0  0  0  0  0  0  0
    6.9121    6.6687   22.5831 C   0  0  0  0  0  0  0  0  0  0  0  0
    6.5521    8.0081   22.3890 C   0  0  0  0  0  0  0  0  0  0  0  0
    7.1127    9.0066   23.1870 C   0  0  0  0  0  0  0  0  0  0  0  0
    8.0983    8.6840   24.1326 C   0  0  0  0  0  0  0  0  0  0  0  0
    8.4522    7.3402   24.3154 C   0  0  0  0  0  0  0  0  0  0  0  0
    7.8235    6.3067   23.5985 C   0  0  0  0  0  0  0  0  0  0  0  0
    7.9944    4.8249   23.9306 C   0  0  0  0  0  0  0  0  0  0  0  0
    7.7984    3.9138   22.6968 C   0  0  0  0  0  0  0  0  0  0  0  0
    7.8588    2.4144   23.0908 C   0  0  0  0  0  0  0  0  0  0  0  0
    8.0724    1.4165   21.9567 C   0  0  0  0  0  0  0  0  0  0  0  0
    8.6482    1.7204   20.9258 O   0  0  0  0  0  0  0  0  0  0  0  0
    7.5765    0.1283   22.1967 N   0  0  0  0  0  0  0  0  0  0  0  0
    7.9628   -0.5536   23.4550 C   0  0  0  0  0  0  0  0  0  0  0  0
    7.1216   -1.7980   23.7318 C   0  0  0  0  0  0  0  0  0  0  0  0
    7.1464   -2.7496   22.5339 C   0  0  0  0  0  0  0  0  0  0  0  0
    6.6349   -2.0011   21.3027 C   0  0  0  0  0  0  0  0  0  0  0  0
    7.4082   -0.7106   20.9909 C   0  0  1  0  0  0  0  0  0  0  0  0
    6.6593    0.0358   19.8945 C   0  0  0  0  0  0  0  0  0  0  0  0
    5.4556    0.7128   20.1306 C   0  0  0  0  0  0  0  0  0  0  0  0
    4.8187    1.3408   19.0589 C   0  0  0  0  0  0  0  0  0  0  0  0
    5.4133    1.2837   17.7934 C   0  0  0  0  0  0  0  0  0  0  0  0
    6.5631    0.6417   17.5482 N   0  0  0  0  0  0  0  0  0  0  0  0
    7.1632    0.0485   18.5928 C   0  0  0  0  0  0  0  0  0  0  0  0
    8.1153   -0.4386   18.3760 H   0  0  0  0  0  0  0  0  0  0  0  0
    4.9482    1.7806   16.9440 H   0  0  0  0  0  0  0  0  0  0  0  0
    3.8985    1.8947   19.2008 H   0  0  0  0  0  0  0  0  0  0  0  0
    5.0455    0.7910   21.1398 H   0  0  0  0  0  0  0  0  0  0  0  0
    8.4092   -0.9759   20.6127 H   0  0  0  0  0  0  0  0  0  0  0  0
    5.5853   -1.7278   21.4719 H   0  0  0  0  0  0  0  0  0  0  0  0
    6.6548   -2.6333   20.4096 H   0  0  0  0  0  0  0  0  0  0  0  0
    6.5168   -3.6286   22.7254 H   0  0  0  0  0  0  0  0  0  0  0  0
    8.1712   -3.1175   22.3675 H   0  0  0  0  0  0  0  0  0  0  0  0
    6.0897   -1.4970   23.9475 H   0  0  0  0  0  0  0  0  0  0  0  0
    7.4951   -2.2899   24.6397 H   0  0  0  0  0  0  0  0  0  0  0  0
    7.8437    0.1407   24.2931 H   0  0  0  0  0  0  0  0  0  0  0  0
    9.0291   -0.8455   23.4286 H   0  0  0  0  0  0  0  0  0  0  0  0
    6.9496    2.1132   23.6278 H   0  0  0  0  0  0  0  0  0  0  0  0
    8.7087    2.2528   23.7715 H   0  0  0  0  0  0  0  0  0  0  0  0
    8.6202    4.1221   21.9969 H   0  0  0  0  0  0  0  0  0  0  0  0
    7.2836    4.5094   24.7165 H   0  0  0  0  0  0  0  0  0  0  0  0
    8.9934    4.6506   24.3462 H   0  0  0  0  0  0  0  0  0  0  0  0
    9.2326    7.0990   25.0368 H   0  0  0  0  0  0  0  0  0  0  0  0
    8.5861    9.4694   24.7083 H   0  0  0  0  0  0  0  0  0  0  0  0
    6.7999   10.0427   23.0596 H   0  0  0  0  0  0  0  0  0  0  0  0
    5.8438    8.2513   21.5996 H   0  0  0  0  0  0  0  0  0  0  0  0
    5.5675    5.8678   21.1659 H   0  0  0  0  0  0  0  0  0  0  0  0
  1  2  2  0
  2  3  1  0
  3  4  1  0
  4  5  2  0
  5  6  1  0
  6  7  2  0
  7  8  1  0
  8  9  2  0
  9 10  1  0
 10 11  1  0
 11 12  1  0
 12 13  1  0
 13 14  2  0
 13 15  1  0
 15 16  1  0
 16 17  1  0
 17 18  1  0
 18 19  1  0
 19 20  1  0
 20 21  1  0
 21 22  2  0
 22 23  1  0
 23 24  2  0
 24 25  1  0
 25 26  2  0
 26 27  1  0
 24 28  1  0
 23 29  1  0
 22 30  1  0
 20 31  1  6
 19 32  1  0
 19 33  1  0
 18 34  1  0
 18 35  1  0
 17 36  1  0
 17 37  1  0
 16 38  1  0
 16 39  1  0
 12 40  1  0
 12 41  1  0
 11 42  1  0
 10 43  1  0
 10 44  1  0
  8 45  1  0
  7 46  1  0
  6 47  1  0
  5 48  1  0
  3 49  1  0
 11  2  1  0
 20 15  1  0
 26 21  1  0
  9  4  1  0
M  END
>  <plip>  (1) 
-0.1724137931034483

>  <filename>  (1) 
[H][c]1[n][c]([H])[c]([C@@]2([H])[N]([C](=[O])[C]([H])([H])[C]3([H])[C](=[O])[N]([H])[c]4[c]([H])[c]([H])[c]([H])[c]([H])[c]4[C]3([H])[H])[C]([H])([H])[C]([H])([H])[C]([H])([H])[C]2([H])[H])[c]([H])[c]1[H]

$$$$
