
     RDKit          3D

 32 33  0  0  0  0  0  0  0  0999 V2000
    4.9646    1.7534   17.0077 H   0  0  0  0  0  0  0  0  0  0  0  0
    5.4442    1.2786   17.8623 C   0  0  0  0  0  0  0  0  0  0  0  0
    6.6056    0.6519   17.6260 N   0  0  0  0  0  0  0  0  0  0  0  0
    7.2165    0.0622   18.6608 C   0  0  0  0  0  0  0  0  0  0  0  0
    8.1505   -0.4524   18.4257 H   0  0  0  0  0  0  0  0  0  0  0  0
    6.7171    0.0809   19.9762 C   0  0  0  0  0  0  0  0  0  0  0  0
    7.4477   -0.6081   21.0585 C   0  0  0  0  0  0  0  0  0  0  0  0
    8.0620   -2.0950   20.8741 S   0  0  0  0  0  0  0  0  0  0  0  0
    7.6665    0.1187   22.3520 C   0  0  0  0  0  0  0  0  0  0  0  0
    6.9213    0.8763   22.6033 H   0  0  0  0  0  0  0  0  0  0  0  0
    7.8544   -0.5728   23.1733 H   0  0  0  0  0  0  0  0  0  0  0  0
    9.1782    0.9578   22.0171 S   0  0  0  0  0  0  0  0  0  0  0  0
    8.9650    1.8715   20.9145 O   0  0  0  0  0  0  0  0  0  0  0  0
   10.2638   -0.0092   21.9992 O   0  0  0  0  0  0  0  0  0  0  0  0
    9.3157    1.8859   23.4299 N   0  0  0  0  0  0  0  0  0  0  0  0
    9.5333    1.1771   24.7159 C   0  0  0  0  0  0  0  0  0  0  0  0
    8.8782    0.3085   24.8267 H   0  0  0  0  0  0  0  0  0  0  0  0
    9.2373    1.8875   25.4999 H   0  0  0  0  0  0  0  0  0  0  0  0
   11.0019    0.7725   24.9697 C   0  0  0  0  0  0  0  0  0  0  0  0
   11.2915   -0.0092   24.2577 H   0  0  0  0  0  0  0  0  0  0  0  0
   11.1164    0.3859   25.9863 H   0  0  0  0  0  0  0  0  0  0  0  0
   11.8798    1.8917   24.8583 O   0  0  0  0  0  0  0  0  0  0  0  0
   11.7581    2.5178   23.5830 C   0  0  0  0  0  0  0  0  0  0  0  0
   12.0763    1.8241   22.7917 H   0  0  0  0  0  0  0  0  0  0  0  0
   12.4422    3.3688   23.5904 H   0  0  0  0  0  0  0  0  0  0  0  0
   10.3107    2.9851   23.3169 C   0  0  0  0  0  0  0  0  0  0  0  0
   10.2230    3.4786   22.3457 H   0  0  0  0  0  0  0  0  0  0  0  0
   10.0433    3.7213   24.0863 H   0  0  0  0  0  0  0  0  0  0  0  0
    5.4811    0.7138   20.1947 C   0  0  0  0  0  0  0  0  0  0  0  0
    5.0240    0.7018   21.1852 H   0  0  0  0  0  0  0  0  0  0  0  0
    4.8358    1.3198   19.1201 C   0  0  0  0  0  0  0  0  0  0  0  0
    3.8827    1.8170   19.2473 H   0  0  0  0  0  0  0  0  0  0  0  0
  1  2  1  0
  2  3  2  0
  3  4  1  0
  4  5  1  0
  4  6  2  0
  6  7  1  0
  7  8  2  0
  7  9  1  0
  9 10  1  0
  9 11  1  0
  9 12  1  0
 12 13  2  0
 12 14  2  0
 12 15  1  0
 15 16  1  0
 16 17  1  0
 16 18  1  0
 16 19  1  0
 19 20  1  0
 19 21  1  0
 19 22  1  0
 22 23  1  0
 23 24  1  0
 23 25  1  0
 23 26  1  0
 26 27  1  0
 26 28  1  0
  6 29  1  0
 29 30  1  0
 29 31  2  0
 31 32  1  0
 31  2  1  0
 26 15  1  0
M  END
>  <plip>  (1) 
-0.07142857142857142

>  <filename>  (1) 
[H][c]1[n][c]([H])[c]([C](=[S])[C]([H])([H])[S](=[O])(=[O])[N]2[C]([H])([H])[C]([H])([H])[O][C]([H])([H])[C]2([H])[H])[c]([H])[c]1[H]

$$$$
