
     RDKit          3D

 22 23  0  0  0  0  0  0  0  0999 V2000
    7.9199   -1.6371   20.6173 H   0  0  0  0  0  0  0  0  0  0  0  0
    7.3928   -0.7268   20.9040 C   0  0  0  0  0  0  0  0  0  0  0  0
    7.5283   -0.3701   22.1822 C   0  0  0  0  0  0  0  0  0  0  0  0
    7.0140    0.7965   22.6485 F   0  0  0  0  0  0  0  0  0  0  0  0
    8.2545   -1.1129   23.2061 C   0  0  0  0  0  0  0  0  0  0  0  0
    8.8360   -2.2859   22.9475 N   0  0  0  0  0  0  0  0  0  0  0  0
    9.3932   -2.6491   24.1000 N   0  0  0  0  0  0  0  0  0  0  0  0
    9.8939   -3.5238   24.1277 H   0  0  0  0  0  0  0  0  0  0  0  0
    9.1931   -1.7533   25.0963 C   0  0  0  0  0  0  0  0  0  0  0  0
    9.5781   -1.9086   26.0923 H   0  0  0  0  0  0  0  0  0  0  0  0
    8.4543   -0.7360   24.5519 C   0  0  0  0  0  0  0  0  0  0  0  0
    8.0937    0.1618   25.0188 H   0  0  0  0  0  0  0  0  0  0  0  0
    6.6470    0.0043   19.8772 C   0  0  0  0  0  0  0  0  0  0  0  0
    7.1567    0.0592   18.5656 C   0  0  0  0  0  0  0  0  0  0  0  0
    8.1113   -0.4233   18.3573 H   0  0  0  0  0  0  0  0  0  0  0  0
    6.5578    0.6865   17.5539 N   0  0  0  0  0  0  0  0  0  0  0  0
    5.3917    1.2985   17.8261 C   0  0  0  0  0  0  0  0  0  0  0  0
    4.9118    1.7899   16.9866 H   0  0  0  0  0  0  0  0  0  0  0  0
    4.8000    1.3149   19.0921 C   0  0  0  0  0  0  0  0  0  0  0  0
    3.8714    1.8461   19.2499 H   0  0  0  0  0  0  0  0  0  0  0  0
    5.4333    0.6619   20.1482 C   0  0  0  0  0  0  0  0  0  0  0  0
    5.0143    0.6380   21.1567 H   0  0  0  0  0  0  0  0  0  0  0  0
  1  2  1  0
  2  3  2  3
  3  4  1  0
  3  5  1  0
  5  6  2  0
  6  7  1  0
  7  8  1  0
  7  9  1  0
  9 10  1  0
  9 11  2  0
 11 12  1  0
  2 13  1  0
 13 14  2  0
 14 15  1  0
 14 16  1  0
 16 17  2  0
 17 18  1  0
 17 19  1  0
 19 20  1  0
 19 21  2  0
 21 22  1  0
 11  5  1  0
 21 13  1  0
M  END
>  <plip>  (1) 
-0.03571428571428571

>  <filename>  (1) 
[H][C](=[C]([F])[c]1[n][n]([H])[c]([H])[c]1[H])[c]1[c]([H])[n][c]([H])[c]([H])[c]1[H]

$$$$
