
     RDKit          3D

 37 38  0  0  0  0  0  0  0  0999 V2000
   11.6086    2.2054   24.1487 N   0  0  0  0  0  4  0  0  0  0  0  0
   10.8238    1.2747   23.2928 C   0  0  0  0  0  0  0  0  0  0  0  0
   10.2509    1.9492   22.0320 C   0  0  0  0  0  0  0  0  0  0  0  0
    9.3907    1.0288   21.2565 N   0  0  0  0  0  0  0  0  0  0  0  0
    8.2597    0.3998   21.7816 C   0  0  0  0  0  0  0  0  0  0  0  0
    7.9807    0.7052   22.9374 O   0  0  0  0  0  0  0  0  0  0  0  0
    7.4079   -0.6351   20.9639 C   0  0  0  0  0  0  0  0  0  0  0  0
    8.2320   -1.5912   20.4423 F   0  0  0  0  0  0  0  0  0  0  0  0
    6.5010   -1.2883   21.7464 F   0  0  0  0  0  0  0  0  0  0  0  0
    6.6408    0.0227   19.8326 C   0  0  0  0  0  0  0  0  0  0  0  0
    5.4644    0.7399   20.0715 C   0  0  0  0  0  0  0  0  0  0  0  0
    4.8539    1.3591   18.9854 C   0  0  0  0  0  0  0  0  0  0  0  0
    5.4173    1.2596   17.7120 C   0  0  0  0  0  0  0  0  0  0  0  0
    6.5329    0.5482   17.4797 N   0  0  0  0  0  0  0  0  0  0  0  0
    7.1217   -0.0598   18.5184 C   0  0  0  0  0  0  0  0  0  0  0  0
    8.0367   -0.6119   18.3311 H   0  0  0  0  0  0  0  0  0  0  0  0
    4.9398    1.7762   16.8842 H   0  0  0  0  0  0  0  0  0  0  0  0
    3.9504    1.9401   19.1162 H   0  0  0  0  0  0  0  0  0  0  0  0
    5.0413    0.8304   21.0725 H   0  0  0  0  0  0  0  0  0  0  0  0
    9.7320    0.6907   20.3628 H   0  0  0  0  0  0  0  0  0  0  0  0
    9.6742    2.8298   22.3348 H   0  0  0  0  0  0  0  0  0  0  0  0
   11.0828    2.2941   21.4076 H   0  0  0  0  0  0  0  0  0  0  0  0
   11.6943    0.1305   22.8590 C   0  0  0  0  0  0  0  0  0  0  0  0
   12.9857    0.3344   22.3487 C   0  0  0  0  0  0  0  0  0  0  0  0
   13.7158   -0.7436   21.8588 C   0  0  0  0  0  0  0  0  0  0  0  0
   13.2055   -2.0304   21.9164 C   0  0  0  0  0  0  0  0  0  0  0  0
   11.9132   -2.2346   22.3896 C   0  0  0  0  0  0  0  0  0  0  0  0
   11.1463   -1.1629   22.8358 C   0  0  0  0  0  0  0  0  0  0  0  0
    9.3482   -1.5095   23.3891 Br  0  0  0  0  0  0  0  0  0  0  0  0
   11.4740   -3.2208   22.4394 H   0  0  0  0  0  0  0  0  0  0  0  0
   13.8276   -2.8592   21.6046 H   0  0  0  0  0  0  0  0  0  0  0  0
   14.6623   -0.5853   21.3820 H   0  0  0  0  0  0  0  0  0  0  0  0
   13.4097    1.3303   22.2645 H   0  0  0  0  0  0  0  0  0  0  0  0
    9.9727    0.8549   23.8484 H   0  0  0  0  0  0  0  0  0  0  0  0
   12.0303    1.6727   24.9121 H   0  0  0  0  0  0  0  0  0  0  0  0
   11.0040    2.9271   24.5345 H   0  0  0  0  0  0  0  0  0  0  0  0
   12.3485    2.6382   23.5974 H   0  0  0  0  0  0  0  0  0  0  0  0
  1  2  1  0
  2  3  1  0
  3  4  1  0
  4  5  1  0
  5  6  2  0
  5  7  1  0
  7  8  1  0
  7  9  1  0
  7 10  1  0
 10 11  2  0
 11 12  1  0
 12 13  2  0
 13 14  1  0
 14 15  2  0
 15 16  1  0
 13 17  1  0
 12 18  1  0
 11 19  1  0
  4 20  1  0
  3 21  1  0
  3 22  1  0
  2 23  1  0
 23 24  2  0
 24 25  1  0
 25 26  2  0
 26 27  1  0
 27 28  2  0
 28 29  1  0
 27 30  1  0
 26 31  1  0
 25 32  1  0
 24 33  1  0
  2 34  1  0
  1 35  1  0
  1 36  1  0
  1 37  1  0
 15 10  1  0
 28 23  1  0
M  CHG  1   1   1
M  END
>  <plip>  (1) 
-0.16666666666666666

>  <filename>  (1) 
[H][c]1[n][c]([H])[c]([C]([F])([F])[C](=[O])[N]([H])[C]([H])([H])[C]([H])([c]2[c]([H])[c]([H])[c]([H])[c]([H])[c]2[Br])[N+]([H])([H])[H])[c]([H])[c]1[H]

$$$$
