
     RDKit          3D

 31 32  0  0  0  0  0  0  0  0999 V2000
    6.6030   -0.7148   23.4723 O   0  0  0  0  0  0  0  0  0  0  0  0
    6.9378   -1.8360   23.1349 C   0  0  0  0  0  0  0  0  0  0  0  0
    7.4620   -2.8165   24.1421 C   0  0  0  0  0  0  0  0  0  0  0  0
    7.8207   -4.0974   23.9497 C   0  0  0  0  0  0  0  0  0  0  0  0
    8.5771   -4.9672   24.8534 C   0  0  0  0  0  0  0  0  0  0  0  0
    8.8417   -6.2739   24.5596 C   0  0  0  0  0  0  0  0  0  0  0  0
    9.8217   -6.9717   25.7680 S   0  0  0  0  0  0  0  0  0  0  0  0
    9.8277   -5.4576   26.5811 C   0  0  0  0  0  0  0  0  0  0  0  0
    9.1411   -4.5132   26.0273 N   0  0  0  0  0  0  0  0  0  0  0  0
   10.4283   -5.3209   27.4687 H   0  0  0  0  0  0  0  0  0  0  0  0
    8.5130   -6.8625   23.7202 H   0  0  0  0  0  0  0  0  0  0  0  0
    7.6244   -4.6253   23.0105 H   0  0  0  0  0  0  0  0  0  0  0  0
    7.5794   -2.3314   25.1076 H   0  0  0  0  0  0  0  0  0  0  0  0
    6.8926   -2.2794   21.8491 N   0  0  0  0  0  0  0  0  0  0  0  0
    6.3405   -1.5059   20.7558 C   0  0  0  0  0  0  0  0  0  0  0  0
    7.2117   -0.2862   20.3970 C   0  0  0  0  0  0  0  0  0  0  0  0
    6.6019    0.5461   19.2889 C   0  0  0  0  0  0  0  0  0  0  0  0
    5.4096    1.2622   19.4958 C   0  0  0  0  0  0  0  0  0  0  0  0
    4.8148    1.9224   18.4196 C   0  0  0  0  0  0  0  0  0  0  0  0
    5.4288    1.8547   17.1671 C   0  0  0  0  0  0  0  0  0  0  0  0
    6.5691    1.1852   16.9444 N   0  0  0  0  0  0  0  0  0  0  0  0
    7.1329    0.5614   17.9888 C   0  0  0  0  0  0  0  0  0  0  0  0
    8.0708    0.0397   17.7835 H   0  0  0  0  0  0  0  0  0  0  0  0
    4.9844    2.3583   16.3092 H   0  0  0  0  0  0  0  0  0  0  0  0
    3.8952    2.4846   18.5331 H   0  0  0  0  0  0  0  0  0  0  0  0
    4.9506    1.2975   20.4871 H   0  0  0  0  0  0  0  0  0  0  0  0
    7.3316    0.3184   21.3024 H   0  0  0  0  0  0  0  0  0  0  0  0
    8.2068   -0.6605   20.1185 H   0  0  0  0  0  0  0  0  0  0  0  0
    6.2715   -2.1572   19.8768 H   0  0  0  0  0  0  0  0  0  0  0  0
    5.3222   -1.1803   21.0107 H   0  0  0  0  0  0  0  0  0  0  0  0
    7.2063   -3.2133   21.6875 H   0  0  0  0  0  0  0  0  0  0  0  0
  1  2  2  0
  2  3  1  0
  3  4  2  3
  4  5  1  0
  5  6  2  0
  6  7  1  0
  7  8  1  0
  8  9  2  0
  8 10  1  0
  6 11  1  0
  4 12  1  0
  3 13  1  0
  2 14  1  0
 14 15  1  0
 15 16  1  0
 16 17  1  0
 17 18  2  0
 18 19  1  0
 19 20  2  0
 20 21  1  0
 21 22  2  0
 22 23  1  0
 20 24  1  0
 19 25  1  0
 18 26  1  0
 16 27  1  0
 16 28  1  0
 15 29  1  0
 15 30  1  0
 14 31  1  0
  9  5  1  0
 22 17  1  0
M  END
>  <plip>  (1) 
-0.03571428571428571

>  <filename>  (1) 
[H][C]([C](=[O])[N]([H])[C]([H])([H])[C]([H])([H])[c]1[c]([H])[n][c]([H])[c]([H])[c]1[H])=[C]([H])[c]1[n][c]([H])[s][c]1[H]

$$$$
