
     RDKit          3D

 34 36  0  0  0  0  0  0  0  0999 V2000
    6.3285   -2.6946   21.2819 H   0  0  0  0  0  0  0  0  0  0  0  0
    6.6789   -1.7984   21.7902 C   0  0  0  0  0  0  0  0  0  0  0  0
    6.5098   -1.5608   23.1074 C   0  0  0  0  0  0  0  0  0  0  0  0
    5.8064   -2.4793   24.0645 C   0  0  0  0  0  0  0  0  0  0  0  0
    5.9496   -3.7896   23.7660 N   0  0  0  0  0  0  0  0  0  0  0  0
    5.3075   -4.7070   24.4866 C   0  0  0  0  0  0  0  0  0  0  0  0
    5.4430   -5.7441   24.1857 H   0  0  0  0  0  0  0  0  0  0  0  0
    4.4438   -4.3879   25.5287 C   0  0  0  0  0  0  0  0  0  0  0  0
    3.9083   -5.1643   26.0606 H   0  0  0  0  0  0  0  0  0  0  0  0
    4.2659   -3.0492   25.8445 C   0  0  0  0  0  0  0  0  0  0  0  0
    3.5604   -2.7708   26.6335 H   0  0  0  0  0  0  0  0  0  0  0  0
    4.9561   -2.0498   25.1449 C   0  0  0  0  0  0  0  0  0  0  0  0
    4.6377   -0.6274   25.5756 C   0  0  0  0  0  0  0  0  0  0  0  0
    5.4579   -0.1537   26.1193 H   0  0  0  0  0  0  0  0  0  0  0  0
    4.3593    0.0421   24.7599 H   0  0  0  0  0  0  0  0  0  0  0  0
    3.7873   -0.6328   26.2648 H   0  0  0  0  0  0  0  0  0  0  0  0
    7.0251   -0.1693   23.4276 C   0  0  0  0  0  0  0  0  0  0  0  0
    7.6172   -0.1221   24.3476 H   0  0  0  0  0  0  0  0  0  0  0  0
    6.1817    0.5269   23.5333 H   0  0  0  0  0  0  0  0  0  0  0  0
    7.8664    0.2253   22.1893 C   0  0  0  0  0  0  0  0  0  0  0  0
    7.7778    1.2919   21.9519 H   0  0  0  0  0  0  0  0  0  0  0  0
    8.9293    0.0441   22.3847 H   0  0  0  0  0  0  0  0  0  0  0  0
    7.4138   -0.7129   21.0291 C   0  0  2  0  0  0  0  0  0  0  0  0
    8.3020   -1.1656   20.5648 H   0  0  0  0  0  0  0  0  0  0  0  0
    6.6591   -0.0161   19.8794 C   0  0  0  0  0  0  0  0  0  0  0  0
    7.1629    0.0360   18.5622 C   0  0  0  0  0  0  0  0  0  0  0  0
    8.1014   -0.4609   18.3074 H   0  0  0  0  0  0  0  0  0  0  0  0
    6.5731    0.6686   17.5370 N   0  0  0  0  0  0  0  0  0  0  0  0
    5.4180    1.3029   17.7961 C   0  0  0  0  0  0  0  0  0  0  0  0
    4.9591    1.8357   16.9639 H   0  0  0  0  0  0  0  0  0  0  0  0
    4.8136    1.3040   19.0541 C   0  0  0  0  0  0  0  0  0  0  0  0
    3.8845    1.8400   19.2035 H   0  0  0  0  0  0  0  0  0  0  0  0
    5.4405    0.6403   20.1092 C   0  0  0  0  0  0  0  0  0  0  0  0
    4.9917    0.6297   21.1039 H   0  0  0  0  0  0  0  0  0  0  0  0
  1  2  1  0
  2  3  2  0
  3  4  1  0
  4  5  2  0
  5  6  1  0
  6  7  1  0
  6  8  2  0
  8  9  1  0
  8 10  1  0
 10 11  1  0
 10 12  2  0
 12 13  1  0
 13 14  1  0
 13 15  1  0
 13 16  1  0
  3 17  1  0
 17 18  1  0
 17 19  1  0
 17 20  1  0
 20 21  1  0
 20 22  1  0
 20 23  1  0
 23 24  1  6
 23 25  1  0
 25 26  2  0
 26 27  1  0
 26 28  1  0
 28 29  2  0
 29 30  1  0
 29 31  1  0
 31 32  1  0
 31 33  2  0
 33 34  1  0
 23  2  1  0
 33 25  1  0
 12  4  1  0
M  END
>  <plip>  (1) 
-0.03571428571428571

>  <filename>  (1) 
[H][C]1=[C]([c]2[n][c]([H])[c]([H])[c]([H])[c]2[C]([H])([H])[H])[C]([H])([H])[C]([H])([H])[C@]1([H])[c]1[c]([H])[n][c]([H])[c]([H])[c]1[H]

$$$$
