
     RDKit          3D

 34 36  0  0  0  0  0  0  0  0999 V2000
    7.9565   -1.9141   20.5338 O   0  0  0  0  0  0  0  0  0  0  0  0
    7.3814   -0.6806   21.0101 C   0  0  0  0  0  0  0  0  0  0  0  0
    6.6240   -0.0208   19.8866 C   0  0  0  0  0  0  0  0  0  0  0  0
    5.4233    0.6380   20.1512 C   0  0  0  0  0  0  0  0  0  0  0  0
    4.8151    1.2993   19.0902 C   0  0  0  0  0  0  0  0  0  0  0  0
    5.4010    1.2898   17.8202 C   0  0  0  0  0  0  0  0  0  0  0  0
    6.5632    0.6595   17.5681 N   0  0  0  0  0  0  0  0  0  0  0  0
    7.1648    0.0249   18.5900 C   0  0  0  0  0  0  0  0  0  0  0  0
    8.1292   -0.4413   18.4127 H   0  0  0  0  0  0  0  0  0  0  0  0
    4.8937    1.8090   17.0141 H   0  0  0  0  0  0  0  0  0  0  0  0
    3.8881    1.8321   19.2485 H   0  0  0  0  0  0  0  0  0  0  0  0
    4.9978    0.6521   21.1574 H   0  0  0  0  0  0  0  0  0  0  0  0
    8.4587    0.2527   21.5642 C   0  0  0  0  0  0  0  0  0  0  0  0
    9.1894    1.1046   20.8687 N   0  0  0  0  0  0  0  0  0  0  0  0
   10.0758    1.6697   21.7693 C   0  0  0  0  0  0  0  0  0  0  0  0
    9.8690    1.1721   23.0230 C   0  0  0  0  0  0  0  0  0  0  0  0
    8.8241    0.2788   22.9124 N   0  0  0  0  0  0  0  0  0  0  0  0
    8.2784   -0.5546   23.9977 C   0  0  0  0  0  0  0  0  0  0  0  0
    8.7520   -1.9720   23.8503 C   0  0  0  0  0  0  0  0  0  0  0  0
   10.0968   -2.2919   23.9744 C   0  0  0  0  0  0  0  0  0  0  0  0
   10.5099   -3.6157   23.8502 C   0  0  0  0  0  0  0  0  0  0  0  0
    9.6430   -4.6124   23.6332 N   0  0  0  0  0  0  0  0  0  0  0  0
    8.3502   -4.3241   23.4803 C   0  0  0  0  0  0  0  0  0  0  0  0
    7.1532   -5.7438   23.0660 Br  0  0  0  0  0  0  0  0  0  0  0  0
    7.8730   -3.0198   23.5924 C   0  0  0  0  0  0  0  0  0  0  0  0
    6.8136   -2.8431   23.4842 H   0  0  0  0  0  0  0  0  0  0  0  0
   11.5675   -3.8467   23.9121 H   0  0  0  0  0  0  0  0  0  0  0  0
   10.8184   -1.5122   24.1639 H   0  0  0  0  0  0  0  0  0  0  0  0
    7.1835   -0.5334   24.0063 H   0  0  0  0  0  0  0  0  0  0  0  0
    8.6228   -0.1683   24.9619 H   0  0  0  0  0  0  0  0  0  0  0  0
   10.4252    1.4218   23.9212 H   0  0  0  0  0  0  0  0  0  0  0  0
   10.8367    2.3911   21.4963 H   0  0  0  0  0  0  0  0  0  0  0  0
    6.6908   -0.9076   21.8324 H   0  0  0  0  0  0  0  0  0  0  0  0
    7.2788   -2.5670   20.2880 H   0  0  0  0  0  0  0  0  0  0  0  0
  1  2  1  0
  2  3  1  0
  3  4  2  0
  4  5  1  0
  5  6  2  0
  6  7  1  0
  7  8  2  0
  8  9  1  0
  6 10  1  0
  5 11  1  0
  4 12  1  0
  2 13  1  0
 13 14  2  0
 14 15  1  0
 15 16  2  0
 16 17  1  0
 17 18  1  0
 18 19  1  0
 19 20  2  0
 20 21  1  0
 21 22  2  0
 22 23  1  0
 23 24  1  0
 23 25  2  0
 25 26  1  0
 21 27  1  0
 20 28  1  0
 18 29  1  0
 18 30  1  0
 16 31  1  0
 15 32  1  0
  2 33  1  0
  1 34  1  0
  8  3  1  0
 17 13  1  0
 25 19  1  0
M  END
>  <plip>  (1) 
-0.06896551724137931

>  <filename>  (1) 
[H][O][C]([H])([c]1[c]([H])[n][c]([H])[c]([H])[c]1[H])[c]1[n][c]([H])[c]([H])[n]1[C]([H])([H])[c]1[c]([H])[c]([H])[n][c]([Br])[c]1[H]

$$$$
