
     RDKit          3D

 30 31  0  0  0  0  0  0  0  0999 V2000
    5.0536    1.6947   16.9755 H   0  0  0  0  0  0  0  0  0  0  0  0
    5.4808    1.2778   17.8818 C   0  0  0  0  0  0  0  0  0  0  0  0
    6.6736    0.6848   17.7442 N   0  0  0  0  0  0  0  0  0  0  0  0
    7.2036    0.1501   18.8457 C   0  0  0  0  0  0  0  0  0  0  0  0
    8.1469   -0.3786   18.7230 H   0  0  0  0  0  0  0  0  0  0  0  0
    6.6105    0.1944   20.1101 C   0  0  0  0  0  0  0  0  0  0  0  0
    7.3250   -0.4952   21.2062 C   0  0  0  0  0  0  0  0  0  0  0  0
    7.3970    0.1289   22.3102 N   0  0  0  0  0  0  0  0  0  0  0  0
    7.9797   -0.3899   23.4529 C   0  0  0  0  0  0  0  0  0  0  0  0
    8.9874   -1.2609   23.3770 N   0  0  0  0  0  0  0  0  0  0  0  0
    9.4994   -1.6569   24.5389 C   0  0  0  0  0  0  0  0  0  0  0  0
   10.5112   -2.5380   24.5387 O   0  0  0  0  0  0  0  0  0  0  0  0
   10.9785   -3.0923   23.3175 C   0  0  0  0  0  0  0  0  0  0  0  0
   11.7939   -3.7578   23.6075 H   0  0  0  0  0  0  0  0  0  0  0  0
   11.3584   -2.3251   22.6315 H   0  0  0  0  0  0  0  0  0  0  0  0
   10.1747   -3.6489   22.8225 H   0  0  0  0  0  0  0  0  0  0  0  0
    9.0574   -1.2395   25.8013 C   0  0  0  0  0  0  0  0  0  0  0  0
    9.5363   -1.6501   26.6827 H   0  0  0  0  0  0  0  0  0  0  0  0
    8.0076   -0.3229   25.8576 C   0  0  0  0  0  0  0  0  0  0  0  0
    7.6303    0.0556   26.8118 H   0  0  0  0  0  0  0  0  0  0  0  0
    7.4517    0.1039   24.6586 C   0  0  0  0  0  0  0  0  0  0  0  0
    6.6179    0.7906   24.6083 H   0  0  0  0  0  0  0  0  0  0  0  0
    7.8932   -1.8471   20.8766 C   0  0  0  0  0  0  0  0  0  0  0  0
    8.9034   -1.7338   20.4706 H   0  0  0  0  0  0  0  0  0  0  0  0
    7.2646   -2.3018   20.1086 H   0  0  0  0  0  0  0  0  0  0  0  0
    7.9497   -2.5037   21.7404 H   0  0  0  0  0  0  0  0  0  0  0  0
    5.3840    0.8588   20.2530 C   0  0  0  0  0  0  0  0  0  0  0  0
    4.9258    0.9551   21.2411 H   0  0  0  0  0  0  0  0  0  0  0  0
    4.7957    1.3759   19.1009 C   0  0  0  0  0  0  0  0  0  0  0  0
    3.8282    1.8590   19.1343 H   0  0  0  0  0  0  0  0  0  0  0  0
  1  2  1  0
  2  3  2  0
  3  4  1  0
  4  5  1  0
  4  6  2  0
  6  7  1  0
  7  8  2  3
  8  9  1  0
  9 10  2  0
 10 11  1  0
 11 12  1  0
 12 13  1  0
 13 14  1  0
 13 15  1  0
 13 16  1  0
 11 17  2  0
 17 18  1  0
 17 19  1  0
 19 20  1  0
 19 21  2  0
 21 22  1  0
  7 23  1  0
 23 24  1  0
 23 25  1  0
 23 26  1  0
  6 27  1  0
 27 28  1  0
 27 29  2  0
 29 30  1  0
 29  2  1  0
 21  9  1  0
M  END
>  <plip>  (1) 
-0.03571428571428571

>  <filename>  (1) 
[H][c]1[n][c]([H])[c]([C](=[N][c]2[n][c]([O][C]([H])([H])[H])[c]([H])[c]([H])[c]2[H])[C]([H])([H])[H])[c]([H])[c]1[H]

$$$$
