
     RDKit          3D

 45 47  0  0  0  0  0  0  0  0999 V2000
   10.2096    1.2764   22.6091 C   0  0  0  0  0  0  0  0  0  0  0  0
    9.4610    0.3514   21.7976 O   0  0  0  0  0  0  0  0  0  0  0  0
    8.1235    0.3709   21.9524 C   0  0  0  0  0  0  0  0  0  0  0  0
    7.5430    1.1083   22.7137 O   0  0  0  0  0  0  0  0  0  0  0  0
    7.4211   -0.6997   21.0387 C   0  0  0  0  0  0  0  0  0  0  0  0
    6.5721   -1.6315   21.8152 N   0  0  0  0  0  0  0  0  0  0  0  0
    5.9853   -2.7304   21.2350 C   0  0  0  0  0  0  0  0  0  0  0  0
    6.2250   -3.0811   20.0964 O   0  0  0  0  0  0  0  0  0  0  0  0
    5.0752   -3.5450   22.1356 C   0  0  0  0  0  0  0  0  0  0  0  0
    5.7826   -4.7782   22.7578 C   0  0  0  0  0  0  0  0  0  0  0  0
    6.8394   -4.3431   23.7889 C   0  0  0  0  0  0  0  0  0  0  0  0
    6.2004   -3.8328   24.9445 O   0  0  0  0  0  0  0  0  0  0  0  0
    5.5340   -4.8474   25.6757 C   0  0  0  0  0  0  0  0  0  0  0  0
    4.6018   -5.6974   24.8205 C   0  0  0  0  0  0  0  0  0  0  0  0
    3.6290   -6.5188   25.4107 C   0  0  0  0  0  0  0  0  0  0  0  0
    2.8203   -7.3483   24.6286 C   0  0  0  0  0  0  0  0  0  0  0  0
    2.9842   -7.3650   23.2387 C   0  0  0  0  0  0  0  0  0  0  0  0
    3.9542   -6.5497   22.6473 C   0  0  0  0  0  0  0  0  0  0  0  0
    4.7703   -5.7080   23.4223 C   0  0  0  0  0  0  0  0  0  0  0  0
    4.0913   -6.5642   21.5695 H   0  0  0  0  0  0  0  0  0  0  0  0
    2.3634   -8.0076   22.6183 H   0  0  0  0  0  0  0  0  0  0  0  0
    2.0710   -7.9787   25.1029 H   0  0  0  0  0  0  0  0  0  0  0  0
    3.5068   -6.5077   26.4916 H   0  0  0  0  0  0  0  0  0  0  0  0
    4.9777   -4.3221   26.4569 H   0  0  0  0  0  0  0  0  0  0  0  0
    6.2758   -5.5022   26.1700 H   0  0  0  0  0  0  0  0  0  0  0  0
    7.4888   -5.1972   24.0504 H   0  0  0  0  0  0  0  0  0  0  0  0
    7.4652   -3.5321   23.4029 H   0  0  0  0  0  0  0  0  0  0  0  0
    6.2797   -5.3273   21.9469 H   0  0  0  0  0  0  0  0  0  0  0  0
    4.6340   -2.9640   22.9447 H   0  0  0  0  0  0  0  0  0  0  0  0
    4.2619   -3.8900   21.5051 H   0  0  0  0  0  0  0  0  0  0  0  0
    6.1042   -1.3059   22.6504 H   0  0  0  0  0  0  0  0  0  0  0  0
    6.6404   -0.0300   19.8997 C   0  0  0  0  0  0  0  0  0  0  0  0
    5.4303    0.6331   20.1388 C   0  0  0  0  0  0  0  0  0  0  0  0
    4.8012    1.3014   19.0871 C   0  0  0  0  0  0  0  0  0  0  0  0
    5.4036    1.2887   17.8255 C   0  0  0  0  0  0  0  0  0  0  0  0
    6.5594    0.6593   17.5693 N   0  0  0  0  0  0  0  0  0  0  0  0
    7.1521    0.0233   18.5915 C   0  0  0  0  0  0  0  0  0  0  0  0
    8.1093   -0.4436   18.3519 H   0  0  0  0  0  0  0  0  0  0  0  0
    4.9401    1.8049   16.9847 H   0  0  0  0  0  0  0  0  0  0  0  0
    3.8776    1.8459   19.2398 H   0  0  0  0  0  0  0  0  0  0  0  0
    4.9968    0.6522   21.1418 H   0  0  0  0  0  0  0  0  0  0  0  0
    8.2260   -1.2926   20.5993 H   0  0  0  0  0  0  0  0  0  0  0  0
   11.2561    1.0683   22.3827 H   0  0  0  0  0  0  0  0  0  0  0  0
    9.9923    1.1201   23.6709 H   0  0  0  0  0  0  0  0  0  0  0  0
    9.9413    2.3070   22.3541 H   0  0  0  0  0  0  0  0  0  0  0  0
  1  2  1  0
  2  3  1  0
  3  4  2  0
  3  5  1  0
  5  6  1  0
  6  7  1  0
  7  8  2  0
  7  9  1  0
  9 10  1  0
 10 11  1  0
 11 12  1  0
 12 13  1  0
 13 14  1  0
 14 15  2  0
 15 16  1  0
 16 17  2  0
 17 18  1  0
 18 19  2  0
 18 20  1  0
 17 21  1  0
 16 22  1  0
 15 23  1  0
 13 24  1  0
 13 25  1  0
 11 26  1  0
 11 27  1  0
 10 28  1  0
  9 29  1  0
  9 30  1  0
  6 31  1  0
  5 32  1  0
 32 33  2  0
 33 34  1  0
 34 35  2  0
 35 36  1  0
 36 37  2  0
 37 38  1  0
 35 39  1  0
 34 40  1  0
 33 41  1  0
  5 42  1  0
  1 43  1  0
  1 44  1  0
  1 45  1  0
 19 10  1  0
 37 32  1  0
 19 14  1  0
M  END
>  <plip>  (1) 
-0.10344827586206896

>  <filename>  (1) 
[H][c]1[n][c]([H])[c]([C]([H])([C](=[O])[O][C]([H])([H])[H])[N]([H])[C](=[O])[C]([H])([H])[C]2([H])[c]3[c]([H])[c]([H])[c]([H])[c]([H])[c]3[C]([H])([H])[O][C]2([H])[H])[c]([H])[c]1[H]

$$$$
