
     RDKit          3D

 34 36  0  0  0  0  0  0  0  0999 V2000
    4.9131    1.7916   16.9870 H   0  0  0  0  0  0  0  0  0  0  0  0
    5.3956    1.2975   17.8266 C   0  0  0  0  0  0  0  0  0  0  0  0
    6.5566    0.6840   17.5592 N   0  0  0  0  0  0  0  0  0  0  0  0
    7.1630    0.0692   18.5829 C   0  0  0  0  0  0  0  0  0  0  0  0
    8.1115   -0.4157   18.3558 H   0  0  0  0  0  0  0  0  0  0  0  0
    6.6626    0.0109   19.8920 C   0  0  0  0  0  0  0  0  0  0  0  0
    7.4080   -0.7193   20.9794 C   0  0  2  0  0  0  0  0  0  0  0  0
    8.3367   -1.1394   20.5609 H   0  0  0  0  0  0  0  0  0  0  0  0
    6.5925   -1.9121   21.5130 C   0  0  0  0  0  0  0  0  0  0  0  0
    6.3343   -2.5884   20.6910 H   0  0  0  0  0  0  0  0  0  0  0  0
    5.6355   -1.5400   21.8866 H   0  0  0  0  0  0  0  0  0  0  0  0
    7.3394   -2.6594   22.6168 C   0  0  0  0  0  0  0  0  0  0  0  0
    8.2327   -3.1356   22.1936 H   0  0  0  0  0  0  0  0  0  0  0  0
    6.7135   -3.4636   23.0235 H   0  0  0  0  0  0  0  0  0  0  0  0
    7.7878   -1.7071   23.7465 C   0  0  1  0  0  0  0  0  0  0  0  0
    6.8771   -1.3068   24.2082 H   0  0  0  0  0  0  0  0  0  0  0  0
    8.5336   -2.4367   24.8202 C   0  0  0  0  0  0  0  0  0  0  0  0
    9.6814   -3.0555   24.5794 N   0  0  0  0  0  0  0  0  0  0  0  0
   10.0142   -3.6145   25.7501 N   0  0  0  0  0  0  0  0  0  0  0  0
   10.9026   -4.0901   25.8073 H   0  0  0  0  0  0  0  0  0  0  0  0
    9.1363   -3.3476   26.7418 C   0  0  0  0  0  0  0  0  0  0  0  0
    9.2752   -3.7445   27.7374 H   0  0  0  0  0  0  0  0  0  0  0  0
    8.1508   -2.5857   26.1677 C   0  0  0  0  0  0  0  0  0  0  0  0
    7.2577   -2.1889   26.6158 H   0  0  0  0  0  0  0  0  0  0  0  0
    8.5893   -0.5021   23.2147 C   0  0  0  0  0  0  0  0  0  0  0  0
    8.8362    0.1847   24.0335 H   0  0  0  0  0  0  0  0  0  0  0  0
    9.5425   -0.8720   22.8161 H   0  0  0  0  0  0  0  0  0  0  0  0
    7.8244    0.2366   22.1162 C   0  0  0  0  0  0  0  0  0  0  0  0
    8.4344    1.0487   21.7052 H   0  0  0  0  0  0  0  0  0  0  0  0
    6.9303    0.7194   22.5388 H   0  0  0  0  0  0  0  0  0  0  0  0
    5.4416    0.6539   20.1455 C   0  0  0  0  0  0  0  0  0  0  0  0
    5.0055    0.6391   21.1503 H   0  0  0  0  0  0  0  0  0  0  0  0
    4.8041    1.3128   19.0946 C   0  0  0  0  0  0  0  0  0  0  0  0
    3.8760    1.8414   19.2525 H   0  0  0  0  0  0  0  0  0  0  0  0
  1  2  1  0
  2  3  2  0
  3  4  1  0
  4  5  1  0
  4  6  2  0
  6  7  1  0
  7  8  1  6
  7  9  1  0
  9 10  1  0
  9 11  1  0
  9 12  1  0
 12 13  1  0
 12 14  1  0
 12 15  1  0
 15 16  1  1
 15 17  1  0
 17 18  2  0
 18 19  1  0
 19 20  1  0
 19 21  1  0
 21 22  1  0
 21 23  2  0
 23 24  1  0
 15 25  1  0
 25 26  1  0
 25 27  1  0
 25 28  1  0
 28 29  1  0
 28 30  1  0
  6 31  1  0
 31 32  1  0
 31 33  2  0
 33 34  1  0
 33  2  1  0
 28  7  1  0
 23 17  1  0
M  END
>  <plip>  (1) 
-0.03571428571428571

>  <filename>  (1) 
[H][c]1[n][c]([H])[c]([C@]2([H])[C]([H])([H])[C]([H])([H])[C@@]([H])([c]3[n][n]([H])[c]([H])[c]3[H])[C]([H])([H])[C]2([H])[H])[c]([H])[c]1[H]

$$$$
