
     RDKit          3D

 37 39  0  0  0  0  0  0  0  0999 V2000
   11.0767   -0.7768   23.4770 C   0  0  0  0  0  0  0  0  0  0  0  0
   10.6140   -0.8609   22.3730 C   0  0  0  0  0  0  0  0  0  0  0  0
    9.9250   -0.7298   21.0876 C   0  0  0  0  0  0  0  0  0  0  0  0
    8.6557   -0.0098   21.2480 N   0  0  0  0  0  0  0  0  0  0  0  0
    7.3962   -0.6977   20.9853 C   0  0  0  0  0  0  0  0  0  0  0  0
    6.6246   -0.0040   19.8985 C   0  0  0  0  0  0  0  0  0  0  0  0
    5.4170    0.6492   20.1542 C   0  0  0  0  0  0  0  0  0  0  0  0
    4.7918    1.3163   19.0984 C   0  0  0  0  0  0  0  0  0  0  0  0
    5.3946    1.2956   17.8358 C   0  0  0  0  0  0  0  0  0  0  0  0
    6.5573    0.6788   17.5753 N   0  0  0  0  0  0  0  0  0  0  0  0
    7.1573    0.0658   18.6017 C   0  0  0  0  0  0  0  0  0  0  0  0
    8.1104   -0.4120   18.3685 H   0  0  0  0  0  0  0  0  0  0  0  0
    4.9221    1.7885   16.9891 H   0  0  0  0  0  0  0  0  0  0  0  0
    3.8632    1.8538   19.2424 H   0  0  0  0  0  0  0  0  0  0  0  0
    5.0100    0.6484   21.1705 H   0  0  0  0  0  0  0  0  0  0  0  0
    7.6382   -1.7244   20.6842 H   0  0  0  0  0  0  0  0  0  0  0  0
    6.8070   -0.7574   21.9071 H   0  0  0  0  0  0  0  0  0  0  0  0
    8.7413    1.3627   21.5634 C   0  0  0  0  0  0  0  0  0  0  0  0
    9.7182    1.9844   21.1838 O   0  0  0  0  0  0  0  0  0  0  0  0
    7.5820    2.0313   22.4472 C   0  0  0  0  0  0  0  0  0  0  0  0
    7.4486    3.3927   22.3590 N   0  0  0  0  0  0  0  0  0  0  0  0
    6.5240    3.9781   23.0810 C   0  0  0  0  0  0  0  0  0  0  0  0
    5.6577    3.2790   23.9613 C   0  0  0  0  0  0  0  0  0  0  0  0
    4.6324    3.8756   24.7551 C   0  0  0  0  0  0  0  0  0  0  0  0
    3.8539    3.0755   25.5596 C   0  0  0  0  0  0  0  0  0  0  0  0
    4.0631    1.6659   25.6069 C   0  0  0  0  0  0  0  0  0  0  0  0
    5.0552    1.0798   24.8423 C   0  0  0  0  0  0  0  0  0  0  0  0
    5.8748    1.8798   23.9999 C   0  0  0  0  0  0  0  0  0  0  0  0
    6.8282    1.2743   23.2311 N   0  0  0  0  0  0  0  0  0  0  0  0
    5.2501    0.0123   24.8411 H   0  0  0  0  0  0  0  0  0  0  0  0
    3.4360    1.0549   26.2535 H   0  0  0  0  0  0  0  0  0  0  0  0
    3.0713    3.5221   26.1676 H   0  0  0  0  0  0  0  0  0  0  0  0
    4.4837    4.9555   24.7062 H   0  0  0  0  0  0  0  0  0  0  0  0
    6.4355    5.0635   22.9960 H   0  0  0  0  0  0  0  0  0  0  0  0
   10.5659   -0.1616   20.4299 H   0  0  0  0  0  0  0  0  0  0  0  0
    9.7416   -1.7034   20.6222 H   0  0  0  0  0  0  0  0  0  0  0  0
   11.4696   -0.7261   24.4624 H   0  0  0  0  0  0  0  0  0  0  0  0
  1  2  3  0
  2  3  1  0
  3  4  1  0
  4  5  1  0
  5  6  1  0
  6  7  2  0
  7  8  1  0
  8  9  2  0
  9 10  1  0
 10 11  2  0
 11 12  1  0
  9 13  1  0
  8 14  1  0
  7 15  1  0
  5 16  1  0
  5 17  1  0
  4 18  1  0
 18 19  2  0
 18 20  1  0
 20 21  2  0
 21 22  1  0
 22 23  2  0
 23 24  1  0
 24 25  2  0
 25 26  1  0
 26 27  2  0
 27 28  1  0
 28 29  2  0
 27 30  1  0
 26 31  1  0
 25 32  1  0
 24 33  1  0
 22 34  1  0
  3 35  1  0
  3 36  1  0
  1 37  1  0
 11  6  1  0
 29 20  1  0
 28 23  1  0
M  END
>  <plip>  (1) 
-0.07142857142857142

>  <filename>  (1) 
[H][C]#[C][C]([H])([H])[N]([C](=[O])[c]1[n][c]([H])[c]2[c]([H])[c]([H])[c]([H])[c]([H])[c]2[n]1)[C]([H])([H])[c]1[c]([H])[n][c]([H])[c]([H])[c]1[H]

$$$$
