
     RDKit          3D

 32 33  0  0  0  0  0  0  0  0999 V2000
    9.4507    3.1543   21.9496 C   0  0  0  0  0  0  0  0  0  0  0  0
    8.9087    2.2335   23.0503 C   0  0  0  0  0  0  0  0  0  0  0  0
    7.9768    1.2928   22.4498 N   0  0  0  0  0  0  0  0  0  0  0  0
    8.4432    0.2260   21.7488 C   0  0  0  0  0  0  0  0  0  0  0  0
    9.6233   -0.0922   21.7103 O   0  0  0  0  0  0  0  0  0  0  0  0
    7.3770   -0.6115   21.0445 C   0  0  0  0  0  0  0  0  0  0  0  0
    6.6519    0.0451   19.8802 C   0  0  0  0  0  0  0  0  0  0  0  0
    5.4418    0.7193   20.0840 C   0  0  0  0  0  0  0  0  0  0  0  0
    4.8077    1.3323   18.9978 C   0  0  0  0  0  0  0  0  0  0  0  0
    5.4040    1.2582   17.7381 C   0  0  0  0  0  0  0  0  0  0  0  0
    6.5581    0.6122   17.5183 N   0  0  0  0  0  0  0  0  0  0  0  0
    7.1575    0.0325   18.5656 C   0  0  0  0  0  0  0  0  0  0  0  0
    8.0977   -0.4754   18.3504 H   0  0  0  0  0  0  0  0  0  0  0  0
    4.9363    1.7284   16.8720 H   0  0  0  0  0  0  0  0  0  0  0  0
    3.8836    1.8826   19.1256 H   0  0  0  0  0  0  0  0  0  0  0  0
    5.0082    0.7777   21.0827 H   0  0  0  0  0  0  0  0  0  0  0  0
    7.9083   -1.5168   20.7410 H   0  0  0  0  0  0  0  0  0  0  0  0
    6.6316   -0.9031   21.7934 H   0  0  0  0  0  0  0  0  0  0  0  0
    7.0811    1.7705   22.1850 H   0  0  0  0  0  0  0  0  0  0  0  0
    8.2468    3.0589   24.1281 C   0  0  0  0  0  0  0  0  0  0  0  0
    8.8532    3.3093   25.2627 N   0  0  0  0  0  0  0  0  0  0  0  0
    8.0722    4.2290   25.9229 O   0  0  0  0  0  0  0  0  0  0  0  0
    7.0162    4.5337   25.1755 C   0  0  0  0  0  0  0  0  0  0  0  0
    7.0434    3.7947   24.0432 C   0  0  0  0  0  0  0  0  0  0  0  0
    6.0230    3.8099   22.9801 C   0  0  0  0  0  0  0  0  0  0  0  0
    6.0435    2.9125   22.1035 O   0  0  0  0  0  0  0  0  0  0  0  0
    5.1927    4.7270   23.0703 O   0  0  0  0  0  1  0  0  0  0  0  0
    6.3319    5.2899   25.5331 H   0  0  0  0  0  0  0  0  0  0  0  0
    9.7377    1.6944   23.5309 H   0  0  0  0  0  0  0  0  0  0  0  0
    8.6081    3.6728   21.4670 H   0  0  0  0  0  0  0  0  0  0  0  0
    9.9969    2.5768   21.1964 H   0  0  0  0  0  0  0  0  0  0  0  0
   10.1379    3.8966   22.3683 H   0  0  0  0  0  0  0  0  0  0  0  0
  1  2  1  0
  2  3  1  0
  3  4  1  0
  4  5  2  0
  4  6  1  0
  6  7  1  0
  7  8  2  0
  8  9  1  0
  9 10  2  0
 10 11  1  0
 11 12  2  0
 12 13  1  0
 10 14  1  0
  9 15  1  0
  8 16  1  0
  6 17  1  0
  6 18  1  0
  3 19  1  0
  2 20  1  0
 20 21  2  0
 21 22  1  0
 22 23  1  0
 23 24  2  0
 24 25  1  0
 25 26  2  0
 25 27  1  0
 23 28  1  0
  2 29  1  0
  1 30  1  0
  1 31  1  0
  1 32  1  0
 12  7  1  0
 24 20  1  0
M  CHG  1  27  -1
M  END
>  <plip>  (1) 
-0.10714285714285714

>  <filename>  (1) 
[H][c]1[n][c]([H])[c]([C]([H])([H])[C](=[O])[N]([H])[C]([H])([c]2[n][o][c]([H])[c]2[C](=[O])[O-])[C]([H])([H])[H])[c]([H])[c]1[H]

$$$$
