
     RDKit          3D

 36 37  0  0  0  0  0  0  0  0999 V2000
    9.2207   -1.9748   25.4226 O   0  0  0  0  0  0  0  0  0  0  0  0
    8.8345   -0.8766   25.0557 C   0  0  0  0  0  0  0  0  0  0  0  0
    9.3144    0.3719   25.7789 C   0  0  0  0  0  0  0  0  0  0  0  0
   10.3496    1.0576   24.9318 C   0  0  0  0  0  0  0  0  0  0  0  0
   10.0294    2.2608   24.2825 C   0  0  0  0  0  0  0  0  0  0  0  0
   10.9969    2.9063   23.4997 C   0  0  0  0  0  0  0  0  0  0  0  0
   12.2686    2.3492   23.3648 C   0  0  0  0  0  0  0  0  0  0  0  0
   13.2474    3.0187   22.6873 O   0  0  0  0  0  0  0  0  0  0  0  0
   14.1052    2.6018   22.8799 H   0  0  0  0  0  0  0  0  0  0  0  0
   12.5604    1.1121   23.9511 C   0  0  0  0  0  0  0  0  0  0  0  0
   14.2405    0.2720   23.6358 Br  0  0  0  0  0  0  0  0  0  0  0  0
   11.6106    0.4747   24.7540 C   0  0  0  0  0  0  0  0  0  0  0  0
   11.8487   -0.4719   25.2411 H   0  0  0  0  0  0  0  0  0  0  0  0
   10.7927    3.8544   23.0089 H   0  0  0  0  0  0  0  0  0  0  0  0
    9.0369    2.6930   24.3975 H   0  0  0  0  0  0  0  0  0  0  0  0
    9.7240    0.1020   26.7592 H   0  0  0  0  0  0  0  0  0  0  0  0
    8.4690    1.0422   25.9430 H   0  0  0  0  0  0  0  0  0  0  0  0
    8.0021   -0.7629   23.9486 N   0  0  0  0  0  0  0  0  0  0  0  0
    7.5635   -1.8986   23.0934 C   0  0  0  0  0  0  0  0  0  0  0  0
    6.8628   -1.5675   21.7393 C   0  0  0  0  0  0  0  0  0  0  0  0
    5.7811   -2.0873   21.4893 O   0  0  0  0  0  0  0  0  0  0  0  0
    7.4609   -0.7405   20.7846 N   0  0  0  0  0  0  0  0  0  0  0  0
    6.7604   -0.0847   19.7390 C   0  0  0  0  0  0  0  0  0  0  0  0
    5.5063    0.4721   20.0045 C   0  0  0  0  0  0  0  0  0  0  0  0
    4.8538    1.1990   19.0004 C   0  0  0  0  0  0  0  0  0  0  0  0
    5.4527    1.3204   17.7391 C   0  0  0  0  0  0  0  0  0  0  0  0
    6.6466    0.7669   17.4484 N   0  0  0  0  0  0  0  0  0  0  0  0
    7.2889    0.0972   18.4339 C   0  0  0  0  0  0  0  0  0  0  0  0
    8.2579   -0.3357   18.2051 H   0  0  0  0  0  0  0  0  0  0  0  0
    4.9376    1.8986   16.9780 H   0  0  0  0  0  0  0  0  0  0  0  0
    3.8991    1.6846   19.1865 H   0  0  0  0  0  0  0  0  0  0  0  0
    5.0731    0.3692   20.9957 H   0  0  0  0  0  0  0  0  0  0  0  0
    8.3711   -0.3675   21.0383 H   0  0  0  0  0  0  0  0  0  0  0  0
    8.4436   -2.5046   22.8636 H   0  0  0  0  0  0  0  0  0  0  0  0
    6.8781   -2.5287   23.6725 H   0  0  0  0  0  0  0  0  0  0  0  0
    7.6610    0.1747   23.7552 H   0  0  0  0  0  0  0  0  0  0  0  0
  1  2  2  0
  2  3  1  0
  3  4  1  0
  4  5  2  0
  5  6  1  0
  6  7  2  0
  7  8  1  0
  8  9  1  0
  7 10  1  0
 10 11  1  0
 10 12  2  0
 12 13  1  0
  6 14  1  0
  5 15  1  0
  3 16  1  0
  3 17  1  0
  2 18  1  0
 18 19  1  0
 19 20  1  0
 20 21  2  0
 20 22  1  0
 22 23  1  0
 23 24  2  0
 24 25  1  0
 25 26  2  0
 26 27  1  0
 27 28  2  0
 28 29  1  0
 26 30  1  0
 25 31  1  0
 24 32  1  0
 22 33  1  0
 19 34  1  0
 19 35  1  0
 18 36  1  0
 12  4  1  0
 28 23  1  0
M  END
>  <plip>  (1) 
-0.0625

>  <filename>  (1) 
[H][O][c]1[c]([H])[c]([H])[c]([C]([H])([H])[C](=[O])[N]([H])[C]([H])([H])[C](=[O])[N]([H])[c]2[c]([H])[n][c]([H])[c]([H])[c]2[H])[c]([H])[c]1[Br]

$$$$
