
     RDKit          3D

 29 31  0  0  0  0  0  0  0  0999 V2000
   11.7041    0.7858   25.7761 H   0  0  0  0  0  0  0  0  0  0  0  0
   10.8748    1.1875   25.2051 C   0  0  0  0  0  0  0  0  0  0  0  0
   11.0133    2.1425   24.2452 N   0  0  0  0  0  0  0  0  0  0  0  0
    9.7847    2.2601   23.7830 C   0  0  0  0  0  0  0  0  0  0  0  0
    9.4409    2.9211   22.9921 H   0  0  0  0  0  0  0  0  0  0  0  0
    8.9532    1.4410   24.4429 N   0  0  0  0  0  0  0  0  0  0  0  0
    7.5176    1.2582   24.2238 C   0  0  0  0  0  0  0  0  0  0  0  0
    7.2339    0.4439   24.9025 H   0  0  0  0  0  0  0  0  0  0  0  0
    6.9967    2.1823   24.4986 H   0  0  0  0  0  0  0  0  0  0  0  0
    7.1567    0.9071   22.8771 N   0  0  0  0  0  0  0  0  0  0  0  0
    6.9357    1.6311   22.2052 H   0  0  0  0  0  0  0  0  0  0  0  0
    7.6055   -0.2816   22.3004 C   0  0  0  0  0  0  0  0  0  0  0  0
    8.3167   -1.3770   22.8716 C   0  0  0  0  0  0  0  0  0  0  0  0
    8.7008   -1.4742   23.8796 H   0  0  0  0  0  0  0  0  0  0  0  0
    8.5129   -2.3491   21.9812 N   0  0  0  0  0  0  0  0  0  0  0  0
    7.9486   -1.8848   20.8559 N   0  0  0  0  0  0  0  0  0  0  0  0
    7.9218   -2.4655   20.0237 H   0  0  0  0  0  0  0  0  0  0  0  0
    7.3790   -0.6565   20.9818 C   0  0  0  0  0  0  0  0  0  0  0  0
    6.6562    0.0188   19.8793 C   0  0  0  0  0  0  0  0  0  0  0  0
    7.1550    0.0711   18.5591 C   0  0  0  0  0  0  0  0  0  0  0  0
    8.1096   -0.3893   18.3078 H   0  0  0  0  0  0  0  0  0  0  0  0
    6.5392    0.6904   17.5453 N   0  0  0  0  0  0  0  0  0  0  0  0
    5.3778    1.3116   17.8064 C   0  0  0  0  0  0  0  0  0  0  0  0
    4.9133    1.8213   16.9639 H   0  0  0  0  0  0  0  0  0  0  0  0
    4.7818    1.3195   19.0718 C   0  0  0  0  0  0  0  0  0  0  0  0
    3.8510    1.8557   19.2224 H   0  0  0  0  0  0  0  0  0  0  0  0
    5.4309    0.6635   20.1207 C   0  0  0  0  0  0  0  0  0  0  0  0
    5.0116    0.6311   21.1268 H   0  0  0  0  0  0  0  0  0  0  0  0
    9.6501    0.7369   25.3738 N   0  0  0  0  0  0  0  0  0  0  0  0
  1  2  1  0
  2  3  1  0
  3  4  2  0
  4  5  1  0
  4  6  1  0
  6  7  1  0
  7  8  1  0
  7  9  1  0
  7 10  1  0
 10 11  1  0
 10 12  1  0
 12 13  1  0
 13 14  1  0
 13 15  2  0
 15 16  1  0
 16 17  1  0
 16 18  1  0
 18 19  1  0
 19 20  2  0
 20 21  1  0
 20 22  1  0
 22 23  2  0
 23 24  1  0
 23 25  1  0
 25 26  1  0
 25 27  2  0
 27 28  1  0
  6 29  1  0
 29  2  2  0
 18 12  2  0
 27 19  1  0
M  END
>  <plip>  (1) 
-0.0

>  <filename>  (1) 
[H][c]1[n][c]([H])[n]([C]([H])([H])[N]([H])[c]2[c]([H])[n][n]([H])[c]2-[c]2[c]([H])[n][c]([H])[c]([H])[c]2[H])[n]1

$$$$
