
     RDKit          3D

 44 44  0  0  0  0  0  0  0  0999 V2000
   11.2056    0.3989   25.1653 C   0  0  0  0  0  0  0  0  0  0  0  0
   10.3580   -0.3388   24.1133 C   0  0  0  0  0  0  0  0  0  0  0  0
   10.4801    0.2088   22.6625 C   0  0  0  0  0  0  0  0  0  0  0  0
   11.8869    0.0762   22.0380 C   0  0  0  0  0  0  0  0  0  0  0  0
   12.3857   -1.3385   21.7375 C   0  0  0  0  0  0  0  0  0  0  0  0
   13.6985   -1.2301   21.2214 O   0  0  0  0  0  0  0  0  0  0  0  0
   14.1278   -2.3106   20.4321 C   0  0  0  0  0  0  0  0  0  0  0  0
   14.4524   -3.1709   21.0366 H   0  0  0  0  0  0  0  0  0  0  0  0
   14.9596   -1.9542   19.8175 H   0  0  0  0  0  0  0  0  0  0  0  0
   13.3363   -2.6629   19.7551 H   0  0  0  0  0  0  0  0  0  0  0  0
   12.3820   -1.9962   22.6224 H   0  0  0  0  0  0  0  0  0  0  0  0
   11.7047   -1.7945   21.0131 H   0  0  0  0  0  0  0  0  0  0  0  0
   12.6281    0.5818   22.6681 H   0  0  0  0  0  0  0  0  0  0  0  0
   11.8737    0.6448   21.0996 H   0  0  0  0  0  0  0  0  0  0  0  0
    9.3861   -0.3247   21.6904 C   0  0  0  0  0  0  0  0  0  0  0  0
    9.6538   -1.0420   20.7336 O   0  0  0  0  0  0  0  0  0  0  0  0
    8.0712    0.0301   21.9384 N   0  0  0  0  0  0  0  0  0  0  0  0
    7.6918    1.3104   22.5594 C   0  0  0  0  0  0  0  0  0  0  0  0
    7.9171    2.5707   21.7059 C   0  0  0  0  0  0  0  0  0  0  0  0
    9.2861    2.9521   21.7324 O   0  0  0  0  0  0  0  0  0  0  0  0
    9.4472    3.6491   21.0763 H   0  0  0  0  0  0  0  0  0  0  0  0
    7.5802    2.3618   20.6812 H   0  0  0  0  0  0  0  0  0  0  0  0
    7.2912    3.3792   22.1117 H   0  0  0  0  0  0  0  0  0  0  0  0
    8.1983    1.4339   23.5270 H   0  0  0  0  0  0  0  0  0  0  0  0
    6.6199    1.2441   22.7817 H   0  0  0  0  0  0  0  0  0  0  0  0
    7.0158   -0.7067   21.2175 C   0  0  0  0  0  0  0  0  0  0  0  0
    6.4885    0.0452   20.0157 C   0  0  0  0  0  0  0  0  0  0  0  0
    5.2747    0.7421   20.0546 C   0  0  0  0  0  0  0  0  0  0  0  0
    4.8461    1.4207   18.9103 C   0  0  0  0  0  0  0  0  0  0  0  0
    5.6480    1.3769   17.7655 C   0  0  0  0  0  0  0  0  0  0  0  0
    6.8214    0.7292   17.7113 N   0  0  0  0  0  0  0  0  0  0  0  0
    7.2319    0.0935   18.8219 C   0  0  0  0  0  0  0  0  0  0  0  0
    8.1971   -0.4091   18.7645 H   0  0  0  0  0  0  0  0  0  0  0  0
    5.3331    1.8863   16.8549 H   0  0  0  0  0  0  0  0  0  0  0  0
    3.9226    1.9870   18.9007 H   0  0  0  0  0  0  0  0  0  0  0  0
    4.6746    0.7584   20.9685 H   0  0  0  0  0  0  0  0  0  0  0  0
    7.4326   -1.6702   20.9061 H   0  0  0  0  0  0  0  0  0  0  0  0
    6.1981   -0.9257   21.9176 H   0  0  0  0  0  0  0  0  0  0  0  0
   10.3047    1.2851   22.7243 H   0  0  0  0  0  0  0  0  0  0  0  0
    9.3061   -0.2955   24.4247 H   0  0  0  0  0  0  0  0  0  0  0  0
   10.6228   -1.4049   24.1337 H   0  0  0  0  0  0  0  0  0  0  0  0
   11.0652   -0.0409   26.1594 H   0  0  0  0  0  0  0  0  0  0  0  0
   12.2786    0.3540   24.9526 H   0  0  0  0  0  0  0  0  0  0  0  0
   10.9494    1.4600   25.2639 H   0  0  0  0  0  0  0  0  0  0  0  0
  1  2  1  0
  2  3  1  0
  3  4  1  0
  4  5  1  0
  5  6  1  0
  6  7  1  0
  7  8  1  0
  7  9  1  0
  7 10  1  0
  5 11  1  0
  5 12  1  0
  4 13  1  0
  4 14  1  0
  3 15  1  0
 15 16  2  0
 15 17  1  0
 17 18  1  0
 18 19  1  0
 19 20  1  0
 20 21  1  0
 19 22  1  0
 19 23  1  0
 18 24  1  0
 18 25  1  0
 17 26  1  0
 26 27  1  0
 27 28  2  0
 28 29  1  0
 29 30  2  0
 30 31  1  0
 31 32  2  0
 32 33  1  0
 30 34  1  0
 29 35  1  0
 28 36  1  0
 26 37  1  0
 26 38  1  0
  3 39  1  0
  2 40  1  0
  2 41  1  0
  1 42  1  0
  1 43  1  0
  1 44  1  0
 32 27  1  0
M  END
>  <plip>  (1) 
-0.13793103448275862

>  <filename>  (1) 
[H][O][C]([H])([H])[C]([H])([H])[N]([C](=[O])[C]([H])([C]([H])([H])[C]([H])([H])[H])[C]([H])([H])[C]([H])([H])[O][C]([H])([H])[H])[C]([H])([H])[c]1[c]([H])[n][c]([H])[c]([H])[c]1[H]

$$$$
