
     RDKit          3D

 41 42  0  0  0  0  0  0  0  0999 V2000
    8.4909    4.7983   25.9310 C   0  0  0  0  0  0  0  0  0  0  0  0
    9.8695    4.8551   25.3189 C   0  0  0  0  0  0  0  0  0  0  0  0
   10.8524    5.7051   25.8709 C   0  0  0  0  0  0  0  0  0  0  0  0
   10.4211    6.9861   27.6840 I   0  0  0  0  0  0  0  0  0  0  0  0
   12.1443    5.7183   25.3219 C   0  0  0  0  0  0  0  0  0  0  0  0
   12.4972    4.8363   24.2945 C   0  0  0  0  0  0  0  0  0  0  0  0
   11.5190    4.0029   23.7442 C   0  0  0  0  0  0  0  0  0  0  0  0
   10.2020    4.0289   24.2257 C   0  0  0  0  0  0  0  0  0  0  0  0
    9.2262    3.2554   23.5856 N   0  0  0  0  0  0  0  0  0  0  0  0
    9.4552    2.0226   22.9669 C   0  0  0  0  0  0  0  0  0  0  0  0
   10.5823    1.5372   23.1135 O   0  0  0  0  0  0  0  0  0  0  0  0
    8.3652    1.2691   22.2138 C   0  0  0  0  0  0  0  0  0  0  0  0
    7.1813    1.6128   22.3146 O   0  0  0  0  0  0  0  0  0  0  0  0
    8.6128    0.1348   21.4140 N   0  0  0  0  0  0  0  0  0  0  0  0
    9.9759   -0.3209   21.1354 C   0  0  0  0  0  0  0  0  0  0  0  0
    9.9915   -0.9088   20.2110 H   0  0  0  0  0  0  0  0  0  0  0  0
   10.3644   -0.9481   21.9455 H   0  0  0  0  0  0  0  0  0  0  0  0
   10.6491    0.5314   21.0060 H   0  0  0  0  0  0  0  0  0  0  0  0
    7.5040   -0.7030   20.9441 C   0  0  0  0  0  0  0  0  0  0  0  0
    6.6445   -1.1195   22.1355 C   0  0  0  0  0  0  0  0  0  0  0  0
    7.2419   -1.7110   22.8348 H   0  0  0  0  0  0  0  0  0  0  0  0
    6.2648   -0.2371   22.6589 H   0  0  0  0  0  0  0  0  0  0  0  0
    5.7955   -1.7233   21.8013 H   0  0  0  0  0  0  0  0  0  0  0  0
    6.7198    0.0353   19.8884 C   0  0  0  0  0  0  0  0  0  0  0  0
    5.4997    0.6655   20.1572 C   0  0  0  0  0  0  0  0  0  0  0  0
    4.8540    1.3042   19.0999 C   0  0  0  0  0  0  0  0  0  0  0  0
    5.4310    1.3082   17.8247 C   0  0  0  0  0  0  0  0  0  0  0  0
    6.6028    0.7031   17.5629 N   0  0  0  0  0  0  0  0  0  0  0  0
    7.2270    0.0875   18.5821 C   0  0  0  0  0  0  0  0  0  0  0  0
    8.1670   -0.4114   18.3726 H   0  0  0  0  0  0  0  0  0  0  0  0
    4.9161    1.8207   17.0178 H   0  0  0  0  0  0  0  0  0  0  0  0
    3.9086    1.8095   19.2552 H   0  0  0  0  0  0  0  0  0  0  0  0
    5.0657    0.6562   21.1576 H   0  0  0  0  0  0  0  0  0  0  0  0
    7.8922   -1.6255   20.4933 H   0  0  0  0  0  0  0  0  0  0  0  0
    8.2659    3.5859   23.6281 H   0  0  0  0  0  0  0  0  0  0  0  0
   11.7729    3.3448   22.9186 H   0  0  0  0  0  0  0  0  0  0  0  0
   13.5227    4.8009   23.9276 H   0  0  0  0  0  0  0  0  0  0  0  0
   12.8874    6.4035   25.7114 H   0  0  0  0  0  0  0  0  0  0  0  0
    7.9568    3.8866   25.6426 H   0  0  0  0  0  0  0  0  0  0  0  0
    7.9132    5.6716   25.6141 H   0  0  0  0  0  0  0  0  0  0  0  0
    8.5765    4.7897   27.0201 H   0  0  0  0  0  0  0  0  0  0  0  0
  1  2  1  0
  2  3  2  0
  3  4  1  0
  3  5  1  0
  5  6  2  0
  6  7  1  0
  7  8  2  0
  8  9  1  0
  9 10  1  0
 10 11  2  0
 10 12  1  0
 12 13  2  0
 12 14  1  0
 14 15  1  0
 15 16  1  0
 15 17  1  0
 15 18  1  0
 14 19  1  0
 19 20  1  0
 20 21  1  0
 20 22  1  0
 20 23  1  0
 19 24  1  0
 24 25  2  0
 25 26  1  0
 26 27  2  0
 27 28  1  0
 28 29  2  0
 29 30  1  0
 27 31  1  0
 26 32  1  0
 25 33  1  0
 19 34  1  0
  9 35  1  0
  7 36  1  0
  6 37  1  0
  5 38  1  0
  1 39  1  0
  1 40  1  0
  1 41  1  0
  8  2  1  0
 29 24  1  0
M  END
>  <plip>  (1) 
-0.06896551724137931

>  <filename>  (1) 
[H][c]1[n][c]([H])[c]([C]([H])([N]([C](=[O])[C](=[O])[N]([H])[c]2[c]([H])[c]([H])[c]([H])[c]([I])[c]2[C]([H])([H])[H])[C]([H])([H])[H])[C]([H])([H])[H])[c]([H])[c]1[H]

$$$$
