
     RDKit          3D

 26 28  0  0  0  0  0  0  0  0999 V2000
    4.8033    1.3163   19.1093 C   0  0  0  0  0  0  0  0  0  0  0  0
    5.4005    1.2919   17.8438 C   0  0  0  0  0  0  0  0  0  0  0  0
    6.5677    0.6808   17.5788 N   0  0  0  0  0  0  0  0  0  0  0  0
    7.1785    0.0671   18.5983 C   0  0  0  0  0  0  0  0  0  0  0  0
    6.6587    0.0116   19.9022 C   0  0  0  0  0  0  0  0  0  0  0  0
    7.3786   -0.7033   20.9728 C   0  0  0  0  0  0  0  0  0  0  0  0
    8.7651   -0.5410   21.1222 C   0  0  0  0  0  0  0  0  0  0  0  0
    9.4362   -1.2088   22.1436 C   0  0  0  0  0  0  0  0  0  0  0  0
    8.7401   -2.0453   23.0131 C   0  0  0  0  0  0  0  0  0  0  0  0
    7.3510   -2.2204   22.8701 C   0  0  0  0  0  0  0  0  0  0  0  0
    6.6392   -3.1085   23.8083 C   0  0  0  0  0  0  0  0  0  0  0  0
    7.1641   -3.7863   24.7864 N   0  0  0  0  0  0  0  0  0  0  0  0
    6.0733   -4.4230   25.3063 C   0  0  0  0  0  0  0  0  0  0  0  0
    4.9470   -4.1755   24.7036 N   0  0  0  0  0  0  0  0  0  0  0  0
    5.3174   -3.2999   23.7012 O   0  0  0  0  0  0  0  0  0  0  0  0
    6.1333   -5.0910   26.1576 H   0  0  0  0  0  0  0  0  0  0  0  0
    6.6759   -1.5429   21.8472 C   0  0  0  0  0  0  0  0  0  0  0  0
    5.6044   -1.6749   21.7090 H   0  0  0  0  0  0  0  0  0  0  0  0
    9.2736   -2.5624   23.8038 H   0  0  0  0  0  0  0  0  0  0  0  0
   10.5056   -1.0791   22.2575 H   0  0  0  0  0  0  0  0  0  0  0  0
    9.3122    0.1226   20.4574 H   0  0  0  0  0  0  0  0  0  0  0  0
    5.4381    0.6520   20.1528 C   0  0  0  0  0  0  0  0  0  0  0  0
    5.0134    0.6287   21.1559 H   0  0  0  0  0  0  0  0  0  0  0  0
    8.1254   -0.4357   18.3801 H   0  0  0  0  0  0  0  0  0  0  0  0
    4.9061    1.7722   17.0054 H   0  0  0  0  0  0  0  0  0  0  0  0
    3.8694    1.8468   19.2669 H   0  0  0  0  0  0  0  0  0  0  0  0
  1  2  2  0
  2  3  1  0
  3  4  2  0
  4  5  1  0
  5  6  1  0
  6  7  2  0
  7  8  1  0
  8  9  2  0
  9 10  1  0
 10 11  1  0
 11 12  2  0
 12 13  1  0
 13 14  2  0
 14 15  1  0
 13 16  1  0
 10 17  2  0
 17 18  1  0
  9 19  1  0
  8 20  1  0
  7 21  1  0
  5 22  2  0
 22 23  1  0
  4 24  1  0
  2 25  1  0
  1 26  1  0
 22  1  1  0
 17  6  1  0
 15 11  1  0
M  END
>  <plip>  (1) 
-0.03571428571428571

>  <filename>  (1) 
[H][c]1[n][o][c](-[c]2[c]([H])[c]([H])[c]([H])[c](-[c]3[c]([H])[n][c]([H])[c]([H])[c]3[H])[c]2[H])[n]1

$$$$
