
     RDKit          3D

 46 49  0  0  0  0  0  0  0  0999 V2000
    5.7266   -3.2164   20.5526 O   0  0  0  0  0  0  0  0  0  0  0  0
    5.8141   -2.7842   21.6940 C   0  0  0  0  0  0  0  0  0  0  0  0
    6.4932   -1.6598   22.0130 N   0  0  0  0  0  0  0  0  0  0  0  0
    7.3387   -0.9490   21.0765 C   0  0  0  0  0  0  0  0  0  0  0  0
    8.2904   -0.0566   21.9015 C   0  0  0  0  0  0  0  0  0  0  0  0
    7.6255    1.1180   22.6508 C   0  0  0  0  0  0  0  0  0  0  0  0
    8.4609    1.6428   23.8310 C   0  0  0  0  0  0  0  0  0  0  0  0
    9.5276    2.5499   23.1814 C   0  0  0  0  0  0  0  0  0  0  0  0
    8.8750    3.0725   21.8775 C   0  0  0  0  0  0  0  0  0  0  0  0
    7.4985    2.3911   21.7996 C   0  0  0  0  0  0  0  0  0  0  0  0
    7.1870    2.2015   20.7710 H   0  0  0  0  0  0  0  0  0  0  0  0
    6.7422    3.0481   22.2406 H   0  0  0  0  0  0  0  0  0  0  0  0
    8.7769    4.1627   21.8694 H   0  0  0  0  0  0  0  0  0  0  0  0
    9.4836    2.7993   21.0090 H   0  0  0  0  0  0  0  0  0  0  0  0
    9.8339    3.3548   23.8555 H   0  0  0  0  0  0  0  0  0  0  0  0
   10.4312    1.9703   22.9524 H   0  0  0  0  0  0  0  0  0  0  0  0
    8.8753    0.8333   24.4427 H   0  0  0  0  0  0  0  0  0  0  0  0
    7.8074    2.2363   24.4891 H   0  0  0  0  0  0  0  0  0  0  0  0
    6.6367    0.7798   22.9918 H   0  0  0  0  0  0  0  0  0  0  0  0
    9.1136    0.3026   21.2702 H   0  0  0  0  0  0  0  0  0  0  0  0
    8.7662   -0.7195   22.6373 H   0  0  0  0  0  0  0  0  0  0  0  0
    6.5604   -0.2310   19.9739 C   0  0  0  0  0  0  0  0  0  0  0  0
    5.3403    0.4361   20.1663 C   0  0  0  0  0  0  0  0  0  0  0  0
    4.8094    1.1898   19.1151 C   0  0  0  0  0  0  0  0  0  0  0  0
    5.4906    1.2296   17.8948 C   0  0  0  0  0  0  0  0  0  0  0  0
    6.6266    0.5512   17.6660 N   0  0  0  0  0  0  0  0  0  0  0  0
    7.1221   -0.1594   18.6870 C   0  0  0  0  0  0  0  0  0  0  0  0
    8.0282   -0.7211   18.4521 H   0  0  0  0  0  0  0  0  0  0  0  0
    5.1041    1.8101   17.0584 H   0  0  0  0  0  0  0  0  0  0  0  0
    3.8949    1.7615   19.2318 H   0  0  0  0  0  0  0  0  0  0  0  0
    4.8265    0.3759   21.1274 H   0  0  0  0  0  0  0  0  0  0  0  0
    7.9707   -1.6791   20.5523 H   0  0  0  0  0  0  0  0  0  0  0  0
    6.5522   -1.4503   23.0032 H   0  0  0  0  0  0  0  0  0  0  0  0
    5.1688   -3.4623   22.7942 C   0  0  0  0  0  0  0  0  0  0  0  0
    5.1960   -3.1400   24.1465 C   0  0  0  0  0  0  0  0  0  0  0  0
    5.9333   -2.2372   24.8399 N   0  0  0  0  0  0  0  0  0  0  0  0
    5.7030   -2.1755   26.1422 C   0  0  0  0  0  0  0  0  0  0  0  0
    4.6985   -2.9440   26.8082 C   0  0  0  0  0  0  0  0  0  0  0  0
    3.9829   -3.8651   26.0788 C   0  0  0  0  0  0  0  0  0  0  0  0
    4.2734   -3.9861   24.7445 N   0  0  0  0  0  0  0  0  0  0  0  0
    3.7171   -4.8598   23.8519 N   0  0  0  0  0  0  0  0  0  0  0  0
    4.2768   -4.5381   22.6940 C   0  0  0  0  0  0  0  0  0  0  0  0
    4.0159   -5.0992   21.8041 H   0  0  0  0  0  0  0  0  0  0  0  0
    3.1967   -4.5269   26.4376 H   0  0  0  0  0  0  0  0  0  0  0  0
    4.5184   -2.7880   27.8637 H   0  0  0  0  0  0  0  0  0  0  0  0
    6.3338   -1.4985   26.7115 H   0  0  0  0  0  0  0  0  0  0  0  0
  1  2  2  0
  2  3  1  0
  3  4  1  0
  4  5  1  0
  5  6  1  0
  6  7  1  0
  7  8  1  0
  8  9  1  0
  9 10  1  0
 10 11  1  0
 10 12  1  0
  9 13  1  0
  9 14  1  0
  8 15  1  0
  8 16  1  0
  7 17  1  0
  7 18  1  0
  6 19  1  0
  5 20  1  0
  5 21  1  0
  4 22  1  0
 22 23  2  0
 23 24  1  0
 24 25  2  0
 25 26  1  0
 26 27  2  0
 27 28  1  0
 25 29  1  0
 24 30  1  0
 23 31  1  0
  4 32  1  0
  3 33  1  0
  2 34  1  0
 34 35  2  0
 35 36  1  0
 36 37  2  0
 37 38  1  0
 38 39  2  0
 39 40  1  0
 40 41  1  0
 41 42  2  0
 42 43  1  0
 39 44  1  0
 38 45  1  0
 37 46  1  0
 10  6  1  0
 27 22  1  0
 42 34  1  0
 40 35  1  0
M  END
>  <plip>  (1) 
-0.06896551724137931

>  <filename>  (1) 
[H][c]1[n][c]([H])[c]([C]([H])([N]([H])[C](=[O])[c]2[c]([H])[n][n]3[c]([H])[c]([H])[c]([H])[n][c]23)[C]([H])([H])[C]2([H])[C]([H])([H])[C]([H])([H])[C]([H])([H])[C]2([H])[H])[c]([H])[c]1[H]

$$$$
