
     RDKit          3D

 42 44  0  0  0  0  0  0  0  0999 V2000
    9.6856   -2.5900   24.4420 C   0  0  0  0  0  0  0  0  0  0  0  0
    8.2626   -3.0915   24.5945 C   0  0  0  0  0  0  0  0  0  0  0  0
    7.3728   -2.4888   23.6275 O   0  0  0  0  0  0  0  0  0  0  0  0
    7.5027   -2.8486   22.3368 C   0  0  0  0  0  0  0  0  0  0  0  0
    8.2606   -3.7019   21.9282 O   0  0  0  0  0  0  0  0  0  0  0  0
    6.6271   -2.0292   21.4344 C   0  0  0  0  0  0  0  0  0  0  0  0
    7.4075   -0.8006   20.9615 C   0  0  2  0  0  0  0  0  0  0  0  0
    7.7755   -0.0190   22.1091 N   0  0  0  0  0  0  0  0  0  0  0  0
    8.8493    0.8067   22.0796 C   0  0  0  0  0  0  0  0  0  0  0  0
    9.6084    0.8698   21.1193 O   0  0  0  0  0  0  0  0  0  0  0  0
    9.0082    1.6890   23.2576 C   0  0  0  0  0  0  0  0  0  0  0  0
    9.7257    2.8511   23.2856 C   0  0  0  0  0  0  0  0  0  0  0  0
    9.6203    3.6949   24.7763 S   0  0  0  0  0  0  0  0  0  0  0  0
    8.6457    2.4308   25.4725 C   0  0  0  0  0  0  0  0  0  0  0  0
    8.1881    2.2782   26.7910 C   0  0  0  0  0  0  0  0  0  0  0  0
    7.5437    1.0830   27.1020 C   0  0  0  0  0  0  0  0  0  0  0  0
    7.3335    0.1270   26.0894 C   0  0  0  0  0  0  0  0  0  0  0  0
    7.6878    0.2973   24.8221 N   0  0  0  0  0  0  0  0  0  0  0  0
    8.3907    1.4174   24.5202 C   0  0  0  0  0  0  0  0  0  0  0  0
    6.8692   -0.8263   26.3394 H   0  0  0  0  0  0  0  0  0  0  0  0
    7.2205    0.8804   28.1149 H   0  0  0  0  0  0  0  0  0  0  0  0
    8.3285    3.0454   27.5481 H   0  0  0  0  0  0  0  0  0  0  0  0
   10.3500    3.2518   22.4917 H   0  0  0  0  0  0  0  0  0  0  0  0
    7.3681   -0.1945   23.0220 H   0  0  0  0  0  0  0  0  0  0  0  0
    6.6496    0.0109   19.9244 C   0  0  0  0  0  0  0  0  0  0  0  0
    5.4349    0.6751   20.1570 C   0  0  0  0  0  0  0  0  0  0  0  0
    4.8118    1.3178   19.0840 C   0  0  0  0  0  0  0  0  0  0  0  0
    5.4223    1.2921   17.8261 C   0  0  0  0  0  0  0  0  0  0  0  0
    6.5870    0.6738   17.5861 N   0  0  0  0  0  0  0  0  0  0  0  0
    7.1716    0.0666   18.6250 C   0  0  0  0  0  0  0  0  0  0  0  0
    8.1264   -0.4213   18.4150 H   0  0  0  0  0  0  0  0  0  0  0  0
    4.9604    1.7840   16.9723 H   0  0  0  0  0  0  0  0  0  0  0  0
    3.8763    1.8498   19.2059 H   0  0  0  0  0  0  0  0  0  0  0  0
    4.9878    0.7038   21.1541 H   0  0  0  0  0  0  0  0  0  0  0  0
    8.3399   -1.1361   20.4764 H   0  0  0  0  0  0  0  0  0  0  0  0
    5.7268   -1.7191   21.9596 H   0  0  0  0  0  0  0  0  0  0  0  0
    6.3492   -2.6389   20.5768 H   0  0  0  0  0  0  0  0  0  0  0  0
    7.8337   -2.8026   25.5590 H   0  0  0  0  0  0  0  0  0  0  0  0
    8.2066   -4.1826   24.4992 H   0  0  0  0  0  0  0  0  0  0  0  0
   10.0609   -2.8147   23.4407 H   0  0  0  0  0  0  0  0  0  0  0  0
   10.3261   -3.0983   25.1680 H   0  0  0  0  0  0  0  0  0  0  0  0
    9.7390   -1.5104   24.6117 H   0  0  0  0  0  0  0  0  0  0  0  0
  1  2  1  0
  2  3  1  0
  3  4  1  0
  4  5  2  0
  4  6  1  0
  6  7  1  0
  7  8  1  0
  8  9  1  0
  9 10  2  0
  9 11  1  0
 11 12  2  0
 12 13  1  0
 13 14  1  0
 14 15  2  0
 15 16  1  0
 16 17  2  0
 17 18  1  0
 18 19  2  0
 17 20  1  0
 16 21  1  0
 15 22  1  0
 12 23  1  0
  8 24  1  0
  7 25  1  0
 25 26  2  0
 26 27  1  0
 27 28  2  0
 28 29  1  0
 29 30  2  0
 30 31  1  0
 28 32  1  0
 27 33  1  0
 26 34  1  0
  7 35  1  6
  6 36  1  0
  6 37  1  0
  2 38  1  0
  2 39  1  0
  1 40  1  0
  1 41  1  0
  1 42  1  0
 19 11  1  0
 30 25  1  0
 19 14  1  0
M  END
>  <plip>  (1) 
-0.14285714285714285

>  <filename>  (1) 
[H][c]1[n][c]([H])[c]([C@@]([H])([N]([H])[C](=[O])[c]2[c]([H])[s][c]3[c]([H])[c]([H])[c]([H])[n][c]23)[C]([H])([H])[C](=[O])[O][C]([H])([H])[C]([H])([H])[H])[c]([H])[c]1[H]

$$$$
