
     RDKit          3D

 47 50  0  0  0  0  0  0  0  0999 V2000
    5.1288    4.6257   26.1301 C   0  0  0  0  0  0  0  0  0  0  0  0
    5.6795    3.6913   25.1633 N   0  0  0  0  0  0  0  0  0  0  0  0
    5.0219    2.7553   24.4091 C   0  0  0  0  0  0  0  0  0  0  0  0
    5.8012    2.0349   23.6442 N   0  0  0  0  0  0  0  0  0  0  0  0
    7.0724    2.5390   23.8636 C   0  0  0  0  0  0  0  0  0  0  0  0
    8.3063    2.2205   23.2548 C   0  0  0  0  0  0  0  0  0  0  0  0
    8.4209    1.2235   22.1419 C   0  0  0  0  0  0  0  0  0  0  0  0
    9.2553    1.3614   21.2578 O   0  0  0  0  0  0  0  0  0  0  0  0
    7.6092    0.1220   22.2154 N   0  0  0  0  0  0  0  0  0  0  0  0
    7.4152   -0.6839   21.0189 C   0  0  0  0  0  0  0  0  0  0  0  0
    6.6973   -1.9985   21.3426 C   0  0  0  0  0  0  0  0  0  0  0  0
    7.4684   -2.9567   22.2516 C   0  0  0  0  0  0  0  0  0  0  0  0
    6.6956   -4.2108   22.6007 C   0  0  0  0  0  0  0  0  0  0  0  0
    5.7367   -4.2045   23.7545 C   0  0  0  0  0  0  0  0  0  0  0  0
    7.0328   -4.9586   23.8567 C   0  0  0  0  0  0  0  0  0  0  0  0
    7.8137   -4.5412   24.4868 H   0  0  0  0  0  0  0  0  0  0  0  0
    7.0037   -6.0438   23.8424 H   0  0  0  0  0  0  0  0  0  0  0  0
    4.8165   -4.7752   23.6774 H   0  0  0  0  0  0  0  0  0  0  0  0
    5.6482   -3.2766   24.3140 H   0  0  0  0  0  0  0  0  0  0  0  0
    6.4031   -4.8251   21.7500 H   0  0  0  0  0  0  0  0  0  0  0  0
    8.4089   -3.2440   21.7670 H   0  0  0  0  0  0  0  0  0  0  0  0
    7.7568   -2.4314   23.1719 H   0  0  0  0  0  0  0  0  0  0  0  0
    5.7270   -1.7489   21.7891 H   0  0  0  0  0  0  0  0  0  0  0  0
    6.4726   -2.4972   20.3938 H   0  0  0  0  0  0  0  0  0  0  0  0
    6.6666    0.0792   19.9339 C   0  0  0  0  0  0  0  0  0  0  0  0
    5.4380    0.7223   20.1602 C   0  0  0  0  0  0  0  0  0  0  0  0
    4.7941    1.3349   19.0827 C   0  0  0  0  0  0  0  0  0  0  0  0
    5.4003    1.2917   17.8227 C   0  0  0  0  0  0  0  0  0  0  0  0
    6.5611    0.6687   17.5808 N   0  0  0  0  0  0  0  0  0  0  0  0
    7.1696    0.0912   18.6268 C   0  0  0  0  0  0  0  0  0  0  0  0
    8.1165   -0.4022   18.3981 H   0  0  0  0  0  0  0  0  0  0  0  0
    4.9317    1.7802   16.9711 H   0  0  0  0  0  0  0  0  0  0  0  0
    3.8467    1.8477   19.2051 H   0  0  0  0  0  0  0  0  0  0  0  0
    4.9971    0.7557   21.1615 H   0  0  0  0  0  0  0  0  0  0  0  0
    8.4180   -0.9194   20.6280 H   0  0  0  0  0  0  0  0  0  0  0  0
    6.7735    0.3237   22.7587 H   0  0  0  0  0  0  0  0  0  0  0  0
    9.4432    2.9361   23.6522 C   0  0  0  0  0  0  0  0  0  0  0  0
    9.3661    3.9230   24.6514 C   0  0  0  0  0  0  0  0  0  0  0  0
    8.1575    4.2537   25.2588 C   0  0  0  0  0  0  0  0  0  0  0  0
    7.0151    3.5681   24.8313 C   0  0  0  0  0  0  0  0  0  0  0  0
    8.0950    5.0247   26.0227 H   0  0  0  0  0  0  0  0  0  0  0  0
   10.2663    4.4529   24.9408 H   0  0  0  0  0  0  0  0  0  0  0  0
   10.3989    2.7319   23.1686 H   0  0  0  0  0  0  0  0  0  0  0  0
    3.9469    2.6670   24.4608 H   0  0  0  0  0  0  0  0  0  0  0  0
    5.6926    4.5687   27.0673 H   0  0  0  0  0  0  0  0  0  0  0  0
    5.1612    5.6590   25.7651 H   0  0  0  0  0  0  0  0  0  0  0  0
    4.0898    4.3691   26.3454 H   0  0  0  0  0  0  0  0  0  0  0  0
  1  2  1  0
  2  3  1  0
  3  4  2  0
  4  5  1  0
  5  6  2  0
  6  7  1  0
  7  8  2  0
  7  9  1  0
  9 10  1  0
 10 11  1  0
 11 12  1  0
 12 13  1  0
 13 14  1  0
 14 15  1  0
 15 16  1  0
 15 17  1  0
 14 18  1  0
 14 19  1  0
 13 20  1  0
 12 21  1  0
 12 22  1  0
 11 23  1  0
 11 24  1  0
 10 25  1  0
 25 26  2  0
 26 27  1  0
 27 28  2  0
 28 29  1  0
 29 30  2  0
 30 31  1  0
 28 32  1  0
 27 33  1  0
 26 34  1  0
 10 35  1  0
  9 36  1  0
  6 37  1  0
 37 38  2  0
 38 39  1  0
 39 40  2  0
 39 41  1  0
 38 42  1  0
 37 43  1  0
  3 44  1  0
  1 45  1  0
  1 46  1  0
  1 47  1  0
 40  2  1  0
 40  5  1  0
 15 13  1  0
 30 25  1  0
M  END
>  <plip>  (1) 
-0.21428571428571427

>  <filename>  (1) 
[H][c]1[n][c]([H])[c]([C]([H])([N]([H])[C](=[O])[c]2[c]([H])[c]([H])[c]([H])[c]3[c]2[n][c]([H])[n]3[C]([H])([H])[H])[C]([H])([H])[C]([H])([H])[C]2([H])[C]([H])([H])[C]2([H])[H])[c]([H])[c]1[H]

$$$$
