
     RDKit          3D

 43 45  0  0  0  0  0  0  0  0999 V2000
    1.5085   -5.8779   26.1230 C   0  0  0  0  0  0  0  0  0  0  0  0
    2.8980   -5.5803   25.6018 C   0  0  0  0  0  0  0  0  0  0  0  0
    3.1124   -4.5556   24.7141 C   0  0  0  0  0  0  0  0  0  0  0  0
    4.4264   -4.2611   24.2297 C   0  0  0  0  0  0  0  0  0  0  0  0
    4.8507   -3.3469   23.3779 N   0  0  0  0  0  0  0  0  0  0  0  0
    6.2114   -3.5078   23.3135 C   0  0  0  0  0  0  0  0  0  0  0  0
    7.1510   -2.6630   22.4897 C   0  0  0  0  0  0  0  0  0  0  0  0
    8.3612   -2.8782   22.4890 O   0  0  0  0  0  0  0  0  0  0  0  0
    6.6030   -1.6700   21.7438 N   0  0  0  0  0  0  0  0  0  0  0  0
    7.4368   -0.7281   21.0023 C   0  0  0  0  0  0  0  0  0  0  0  0
    6.6274   -0.0476   19.9215 C   0  0  0  0  0  0  0  0  0  0  0  0
    5.4126    0.6176   20.1592 C   0  0  0  0  0  0  0  0  0  0  0  0
    4.7971    1.2953   19.1029 C   0  0  0  0  0  0  0  0  0  0  0  0
    5.4017    1.2870   17.8428 C   0  0  0  0  0  0  0  0  0  0  0  0
    6.5592    0.6625   17.5910 N   0  0  0  0  0  0  0  0  0  0  0  0
    7.1427    0.0271   18.6158 C   0  0  0  0  0  0  0  0  0  0  0  0
    8.0987   -0.4402   18.3748 H   0  0  0  0  0  0  0  0  0  0  0  0
    4.9439    1.7951   16.9963 H   0  0  0  0  0  0  0  0  0  0  0  0
    3.8737    1.8411   19.2444 H   0  0  0  0  0  0  0  0  0  0  0  0
    4.9787    0.6511   21.1641 H   0  0  0  0  0  0  0  0  0  0  0  0
    8.2001    0.2600   21.9519 C   0  0  0  0  0  0  0  0  0  0  0  0
    9.2118    1.1179   21.1731 C   0  0  0  0  0  0  0  0  0  0  0  0
    9.8242    1.7157   21.8587 H   0  0  0  0  0  0  0  0  0  0  0  0
    9.8903    0.5039   20.5687 H   0  0  0  0  0  0  0  0  0  0  0  0
    8.6948    1.8157   20.5011 H   0  0  0  0  0  0  0  0  0  0  0  0
    7.2799    1.1515   22.8006 C   0  0  0  0  0  0  0  0  0  0  0  0
    7.8629    1.6795   23.5647 H   0  0  0  0  0  0  0  0  0  0  0  0
    6.5035    0.5710   23.3141 H   0  0  0  0  0  0  0  0  0  0  0  0
    6.7829    1.9155   22.1876 H   0  0  0  0  0  0  0  0  0  0  0  0
    8.7520   -0.4083   22.6260 H   0  0  0  0  0  0  0  0  0  0  0  0
    8.2325   -1.3242   20.5262 H   0  0  0  0  0  0  0  0  0  0  0  0
    5.5969   -1.5743   21.7679 H   0  0  0  0  0  0  0  0  0  0  0  0
    6.6200   -4.5481   24.1235 C   0  0  0  0  0  0  0  0  0  0  0  0
    5.4890   -5.0395   24.7136 N   0  0  0  0  0  0  0  0  0  0  0  0
    5.2924   -6.0800   25.6098 C   0  0  0  0  0  0  0  0  0  0  0  0
    4.0351   -6.3600   26.0511 C   0  0  0  0  0  0  0  0  0  0  0  0
    3.8752   -7.1749   26.7533 H   0  0  0  0  0  0  0  0  0  0  0  0
    6.1903   -6.6146   25.9093 H   0  0  0  0  0  0  0  0  0  0  0  0
    7.5997   -4.9607   24.3120 H   0  0  0  0  0  0  0  0  0  0  0  0
    2.2995   -3.9358   24.3601 H   0  0  0  0  0  0  0  0  0  0  0  0
    1.3827   -6.9391   26.3570 H   0  0  0  0  0  0  0  0  0  0  0  0
    0.7357   -5.6019   25.3972 H   0  0  0  0  0  0  0  0  0  0  0  0
    1.2985   -5.3176   27.0417 H   0  0  0  0  0  0  0  0  0  0  0  0
  1  2  1  0
  2  3  2  0
  3  4  1  0
  4  5  2  0
  5  6  1  0
  6  7  1  0
  7  8  2  0
  7  9  1  0
  9 10  1  0
 10 11  1  0
 11 12  2  0
 12 13  1  0
 13 14  2  0
 14 15  1  0
 15 16  2  0
 16 17  1  0
 14 18  1  0
 13 19  1  0
 12 20  1  0
 10 21  1  0
 21 22  1  0
 22 23  1  0
 22 24  1  0
 22 25  1  0
 21 26  1  0
 26 27  1  0
 26 28  1  0
 26 29  1  0
 21 30  1  0
 10 31  1  0
  9 32  1  0
  6 33  2  0
 33 34  1  0
 34 35  1  0
 35 36  2  0
 36 37  1  0
 35 38  1  0
 33 39  1  0
  3 40  1  0
  1 41  1  0
  1 42  1  0
  1 43  1  0
 36  2  1  0
 34  4  1  0
 16 11  1  0
M  END
>  <plip>  (1) 
-0.06666666666666667

>  <filename>  (1) 
[H][c]1[n][c]([H])[c]([C]([H])([N]([H])[C](=[O])[c]2[n][c]3[c]([H])[c]([C]([H])([H])[H])[c]([H])[c]([H])[n]3[c]2[H])[C]([H])([C]([H])([H])[H])[C]([H])([H])[H])[c]([H])[c]1[H]

$$$$
