
     RDKit          3D

 38 39  0  0  0  0  0  0  0  0999 V2000
    8.6453    0.4527   24.7111 O   0  0  0  0  0  0  0  0  0  0  0  0
    7.4934    0.6745   24.4247 C   0  0  0  0  0  0  0  0  0  0  0  0
    6.3211    0.4116   25.3752 C   0  0  0  0  0  0  0  0  0  0  0  0
    5.8554    1.6783   26.0565 C   0  0  0  0  0  0  0  0  0  0  0  0
    6.4754    2.1459   27.2243 C   0  0  0  0  0  0  0  0  0  0  0  0
    6.0580    3.3572   27.7728 C   0  0  0  0  0  0  0  0  0  0  0  0
    5.0287    4.0751   27.1286 C   0  0  0  0  0  0  0  0  0  0  0  0
    4.5605    5.4135   27.7273 C   0  0  0  0  0  0  0  0  0  0  0  0
    5.5832    6.2973   27.7760 F   0  0  0  0  0  0  0  0  0  0  0  0
    4.1534    5.2475   29.0069 F   0  0  0  0  0  0  0  0  0  0  0  0
    3.5583    5.9913   27.0586 F   0  0  0  0  0  0  0  0  0  0  0  0
    4.4428    3.6348   26.0012 N   0  0  0  0  0  0  0  0  0  0  0  0
    4.8491    2.4747   25.4878 C   0  0  0  0  0  0  0  0  0  0  0  0
    4.3696    2.1607   24.5673 H   0  0  0  0  0  0  0  0  0  0  0  0
    6.5131    3.7426   28.6800 H   0  0  0  0  0  0  0  0  0  0  0  0
    7.2794    1.5715   27.6892 H   0  0  0  0  0  0  0  0  0  0  0  0
    5.4966   -0.0778   24.8421 H   0  0  0  0  0  0  0  0  0  0  0  0
    6.6844   -0.2904   26.1272 H   0  0  0  0  0  0  0  0  0  0  0  0
    7.0914    1.2144   23.2539 O   0  0  0  0  0  0  0  0  0  0  0  0
    8.0962    1.4404   22.2296 C   0  0  0  0  0  0  0  0  0  0  0  0
    8.5570    0.1484   21.5582 C   0  0  0  0  0  0  0  0  0  0  0  0
    7.4125   -0.7104   20.9922 C   0  0  0  0  0  0  0  0  0  0  0  0
    6.6490   -0.0058   19.8998 C   0  0  0  0  0  0  0  0  0  0  0  0
    5.4371    0.6497   20.1522 C   0  0  0  0  0  0  0  0  0  0  0  0
    4.8026    1.3148   19.1011 C   0  0  0  0  0  0  0  0  0  0  0  0
    5.3977    1.2970   17.8358 C   0  0  0  0  0  0  0  0  0  0  0  0
    6.5622    0.6846   17.5738 N   0  0  0  0  0  0  0  0  0  0  0  0
    7.1646    0.0642   18.5944 C   0  0  0  0  0  0  0  0  0  0  0  0
    8.1153   -0.4215   18.3697 H   0  0  0  0  0  0  0  0  0  0  0  0
    4.9145    1.7844   16.9924 H   0  0  0  0  0  0  0  0  0  0  0  0
    3.8704    1.8464   19.2544 H   0  0  0  0  0  0  0  0  0  0  0  0
    5.0142    0.6383   21.1610 H   0  0  0  0  0  0  0  0  0  0  0  0
    6.7283   -0.9727   21.8079 H   0  0  0  0  0  0  0  0  0  0  0  0
    7.8242   -1.6523   20.6062 H   0  0  0  0  0  0  0  0  0  0  0  0
    9.2494    0.4089   20.7442 H   0  0  0  0  0  0  0  0  0  0  0  0
    9.1305   -0.4320   22.2886 H   0  0  0  0  0  0  0  0  0  0  0  0
    8.9503    1.9872   22.6466 H   0  0  0  0  0  0  0  0  0  0  0  0
    7.6097    2.0983   21.5057 H   0  0  0  0  0  0  0  0  0  0  0  0
  1  2  2  0
  2  3  1  0
  3  4  1  0
  4  5  2  0
  5  6  1  0
  6  7  2  0
  7  8  1  0
  8  9  1  0
  8 10  1  0
  8 11  1  0
  7 12  1  0
 12 13  2  0
 13 14  1  0
  6 15  1  0
  5 16  1  0
  3 17  1  0
  3 18  1  0
  2 19  1  0
 19 20  1  0
 20 21  1  0
 21 22  1  0
 22 23  1  0
 23 24  2  0
 24 25  1  0
 25 26  2  0
 26 27  1  0
 27 28  2  0
 28 29  1  0
 26 30  1  0
 25 31  1  0
 24 32  1  0
 22 33  1  0
 22 34  1  0
 21 35  1  0
 21 36  1  0
 20 37  1  0
 20 38  1  0
 13  4  1  0
 28 23  1  0
M  END
>  <plip>  (1) 
-0.03571428571428571

>  <filename>  (1) 
[H][c]1[n][c]([H])[c]([C]([H])([H])[C]([H])([H])[C]([H])([H])[O][C](=[O])[C]([H])([H])[c]2[c]([H])[n][c]([C]([F])([F])[F])[c]([H])[c]2[H])[c]([H])[c]1[H]

$$$$
