
     RDKit          3D

 45 48  0  0  0  0  0  0  0  0999 V2000
    4.9341    1.8681   16.9206 H   0  0  0  0  0  0  0  0  0  0  0  0
    5.3887    1.3328   17.7533 C   0  0  0  0  0  0  0  0  0  0  0  0
    6.5429    0.7008   17.5029 N   0  0  0  0  0  0  0  0  0  0  0  0
    7.1359    0.0600   18.5197 C   0  0  0  0  0  0  0  0  0  0  0  0
    8.0817   -0.4198   18.2652 H   0  0  0  0  0  0  0  0  0  0  0  0
    6.6328   -0.0067   19.8341 C   0  0  0  0  0  0  0  0  0  0  0  0
    7.3415   -0.7859   20.9330 C   0  0  1  0  0  0  0  0  0  0  0  0
    6.9590   -1.8183   20.9130 H   0  0  0  0  0  0  0  0  0  0  0  0
    8.8995   -0.9139   20.8471 C   0  0  0  0  0  0  0  0  0  0  0  0
    9.2140   -1.6844   20.1417 H   0  0  0  0  0  0  0  0  0  0  0  0
    9.3629    0.0358   20.5613 H   0  0  0  0  0  0  0  0  0  0  0  0
    9.2698   -1.2179   22.2815 C   0  0  0  0  0  0  0  0  0  0  0  0
   10.2699   -1.8143   22.9075 N   0  0  0  0  0  0  0  0  0  0  0  0
    9.8714   -1.8552   24.1932 N   0  0  0  0  0  0  0  0  0  0  0  0
   10.4262   -2.3768   24.8671 H   0  0  0  0  0  0  0  0  0  0  0  0
    8.6399   -1.2915   24.3988 C   0  0  0  0  0  0  0  0  0  0  0  0
    7.9149   -1.3808   25.7063 C   0  0  0  0  0  0  0  0  0  0  0  0
    8.2771   -2.1105   26.6214 O   0  0  0  0  0  0  0  0  0  0  0  0
    6.8025   -0.5994   25.7487 N   0  0  0  0  0  0  0  0  0  0  0  0
    6.7654    0.1174   25.0437 H   0  0  0  0  0  0  0  0  0  0  0  0
    5.8780   -0.5713   26.8685 C   0  0  0  0  0  0  0  0  0  0  0  0
    5.7913   -1.6053   27.2311 H   0  0  0  0  0  0  0  0  0  0  0  0
    6.4114    0.2763   28.0354 C   0  0  0  0  0  0  0  0  0  0  0  0
    7.4065   -0.0998   28.2997 H   0  0  0  0  0  0  0  0  0  0  0  0
    6.5344    1.3177   27.7006 H   0  0  0  0  0  0  0  0  0  0  0  0
    5.4471    0.2250   29.2291 C   0  0  0  0  0  0  0  0  0  0  0  0
    5.8281    0.8487   30.0447 H   0  0  0  0  0  0  0  0  0  0  0  0
    5.4166   -0.8032   29.6193 H   0  0  0  0  0  0  0  0  0  0  0  0
    4.0296    0.6623   28.8241 C   0  0  0  0  0  0  0  0  0  0  0  0
    4.0508    1.7269   28.5523 H   0  0  0  0  0  0  0  0  0  0  0  0
    3.3451    0.5757   29.6769 H   0  0  0  0  0  0  0  0  0  0  0  0
    3.5028   -0.1481   27.6274 C   0  0  0  0  0  0  0  0  0  0  0  0
    3.3598   -1.1944   27.9355 H   0  0  0  0  0  0  0  0  0  0  0  0
    2.5141    0.2134   27.3244 H   0  0  0  0  0  0  0  0  0  0  0  0
    4.4800   -0.1069   26.4360 C   0  0  0  0  0  0  0  0  0  0  0  0
    4.1212   -0.7404   25.6143 H   0  0  0  0  0  0  0  0  0  0  0  0
    4.5441    0.9215   26.0475 H   0  0  0  0  0  0  0  0  0  0  0  0
    8.2393   -0.8535   23.1454 C   0  0  0  0  0  0  0  0  0  0  0  0
    7.0849   -0.2790   22.3807 C   0  0  0  0  0  0  0  0  0  0  0  0
    6.1131   -0.6097   22.7534 H   0  0  0  0  0  0  0  0  0  0  0  0
    7.0994    0.8187   22.3991 H   0  0  0  0  0  0  0  0  0  0  0  0
    5.4060    0.6482   20.0570 C   0  0  0  0  0  0  0  0  0  0  0  0
    4.9496    0.6593   21.0456 H   0  0  0  0  0  0  0  0  0  0  0  0
    4.7833    1.3265   19.0099 C   0  0  0  0  0  0  0  0  0  0  0  0
    3.8572    1.8649   19.1643 H   0  0  0  0  0  0  0  0  0  0  0  0
  1  2  1  0
  2  3  2  0
  3  4  1  0
  4  5  1  0
  4  6  2  0
  6  7  1  0
  7  8  1  1
  7  9  1  0
  9 10  1  0
  9 11  1  0
  9 12  1  0
 12 13  2  0
 13 14  1  0
 14 15  1  0
 14 16  1  0
 16 17  1  0
 17 18  2  0
 17 19  1  0
 19 20  1  0
 19 21  1  0
 21 22  1  0
 21 23  1  0
 23 24  1  0
 23 25  1  0
 23 26  1  0
 26 27  1  0
 26 28  1  0
 26 29  1  0
 29 30  1  0
 29 31  1  0
 29 32  1  0
 32 33  1  0
 32 34  1  0
 32 35  1  0
 35 36  1  0
 35 37  1  0
 16 38  2  0
 38 39  1  0
 39 40  1  0
 39 41  1  0
  6 42  1  0
 42 43  1  0
 42 44  2  0
 44 45  1  0
 44  2  1  0
 39  7  1  0
 38 12  1  0
 35 21  1  0
M  END
>  <plip>  (1) 
-0.07142857142857142

>  <filename>  (1) 
[H][c]1[n][c]([H])[c]([C@@]2([H])[C]([H])([H])[c]3[n][n]([H])[c]([C](=[O])[N]([H])[C]4([H])[C]([H])([H])[C]([H])([H])[C]([H])([H])[C]([H])([H])[C]4([H])[H])[c]3[C]2([H])[H])[c]([H])[c]1[H]

$$$$
