
     RDKit          3D

 42 43  0  0  0  0  0  0  0  0999 V2000
    9.5105    0.0373   21.3949 H   0  0  0  0  0  0  0  0  0  0  0  0
    9.6675   -0.5350   20.6326 O   0  0  0  0  0  0  0  0  0  0  0  0
    8.5825   -1.3700   20.8064 C   0  0  1  0  0  0  0  0  0  0  0  0
    8.5479   -2.0462   19.9406 H   0  0  0  0  0  0  0  0  0  0  0  0
    8.7368   -2.0242   22.0345 O   0  0  0  0  0  0  0  0  0  0  0  0
    8.1235   -3.3015   22.0858 C   0  0  0  0  0  0  0  0  0  0  0  0
    7.0464   -3.2313   21.8723 H   0  0  0  0  0  0  0  0  0  0  0  0
    8.5665   -3.9499   21.3108 H   0  0  0  0  0  0  0  0  0  0  0  0
    8.3399   -3.9080   23.4703 C   0  0  0  0  0  0  0  0  0  0  0  0
    9.4145   -4.0183   23.6692 H   0  0  0  0  0  0  0  0  0  0  0  0
    7.9543   -3.2146   24.2302 H   0  0  0  0  0  0  0  0  0  0  0  0
    7.6644   -5.2826   23.5990 C   0  0  0  0  0  0  0  0  0  0  0  0
    7.8880   -5.7235   24.5922 H   0  0  0  0  0  0  0  0  0  0  0  0
    8.1238   -5.9575   22.8606 H   0  0  0  0  0  0  0  0  0  0  0  0
    6.2199   -5.2277   23.3436 N   0  0  0  0  0  0  0  0  0  0  0  0
    5.6672   -6.4789   22.8113 C   0  0  0  0  0  0  0  0  0  0  0  0
    5.7323   -7.3146   23.5376 H   0  0  0  0  0  0  0  0  0  0  0  0
    6.2649   -6.7631   21.9346 H   0  0  0  0  0  0  0  0  0  0  0  0
    4.1955   -6.3100   22.4194 C   0  0  0  0  0  0  0  0  0  0  0  0
    4.1349   -5.5904   21.5916 H   0  0  0  0  0  0  0  0  0  0  0  0
    3.7870   -7.2570   22.0603 H   0  0  0  0  0  0  0  0  0  0  0  0
    3.3599   -5.8349   23.6172 C   0  0  0  0  0  0  0  0  0  0  0  0
    3.3342   -6.6262   24.3876 H   0  0  0  0  0  0  0  0  0  0  0  0
    2.3164   -5.6790   23.3175 H   0  0  0  0  0  0  0  0  0  0  0  0
    3.9827   -4.5562   24.1986 C   0  0  0  0  0  0  0  0  0  0  0  0
    3.4600   -4.2396   25.1115 H   0  0  0  0  0  0  0  0  0  0  0  0
    3.8931   -3.7399   23.4670 H   0  0  0  0  0  0  0  0  0  0  0  0
    5.4693   -4.7659   24.5176 C   0  0  0  0  0  0  0  0  0  0  0  0
    5.5621   -5.4934   25.3559 H   0  0  0  0  0  0  0  0  0  0  0  0
    5.9133   -3.8219   24.8602 H   0  0  0  0  0  0  0  0  0  0  0  0
    7.4057   -0.5871   20.9576 N   0  0  0  0  0  0  0  0  0  0  0  0
    7.0073   -0.6829   21.8773 H   0  0  0  0  0  0  0  0  0  0  0  0
    6.6949    0.0052   19.9163 C   0  0  0  0  0  0  0  0  0  0  0  0
    7.1753    0.0568   18.5709 C   0  0  0  0  0  0  0  0  0  0  0  0
    8.1263   -0.4051   18.3217 H   0  0  0  0  0  0  0  0  0  0  0  0
    6.5480    0.6676   17.5562 N   0  0  0  0  0  0  0  0  0  0  0  0
    5.3900    1.2890   17.8346 C   0  0  0  0  0  0  0  0  0  0  0  0
    4.9195    1.8074   17.0033 H   0  0  0  0  0  0  0  0  0  0  0  0
    4.8168    1.2909   19.1109 C   0  0  0  0  0  0  0  0  0  0  0  0
    3.8843    1.8219   19.2718 H   0  0  0  0  0  0  0  0  0  0  0  0
    5.4655    0.6342   20.1638 C   0  0  0  0  0  0  0  0  0  0  0  0
    5.0518    0.6157   21.1720 H   0  0  0  0  0  0  0  0  0  0  0  0
  1  2  1  0
  2  3  1  0
  3  4  1  6
  3  5  1  0
  5  6  1  0
  6  7  1  0
  6  8  1  0
  6  9  1  0
  9 10  1  0
  9 11  1  0
  9 12  1  0
 12 13  1  0
 12 14  1  0
 12 15  1  0
 15 16  1  0
 16 17  1  0
 16 18  1  0
 16 19  1  0
 19 20  1  0
 19 21  1  0
 19 22  1  0
 22 23  1  0
 22 24  1  0
 22 25  1  0
 25 26  1  0
 25 27  1  0
 25 28  1  0
 28 29  1  0
 28 30  1  0
  3 31  1  0
 31 32  1  0
 31 33  1  0
 33 34  2  0
 34 35  1  0
 34 36  1  0
 36 37  2  0
 37 38  1  0
 37 39  1  0
 39 40  1  0
 39 41  2  0
 41 42  1  0
 28 15  1  0
 41 33  1  0
M  END
>  <plip>  (1) 
-0.06896551724137931

>  <filename>  (1) 
[H][O][C@@]([H])([O][C]([H])([H])[C]([H])([H])[C]([H])([H])[N]1[C]([H])([H])[C]([H])([H])[C]([H])([H])[C]([H])([H])[C]1([H])[H])[N]([H])[c]1[c]([H])[n][c]([H])[c]([H])[c]1[H]

$$$$
