
     RDKit          3D

 27 28  0  0  0  0  0  0  0  0999 V2000
    4.9496    1.8199   16.9924 H   0  0  0  0  0  0  0  0  0  0  0  0
    5.4036    1.2874   17.8267 C   0  0  0  0  0  0  0  0  0  0  0  0
    6.5612    0.6587   17.5800 N   0  0  0  0  0  0  0  0  0  0  0  0
    7.1647    0.0211   18.5958 C   0  0  0  0  0  0  0  0  0  0  0  0
    8.1167   -0.4502   18.3519 H   0  0  0  0  0  0  0  0  0  0  0  0
    6.6398   -0.0497   19.9034 C   0  0  0  0  0  0  0  0  0  0  0  0
    7.2705   -0.7362   20.9686 N   0  0  0  0  0  0  0  0  0  0  0  0
    6.6437   -0.8636   21.7612 H   0  0  0  0  0  0  0  0  0  0  0  0
    8.5874   -0.4889   21.3864 N   0  0  0  0  0  0  0  0  0  0  0  0
    9.5419   -1.4408   20.7957 C   0  0  0  0  0  0  0  0  0  0  0  0
    9.1899   -2.4594   20.9940 H   0  0  0  0  0  0  0  0  0  0  0  0
    9.5635   -1.2939   19.7084 H   0  0  0  0  0  0  0  0  0  0  0  0
   10.9387   -1.2570   21.4128 C   0  0  0  0  0  0  0  0  0  0  0  0
   10.8717   -1.5397   22.4672 H   0  0  0  0  0  0  0  0  0  0  0  0
   11.6631   -1.9410   20.9511 H   0  0  0  0  0  0  0  0  0  0  0  0
   11.4722    0.1066   21.3591 N   0  0  0  0  0  0  0  0  0  0  0  0
   11.8369    0.3374   20.4420 H   0  0  0  0  0  0  0  0  0  0  0  0
   10.4769    1.0774   21.8181 C   0  0  0  0  0  0  0  0  0  0  0  0
   10.4090    0.9874   22.9059 H   0  0  0  0  0  0  0  0  0  0  0  0
   10.8468    2.0901   21.6052 H   0  0  0  0  0  0  0  0  0  0  0  0
    9.0714    0.9028   21.2213 C   0  0  0  0  0  0  0  0  0  0  0  0
    9.1034    1.1553   20.1543 H   0  0  0  0  0  0  0  0  0  0  0  0
    8.3744    1.5868   21.7182 H   0  0  0  0  0  0  0  0  0  0  0  0
    5.4128    0.5966   20.1334 C   0  0  0  0  0  0  0  0  0  0  0  0
    4.9904    0.5919   21.1371 H   0  0  0  0  0  0  0  0  0  0  0  0
    4.7897    1.2841   19.0861 C   0  0  0  0  0  0  0  0  0  0  0  0
    3.8636    1.8364   19.2352 H   0  0  0  0  0  0  0  0  0  0  0  0
  1  2  1  0
  2  3  2  0
  3  4  1  0
  4  5  1  0
  4  6  2  0
  6  7  1  0
  7  8  1  0
  7  9  1  0
  9 10  1  0
 10 11  1  0
 10 12  1  0
 10 13  1  0
 13 14  1  0
 13 15  1  0
 13 16  1  0
 16 17  1  0
 16 18  1  0
 18 19  1  0
 18 20  1  0
 18 21  1  0
 21 22  1  0
 21 23  1  0
  6 24  1  0
 24 25  1  0
 24 26  2  0
 26 27  1  0
 26  2  1  0
 21  9  1  0
M  END
>  <plip>  (1) 
-0.06896551724137931

>  <filename>  (1) 
[H][c]1[n][c]([H])[c]([N]([H])[N]2[C]([H])([H])[C]([H])([H])[N]([H])[C]([H])([H])[C]2([H])[H])[c]([H])[c]1[H]

$$$$
