
     RDKit          3D

 45 47  0  0  0  0  0  0  0  0999 V2000
    7.4315    0.5976   22.9199 C   0  0  0  0  0  0  0  0  0  0  0  0
    7.1018   -0.7322   22.2336 C   0  0  0  0  0  0  0  0  0  0  0  0
    7.4127   -0.6944   20.8372 O   0  0  0  0  0  0  0  0  0  0  0  0
    6.6569    0.0016   19.9438 C   0  0  0  0  0  0  0  0  0  0  0  0
    5.4387    0.6471   20.1916 C   0  0  0  0  0  0  0  0  0  0  0  0
    4.8124    1.3006   19.1173 C   0  0  0  0  0  0  0  0  0  0  0  0
    5.4035    1.2851   17.8546 C   0  0  0  0  0  0  0  0  0  0  0  0
    6.5706    0.6635   17.6038 N   0  0  0  0  0  0  0  0  0  0  0  0
    7.1722    0.0482   18.6243 C   0  0  0  0  0  0  0  0  0  0  0  0
    8.1207   -0.4433   18.4131 H   0  0  0  0  0  0  0  0  0  0  0  0
    4.9402    1.7843   17.0078 H   0  0  0  0  0  0  0  0  0  0  0  0
    3.8779    1.8320   19.2564 H   0  0  0  0  0  0  0  0  0  0  0  0
    4.9888    0.6499   21.1818 H   0  0  0  0  0  0  0  0  0  0  0  0
    7.9367   -1.9007   22.8379 C   0  0  0  0  0  0  0  0  0  0  0  0
    9.1137   -2.0578   22.5571 O   0  0  0  0  0  0  0  0  0  0  0  0
    7.3123   -2.7537   23.7416 N   0  0  0  0  0  0  0  0  0  0  0  0
    7.7351   -4.1705   23.7647 C   0  0  0  0  0  0  0  0  0  0  0  0
    7.8156   -4.7248   25.1960 C   0  0  0  0  0  0  0  0  0  0  0  0
    6.5554   -4.4650   25.8682 N   0  0  0  0  0  0  0  0  0  0  0  0
    5.9475   -5.4316   26.7005 C   0  0  0  0  0  0  0  0  0  0  0  0
    4.5763   -5.6613   26.5284 C   0  0  0  0  0  0  0  0  0  0  0  0
    3.8893   -6.6445   27.2439 C   0  0  0  0  0  0  0  0  0  0  0  0
    4.5770   -7.4205   28.1805 C   0  0  0  0  0  0  0  0  0  0  0  0
    5.9406   -7.2021   28.3885 C   0  0  0  0  0  0  0  0  0  0  0  0
    6.6303   -6.2193   27.6654 C   0  0  0  0  0  0  0  0  0  0  0  0
    7.9612   -6.0084   27.8859 O   0  0  0  0  0  0  0  0  0  0  0  0
    8.2603   -6.6556   28.5334 H   0  0  0  0  0  0  0  0  0  0  0  0
    6.4909   -7.8057   29.1097 H   0  0  0  0  0  0  0  0  0  0  0  0
    4.0510   -8.1892   28.7427 H   0  0  0  0  0  0  0  0  0  0  0  0
    2.8307   -6.7912   27.0633 H   0  0  0  0  0  0  0  0  0  0  0  0
    4.0863   -5.0456   25.7804 H   0  0  0  0  0  0  0  0  0  0  0  0
    6.2064   -3.0572   25.9507 C   0  0  0  0  0  0  0  0  0  0  0  0
    6.1026   -2.4597   24.5301 C   0  0  0  0  0  0  0  0  0  0  0  0
    5.2138   -2.8915   24.0405 H   0  0  0  0  0  0  0  0  0  0  0  0
    5.9667   -1.3767   24.6150 H   0  0  0  0  0  0  0  0  0  0  0  0
    5.2447   -2.9568   26.4693 H   0  0  0  0  0  0  0  0  0  0  0  0
    6.9618   -2.4981   26.5357 H   0  0  0  0  0  0  0  0  0  0  0  0
    8.6671   -4.2751   25.7365 H   0  0  0  0  0  0  0  0  0  0  0  0
    7.9712   -5.8102   25.1566 H   0  0  0  0  0  0  0  0  0  0  0  0
    8.7111   -4.2373   23.2739 H   0  0  0  0  0  0  0  0  0  0  0  0
    7.0059   -4.7732   23.1961 H   0  0  0  0  0  0  0  0  0  0  0  0
    6.0430   -0.9905   22.3321 H   0  0  0  0  0  0  0  0  0  0  0  0
    6.8340    1.4211   22.5147 H   0  0  0  0  0  0  0  0  0  0  0  0
    8.4879    0.8331   22.7571 H   0  0  0  0  0  0  0  0  0  0  0  0
    7.2440    0.5446   23.9984 H   0  0  0  0  0  0  0  0  0  0  0  0
  1  2  1  0
  2  3  1  0
  3  4  1  0
  4  5  2  0
  5  6  1  0
  6  7  2  0
  7  8  1  0
  8  9  2  0
  9 10  1  0
  7 11  1  0
  6 12  1  0
  5 13  1  0
  2 14  1  0
 14 15  2  0
 14 16  1  0
 16 17  1  0
 17 18  1  0
 18 19  1  0
 19 20  1  0
 20 21  2  0
 21 22  1  0
 22 23  2  0
 23 24  1  0
 24 25  2  0
 25 26  1  0
 26 27  1  0
 24 28  1  0
 23 29  1  0
 22 30  1  0
 21 31  1  0
 19 32  1  0
 32 33  1  0
 33 34  1  0
 33 35  1  0
 32 36  1  0
 32 37  1  0
 18 38  1  0
 18 39  1  0
 17 40  1  0
 17 41  1  0
  2 42  1  0
  1 43  1  0
  1 44  1  0
  1 45  1  0
  9  4  1  0
 33 16  1  0
 25 20  1  0
M  END
>  <plip>  (1) 
-0.034482758620689655

>  <filename>  (1) 
[H][O][c]1[c]([H])[c]([H])[c]([H])[c]([H])[c]1[N]1[C]([H])([H])[C]([H])([H])[N]([C](=[O])[C]([H])([O][c]2[c]([H])[n][c]([H])[c]([H])[c]2[H])[C]([H])([H])[H])[C]([H])([H])[C]1([H])[H]

$$$$
