
     RDKit          3D

 33 34  0  0  0  0  0  0  0  0999 V2000
    7.7786    2.9738   25.9049 C   0  0  0  0  0  0  0  0  0  0  0  0
    8.1116    2.3554   24.5362 C   0  0  0  0  0  0  0  0  0  0  0  0
    6.9374    1.4966   24.0120 C   0  0  0  0  0  0  0  0  0  0  0  0
    7.1252    0.9709   22.6664 N   0  0  0  0  0  0  0  0  0  0  0  0
    7.4008   -0.2996   22.3368 C   0  0  0  0  0  0  0  0  0  0  0  0
    7.7580   -1.5485   23.3763 S   0  0  0  0  0  0  0  0  0  0  0  0
    7.4523   -0.5352   20.9781 N   0  0  0  0  0  0  0  0  0  0  0  0
    6.6891    0.0585   19.9213 C   0  0  0  0  0  0  0  0  0  0  0  0
    5.4438    0.6653   20.1503 C   0  0  0  0  0  0  0  0  0  0  0  0
    4.7976    1.3090   19.0858 C   0  0  0  0  0  0  0  0  0  0  0  0
    5.3919    1.2968   17.8204 C   0  0  0  0  0  0  0  0  0  0  0  0
    6.5527    0.6686   17.5695 N   0  0  0  0  0  0  0  0  0  0  0  0
    7.1726    0.0649   18.5909 C   0  0  0  0  0  0  0  0  0  0  0  0
    8.1159   -0.4260   18.3605 H   0  0  0  0  0  0  0  0  0  0  0  0
    4.9214    1.7987   16.9769 H   0  0  0  0  0  0  0  0  0  0  0  0
    3.8664    1.8441   19.2381 H   0  0  0  0  0  0  0  0  0  0  0  0
    5.0054    0.6274   21.1460 H   0  0  0  0  0  0  0  0  0  0  0  0
    7.8135   -1.4698   20.8518 H   0  0  0  0  0  0  0  0  0  0  0  0
    7.2599    1.6046   21.8928 H   0  0  0  0  0  0  0  0  0  0  0  0
    6.0301    2.1127   24.0079 H   0  0  0  0  0  0  0  0  0  0  0  0
    6.7740    0.6425   24.6815 H   0  0  0  0  0  0  0  0  0  0  0  0
    9.3483    1.5712   24.6043 N   0  0  0  0  0  0  0  0  0  0  0  0
    9.6213    0.5558   25.4607 C   0  0  0  0  0  0  0  0  0  0  0  0
   10.8651    0.0739   25.1276 C   0  0  0  0  0  0  0  0  0  0  0  0
   11.2652    0.8717   24.0314 C   0  0  0  0  0  0  0  0  0  0  0  0
   10.3453    1.7725   23.7322 N   0  0  0  0  0  0  0  0  0  0  0  0
   12.1805    0.8309   23.4495 H   0  0  0  0  0  0  0  0  0  0  0  0
   11.4181   -0.7286   25.5918 H   0  0  0  0  0  0  0  0  0  0  0  0
    8.9026    0.2563   26.2165 H   0  0  0  0  0  0  0  0  0  0  0  0
    8.3223    3.1490   23.8089 H   0  0  0  0  0  0  0  0  0  0  0  0
    7.5516    2.2003   26.6498 H   0  0  0  0  0  0  0  0  0  0  0  0
    6.9072    3.6330   25.8326 H   0  0  0  0  0  0  0  0  0  0  0  0
    8.6219    3.5611   26.2776 H   0  0  0  0  0  0  0  0  0  0  0  0
  1  2  1  0
  2  3  1  0
  3  4  1  0
  4  5  1  0
  5  6  2  0
  5  7  1  0
  7  8  1  0
  8  9  2  0
  9 10  1  0
 10 11  2  0
 11 12  1  0
 12 13  2  0
 13 14  1  0
 11 15  1  0
 10 16  1  0
  9 17  1  0
  7 18  1  0
  4 19  1  0
  3 20  1  0
  3 21  1  0
  2 22  1  0
 22 23  1  0
 23 24  2  0
 24 25  1  0
 25 26  2  0
 25 27  1  0
 24 28  1  0
 23 29  1  0
  2 30  1  0
  1 31  1  0
  1 32  1  0
  1 33  1  0
 13  8  1  0
 26 22  1  0
M  END
>  <plip>  (1) 
-0.034482758620689655

>  <filename>  (1) 
[H][c]1[n][c]([H])[c]([N]([H])[C](=[S])[N]([H])[C]([H])([H])[C]([H])([n]2[n][c]([H])[c]([H])[c]2[H])[C]([H])([H])[H])[c]([H])[c]1[H]

$$$$
