
     RDKit          3D

 34 35  0  0  0  0  0  0  0  0999 V2000
   10.4932   -0.0499   25.7158 H   0  0  0  0  0  0  0  0  0  0  0  0
   11.1555   -0.2624   25.0415 O   0  0  0  0  0  0  0  0  0  0  0  0
   10.6979    0.2481   23.7960 C   0  0  2  0  0  0  0  0  0  0  0  0
   10.7154    1.3534   23.8261 H   0  0  0  0  0  0  0  0  0  0  0  0
    9.2594   -0.1579   23.4513 C   0  0  0  0  0  0  0  0  0  0  0  0
    8.8998    0.4755   22.6275 H   0  0  0  0  0  0  0  0  0  0  0  0
    8.6106    0.0308   24.3146 H   0  0  0  0  0  0  0  0  0  0  0  0
    9.1043   -1.5810   23.0712 N   0  0  0  0  0  0  0  0  0  0  0  0
    7.7303   -1.8406   22.8263 N   0  0  0  0  0  0  0  0  0  0  0  0
    7.4381   -2.7892   22.9958 H   0  0  0  0  0  0  0  0  0  0  0  0
    7.0262   -1.4531   21.7076 C   0  0  0  0  0  0  0  0  0  0  0  0
    7.3926   -0.5799   20.8718 N   0  0  0  0  0  0  0  0  0  0  0  0
    6.6069   -0.0226   19.8440 C   0  0  0  0  0  0  0  0  0  0  0  0
    7.1088    0.0421   18.5131 C   0  0  0  0  0  0  0  0  0  0  0  0
    8.0544   -0.4465   18.2808 H   0  0  0  0  0  0  0  0  0  0  0  0
    6.5001    0.6678   17.4991 N   0  0  0  0  0  0  0  0  0  0  0  0
    5.3477    1.3112   17.7671 C   0  0  0  0  0  0  0  0  0  0  0  0
    4.8885    1.8380   16.9332 H   0  0  0  0  0  0  0  0  0  0  0  0
    4.7614    1.3261   19.0358 C   0  0  0  0  0  0  0  0  0  0  0  0
    3.8320    1.8648   19.1964 H   0  0  0  0  0  0  0  0  0  0  0  0
    5.4006    0.6540   20.0887 C   0  0  0  0  0  0  0  0  0  0  0  0
    5.0005    0.6793   21.1029 H   0  0  0  0  0  0  0  0  0  0  0  0
    5.8741   -2.2301   21.6833 N   0  0  0  0  0  0  0  0  0  0  0  0
    5.2883   -1.8554   20.9588 H   0  0  0  0  0  0  0  0  0  0  0  0
    5.4650   -2.0640   22.5938 H   0  0  0  0  0  0  0  0  0  0  0  0
    9.9566   -1.9255   21.9086 C   0  0  0  0  0  0  0  0  0  0  0  0
    9.7934   -2.9836   21.6837 H   0  0  0  0  0  0  0  0  0  0  0  0
    9.6327   -1.3506   21.0314 H   0  0  0  0  0  0  0  0  0  0  0  0
   11.4227   -1.6712   22.2312 C   0  0  0  0  0  0  0  0  0  0  0  0
   12.0217   -1.8794   21.3359 H   0  0  0  0  0  0  0  0  0  0  0  0
   11.7155   -2.3967   22.9941 H   0  0  0  0  0  0  0  0  0  0  0  0
   11.6688   -0.2224   22.7013 C   0  0  0  0  0  0  0  0  0  0  0  0
   11.5691    0.4604   21.8447 H   0  0  0  0  0  0  0  0  0  0  0  0
   12.6904   -0.1134   23.0758 H   0  0  0  0  0  0  0  0  0  0  0  0
  1  2  1  0
  2  3  1  0
  3  4  1  1
  3  5  1  0
  5  6  1  0
  5  7  1  0
  5  8  1  0
  8  9  1  0
  9 10  1  0
  9 11  1  0
 11 12  2  3
 12 13  1  0
 13 14  2  0
 14 15  1  0
 14 16  1  0
 16 17  2  0
 17 18  1  0
 17 19  1  0
 19 20  1  0
 19 21  2  0
 21 22  1  0
 11 23  1  0
 23 24  1  0
 23 25  1  0
  8 26  1  0
 26 27  1  0
 26 28  1  0
 26 29  1  0
 29 30  1  0
 29 31  1  0
 29 32  1  0
 32 33  1  0
 32 34  1  0
 32  3  1  0
 21 13  1  0
M  END
>  <plip>  (1) 
-0.14285714285714285

>  <filename>  (1) 
[H][O][C@]1([H])[C]([H])([H])[N]([N]([H])[C](=[N][c]2[c]([H])[n][c]([H])[c]([H])[c]2[H])[N]([H])[H])[C]([H])([H])[C]([H])([H])[C]1([H])[H]

$$$$
