
     RDKit          3D

 38 40  0  0  0  0  0  0  0  0999 V2000
    4.9436    1.9545   16.6826 H   0  0  0  0  0  0  0  0  0  0  0  0
    5.4201    1.4183   17.5011 C   0  0  0  0  0  0  0  0  0  0  0  0
    6.5628    0.7818   17.2068 N   0  0  0  0  0  0  0  0  0  0  0  0
    7.1773    0.1331   18.2045 C   0  0  0  0  0  0  0  0  0  0  0  0
    8.1071   -0.3698   17.9378 H   0  0  0  0  0  0  0  0  0  0  0  0
    6.7082    0.0683   19.5272 C   0  0  0  0  0  0  0  0  0  0  0  0
    7.4825   -0.6592   20.6131 C   0  0  0  0  0  0  0  0  0  0  0  0
    8.4078   -1.0668   20.1708 H   0  0  0  0  0  0  0  0  0  0  0  0
    7.8987    0.3134   21.7446 C   0  0  0  0  0  0  0  0  0  0  0  0
    8.5896    1.0678   21.3539 H   0  0  0  0  0  0  0  0  0  0  0  0
    7.0188    0.8534   22.1139 H   0  0  0  0  0  0  0  0  0  0  0  0
    8.5452   -0.4206   22.9285 C   0  0  0  0  0  0  0  0  0  0  0  0
    9.5139   -0.8411   22.6214 H   0  0  0  0  0  0  0  0  0  0  0  0
    8.7356    0.2634   23.7618 H   0  0  0  0  0  0  0  0  0  0  0  0
    7.7364   -1.5375   23.4326 N   0  0  0  0  0  0  0  0  0  0  0  0
    6.6599   -1.1189   24.2729 N   0  0  0  0  0  0  0  0  0  0  0  0
    5.7560   -1.0082   23.8010 H   0  0  0  0  0  0  0  0  0  0  0  0
    6.5894   -1.6709   25.5010 C   0  0  0  0  0  0  0  0  0  0  0  0
    5.5390   -1.0262   26.3627 C   0  0  0  0  0  0  0  0  0  0  0  0
    4.9652   -0.2243   25.9255 H   0  0  0  0  0  0  0  0  0  0  0  0
    5.0998   -1.5606   27.6777 C   0  0  0  0  0  0  0  0  0  0  0  0
    3.9337   -1.2833   28.1161 H   0  0  0  0  0  0  0  0  0  0  0  0
    5.0130   -1.4691   27.5457 C   0  0  0  0  0  0  0  0  0  0  0  0
    6.4156   -2.5640   27.8908 H   0  0  0  0  0  0  0  0  0  0  0  0
    7.3068   -3.0624   27.2770 C   0  0  0  0  0  0  0  0  0  0  0  0
    8.0309   -3.7722   27.6794 H   0  0  0  0  0  0  0  0  0  0  0  0
    7.4582   -2.6659   25.9893 C   0  0  0  0  0  0  0  0  0  0  0  0
    8.2236   -3.0319   25.3081 H   0  0  0  0  0  0  0  0  0  0  0  0
    7.3636   -2.4976   22.3876 C   0  0  0  0  0  0  0  0  0  0  0  0
    6.7327   -3.2796   22.8310 H   0  0  0  0  0  0  0  0  0  0  0  0
    8.2933   -2.9862   22.0649 H   0  0  0  0  0  0  0  0  0  0  0  0
    6.6718   -1.8508   21.1775 C   0  0  0  0  0  0  0  0  0  0  0  0
    6.5177   -2.6032   20.3977 H   0  0  0  0  0  0  0  0  0  0  0  0
    5.6769   -1.5062   21.4833 H   0  0  0  0  0  0  0  0  0  0  0  0
    5.4970    0.7240   19.8006 C   0  0  0  0  0  0  0  0  0  0  0  0
    5.0697    0.7093   20.8070 H   0  0  0  0  0  0  0  0  0  0  0  0
    4.8455    1.4107   18.7758 C   0  0  0  0  0  0  0  0  0  0  0  0
    3.9221    1.9494   18.9563 H   0  0  0  0  0  0  0  0  0  0  0  0
  1  2  1  0
  2  3  2  0
  3  4  1  0
  4  5  1  0
  4  6  2  0
  6  7  1  0
  7  8  1  0
  7  9  1  0
  9 10  1  0
  9 11  1  0
  9 12  1  0
 12 13  1  0
 12 14  1  0
 12 15  1  0
 15 16  1  0
 16 17  1  0
 16 18  1  0
 18 19  2  0
 19 20  1  0
 19 21  1  0
 21 22  1  0
 21 23  2  0
 23 24  1  0
 23 25  1  0
 25 26  1  0
 25 27  2  0
 27 28  1  0
 15 29  1  0
 29 30  1  0
 29 31  1  0
 29 32  1  0
 32 33  1  0
 32 34  1  0
  6 35  1  0
 35 36  1  0
 35 37  2  0
 37 38  1  0
 37  2  1  0
 32  7  1  0
 27 18  1  0
M  END
>  <plip>  (1) 
-0.10714285714285714

>  <filename>  (1) 
[H][c]1[n][c]([H])[c]([C]2([H])[C]([H])([H])[C]([H])([H])[N]([N]([H])[c]3[c]([H])[c]([H])[c]([H])[c]([H])[c]3[H])[C]([H])([H])[C]2([H])[H])[c]([H])[c]1[H]

$$$$
