
     RDKit          3D

 30 32  0  0  0  0  0  0  0  0999 V2000
    4.8503    1.6480   16.9883 H   0  0  0  0  0  0  0  0  0  0  0  0
    5.3680    1.2632   17.8649 C   0  0  0  0  0  0  0  0  0  0  0  0
    6.5092    0.6022   17.6241 N   0  0  0  0  0  0  0  0  0  0  0  0
    7.1705    0.1117   18.6756 C   0  0  0  0  0  0  0  0  0  0  0  0
    8.1094   -0.3853   18.4324 H   0  0  0  0  0  0  0  0  0  0  0  0
    6.7435    0.2265   20.0205 C   0  0  0  0  0  0  0  0  0  0  0  0
    7.5071   -0.4556   21.0833 C   0  0  0  0  0  0  0  0  0  0  0  0
    8.4118   -1.4903   20.9994 C   0  0  0  0  0  0  0  0  0  0  0  0
    8.7691   -1.9206   20.0759 H   0  0  0  0  0  0  0  0  0  0  0  0
    8.8367   -1.8317   22.3039 C   0  0  0  0  0  0  0  0  0  0  0  0
    9.5322   -2.6210   22.5566 H   0  0  0  0  0  0  0  0  0  0  0  0
    8.2324   -0.9719   23.1859 C   0  0  0  0  0  0  0  0  0  0  0  0
    8.3562   -0.8317   24.2561 H   0  0  0  0  0  0  0  0  0  0  0  0
    7.3769   -0.1706   22.4446 N   0  0  0  0  0  0  0  0  0  0  0  0
    6.8695    1.0256   22.8593 O   0  0  0  0  0  0  0  0  0  0  0  0
    6.4732    1.1427   24.2004 C   0  0  0  0  0  0  0  0  0  0  0  0
    6.5772    2.4436   24.6741 C   0  0  0  0  0  0  0  0  0  0  0  0
    6.9728    3.2186   24.0282 H   0  0  0  0  0  0  0  0  0  0  0  0
    6.2238    2.7201   26.0005 C   0  0  0  0  0  0  0  0  0  0  0  0
    6.3408    3.7322   26.3807 H   0  0  0  0  0  0  0  0  0  0  0  0
    5.7255    1.7032   26.8286 C   0  0  0  0  0  0  0  0  0  0  0  0
    5.4488    1.9185   27.8580 H   0  0  0  0  0  0  0  0  0  0  0  0
    5.5797    0.4083   26.3135 C   0  0  0  0  0  0  0  0  0  0  0  0
    5.1934   -0.3947   26.9366 H   0  0  0  0  0  0  0  0  0  0  0  0
    5.9422    0.1227   24.9860 C   0  0  0  0  0  0  0  0  0  0  0  0
    5.8436   -0.8719   24.5663 H   0  0  0  0  0  0  0  0  0  0  0  0
    5.5643    0.9680   20.2521 C   0  0  0  0  0  0  0  0  0  0  0  0
    5.2273    1.1578   21.2710 H   0  0  0  0  0  0  0  0  0  0  0  0
    4.8630    1.4677   19.1528 C   0  0  0  0  0  0  0  0  0  0  0  0
    3.9469    2.0309   19.2799 H   0  0  0  0  0  0  0  0  0  0  0  0
  1  2  1  0
  2  3  2  0
  3  4  1  0
  4  5  1  0
  4  6  2  0
  6  7  1  0
  7  8  2  0
  8  9  1  0
  8 10  1  0
 10 11  1  0
 10 12  2  0
 12 13  1  0
 12 14  1  0
 14 15  1  0
 15 16  1  0
 16 17  2  0
 17 18  1  0
 17 19  1  0
 19 20  1  0
 19 21  2  0
 21 22  1  0
 21 23  1  0
 23 24  1  0
 23 25  2  0
 25 26  1  0
  6 27  1  0
 27 28  1  0
 27 29  2  0
 29 30  1  0
 29  2  1  0
 14  7  1  0
 25 16  1  0
M  END
>  <plip>  (1) 
-0.07142857142857142

>  <filename>  (1) 
[H][c]1[n][c]([H])[c](-[c]2[c]([H])[c]([H])[c]([H])[n]2[O][c]2[c]([H])[c]([H])[c]([H])[c]([H])[c]2[H])[c]([H])[c]1[H]

$$$$
