
     RDKit          3D

 51 54  0  0  0  0  0  0  0  0999 V2000
    6.4485   -2.9966   20.7569 C   0  0  0  0  0  0  0  0  0  0  0  0
    6.6370   -1.8034   21.6115 N   0  0  0  0  0  4  0  0  0  0  0  0
    7.2038   -2.0879   22.9733 C   0  0  0  0  0  0  0  0  0  0  0  0
    7.9817   -0.8167   23.3688 C   0  0  0  0  0  0  0  0  0  0  0  0
    7.8295    0.1677   22.1887 C   0  0  1  0  0  0  0  0  0  0  0  0
    9.0421    1.0645   21.9245 C   0  0  0  0  0  0  0  0  0  0  0  0
    9.3225    1.9497   23.0429 N   0  0  0  0  0  0  0  0  0  0  0  0
    8.6399    3.1036   23.2552 C   0  0  0  0  0  0  0  0  0  0  0  0
    7.6371    3.4044   22.6245 O   0  0  0  0  0  0  0  0  0  0  0  0
    9.2624    3.9993   24.3222 C   0  0  1  0  0  0  0  0  0  0  0  0
    9.1717    3.4549   25.5899 F   0  0  0  0  0  0  0  0  0  0  0  0
   10.4927    4.8021   24.0673 C   0  0  0  0  0  0  0  0  0  0  0  0
    9.1501    5.4858   24.1916 C   0  0  2  0  0  0  0  0  0  0  0  0
    8.8057    6.3370   25.3706 C   0  0  0  0  0  0  0  0  0  0  0  0
    7.4830    6.3614   25.8317 C   0  0  0  0  0  0  0  0  0  0  0  0
    7.1189    7.1780   26.9090 C   0  0  0  0  0  0  0  0  0  0  0  0
    8.0825    7.9879   27.5235 C   0  0  0  0  0  0  0  0  0  0  0  0
    9.4044    7.9796   27.0610 C   0  0  0  0  0  0  0  0  0  0  0  0
    9.7590    7.1570   25.9876 C   0  0  0  0  0  0  0  0  0  0  0  0
   10.7791    7.1480   25.6098 H   0  0  0  0  0  0  0  0  0  0  0  0
   10.1557    8.6074   27.5361 H   0  0  0  0  0  0  0  0  0  0  0  0
    7.7989    8.6285   28.3560 H   0  0  0  0  0  0  0  0  0  0  0  0
    6.0869    7.1853   27.2571 H   0  0  0  0  0  0  0  0  0  0  0  0
    6.7554    5.7248   25.3308 H   0  0  0  0  0  0  0  0  0  0  0  0
    8.6883    5.8154   23.2566 H   0  0  0  0  0  0  0  0  0  0  0  0
   10.9517    4.7976   23.0826 H   0  0  0  0  0  0  0  0  0  0  0  0
   11.1798    4.8778   24.9088 H   0  0  0  0  0  0  0  0  0  0  0  0
   10.0934    1.7652   23.6559 H   0  0  0  0  0  0  0  0  0  0  0  0
    9.9340    0.4515   21.7354 H   0  0  0  0  0  0  0  0  0  0  0  0
    8.8678    1.6721   21.0273 H   0  0  0  0  0  0  0  0  0  0  0  0
    7.4826   -0.7113   20.9849 C   0  0  2  0  0  0  0  0  0  0  0  0
    6.7141   -0.0197   19.8912 C   0  0  0  0  0  0  0  0  0  0  0  0
    5.4907    0.6331   20.1237 C   0  0  0  0  0  0  0  0  0  0  0  0
    4.8671    1.2902   19.0650 C   0  0  0  0  0  0  0  0  0  0  0  0
    5.4776    1.2632   17.8052 C   0  0  0  0  0  0  0  0  0  0  0  0
    6.6209    0.6113   17.5546 N   0  0  0  0  0  0  0  0  0  0  0  0
    7.2107   -0.0143   18.5811 C   0  0  0  0  0  0  0  0  0  0  0  0
    8.1317   -0.5518   18.3457 H   0  0  0  0  0  0  0  0  0  0  0  0
    5.0174    1.7722   16.9590 H   0  0  0  0  0  0  0  0  0  0  0  0
    3.9327    1.8255   19.1988 H   0  0  0  0  0  0  0  0  0  0  0  0
    5.0428    0.6474   21.1234 H   0  0  0  0  0  0  0  0  0  0  0  0
    8.3971   -1.1631   20.5742 H   0  0  0  0  0  0  0  0  0  0  0  0
    6.9780    0.8352   22.3915 H   0  0  0  0  0  0  0  0  0  0  0  0
    7.5847   -0.3800   24.2923 H   0  0  0  0  0  0  0  0  0  0  0  0
    9.0375   -1.0608   23.5525 H   0  0  0  0  0  0  0  0  0  0  0  0
    6.4007   -2.3304   23.6778 H   0  0  0  0  0  0  0  0  0  0  0  0
    7.8633   -2.9589   22.9008 H   0  0  0  0  0  0  0  0  0  0  0  0
    5.7232   -1.3130   21.7511 H   0  0  0  0  0  0  0  0  0  0  0  0
    7.4066   -3.5259   20.6393 H   0  0  0  0  0  0  0  0  0  0  0  0
    6.1061   -2.7025   19.7594 H   0  0  0  0  0  0  0  0  0  0  0  0
    5.7287   -3.6980   21.1922 H   0  0  0  0  0  0  0  0  0  0  0  0
  1  2  1  0
  2  3  1  0
  3  4  1  0
  4  5  1  0
  5  6  1  0
  6  7  1  0
  7  8  1  0
  8  9  2  0
  8 10  1  0
 10 11  1  1
 10 12  1  0
 12 13  1  0
 13 14  1  0
 14 15  2  0
 15 16  1  0
 16 17  2  0
 17 18  1  0
 18 19  2  0
 19 20  1  0
 18 21  1  0
 17 22  1  0
 16 23  1  0
 15 24  1  0
 13 25  1  6
 12 26  1  0
 12 27  1  0
  7 28  1  0
  6 29  1  0
  6 30  1  0
  5 31  1  0
 31 32  1  0
 32 33  2  0
 33 34  1  0
 34 35  2  0
 35 36  1  0
 36 37  2  0
 37 38  1  0
 35 39  1  0
 34 40  1  0
 33 41  1  0
 31 42  1  6
  5 43  1  1
  4 44  1  0
  4 45  1  0
  3 46  1  0
  3 47  1  0
  2 48  1  0
  1 49  1  0
  1 50  1  0
  1 51  1  0
 31  2  1  0
 37 32  1  0
 13 10  1  0
 19 14  1  0
M  CHG  1   2   1
M  END
>  <plip>  (1) 
-0.10714285714285714

>  <filename>  (1) 
[H][c]1[n][c]([H])[c]([C@@]2([H])[C@]([H])([C]([H])([H])[N]([H])[C](=[O])[C@@]3([F])[C]([H])([H])[C@]3([H])[c]3[c]([H])[c]([H])[c]([H])[c]([H])[c]3[H])[C]([H])([H])[C]([H])([H])[N+]2([H])[C]([H])([H])[H])[c]([H])[c]1[H]

$$$$
