
     RDKit          3D

 35 37  0  0  0  0  0  0  0  0999 V2000
    6.7029   -1.5167   21.8429 C   0  0  0  0  0  0  0  0  0  0  0  0
    7.3528   -0.7537   20.9525 C   0  0  0  0  0  0  0  0  0  0  0  0
    6.6445   -0.0074   19.8634 C   0  0  0  0  0  0  0  0  0  0  0  0
    5.4233    0.6601   20.0984 C   0  0  0  0  0  0  0  0  0  0  0  0
    4.7918    1.3369   19.0532 C   0  0  0  0  0  0  0  0  0  0  0  0
    5.3928    1.3293   17.7912 C   0  0  0  0  0  0  0  0  0  0  0  0
    6.5494    0.7007   17.5312 N   0  0  0  0  0  0  0  0  0  0  0  0
    7.1517    0.0729   18.5498 C   0  0  0  0  0  0  0  0  0  0  0  0
    8.0965   -0.4093   18.2972 H   0  0  0  0  0  0  0  0  0  0  0  0
    4.9226    1.8443   16.9557 H   0  0  0  0  0  0  0  0  0  0  0  0
    3.8571    1.8699   19.2002 H   0  0  0  0  0  0  0  0  0  0  0  0
    4.9949    0.6769   21.1024 H   0  0  0  0  0  0  0  0  0  0  0  0
    8.8584   -0.6209   21.0317 C   0  0  0  0  0  0  0  0  0  0  0  0
    9.3881   -0.9637   22.4638 N   0  0  0  0  0  4  0  0  0  0  0  0
   10.8818   -0.7601   22.5231 C   0  0  0  0  0  0  0  0  0  0  0  0
   11.3273    0.6628   22.2980 C   0  0  0  0  0  0  0  0  0  0  0  0
   11.6760    1.1295   21.1277 N   0  0  0  0  0  0  0  0  0  0  0  0
   11.9761    2.4548   21.3163 C   0  0  0  0  0  0  0  0  0  0  0  0
   11.8174    2.7941   22.6296 C   0  0  0  0  0  0  0  0  0  0  0  0
   11.4070    1.6296   23.2553 N   0  0  0  0  0  0  0  0  0  0  0  0
   11.0341    1.5583   24.1858 H   0  0  0  0  0  0  0  0  0  0  0  0
   12.0193    3.7092   23.1700 H   0  0  0  0  0  0  0  0  0  0  0  0
   12.2929    3.0781   20.4952 H   0  0  0  0  0  0  0  0  0  0  0  0
   11.2808   -1.1257   23.4745 H   0  0  0  0  0  0  0  0  0  0  0  0
   11.3629   -1.3130   21.7079 H   0  0  0  0  0  0  0  0  0  0  0  0
    8.8652   -2.3152   22.8888 C   0  0  0  0  0  0  0  0  0  0  0  0
    7.3515   -2.1967   23.0338 C   0  0  0  0  0  0  0  0  0  0  0  0
    6.9175   -3.1906   23.1782 H   0  0  0  0  0  0  0  0  0  0  0  0
    7.1082   -1.6362   23.9478 H   0  0  0  0  0  0  0  0  0  0  0  0
    9.3294   -2.6262   23.8322 H   0  0  0  0  0  0  0  0  0  0  0  0
    9.1213   -3.0578   22.1263 H   0  0  0  0  0  0  0  0  0  0  0  0
    8.9044   -0.2716   23.0931 H   0  0  0  0  0  0  0  0  0  0  0  0
    9.1751    0.3920   20.7895 H   0  0  0  0  0  0  0  0  0  0  0  0
    9.3553   -1.3018   20.3299 H   0  0  0  0  0  0  0  0  0  0  0  0
    5.6325   -1.6732   21.7179 H   0  0  0  0  0  0  0  0  0  0  0  0
  1  2  2  0
  2  3  1  0
  3  4  2  0
  4  5  1  0
  5  6  2  0
  6  7  1  0
  7  8  2  0
  8  9  1  0
  6 10  1  0
  5 11  1  0
  4 12  1  0
  2 13  1  0
 13 14  1  0
 14 15  1  0
 15 16  1  0
 16 17  2  0
 17 18  1  0
 18 19  2  0
 19 20  1  0
 20 21  1  0
 19 22  1  0
 18 23  1  0
 15 24  1  0
 15 25  1  0
 14 26  1  0
 26 27  1  0
 27 28  1  0
 27 29  1  0
 26 30  1  0
 26 31  1  0
 14 32  1  0
 13 33  1  0
 13 34  1  0
  1 35  1  0
 27  1  1  0
  8  3  1  0
 20 16  1  0
M  CHG  1  14   1
M  END
>  <plip>  (1) 
-0.07142857142857142

>  <filename>  (1) 
[H][C]1=[C]([c]2[c]([H])[n][c]([H])[c]([H])[c]2[H])[C]([H])([H])[N+]([H])([C]([H])([H])[c]2[n][c]([H])[c]([H])[n]2[H])[C]([H])([H])[C]1([H])[H]

$$$$
