
     RDKit          3D

 26 28  0  0  0  0  0  0  0  0999 V2000
    8.5105   -3.7391   21.4425 H   0  0  0  0  0  0  0  0  0  0  0  0
    8.2618   -2.7066   21.6597 C   0  0  0  0  0  0  0  0  0  0  0  0
    8.5475   -2.2723   22.8878 N   0  0  0  0  0  0  0  0  0  0  0  0
    8.2499   -1.0020   23.1345 C   0  0  0  0  0  0  0  0  0  0  0  0
    8.4929   -0.6262   24.1253 H   0  0  0  0  0  0  0  0  0  0  0  0
    7.6671   -0.1355   22.2046 C   0  0  0  0  0  0  0  0  0  0  0  0
    7.4558    1.3059   22.5202 C   0  0  0  0  0  0  0  0  0  0  0  0
    6.8908    1.8626   24.0638 S   0  0  0  0  0  0  0  0  0  0  0  0
    6.9730    3.5057   23.5611 C   0  0  0  0  0  0  0  0  0  0  0  0
    6.6952    4.2975   24.2445 H   0  0  0  0  0  0  0  0  0  0  0  0
    7.4247    3.6315   22.2824 C   0  0  0  0  0  0  0  0  0  0  0  0
    7.5534    4.5838   21.7672 H   0  0  0  0  0  0  0  0  0  0  0  0
    7.7126    2.3665   21.6913 C   0  0  0  0  0  0  0  0  0  0  0  0
    8.0696    2.2333   20.6709 H   0  0  0  0  0  0  0  0  0  0  0  0
    7.3762   -0.7361   20.9588 C   0  0  0  0  0  0  0  0  0  0  0  0
    6.6469   -0.0156   19.9031 C   0  0  0  0  0  0  0  0  0  0  0  0
    7.1730    0.0391   18.6100 C   0  0  0  0  0  0  0  0  0  0  0  0
    8.1232   -0.4401   18.3768 H   0  0  0  0  0  0  0  0  0  0  0  0
    6.5780    0.6726   17.5946 N   0  0  0  0  0  0  0  0  0  0  0  0
    5.4095    1.2871   17.8469 C   0  0  0  0  0  0  0  0  0  0  0  0
    4.9226    1.7758   17.0036 H   0  0  0  0  0  0  0  0  0  0  0  0
    4.8068    1.3011   19.1089 C   0  0  0  0  0  0  0  0  0  0  0  0
    3.8772    1.8409   19.2587 H   0  0  0  0  0  0  0  0  0  0  0  0
    5.4304    0.6349   20.1603 C   0  0  0  0  0  0  0  0  0  0  0  0
    5.0015    0.6365   21.1671 H   0  0  0  0  0  0  0  0  0  0  0  0
    7.7140   -1.9997   20.6796 N   0  0  0  0  0  0  0  0  0  0  0  0
  1  2  1  0
  2  3  2  0
  3  4  1  0
  4  5  1  0
  4  6  2  0
  6  7  1  0
  7  8  1  0
  8  9  1  0
  9 10  1  0
  9 11  2  0
 11 12  1  0
 11 13  1  0
 13 14  1  0
  6 15  1  0
 15 16  1  0
 16 17  2  0
 17 18  1  0
 17 19  1  0
 19 20  2  0
 20 21  1  0
 20 22  1  0
 22 23  1  0
 22 24  2  0
 24 25  1  0
 15 26  2  0
 26  2  1  0
 13  7  2  0
 24 16  1  0
M  END
>  <plip>  (1) 
-0.03571428571428571

>  <filename>  (1) 
[H][c]1[n][c]([H])[c](-[c]2[s][c]([H])[c]([H])[c]2[H])[c](-[c]2[c]([H])[n][c]([H])[c]([H])[c]2[H])[n]1

$$$$
