
     RDKit          3D

 25 26  0  0  0  0  0  0  0  0999 V2000
    5.7342   -0.3111   26.9916 H   0  0  0  0  0  0  0  0  0  0  0  0
    6.4853    0.2856   26.4690 C   0  0  0  0  0  0  0  0  0  0  0  0
    6.5437    1.3329   26.7588 H   0  0  0  0  0  0  0  0  0  0  0  0
    7.2879   -0.2301   25.5381 C   0  0  0  0  0  0  0  0  0  0  0  0
    8.0464    0.3864   25.0504 H   0  0  0  0  0  0  0  0  0  0  0  0
    7.2323   -1.6791   25.1152 C   0  0  0  0  0  0  0  0  0  0  0  0
    7.4699   -2.3254   25.9612 H   0  0  0  0  0  0  0  0  0  0  0  0
    6.2148   -1.9567   24.8071 H   0  0  0  0  0  0  0  0  0  0  0  0
    8.1923   -2.0307   24.1075 O   0  0  0  0  0  0  0  0  0  0  0  0
    7.9807   -1.5621   22.8796 C   0  0  0  0  0  0  0  0  0  0  0  0
    8.9114   -1.8762   21.9830 O   0  0  0  0  0  0  0  0  0  0  0  0
    8.5421   -1.3296   20.7492 N   0  0  0  0  0  0  0  0  0  0  0  0
    7.4041   -0.7144   20.9665 C   0  0  0  0  0  0  0  0  0  0  0  0
    6.6710    0.0020   19.9034 C   0  0  0  0  0  0  0  0  0  0  0  0
    7.1816    0.0565   18.5974 C   0  0  0  0  0  0  0  0  0  0  0  0
    8.1258   -0.4276   18.3668 H   0  0  0  0  0  0  0  0  0  0  0  0
    6.5689    0.6737   17.5818 N   0  0  0  0  0  0  0  0  0  0  0  0
    5.4057    1.2884   17.8437 C   0  0  0  0  0  0  0  0  0  0  0  0
    4.9210    1.7774   17.0019 H   0  0  0  0  0  0  0  0  0  0  0  0
    4.8115    1.3052   19.1109 C   0  0  0  0  0  0  0  0  0  0  0  0
    3.8791    1.8388   19.2624 H   0  0  0  0  0  0  0  0  0  0  0  0
    5.4477    0.6475   20.1596 C   0  0  0  0  0  0  0  0  0  0  0  0
    5.0030    0.6366   21.1577 H   0  0  0  0  0  0  0  0  0  0  0  0
    6.9918   -0.8329   22.3151 C   0  0  0  0  0  0  0  0  0  0  0  0
    6.1287   -0.4267   22.8054 H   0  0  0  0  0  0  0  0  0  0  0  0
  1  2  1  0
  2  3  1  0
  2  4  2  3
  4  5  1  0
  4  6  1  0
  6  7  1  0
  6  8  1  0
  6  9  1  0
  9 10  1  0
 10 11  1  0
 11 12  1  0
 12 13  2  0
 13 14  1  0
 14 15  2  0
 15 16  1  0
 15 17  1  0
 17 18  2  0
 18 19  1  0
 18 20  1  0
 20 21  1  0
 20 22  2  0
 22 23  1  0
 13 24  1  0
 24 25  1  0
 24 10  2  0
 22 14  1  0
M  END
>  <plip>  (1) 
-0.03571428571428571

>  <filename>  (1) 
[H][C]([H])=[C]([H])[C]([H])([H])[O][c]1[o][n][c](-[c]2[c]([H])[n][c]([H])[c]([H])[c]2[H])[c]1[H]

$$$$
