
     RDKit          3D

 52 55  0  0  0  0  0  0  0  0999 V2000
    9.4470    1.0708   20.7374 O   0  0  0  0  0  0  0  0  0  0  0  0
    8.6895    1.1303   21.6879 C   0  0  0  0  0  0  0  0  0  0  0  0
    7.7527    0.1798   21.9766 N   0  0  0  0  0  0  0  0  0  0  0  0
    7.3762   -0.8240   20.9877 C   0  0  0  0  0  0  0  0  0  0  0  0
    6.6304   -0.1329   19.8563 C   0  0  0  0  0  0  0  0  0  0  0  0
    5.3823    0.4849   20.0332 C   0  0  0  0  0  0  0  0  0  0  0  0
    4.8329    1.2108   18.9739 C   0  0  0  0  0  0  0  0  0  0  0  0
    5.5387    1.2859   17.7688 C   0  0  0  0  0  0  0  0  0  0  0  0
    6.7158    0.6774   17.5657 N   0  0  0  0  0  0  0  0  0  0  0  0
    7.2421    0.0067   18.6004 C   0  0  0  0  0  0  0  0  0  0  0  0
    8.2176   -0.4497   18.4181 H   0  0  0  0  0  0  0  0  0  0  0  0
    5.1428    1.8533   16.9279 H   0  0  0  0  0  0  0  0  0  0  0  0
    3.8907    1.7366   19.0777 H   0  0  0  0  0  0  0  0  0  0  0  0
    4.8462    0.4199   20.9847 H   0  0  0  0  0  0  0  0  0  0  0  0
    6.6071   -1.9680   21.6961 C   0  0  0  0  0  0  0  0  0  0  0  0
    7.4885   -2.6511   22.7700 C   0  0  0  0  0  0  0  0  0  0  0  0
    6.8230   -3.8738   23.4191 C   0  0  0  0  0  0  0  0  0  0  0  0
    6.3502   -4.8903   22.3739 C   0  0  0  0  0  0  0  0  0  0  0  0
    5.3948   -4.2301   21.3717 C   0  0  0  0  0  0  0  0  0  0  0  0
    6.0221   -2.9959   20.7056 C   0  0  0  0  0  0  0  0  0  0  0  0
    6.8356   -3.3440   20.0674 H   0  0  0  0  0  0  0  0  0  0  0  0
    5.3053   -2.5023   20.0382 H   0  0  0  0  0  0  0  0  0  0  0  0
    4.4704   -3.9413   21.8936 H   0  0  0  0  0  0  0  0  0  0  0  0
    5.1160   -4.9604   20.6020 H   0  0  0  0  0  0  0  0  0  0  0  0
    5.8624   -5.7450   22.8604 H   0  0  0  0  0  0  0  0  0  0  0  0
    7.2204   -5.2980   21.8364 H   0  0  0  0  0  0  0  0  0  0  0  0
    7.5218   -4.3453   24.1187 H   0  0  0  0  0  0  0  0  0  0  0  0
    5.9597   -3.5501   24.0207 H   0  0  0  0  0  0  0  0  0  0  0  0
    7.7511   -1.9171   23.5434 H   0  0  0  0  0  0  0  0  0  0  0  0
    8.4315   -2.9661   22.2952 H   0  0  0  0  0  0  0  0  0  0  0  0
    5.7787   -1.4902   22.2202 H   0  0  0  0  0  0  0  0  0  0  0  0
    8.3040   -1.2424   20.5775 H   0  0  0  0  0  0  0  0  0  0  0  0
    6.9704    0.5471   22.5009 H   0  0  0  0  0  0  0  0  0  0  0  0
    8.7530    2.2748   22.7285 C   0  0  0  0  0  0  0  0  0  0  0  0
    9.1115    1.8375   24.1682 C   0  0  0  0  0  0  0  0  0  0  0  0
    7.7729    1.9941   24.8564 C   0  0  0  0  0  0  0  0  0  0  0  0
    6.8783    2.4890   24.0809 N   0  0  0  0  0  0  0  0  0  0  0  0
    7.4520    2.8818   22.8843 O   0  0  0  0  0  0  0  0  0  0  0  0
    7.5005    1.5979   26.2562 C   0  0  0  0  0  0  0  0  0  0  0  0
    8.4143    0.7939   26.9751 C   0  0  0  0  0  0  0  0  0  0  0  0
    8.2339    0.5591   28.3335 C   0  0  0  0  0  0  0  0  0  0  0  0
    9.1714   -0.1393   28.9906 F   0  0  0  0  0  0  0  0  0  0  0  0
    7.1385    1.0574   29.0332 C   0  0  0  0  0  0  0  0  0  0  0  0
    6.1922    1.7961   28.3193 C   0  0  0  0  0  0  0  0  0  0  0  0
    6.3789    2.0745   26.9643 C   0  0  0  0  0  0  0  0  0  0  0  0
    5.4536    2.8306   26.3645 F   0  0  0  0  0  0  0  0  0  0  0  0
    5.3048    2.1761   28.8082 H   0  0  0  0  0  0  0  0  0  0  0  0
    7.0439    0.8968   30.1030 H   0  0  0  0  0  0  0  0  0  0  0  0
    9.3005    0.3758   26.5075 H   0  0  0  0  0  0  0  0  0  0  0  0
    9.8650    2.4795   24.6365 H   0  0  0  0  0  0  0  0  0  0  0  0
    9.4682    0.7995   24.2360 H   0  0  0  0  0  0  0  0  0  0  0  0
    9.4161    3.0170   22.2803 H   0  0  0  0  0  0  0  0  0  0  0  0
  1  2  2  0
  2  3  1  0
  3  4  1  0
  4  5  1  0
  5  6  2  0
  6  7  1  0
  7  8  2  0
  8  9  1  0
  9 10  2  0
 10 11  1  0
  8 12  1  0
  7 13  1  0
  6 14  1  0
  4 15  1  0
 15 16  1  0
 16 17  1  0
 17 18  1  0
 18 19  1  0
 19 20  1  0
 20 21  1  0
 20 22  1  0
 19 23  1  0
 19 24  1  0
 18 25  1  0
 18 26  1  0
 17 27  1  0
 17 28  1  0
 16 29  1  0
 16 30  1  0
 15 31  1  0
  4 32  1  0
  3 33  1  0
  2 34  1  0
 34 35  1  0
 35 36  1  0
 36 37  2  0
 37 38  1  0
 36 39  1  0
 39 40  2  0
 40 41  1  0
 41 42  1  0
 41 43  2  0
 43 44  1  0
 44 45  2  0
 45 46  1  0
 44 47  1  0
 43 48  1  0
 40 49  1  0
 35 50  1  0
 35 51  1  0
 34 52  1  0
 10  5  1  0
 20 15  1  0
 38 34  1  0
 45 39  1  0
M  END
>  <plip>  (1) 
-0.06666666666666667

>  <filename>  (1) 
[H][c]1[n][c]([H])[c]([C]([H])([N]([H])[C](=[O])[C]2([H])[O][N]=[C]([c]3[c]([H])[c]([F])[c]([H])[c]([H])[c]3[F])[C]2([H])[H])[C]2([H])[C]([H])([H])[C]([H])([H])[C]([H])([H])[C]([H])([H])[C]2([H])[H])[c]([H])[c]1[H]

$$$$
