
     RDKit          3D

 33 34  0  0  0  0  0  0  0  0999 V2000
   10.4525   -2.2123   23.4117 C   0  0  0  0  0  0  0  0  0  0  0  0
   10.8217   -0.8384   23.9843 C   0  0  0  0  0  0  0  0  0  0  0  0
   11.8352   -0.0842   23.1779 C   0  0  0  0  0  0  0  0  0  0  0  0
   11.6968    1.0167   22.3646 C   0  0  0  0  0  0  0  0  0  0  0  0
   10.4145    1.6442   21.8852 C   0  0  0  0  0  0  0  0  0  0  0  0
    9.4729    0.6819   21.3085 N   0  0  0  0  0  0  0  0  0  0  0  0
    8.2699    0.3307   21.8545 C   0  0  0  0  0  0  0  0  0  0  0  0
    7.8969    0.7490   22.9352 O   0  0  0  0  0  0  0  0  0  0  0  0
    7.4574   -0.6445   20.9932 C   0  0  0  0  0  0  0  0  0  0  0  0
    6.6993    0.0044   19.8421 C   0  0  0  0  0  0  0  0  0  0  0  0
    5.4874    0.6591   20.1049 C   0  0  0  0  0  0  0  0  0  0  0  0
    4.8280    1.3149   19.0658 C   0  0  0  0  0  0  0  0  0  0  0  0
    5.4004    1.3054   17.7902 C   0  0  0  0  0  0  0  0  0  0  0  0
    6.5431    0.6630   17.5057 N   0  0  0  0  0  0  0  0  0  0  0  0
    7.1604    0.0290   18.5125 C   0  0  0  0  0  0  0  0  0  0  0  0
    8.0799   -0.4911   18.2406 H   0  0  0  0  0  0  0  0  0  0  0  0
    4.9215    1.8288   16.9623 H   0  0  0  0  0  0  0  0  0  0  0  0
    3.8895    1.8351   19.2261 H   0  0  0  0  0  0  0  0  0  0  0  0
    5.0718    0.6528   21.1160 H   0  0  0  0  0  0  0  0  0  0  0  0
    8.1223   -1.4326   20.6202 H   0  0  0  0  0  0  0  0  0  0  0  0
    6.7420   -1.1177   21.6684 H   0  0  0  0  0  0  0  0  0  0  0  0
    9.7271    0.2516   20.4381 H   0  0  0  0  0  0  0  0  0  0  0  0
    9.9210    2.1422   22.7319 H   0  0  0  0  0  0  0  0  0  0  0  0
   10.6675    2.4024   21.1353 H   0  0  0  0  0  0  0  0  0  0  0  0
   12.9328    1.4512   22.0090 N   0  0  0  0  0  0  0  0  0  0  0  0
   13.8310    0.6444   22.4757 N   0  0  0  0  0  0  0  0  0  0  0  0
   13.1805   -0.2940   23.1711 N   0  0  0  0  0  0  0  0  0  0  0  0
   13.6999   -1.1206   23.4265 H   0  0  0  0  0  0  0  0  0  0  0  0
    9.9228   -0.2109   24.0410 H   0  0  0  0  0  0  0  0  0  0  0  0
   11.1726   -0.9337   25.0219 H   0  0  0  0  0  0  0  0  0  0  0  0
    9.7473   -2.6923   24.0940 H   0  0  0  0  0  0  0  0  0  0  0  0
    9.9701   -2.1249   22.4309 H   0  0  0  0  0  0  0  0  0  0  0  0
   11.3184   -2.8781   23.2945 H   0  0  0  0  0  0  0  0  0  0  0  0
  1  2  1  0
  2  3  1  0
  3  4  2  0
  4  5  1  0
  5  6  1  0
  6  7  1  0
  7  8  2  0
  7  9  1  0
  9 10  1  0
 10 11  2  0
 11 12  1  0
 12 13  2  0
 13 14  1  0
 14 15  2  0
 15 16  1  0
 13 17  1  0
 12 18  1  0
 11 19  1  0
  9 20  1  0
  9 21  1  0
  6 22  1  0
  5 23  1  0
  5 24  1  0
  4 25  1  0
 25 26  2  0
 26 27  1  0
 27 28  1  0
  2 29  1  0
  2 30  1  0
  1 31  1  0
  1 32  1  0
  1 33  1  0
 27  3  1  0
 15 10  1  0
M  END
>  <plip>  (1) 
-0.10344827586206896

>  <filename>  (1) 
[H][c]1[n][c]([H])[c]([C]([H])([H])[C](=[O])[N]([H])[C]([H])([H])[c]2[n][n][n]([H])[c]2[C]([H])([H])[C]([H])([H])[H])[c]([H])[c]1[H]

$$$$
