
     RDKit          3D

 33 35  0  0  0  0  0  0  0  0999 V2000
    4.9277    1.8106   16.9668 H   0  0  0  0  0  0  0  0  0  0  0  0
    5.4009    1.3191   17.8163 C   0  0  0  0  0  0  0  0  0  0  0  0
    6.5654    0.6991   17.5699 N   0  0  0  0  0  0  0  0  0  0  0  0
    7.1515    0.0593   18.5932 C   0  0  0  0  0  0  0  0  0  0  0  0
    8.1048   -0.4219   18.3717 H   0  0  0  0  0  0  0  0  0  0  0  0
    6.6262    0.0006   19.9098 C   0  0  0  0  0  0  0  0  0  0  0  0
    7.2936   -0.7185   21.0266 C   0  0  0  0  0  0  0  0  0  0  0  0
    7.8553   -0.1837   22.1459 C   0  0  0  0  0  0  0  0  0  0  0  0
    7.7950    1.2596   22.5314 C   0  0  0  0  0  0  0  0  0  0  0  0
    6.7352    1.5688   22.5253 H   0  0  0  0  0  0  0  0  0  0  0  0
    8.5361    2.2070   21.5569 C   0  0  0  0  0  0  0  0  0  0  0  0
    7.9129    2.4145   20.6832 H   0  0  0  0  0  0  0  0  0  0  0  0
    9.4512    1.7259   21.1908 H   0  0  0  0  0  0  0  0  0  0  0  0
    8.9054    3.4666   22.3766 C   0  0  0  0  0  0  0  0  0  0  0  0
    9.9683    3.6986   22.2553 H   0  0  0  0  0  0  0  0  0  0  0  0
    8.3496    4.3483   22.0434 H   0  0  0  0  0  0  0  0  0  0  0  0
    8.5921    3.1431   23.8569 C   0  0  0  0  0  0  0  0  0  0  0  0
    7.6943    3.6773   24.1869 H   0  0  0  0  0  0  0  0  0  0  0  0
    9.4002    3.4569   24.5257 H   0  0  0  0  0  0  0  0  0  0  0  0
    8.3710    1.6267   23.9074 C   0  0  0  0  0  0  0  0  0  0  0  0
    7.7056    1.3142   24.7188 H   0  0  0  0  0  0  0  0  0  0  0  0
    9.3323    1.1201   24.0541 H   0  0  0  0  0  0  0  0  0  0  0  0
    8.6049   -1.2531   22.9095 C   0  0  0  0  0  0  0  0  0  0  0  0
    8.1203   -1.4040   23.8900 H   0  0  0  0  0  0  0  0  0  0  0  0
    9.6593   -0.9867   23.0862 H   0  0  0  0  0  0  0  0  0  0  0  0
    8.4799   -2.3980   22.0293 N   0  0  0  0  0  0  0  0  0  0  0  0
    8.5339   -3.3554   22.3398 H   0  0  0  0  0  0  0  0  0  0  0  0
    7.4470   -2.2095   21.1342 C   0  0  0  0  0  0  0  0  0  0  0  0
    6.8289   -3.1245   20.6338 O   0  0  0  0  0  0  0  0  0  0  0  0
    5.4230    0.6870   20.1315 C   0  0  0  0  0  0  0  0  0  0  0  0
    4.9927    0.6923   21.1354 H   0  0  0  0  0  0  0  0  0  0  0  0
    4.7891    1.3416   19.0721 C   0  0  0  0  0  0  0  0  0  0  0  0
    3.8466    1.8569   19.2113 H   0  0  0  0  0  0  0  0  0  0  0  0
  1  2  1  0
  2  3  2  0
  3  4  1  0
  4  5  1  0
  4  6  2  0
  6  7  1  0
  7  8  2  0
  8  9  1  0
  9 10  1  0
  9 11  1  0
 11 12  1  0
 11 13  1  0
 11 14  1  0
 14 15  1  0
 14 16  1  0
 14 17  1  0
 17 18  1  0
 17 19  1  0
 17 20  1  0
 20 21  1  0
 20 22  1  0
  8 23  1  0
 23 24  1  0
 23 25  1  0
 23 26  1  0
 26 27  1  0
 26 28  1  0
 28 29  2  0
  6 30  1  0
 30 31  1  0
 30 32  2  0
 32 33  1  0
 32  2  1  0
 28  7  1  0
 20  9  1  0
M  END
>  <plip>  (1) 
-0.06896551724137931

>  <filename>  (1) 
[H][c]1[n][c]([H])[c]([C]2=[C]([C]3([H])[C]([H])([H])[C]([H])([H])[C]([H])([H])[C]3([H])[H])[C]([H])([H])[N]([H])[C]2=[O])[c]([H])[c]1[H]

$$$$
