
     RDKit          3D

 43 45  0  0  0  0  0  0  0  0999 V2000
    6.6777   -0.5854   27.2949 C   0  0  0  0  0  0  0  0  0  0  0  0
    6.6465   -1.8842   26.4814 C   0  0  0  0  0  0  0  0  0  0  0  0
    6.8618   -1.5482   25.0816 N   0  0  0  0  0  0  0  0  0  0  0  0
    7.9004   -1.9715   24.3166 C   0  0  0  0  0  0  0  0  0  0  0  0
    8.8024   -2.6894   24.7260 O   0  0  0  0  0  0  0  0  0  0  0  0
    7.8764   -1.5136   22.8865 C   0  0  0  0  0  0  0  0  0  0  0  0
    8.8308   -1.8299   21.9863 C   0  0  0  0  0  0  0  0  0  0  0  0
    8.4781   -1.2937   20.7882 O   0  0  0  0  0  0  0  0  0  0  0  0
    7.2957   -0.6571   21.0188 C   0  0  0  0  0  0  0  0  0  0  0  0
    6.6115    0.0221   19.9269 C   0  0  0  0  0  0  0  0  0  0  0  0
    5.3884    0.6873   20.1299 C   0  0  0  0  0  0  0  0  0  0  0  0
    4.8038    1.3253   19.0402 C   0  0  0  0  0  0  0  0  0  0  0  0
    5.4582    1.2817   17.8037 C   0  0  0  0  0  0  0  0  0  0  0  0
    6.6177    0.6397   17.6002 N   0  0  0  0  0  0  0  0  0  0  0  0
    7.1783    0.0247   18.6462 C   0  0  0  0  0  0  0  0  0  0  0  0
    8.1208   -0.4845   18.4511 H   0  0  0  0  0  0  0  0  0  0  0  0
    5.0264    1.7843   16.9413 H   0  0  0  0  0  0  0  0  0  0  0  0
    3.8683    1.8649   19.1387 H   0  0  0  0  0  0  0  0  0  0  0  0
    4.9276    0.7095   21.1209 H   0  0  0  0  0  0  0  0  0  0  0  0
    6.8940   -0.7468   22.2450 N   0  0  0  0  0  0  0  0  0  0  0  0
    9.7547   -2.3887   22.0508 H   0  0  0  0  0  0  0  0  0  0  0  0
    6.1882   -0.9611   24.6107 H   0  0  0  0  0  0  0  0  0  0  0  0
    5.3271   -2.6938   26.6753 C   0  0  0  0  0  0  0  0  0  0  0  0
    5.1527   -3.1959   28.1331 C   0  0  0  0  0  0  0  0  0  0  0  0
    6.0271   -4.4243   28.4581 C   0  0  0  0  0  0  0  0  0  0  0  0
    5.7735   -5.5930   27.5052 C   0  0  0  0  0  0  0  0  0  0  0  0
    6.0506   -5.0988   26.0832 C   0  0  0  0  0  0  0  0  0  0  0  0
    5.1501   -3.9081   25.7215 C   0  0  0  0  0  0  0  0  0  0  0  0
    4.0997   -4.2241   25.7923 H   0  0  0  0  0  0  0  0  0  0  0  0
    5.3039   -3.6199   24.6764 H   0  0  0  0  0  0  0  0  0  0  0  0
    7.1000   -4.7712   26.0370 H   0  0  0  0  0  0  0  0  0  0  0  0
    5.9428   -5.8992   25.3456 H   0  0  0  0  0  0  0  0  0  0  0  0
    4.7398   -5.9511   27.6034 H   0  0  0  0  0  0  0  0  0  0  0  0
    6.4189   -6.4444   27.7521 H   0  0  0  0  0  0  0  0  0  0  0  0
    7.0843   -4.1423   28.3259 H   0  0  0  0  0  0  0  0  0  0  0  0
    5.9092   -4.7142   29.5092 H   0  0  0  0  0  0  0  0  0  0  0  0
    4.0965   -3.4546   28.2891 H   0  0  0  0  0  0  0  0  0  0  0  0
    5.3677   -2.3972   28.8514 H   0  0  0  0  0  0  0  0  0  0  0  0
    4.5065   -1.9921   26.4527 H   0  0  0  0  0  0  0  0  0  0  0  0
    7.5059   -2.4876   26.7924 H   0  0  0  0  0  0  0  0  0  0  0  0
    7.5736   -0.0043   27.0513 H   0  0  0  0  0  0  0  0  0  0  0  0
    5.7984    0.0360   27.0847 H   0  0  0  0  0  0  0  0  0  0  0  0
    6.7075   -0.7795   28.3696 H   0  0  0  0  0  0  0  0  0  0  0  0
  1  2  1  0
  2  3  1  0
  3  4  1  0
  4  5  2  0
  4  6  1  0
  6  7  2  0
  7  8  1  0
  8  9  1  0
  9 10  1  0
 10 11  2  0
 11 12  1  0
 12 13  2  0
 13 14  1  0
 14 15  2  0
 15 16  1  0
 13 17  1  0
 12 18  1  0
 11 19  1  0
  9 20  2  0
  7 21  1  0
  3 22  1  0
  2 23  1  0
 23 24  1  0
 24 25  1  0
 25 26  1  0
 26 27  1  0
 27 28  1  0
 28 29  1  0
 28 30  1  0
 27 31  1  0
 27 32  1  0
 26 33  1  0
 26 34  1  0
 25 35  1  0
 25 36  1  0
 24 37  1  0
 24 38  1  0
 23 39  1  0
  2 40  1  0
  1 41  1  0
  1 42  1  0
  1 43  1  0
 20  6  1  0
 28 23  1  0
 15 10  1  0
M  END
>  <plip>  (1) 
-0.07142857142857142

>  <filename>  (1) 
[H][c]1[n][c]([H])[c](-[c]2[n][c]([C](=[O])[N]([H])[C]([H])([C]([H])([H])[H])[C]3([H])[C]([H])([H])[C]([H])([H])[C]([H])([H])[C]([H])([H])[C]3([H])[H])[c]([H])[o]2)[c]([H])[c]1[H]

$$$$
