
     RDKit          3D

 33 35  0  0  0  0  0  0  0  0999 V2000
    9.0629    1.2871   21.4094 O   0  0  0  0  0  0  0  0  0  0  0  0
    8.2445    1.0730   22.2901 C   0  0  0  0  0  0  0  0  0  0  0  0
    7.3318    0.0322   22.1861 N   0  0  0  0  0  0  0  0  0  0  0  0
    7.2815   -0.9045   21.0217 C   0  0  0  0  0  0  0  0  0  0  0  0
    6.7197   -2.3724   21.2258 C   0  0  0  0  0  0  0  0  0  0  0  0
    5.5227   -2.6431   20.9173 O   0  0  0  0  0  0  0  0  0  0  0  0
    7.5543   -3.2447   21.5922 O   0  0  0  0  0  1  0  0  0  0  0  0
    6.6032   -0.1247   19.9046 C   0  0  0  0  0  0  0  0  0  0  0  0
    5.3604    0.4864   20.0922 C   0  0  0  0  0  0  0  0  0  0  0  0
    4.8299    1.2322   19.0386 C   0  0  0  0  0  0  0  0  0  0  0  0
    5.5263    1.3256   17.8285 C   0  0  0  0  0  0  0  0  0  0  0  0
    6.7194    0.7342   17.6358 N   0  0  0  0  0  0  0  0  0  0  0  0
    7.2470    0.0425   18.6646 C   0  0  0  0  0  0  0  0  0  0  0  0
    8.2191   -0.4259   18.5345 H   0  0  0  0  0  0  0  0  0  0  0  0
    5.0937    1.9039   17.0176 H   0  0  0  0  0  0  0  0  0  0  0  0
    3.8863    1.7546   19.1490 H   0  0  0  0  0  0  0  0  0  0  0  0
    4.8394    0.4037   21.0441 H   0  0  0  0  0  0  0  0  0  0  0  0
    8.3194   -1.0782   20.7147 H   0  0  0  0  0  0  0  0  0  0  0  0
    6.5060    0.1444   22.7730 H   0  0  0  0  0  0  0  0  0  0  0  0
    8.0849    2.0303   23.3536 C   0  0  0  0  0  0  0  0  0  0  0  0
    8.9629    2.9540   23.8472 C   0  0  0  0  0  0  0  0  0  0  0  0
   10.3394    3.3702   23.5318 C   0  0  0  0  0  0  0  0  0  0  0  0
   11.4141    2.4057   22.2820 Br  0  0  0  0  0  0  0  0  0  0  0  0
   10.8329    4.5263   24.1147 C   0  0  0  0  0  0  0  0  0  0  0  0
    9.9977    5.2981   25.0506 C   0  0  0  0  0  0  0  0  0  0  0  0
    8.7331    4.8350   25.3762 C   0  0  0  0  0  0  0  0  0  0  0  0
    8.2464    3.6520   24.8128 N   0  0  0  0  0  0  0  0  0  0  0  0
    6.9748    3.1775   24.9664 N   0  0  0  0  0  0  0  0  0  0  0  0
    6.8702    2.1996   24.0966 C   0  0  0  0  0  0  0  0  0  0  0  0
    5.9636    1.6348   23.9198 H   0  0  0  0  0  0  0  0  0  0  0  0
    8.0776    5.4010   26.0266 H   0  0  0  0  0  0  0  0  0  0  0  0
   10.3570    6.2331   25.4748 H   0  0  0  0  0  0  0  0  0  0  0  0
   11.8439    4.8479   23.8782 H   0  0  0  0  0  0  0  0  0  0  0  0
  1  2  2  0
  2  3  1  0
  3  4  1  0
  4  5  1  0
  5  6  2  0
  5  7  1  0
  4  8  1  0
  8  9  2  0
  9 10  1  0
 10 11  2  0
 11 12  1  0
 12 13  2  0
 13 14  1  0
 11 15  1  0
 10 16  1  0
  9 17  1  0
  4 18  1  0
  3 19  1  0
  2 20  1  0
 20 21  2  0
 21 22  1  0
 22 23  1  0
 22 24  2  0
 24 25  1  0
 25 26  2  0
 26 27  1  0
 27 28  1  0
 28 29  2  0
 29 30  1  0
 26 31  1  0
 25 32  1  0
 24 33  1  0
 13  8  1  0
 29 20  1  0
 27 21  1  0
M  CHG  1   7  -1
M  END
>  <plip>  (1) 
-0.14285714285714285

>  <filename>  (1) 
[H][c]1[n][c]([H])[c]([C]([H])([C](=[O])[O-])[N]([H])[C](=[O])[c]2[c]([H])[n][n]3[c]([H])[c]([H])[c]([H])[c]([Br])[c]23)[c]([H])[c]1[H]

$$$$
