
     RDKit          3D

 21 22  0  0  0  0  0  0  0  0999 V2000
    4.9085    1.8992   17.2121 H   0  0  0  0  0  0  0  0  0  0  0  0
    5.4261    1.2902   17.9511 C   0  0  0  0  0  0  0  0  0  0  0  0
    6.5179    0.6285   17.5254 N   0  0  0  0  0  0  0  0  0  0  0  0
    7.2032   -0.0846   18.4253 C   0  0  0  0  0  0  0  0  0  0  0  0
    8.0895   -0.6000   18.0469 H   0  0  0  0  0  0  0  0  0  0  0  0
    6.8688   -0.2069   19.8035 C   0  0  0  0  0  0  0  0  0  0  0  0
    7.6925   -0.9944   20.6439 N   0  0  0  0  0  0  0  0  0  0  0  0
    8.6259   -1.1665   20.2761 H   0  0  0  0  0  0  0  0  0  0  0  0
    7.5753   -1.1485   22.3788 S   0  0  0  0  0  0  0  0  0  0  0  0
    6.8948   -2.7462   22.2368 N   0  0  0  0  0  0  0  0  0  0  0  0
    5.7578   -2.9598   21.5133 C   0  0  0  0  0  0  0  0  0  0  0  0
    5.1013   -2.1684   21.1797 H   0  0  0  0  0  0  0  0  0  0  0  0
    5.4910   -4.2296   21.3570 N   0  0  0  0  0  0  0  0  0  0  0  0
    6.5062   -4.8868   22.0185 C   0  0  0  0  0  0  0  0  0  0  0  0
    6.5561   -5.9642   22.0335 H   0  0  0  0  0  0  0  0  0  0  0  0
    7.3820   -4.0073   22.5873 C   0  0  0  0  0  0  0  0  0  0  0  0
    8.2396   -4.1576   23.2335 H   0  0  0  0  0  0  0  0  0  0  0  0
    5.6949    0.4522   20.2114 C   0  0  0  0  0  0  0  0  0  0  0  0
    5.3313    0.3959   21.2350 H   0  0  0  0  0  0  0  0  0  0  0  0
    4.9847    1.2185   19.2730 C   0  0  0  0  0  0  0  0  0  0  0  0
    4.1014    1.7721   19.5683 H   0  0  0  0  0  0  0  0  0  0  0  0
  1  2  1  0
  2  3  2  0
  3  4  1  0
  4  5  1  0
  4  6  2  0
  6  7  1  0
  7  8  1  0
  7  9  1  0
  9 10  1  0
 10 11  1  0
 11 12  1  0
 11 13  2  0
 13 14  1  0
 14 15  1  0
 14 16  2  0
 16 17  1  0
  6 18  1  0
 18 19  1  0
 18 20  2  0
 20 21  1  0
 20  2  1  0
 16 10  1  0
M  END
>  <plip>  (1) 
-0.10344827586206896

>  <filename>  (1) 
[H][c]1[n][c]([H])[c]([N]([H])[S][n]2[c]([H])[n][c]([H])[c]2[H])[c]([H])[c]1[H]

$$$$
