
     RDKit          3D

 31 32  0  0  0  0  0  0  0  0999 V2000
    6.7316   -1.6260   21.7194 C   0  0  0  0  0  0  0  0  0  0  0  0
    7.4257   -0.6263   20.8956 N   0  0  0  0  0  0  0  0  0  0  0  0
    8.7063   -0.2633   21.3386 C   0  0  0  0  0  0  0  0  0  0  0  0
    9.3209   -0.9372   22.1525 O   0  0  0  0  0  0  0  0  0  0  0  0
    9.2256    0.8702   20.7633 N   0  0  0  0  0  0  0  0  0  0  0  0
   10.5438    1.3825   21.0784 C   0  0  0  0  0  0  0  0  0  0  0  0
   10.5646    2.4314   22.1883 C   0  0  1  0  0  0  0  0  0  0  0  0
   10.3593    1.9530   23.6374 C   0  0  0  0  0  0  0  0  0  0  0  0
   11.6155    2.2027   24.2722 O   0  0  0  0  0  0  0  0  0  0  0  0
   12.5084    2.6863   23.3756 C   0  0  0  0  0  0  0  0  0  0  0  0
   13.6707    2.8377   23.5603 O   0  0  0  0  0  0  0  0  0  0  0  0
   11.8782    2.9907   22.2190 O   0  0  0  0  0  0  0  0  0  0  0  0
    9.5731    2.5137   24.1546 H   0  0  0  0  0  0  0  0  0  0  0  0
   10.1462    0.8838   23.7237 H   0  0  0  0  0  0  0  0  0  0  0  0
    9.8550    3.2247   21.9233 H   0  0  0  0  0  0  0  0  0  0  0  0
   10.9727    1.8812   20.2065 H   0  0  0  0  0  0  0  0  0  0  0  0
   11.2141    0.5528   21.3185 H   0  0  0  0  0  0  0  0  0  0  0  0
    8.5194    1.5248   20.4724 H   0  0  0  0  0  0  0  0  0  0  0  0
    6.7191    0.0257   19.8351 C   0  0  0  0  0  0  0  0  0  0  0  0
    5.5151    0.6801   20.1089 C   0  0  0  0  0  0  0  0  0  0  0  0
    4.8442    1.3270   19.0645 C   0  0  0  0  0  0  0  0  0  0  0  0
    5.4027    1.3091   17.7818 C   0  0  0  0  0  0  0  0  0  0  0  0
    6.5544    0.6800   17.4960 N   0  0  0  0  0  0  0  0  0  0  0  0
    7.1869    0.0546   18.4991 C   0  0  0  0  0  0  0  0  0  0  0  0
    8.1220   -0.4430   18.2528 H   0  0  0  0  0  0  0  0  0  0  0  0
    4.9032    1.8049   16.9503 H   0  0  0  0  0  0  0  0  0  0  0  0
    3.9074    1.8388   19.2406 H   0  0  0  0  0  0  0  0  0  0  0  0
    5.1417    0.6880   21.1327 H   0  0  0  0  0  0  0  0  0  0  0  0
    5.7817   -1.9072   21.2583 H   0  0  0  0  0  0  0  0  0  0  0  0
    7.3580   -2.5177   21.8171 H   0  0  0  0  0  0  0  0  0  0  0  0
    6.5357   -1.2433   22.7298 H   0  0  0  0  0  0  0  0  0  0  0  0
  1  2  1  0
  2  3  1  0
  3  4  2  0
  3  5  1  0
  5  6  1  0
  6  7  1  0
  7  8  1  0
  8  9  1  0
  9 10  1  0
 10 11  2  0
 10 12  1  0
  8 13  1  0
  8 14  1  0
  7 15  1  6
  6 16  1  0
  6 17  1  0
  5 18  1  0
  2 19  1  0
 19 20  2  0
 20 21  1  0
 21 22  2  0
 22 23  1  0
 23 24  2  0
 24 25  1  0
 22 26  1  0
 21 27  1  0
 20 28  1  0
  1 29  1  0
  1 30  1  0
  1 31  1  0
 12  7  1  0
 24 19  1  0
M  END
>  <plip>  (1) 
-0.0967741935483871

>  <filename>  (1) 
[H][c]1[n][c]([H])[c]([N]([C](=[O])[N]([H])[C]([H])([H])[C@]2([H])[O][C](=[O])[O][C]2([H])[H])[C]([H])([H])[H])[c]([H])[c]1[H]

$$$$
