
     RDKit          3D

 41 41  0  0  0  0  0  0  0  0999 V2000
    9.9954   -1.8287   22.3295 C   0  0  0  0  0  0  0  0  0  0  0  0
    9.9686   -0.6437   21.3653 C   0  0  0  0  0  0  0  0  0  0  0  0
    8.6801    0.0466   21.3649 N   0  0  0  0  0  0  0  0  0  0  0  0
    7.4661   -0.6865   20.9979 C   0  0  0  0  0  0  0  0  0  0  0  0
    6.6582   -1.1094   22.2191 C   0  0  0  0  0  0  0  0  0  0  0  0
    6.3036   -0.2416   22.7817 H   0  0  0  0  0  0  0  0  0  0  0  0
    5.7994   -1.6994   21.8889 H   0  0  0  0  0  0  0  0  0  0  0  0
    7.2694   -1.7273   22.8814 H   0  0  0  0  0  0  0  0  0  0  0  0
    6.6716    0.0513   19.9380 C   0  0  0  0  0  0  0  0  0  0  0  0
    5.4360    0.6716   20.1559 C   0  0  0  0  0  0  0  0  0  0  0  0
    4.7933    1.3062   19.0919 C   0  0  0  0  0  0  0  0  0  0  0  0
    5.4034    1.2861   17.8344 C   0  0  0  0  0  0  0  0  0  0  0  0
    6.5740    0.6773   17.5955 N   0  0  0  0  0  0  0  0  0  0  0  0
    7.1846    0.0896   18.6322 C   0  0  0  0  0  0  0  0  0  0  0  0
    8.1278   -0.4061   18.3879 H   0  0  0  0  0  0  0  0  0  0  0  0
    4.9383    1.7823   16.9839 H   0  0  0  0  0  0  0  0  0  0  0  0
    3.8612    1.8414   19.2358 H   0  0  0  0  0  0  0  0  0  0  0  0
    4.9866    0.6794   21.1517 H   0  0  0  0  0  0  0  0  0  0  0  0
    7.8321   -1.6024   20.5040 H   0  0  0  0  0  0  0  0  0  0  0  0
    8.5426    1.4409   22.2463 S   0  0  0  0  0  0  0  0  0  0  0  0
    9.6831    2.2442   21.8461 O   0  0  0  0  0  0  0  0  0  0  0  0
    7.1793    1.9139   22.1435 O   0  0  0  0  0  0  0  0  0  0  0  0
    8.8049    1.0172   23.9804 C   0  0  0  0  0  0  0  0  0  0  0  0
    8.5265    2.2081   24.9264 C   0  0  0  0  0  0  0  0  0  0  0  0
    8.8120    1.8814   26.3845 C   0  0  0  0  0  0  0  0  0  0  0  0
    7.9198    0.8977   26.8530 O   0  0  0  0  0  0  0  0  0  0  0  0
    8.1445    0.5296   28.1909 C   0  0  0  0  0  0  0  0  0  0  0  0
    7.3710   -0.1936   28.4477 H   0  0  0  0  0  0  0  0  0  0  0  0
    8.0700    1.3919   28.8747 H   0  0  0  0  0  0  0  0  0  0  0  0
    9.1322    0.0605   28.3318 H   0  0  0  0  0  0  0  0  0  0  0  0
    8.7027    2.8015   26.9826 H   0  0  0  0  0  0  0  0  0  0  0  0
    9.8585    1.5357   26.4701 H   0  0  0  0  0  0  0  0  0  0  0  0
    7.4829    2.5395   24.8242 H   0  0  0  0  0  0  0  0  0  0  0  0
    9.1704    3.0590   24.6541 H   0  0  0  0  0  0  0  0  0  0  0  0
    8.1396    0.1715   24.1840 H   0  0  0  0  0  0  0  0  0  0  0  0
    9.8547    0.6972   24.0211 H   0  0  0  0  0  0  0  0  0  0  0  0
   10.1331   -0.9918   20.3354 H   0  0  0  0  0  0  0  0  0  0  0  0
   10.7609    0.0821   21.5769 H   0  0  0  0  0  0  0  0  0  0  0  0
    9.6811   -1.5416   23.3408 H   0  0  0  0  0  0  0  0  0  0  0  0
   11.0012   -2.2507   22.3894 H   0  0  0  0  0  0  0  0  0  0  0  0
    9.3208   -2.6194   21.9809 H   0  0  0  0  0  0  0  0  0  0  0  0
  1  2  1  0
  2  3  1  0
  3  4  1  0
  4  5  1  0
  5  6  1  0
  5  7  1  0
  5  8  1  0
  4  9  1  0
  9 10  2  0
 10 11  1  0
 11 12  2  0
 12 13  1  0
 13 14  2  0
 14 15  1  0
 12 16  1  0
 11 17  1  0
 10 18  1  0
  4 19  1  0
  3 20  1  0
 20 21  2  0
 20 22  2  0
 20 23  1  0
 23 24  1  0
 24 25  1  0
 25 26  1  0
 26 27  1  0
 27 28  1  0
 27 29  1  0
 27 30  1  0
 25 31  1  0
 25 32  1  0
 24 33  1  0
 24 34  1  0
 23 35  1  0
 23 36  1  0
  2 37  1  0
  2 38  1  0
  1 39  1  0
  1 40  1  0
  1 41  1  0
 14  9  1  0
M  END
>  <plip>  (1) 
-0.03571428571428571

>  <filename>  (1) 
[H][c]1[n][c]([H])[c]([C]([H])([N]([C]([H])([H])[C]([H])([H])[H])[S](=[O])(=[O])[C]([H])([H])[C]([H])([H])[C]([H])([H])[O][C]([H])([H])[H])[C]([H])([H])[H])[c]([H])[c]1[H]

$$$$
