
     RDKit          3D

 31 32  0  0  0  0  0  0  0  0999 V2000
    5.0208   -0.1231   26.1281 O   0  0  0  0  0  0  0  0  0  0  0  0
    5.8668   -0.6599   25.4090 C   0  0  0  0  0  0  0  0  0  0  0  0
    6.4221   -0.1547   24.3871 O   0  0  0  0  0  1  0  0  0  0  0  0
    6.3001   -2.0965   25.7396 C   0  0  0  0  0  0  0  0  0  0  0  0
    6.2544   -3.1344   24.8578 C   0  0  0  0  0  0  0  0  0  0  0  0
    5.8622   -3.2578   23.4084 C   0  0  0  0  0  0  0  0  0  0  0  0
    6.3663   -2.1074   22.6733 N   0  0  0  0  0  0  0  0  0  0  0  0
    6.4957   -2.0561   21.3355 C   0  0  0  0  0  0  0  0  0  0  0  0
    6.0566   -2.8999   20.5661 O   0  0  0  0  0  0  0  0  0  0  0  0
    7.3449   -0.8261   20.8034 C   0  0  0  0  0  0  0  0  0  0  0  0
    7.9008    0.0744   21.7628 O   0  0  0  0  0  0  0  0  0  0  0  0
    7.1966    0.5461   22.2408 H   0  0  0  0  0  0  0  0  0  0  0  0
    6.6284   -0.0415   19.7227 C   0  0  0  0  0  0  0  0  0  0  0  0
    5.4028    0.5887   19.9672 C   0  0  0  0  0  0  0  0  0  0  0  0
    4.8292    1.3529   18.9516 C   0  0  0  0  0  0  0  0  0  0  0  0
    5.4826    1.4378   17.7184 C   0  0  0  0  0  0  0  0  0  0  0  0
    6.6598    0.8468   17.4654 N   0  0  0  0  0  0  0  0  0  0  0  0
    7.2171    0.1486   18.4628 C   0  0  0  0  0  0  0  0  0  0  0  0
    8.1839   -0.3010   18.2358 H   0  0  0  0  0  0  0  0  0  0  0  0
    5.0482    2.0120   16.9022 H   0  0  0  0  0  0  0  0  0  0  0  0
    3.9010    1.8867   19.1042 H   0  0  0  0  0  0  0  0  0  0  0  0
    4.9174    0.4827   20.9417 H   0  0  0  0  0  0  0  0  0  0  0  0
    8.2206   -1.3129   20.3549 H   0  0  0  0  0  0  0  0  0  0  0  0
    6.5368   -1.2407   23.2262 H   0  0  0  0  0  0  0  0  0  0  0  0
    4.7649   -3.3645   23.3174 H   0  0  0  0  0  0  0  0  0  0  0  0
    6.2945   -4.1853   23.0105 H   0  0  0  0  0  0  0  0  0  0  0  0
    6.6313   -4.2797   25.4863 O   0  0  0  0  0  0  0  0  0  0  0  0
    6.9416   -3.9650   26.7716 C   0  0  0  0  0  0  0  0  0  0  0  0
    6.7607   -2.6476   26.9900 C   0  0  0  0  0  0  0  0  0  0  0  0
    6.9294   -2.0843   27.8936 H   0  0  0  0  0  0  0  0  0  0  0  0
    7.2741   -4.7857   27.3859 H   0  0  0  0  0  0  0  0  0  0  0  0
  1  2  2  0
  2  3  1  0
  2  4  1  0
  4  5  2  0
  5  6  1  0
  6  7  1  0
  7  8  1  0
  8  9  2  0
  8 10  1  0
 10 11  1  0
 11 12  1  0
 10 13  1  0
 13 14  2  0
 14 15  1  0
 15 16  2  0
 16 17  1  0
 17 18  2  0
 18 19  1  0
 16 20  1  0
 15 21  1  0
 14 22  1  0
 10 23  1  0
  7 24  1  0
  6 25  1  0
  6 26  1  0
  5 27  1  0
 27 28  1  0
 28 29  2  0
 29 30  1  0
 28 31  1  0
 29  4  1  0
 18 13  1  0
M  CHG  1   3  -1
M  END
>  <plip>  (1) 
-0.10714285714285714

>  <filename>  (1) 
[H][O][C]([H])([C](=[O])[N]([H])[C]([H])([H])[c]1[o][c]([H])[c]([H])[c]1[C](=[O])[O-])[c]1[c]([H])[n][c]([H])[c]([H])[c]1[H]

$$$$
