
     RDKit          3D

 33 35  0  0  0  0  0  0  0  0999 V2000
    7.9537   -1.8106   20.6545 O   0  0  0  0  0  0  0  0  0  0  0  0
    7.3932   -0.7674   20.9506 C   0  0  0  0  0  0  0  0  0  0  0  0
    7.4807   -0.2670   22.3462 C   0  0  0  0  0  0  0  0  0  0  0  0
    7.3723    1.0206   22.7146 C   0  0  0  0  0  0  0  0  0  0  0  0
    7.4762    1.5691   24.0638 C   0  0  0  0  0  0  0  0  0  0  0  0
    7.6560    2.8933   24.2517 C   0  0  0  0  0  0  0  0  0  0  0  0
    7.7334    3.4418   25.5944 C   0  0  0  0  0  0  0  0  0  0  0  0
    8.0158    4.7971   25.8514 C   0  0  0  0  0  0  0  0  0  0  0  0
    8.0112    5.2777   27.1531 C   0  0  0  0  0  0  0  0  0  0  0  0
    7.6993    4.4163   28.2222 C   0  0  0  0  0  0  0  0  0  0  0  0
    7.4651    3.0624   27.9942 C   0  0  0  0  0  0  0  0  0  0  0  0
    7.4888    2.5768   26.6837 C   0  0  0  0  0  0  0  0  0  0  0  0
    7.2219    1.2570   26.5202 O   0  0  0  0  0  0  0  0  0  0  0  0
    7.4719    0.6357   25.2578 C   0  0  0  0  0  0  0  0  0  0  0  0
    8.4361    0.1009   25.3250 H   0  0  0  0  0  0  0  0  0  0  0  0
    6.6743   -0.1122   25.1580 H   0  0  0  0  0  0  0  0  0  0  0  0
    7.3043    2.3438   28.7953 H   0  0  0  0  0  0  0  0  0  0  0  0
    7.7131    4.7946   29.2424 H   0  0  0  0  0  0  0  0  0  0  0  0
    8.2723    6.3118   27.3483 H   0  0  0  0  0  0  0  0  0  0  0  0
    8.2448    5.4404   25.0047 H   0  0  0  0  0  0  0  0  0  0  0  0
    7.7604    3.5844   23.4160 H   0  0  0  0  0  0  0  0  0  0  0  0
    7.2227    1.7905   21.9554 H   0  0  0  0  0  0  0  0  0  0  0  0
    7.7042   -1.0714   23.0396 H   0  0  0  0  0  0  0  0  0  0  0  0
    6.6337    0.0022   19.9171 C   0  0  0  0  0  0  0  0  0  0  0  0
    5.4180    0.6645   20.1546 C   0  0  0  0  0  0  0  0  0  0  0  0
    4.7991    1.3148   19.0909 C   0  0  0  0  0  0  0  0  0  0  0  0
    5.4153    1.2907   17.8361 C   0  0  0  0  0  0  0  0  0  0  0  0
    6.5756    0.6604   17.5949 N   0  0  0  0  0  0  0  0  0  0  0  0
    7.1591    0.0264   18.6161 C   0  0  0  0  0  0  0  0  0  0  0  0
    8.1002   -0.4728   18.3878 H   0  0  0  0  0  0  0  0  0  0  0  0
    4.9635    1.7954   16.9840 H   0  0  0  0  0  0  0  0  0  0  0  0
    3.8641    1.8465   19.2194 H   0  0  0  0  0  0  0  0  0  0  0  0
    4.9623    0.6799   21.1462 H   0  0  0  0  0  0  0  0  0  0  0  0
  1  2  2  0
  2  3  1  0
  3  4  2  3
  4  5  1  0
  5  6  2  0
  6  7  1  0
  7  8  2  0
  8  9  1  0
  9 10  2  0
 10 11  1  0
 11 12  2  0
 12 13  1  0
 13 14  1  0
 14 15  1  0
 14 16  1  0
 11 17  1  0
 10 18  1  0
  9 19  1  0
  8 20  1  0
  6 21  1  0
  4 22  1  0
  3 23  1  0
  2 24  1  0
 24 25  2  0
 25 26  1  0
 26 27  2  0
 27 28  1  0
 28 29  2  0
 29 30  1  0
 27 31  1  0
 26 32  1  0
 25 33  1  0
 14  5  1  0
 29 24  1  0
 12  7  1  0
M  END
>  <plip>  (1) 
-0.03571428571428571

>  <filename>  (1) 
[H][C]([C](=[O])[c]1[c]([H])[n][c]([H])[c]([H])[c]1[H])=[C]([H])[C]1=[C]([H])[c]2[c]([H])[c]([H])[c]([H])[c]([H])[c]2[O][C]1([H])[H]

$$$$
