
     RDKit          3D

 33 34  0  0  0  0  0  0  0  0999 V2000
    4.8885    1.9291   16.9708 H   0  0  0  0  0  0  0  0  0  0  0  0
    5.3646    1.3553   17.7642 C   0  0  0  0  0  0  0  0  0  0  0  0
    6.5019    0.7163   17.4258 N   0  0  0  0  0  0  0  0  0  0  0  0
    7.1175    0.0111   18.3794 C   0  0  0  0  0  0  0  0  0  0  0  0
    8.0513   -0.4797   18.1124 H   0  0  0  0  0  0  0  0  0  0  0  0
    6.6434   -0.1443   19.7148 C   0  0  0  0  0  0  0  0  0  0  0  0
    7.4244   -0.8651   20.6215 N   0  0  0  0  0  0  0  0  0  0  0  0
    7.0358   -1.6247   21.5494 C   0  0  0  0  0  0  0  0  0  0  0  0
    5.7612   -2.2048   21.6464 N   0  0  0  0  0  0  0  0  0  0  0  0
    5.2328   -1.8499   20.8598 H   0  0  0  0  0  0  0  0  0  0  0  0
    5.3632   -1.8056   22.4945 H   0  0  0  0  0  0  0  0  0  0  0  0
    7.8274   -2.1780   22.5492 N   0  0  0  0  0  0  0  0  0  0  0  0
    7.1635   -2.8313   22.9505 H   0  0  0  0  0  0  0  0  0  0  0  0
    8.6436   -1.3203   23.7363 N   0  0  0  0  0  0  0  0  0  0  0  0
    9.6194   -1.4750   23.4797 H   0  0  0  0  0  0  0  0  0  0  0  0
    9.1586    0.1937   24.6129 S   0  0  0  0  0  0  0  0  0  0  0  0
    8.7692    0.0757   25.9968 O   0  0  0  0  0  0  0  0  0  0  0  0
   10.5453    0.2994   24.2001 O   0  0  0  0  0  0  0  0  0  0  0  0
    8.1562    1.3757   23.7634 C   0  0  0  0  0  0  0  0  0  0  0  0
    6.7927    1.4308   24.0779 C   0  0  0  0  0  0  0  0  0  0  0  0
    6.3495    0.7766   24.8313 H   0  0  0  0  0  0  0  0  0  0  0  0
    5.9879    2.3618   23.4236 C   0  0  0  0  0  0  0  0  0  0  0  0
    4.9320    2.4139   23.6618 H   0  0  0  0  0  0  0  0  0  0  0  0
    6.5285    3.2245   22.4604 C   0  0  0  0  0  0  0  0  0  0  0  0
    5.8966    3.9611   21.9677 H   0  0  0  0  0  0  0  0  0  0  0  0
    7.8817    3.1191   22.1272 C   0  0  0  0  0  0  0  0  0  0  0  0
    8.3174    3.7737   21.3780 H   0  0  0  0  0  0  0  0  0  0  0  0
    8.7055    2.1856   22.7555 C   0  0  0  0  0  0  0  0  0  0  0  0
    9.7512    2.1097   22.4585 H   0  0  0  0  0  0  0  0  0  0  0  0
    5.4709    0.5536   20.0414 C   0  0  0  0  0  0  0  0  0  0  0  0
    5.1008    0.5448   21.0641 H   0  0  0  0  0  0  0  0  0  0  0  0
    4.8176    1.3069   19.0484 C   0  0  0  0  0  0  0  0  0  0  0  0
    3.8994    1.8487   19.2566 H   0  0  0  0  0  0  0  0  0  0  0  0
  1  2  1  0
  2  3  2  0
  3  4  1  0
  4  5  1  0
  4  6  2  0
  6  7  1  0
  7  8  2  3
  8  9  1  0
  9 10  1  0
  9 11  1  0
  8 12  1  0
 12 13  1  0
 12 14  1  0
 14 15  1  0
 14 16  1  0
 16 17  2  0
 16 18  2  0
 16 19  1  0
 19 20  2  0
 20 21  1  0
 20 22  1  0
 22 23  1  0
 22 24  2  0
 24 25  1  0
 24 26  1  0
 26 27  1  0
 26 28  2  0
 28 29  1  0
  6 30  1  0
 30 31  1  0
 30 32  2  0
 32 33  1  0
 32  2  1  0
 28 19  1  0
M  END
>  <plip>  (1) 
-0.10344827586206896

>  <filename>  (1) 
[H][c]1[n][c]([H])[c]([N]=[C]([N]([H])[H])[N]([H])[N]([H])[S](=[O])(=[O])[c]2[c]([H])[c]([H])[c]([H])[c]([H])[c]2[H])[c]([H])[c]1[H]

$$$$
