
     RDKit          3D

 37 39  0  0  0  0  0  0  0  0999 V2000
    3.8075   -7.3988   28.1018 F   0  0  0  0  0  0  0  0  0  0  0  0
    4.6960   -6.4269   27.8255 C   0  0  0  0  0  0  0  0  0  0  0  0
    5.8718   -6.7700   27.1649 C   0  0  0  0  0  0  0  0  0  0  0  0
    6.8318   -5.7813   26.9287 C   0  0  0  0  0  0  0  0  0  0  0  0
    6.5894   -4.4499   27.2980 C   0  0  0  0  0  0  0  0  0  0  0  0
    7.5482   -3.3475   26.9024 C   0  0  0  0  0  0  0  0  0  0  0  0
    7.2544   -2.8728   25.5135 C   0  0  0  0  0  0  0  0  0  0  0  0
    6.3524   -1.9547   25.3083 N   0  0  0  0  0  0  0  0  0  0  0  0
    6.3234   -1.8736   23.8943 O   0  0  0  0  0  0  0  0  0  0  0  0
    7.2231   -2.7485   23.4613 C   0  0  0  0  0  0  0  0  0  0  0  0
    7.4549   -2.9596   22.1591 N   0  0  0  0  0  0  0  0  0  0  0  0
    6.8297   -2.2071   21.0890 C   0  0  0  0  0  0  0  0  0  0  0  0
    7.3597   -0.7657   20.9742 C   0  0  0  0  0  0  0  0  0  0  0  0
    6.6804    0.0277   19.8793 C   0  0  0  0  0  0  0  0  0  0  0  0
    5.4611    0.6782   20.1144 C   0  0  0  0  0  0  0  0  0  0  0  0
    4.8159    1.3239   19.0570 C   0  0  0  0  0  0  0  0  0  0  0  0
    5.4204    1.3143   17.7956 C   0  0  0  0  0  0  0  0  0  0  0  0
    6.5869    0.7014   17.5408 N   0  0  0  0  0  0  0  0  0  0  0  0
    7.1897    0.0858   18.5685 C   0  0  0  0  0  0  0  0  0  0  0  0
    8.1390   -0.3980   18.3382 H   0  0  0  0  0  0  0  0  0  0  0  0
    4.9412    1.8126   16.9541 H   0  0  0  0  0  0  0  0  0  0  0  0
    3.8755    1.8456   19.2050 H   0  0  0  0  0  0  0  0  0  0  0  0
    5.0299    0.6877   21.1184 H   0  0  0  0  0  0  0  0  0  0  0  0
    8.4413   -0.7843   20.7976 H   0  0  0  0  0  0  0  0  0  0  0  0
    7.2008   -0.2744   21.9415 H   0  0  0  0  0  0  0  0  0  0  0  0
    6.9772   -2.7370   20.1412 H   0  0  0  0  0  0  0  0  0  0  0  0
    5.7461   -2.1695   21.2628 H   0  0  0  0  0  0  0  0  0  0  0  0
    8.3289   -3.4508   22.0652 H   0  0  0  0  0  0  0  0  0  0  0  0
    7.8522   -3.4007   24.4046 N   0  0  0  0  0  0  0  0  0  0  0  0
    7.4705   -2.5055   27.5948 H   0  0  0  0  0  0  0  0  0  0  0  0
    8.5797   -3.6985   26.9401 H   0  0  0  0  0  0  0  0  0  0  0  0
    5.3701   -4.1251   27.9111 C   0  0  0  0  0  0  0  0  0  0  0  0
    4.4261   -5.1147   28.2071 C   0  0  0  0  0  0  0  0  0  0  0  0
    3.5079   -4.8912   28.7387 H   0  0  0  0  0  0  0  0  0  0  0  0
    5.1497   -3.0856   28.1545 H   0  0  0  0  0  0  0  0  0  0  0  0
    7.7741   -6.0687   26.4603 H   0  0  0  0  0  0  0  0  0  0  0  0
    6.0034   -7.7930   26.8303 H   0  0  0  0  0  0  0  0  0  0  0  0
  1  2  1  0
  2  3  2  0
  3  4  1  0
  4  5  2  0
  5  6  1  0
  6  7  1  0
  7  8  2  0
  8  9  1  0
  9 10  1  0
 10 11  1  0
 11 12  1  0
 12 13  1  0
 13 14  1  0
 14 15  2  0
 15 16  1  0
 16 17  2  0
 17 18  1  0
 18 19  2  0
 19 20  1  0
 17 21  1  0
 16 22  1  0
 15 23  1  0
 13 24  1  0
 13 25  1  0
 12 26  1  0
 12 27  1  0
 11 28  1  0
 10 29  2  0
  6 30  1  0
  6 31  1  0
  5 32  1  0
 32 33  2  0
 33 34  1  0
 32 35  1  0
  4 36  1  0
  3 37  1  0
 33  2  1  0
 29  7  1  0
 19 14  1  0
M  END
>  <plip>  (1) 
-0.06896551724137931

>  <filename>  (1) 
[H][c]1[n][c]([H])[c]([C]([H])([H])[C]([H])([H])[N]([H])[c]2[n][c]([C]([H])([H])[c]3[c]([H])[c]([H])[c]([F])[c]([H])[c]3[H])[n][o]2)[c]([H])[c]1[H]

$$$$
