
     RDKit          3D

 24 25  0  0  0  0  0  0  0  0999 V2000
    6.2483    2.8069   24.8798 H   0  0  0  0  0  0  0  0  0  0  0  0
    6.7227    2.1727   24.1385 C   0  0  0  0  0  0  0  0  0  0  0  0
    7.8644    2.5211   23.4860 N   0  0  0  0  0  0  0  0  0  0  0  0
    8.0707    1.4909   22.6994 C   0  0  0  0  0  0  0  0  0  0  0  0
    8.9062    1.3741   22.0196 H   0  0  0  0  0  0  0  0  0  0  0  0
    7.1013    0.5717   22.8590 N   0  0  0  0  0  0  0  0  0  0  0  0
    7.0242   -0.7497   22.2392 C   0  0  1  0  0  0  0  0  0  0  0  0
    5.9880   -1.0832   22.3189 H   0  0  0  0  0  0  0  0  0  0  0  0
    7.4181   -0.6853   20.8647 O   0  0  0  0  0  0  0  0  0  0  0  0
    6.6658   -0.0013   19.9349 C   0  0  0  0  0  0  0  0  0  0  0  0
    7.1787    0.0535   18.6182 C   0  0  0  0  0  0  0  0  0  0  0  0
    8.1222   -0.4349   18.3925 H   0  0  0  0  0  0  0  0  0  0  0  0
    6.5689    0.6698   17.5992 N   0  0  0  0  0  0  0  0  0  0  0  0
    5.4023    1.2898   17.8459 C   0  0  0  0  0  0  0  0  0  0  0  0
    4.9179    1.7796   16.9984 H   0  0  0  0  0  0  0  0  0  0  0  0
    4.8166    1.3009   19.1152 C   0  0  0  0  0  0  0  0  0  0  0  0
    3.8828    1.8355   19.2623 H   0  0  0  0  0  0  0  0  0  0  0  0
    5.4476    0.6420   20.1863 C   0  0  0  0  0  0  0  0  0  0  0  0
    5.0099    0.6386   21.1890 H   0  0  0  0  0  0  0  0  0  0  0  0
    7.9575   -1.7271   22.9222 C   0  0  0  0  0  0  0  0  0  0  0  0
    7.7004   -1.8216   23.9781 H   0  0  0  0  0  0  0  0  0  0  0  0
    7.8806   -2.7152   22.4640 H   0  0  0  0  0  0  0  0  0  0  0  0
    8.9932   -1.3843   22.8437 H   0  0  0  0  0  0  0  0  0  0  0  0
    6.2291    0.9950   23.8071 N   0  0  0  0  0  0  0  0  0  0  0  0
  1  2  1  0
  2  3  1  0
  3  4  2  0
  4  5  1  0
  4  6  1  0
  6  7  1  0
  7  8  1  6
  7  9  1  0
  9 10  1  0
 10 11  2  0
 11 12  1  0
 11 13  1  0
 13 14  2  0
 14 15  1  0
 14 16  1  0
 16 17  1  0
 16 18  2  0
 18 19  1  0
  7 20  1  0
 20 21  1  0
 20 22  1  0
 20 23  1  0
  6 24  1  0
 24  2  2  0
 18 10  1  0
M  END
>  <plip>  (1) 
-0.10714285714285714

>  <filename>  (1) 
[H][c]1[n][c]([H])[n]([C@@]([H])([O][c]2[c]([H])[n][c]([H])[c]([H])[c]2[H])[C]([H])([H])[H])[n]1

$$$$
