
     RDKit          3D

 19 20  0  0  0  0  0  0  0  0999 V2000
   11.1967   -3.7335   23.8912 H   0  0  0  0  0  0  0  0  0  0  0  0
   10.5465   -3.5669   24.6769 N   0  0  0  0  0  0  0  0  0  0  0  0
    9.5903   -2.9126   24.3444 N   0  0  0  0  0  4  0  0  0  0  0  0
    8.5645   -2.2792   24.2280 N   0  0  0  0  0  0  0  0  0  0  0  0
    8.2800   -1.7554   22.9167 C   0  0  0  0  0  0  0  0  0  0  0  0
    9.0364   -1.9179   21.8622 N   0  0  0  0  0  0  0  0  0  0  0  0
    8.5389   -1.3238   20.7521 N   0  0  0  0  0  0  0  0  0  0  0  0
    7.4074   -0.7132   20.9583 C   0  0  0  0  0  0  0  0  0  0  0  0
    6.6645    0.0050   19.9074 C   0  0  0  0  0  0  0  0  0  0  0  0
    7.1845    0.0577   18.5989 C   0  0  0  0  0  0  0  0  0  0  0  0
    8.1296   -0.4345   18.3810 H   0  0  0  0  0  0  0  0  0  0  0  0
    6.5697    0.6761   17.5892 N   0  0  0  0  0  0  0  0  0  0  0  0
    5.4047    1.2902   17.8476 C   0  0  0  0  0  0  0  0  0  0  0  0
    4.9134    1.7743   17.0038 H   0  0  0  0  0  0  0  0  0  0  0  0
    4.8093    1.3076   19.1134 C   0  0  0  0  0  0  0  0  0  0  0  0
    3.8762    1.8437   19.2648 H   0  0  0  0  0  0  0  0  0  0  0  0
    5.4444    0.6500   20.1646 C   0  0  0  0  0  0  0  0  0  0  0  0
    4.9963    0.6375   21.1622 H   0  0  0  0  0  0  0  0  0  0  0  0
    6.8491   -0.8321   22.6134 S   0  0  0  0  0  0  0  0  0  0  0  0
  1  2  1  0
  2  3  2  0
  3  4  2  0
  4  5  1  0
  5  6  2  0
  6  7  1  0
  7  8  2  0
  8  9  1  0
  9 10  2  0
 10 11  1  0
 10 12  1  0
 12 13  2  0
 13 14  1  0
 13 15  1  0
 15 16  1  0
 15 17  2  0
 17 18  1  0
  8 19  1  0
 19  5  1  0
 17  9  1  0
M  CHG  1   3   1
M  END
>  <plip>  (1) 
-0.03571428571428571

>  <filename>  (1) 
[H][N]=[N+]=[N][c]1[n][n][c](-[c]2[c]([H])[n][c]([H])[c]([H])[c]2[H])[s]1

$$$$
