
     RDKit          3D

 35 36  0  0  0  0  0  0  0  0999 V2000
    6.6892   -2.0300   21.2922 C   0  0  0  0  0  0  0  0  0  0  0  0
    7.4279   -0.7461   20.9521 C   0  0  2  0  0  0  0  0  0  0  0  0
    7.5241    0.0628   22.1596 N   0  0  0  0  0  0  0  0  0  0  0  0
    8.3100    1.2214   22.2404 C   0  0  0  0  0  0  0  0  0  0  0  0
    8.9894    1.4429   21.2392 O   0  0  0  0  0  0  0  0  0  0  0  0
    8.3647    2.1814   23.4283 C   0  0  0  0  0  0  0  0  0  0  0  0
    7.6215    2.0155   24.3980 O   0  0  0  0  0  0  0  0  0  0  0  0
    9.2284    3.2827   23.5163 N   0  0  0  0  0  0  0  0  0  0  0  0
    9.1798    4.2528   24.5215 C   0  0  0  0  0  0  0  0  0  0  0  0
    7.9420    4.6493   25.0383 C   0  0  0  0  0  0  0  0  0  0  0  0
    7.8632    5.6422   26.0245 C   0  0  0  0  0  0  0  0  0  0  0  0
    9.0466    6.1977   26.5338 C   0  0  0  0  0  0  0  0  0  0  0  0
   10.2939    5.8002   26.0265 C   0  0  0  0  0  0  0  0  0  0  0  0
   11.9027    6.5451   26.7627 Br  0  0  0  0  0  0  0  0  0  0  0  0
   10.3561    4.8539   24.9899 C   0  0  0  0  0  0  0  0  0  0  0  0
   11.9042    4.3726   24.3210 Cl  0  0  0  0  0  0  0  0  0  0  0  0
    9.0124    6.9388   27.3286 H   0  0  0  0  0  0  0  0  0  0  0  0
    6.8967    5.9805   26.3965 H   0  0  0  0  0  0  0  0  0  0  0  0
    7.0515    4.1835   24.6290 H   0  0  0  0  0  0  0  0  0  0  0  0
    9.9906    3.3657   22.8483 H   0  0  0  0  0  0  0  0  0  0  0  0
    6.8787   -0.1588   22.9131 H   0  0  0  0  0  0  0  0  0  0  0  0
    6.6676    0.0014   19.8935 C   0  0  0  0  0  0  0  0  0  0  0  0
    5.4478    0.6407   20.1487 C   0  0  0  0  0  0  0  0  0  0  0  0
    4.8176    1.2978   19.0901 C   0  0  0  0  0  0  0  0  0  0  0  0
    5.4102    1.2980   17.8239 C   0  0  0  0  0  0  0  0  0  0  0  0
    6.5764    0.6742   17.5743 N   0  0  0  0  0  0  0  0  0  0  0  0
    7.1866    0.0528   18.5988 C   0  0  0  0  0  0  0  0  0  0  0  0
    8.1329   -0.4408   18.4129 H   0  0  0  0  0  0  0  0  0  0  0  0
    4.9092    1.8296   17.0189 H   0  0  0  0  0  0  0  0  0  0  0  0
    3.8794    1.8256   19.2316 H   0  0  0  0  0  0  0  0  0  0  0  0
    5.0010    0.6452   21.1416 H   0  0  0  0  0  0  0  0  0  0  0  0
    8.4286   -1.0036   20.5815 H   0  0  0  0  0  0  0  0  0  0  0  0
    7.2153   -2.5781   22.0777 H   0  0  0  0  0  0  0  0  0  0  0  0
    5.6848   -1.7905   21.6479 H   0  0  0  0  0  0  0  0  0  0  0  0
    6.6114   -2.6693   20.4076 H   0  0  0  0  0  0  0  0  0  0  0  0
  1  2  1  0
  2  3  1  0
  3  4  1  0
  4  5  2  0
  4  6  1  0
  6  7  2  0
  6  8  1  0
  8  9  1  0
  9 10  2  0
 10 11  1  0
 11 12  2  0
 12 13  1  0
 13 14  1  0
 13 15  2  0
 15 16  1  0
 12 17  1  0
 11 18  1  0
 10 19  1  0
  8 20  1  0
  3 21  1  0
  2 22  1  0
 22 23  2  0
 23 24  1  0
 24 25  2  0
 25 26  1  0
 26 27  2  0
 27 28  1  0
 25 29  1  0
 24 30  1  0
 23 31  1  0
  2 32  1  6
  1 33  1  0
  1 34  1  0
  1 35  1  0
 15  9  1  0
 27 22  1  0
M  END
>  <plip>  (1) 
-0.17857142857142858

>  <filename>  (1) 
[H][c]1[n][c]([H])[c]([C@@]([H])([N]([H])[C](=[O])[C](=[O])[N]([H])[c]2[c]([H])[c]([H])[c]([H])[c]([Br])[c]2[Cl])[C]([H])([H])[H])[c]([H])[c]1[H]

$$$$
