
     RDKit          3D

 36 38  0  0  0  0  0  0  0  0999 V2000
    9.3589    4.2297   22.5191 C   0  0  0  0  0  0  0  0  0  0  0  0
    8.0225    3.8217   22.6889 C   0  0  0  0  0  0  0  0  0  0  0  0
    7.7186    2.5362   21.9035 C   0  0  0  0  0  0  0  0  0  0  0  0
    7.2929    1.6026   22.8021 C   0  0  0  0  0  0  0  0  0  0  0  0
    6.8906    0.2971   22.5359 N   0  0  0  0  0  0  0  0  0  0  0  0
    7.6416   -0.4162   21.2762 S   0  0  0  0  0  0  0  0  0  0  0  0
    7.4847   -1.8225   21.5656 O   0  0  0  0  0  0  0  0  0  0  0  0
    8.9570    0.1548   21.0542 O   0  0  0  0  0  0  0  0  0  0  0  0
    6.6265    0.1331   19.9932 C   0  0  0  0  0  0  0  0  0  0  0  0
    5.3722    0.7424   20.1067 C   0  0  0  0  0  0  0  0  0  0  0  0
    4.8472    1.2858   18.9388 C   0  0  0  0  0  0  0  0  0  0  0  0
    5.5689    1.1812   17.7465 C   0  0  0  0  0  0  0  0  0  0  0  0
    6.7490    0.5499   17.6539 N   0  0  0  0  0  0  0  0  0  0  0  0
    7.2639    0.0319   18.7649 C   0  0  0  0  0  0  0  0  0  0  0  0
    8.2182   -0.4763   18.6421 H   0  0  0  0  0  0  0  0  0  0  0  0
    5.1821    1.6187   16.8275 H   0  0  0  0  0  0  0  0  0  0  0  0
    3.8979    1.8082   18.9380 H   0  0  0  0  0  0  0  0  0  0  0  0
    4.8273    0.8129   21.0517 H   0  0  0  0  0  0  0  0  0  0  0  0
    7.0387   -0.3362   23.3049 H   0  0  0  0  0  0  0  0  0  0  0  0
    7.1991    1.9993   24.0549 N   0  0  0  0  0  0  0  0  0  0  0  0
    7.6327    3.2750   24.0868 N   0  0  0  0  0  0  0  0  0  0  0  0
    7.5890    4.1164   25.2223 C   0  0  0  0  0  0  0  0  0  0  0  0
    8.6804    4.9806   25.4387 C   0  0  0  0  0  0  0  0  0  0  0  0
    8.6498    5.9216   26.4616 C   0  0  0  0  0  0  0  0  0  0  0  0
    7.5153    6.0195   27.2690 C   0  0  0  0  0  0  0  0  0  0  0  0
    7.4338    7.2713   28.4746 Cl  0  0  0  0  0  0  0  0  0  0  0  0
    6.4453    5.1348   27.1060 C   0  0  0  0  0  0  0  0  0  0  0  0
    6.4820    4.1715   26.0874 C   0  0  0  0  0  0  0  0  0  0  0  0
    5.6604    3.4713   25.9531 H   0  0  0  0  0  0  0  0  0  0  0  0
    5.5878    5.2152   27.7678 H   0  0  0  0  0  0  0  0  0  0  0  0
    9.4854    6.5911   26.6272 H   0  0  0  0  0  0  0  0  0  0  0  0
    9.5342    4.8886   24.7735 H   0  0  0  0  0  0  0  0  0  0  0  0
    7.8937    2.4280   20.8437 H   0  0  0  0  0  0  0  0  0  0  0  0
   10.1101    3.4701   22.6977 H   0  0  0  0  0  0  0  0  0  0  0  0
    7.3868    4.7662   22.3894 H   0  0  0  0  0  0  0  0  0  0  0  0
    9.7070    5.2315   22.3229 H   0  0  0  0  0  0  0  0  0  0  0  0
  1  2  1  0
  2  3  2  0
  3  4  1  0
  4  5  1  0
  5  6  1  0
  6  7  2  0
  6  8  2  0
  6  9  1  0
  9 10  2  0
 10 11  1  0
 11 12  2  0
 12 13  1  0
 13 14  2  0
 14 15  1  0
 12 16  1  0
 11 17  1  0
 10 18  1  0
  5 19  1  0
  4 20  2  0
 20 21  1  0
 21 22  1  0
 22 23  2  0
 23 24  1  0
 24 25  2  0
 25 26  1  0
 25 27  1  0
 27 28  2  0
 28 29  1  0
 27 30  1  0
 24 31  1  0
 23 32  1  0
  3 33  1  0
  1 34  1  0
  1 35  1  0
  1 36  1  0
 21  2  1  0
 28 22  1  0
 14  9  1  0
M  END
>  <plip>  (1) 
-0.07142857142857142

>  <filename>  (1) 
[H][c]1[n][c]([H])[c]([S](=[O])(=[O])[N]([H])[c]2[n][n](-[c]3[c]([H])[c]([H])[c]([Cl])[c]([H])[c]3[H])[c]([C]([H])([H])[H])[c]2[H])[c]([H])[c]1[H]

$$$$
