
     RDKit          3D

 37 40  0  0  0  0  0  0  0  0999 V2000
    5.1426    1.3270   17.1365 H   0  0  0  0  0  0  0  0  0  0  0  0
    5.6035    0.7777   17.9553 C   0  0  0  0  0  0  0  0  0  0  0  0
    6.6307   -0.0190   17.6277 N   0  0  0  0  0  0  0  0  0  0  0  0
    7.2267   -0.6955   18.6217 C   0  0  0  0  0  0  0  0  0  0  0  0
    8.0704   -1.3154   18.3114 H   0  0  0  0  0  0  0  0  0  0  0  0
    6.8416   -0.6183   19.9617 C   0  0  0  0  0  0  0  0  0  0  0  0
    7.6791   -1.3446   21.0140 C   0  0  2  0  0  0  0  0  0  0  0  0
    8.7266   -1.3992   20.6738 H   0  0  0  0  0  0  0  0  0  0  0  0
    7.2430   -2.6630   21.2137 O   0  0  0  0  0  0  0  0  0  0  0  0
    6.3104   -2.6162   22.2748 C   0  0  0  0  0  0  0  0  0  0  0  0
    6.1978   -3.6243   22.6809 H   0  0  0  0  0  0  0  0  0  0  0  0
    5.3469   -2.2495   21.8907 H   0  0  0  0  0  0  0  0  0  0  0  0
    6.9073   -1.6072   23.2494 C   0  0  0  0  0  0  0  0  0  0  0  0
    6.1233   -1.1170   23.8297 H   0  0  0  0  0  0  0  0  0  0  0  0
    7.6136   -2.0763   23.9494 H   0  0  0  0  0  0  0  0  0  0  0  0
    7.6112   -0.7129   22.3401 N   0  0  0  0  0  0  0  0  0  0  0  0
    7.9346    0.6403   22.5225 C   0  0  0  0  0  0  0  0  0  0  0  0
    8.5826    1.2738   21.4660 C   0  0  0  0  0  0  0  0  0  0  0  0
    8.9541    0.6902   20.6410 H   0  0  0  0  0  0  0  0  0  0  0  0
    8.7135    2.6701   21.3878 C   0  0  0  0  0  0  0  0  0  0  0  0
    9.1677    3.0831   20.5010 H   0  0  0  0  0  0  0  0  0  0  0  0
    8.2780    3.4685   22.4050 C   0  0  0  0  0  0  0  0  0  0  0  0
    8.3476    4.5493   22.3392 H   0  0  0  0  0  0  0  0  0  0  0  0
    7.7856    2.8768   23.5996 C   0  0  0  0  0  0  0  0  0  0  0  0
    7.5159    3.7162   24.7212 C   0  0  0  0  0  0  0  0  0  0  0  0
    7.6324    4.7872   24.5765 H   0  0  0  0  0  0  0  0  0  0  0  0
    7.1903    3.1823   25.9406 C   0  0  0  0  0  0  0  0  0  0  0  0
    7.0401    3.8323   26.7976 H   0  0  0  0  0  0  0  0  0  0  0  0
    7.0904    1.7738   26.0732 C   0  0  0  0  0  0  0  0  0  0  0  0
    6.8178    1.3385   27.0276 H   0  0  0  0  0  0  0  0  0  0  0  0
    7.3072    0.9380   24.9987 C   0  0  0  0  0  0  0  0  0  0  0  0
    7.2532   -0.1277   25.1617 H   0  0  0  0  0  0  0  0  0  0  0  0
    7.6505    1.4474   23.7050 C   0  0  0  0  0  0  0  0  0  0  0  0
    5.7405    0.1933   20.2817 C   0  0  0  0  0  0  0  0  0  0  0  0
    5.4409    0.3297   21.3245 H   0  0  0  0  0  0  0  0  0  0  0  0
    5.1195    0.9121   19.2628 C   0  0  0  0  0  0  0  0  0  0  0  0
    4.2981    1.5891   19.4759 H   0  0  0  0  0  0  0  0  0  0  0  0
  1  2  1  0
  2  3  2  0
  3  4  1  0
  4  5  1  0
  4  6  2  0
  6  7  1  0
  7  8  1  6
  7  9  1  0
  9 10  1  0
 10 11  1  0
 10 12  1  0
 10 13  1  0
 13 14  1  0
 13 15  1  0
 13 16  1  0
 16 17  1  0
 17 18  2  0
 18 19  1  0
 18 20  1  0
 20 21  1  0
 20 22  2  0
 22 23  1  0
 22 24  1  0
 24 25  2  0
 25 26  1  0
 25 27  1  0
 27 28  1  0
 27 29  2  0
 29 30  1  0
 29 31  1  0
 31 32  1  0
 31 33  2  0
  6 34  1  0
 34 35  1  0
 34 36  2  0
 36 37  1  0
 36  2  1  0
 16  7  1  0
 33 17  1  0
 33 24  1  0
M  END
>  <plip>  (1) 
-0.034482758620689655

>  <filename>  (1) 
[H][c]1[n][c]([H])[c]([C@]2([H])[O][C]([H])([H])[C]([H])([H])[N]2[c]2[c]([H])[c]([H])[c]([H])[c]3[c]([H])[c]([H])[c]([H])[c]([H])[c]23)[c]([H])[c]1[H]

$$$$
