
     RDKit          3D

 36 37  0  0  0  0  0  0  0  0999 V2000
    4.4478    4.1192   24.0612 C   0  0  0  0  0  0  0  0  0  0  0  0
    4.4029    2.6991   24.5837 C   0  0  0  0  0  0  0  0  0  0  0  0
    3.4457    2.3083   25.5285 C   0  0  0  0  0  0  0  0  0  0  0  0
    3.3128    1.0811   26.0429 N   0  0  0  0  0  0  0  0  0  0  0  0
    4.1885    0.1521   25.6400 C   0  0  0  0  0  0  0  0  0  0  0  0
    5.2102    0.4138   24.7378 C   0  0  0  0  0  0  0  0  0  0  0  0
    5.3062    1.6958   24.1925 C   0  0  0  0  0  0  0  0  0  0  0  0
    6.2961    1.9411   23.2341 N   0  0  0  0  0  0  0  0  0  0  0  0
    7.5599    1.4038   23.2654 C   0  0  0  0  0  0  0  0  0  0  0  0
    8.0134    0.8529   24.2539 O   0  0  0  0  0  0  0  0  0  0  0  0
    8.3751    1.4736   21.9829 C   0  0  0  0  0  0  0  0  0  0  0  0
    8.6709    0.0615   21.4240 C   0  0  0  0  0  0  0  0  0  0  0  0
    7.4104   -0.7199   21.0002 C   0  0  0  0  0  0  0  0  0  0  0  0
    6.6356   -0.0211   19.8997 C   0  0  0  0  0  0  0  0  0  0  0  0
    5.4262    0.6462   20.1427 C   0  0  0  0  0  0  0  0  0  0  0  0
    4.7927    1.3190   19.0909 C   0  0  0  0  0  0  0  0  0  0  0  0
    5.3907    1.3059   17.8270 C   0  0  0  0  0  0  0  0  0  0  0  0
    6.5508    0.6858   17.5702 N   0  0  0  0  0  0  0  0  0  0  0  0
    7.1505    0.0590   18.5905 C   0  0  0  0  0  0  0  0  0  0  0  0
    8.1064   -0.4100   18.3549 H   0  0  0  0  0  0  0  0  0  0  0  0
    4.9254    1.8098   16.9807 H   0  0  0  0  0  0  0  0  0  0  0  0
    3.8592    1.8544   19.2298 H   0  0  0  0  0  0  0  0  0  0  0  0
    5.0062    0.6401   21.1497 H   0  0  0  0  0  0  0  0  0  0  0  0
    7.7060   -1.7267   20.6752 H   0  0  0  0  0  0  0  0  0  0  0  0
    6.7647   -0.8695   21.8775 H   0  0  0  0  0  0  0  0  0  0  0  0
    9.3437    0.1437   20.5614 H   0  0  0  0  0  0  0  0  0  0  0  0
    9.2200   -0.5092   22.1833 H   0  0  0  0  0  0  0  0  0  0  0  0
    9.3180    1.9574   22.2572 H   0  0  0  0  0  0  0  0  0  0  0  0
    7.8945    2.1001   21.2209 H   0  0  0  0  0  0  0  0  0  0  0  0
    6.0793    2.5981   22.5062 H   0  0  0  0  0  0  0  0  0  0  0  0
    5.9041   -0.3542   24.4268 H   0  0  0  0  0  0  0  0  0  0  0  0
    4.0604   -0.8406   26.0743 H   0  0  0  0  0  0  0  0  0  0  0  0
    2.7239    3.0395   25.9020 H   0  0  0  0  0  0  0  0  0  0  0  0
    3.7964    4.7617   24.6633 H   0  0  0  0  0  0  0  0  0  0  0  0
    4.1023    4.1945   23.0225 H   0  0  0  0  0  0  0  0  0  0  0  0
    5.4602    4.5368   24.1091 H   0  0  0  0  0  0  0  0  0  0  0  0
  1  2  1  0
  2  3  2  0
  3  4  1  0
  4  5  2  0
  5  6  1  0
  6  7  2  0
  7  8  1  0
  8  9  1  0
  9 10  2  0
  9 11  1  0
 11 12  1  0
 12 13  1  0
 13 14  1  0
 14 15  2  0
 15 16  1  0
 16 17  2  0
 17 18  1  0
 18 19  2  0
 19 20  1  0
 17 21  1  0
 16 22  1  0
 15 23  1  0
 13 24  1  0
 13 25  1  0
 12 26  1  0
 12 27  1  0
 11 28  1  0
 11 29  1  0
  8 30  1  0
  6 31  1  0
  5 32  1  0
  3 33  1  0
  1 34  1  0
  1 35  1  0
  1 36  1  0
  7  2  1  0
 19 14  1  0
M  END
>  <plip>  (1) 
-0.03571428571428571

>  <filename>  (1) 
[H][c]1[n][c]([H])[c]([C]([H])([H])[C]([H])([H])[C]([H])([H])[C](=[O])[N]([H])[c]2[c]([H])[c]([H])[n][c]([H])[c]2[C]([H])([H])[H])[c]([H])[c]1[H]

$$$$
