
     RDKit          3D

 22 23  0  0  0  0  0  0  0  0999 V2000
    8.4474    3.3161   23.6530 H   0  0  0  0  0  0  0  0  0  0  0  0
    8.8045    2.6050   22.9087 C   0  0  0  0  0  0  0  0  0  0  0  0
    9.9743    2.8605   22.3439 N   0  0  0  0  0  0  0  0  0  0  0  0
   10.3352    1.9648   21.4340 C   0  0  0  0  0  0  0  0  0  0  0  0
   11.4822    2.1953   20.8372 N   0  0  0  0  0  0  0  0  0  0  0  0
   11.7659    1.5187   20.1658 H   0  0  0  0  0  0  0  0  0  0  0  0
   11.9502    3.0231   21.1343 H   0  0  0  0  0  0  0  0  0  0  0  0
    9.7162    0.8611   21.0296 N   0  0  0  0  0  0  0  0  0  0  0  0
    8.5703    0.6427   21.6516 C   0  0  0  0  0  0  0  0  0  0  0  0
    7.6263   -0.7851   21.1725 S   0  0  0  0  0  0  0  0  0  0  0  0
    6.6450   -0.0224   19.8849 C   0  0  0  0  0  0  0  0  0  0  0  0
    7.1554    0.0399   18.5738 C   0  0  0  0  0  0  0  0  0  0  0  0
    8.1206   -0.4209   18.3656 H   0  0  0  0  0  0  0  0  0  0  0  0
    6.5518    0.6763   17.5640 N   0  0  0  0  0  0  0  0  0  0  0  0
    5.3908    1.2960   17.8312 C   0  0  0  0  0  0  0  0  0  0  0  0
    4.9148    1.7931   16.9884 H   0  0  0  0  0  0  0  0  0  0  0  0
    4.7996    1.3053   19.0989 C   0  0  0  0  0  0  0  0  0  0  0  0
    3.8740    1.8454   19.2550 H   0  0  0  0  0  0  0  0  0  0  0  0
    5.4308    0.6284   20.1469 C   0  0  0  0  0  0  0  0  0  0  0  0
    5.0080    0.6281   21.1547 H   0  0  0  0  0  0  0  0  0  0  0  0
    8.0404    1.4931   22.6132 C   0  0  0  0  0  0  0  0  0  0  0  0
    7.0909    1.3084   23.0799 H   0  0  0  0  0  0  0  0  0  0  0  0
  1  2  1  0
  2  3  2  0
  3  4  1  0
  4  5  1  0
  5  6  1  0
  5  7  1  0
  4  8  2  0
  8  9  1  0
  9 10  1  0
 10 11  1  0
 11 12  2  0
 12 13  1  0
 12 14  1  0
 14 15  2  0
 15 16  1  0
 15 17  1  0
 17 18  1  0
 17 19  2  0
 19 20  1  0
  9 21  2  0
 21 22  1  0
 21  2  1  0
 19 11  1  0
M  END
>  <plip>  (1) 
-0.03571428571428571

>  <filename>  (1) 
[H][c]1[n][c]([N]([H])[H])[n][c]([S][c]2[c]([H])[n][c]([H])[c]([H])[c]2[H])[c]1[H]

$$$$
