
     RDKit          3D

 57 59  0  0  0  0  0  0  0  0999 V2000
    5.9743   -7.2561   29.4391 C   0  0  0  0  0  0  0  0  0  0  0  0
    5.7093   -5.8881   29.1685 O   0  0  0  0  0  0  0  0  0  0  0  0
    4.8387   -5.5642   28.1715 C   0  0  0  0  0  0  0  0  0  0  0  0
    4.1854   -6.5248   27.3890 C   0  0  0  0  0  0  0  0  0  0  0  0
    3.3810   -6.1563   26.3086 C   0  0  0  0  0  0  0  0  0  0  0  0
    3.2299   -4.8143   25.9717 C   0  0  0  0  0  0  0  0  0  0  0  0
    2.6150   -4.4301   24.6449 C   0  0  0  0  0  0  0  0  0  0  0  0
    3.6071   -4.4106   23.5744 N   0  0  0  0  0  0  0  0  0  0  0  0
    4.5398   -3.4515   23.4023 C   0  0  0  0  0  0  0  0  0  0  0  0
    5.2104   -3.7561   22.2223 C   0  0  0  0  0  0  0  0  0  0  0  0
    6.0692   -2.9742   21.3064 C   0  0  0  0  0  0  0  0  0  0  0  0
    6.3664   -3.3859   20.1963 O   0  0  0  0  0  0  0  0  0  0  0  0
    6.4545   -1.7621   21.7923 N   0  0  0  0  0  0  0  0  0  0  0  0
    7.3538   -0.8462   21.0958 C   0  0  0  0  0  0  0  0  0  0  0  0
    6.6270   -0.1420   19.9493 C   0  0  0  0  0  0  0  0  0  0  0  0
    5.4347    0.5718   20.1433 C   0  0  0  0  0  0  0  0  0  0  0  0
    4.8877    1.2858   19.0748 C   0  0  0  0  0  0  0  0  0  0  0  0
    5.5413    1.2596   17.8372 C   0  0  0  0  0  0  0  0  0  0  0  0
    6.6697    0.5700   17.6199 N   0  0  0  0  0  0  0  0  0  0  0  0
    7.1806   -0.1105   18.6596 C   0  0  0  0  0  0  0  0  0  0  0  0
    8.0897   -0.6724   18.4413 H   0  0  0  0  0  0  0  0  0  0  0  0
    5.1394    1.8129   16.9874 H   0  0  0  0  0  0  0  0  0  0  0  0
    3.9764    1.8621   19.1865 H   0  0  0  0  0  0  0  0  0  0  0  0
    4.9311    0.5581   21.1129 H   0  0  0  0  0  0  0  0  0  0  0  0
    8.0163    0.1724   22.0723 C   0  0  0  0  0  0  0  0  0  0  0  0
    8.9526    0.9552   21.3666 O   0  0  0  0  0  0  0  0  0  0  0  0
    8.6010    2.3186   21.2581 C   0  0  0  0  0  0  0  0  0  0  0  0
    9.4380    2.8196   20.7722 H   0  0  0  0  0  0  0  0  0  0  0  0
    7.6861    2.4311   20.6590 H   0  0  0  0  0  0  0  0  0  0  0  0
    8.4469    2.7926   22.2417 H   0  0  0  0  0  0  0  0  0  0  0  0
    8.6608   -0.5109   23.1036 O   0  0  0  0  0  0  0  0  0  0  0  0
    9.2983    0.3368   24.0445 C   0  0  0  0  0  0  0  0  0  0  0  0
    8.5761    0.9832   24.5692 H   0  0  0  0  0  0  0  0  0  0  0  0
    9.7889   -0.3158   24.7678 H   0  0  0  0  0  0  0  0  0  0  0  0
   10.0546    0.9709   23.5654 H   0  0  0  0  0  0  0  0  0  0  0  0
    7.2233    0.8236   22.4945 H   0  0  0  0  0  0  0  0  0  0  0  0
    8.1979   -1.4098   20.6793 H   0  0  0  0  0  0  0  0  0  0  0  0
    6.2309   -1.6010   22.7611 H   0  0  0  0  0  0  0  0  0  0  0  0
    4.6629   -4.9998   21.8411 C   0  0  0  0  0  0  0  0  0  0  0  0
    3.6873   -5.3770   22.6476 N   0  0  0  0  0  0  0  0  0  0  0  0
    4.9394   -5.6126   20.9931 H   0  0  0  0  0  0  0  0  0  0  0  0
    4.6273   -2.6850   24.1708 H   0  0  0  0  0  0  0  0  0  0  0  0
    1.8341   -5.1346   24.3525 H   0  0  0  0  0  0  0  0  0  0  0  0
    2.1607   -3.4347   24.7034 H   0  0  0  0  0  0  0  0  0  0  0  0
    3.7673   -3.8368   26.8257 C   0  0  0  0  0  0  0  0  0  0  0  0
    4.6000   -4.1762   27.8956 C   0  0  0  0  0  0  0  0  0  0  0  0
    5.1750   -3.2445   28.7101 O   0  0  0  0  0  0  0  0  0  0  0  0
    5.3302   -1.9212   28.2349 C   0  0  0  0  0  0  0  0  0  0  0  0
    5.8893   -1.8959   27.2906 H   0  0  0  0  0  0  0  0  0  0  0  0
    4.3679   -1.4133   28.0988 H   0  0  0  0  0  0  0  0  0  0  0  0
    5.8938   -1.3984   29.0050 H   0  0  0  0  0  0  0  0  0  0  0  0
    3.5250   -2.7870   26.6879 H   0  0  0  0  0  0  0  0  0  0  0  0
    2.8844   -6.9319   25.7261 H   0  0  0  0  0  0  0  0  0  0  0  0
    4.3199   -7.5784   27.6135 H   0  0  0  0  0  0  0  0  0  0  0  0
    6.7241   -7.2709   30.2331 H   0  0  0  0  0  0  0  0  0  0  0  0
    6.3704   -7.7824   28.5568 H   0  0  0  0  0  0  0  0  0  0  0  0
    5.0658   -7.7695   29.7841 H   0  0  0  0  0  0  0  0  0  0  0  0
  1  2  1  0
  2  3  1  0
  3  4  2  0
  4  5  1  0
  5  6  2  0
  6  7  1  0
  7  8  1  0
  8  9  1  0
  9 10  2  0
 10 11  1  0
 11 12  2  0
 11 13  1  0
 13 14  1  0
 14 15  1  0
 15 16  2  0
 16 17  1  0
 17 18  2  0
 18 19  1  0
 19 20  2  0
 20 21  1  0
 18 22  1  0
 17 23  1  0
 16 24  1  0
 14 25  1  0
 25 26  1  0
 26 27  1  0
 27 28  1  0
 27 29  1  0
 27 30  1  0
 25 31  1  0
 31 32  1  0
 32 33  1  0
 32 34  1  0
 32 35  1  0
 25 36  1  0
 14 37  1  0
 13 38  1  0
 10 39  1  0
 39 40  2  0
 39 41  1  0
  9 42  1  0
  7 43  1  0
  7 44  1  0
  6 45  1  0
 45 46  2  0
 46 47  1  0
 47 48  1  0
 48 49  1  0
 48 50  1  0
 48 51  1  0
 45 52  1  0
  5 53  1  0
  4 54  1  0
  1 55  1  0
  1 56  1  0
  1 57  1  0
 46  3  1  0
 40  8  1  0
 20 15  1  0
M  END
>  <plip>  (1) 
-0.16666666666666666

>  <filename>  (1) 
[H][c]1[n][c]([H])[c]([C]([H])([N]([H])[C](=[O])[c]2[c]([H])[n][n]([C]([H])([H])[c]3[c]([H])[c]([H])[c]([O][C]([H])([H])[H])[c]([O][C]([H])([H])[H])[c]3[H])[c]2[H])[C]([H])([O][C]([H])([H])[H])[O][C]([H])([H])[H])[c]([H])[c]1[H]

$$$$
