
     RDKit          3D

 51 55  0  0  0  0  0  0  0  0999 V2000
   13.3814    5.3504   21.9766 H   0  0  0  0  0  0  0  0  0  0  0  0
   12.5587    5.1267   22.6573 C   0  0  0  0  0  0  0  0  0  0  0  0
   11.8207    4.0656   22.3477 N   0  0  0  0  0  0  0  0  0  0  0  0
   10.7986    3.7561   23.1631 C   0  0  0  0  0  0  0  0  0  0  0  0
   10.0024    2.7016   22.7743 N   0  0  0  0  0  0  0  0  0  0  0  0
    8.8099    2.2741   23.5298 C   0  0  0  0  0  0  0  0  0  0  0  0
    9.0923    1.5858   24.3419 H   0  0  0  0  0  0  0  0  0  0  0  0
    8.3234    3.1486   23.9688 H   0  0  0  0  0  0  0  0  0  0  0  0
    7.7268    1.5624   22.6733 C   0  0  0  0  0  0  0  0  0  0  0  0
    6.9840    1.1566   23.3728 H   0  0  0  0  0  0  0  0  0  0  0  0
    7.2064    2.3001   22.0346 H   0  0  0  0  0  0  0  0  0  0  0  0
    8.3422    0.5079   21.8635 N   0  0  0  0  0  0  0  0  0  0  0  0
    7.4930   -0.5131   21.2037 C   0  0  1  0  0  0  0  0  0  0  0  0
    6.6908    0.1310   20.0567 C   0  0  0  0  0  0  0  0  0  0  0  0
    7.2410    0.2031   18.7654 C   0  0  0  0  0  0  0  0  0  0  0  0
    8.2395   -0.1871   18.5713 H   0  0  0  0  0  0  0  0  0  0  0  0
    6.6397    0.7509   17.7021 N   0  0  0  0  0  0  0  0  0  0  0  0
    5.4480    1.3318   17.9006 C   0  0  0  0  0  0  0  0  0  0  0  0
    4.9755    1.7639   17.0212 H   0  0  0  0  0  0  0  0  0  0  0  0
    4.8367    1.3985   19.1562 C   0  0  0  0  0  0  0  0  0  0  0  0
    3.8880    1.9109   19.2594 H   0  0  0  0  0  0  0  0  0  0  0  0
    5.4737    0.8115   20.2545 C   0  0  0  0  0  0  0  0  0  0  0  0
    5.0368    0.9076   21.2511 H   0  0  0  0  0  0  0  0  0  0  0  0
    8.4788   -1.6740   20.7904 C   0  0  0  0  0  0  0  0  0  0  0  0
    9.4873   -1.4353   21.1443 H   0  0  0  0  0  0  0  0  0  0  0  0
    8.5432   -1.7653   19.7139 H   0  0  0  0  0  0  0  0  0  0  0  0
    8.0315   -2.9311   21.5696 C   0  0  2  0  0  0  0  0  0  0  0  0
    8.8210   -3.6881   21.6283 H   0  0  0  0  0  0  0  0  0  0  0  0
    6.6809   -3.4728   21.0670 C   0  0  0  0  0  0  0  0  0  0  0  0
    6.4395   -4.4057   21.5935 H   0  0  0  0  0  0  0  0  0  0  0  0
    6.6419   -3.7036   19.9977 H   0  0  0  0  0  0  0  0  0  0  0  0
    5.7035   -2.3309   21.4578 C   0  0  0  0  0  0  0  0  0  0  0  0
    5.2911   -1.8592   20.5646 H   0  0  0  0  0  0  0  0  0  0  0  0
    4.8741   -2.7028   22.0682 H   0  0  0  0  0  0  0  0  0  0  0  0
    6.6088   -1.3186   22.2218 C   0  0  1  0  0  0  0  0  0  0  0  0
    6.0774   -0.6368   22.8866 H   0  0  0  0  0  0  0  0  0  0  0  0
    7.6106   -2.2701   22.8990 C   0  0  0  0  0  0  0  0  0  0  0  0
    7.1389   -2.9532   23.6197 H   0  0  0  0  0  0  0  0  0  0  0  0
    8.4284   -1.7377   23.3969 H   0  0  0  0  0  0  0  0  0  0  0  0
    9.3156    1.1714   20.9730 C   0  0  0  0  0  0  0  0  0  0  0  0
    9.6869    0.4839   20.2012 H   0  0  0  0  0  0  0  0  0  0  0  0
    8.8288    2.0166   20.4587 H   0  0  0  0  0  0  0  0  0  0  0  0
   10.4823    1.7161   21.7914 C   0  0  0  0  0  0  0  0  0  0  0  0
   10.9859    0.8747   22.2963 H   0  0  0  0  0  0  0  0  0  0  0  0
   11.1969    2.1950   21.1191 H   0  0  0  0  0  0  0  0  0  0  0  0
   10.5288    4.4904   24.3482 C   0  0  0  0  0  0  0  0  0  0  0  0
    9.7514    4.1450   25.0122 H   0  0  0  0  0  0  0  0  0  0  0  0
   11.2850    5.6180   24.6251 C   0  0  0  0  0  0  0  0  0  0  0  0
   11.0400    6.2521   25.4790 H   0  0  0  0  0  0  0  0  0  0  0  0
   12.3419    5.9400   23.7681 C   0  0  0  0  0  0  0  0  0  0  0  0
   12.9784    6.7965   23.9420 H   0  0  0  0  0  0  0  0  0  0  0  0
  1  2  1  0
  2  3  2  0
  3  4  1  0
  4  5  1  0
  5  6  1  0
  6  7  1  0
  6  8  1  0
  6  9  1  0
  9 10  1  0
  9 11  1  0
  9 12  1  0
 13 12  1  1
 13 14  1  0
 14 15  2  0
 15 16  1  0
 15 17  1  0
 17 18  2  0
 18 19  1  0
 18 20  1  0
 20 21  1  0
 20 22  2  0
 22 23  1  0
 13 24  1  0
 24 25  1  0
 24 26  1  0
 24 27  1  0
 27 28  1  1
 27 29  1  0
 29 30  1  0
 29 31  1  0
 29 32  1  0
 32 33  1  0
 32 34  1  0
 32 35  1  0
 35 36  1  1
 35 37  1  0
 37 38  1  0
 37 39  1  0
 12 40  1  0
 40 41  1  0
 40 42  1  0
 40 43  1  0
 43 44  1  0
 43 45  1  0
  4 46  2  0
 46 47  1  0
 46 48  1  0
 48 49  1  0
 48 50  2  0
 50 51  1  0
 50  2  1  0
 43  5  1  0
 35 13  1  0
 22 14  1  0
 37 27  1  0
M  END
>  <plip>  (1) 
-0.10344827586206896

>  <filename>  (1) 
[H][c]1[n][c]([N]2[C]([H])([H])[C]([H])([H])[N]([C@@]3([c]4[c]([H])[n][c]([H])[c]([H])[c]4[H])[C]([H])([H])[C@]4([H])[C]([H])([H])[C]([H])([H])[C@@]3([H])[C]4([H])[H])[C]([H])([H])[C]2([H])[H])[c]([H])[c]([H])[c]1[H]

$$$$
