
     RDKit          3D

 33 36  0  0  0  0  0  0  0  0999 V2000
    4.9689    1.7976   16.9708 H   0  0  0  0  0  0  0  0  0  0  0  0
    5.4212    1.2893   17.8199 C   0  0  0  0  0  0  0  0  0  0  0  0
    6.5729    0.6429   17.5767 N   0  0  0  0  0  0  0  0  0  0  0  0
    7.1497    0.0211   18.6073 C   0  0  0  0  0  0  0  0  0  0  0  0
    8.0832   -0.5021   18.4017 H   0  0  0  0  0  0  0  0  0  0  0  0
    6.6279    0.0260   19.9139 C   0  0  0  0  0  0  0  0  0  0  0  0
    7.4119   -0.6640   20.9461 C   0  0  0  0  0  0  0  0  0  0  0  0
    8.3045   -1.5972   20.7197 N   0  0  0  0  0  0  0  0  0  0  0  0
    8.8441   -2.0161   21.9169 N   0  0  0  0  0  0  0  0  0  0  0  0
    8.2639   -1.2950   22.8397 C   0  0  0  0  0  0  0  0  0  0  0  0
    8.3685   -1.0219   24.5658 S   0  0  0  0  0  0  0  0  0  0  0  0
    7.1658    0.2658   24.3284 C   0  0  0  0  0  0  0  0  0  0  0  0
    6.7381    1.0774   25.2967 O   0  0  0  0  0  0  0  0  0  0  0  0
    6.6575    0.7073   26.6359 C   0  0  0  0  0  0  0  0  0  0  0  0
    6.2238   -0.5486   27.0658 C   0  0  0  0  0  0  0  0  0  0  0  0
    5.9822   -1.3381   26.3603 H   0  0  0  0  0  0  0  0  0  0  0  0
    6.0738   -0.7538   28.4428 C   0  0  0  0  0  0  0  0  0  0  0  0
    5.7028   -1.6985   28.8284 H   0  0  0  0  0  0  0  0  0  0  0  0
    6.3900    0.2467   29.3586 C   0  0  0  0  0  0  0  0  0  0  0  0
    6.2844    0.0567   30.4299 H   0  0  0  0  0  0  0  0  0  0  0  0
    6.8504    1.4983   28.9205 C   0  0  0  0  0  0  0  0  0  0  0  0
    7.2342    2.5334   29.9507 C   0  0  0  0  0  0  0  0  0  0  0  0
    8.3098    2.4935   30.1549 H   0  0  0  0  0  0  0  0  0  0  0  0
    6.9686    3.5550   29.6560 H   0  0  0  0  0  0  0  0  0  0  0  0
    6.7300    2.3142   30.8964 H   0  0  0  0  0  0  0  0  0  0  0  0
    6.9515    1.7312   27.5372 C   0  0  0  0  0  0  0  0  0  0  0  0
    7.2398    2.6883   27.1101 H   0  0  0  0  0  0  0  0  0  0  0  0
    6.7523    0.4776   23.1268 N   0  0  0  0  0  0  0  0  0  0  0  0
    7.3478   -0.4383   22.3074 N   0  0  0  0  0  0  0  0  0  0  0  0
    5.4127    0.6858   20.1547 C   0  0  0  0  0  0  0  0  0  0  0  0
    4.9683    0.7158   21.1537 H   0  0  0  0  0  0  0  0  0  0  0  0
    4.8046    1.3212   19.0746 C   0  0  0  0  0  0  0  0  0  0  0  0
    3.8631    1.8457   19.1906 H   0  0  0  0  0  0  0  0  0  0  0  0
  1  2  1  0
  2  3  2  0
  3  4  1  0
  4  5  1  0
  4  6  2  0
  6  7  1  0
  7  8  2  0
  8  9  1  0
  9 10  2  0
 10 11  1  0
 11 12  1  0
 12 13  1  0
 13 14  1  0
 14 15  2  0
 15 16  1  0
 15 17  1  0
 17 18  1  0
 17 19  2  0
 19 20  1  0
 19 21  1  0
 21 22  1  0
 22 23  1  0
 22 24  1  0
 22 25  1  0
 21 26  2  0
 26 27  1  0
 12 28  2  0
 28 29  1  0
  6 30  1  0
 30 31  1  0
 30 32  2  0
 32 33  1  0
 32  2  1  0
 29  7  1  0
 29 10  1  0
 26 14  1  0
M  END
>  <plip>  (1) 
-0.034482758620689655

>  <filename>  (1) 
[H][c]1[n][c]([H])[c](-[c]2[n][n][c]3[s][c]([O][c]4[c]([H])[c]([H])[c]([H])[c]([C]([H])([H])[H])[c]4[H])[n][n]23)[c]([H])[c]1[H]

$$$$
