
     RDKit          3D

 35 37  0  0  0  0  0  0  0  0999 V2000
    4.8232   -2.2110   27.6341 C   0  0  0  0  0  0  0  0  0  0  0  0
    4.9276   -1.1935   26.6516 O   0  0  0  0  0  0  0  0  0  0  0  0
    6.1296   -0.9072   26.0817 C   0  0  0  0  0  0  0  0  0  0  0  0
    7.3325   -1.5517   26.3998 C   0  0  0  0  0  0  0  0  0  0  0  0
    8.5073   -1.1498   25.7516 C   0  0  0  0  0  0  0  0  0  0  0  0
    8.5071   -0.1280   24.8049 C   0  0  0  0  0  0  0  0  0  0  0  0
    7.2948    0.4958   24.4810 C   0  0  0  0  0  0  0  0  0  0  0  0
    7.2576    1.5249   23.4914 N   0  0  0  0  0  0  0  0  0  0  0  0
    6.5718    2.7121   23.5484 C   0  0  0  0  0  0  0  0  0  0  0  0
    6.7921    3.4331   22.4844 N   0  0  0  0  0  0  0  0  0  0  0  0
    7.6569    2.7338   21.6874 N   0  0  0  0  0  0  0  0  0  0  0  0
    7.9164    1.5964   22.2769 C   0  0  0  0  0  0  0  0  0  0  0  0
    8.8455    0.2835   21.5230 S   0  0  0  0  0  0  0  0  0  0  0  0
    7.3962   -0.7297   20.9743 C   0  0  0  0  0  0  0  0  0  0  0  0
    6.6147   -0.0405   19.8840 C   0  0  0  0  0  0  0  0  0  0  0  0
    5.4051    0.6206   20.1379 C   0  0  0  0  0  0  0  0  0  0  0  0
    4.7865    1.3060   19.0879 C   0  0  0  0  0  0  0  0  0  0  0  0
    5.3916    1.2986   17.8275 C   0  0  0  0  0  0  0  0  0  0  0  0
    6.5568    0.6849   17.5673 N   0  0  0  0  0  0  0  0  0  0  0  0
    7.1479    0.0543   18.5858 C   0  0  0  0  0  0  0  0  0  0  0  0
    8.1095   -0.4086   18.3709 H   0  0  0  0  0  0  0  0  0  0  0  0
    4.9228    1.7956   16.9818 H   0  0  0  0  0  0  0  0  0  0  0  0
    3.8639    1.8515   19.2417 H   0  0  0  0  0  0  0  0  0  0  0  0
    5.0028    0.6444   21.1562 H   0  0  0  0  0  0  0  0  0  0  0  0
    6.7736   -0.9174   21.8579 H   0  0  0  0  0  0  0  0  0  0  0  0
    7.8265   -1.6882   20.6530 H   0  0  0  0  0  0  0  0  0  0  0  0
    5.9797    3.0272   24.3943 H   0  0  0  0  0  0  0  0  0  0  0  0
    6.1134    0.1172   25.1192 C   0  0  0  0  0  0  0  0  0  0  0  0
    5.1720    0.5966   24.8853 H   0  0  0  0  0  0  0  0  0  0  0  0
    9.4240    0.1735   24.3062 H   0  0  0  0  0  0  0  0  0  0  0  0
    9.4420   -1.6479   25.9899 H   0  0  0  0  0  0  0  0  0  0  0  0
    7.3487   -2.3467   27.1416 H   0  0  0  0  0  0  0  0  0  0  0  0
    5.4150   -2.0045   28.5358 H   0  0  0  0  0  0  0  0  0  0  0  0
    3.7720   -2.2296   27.9098 H   0  0  0  0  0  0  0  0  0  0  0  0
    5.1010   -3.2038   27.2567 H   0  0  0  0  0  0  0  0  0  0  0  0
  1  2  1  0
  2  3  1  0
  3  4  2  0
  4  5  1  0
  5  6  2  0
  6  7  1  0
  7  8  1  0
  8  9  1  0
  9 10  2  0
 10 11  1  0
 11 12  2  0
 12 13  1  0
 13 14  1  0
 14 15  1  0
 15 16  2  0
 16 17  1  0
 17 18  2  0
 18 19  1  0
 19 20  2  0
 20 21  1  0
 18 22  1  0
 17 23  1  0
 16 24  1  0
 14 25  1  0
 14 26  1  0
  9 27  1  0
  7 28  2  0
 28 29  1  0
  6 30  1  0
  5 31  1  0
  4 32  1  0
  1 33  1  0
  1 34  1  0
  1 35  1  0
 28  3  1  0
 12  8  1  0
 20 15  1  0
M  END
>  <plip>  (1) 
-0.07142857142857142

>  <filename>  (1) 
[H][c]1[n][c]([H])[c]([C]([H])([H])[S][c]2[n][n][c]([H])[n]2-[c]2[c]([H])[c]([H])[c]([H])[c]([O][C]([H])([H])[H])[c]2[H])[c]([H])[c]1[H]

$$$$
