
     RDKit          3D

 24 26  0  0  0  0  0  0  0  0999 V2000
    7.1182    4.1314   22.5092 H   0  0  0  0  0  0  0  0  0  0  0  0
    7.2248    3.0995   22.7998 C   0  0  0  0  0  0  0  0  0  0  0  0
    7.2467    2.7026   24.1039 N   0  0  0  0  0  0  0  0  0  0  0  0
    7.3813    1.4083   24.0008 C   0  0  0  0  0  0  0  0  0  0  0  0
    7.4554    0.7044   24.8208 H   0  0  0  0  0  0  0  0  0  0  0  0
    7.4172    1.0317   22.6953 N   0  0  0  0  0  0  0  0  0  0  0  0
    7.6482   -0.2586   22.2266 C   0  0  0  0  0  0  0  0  0  0  0  0
    8.2213   -1.3261   22.8816 C   0  0  0  0  0  0  0  0  0  0  0  0
    8.5956   -1.3625   23.8953 H   0  0  0  0  0  0  0  0  0  0  0  0
    8.2740   -2.3242   21.8989 C   0  0  0  0  0  0  0  0  0  0  0  0
    8.6740   -3.3262   21.9775 H   0  0  0  0  0  0  0  0  0  0  0  0
    7.7670   -1.9317   20.7439 N   0  0  0  0  0  0  0  0  0  0  0  0
    7.3525   -0.6667   20.9478 N   0  0  0  0  0  0  0  0  0  0  0  0
    6.6380   -0.0101   19.9091 C   0  0  0  0  0  0  0  0  0  0  0  0
    7.1723    0.0321   18.6083 C   0  0  0  0  0  0  0  0  0  0  0  0
    8.1219   -0.4409   18.3712 H   0  0  0  0  0  0  0  0  0  0  0  0
    6.5759    0.6672   17.5971 N   0  0  0  0  0  0  0  0  0  0  0  0
    5.4081    1.2889   17.8407 C   0  0  0  0  0  0  0  0  0  0  0  0
    4.9358    1.7845   16.9947 H   0  0  0  0  0  0  0  0  0  0  0  0
    4.8017    1.2889   19.1004 C   0  0  0  0  0  0  0  0  0  0  0  0
    3.8812    1.8367   19.2581 H   0  0  0  0  0  0  0  0  0  0  0  0
    5.4146    0.6168   20.1606 C   0  0  0  0  0  0  0  0  0  0  0  0
    4.9971    0.6464   21.1677 H   0  0  0  0  0  0  0  0  0  0  0  0
    7.3473    2.1380   21.9087 N   0  0  0  0  0  0  0  0  0  0  0  0
  1  2  1  0
  2  3  1  0
  3  4  2  0
  4  5  1  0
  4  6  1  0
  6  7  1  0
  7  8  2  0
  8  9  1  0
  8 10  1  0
 10 11  1  0
 10 12  2  0
 12 13  1  0
 13 14  1  0
 14 15  2  0
 15 16  1  0
 15 17  1  0
 17 18  2  0
 18 19  1  0
 18 20  1  0
 20 21  1  0
 20 22  2  0
 22 23  1  0
  6 24  1  0
 24  2  2  0
 13  7  1  0
 22 14  1  0
M  END
>  <plip>  (1) 
-0.03571428571428571

>  <filename>  (1) 
[H][c]1[n][c]([H])[n](-[c]2[c]([H])[c]([H])[n][n]2-[c]2[c]([H])[n][c]([H])[c]([H])[c]2[H])[n]1

$$$$
