
     RDKit          3D

 43 45  0  0  0  0  0  0  0  0999 V2000
    4.8096    1.2978   19.1086 C   0  0  0  0  0  0  0  0  0  0  0  0
    5.4037    1.2873   17.8452 C   0  0  0  0  0  0  0  0  0  0  0  0
    6.5705    0.6637   17.6073 N   0  0  0  0  0  0  0  0  0  0  0  0
    7.1829    0.0508   18.6295 C   0  0  0  0  0  0  0  0  0  0  0  0
    6.6644    0.0159   19.9421 C   0  0  0  0  0  0  0  0  0  0  0  0
    7.3598   -0.6989   20.8942 O   0  0  0  0  0  0  0  0  0  0  0  0
    7.3649   -0.3590   22.2355 C   0  0  0  0  0  0  0  0  0  0  0  0
    7.5208   -1.4217   23.1393 C   0  0  0  0  0  0  0  0  0  0  0  0
    7.5751   -1.1485   24.5130 C   0  0  0  0  0  0  0  0  0  0  0  0
    7.7432   -2.0827   25.4915 O   0  0  0  0  0  0  0  0  0  0  0  0
    7.7285   -3.4812   25.2181 C   0  0  0  0  0  0  0  0  0  0  0  0
    6.3512   -4.0767   24.9242 C   0  0  0  0  0  0  0  0  0  0  0  0
    5.3982   -4.0570   26.0826 N   0  0  0  0  0  4  0  0  0  0  0  0
    4.4528   -5.2498   26.0516 C   0  0  0  0  0  0  0  0  0  0  0  0
    3.2321   -5.0619   26.9611 C   0  0  0  0  0  0  0  0  0  0  0  0
    3.6237   -4.1022   28.4468 S   0  0  0  0  0  0  0  0  0  0  0  0
    4.0269   -2.5469   27.5783 C   0  0  0  0  0  0  0  0  0  0  0  0
    4.6439   -2.7385   26.1829 C   0  0  0  0  0  0  0  0  0  0  0  0
    3.8639   -2.7426   25.4170 H   0  0  0  0  0  0  0  0  0  0  0  0
    5.3212   -1.9158   25.9529 H   0  0  0  0  0  0  0  0  0  0  0  0
    3.1246   -1.9343   27.4906 H   0  0  0  0  0  0  0  0  0  0  0  0
    4.7217   -2.0185   28.2355 H   0  0  0  0  0  0  0  0  0  0  0  0
    2.8573   -6.0342   27.2848 H   0  0  0  0  0  0  0  0  0  0  0  0
    2.4172   -4.5630   26.4264 H   0  0  0  0  0  0  0  0  0  0  0  0
    5.0062   -6.1481   26.3412 H   0  0  0  0  0  0  0  0  0  0  0  0
    4.1059   -5.3878   25.0217 H   0  0  0  0  0  0  0  0  0  0  0  0
    5.9242   -4.1239   26.9886 H   0  0  0  0  0  0  0  0  0  0  0  0
    5.8999   -3.5352   24.0871 H   0  0  0  0  0  0  0  0  0  0  0  0
    6.4854   -5.1140   24.5997 H   0  0  0  0  0  0  0  0  0  0  0  0
    8.0941   -3.9338   26.1430 H   0  0  0  0  0  0  0  0  0  0  0  0
    8.4318   -3.7294   24.4139 H   0  0  0  0  0  0  0  0  0  0  0  0
    7.4801    0.1791   24.9706 C   0  0  0  0  0  0  0  0  0  0  0  0
    7.3532    1.2159   24.0540 C   0  0  0  0  0  0  0  0  0  0  0  0
    7.3019    0.9642   22.6788 C   0  0  0  0  0  0  0  0  0  0  0  0
    7.2098    1.7737   21.9606 H   0  0  0  0  0  0  0  0  0  0  0  0
    7.2845    2.2418   24.4046 H   0  0  0  0  0  0  0  0  0  0  0  0
    7.5238    0.3632   26.0395 H   0  0  0  0  0  0  0  0  0  0  0  0
    7.6122   -2.4293   22.7561 H   0  0  0  0  0  0  0  0  0  0  0  0
    5.4377    0.6449   20.1779 C   0  0  0  0  0  0  0  0  0  0  0  0
    5.0057    0.6277   21.1770 H   0  0  0  0  0  0  0  0  0  0  0  0
    8.1245   -0.4419   18.3995 H   0  0  0  0  0  0  0  0  0  0  0  0
    4.9308    1.7820   16.9955 H   0  0  0  0  0  0  0  0  0  0  0  0
    3.8825    1.8344   19.2554 H   0  0  0  0  0  0  0  0  0  0  0  0
  1  2  2  0
  2  3  1  0
  3  4  2  0
  4  5  1  0
  5  6  1  0
  6  7  1  0
  7  8  2  0
  8  9  1  0
  9 10  1  0
 10 11  1  0
 11 12  1  0
 12 13  1  0
 13 14  1  0
 14 15  1  0
 15 16  1  0
 16 17  1  0
 17 18  1  0
 18 19  1  0
 18 20  1  0
 17 21  1  0
 17 22  1  0
 15 23  1  0
 15 24  1  0
 14 25  1  0
 14 26  1  0
 13 27  1  0
 12 28  1  0
 12 29  1  0
 11 30  1  0
 11 31  1  0
  9 32  2  0
 32 33  1  0
 33 34  2  0
 34 35  1  0
 33 36  1  0
 32 37  1  0
  8 38  1  0
  5 39  2  0
 39 40  1  0
  4 41  1  0
  2 42  1  0
  1 43  1  0
 39  1  1  0
 34  7  1  0
 18 13  1  0
M  CHG  1  13   1
M  END
>  <plip>  (1) 
-0.0

>  <filename>  (1) 
[H][c]1[n][c]([H])[c]([O][c]2[c]([H])[c]([H])[c]([H])[c]([O][C]([H])([H])[C]([H])([H])[N+]3([H])[C]([H])([H])[C]([H])([H])[S][C]([H])([H])[C]3([H])[H])[c]2[H])[c]([H])[c]1[H]

$$$$
