
     RDKit          3D

 29 31  0  0  0  0  0  0  0  0999 V2000
    4.8039    1.3116   19.1038 C   0  0  0  0  0  0  0  0  0  0  0  0
    5.4021    1.2901   17.8394 C   0  0  0  0  0  0  0  0  0  0  0  0
    6.5640    0.6714   17.5809 N   0  0  0  0  0  0  0  0  0  0  0  0
    7.1632    0.0479   18.6039 C   0  0  0  0  0  0  0  0  0  0  0  0
    6.6491   -0.0043   19.9040 C   0  0  0  0  0  0  0  0  0  0  0  0
    7.3732   -0.7631   20.9850 C   0  0  0  0  0  0  0  0  0  0  0  0
    6.9409   -2.1463   21.0027 N   0  0  0  0  0  0  0  0  0  0  0  0
    7.4074   -3.0904   21.9111 C   0  0  0  0  0  0  0  0  0  0  0  0
    6.9399   -4.4604   21.9110 C   0  0  0  0  0  0  0  0  0  0  0  0
    7.3443   -5.4378   22.7314 N   0  0  0  0  0  0  0  0  0  0  0  0
    8.2629   -5.0454   23.6270 C   0  0  0  0  0  0  0  0  0  0  0  0
    8.8566   -5.8129   24.5876 N   0  0  0  0  0  0  0  0  0  0  0  0
    9.7569   -5.0484   25.3142 C   0  0  0  0  0  0  0  0  0  0  0  0
    9.7499   -3.7782   24.8205 C   0  0  0  0  0  0  0  0  0  0  0  0
    8.8079   -3.7405   23.7437 C   0  0  0  0  0  0  0  0  0  0  0  0
    8.3732   -2.7439   22.8713 C   0  0  0  0  0  0  0  0  0  0  0  0
    8.7749   -1.7325   22.9412 H   0  0  0  0  0  0  0  0  0  0  0  0
   10.3394   -2.9417   25.1631 H   0  0  0  0  0  0  0  0  0  0  0  0
   10.3405   -5.4675   26.1355 H   0  0  0  0  0  0  0  0  0  0  0  0
    8.6344   -6.7795   24.7199 H   0  0  0  0  0  0  0  0  0  0  0  0
    6.1890   -4.7356   21.1705 H   0  0  0  0  0  0  0  0  0  0  0  0
    6.2382   -2.3996   20.3270 H   0  0  0  0  0  0  0  0  0  0  0  0
    7.1744   -0.2878   21.9589 H   0  0  0  0  0  0  0  0  0  0  0  0
    8.4597   -0.7154   20.8176 H   0  0  0  0  0  0  0  0  0  0  0  0
    5.4382    0.6499   20.1567 C   0  0  0  0  0  0  0  0  0  0  0  0
    5.0056    0.6339   21.1611 H   0  0  0  0  0  0  0  0  0  0  0  0
    8.1158   -0.4273   18.3749 H   0  0  0  0  0  0  0  0  0  0  0  0
    4.9196    1.7803   16.9957 H   0  0  0  0  0  0  0  0  0  0  0  0
    3.8724    1.8456   19.2563 H   0  0  0  0  0  0  0  0  0  0  0  0
  1  2  2  0
  2  3  1  0
  3  4  2  0
  4  5  1  0
  5  6  1  0
  6  7  1  0
  7  8  1  0
  8  9  2  0
  9 10  1  0
 10 11  2  0
 11 12  1  0
 12 13  1  0
 13 14  2  0
 14 15  1  0
 15 16  2  0
 16 17  1  0
 14 18  1  0
 13 19  1  0
 12 20  1  0
  9 21  1  0
  7 22  1  0
  6 23  1  0
  6 24  1  0
  5 25  2  0
 25 26  1  0
  4 27  1  0
  2 28  1  0
  1 29  1  0
 25  1  1  0
 16  8  1  0
 15 11  1  0
M  END
>  <plip>  (1) 
-0.10344827586206896

>  <filename>  (1) 
[H][c]1[n][c]([H])[c]([C]([H])([H])[N]([H])[c]2[c]([H])[n][c]3[c]([c]2[H])[c]([H])[c]([H])[n]3[H])[c]([H])[c]1[H]

$$$$
