
     RDKit          3D

 39 42  0  0  0  0  0  0  0  0999 V2000
    4.9203    1.7785   16.9994 H   0  0  0  0  0  0  0  0  0  0  0  0
    5.4040    1.2902   17.8410 C   0  0  0  0  0  0  0  0  0  0  0  0
    6.5682    0.6768   17.5753 N   0  0  0  0  0  0  0  0  0  0  0  0
    7.1727    0.0556   18.5887 C   0  0  0  0  0  0  0  0  0  0  0  0
    8.1212   -0.4331   18.3707 H   0  0  0  0  0  0  0  0  0  0  0  0
    6.6481    0.0117   19.8928 C   0  0  0  0  0  0  0  0  0  0  0  0
    7.4076   -0.7025   20.9137 C   0  0  0  0  0  0  0  0  0  0  0  0
    8.3317   -1.6046   20.6909 N   0  0  0  0  0  0  0  0  0  0  0  0
    8.8285   -2.0546   21.8938 N   0  0  0  0  0  0  0  0  0  0  0  0
    8.1962   -1.3831   22.8123 C   0  0  0  0  0  0  0  0  0  0  0  0
    8.2393   -1.1542   24.5380 S   0  0  0  0  0  0  0  0  0  0  0  0
    7.0229    0.1033   24.3181 C   0  0  0  0  0  0  0  0  0  0  0  0
    6.4698    0.8653   25.4832 C   0  0  0  0  0  0  0  0  0  0  0  0
    6.6775    1.9285   25.3075 H   0  0  0  0  0  0  0  0  0  0  0  0
    7.0376    0.5845   26.3852 H   0  0  0  0  0  0  0  0  0  0  0  0
    5.0173    0.6790   25.6205 N   0  0  0  0  0  0  0  0  0  0  0  0
    4.3700    1.7179   26.4358 C   0  0  0  0  0  0  0  0  0  0  0  0
    3.2920    1.6691   26.2483 H   0  0  0  0  0  0  0  0  0  0  0  0
    4.7089    2.7014   26.0912 H   0  0  0  0  0  0  0  0  0  0  0  0
    4.6231    1.5641   27.9434 C   0  0  0  0  0  0  0  0  0  0  0  0
    5.7024    1.7291   28.1469 H   0  0  0  0  0  0  0  0  0  0  0  0
    4.0784    2.3455   28.4838 H   0  0  0  0  0  0  0  0  0  0  0  0
    4.1774    0.2436   28.4154 N   0  0  0  0  0  0  0  0  0  0  0  0
    4.3902    0.1024   29.8429 C   0  0  0  0  0  0  0  0  0  0  0  0
    4.0249   -0.8726   30.1799 H   0  0  0  0  0  0  0  0  0  0  0  0
    3.8298    0.8747   30.3791 H   0  0  0  0  0  0  0  0  0  0  0  0
    5.4586    0.1891   30.1264 H   0  0  0  0  0  0  0  0  0  0  0  0
    4.8779   -0.8116   27.6684 C   0  0  0  0  0  0  0  0  0  0  0  0
    4.4995   -1.7905   27.9855 H   0  0  0  0  0  0  0  0  0  0  0  0
    5.9668   -0.8130   27.8867 H   0  0  0  0  0  0  0  0  0  0  0  0
    4.6619   -0.6568   26.1493 C   0  0  0  0  0  0  0  0  0  0  0  0
    3.6059   -0.8424   25.9232 H   0  0  0  0  0  0  0  0  0  0  0  0
    5.2364   -1.4220   25.6167 H   0  0  0  0  0  0  0  0  0  0  0  0
    6.6284    0.3244   23.1065 N   0  0  0  0  0  0  0  0  0  0  0  0
    7.2784   -0.5322   22.2756 N   0  0  0  0  0  0  0  0  0  0  0  0
    5.4310    0.6528   20.1633 C   0  0  0  0  0  0  0  0  0  0  0  0
    5.0097    0.6384   21.1721 H   0  0  0  0  0  0  0  0  0  0  0  0
    4.8052    1.3075   19.1069 C   0  0  0  0  0  0  0  0  0  0  0  0
    3.8749    1.8428   19.2580 H   0  0  0  0  0  0  0  0  0  0  0  0
  1  2  1  0
  2  3  2  0
  3  4  1  0
  4  5  1  0
  4  6  2  0
  6  7  1  0
  7  8  2  0
  8  9  1  0
  9 10  2  0
 10 11  1  0
 11 12  1  0
 12 13  1  0
 13 14  1  0
 13 15  1  0
 13 16  1  0
 16 17  1  0
 17 18  1  0
 17 19  1  0
 17 20  1  0
 20 21  1  0
 20 22  1  0
 20 23  1  0
 23 24  1  0
 24 25  1  0
 24 26  1  0
 24 27  1  0
 23 28  1  0
 28 29  1  0
 28 30  1  0
 28 31  1  0
 31 32  1  0
 31 33  1  0
 12 34  2  0
 34 35  1  0
  6 36  1  0
 36 37  1  0
 36 38  2  0
 38 39  1  0
 38  2  1  0
 35  7  1  0
 35 10  1  0
 31 16  1  0
M  END
>  <plip>  (1) 
-0.034482758620689655

>  <filename>  (1) 
[H][c]1[n][c]([H])[c](-[c]2[n][n][c]3[s][c]([C]([H])([H])[N]4[C]([H])([H])[C]([H])([H])[N]([C]([H])([H])[H])[C]([H])([H])[C]4([H])[H])[n][n]23)[c]([H])[c]1[H]

$$$$
